
     RDKit          3D

 28 30  0  0  0  0  0  0  0  0999 V2000
    5.5976   -1.4922   21.9283 H   0  0  0  0  0  0  0  0  0  0  0  0
    6.6736   -1.3911   21.9195 C   0  0  0  0  0  0  0  0  0  0  0  0
    7.3579   -1.9760   22.8919 N   0  0  0  0  0  0  0  0  0  0  0  0
    8.7000   -1.9314   22.8381 N   0  0  0  0  0  0  0  0  0  0  0  0
    9.3182   -1.3596   21.7851 C   0  0  0  0  0  0  0  0  0  0  0  0
   10.8199   -1.4312   21.7173 C   0  0  0  0  0  0  0  0  0  0  0  0
   11.5781   -0.8066   20.8347 N   0  0  0  0  0  0  0  0  0  0  0  0
   12.8167   -1.3571   20.9531 C   0  0  0  0  0  0  0  0  0  0  0  0
   13.6350   -1.1467   20.2744 H   0  0  0  0  0  0  0  0  0  0  0  0
   12.8474   -2.2537   21.9661 C   0  0  0  0  0  0  0  0  0  0  0  0
   13.6419   -2.9324   22.2336 H   0  0  0  0  0  0  0  0  0  0  0  0
   11.5745   -2.3167   22.4649 N   0  0  0  0  0  0  0  0  0  0  0  0
   11.1367   -3.2454   23.4968 C   0  0  0  0  0  0  0  0  0  0  0  0
   11.9719   -3.8902   23.7565 H   0  0  0  0  0  0  0  0  0  0  0  0
   10.8158   -2.7057   24.3857 H   0  0  0  0  0  0  0  0  0  0  0  0
   10.2908   -3.8412   23.1593 H   0  0  0  0  0  0  0  0  0  0  0  0
    8.6591   -0.7680   20.7657 N   0  0  0  0  0  0  0  0  0  0  0  0
    7.3333   -0.7168   20.8587 C   0  0  0  0  0  0  0  0  0  0  0  0
    6.6008    0.0360   19.8137 C   0  0  0  0  0  0  0  0  0  0  0  0
    7.1519    0.1000   18.5213 C   0  0  0  0  0  0  0  0  0  0  0  0
    8.1048   -0.3806   18.3095 H   0  0  0  0  0  0  0  0  0  0  0  0
    6.5630    0.7129   17.4906 N   0  0  0  0  0  0  0  0  0  0  0  0
    5.4010    1.3407   17.7236 C   0  0  0  0  0  0  0  0  0  0  0  0
    4.9514    1.8506   16.8739 H   0  0  0  0  0  0  0  0  0  0  0  0
    4.7790    1.3679   18.9757 C   0  0  0  0  0  0  0  0  0  0  0  0
    3.8519    1.9168   19.1023 H   0  0  0  0  0  0  0  0  0  0  0  0
    5.3822    0.7007   20.0401 C   0  0  0  0  0  0  0  0  0  0  0  0
    4.9149    0.7183   21.0270 H   0  0  0  0  0  0  0  0  0  0  0  0
  1  2  1  0
  2  3  2  0
  3  4  1  0
  4  5  2  0
  5  6  1  0
  6  7  2  0
  7  8  1  0
  8  9  1  0
  8 10  2  0
 10 11  1  0
 10 12  1  0
 12 13  1  0
 13 14  1  0
 13 15  1  0
 13 16  1  0
  5 17  1  0
 17 18  2  0
 18 19  1  0
 19 20  2  0
 20 21  1  0
 20 22  1  0
 22 23  2  0
 23 24  1  0
 23 25  1  0
 25 26  1  0
 25 27  2  0
 27 28  1  0
 18  2  1  0
 27 19  1  0
 12  6  1  0
M  END
>  <cnnaffinity>  (1) 
-5.31292

>  <filename>  (1) 
Cn1ccnc1-c1nncc(-c2cccnc2)n1

$$$$
