
     RDKit          3D

 34 36  0  0  0  0  0  0  0  0999 V2000
    5.0555    1.8768   16.9266 H   0  0  0  0  0  0  0  0  0  0  0  0
    5.4770    1.3201   17.7609 C   0  0  0  0  0  0  0  0  0  0  0  0
    6.6163    0.6471   17.5242 N   0  0  0  0  0  0  0  0  0  0  0  0
    7.1728   -0.0339   18.5421 C   0  0  0  0  0  0  0  0  0  0  0  0
    8.0789   -0.5948   18.3081 H   0  0  0  0  0  0  0  0  0  0  0  0
    6.6295   -0.0653   19.8474 C   0  0  0  0  0  0  0  0  0  0  0  0
    7.1716   -0.7577   20.9424 N   0  0  0  0  0  0  0  0  0  0  0  0
    6.7776   -0.4389   21.8294 H   0  0  0  0  0  0  0  0  0  0  0  0
    8.5336   -1.0309   20.9803 N   0  0  0  0  0  0  0  0  0  0  0  0
    8.9087   -2.0530   21.9634 C   0  0  0  0  0  0  0  0  0  0  0  0
    8.4697   -3.0209   21.6932 H   0  0  0  0  0  0  0  0  0  0  0  0
    8.5547   -1.8043   22.9848 H   0  0  0  0  0  0  0  0  0  0  0  0
   10.4288   -2.0132   21.8716 C   0  0  0  0  0  0  0  0  0  0  0  0
   10.9260   -2.5036   22.7174 H   0  0  0  0  0  0  0  0  0  0  0  0
   10.7193   -2.5230   20.9572 H   0  0  0  0  0  0  0  0  0  0  0  0
   10.7569   -0.5212   21.6661 C   0  0  2  0  0  0  0  0  0  0  0  0
   11.5213   -0.4237   20.8927 H   0  0  0  0  0  0  0  0  0  0  0  0
   11.1442    0.2958   22.9053 C   0  0  0  0  0  0  0  0  0  0  0  0
   10.9527   -0.2755   23.8327 H   0  0  0  0  0  0  0  0  0  0  0  0
   12.2166    0.5307   22.9043 H   0  0  0  0  0  0  0  0  0  0  0  0
   10.3458    1.5226   22.8374 N   0  0  0  0  0  0  0  0  0  0  0  0
   10.2574    2.2410   24.0990 C   0  0  0  0  0  0  0  0  0  0  0  0
   11.2645    2.4808   24.4649 H   0  0  0  0  0  0  0  0  0  0  0  0
    9.7192    3.1885   23.9714 H   0  0  0  0  0  0  0  0  0  0  0  0
    9.7440    1.6704   24.8986 H   0  0  0  0  0  0  0  0  0  0  0  0
    9.0629    1.1657   22.2256 C   0  0  0  0  0  0  0  0  0  0  0  0
    8.3402    0.7568   22.9637 H   0  0  0  0  0  0  0  0  0  0  0  0
    8.5809    2.0369   21.7584 H   0  0  0  0  0  0  0  0  0  0  0  0
    9.4426    0.1152   21.1612 C   0  0  2  0  0  0  0  0  0  0  0  0
    9.5882    0.6318   20.2038 H   0  0  0  0  0  0  0  0  0  0  0  0
    5.4256    0.6211   20.0558 C   0  0  0  0  0  0  0  0  0  0  0  0
    4.9781    0.5907   21.0489 H   0  0  0  0  0  0  0  0  0  0  0  0
    4.8369    1.3242   19.0065 C   0  0  0  0  0  0  0  0  0  0  0  0
    3.9168    1.8842   19.1526 H   0  0  0  0  0  0  0  0  0  0  0  0
  1  2  1  0
  2  3  2  0
  3  4  1  0
  4  5  1  0
  4  6  2  0
  6  7  1  0
  7  8  1  0
  7  9  1  0
  9 10  1  0
 10 11  1  0
 10 12  1  0
 10 13  1  0
 13 14  1  0
 13 15  1  0
 13 16  1  0
 16 17  1  6
 16 18  1  0
 18 19  1  0
 18 20  1  0
 18 21  1  0
 21 22  1  0
 22 23  1  0
 22 24  1  0
 22 25  1  0
 21 26  1  0
 26 27  1  0
 26 28  1  0
 26 29  1  0
 29 30  1  6
  6 31  1  0
 31 32  1  0
 31 33  2  0
 33 34  1  0
 33  2  1  0
 29  9  1  0
 29 16  1  0
M  END
>  <cnnaffinity>  (1) 
-4.56352

>  <filename>  (1) 
CN1C[C@H]2CCN(Nc3cccnc3)[C@H]2C1

$$$$
