
     RDKit          3D

 37 39  0  0  0  0  0  0  0  0999 V2000
    4.9131    1.7793   16.9989 H   0  0  0  0  0  0  0  0  0  0  0  0
    5.4011    1.2926   17.8403 C   0  0  0  0  0  0  0  0  0  0  0  0
    6.5664    0.6802   17.5710 N   0  0  0  0  0  0  0  0  0  0  0  0
    7.1744    0.0603   18.5899 C   0  0  0  0  0  0  0  0  0  0  0  0
    8.1222   -0.4227   18.3641 H   0  0  0  0  0  0  0  0  0  0  0  0
    6.6677    0.0007   19.9071 C   0  0  0  0  0  0  0  0  0  0  0  0
    7.3795   -0.6986   20.9930 C   0  0  0  0  0  0  0  0  0  0  0  0
    8.5843   -1.9122   20.7087 S   0  0  0  0  0  0  0  0  0  0  0  0
    8.8299   -2.1635   22.3716 C   0  0  0  0  0  0  0  0  0  0  0  0
    9.5593   -2.8814   22.7108 H   0  0  0  0  0  0  0  0  0  0  0  0
    8.0356   -1.3546   23.1451 C   0  0  0  0  0  0  0  0  0  0  0  0
    8.1289   -1.3151   24.6444 C   0  0  0  0  0  0  0  0  0  0  0  0
    9.1149   -1.7221   25.2360 O   0  0  0  0  0  0  0  0  0  0  0  0
    7.0514   -0.7494   25.3152 N   0  0  0  0  0  0  0  0  0  0  0  0
    7.2617    0.0436   26.5299 C   0  0  0  0  0  0  0  0  0  0  0  0
    6.8946    1.0657   26.3710 H   0  0  0  0  0  0  0  0  0  0  0  0
    8.3309    0.1003   26.7399 H   0  0  0  0  0  0  0  0  0  0  0  0
    6.5299   -0.5500   27.7339 C   0  0  0  0  0  0  0  0  0  0  0  0
    7.0132   -1.5092   27.9966 H   0  0  0  0  0  0  0  0  0  0  0  0
    6.6505    0.1167   28.5969 H   0  0  0  0  0  0  0  0  0  0  0  0
    5.1007   -0.7324   27.4555 N   0  0  0  0  0  0  0  0  0  0  0  0
    4.4026   -1.2472   28.6204 C   0  0  0  0  0  0  0  0  0  0  0  0
    3.3346   -1.3475   28.4044 H   0  0  0  0  0  0  0  0  0  0  0  0
    4.5055   -0.5525   29.4593 H   0  0  0  0  0  0  0  0  0  0  0  0
    4.7831   -2.2360   28.9431 H   0  0  0  0  0  0  0  0  0  0  0  0
    4.9417   -1.6271   26.3053 C   0  0  0  0  0  0  0  0  0  0  0  0
    3.8740   -1.7610   26.0919 H   0  0  0  0  0  0  0  0  0  0  0  0
    5.3497   -2.6356   26.5140 H   0  0  0  0  0  0  0  0  0  0  0  0
    5.6393   -1.0600   25.0595 C   0  0  0  0  0  0  0  0  0  0  0  0
    5.0929   -0.1563   24.7491 H   0  0  0  0  0  0  0  0  0  0  0  0
    5.5793   -1.7992   24.2575 H   0  0  0  0  0  0  0  0  0  0  0  0
    7.2173   -0.4989   22.3370 C   0  0  0  0  0  0  0  0  0  0  0  0
    6.5584    0.2677   22.7444 H   0  0  0  0  0  0  0  0  0  0  0  0
    5.4480    0.6507   20.1590 C   0  0  0  0  0  0  0  0  0  0  0  0
    5.0081    0.6264   21.1605 H   0  0  0  0  0  0  0  0  0  0  0  0
    4.8051    1.3090   19.1079 C   0  0  0  0  0  0  0  0  0  0  0  0
    3.8718    1.8442   19.2628 H   0  0  0  0  0  0  0  0  0  0  0  0
  1  2  1  0
  2  3  2  0
  3  4  1  0
  4  5  1  0
  4  6  2  0
  6  7  1  0
  7  8  1  0
  8  9  1  0
  9 10  1  0
  9 11  2  0
 11 12  1  0
 12 13  2  0
 12 14  1  0
 14 15  1  0
 15 16  1  0
 15 17  1  0
 15 18  1  0
 18 19  1  0
 18 20  1  0
 18 21  1  0
 21 22  1  0
 22 23  1  0
 22 24  1  0
 22 25  1  0
 21 26  1  0
 26 27  1  0
 26 28  1  0
 26 29  1  0
 29 30  1  0
 29 31  1  0
 11 32  1  0
 32 33  1  0
  6 34  1  0
 34 35  1  0
 34 36  2  0
 36 37  1  0
 36  2  1  0
 32  7  2  0
 29 14  1  0
M  END
>  <cnnaffinity>  (1) 
-4.67158

>  <filename>  (1) 
CN1CCN(C(=O)c2csc(-c3cccnc3)c2)CC1

$$$$
