
     RDKit          3D

 30 33  0  0  0  0  0  0  0  0999 V2000
    4.9264    1.7725   17.0029 H   0  0  0  0  0  0  0  0  0  0  0  0
    5.4105    1.2854   17.8466 C   0  0  0  0  0  0  0  0  0  0  0  0
    6.5751    0.6666   17.5962 N   0  0  0  0  0  0  0  0  0  0  0  0
    7.1804    0.0531   18.6176 C   0  0  0  0  0  0  0  0  0  0  0  0
    8.1258   -0.4321   18.3843 H   0  0  0  0  0  0  0  0  0  0  0  0
    6.6455    0.0143   19.9146 C   0  0  0  0  0  0  0  0  0  0  0  0
    7.3567   -0.6912   20.9729 C   0  0  0  0  0  0  0  0  0  0  0  0
    8.5480   -1.3141   20.7602 N   0  0  0  0  0  0  0  0  0  0  0  0
    8.8005   -1.8189   21.9493 C   0  0  0  0  0  0  0  0  0  0  0  0
    9.9655   -2.8765   22.7086 S   0  0  0  0  0  0  0  0  0  0  0  0
    9.0189   -2.8676   24.1588 C   0  0  0  0  0  0  0  0  0  0  0  0
    9.3351   -3.4635   25.0088 H   0  0  0  0  0  0  0  0  0  0  0  0
    7.9181   -2.0792   24.0908 C   0  0  0  0  0  0  0  0  0  0  0  0
    6.9084   -1.9163   25.1407 C   0  0  0  0  0  0  0  0  0  0  0  0
    6.5631   -2.9086   25.9424 N   0  0  0  0  0  0  0  0  0  0  0  0
    5.6284   -2.3931   26.7892 C   0  0  0  0  0  0  0  0  0  0  0  0
    5.1606   -2.9950   27.5563 H   0  0  0  0  0  0  0  0  0  0  0  0
    5.4266   -1.0681   26.5264 C   0  0  0  0  0  0  0  0  0  0  0  0
    4.7827   -0.3372   26.9952 H   0  0  0  0  0  0  0  0  0  0  0  0
    6.2560   -0.7575   25.4781 N   0  0  0  0  0  0  0  0  0  0  0  0
    6.3994    0.5693   24.8981 C   0  0  0  0  0  0  0  0  0  0  0  0
    5.6975    0.7255   24.0781 H   0  0  0  0  0  0  0  0  0  0  0  0
    7.4090    0.7144   24.5158 H   0  0  0  0  0  0  0  0  0  0  0  0
    6.2196    1.3209   25.6706 H   0  0  0  0  0  0  0  0  0  0  0  0
    7.8393   -1.4822   22.8353 N   0  0  0  0  0  0  0  0  0  0  0  0
    6.8744   -0.7679   22.2139 N   0  0  0  0  0  0  0  0  0  0  0  0
    5.4274    0.6586   20.1662 C   0  0  0  0  0  0  0  0  0  0  0  0
    4.9920    0.6362   21.1701 H   0  0  0  0  0  0  0  0  0  0  0  0
    4.8048    1.3102   19.1090 C   0  0  0  0  0  0  0  0  0  0  0  0
    3.8737    1.8430   19.2593 H   0  0  0  0  0  0  0  0  0  0  0  0
  1  2  1  0
  2  3  2  0
  3  4  1  0
  4  5  1  0
  4  6  2  0
  6  7  1  0
  7  8  1  0
  8  9  2  0
  9 10  1  0
 10 11  1  0
 11 12  1  0
 11 13  2  0
 13 14  1  0
 14 15  2  0
 15 16  1  0
 16 17  1  0
 16 18  2  0
 18 19  1  0
 18 20  1  0
 20 21  1  0
 21 22  1  0
 21 23  1  0
 21 24  1  0
 13 25  1  0
 25 26  1  0
  6 27  1  0
 27 28  1  0
 27 29  2  0
 29 30  1  0
 29  2  1  0
 26  7  2  0
 25  9  1  0
 20 14  1  0
M  END
>  <cnnaffinity>  (1) 
-5.42066

>  <filename>  (1) 
Cn1ccnc1-c1csc2nc(-c3cccnc3)nn12

$$$$
