
     RDKit          3D

 39 41  0  0  0  0  0  0  0  0999 V2000
    4.9796    1.8685   16.9830 H   0  0  0  0  0  0  0  0  0  0  0  0
    5.4336    1.3181   17.8019 C   0  0  0  0  0  0  0  0  0  0  0  0
    6.5829    0.6777   17.5283 N   0  0  0  0  0  0  0  0  0  0  0  0
    7.1685    0.0128   18.5380 C   0  0  0  0  0  0  0  0  0  0  0  0
    8.0799   -0.5299   18.2957 H   0  0  0  0  0  0  0  0  0  0  0  0
    6.6558   -0.0473   19.8592 C   0  0  0  0  0  0  0  0  0  0  0  0
    7.2728   -0.7355   20.9078 N   0  0  0  0  0  0  0  0  0  0  0  0
    6.6683   -1.0052   21.6761 H   0  0  0  0  0  0  0  0  0  0  0  0
    8.6532   -0.7533   21.2016 C   0  0  0  0  0  0  0  0  0  0  0  0
    9.7020    0.1224   20.8148 C   0  0  0  0  0  0  0  0  0  0  0  0
    9.6210    1.0003   20.1875 H   0  0  0  0  0  0  0  0  0  0  0  0
   10.8800   -0.2336   21.3154 N   0  0  0  0  0  0  0  0  0  0  0  0
   10.5964   -1.3348   22.0545 N   0  0  0  0  0  0  0  0  0  0  0  0
   11.3491   -1.8884   22.4359 H   0  0  0  0  0  0  0  0  0  0  0  0
    9.2792   -1.6759   22.0160 C   0  0  0  0  0  0  0  0  0  0  0  0
    8.7207   -2.7249   22.6505 O   0  0  0  0  0  0  0  0  0  0  0  0
    9.4994   -3.4573   23.6232 C   0  0  0  0  0  0  0  0  0  0  0  0
   10.4856   -3.6990   23.1976 H   0  0  0  0  0  0  0  0  0  0  0  0
    8.7288   -4.7607   23.8666 C   0  0  0  0  0  0  0  0  0  0  0  0
    8.2119   -5.0453   22.9440 H   0  0  0  0  0  0  0  0  0  0  0  0
    9.4323   -5.5604   24.1289 H   0  0  0  0  0  0  0  0  0  0  0  0
    7.7455   -4.5678   25.0321 C   0  0  0  0  0  0  0  0  0  0  0  0
    7.1092   -5.4511   25.1619 H   0  0  0  0  0  0  0  0  0  0  0  0
    7.0846   -3.7231   24.7734 H   0  0  0  0  0  0  0  0  0  0  0  0
    8.4351   -4.2507   26.2901 N   0  0  0  0  0  0  0  0  0  0  0  0
    8.6091   -5.3312   27.2517 C   0  0  0  0  0  0  0  0  0  0  0  0
    9.2264   -6.1712   26.8807 H   0  0  0  0  0  0  0  0  0  0  0  0
    9.1102   -4.9455   28.1484 H   0  0  0  0  0  0  0  0  0  0  0  0
    7.6396   -5.7224   27.5853 H   0  0  0  0  0  0  0  0  0  0  0  0
    9.6439   -3.4300   26.1646 C   0  0  0  0  0  0  0  0  0  0  0  0
   10.5660   -4.0469   26.1822 H   0  0  0  0  0  0  0  0  0  0  0  0
    9.6770   -2.7628   27.0388 H   0  0  0  0  0  0  0  0  0  0  0  0
    9.6435   -2.5846   24.8907 C   0  0  0  0  0  0  0  0  0  0  0  0
   10.5499   -1.9715   24.8153 H   0  0  0  0  0  0  0  0  0  0  0  0
    8.7980   -1.8874   24.9548 H   0  0  0  0  0  0  0  0  0  0  0  0
    5.4326    0.5917   20.1070 C   0  0  0  0  0  0  0  0  0  0  0  0
    4.9949    0.5507   21.1080 H   0  0  0  0  0  0  0  0  0  0  0  0
    4.8198    1.2893   19.0636 C   0  0  0  0  0  0  0  0  0  0  0  0
    3.8862    1.8185   19.2228 H   0  0  0  0  0  0  0  0  0  0  0  0
  1  2  1  0
  2  3  2  0
  3  4  1  0
  4  5  1  0
  4  6  2  0
  6  7  1  0
  7  8  1  0
  7  9  1  0
  9 10  1  0
 10 11  1  0
 10 12  2  0
 12 13  1  0
 13 14  1  0
 13 15  1  0
 15 16  1  0
 16 17  1  0
 17 18  1  0
 17 19  1  0
 19 20  1  0
 19 21  1  0
 19 22  1  0
 22 23  1  0
 22 24  1  0
 22 25  1  0
 25 26  1  0
 26 27  1  0
 26 28  1  0
 26 29  1  0
 25 30  1  0
 30 31  1  0
 30 32  1  0
 30 33  1  0
 33 34  1  0
 33 35  1  0
  6 36  1  0
 36 37  1  0
 36 38  2  0
 38 39  1  0
 38  2  1  0
 15  9  2  0
 33 17  1  0
M  END
>  <cnnaffinity>  (1) 
-5.31095

>  <filename>  (1) 
CN1CCC(Oc2[nH]ncc2Nc2cccnc2)CC1

$$$$
