
     RDKit          3D

 35 38  0  0  0  0  0  0  0  0999 V2000
    4.9451    1.8237   16.9788 H   0  0  0  0  0  0  0  0  0  0  0  0
    5.4040    1.2975   17.8142 C   0  0  0  0  0  0  0  0  0  0  0  0
    6.5640    0.6680   17.5600 N   0  0  0  0  0  0  0  0  0  0  0  0
    7.1491    0.0099   18.5638 C   0  0  0  0  0  0  0  0  0  0  0  0
    8.1026   -0.4632   18.3262 H   0  0  0  0  0  0  0  0  0  0  0  0
    6.6189   -0.0491   19.8633 C   0  0  0  0  0  0  0  0  0  0  0  0
    7.3384   -0.7283   20.9458 C   0  0  0  0  0  0  0  0  0  0  0  0
    7.9642   -1.8841   20.7509 N   0  0  0  0  0  0  0  0  0  0  0  0
    8.4517   -2.1828   21.9566 N   0  0  0  0  0  0  0  0  0  0  0  0
    8.2444   -1.2769   22.9093 C   0  0  0  0  0  0  0  0  0  0  0  0
    7.5173   -0.2691   22.2973 C   0  0  0  0  0  0  0  0  0  0  0  0
    7.2574    1.0127   22.8979 C   0  0  0  0  0  0  0  0  0  0  0  0
    7.0899    1.3040   24.2712 C   0  0  0  0  0  0  0  0  0  0  0  0
    7.0673    0.6251   25.1178 H   0  0  0  0  0  0  0  0  0  0  0  0
    6.9292    2.6017   24.4753 N   0  0  0  0  0  0  0  0  0  0  0  0
    7.0108    3.1541   23.2627 N   0  0  0  0  0  0  0  0  0  0  0  0
    6.8326    4.5713   23.0694 C   0  0  0  0  0  0  0  0  0  0  0  0
    7.5342    4.9049   22.2971 H   0  0  0  0  0  0  0  0  0  0  0  0
    7.0456    5.0558   24.0235 H   0  0  0  0  0  0  0  0  0  0  0  0
    5.8019    4.7771   22.7573 H   0  0  0  0  0  0  0  0  0  0  0  0
    7.2031    2.2490   22.2881 C   0  0  0  0  0  0  0  0  0  0  0  0
    7.2967    2.5542   21.2494 H   0  0  0  0  0  0  0  0  0  0  0  0
    9.1147   -1.5458   24.1163 C   0  0  0  0  0  0  0  0  0  0  0  0
    8.5208   -1.6865   25.0260 H   0  0  0  0  0  0  0  0  0  0  0  0
    9.7946   -0.7018   24.2879 H   0  0  0  0  0  0  0  0  0  0  0  0
    9.8836   -2.8328   23.7053 C   0  0  0  0  0  0  0  0  0  0  0  0
   10.9612   -2.6837   23.7468 H   0  0  0  0  0  0  0  0  0  0  0  0
    9.6406   -3.6712   24.3594 H   0  0  0  0  0  0  0  0  0  0  0  0
    9.4697   -3.1503   22.2441 C   0  0  0  0  0  0  0  0  0  0  0  0
   10.2929   -2.9717   21.5452 H   0  0  0  0  0  0  0  0  0  0  0  0
    9.0491   -4.1505   22.1242 H   0  0  0  0  0  0  0  0  0  0  0  0
    5.4092    0.6172   20.1132 C   0  0  0  0  0  0  0  0  0  0  0  0
    4.9946    0.6355   21.1213 H   0  0  0  0  0  0  0  0  0  0  0  0
    4.7902    1.2970   19.0700 C   0  0  0  0  0  0  0  0  0  0  0  0
    3.8658    1.8466   19.2254 H   0  0  0  0  0  0  0  0  0  0  0  0
  1  2  1  0
  2  3  2  0
  3  4  1  0
  4  5  1  0
  4  6  2  0
  6  7  1  0
  7  8  2  0
  8  9  1  0
  9 10  1  0
 10 11  2  0
 11 12  1  0
 12 13  1  0
 13 14  1  0
 13 15  2  0
 15 16  1  0
 16 17  1  0
 17 18  1  0
 17 19  1  0
 17 20  1  0
 16 21  1  0
 21 22  1  0
 10 23  1  0
 23 24  1  0
 23 25  1  0
 23 26  1  0
 26 27  1  0
 26 28  1  0
 26 29  1  0
 29 30  1  0
 29 31  1  0
  6 32  1  0
 32 33  1  0
 32 34  2  0
 34 35  1  0
 34  2  1  0
 11  7  1  0
 21 12  2  0
 29  9  1  0
M  END
>  <cnnaffinity>  (1) 
-5.39385

>  <filename>  (1) 
Cn1cc(-c2c(-c3cccnc3)nn3c2CCC3)cn1

$$$$
