
     RDKit          3D

 35 38  0  0  0  0  0  0  0  0999 V2000
    4.9965    1.8395   16.9193 H   0  0  0  0  0  0  0  0  0  0  0  0
    5.3893    1.3065   17.7839 C   0  0  0  0  0  0  0  0  0  0  0  0
    6.5419    0.6458   17.5948 N   0  0  0  0  0  0  0  0  0  0  0  0
    7.0670    0.0281   18.6642 C   0  0  0  0  0  0  0  0  0  0  0  0
    8.0031   -0.4974   18.4814 H   0  0  0  0  0  0  0  0  0  0  0  0
    6.4846    0.0008   19.9509 C   0  0  0  0  0  0  0  0  0  0  0  0
    7.2380   -0.6171   21.0697 C   0  0  0  0  0  0  0  0  0  0  0  0
    8.5928   -0.5524   21.3098 C   0  0  0  0  0  0  0  0  0  0  0  0
    8.8046   -1.1549   22.5423 C   0  0  0  0  0  0  0  0  0  0  0  0
    7.6935   -1.6131   23.0840 N   0  0  0  0  0  0  0  0  0  0  0  0
    6.7407   -1.2607   22.1742 N   0  0  0  0  0  0  0  0  0  0  0  0
    5.7805   -1.5169   22.3806 H   0  0  0  0  0  0  0  0  0  0  0  0
   10.2379   -1.0890   22.9769 C   0  0  0  0  0  0  0  0  0  0  0  0
   10.3519   -0.6568   23.9735 H   0  0  0  0  0  0  0  0  0  0  0  0
   10.6695   -2.0922   23.0222 H   0  0  0  0  0  0  0  0  0  0  0  0
   10.9156   -0.2183   21.8556 C   0  0  2  0  0  0  0  0  0  0  0  0
   11.7690   -0.7727   21.4670 H   0  0  0  0  0  0  0  0  0  0  0  0
   11.4905    1.0874   22.3250 C   0  0  0  0  0  0  0  0  0  0  0  0
   12.7530    1.4319   22.2056 N   0  0  0  0  0  0  0  0  0  0  0  0
   12.8449    2.6940   22.7343 C   0  0  0  0  0  0  0  0  0  0  0  0
   13.7789    3.2377   22.7543 H   0  0  0  0  0  0  0  0  0  0  0  0
   11.6270    3.1096   23.1817 C   0  0  0  0  0  0  0  0  0  0  0  0
   11.3007    4.0326   23.6401 H   0  0  0  0  0  0  0  0  0  0  0  0
   10.7528    2.0784   22.9118 N   0  0  0  0  0  0  0  0  0  0  0  0
    9.3419    2.0691   23.2527 C   0  0  0  0  0  0  0  0  0  0  0  0
    8.7518    1.5529   22.4952 H   0  0  0  0  0  0  0  0  0  0  0  0
    8.9919    3.1013   23.2799 H   0  0  0  0  0  0  0  0  0  0  0  0
    9.1531    1.6289   24.2380 H   0  0  0  0  0  0  0  0  0  0  0  0
    9.8540   -0.0344   20.7191 C   0  0  0  0  0  0  0  0  0  0  0  0
   10.1478   -0.6337   19.8553 H   0  0  0  0  0  0  0  0  0  0  0  0
    9.7549    0.9997   20.3699 H   0  0  0  0  0  0  0  0  0  0  0  0
    5.2579    0.6718   20.1152 C   0  0  0  0  0  0  0  0  0  0  0  0
    4.7597    0.7112   21.0902 H   0  0  0  0  0  0  0  0  0  0  0  0
    4.7179    1.3393   19.0131 C   0  0  0  0  0  0  0  0  0  0  0  0
    3.8001    1.9098   19.0949 H   0  0  0  0  0  0  0  0  0  0  0  0
  1  2  1  0
  2  3  2  0
  3  4  1  0
  4  5  1  0
  4  6  2  0
  6  7  1  0
  7  8  2  0
  8  9  1  0
  9 10  2  0
 10 11  1  0
 11 12  1  0
  9 13  1  0
 13 14  1  0
 13 15  1  0
 13 16  1  0
 16 17  1  6
 16 18  1  0
 18 19  2  0
 19 20  1  0
 20 21  1  0
 20 22  2  0
 22 23  1  0
 22 24  1  0
 24 25  1  0
 25 26  1  0
 25 27  1  0
 25 28  1  0
 16 29  1  0
 29 30  1  0
 29 31  1  0
  6 32  1  0
 32 33  1  0
 32 34  2  0
 34 35  1  0
 34  2  1  0
 11  7  1  0
 24 18  1  0
 29  8  1  0
M  END
>  <cnnaffinity>  (1) 
-5.54291

>  <filename>  (1) 
Cn1ccnc1[C@H]1Cc2n[nH]c(-c3cccnc3)c2C1

$$$$
