
     RDKit          3D

 32 35  0  0  0  0  0  0  0  0999 V2000
    4.9568    1.8352   16.9541 H   0  0  0  0  0  0  0  0  0  0  0  0
    5.4064    1.3009   17.7877 C   0  0  0  0  0  0  0  0  0  0  0  0
    6.5588    0.6629   17.5351 N   0  0  0  0  0  0  0  0  0  0  0  0
    7.1449    0.0050   18.5404 C   0  0  0  0  0  0  0  0  0  0  0  0
    8.0987   -0.4628   18.3020 H   0  0  0  0  0  0  0  0  0  0  0  0
    6.6120   -0.0618   19.8411 C   0  0  0  0  0  0  0  0  0  0  0  0
    7.3660   -0.6933   20.9380 C   0  0  0  0  0  0  0  0  0  0  0  0
    8.4778   -1.4101   20.7146 N   0  0  0  0  0  0  0  0  0  0  0  0
    8.9106   -1.6796   21.9635 N   0  0  0  0  0  0  0  0  0  0  0  0
   10.1060   -2.1618   22.4770 C   0  0  0  0  0  0  0  0  0  0  0  0
   10.8496   -2.5444   21.8005 H   0  0  0  0  0  0  0  0  0  0  0  0
   10.0664   -1.9290   23.8092 C   0  0  0  0  0  0  0  0  0  0  0  0
   10.8046   -2.1004   24.5786 H   0  0  0  0  0  0  0  0  0  0  0  0
    8.8282   -1.3521   24.1339 N   0  0  0  0  0  0  0  0  0  0  0  0
    8.4474   -0.7809   25.3507 C   0  0  0  0  0  0  0  0  0  0  0  0
    9.2136   -0.0390   26.1161 N   0  0  0  0  0  0  0  0  0  0  0  0
    8.3667    0.4576   27.0756 C   0  0  0  0  0  0  0  0  0  0  0  0
    8.6786    1.1978   27.7932 H   0  0  0  0  0  0  0  0  0  0  0  0
    7.1068   -0.0286   26.9162 C   0  0  0  0  0  0  0  0  0  0  0  0
    6.1958    0.0935   27.4854 H   0  0  0  0  0  0  0  0  0  0  0  0
    7.1556   -0.8524   25.8150 N   0  0  0  0  0  0  0  0  0  0  0  0
    5.9733   -1.5522   25.3336 C   0  0  0  0  0  0  0  0  0  0  0  0
    6.2231   -2.3718   24.6607 H   0  0  0  0  0  0  0  0  0  0  0  0
    5.2979   -0.8611   24.8199 H   0  0  0  0  0  0  0  0  0  0  0  0
    5.4273   -1.9664   26.1890 H   0  0  0  0  0  0  0  0  0  0  0  0
    8.1350   -1.1708   22.9356 C   0  0  0  0  0  0  0  0  0  0  0  0
    7.0826   -0.5213   22.3178 C   0  0  0  0  0  0  0  0  0  0  0  0
    6.2696    0.0309   22.7564 H   0  0  0  0  0  0  0  0  0  0  0  0
    5.4036    0.6178   20.0824 C   0  0  0  0  0  0  0  0  0  0  0  0
    4.9663    0.6449   21.0800 H   0  0  0  0  0  0  0  0  0  0  0  0
    4.7886    1.3041   19.0407 C   0  0  0  0  0  0  0  0  0  0  0  0
    3.8679    1.8578   19.1947 H   0  0  0  0  0  0  0  0  0  0  0  0
  1  2  1  0
  2  3  2  0
  3  4  1  0
  4  5  1  0
  4  6  2  0
  6  7  1  0
  7  8  2  0
  8  9  1  0
  9 10  1  0
 10 11  1  0
 10 12  2  0
 12 13  1  0
 12 14  1  0
 14 15  1  0
 15 16  2  0
 16 17  1  0
 17 18  1  0
 17 19  2  0
 19 20  1  0
 19 21  1  0
 21 22  1  0
 22 23  1  0
 22 24  1  0
 22 25  1  0
 14 26  1  0
 26 27  2  0
 27 28  1  0
  6 29  1  0
 29 30  1  0
 29 31  2  0
 31 32  1  0
 31  2  1  0
 27  7  1  0
 26  9  1  0
 21 15  1  0
M  END
>  <cnnaffinity>  (1) 
-5.46295

>  <filename>  (1) 
Cn1ccnc1-n1ccn2nc(-c3cccnc3)cc12

$$$$
