
     RDKit          3D

 43 46  0  0  0  0  0  0  0  0999 V2000
    4.9397    1.8142   16.9374 H   0  0  0  0  0  0  0  0  0  0  0  0
    5.3897    1.2988   17.7842 C   0  0  0  0  0  0  0  0  0  0  0  0
    6.5227    0.6236   17.5335 N   0  0  0  0  0  0  0  0  0  0  0  0
    7.0984    0.0005   18.5650 C   0  0  0  0  0  0  0  0  0  0  0  0
    8.0047   -0.5592   18.3448 H   0  0  0  0  0  0  0  0  0  0  0  0
    6.6198    0.0495   19.8836 C   0  0  0  0  0  0  0  0  0  0  0  0
    7.4015   -0.5897   20.9413 C   0  0  0  0  0  0  0  0  0  0  0  0
    7.9338   -1.8521   20.7892 N   0  0  0  0  0  0  0  0  0  0  0  0
    8.5000   -2.0898   21.9384 C   0  0  0  0  0  0  0  0  0  0  0  0
    8.4967   -1.0264   22.7826 N   0  0  0  0  0  0  0  0  0  0  0  0
    7.7397   -0.0547   22.1709 C   0  0  0  0  0  0  0  0  0  0  0  0
    7.3714    1.2549   22.7640 C   0  0  0  0  0  0  0  0  0  0  0  0
    7.3961    1.9849   21.9473 H   0  0  0  0  0  0  0  0  0  0  0  0
    8.1566    1.5665   23.4809 H   0  0  0  0  0  0  0  0  0  0  0  0
    6.0119    1.2689   23.3427 N   0  0  0  0  0  0  0  0  0  0  0  0
    5.5119    2.6365   23.5994 C   0  0  0  0  0  0  0  0  0  0  0  0
    4.4278    2.5859   23.7779 H   0  0  0  0  0  0  0  0  0  0  0  0
    5.6373    3.2461   22.6978 H   0  0  0  0  0  0  0  0  0  0  0  0
    6.1905    3.3297   24.8111 C   0  0  0  0  0  0  0  0  0  0  0  0
    7.2565    3.4679   24.5789 H   0  0  0  0  0  0  0  0  0  0  0  0
    5.7773    4.3338   24.9517 H   0  0  0  0  0  0  0  0  0  0  0  0
    6.0857    2.5728   26.0732 N   0  0  0  0  0  0  0  0  0  0  0  0
    4.7712    2.6595   26.6990 C   0  0  0  0  0  0  0  0  0  0  0  0
    3.9439    2.2042   26.1253 H   0  0  0  0  0  0  0  0  0  0  0  0
    4.8011    2.1748   27.6827 H   0  0  0  0  0  0  0  0  0  0  0  0
    4.5195    3.7147   26.8597 H   0  0  0  0  0  0  0  0  0  0  0  0
    6.5513    1.1907   25.8381 C   0  0  0  0  0  0  0  0  0  0  0  0
    6.3690    0.5884   26.7354 H   0  0  0  0  0  0  0  0  0  0  0  0
    7.6452    1.2160   25.7063 H   0  0  0  0  0  0  0  0  0  0  0  0
    5.9178    0.4865   24.6005 C   0  0  0  0  0  0  0  0  0  0  0  0
    4.8559    0.2812   24.8034 H   0  0  0  0  0  0  0  0  0  0  0  0
    6.3862   -0.4887   24.4425 H   0  0  0  0  0  0  0  0  0  0  0  0
    9.2050   -1.1072   24.0462 C   0  0  0  0  0  0  0  0  0  0  0  0
    9.9946   -0.3477   24.0777 H   0  0  0  0  0  0  0  0  0  0  0  0
    8.5239   -0.9249   24.8839 H   0  0  0  0  0  0  0  0  0  0  0  0
    9.7970   -2.5346   24.1240 C   0  0  0  0  0  0  0  0  0  0  0  0
   10.8795   -2.5050   24.0193 H   0  0  0  0  0  0  0  0  0  0  0  0
    9.5492   -3.0226   25.0709 H   0  0  0  0  0  0  0  0  0  0  0  0
    9.1353   -3.5246   22.7183 S   0  0  0  0  0  0  0  0  0  0  0  0
    5.4166    0.7357   20.1267 C   0  0  0  0  0  0  0  0  0  0  0  0
    4.9905    0.7850   21.1325 H   0  0  0  0  0  0  0  0  0  0  0  0
    4.7878    1.3549   19.0466 C   0  0  0  0  0  0  0  0  0  0  0  0
    3.8510    1.8860   19.1661 H   0  0  0  0  0  0  0  0  0  0  0  0
  1  2  1  0
  2  3  2  0
  3  4  1  0
  4  5  1  0
  4  6  2  0
  6  7  1  0
  7  8  1  0
  8  9  2  0
  9 10  1  0
 10 11  1  0
 11 12  1  0
 12 13  1  0
 12 14  1  0
 12 15  1  0
 15 16  1  0
 16 17  1  0
 16 18  1  0
 16 19  1  0
 19 20  1  0
 19 21  1  0
 19 22  1  0
 22 23  1  0
 23 24  1  0
 23 25  1  0
 23 26  1  0
 22 27  1  0
 27 28  1  0
 27 29  1  0
 27 30  1  0
 30 31  1  0
 30 32  1  0
 10 33  1  0
 33 34  1  0
 33 35  1  0
 33 36  1  0
 36 37  1  0
 36 38  1  0
 36 39  1  0
  6 40  1  0
 40 41  1  0
 40 42  2  0
 42 43  1  0
 42  2  1  0
 11  7  2  0
 30 15  1  0
 39  9  1  0
M  END
>  <cnnaffinity>  (1) 
-5.21758

>  <filename>  (1) 
CN1CCN(Cc2c(-c3cccnc3)nc3n2CCS3)CC1

$$$$
