
     RDKit          3D

 31 33  0  0  0  0  0  0  0  0999 V2000
    4.9181    1.7986   16.9773 H   0  0  0  0  0  0  0  0  0  0  0  0
    5.3893    1.3028   17.8229 C   0  0  0  0  0  0  0  0  0  0  0  0
    6.5519    0.6829   17.5613 N   0  0  0  0  0  0  0  0  0  0  0  0
    7.1582    0.0716   18.5864 C   0  0  0  0  0  0  0  0  0  0  0  0
    8.1041   -0.4197   18.3559 H   0  0  0  0  0  0  0  0  0  0  0  0
    6.6478    0.0090   19.8977 C   0  0  0  0  0  0  0  0  0  0  0  0
    7.3753   -0.7090   20.9754 C   0  0  0  0  0  0  0  0  0  0  0  0
    8.7892   -0.5530   21.1298 C   0  0  0  0  0  0  0  0  0  0  0  0
    9.3075    0.1211   20.4465 H   0  0  0  0  0  0  0  0  0  0  0  0
    9.4441   -1.2023   22.1256 C   0  0  0  0  0  0  0  0  0  0  0  0
   10.5085   -1.1248   22.2960 H   0  0  0  0  0  0  0  0  0  0  0  0
    8.7720   -2.0861   23.0692 C   0  0  0  0  0  0  0  0  0  0  0  0
    9.3673   -2.6797   23.9528 O   0  0  0  0  0  0  0  0  0  0  0  0
    7.3447   -2.2069   22.8684 N   0  0  0  0  0  0  0  0  0  0  0  0
    6.5480   -2.9978   23.7467 C   0  0  0  0  0  0  0  0  0  0  0  0
    5.4361   -3.8257   23.4486 C   0  0  0  0  0  0  0  0  0  0  0  0
    4.9726   -4.0300   22.4932 H   0  0  0  0  0  0  0  0  0  0  0  0
    5.0005   -4.4349   24.5435 N   0  0  0  0  0  0  0  0  0  0  0  0
    5.7997   -4.0128   25.5268 N   0  0  0  0  0  0  0  0  0  0  0  0
    5.5511   -4.3930   26.8995 C   0  0  0  0  0  0  0  0  0  0  0  0
    4.9591   -3.6283   27.4130 H   0  0  0  0  0  0  0  0  0  0  0  0
    6.5090   -4.5136   27.4100 H   0  0  0  0  0  0  0  0  0  0  0  0
    5.0097   -5.3387   26.8980 H   0  0  0  0  0  0  0  0  0  0  0  0
    6.7422   -3.1483   25.0994 C   0  0  0  0  0  0  0  0  0  0  0  0
    7.4867   -2.7241   25.7558 H   0  0  0  0  0  0  0  0  0  0  0  0
    6.7140   -1.5245   21.8500 C   0  0  0  0  0  0  0  0  0  0  0  0
    5.6429   -1.6845   21.7794 H   0  0  0  0  0  0  0  0  0  0  0  0
    5.4246    0.6516   20.1417 C   0  0  0  0  0  0  0  0  0  0  0  0
    5.0062    0.6452   21.1504 H   0  0  0  0  0  0  0  0  0  0  0  0
    4.7959    1.3196   19.0896 C   0  0  0  0  0  0  0  0  0  0  0  0
    3.8658    1.8516   19.2400 H   0  0  0  0  0  0  0  0  0  0  0  0
  1  2  1  0
  2  3  2  0
  3  4  1  0
  4  5  1  0
  4  6  2  0
  6  7  1  0
  7  8  1  0
  8  9  1  0
  8 10  2  0
 10 11  1  0
 10 12  1  0
 12 13  2  0
 12 14  1  0
 14 15  1  0
 15 16  1  0
 16 17  1  0
 16 18  2  0
 18 19  1  0
 19 20  1  0
 20 21  1  0
 20 22  1  0
 20 23  1  0
 19 24  1  0
 24 25  1  0
 14 26  1  0
 26 27  1  0
  6 28  1  0
 28 29  1  0
 28 30  2  0
 30 31  1  0
 30  2  1  0
 26  7  2  0
 24 15  2  0
M  END
>  <cnnaffinity>  (1) 
-5.28711

>  <filename>  (1) 
Cn1cc(-n2cc(-c3cccnc3)ccc2=O)cn1

$$$$
