
     RDKit          3D

 28 30  0  0  0  0  0  0  0  0999 V2000
    4.9230    1.7852   16.9938 H   0  0  0  0  0  0  0  0  0  0  0  0
    5.4015    1.2974   17.8366 C   0  0  0  0  0  0  0  0  0  0  0  0
    6.5669    0.6843   17.5733 N   0  0  0  0  0  0  0  0  0  0  0  0
    7.1650    0.0534   18.5859 C   0  0  0  0  0  0  0  0  0  0  0  0
    8.1126   -0.4355   18.3670 H   0  0  0  0  0  0  0  0  0  0  0  0
    6.6440    0.0113   19.8882 C   0  0  0  0  0  0  0  0  0  0  0  0
    7.3673   -0.7341   20.9085 C   0  0  0  0  0  0  0  0  0  0  0  0
    7.9001   -1.9006   20.7041 N   0  0  0  0  0  0  0  0  0  0  0  0
    8.3990   -2.2490   21.9189 N   0  0  0  0  0  0  0  0  0  0  0  0
    8.8955   -3.1090   22.0789 H   0  0  0  0  0  0  0  0  0  0  0  0
    8.2540   -1.3214   22.8824 C   0  0  0  0  0  0  0  0  0  0  0  0
    8.8247   -1.4381   24.4352 S   0  0  0  0  0  0  0  0  0  0  0  0
    7.5504   -0.3158   22.2258 N   0  0  0  0  0  0  0  0  0  0  0  0
    7.2351    0.9633   22.7699 C   0  0  0  0  0  0  0  0  0  0  0  0
    6.7350    1.2651   24.0567 C   0  0  0  0  0  0  0  0  0  0  0  0
    6.5209    0.5707   24.8539 H   0  0  0  0  0  0  0  0  0  0  0  0
    6.5879    2.5714   24.2128 N   0  0  0  0  0  0  0  0  0  0  0  0
    6.9676    3.1138   23.0521 N   0  0  0  0  0  0  0  0  0  0  0  0
    7.0005    4.5522   22.8749 C   0  0  0  0  0  0  0  0  0  0  0  0
    8.0041    4.9546   23.0426 H   0  0  0  0  0  0  0  0  0  0  0  0
    6.6923    4.7954   21.8566 H   0  0  0  0  0  0  0  0  0  0  0  0
    6.3087    5.0241   23.5736 H   0  0  0  0  0  0  0  0  0  0  0  0
    7.3801    2.1862   22.1626 C   0  0  0  0  0  0  0  0  0  0  0  0
    7.6951    2.4489   21.1645 H   0  0  0  0  0  0  0  0  0  0  0  0
    5.4230    0.6548   20.1518 C   0  0  0  0  0  0  0  0  0  0  0  0
    5.0063    0.6387   21.1634 H   0  0  0  0  0  0  0  0  0  0  0  0
    4.7986    1.3126   19.0986 C   0  0  0  0  0  0  0  0  0  0  0  0
    3.8697    1.8442   19.2511 H   0  0  0  0  0  0  0  0  0  0  0  0
  1  2  1  0
  2  3  2  0
  3  4  1  0
  4  5  1  0
  4  6  2  0
  6  7  1  0
  7  8  2  0
  8  9  1  0
  9 10  1  0
  9 11  1  0
 11 12  2  0
 11 13  1  0
 13 14  1  0
 14 15  1  0
 15 16  1  0
 15 17  2  0
 17 18  1  0
 18 19  1  0
 19 20  1  0
 19 21  1  0
 19 22  1  0
 18 23  1  0
 23 24  1  0
  6 25  1  0
 25 26  1  0
 25 27  2  0
 27 28  1  0
 27  2  1  0
 13  7  1  0
 23 14  2  0
M  END
>  <cnnaffinity>  (1) 
-4.92377

>  <filename>  (1) 
Cn1cc(-n2c(-c3cccnc3)n[nH]c2=S)cn1

$$$$
