
     RDKit          3D

 28 29  0  0  0  0  0  0  0  0999 V2000
    5.1312    1.7684   17.0517 H   0  0  0  0  0  0  0  0  0  0  0  0
    5.4853    1.2168   17.9216 C   0  0  0  0  0  0  0  0  0  0  0  0
    6.6154    0.5159   17.7551 N   0  0  0  0  0  0  0  0  0  0  0  0
    7.0818   -0.1653   18.7975 C   0  0  0  0  0  0  0  0  0  0  0  0
    8.0167   -0.7038   18.6459 H   0  0  0  0  0  0  0  0  0  0  0  0
    6.4279   -0.1854   20.0191 C   0  0  0  0  0  0  0  0  0  0  0  0
    7.3798   -0.9674   21.2312 S   0  0  0  0  0  0  0  0  0  0  0  0
    7.9621    0.0023   22.1335 O   0  0  0  0  0  0  0  0  0  0  0  0
    8.1724   -2.0034   20.6179 O   0  0  0  0  0  0  0  0  0  0  0  0
    6.2398   -1.6173   22.1720 N   0  0  0  0  0  0  0  0  0  0  0  0
    6.3820   -1.3736   23.1297 H   0  0  0  0  0  0  0  0  0  0  0  0
    5.5893   -2.7382   21.7628 C   0  0  0  0  0  0  0  0  0  0  0  0
    5.5622   -3.0700   20.5980 O   0  0  0  0  0  0  0  0  0  0  0  0
    4.8649   -3.4096   22.8451 C   0  0  0  0  0  0  0  0  0  0  0  0
    4.0572   -4.5293   22.5897 C   0  0  0  0  0  0  0  0  0  0  0  0
    4.0366   -5.1085   21.6782 H   0  0  0  0  0  0  0  0  0  0  0  0
    3.2834   -4.8162   23.6188 N   0  0  0  0  0  0  0  0  0  0  0  0
    3.5813   -3.9067   24.5565 N   0  0  0  0  0  0  0  0  0  0  0  0
    2.8130   -3.8482   25.7809 C   0  0  0  0  0  0  0  0  0  0  0  0
    2.7856   -2.8140   26.1225 H   0  0  0  0  0  0  0  0  0  0  0  0
    3.2544   -4.4748   26.5561 H   0  0  0  0  0  0  0  0  0  0  0  0
    1.7967   -4.1852   25.5740 H   0  0  0  0  0  0  0  0  0  0  0  0
    4.5586   -3.0682   24.1631 C   0  0  0  0  0  0  0  0  0  0  0  0
    4.9158   -2.2900   24.8337 H   0  0  0  0  0  0  0  0  0  0  0  0
    5.2579    0.5559   20.2304 C   0  0  0  0  0  0  0  0  0  0  0  0
    4.7383    0.6125   21.1922 H   0  0  0  0  0  0  0  0  0  0  0  0
    4.7811    1.2622   19.1294 C   0  0  0  0  0  0  0  0  0  0  0  0
    3.8907    1.8741   19.1928 H   0  0  0  0  0  0  0  0  0  0  0  0
  1  2  1  0
  2  3  2  0
  3  4  1  0
  4  5  1  0
  4  6  2  0
  6  7  1  0
  7  8  2  0
  7  9  2  0
  7 10  1  0
 10 11  1  0
 10 12  1  0
 12 13  2  0
 12 14  1  0
 14 15  1  0
 15 16  1  0
 15 17  2  0
 17 18  1  0
 18 19  1  0
 19 20  1  0
 19 21  1  0
 19 22  1  0
 18 23  1  0
 23 24  1  0
  6 25  1  0
 25 26  1  0
 25 27  2  0
 27 28  1  0
 27  2  1  0
 23 14  2  0
M  END
>  <cnnaffinity>  (1) 
-4.6573

>  <filename>  (1) 
Cn1cc(C(=O)NS(=O)(=O)c2cccnc2)cn1

$$$$
