
     RDKit          3D

 29 31  0  0  0  0  0  0  0  0999 V2000
    4.9287    1.7922   16.9978 H   0  0  0  0  0  0  0  0  0  0  0  0
    5.3969    1.2900   17.8402 C   0  0  0  0  0  0  0  0  0  0  0  0
    6.5541    0.6634   17.5761 N   0  0  0  0  0  0  0  0  0  0  0  0
    7.1715    0.0447   18.5873 C   0  0  0  0  0  0  0  0  0  0  0  0
    8.1263   -0.4311   18.3681 H   0  0  0  0  0  0  0  0  0  0  0  0
    6.6512   -0.0008   19.8957 C   0  0  0  0  0  0  0  0  0  0  0  0
    7.3386   -0.6833   20.9440 N   0  0  0  0  0  0  0  0  0  0  0  0
    6.7506   -1.6127   21.7813 C   0  0  0  0  0  0  0  0  0  0  0  0
    5.7066   -1.8730   21.7036 H   0  0  0  0  0  0  0  0  0  0  0  0
    7.6846   -2.0756   22.6508 C   0  0  0  0  0  0  0  0  0  0  0  0
    7.4892   -3.0741   23.6975 C   0  0  0  0  0  0  0  0  0  0  0  0
    6.5255   -3.9719   23.6658 N   0  0  0  0  0  0  0  0  0  0  0  0
    6.6733   -4.7257   24.7922 C   0  0  0  0  0  0  0  0  0  0  0  0
    5.9914   -5.5477   24.9867 H   0  0  0  0  0  0  0  0  0  0  0  0
    7.7335   -4.2739   25.5302 C   0  0  0  0  0  0  0  0  0  0  0  0
    8.1497   -4.5966   26.4757 H   0  0  0  0  0  0  0  0  0  0  0  0
    8.2588   -3.2085   24.8307 N   0  0  0  0  0  0  0  0  0  0  0  0
    9.3862   -2.3985   25.2786 C   0  0  0  0  0  0  0  0  0  0  0  0
    9.1986   -1.3351   25.1046 H   0  0  0  0  0  0  0  0  0  0  0  0
   10.3242   -2.6871   24.7893 H   0  0  0  0  0  0  0  0  0  0  0  0
    9.5027   -2.5447   26.3558 H   0  0  0  0  0  0  0  0  0  0  0  0
    8.8546   -1.3851   22.3162 N   0  0  0  0  0  0  0  0  0  0  0  0
    9.8066   -1.4634   22.6478 H   0  0  0  0  0  0  0  0  0  0  0  0
    8.6601   -0.5119   21.2995 C   0  0  0  0  0  0  0  0  0  0  0  0
    9.8250    0.5186   20.7424 S   0  0  0  0  0  0  0  0  0  0  0  0
    5.4413    0.6420   20.1607 C   0  0  0  0  0  0  0  0  0  0  0  0
    5.0324    0.6298   21.1724 H   0  0  0  0  0  0  0  0  0  0  0  0
    4.8097    1.3076   19.1091 C   0  0  0  0  0  0  0  0  0  0  0  0
    3.8817    1.8383   19.2625 H   0  0  0  0  0  0  0  0  0  0  0  0
  1  2  1  0
  2  3  2  0
  3  4  1  0
  4  5  1  0
  4  6  2  0
  6  7  1  0
  7  8  1  0
  8  9  1  0
  8 10  2  0
 10 11  1  0
 11 12  2  0
 12 13  1  0
 13 14  1  0
 13 15  2  0
 15 16  1  0
 15 17  1  0
 17 18  1  0
 18 19  1  0
 18 20  1  0
 18 21  1  0
 10 22  1  0
 22 23  1  0
 22 24  1  0
 24 25  2  0
  6 26  1  0
 26 27  1  0
 26 28  2  0
 28 29  1  0
 28  2  1  0
 24  7  1  0
 17 11  1  0
M  END
>  <cnnaffinity>  (1) 
-5.23133

>  <filename>  (1) 
Cn1ccnc1-c1cn(-c2cccnc2)c(=S)[nH]1

$$$$
