
     RDKit          3D

 30 32  0  0  0  0  0  0  0  0999 V2000
    4.9234    1.8152   16.9968 H   0  0  0  0  0  0  0  0  0  0  0  0
    5.3958    1.3005   17.8301 C   0  0  0  0  0  0  0  0  0  0  0  0
    6.5581    0.6831   17.5591 N   0  0  0  0  0  0  0  0  0  0  0  0
    7.1685    0.0463   18.5694 C   0  0  0  0  0  0  0  0  0  0  0  0
    8.1172   -0.4336   18.3368 H   0  0  0  0  0  0  0  0  0  0  0  0
    6.6617   -0.0351   19.8920 C   0  0  0  0  0  0  0  0  0  0  0  0
    7.3088   -0.7590   20.9110 N   0  0  0  0  0  0  0  0  0  0  0  0
    6.7536   -0.9460   21.7390 H   0  0  0  0  0  0  0  0  0  0  0  0
    8.7067   -0.7694   21.1102 C   0  0  0  0  0  0  0  0  0  0  0  0
    9.6889    0.1710   20.7000 C   0  0  0  0  0  0  0  0  0  0  0  0
    9.5533    1.0725   20.1183 H   0  0  0  0  0  0  0  0  0  0  0  0
   10.9086   -0.1811   21.0954 N   0  0  0  0  0  0  0  0  0  0  0  0
   10.7242   -1.3364   21.7470 N   0  0  0  0  0  0  0  0  0  0  0  0
   11.5219   -1.8283   22.1293 H   0  0  0  0  0  0  0  0  0  0  0  0
    9.4223   -1.7436   21.8022 C   0  0  0  0  0  0  0  0  0  0  0  0
    8.9844   -2.9724   22.4440 C   0  0  0  0  0  0  0  0  0  0  0  0
    7.7817   -3.6925   22.2084 C   0  0  0  0  0  0  0  0  0  0  0  0
    6.9866   -3.4802   21.5037 H   0  0  0  0  0  0  0  0  0  0  0  0
    7.7081   -4.7846   22.9519 N   0  0  0  0  0  0  0  0  0  0  0  0
    8.8279   -4.7836   23.6830 N   0  0  0  0  0  0  0  0  0  0  0  0
    9.1013   -5.8474   24.6244 C   0  0  0  0  0  0  0  0  0  0  0  0
    8.1422   -6.2557   24.9460 H   0  0  0  0  0  0  0  0  0  0  0  0
    9.6420   -5.4265   25.4782 H   0  0  0  0  0  0  0  0  0  0  0  0
    9.7004   -6.6411   24.1649 H   0  0  0  0  0  0  0  0  0  0  0  0
    9.6254   -3.7309   23.4169 C   0  0  0  0  0  0  0  0  0  0  0  0
   10.5586   -3.6219   23.9623 H   0  0  0  0  0  0  0  0  0  0  0  0
    5.4479    0.6222   20.1469 C   0  0  0  0  0  0  0  0  0  0  0  0
    5.0356    0.6082   21.1559 H   0  0  0  0  0  0  0  0  0  0  0  0
    4.8061    1.3006   19.1024 C   0  0  0  0  0  0  0  0  0  0  0  0
    3.8719    1.8388   19.2617 H   0  0  0  0  0  0  0  0  0  0  0  0
  1  2  1  0
  2  3  2  0
  3  4  1  0
  4  5  1  0
  4  6  2  0
  6  7  1  0
  7  8  1  0
  7  9  1  0
  9 10  1  0
 10 11  1  0
 10 12  2  0
 12 13  1  0
 13 14  1  0
 13 15  1  0
 15 16  1  0
 16 17  1  0
 17 18  1  0
 17 19  2  0
 19 20  1  0
 20 21  1  0
 21 22  1  0
 21 23  1  0
 21 24  1  0
 20 25  1  0
 25 26  1  0
  6 27  1  0
 27 28  1  0
 27 29  2  0
 29 30  1  0
 29  2  1  0
 15  9  2  0
 25 16  2  0
M  END
>  <cnnaffinity>  (1) 
-5.69995

>  <filename>  (1) 
Cn1cc(-c2[nH]ncc2Nc2cccnc2)cn1

$$$$
