
     RDKit          3D

 40 43  0  0  0  0  0  0  0  0999 V2000
    4.9576    1.8062   16.9614 H   0  0  0  0  0  0  0  0  0  0  0  0
    5.3972    1.2870   17.8102 C   0  0  0  0  0  0  0  0  0  0  0  0
    6.5530    0.6511   17.5725 N   0  0  0  0  0  0  0  0  0  0  0  0
    7.1523    0.0348   18.5965 C   0  0  0  0  0  0  0  0  0  0  0  0
    8.0992   -0.4461   18.3690 H   0  0  0  0  0  0  0  0  0  0  0  0
    6.6332    0.0246   19.9032 C   0  0  0  0  0  0  0  0  0  0  0  0
    7.3667   -0.6139   20.9966 C   0  0  0  0  0  0  0  0  0  0  0  0
    8.2105   -1.6880   20.7720 N   0  0  0  0  0  0  0  0  0  0  0  0
    8.6233   -2.0155   21.9578 C   0  0  0  0  0  0  0  0  0  0  0  0
    9.6323   -3.2726   22.5681 S   0  0  0  0  0  0  0  0  0  0  0  0
    9.4583   -2.6765   24.1927 C   0  0  0  0  0  0  0  0  0  0  0  0
    9.9984   -3.2127   24.9625 H   0  0  0  0  0  0  0  0  0  0  0  0
    8.6532   -1.6014   24.2528 C   0  0  0  0  0  0  0  0  0  0  0  0
    8.3627   -1.0444   25.1367 H   0  0  0  0  0  0  0  0  0  0  0  0
    8.1681   -1.2173   22.9897 N   0  0  0  0  0  0  0  0  0  0  0  0
    7.3444   -0.2984   22.3443 C   0  0  0  0  0  0  0  0  0  0  0  0
    6.6649    0.6926   22.9138 O   0  0  0  0  0  0  0  0  0  0  0  0
    6.8723    1.0767   24.2812 C   0  0  0  0  0  0  0  0  0  0  0  0
    6.7831    0.1837   24.9132 H   0  0  0  0  0  0  0  0  0  0  0  0
    5.7369    2.0467   24.5765 C   0  0  0  0  0  0  0  0  0  0  0  0
    4.7749    1.5336   24.4609 H   0  0  0  0  0  0  0  0  0  0  0  0
    5.7765    2.8537   23.8308 H   0  0  0  0  0  0  0  0  0  0  0  0
    5.8757    2.6219   25.9841 C   0  0  0  0  0  0  0  0  0  0  0  0
    5.7202    1.8080   26.7274 H   0  0  0  0  0  0  0  0  0  0  0  0
    5.1017    3.3814   26.1620 H   0  0  0  0  0  0  0  0  0  0  0  0
    7.1779    3.2643   26.1569 N   0  0  0  0  0  0  0  0  0  0  0  0
    7.2930    3.8992   27.4588 C   0  0  0  0  0  0  0  0  0  0  0  0
    8.2424    4.4440   27.5214 H   0  0  0  0  0  0  0  0  0  0  0  0
    6.4827    4.6254   27.5970 H   0  0  0  0  0  0  0  0  0  0  0  0
    7.2516    3.1774   28.3015 H   0  0  0  0  0  0  0  0  0  0  0  0
    8.2951    2.3508   25.9089 C   0  0  0  0  0  0  0  0  0  0  0  0
    9.2242    2.9219   26.0391 H   0  0  0  0  0  0  0  0  0  0  0  0
    8.3159    1.5241   26.6558 H   0  0  0  0  0  0  0  0  0  0  0  0
    8.2237    1.7737   24.4886 C   0  0  0  0  0  0  0  0  0  0  0  0
    8.3035    2.5894   23.7564 H   0  0  0  0  0  0  0  0  0  0  0  0
    9.0609    1.0906   24.2987 H   0  0  0  0  0  0  0  0  0  0  0  0
    5.4063    0.6775   20.1312 C   0  0  0  0  0  0  0  0  0  0  0  0
    4.9818    0.6954   21.1380 H   0  0  0  0  0  0  0  0  0  0  0  0
    4.7799    1.3134   19.0649 C   0  0  0  0  0  0  0  0  0  0  0  0
    3.8504    1.8549   19.1983 H   0  0  0  0  0  0  0  0  0  0  0  0
  1  2  1  0
  2  3  2  0
  3  4  1  0
  4  5  1  0
  4  6  2  0
  6  7  1  0
  7  8  1  0
  8  9  2  0
  9 10  1  0
 10 11  1  0
 11 12  1  0
 11 13  2  0
 13 14  1  0
 13 15  1  0
 15 16  1  0
 16 17  1  0
 17 18  1  0
 18 19  1  0
 18 20  1  0
 20 21  1  0
 20 22  1  0
 20 23  1  0
 23 24  1  0
 23 25  1  0
 23 26  1  0
 26 27  1  0
 27 28  1  0
 27 29  1  0
 27 30  1  0
 26 31  1  0
 31 32  1  0
 31 33  1  0
 31 34  1  0
 34 35  1  0
 34 36  1  0
  6 37  1  0
 37 38  1  0
 37 39  2  0
 39 40  1  0
 39  2  1  0
 16  7  2  0
 34 18  1  0
 15  9  1  0
M  END
>  <cnnaffinity>  (1) 
-5.2539

>  <filename>  (1) 
CN1CCC(Oc2c(-c3cccnc3)nc3sccn23)CC1

$$$$
