
     RDKit          3D

 30 32  0  0  0  0  0  0  0  0999 V2000
    4.9349    1.7940   16.9909 H   0  0  0  0  0  0  0  0  0  0  0  0
    5.4017    1.2963   17.8399 C   0  0  0  0  0  0  0  0  0  0  0  0
    6.5611    0.6700   17.5852 N   0  0  0  0  0  0  0  0  0  0  0  0
    7.1707    0.0495   18.6029 C   0  0  0  0  0  0  0  0  0  0  0  0
    8.1092   -0.4453   18.3607 H   0  0  0  0  0  0  0  0  0  0  0  0
    6.6588   -0.0093   19.9133 C   0  0  0  0  0  0  0  0  0  0  0  0
    7.3426   -0.7126   20.9660 N   0  0  0  0  0  0  0  0  0  0  0  0
    6.5713   -1.4410   21.8260 N   0  0  0  0  0  0  0  0  0  0  0  0
    7.1490   -2.1058   22.8022 C   0  0  0  0  0  0  0  0  0  0  0  0
    6.2396   -2.9000   23.6632 C   0  0  0  0  0  0  0  0  0  0  0  0
    6.4756   -3.5035   24.9309 C   0  0  0  0  0  0  0  0  0  0  0  0
    7.4219   -3.5605   25.4528 H   0  0  0  0  0  0  0  0  0  0  0  0
    5.3820   -4.0747   25.4023 N   0  0  0  0  0  0  0  0  0  0  0  0
    4.4445   -3.8643   24.4744 N   0  0  0  0  0  0  0  0  0  0  0  0
    3.0946   -4.3553   24.6477 C   0  0  0  0  0  0  0  0  0  0  0  0
    2.4019   -3.5857   24.2984 H   0  0  0  0  0  0  0  0  0  0  0  0
    2.9340   -4.5452   25.7103 H   0  0  0  0  0  0  0  0  0  0  0  0
    2.9588   -5.2717   24.0656 H   0  0  0  0  0  0  0  0  0  0  0  0
    4.9148   -3.1994   23.4039 C   0  0  0  0  0  0  0  0  0  0  0  0
    4.2832   -2.9477   22.5581 H   0  0  0  0  0  0  0  0  0  0  0  0
    8.6562   -2.0787   23.0413 C   0  0  0  0  0  0  0  0  0  0  0  0
    9.2250   -2.6911   23.9371 O   0  0  0  0  0  0  0  0  0  0  0  0
    9.3834   -1.2524   22.0862 C   0  0  0  0  0  0  0  0  0  0  0  0
   10.4565   -1.1976   22.2096 H   0  0  0  0  0  0  0  0  0  0  0  0
    8.7083   -0.6187   21.1135 C   0  0  0  0  0  0  0  0  0  0  0  0
    9.1872    0.0286   20.3853 H   0  0  0  0  0  0  0  0  0  0  0  0
    5.4431    0.6378   20.1668 C   0  0  0  0  0  0  0  0  0  0  0  0
    5.0406    0.5798   21.1773 H   0  0  0  0  0  0  0  0  0  0  0  0
    4.8144    1.3107   19.1105 C   0  0  0  0  0  0  0  0  0  0  0  0
    3.8804    1.8414   19.2541 H   0  0  0  0  0  0  0  0  0  0  0  0
  1  2  1  0
  2  3  2  0
  3  4  1  0
  4  5  1  0
  4  6  2  0
  6  7  1  0
  7  8  1  0
  8  9  2  0
  9 10  1  0
 10 11  1  0
 11 12  1  0
 11 13  2  0
 13 14  1  0
 14 15  1  0
 15 16  1  0
 15 17  1  0
 15 18  1  0
 14 19  1  0
 19 20  1  0
  9 21  1  0
 21 22  2  0
 21 23  1  0
 23 24  1  0
 23 25  2  0
 25 26  1  0
  6 27  1  0
 27 28  1  0
 27 29  2  0
 29 30  1  0
 29  2  1  0
 25  7  1  0
 19 10  2  0
M  END
>  <cnnaffinity>  (1) 
-4.75941

>  <filename>  (1) 
Cn1cc(-c2nn(-c3cccnc3)ccc2=O)cn1

$$$$
