
     RDKit          3D

 30 32  0  0  0  0  0  0  0  0999 V2000
    4.9493    1.8297   16.9954 H   0  0  0  0  0  0  0  0  0  0  0  0
    5.3836    1.2885   17.8327 C   0  0  0  0  0  0  0  0  0  0  0  0
    6.5339    0.6442   17.5808 N   0  0  0  0  0  0  0  0  0  0  0  0
    7.1227    0.0238   18.6052 C   0  0  0  0  0  0  0  0  0  0  0  0
    8.0895   -0.4393   18.4058 H   0  0  0  0  0  0  0  0  0  0  0  0
    6.5862   -0.0366   19.9068 C   0  0  0  0  0  0  0  0  0  0  0  0
    7.3116   -0.7602   20.9996 C   0  0  0  0  0  0  0  0  0  0  0  0
    6.5774   -1.5312   21.7633 N   0  0  0  0  0  0  0  0  0  0  0  0
    7.1778   -2.2347   22.7826 N   0  0  0  0  0  0  0  0  0  0  0  0
    6.3651   -3.0638   23.5704 C   0  0  0  0  0  0  0  0  0  0  0  0
    4.9907   -3.3325   23.3815 C   0  0  0  0  0  0  0  0  0  0  0  0
    4.3389   -2.9680   22.6043 H   0  0  0  0  0  0  0  0  0  0  0  0
    4.5290   -4.1426   24.3167 N   0  0  0  0  0  0  0  0  0  0  0  0
    5.5711   -4.3921   25.1182 N   0  0  0  0  0  0  0  0  0  0  0  0
    5.4239   -5.3531   26.1867 C   0  0  0  0  0  0  0  0  0  0  0  0
    6.1094   -5.1315   27.0085 H   0  0  0  0  0  0  0  0  0  0  0  0
    5.6154   -6.3641   25.8179 H   0  0  0  0  0  0  0  0  0  0  0  0
    4.3970   -5.2972   26.5449 H   0  0  0  0  0  0  0  0  0  0  0  0
    6.7040   -3.7985   24.6958 C   0  0  0  0  0  0  0  0  0  0  0  0
    7.6414   -4.0015   25.1911 H   0  0  0  0  0  0  0  0  0  0  0  0
    8.5274   -2.1260   23.0445 C   0  0  0  0  0  0  0  0  0  0  0  0
    8.8853   -2.7114   23.8950 H   0  0  0  0  0  0  0  0  0  0  0  0
    9.3471   -1.3626   22.3032 C   0  0  0  0  0  0  0  0  0  0  0  0
   10.4061   -1.2952   22.4985 H   0  0  0  0  0  0  0  0  0  0  0  0
    8.8193   -0.5719   21.1896 C   0  0  0  0  0  0  0  0  0  0  0  0
    9.5346    0.1491   20.5061 O   0  0  0  0  0  0  0  0  0  0  0  0
    5.3651    0.6174   20.1407 C   0  0  0  0  0  0  0  0  0  0  0  0
    4.9271    0.5963   21.1376 H   0  0  0  0  0  0  0  0  0  0  0  0
    4.7618    1.3046   19.0852 C   0  0  0  0  0  0  0  0  0  0  0  0
    3.8513    1.8843   19.2224 H   0  0  0  0  0  0  0  0  0  0  0  0
  1  2  1  0
  2  3  2  0
  3  4  1  0
  4  5  1  0
  4  6  2  0
  6  7  1  0
  7  8  2  0
  8  9  1  0
  9 10  1  0
 10 11  1  0
 11 12  1  0
 11 13  2  0
 13 14  1  0
 14 15  1  0
 15 16  1  0
 15 17  1  0
 15 18  1  0
 14 19  1  0
 19 20  1  0
  9 21  1  0
 21 22  1  0
 21 23  2  0
 23 24  1  0
 23 25  1  0
 25 26  2  0
  6 27  1  0
 27 28  1  0
 27 29  2  0
 29 30  1  0
 29  2  1  0
 25  7  1  0
 19 10  2  0
M  END
>  <cnnaffinity>  (1) 
-5.00466

>  <filename>  (1) 
Cn1cc(-n2ccc(=O)c(-c3cccnc3)n2)cn1

$$$$
