
     RDKit          3D

 38 40  0  0  0  0  0  0  0  0999 V2000
    8.5653   -3.6687   21.4445 H   0  0  0  0  0  0  0  0  0  0  0  0
    8.3183   -2.6290   21.6594 C   0  0  0  0  0  0  0  0  0  0  0  0
    8.6225   -2.1811   22.8759 N   0  0  0  0  0  0  0  0  0  0  0  0
    8.2969   -0.9210   23.1508 C   0  0  0  0  0  0  0  0  0  0  0  0
    8.6018   -0.5503   24.1332 H   0  0  0  0  0  0  0  0  0  0  0  0
    7.6413   -0.1183   22.2366 C   0  0  0  0  0  0  0  0  0  0  0  0
    7.4718    1.3178   22.4974 C   0  0  0  0  0  0  0  0  0  0  0  0
    7.8277    2.1357   21.6656 O   0  0  0  0  0  0  0  0  0  0  0  0
    6.9198    1.6605   23.7172 N   0  0  0  0  0  0  0  0  0  0  0  0
    5.9159    0.8312   24.4250 C   0  0  0  0  0  0  0  0  0  0  0  0
    6.3894    0.0361   25.0165 H   0  0  0  0  0  0  0  0  0  0  0  0
    5.2969    0.3486   23.6651 H   0  0  0  0  0  0  0  0  0  0  0  0
    4.9846    1.6692   25.3484 C   0  0  0  0  0  0  0  0  0  0  0  0
    4.1014    1.0713   25.6034 H   0  0  0  0  0  0  0  0  0  0  0  0
    5.5053    1.9011   26.2900 H   0  0  0  0  0  0  0  0  0  0  0  0
    4.5424    2.9374   24.7584 N   0  0  0  0  0  0  0  0  0  0  0  0
    3.6003    2.7658   23.6563 C   0  0  0  0  0  0  0  0  0  0  0  0
    3.1757    3.7355   23.3671 H   0  0  0  0  0  0  0  0  0  0  0  0
    4.0559    2.3194   22.7530 H   0  0  0  0  0  0  0  0  0  0  0  0
    2.7700    2.1363   23.9909 H   0  0  0  0  0  0  0  0  0  0  0  0
    5.6964    3.7842   24.3964 C   0  0  0  0  0  0  0  0  0  0  0  0
    5.4435    4.3185   23.4713 H   0  0  0  0  0  0  0  0  0  0  0  0
    5.8432    4.5541   25.1699 H   0  0  0  0  0  0  0  0  0  0  0  0
    7.0539    3.0343   24.2265 C   0  0  0  0  0  0  0  0  0  0  0  0
    7.5280    2.9586   25.2161 H   0  0  0  0  0  0  0  0  0  0  0  0
    7.7068    3.5934   23.5549 H   0  0  0  0  0  0  0  0  0  0  0  0
    7.3755   -0.6771   20.9863 C   0  0  0  0  0  0  0  0  0  0  0  0
    6.6453    0.0276   19.9338 C   0  0  0  0  0  0  0  0  0  0  0  0
    7.1665    0.0347   18.6303 C   0  0  0  0  0  0  0  0  0  0  0  0
    8.1083   -0.4652   18.3931 H   0  0  0  0  0  0  0  0  0  0  0  0
    6.5763    0.6492   17.6017 N   0  0  0  0  0  0  0  0  0  0  0  0
    5.4151    1.2798   17.8482 C   0  0  0  0  0  0  0  0  0  0  0  0
    4.9602    1.7834   17.0009 H   0  0  0  0  0  0  0  0  0  0  0  0
    4.7986    1.3057   19.1036 C   0  0  0  0  0  0  0  0  0  0  0  0
    3.8662    1.8413   19.2371 H   0  0  0  0  0  0  0  0  0  0  0  0
    5.4199    0.6648   20.1688 C   0  0  0  0  0  0  0  0  0  0  0  0
    4.9528    0.6598   21.1603 H   0  0  0  0  0  0  0  0  0  0  0  0
    7.7449   -1.9256   20.6904 N   0  0  0  0  0  0  0  0  0  0  0  0
  1  2  1  0
  2  3  2  0
  3  4  1  0
  4  5  1  0
  4  6  2  0
  6  7  1  0
  7  8  2  0
  7  9  1  0
  9 10  1  0
 10 11  1  0
 10 12  1  0
 10 13  1  0
 13 14  1  0
 13 15  1  0
 13 16  1  0
 16 17  1  0
 17 18  1  0
 17 19  1  0
 17 20  1  0
 16 21  1  0
 21 22  1  0
 21 23  1  0
 21 24  1  0
 24 25  1  0
 24 26  1  0
  6 27  1  0
 27 28  1  0
 28 29  2  0
 29 30  1  0
 29 31  1  0
 31 32  2  0
 32 33  1  0
 32 34  1  0
 34 35  1  0
 34 36  2  0
 36 37  1  0
 27 38  2  0
 38  2  1  0
 24  9  1  0
 36 28  1  0
M  END
>  <cnnaffinity>  (1) 
-4.6098

>  <filename>  (1) 
CN1CCN(C(=O)c2cncnc2-c2cccnc2)CC1

$$$$
