
     RDKit          3D

 30 32  0  0  0  0  0  0  0  0999 V2000
    4.9386    1.7953   16.9883 H   0  0  0  0  0  0  0  0  0  0  0  0
    5.3951    1.2928   17.8381 C   0  0  0  0  0  0  0  0  0  0  0  0
    6.5486    0.6606   17.5861 N   0  0  0  0  0  0  0  0  0  0  0  0
    7.1434    0.0366   18.6078 C   0  0  0  0  0  0  0  0  0  0  0  0
    8.1090   -0.4202   18.3942 H   0  0  0  0  0  0  0  0  0  0  0  0
    6.6143   -0.0179   19.9093 C   0  0  0  0  0  0  0  0  0  0  0  0
    7.3174   -0.7407   20.9863 C   0  0  0  0  0  0  0  0  0  0  0  0
    6.5895   -1.5064   21.7728 N   0  0  0  0  0  0  0  0  0  0  0  0
    7.1995   -2.2062   22.7990 C   0  0  0  0  0  0  0  0  0  0  0  0
    6.3550   -3.0604   23.6513 C   0  0  0  0  0  0  0  0  0  0  0  0
    4.9591   -3.3024   23.5442 C   0  0  0  0  0  0  0  0  0  0  0  0
    4.2592   -2.9610   22.7932 H   0  0  0  0  0  0  0  0  0  0  0  0
    4.5252   -4.1152   24.4930 N   0  0  0  0  0  0  0  0  0  0  0  0
    5.6076   -4.4157   25.2192 N   0  0  0  0  0  0  0  0  0  0  0  0
    5.5233   -5.3879   26.2898 C   0  0  0  0  0  0  0  0  0  0  0  0
    6.2239   -5.0991   27.0794 H   0  0  0  0  0  0  0  0  0  0  0  0
    4.4998   -5.3753   26.6702 H   0  0  0  0  0  0  0  0  0  0  0  0
    5.7681   -6.3927   25.9215 H   0  0  0  0  0  0  0  0  0  0  0  0
    6.7267   -3.8281   24.7501 C   0  0  0  0  0  0  0  0  0  0  0  0
    7.6712   -4.0450   25.2411 H   0  0  0  0  0  0  0  0  0  0  0  0
    8.5493   -2.1139   23.0358 C   0  0  0  0  0  0  0  0  0  0  0  0
    9.0435   -2.6470   23.8393 H   0  0  0  0  0  0  0  0  0  0  0  0
    9.3116   -1.3120   22.2283 N   0  0  0  0  0  0  0  0  0  0  0  0
   10.3087   -1.1424   22.3026 H   0  0  0  0  0  0  0  0  0  0  0  0
    8.8132   -0.5606   21.1739 C   0  0  0  0  0  0  0  0  0  0  0  0
    9.6125    0.1304   20.5621 O   0  0  0  0  0  0  0  0  0  0  0  0
    5.3980    0.6396   20.1514 C   0  0  0  0  0  0  0  0  0  0  0  0
    4.9566    0.6355   21.1500 H   0  0  0  0  0  0  0  0  0  0  0  0
    4.7873    1.3178   19.0985 C   0  0  0  0  0  0  0  0  0  0  0  0
    3.8618    1.8656   19.2376 H   0  0  0  0  0  0  0  0  0  0  0  0
  1  2  1  0
  2  3  2  0
  3  4  1  0
  4  5  1  0
  4  6  2  0
  6  7  1  0
  7  8  2  0
  8  9  1  0
  9 10  1  0
 10 11  1  0
 11 12  1  0
 11 13  2  0
 13 14  1  0
 14 15  1  0
 15 16  1  0
 15 17  1  0
 15 18  1  0
 14 19  1  0
 19 20  1  0
  9 21  2  0
 21 22  1  0
 21 23  1  0
 23 24  1  0
 23 25  1  0
 25 26  2  0
  6 27  1  0
 27 28  1  0
 27 29  2  0
 29 30  1  0
 29  2  1  0
 25  7  1  0
 19 10  2  0
M  END
>  <cnnaffinity>  (1) 
-5.07058

>  <filename>  (1) 
Cn1cc(-c2c[nH]c(=O)c(-c3cccnc3)n2)cn1

$$$$
