
     RDKit          3D

 29 31  0  0  0  0  0  0  0  0999 V2000
    4.9251    1.7827   17.0001 H   0  0  0  0  0  0  0  0  0  0  0  0
    5.4059    1.2877   17.8435 C   0  0  0  0  0  0  0  0  0  0  0  0
    6.5659    0.6640   17.5870 N   0  0  0  0  0  0  0  0  0  0  0  0
    7.1893    0.0505   18.6036 C   0  0  0  0  0  0  0  0  0  0  0  0
    8.1272   -0.4376   18.3588 H   0  0  0  0  0  0  0  0  0  0  0  0
    6.6896    0.0099   19.9193 C   0  0  0  0  0  0  0  0  0  0  0  0
    7.2823   -0.6970   20.9485 O   0  0  0  0  0  0  0  0  0  0  0  0
    8.6462   -0.7604   21.0954 C   0  0  0  0  0  0  0  0  0  0  0  0
    9.6632    0.0866   20.6246 C   0  0  0  0  0  0  0  0  0  0  0  0
    9.5824    0.9523   19.9891 H   0  0  0  0  0  0  0  0  0  0  0  0
   10.8521   -0.3068   21.0683 N   0  0  0  0  0  0  0  0  0  0  0  0
   10.6068   -1.3818   21.8051 N   0  0  0  0  0  0  0  0  0  0  0  0
   11.3732   -1.8692   22.2533 H   0  0  0  0  0  0  0  0  0  0  0  0
    9.2865   -1.7136   21.8834 C   0  0  0  0  0  0  0  0  0  0  0  0
    8.7624   -2.8223   22.6623 C   0  0  0  0  0  0  0  0  0  0  0  0
    9.5170   -3.6467   23.3957 N   0  0  0  0  0  0  0  0  0  0  0  0
    8.6499   -4.5095   23.9352 N   0  0  0  0  0  0  0  0  0  0  0  0
    9.1106   -5.6171   24.7493 C   0  0  0  0  0  0  0  0  0  0  0  0
    8.3790   -5.8005   25.5372 H   0  0  0  0  0  0  0  0  0  0  0  0
   10.0683   -5.3583   25.1996 H   0  0  0  0  0  0  0  0  0  0  0  0
    9.2223   -6.5281   24.1542 H   0  0  0  0  0  0  0  0  0  0  0  0
    7.3714   -4.2754   23.5544 C   0  0  0  0  0  0  0  0  0  0  0  0
    6.5652   -4.9102   23.9098 H   0  0  0  0  0  0  0  0  0  0  0  0
    7.3989   -3.1841   22.7320 C   0  0  0  0  0  0  0  0  0  0  0  0
    6.6028   -2.6591   22.2296 H   0  0  0  0  0  0  0  0  0  0  0  0
    5.4650    0.6400   20.1778 C   0  0  0  0  0  0  0  0  0  0  0  0
    5.0384    0.6072   21.1798 H   0  0  0  0  0  0  0  0  0  0  0  0
    4.8273    1.2973   19.1176 C   0  0  0  0  0  0  0  0  0  0  0  0
    3.8934    1.8252   19.2667 H   0  0  0  0  0  0  0  0  0  0  0  0
  1  2  1  0
  2  3  2  0
  3  4  1  0
  4  5  1  0
  4  6  2  0
  6  7  1  0
  7  8  1  0
  8  9  1  0
  9 10  1  0
  9 11  2  0
 11 12  1  0
 12 13  1  0
 12 14  1  0
 14 15  1  0
 15 16  2  0
 16 17  1  0
 17 18  1  0
 18 19  1  0
 18 20  1  0
 18 21  1  0
 17 22  1  0
 22 23  1  0
 22 24  2  0
 24 25  1  0
  6 26  1  0
 26 27  1  0
 26 28  2  0
 28 29  1  0
 28  2  1  0
 14  8  2  0
 24 15  1  0
M  END
>  <cnnaffinity>  (1) 
-5.299

>  <filename>  (1) 
Cn1ccc(-c2[nH]ncc2Oc2cccnc2)n1

$$$$
