
     RDKit          3D

 38 40  0  0  0  0  0  0  0  0999 V2000
    4.9210    1.8041   16.9803 H   0  0  0  0  0  0  0  0  0  0  0  0
    5.3846    1.3011   17.8272 C   0  0  0  0  0  0  0  0  0  0  0  0
    6.5397    0.6699   17.5637 N   0  0  0  0  0  0  0  0  0  0  0  0
    7.1524    0.0469   18.5753 C   0  0  0  0  0  0  0  0  0  0  0  0
    8.1143   -0.4141   18.3599 H   0  0  0  0  0  0  0  0  0  0  0  0
    6.6395   -0.0052   19.8827 C   0  0  0  0  0  0  0  0  0  0  0  0
    7.3530   -0.6745   20.9353 N   0  0  0  0  0  0  0  0  0  0  0  0
    6.7292   -1.7324   21.5800 C   0  0  0  0  0  0  0  0  0  0  0  0
    5.7264   -1.9755   21.2503 H   0  0  0  0  0  0  0  0  0  0  0  0
    7.3372   -2.4426   22.5765 C   0  0  0  0  0  0  0  0  0  0  0  0
    6.7656   -3.5619   23.2069 N   0  0  0  0  0  0  0  0  0  0  0  0
    6.5018   -3.5277   24.6488 C   0  0  0  0  0  0  0  0  0  0  0  0
    7.2578   -2.8996   25.1264 H   0  0  0  0  0  0  0  0  0  0  0  0
    5.5240   -3.0668   24.8918 H   0  0  0  0  0  0  0  0  0  0  0  0
    6.5600   -4.9598   25.2255 C   0  0  0  0  0  0  0  0  0  0  0  0
    7.5924   -5.3260   25.1328 H   0  0  0  0  0  0  0  0  0  0  0  0
    6.3038   -4.9478   26.2917 H   0  0  0  0  0  0  0  0  0  0  0  0
    5.6767   -5.9201   24.5390 N   0  0  0  0  0  0  0  0  0  0  0  0
    4.2662   -5.7119   24.8436 C   0  0  0  0  0  0  0  0  0  0  0  0
    4.1160   -5.7952   25.9259 H   0  0  0  0  0  0  0  0  0  0  0  0
    3.6745   -6.4910   24.3497 H   0  0  0  0  0  0  0  0  0  0  0  0
    3.8629   -4.7334   24.5245 H   0  0  0  0  0  0  0  0  0  0  0  0
    5.9622   -5.8839   23.0957 C   0  0  0  0  0  0  0  0  0  0  0  0
    5.2679   -6.5576   22.5803 H   0  0  0  0  0  0  0  0  0  0  0  0
    6.9801   -6.2704   22.9463 H   0  0  0  0  0  0  0  0  0  0  0  0
    5.8885   -4.4701   22.4709 C   0  0  0  0  0  0  0  0  0  0  0  0
    6.2433   -4.5078   21.4378 H   0  0  0  0  0  0  0  0  0  0  0  0
    4.8327   -4.1339   22.4388 H   0  0  0  0  0  0  0  0  0  0  0  0
    8.6621   -2.0488   22.9670 C   0  0  0  0  0  0  0  0  0  0  0  0
    9.1201   -2.6526   23.7512 H   0  0  0  0  0  0  0  0  0  0  0  0
    9.3057   -1.0205   22.3506 C   0  0  0  0  0  0  0  0  0  0  0  0
   10.3077   -0.7020   22.5971 H   0  0  0  0  0  0  0  0  0  0  0  0
    8.6861   -0.2472   21.2803 C   0  0  0  0  0  0  0  0  0  0  0  0
    9.2414    0.6768   20.7111 O   0  0  0  0  0  0  0  0  0  0  0  0
    5.4269    0.6356   20.1449 C   0  0  0  0  0  0  0  0  0  0  0  0
    5.0338    0.6205   21.1639 H   0  0  0  0  0  0  0  0  0  0  0  0
    4.7964    1.3159   19.0965 C   0  0  0  0  0  0  0  0  0  0  0  0
    3.8696    1.8528   19.2466 H   0  0  0  0  0  0  0  0  0  0  0  0
  1  2  1  0
  2  3  2  0
  3  4  1  0
  4  5  1  0
  4  6  2  0
  6  7  1  0
  7  8  1  0
  8  9  1  0
  8 10  2  0
 10 11  1  0
 11 12  1  0
 12 13  1  0
 12 14  1  0
 12 15  1  0
 15 16  1  0
 15 17  1  0
 15 18  1  0
 18 19  1  0
 19 20  1  0
 19 21  1  0
 19 22  1  0
 18 23  1  0
 23 24  1  0
 23 25  1  0
 23 26  1  0
 26 27  1  0
 26 28  1  0
 10 29  1  0
 29 30  1  0
 29 31  2  0
 31 32  1  0
 31 33  1  0
 33 34  2  0
  6 35  1  0
 35 36  1  0
 35 37  2  0
 37 38  1  0
 37  2  1  0
 33  7  1  0
 26 11  1  0
M  END
>  <cnnaffinity>  (1) 
-5.18551

>  <filename>  (1) 
CN1CCN(c2ccc(=O)n(-c3cccnc3)c2)CC1

$$$$
