
     RDKit          3D

 42 45  0  0  0  0  0  0  0  0999 V2000
    4.9374    1.8242   16.9698 H   0  0  0  0  0  0  0  0  0  0  0  0
    5.4023    1.3104   17.8095 C   0  0  0  0  0  0  0  0  0  0  0  0
    6.5635    0.6865   17.5541 N   0  0  0  0  0  0  0  0  0  0  0  0
    7.1543    0.0575   18.5814 C   0  0  0  0  0  0  0  0  0  0  0  0
    8.1050   -0.4284   18.3489 H   0  0  0  0  0  0  0  0  0  0  0  0
    6.6301   -0.0054   19.8851 C   0  0  0  0  0  0  0  0  0  0  0  0
    7.3506   -0.7216   20.9944 C   0  0  0  0  0  0  0  0  0  0  0  0
    8.5106    0.0398   21.6355 C   0  0  0  0  0  0  0  0  0  0  0  0
    9.2719    0.2426   20.8576 H   0  0  0  0  0  0  0  0  0  0  0  0
    8.9950   -0.6358   22.3560 H   0  0  0  0  0  0  0  0  0  0  0  0
    8.1001    1.2602   22.3261 N   0  0  0  0  0  0  0  0  0  0  0  0
    8.1559    2.4833   21.5234 C   0  0  0  0  0  0  0  0  0  0  0  0
    9.1399    2.6152   21.0214 H   0  0  0  0  0  0  0  0  0  0  0  0
    7.3860    2.4591   20.7451 H   0  0  0  0  0  0  0  0  0  0  0  0
    7.9264    3.6037   22.5449 C   0  0  0  0  0  0  0  0  0  0  0  0
    6.8553    3.8025   22.6570 H   0  0  0  0  0  0  0  0  0  0  0  0
    8.3946    4.5456   22.2261 H   0  0  0  0  0  0  0  0  0  0  0  0
    8.5418    3.0581   23.8547 C   0  0  2  0  0  0  0  0  0  0  0  0
    7.8688    3.2289   24.6989 H   0  0  0  0  0  0  0  0  0  0  0  0
    9.9380    3.6173   24.1717 C   0  0  0  0  0  0  0  0  0  0  0  0
   10.2997    4.2208   23.3229 H   0  0  0  0  0  0  0  0  0  0  0  0
    9.9451    4.2842   25.0411 H   0  0  0  0  0  0  0  0  0  0  0  0
   10.8323    2.4807   24.4141 N   0  0  0  0  0  0  0  0  0  0  0  0
   12.2100    2.7805   24.0434 C   0  0  0  0  0  0  0  0  0  0  0  0
   12.4614    3.8140   24.3257 H   0  0  0  0  0  0  0  0  0  0  0  0
   12.9000    2.0973   24.5477 H   0  0  0  0  0  0  0  0  0  0  0  0
   12.3954    2.6752   22.9572 H   0  0  0  0  0  0  0  0  0  0  0  0
   10.2867    1.3517   23.6623 C   0  0  0  0  0  0  0  0  0  0  0  0
   10.5559    0.3877   24.1162 H   0  0  0  0  0  0  0  0  0  0  0  0
   10.6631    1.3471   22.6170 H   0  0  0  0  0  0  0  0  0  0  0  0
    8.7507    1.5428   23.6168 C   0  0  2  0  0  0  0  0  0  0  0  0
    8.2719    0.9362   24.3966 H   0  0  0  0  0  0  0  0  0  0  0  0
    6.5908   -1.6430   21.9144 C   0  0  0  0  0  0  0  0  0  0  0  0
    6.8849   -1.6687   22.9638 H   0  0  0  0  0  0  0  0  0  0  0  0
    5.5266   -1.7739   21.7336 H   0  0  0  0  0  0  0  0  0  0  0  0
    7.4982   -2.2106   20.8587 C   0  0  0  0  0  0  0  0  0  0  0  0
    8.4551   -2.6714   21.0991 H   0  0  0  0  0  0  0  0  0  0  0  0
    6.9528   -2.6654   20.0369 H   0  0  0  0  0  0  0  0  0  0  0  0
    5.4257    0.6653   20.1259 C   0  0  0  0  0  0  0  0  0  0  0  0
    5.0300    0.6839   21.1436 H   0  0  0  0  0  0  0  0  0  0  0  0
    4.7962    1.3262   19.0694 C   0  0  0  0  0  0  0  0  0  0  0  0
    3.8648    1.8595   19.2163 H   0  0  0  0  0  0  0  0  0  0  0  0
  1  2  1  0
  2  3  2  0
  3  4  1  0
  4  5  1  0
  4  6  2  0
  6  7  1  0
  7  8  1  0
  8  9  1  0
  8 10  1  0
  8 11  1  0
 11 12  1  0
 12 13  1  0
 12 14  1  0
 12 15  1  0
 15 16  1  0
 15 17  1  0
 15 18  1  0
 18 19  1  1
 18 20  1  0
 20 21  1  0
 20 22  1  0
 20 23  1  0
 23 24  1  0
 24 25  1  0
 24 26  1  0
 24 27  1  0
 23 28  1  0
 28 29  1  0
 28 30  1  0
 28 31  1  0
 31 32  1  1
  7 33  1  0
 33 34  1  0
 33 35  1  0
 33 36  1  0
 36 37  1  0
 36 38  1  0
  6 39  1  0
 39 40  1  0
 39 41  2  0
 41 42  1  0
 41  2  1  0
 36  7  1  0
 31 11  1  0
 31 18  1  0
M  END
>  <cnnaffinity>  (1) 
-4.96939

>  <filename>  (1) 
CN1C[C@H]2CCN(CC3(c4cccnc4)CC3)[C@H]2C1

$$$$
