
     RDKit          3D

 41 44  0  0  0  0  0  0  0  0999 V2000
    4.9668    1.8331   17.0319 H   0  0  0  0  0  0  0  0  0  0  0  0
    5.4185    1.2847   17.8582 C   0  0  0  0  0  0  0  0  0  0  0  0
    6.5575    0.6307   17.5837 N   0  0  0  0  0  0  0  0  0  0  0  0
    7.1438   -0.0316   18.5881 C   0  0  0  0  0  0  0  0  0  0  0  0
    8.0893   -0.5182   18.3696 H   0  0  0  0  0  0  0  0  0  0  0  0
    6.6185   -0.1033   19.8902 C   0  0  0  0  0  0  0  0  0  0  0  0
    7.3146   -0.8031   20.9203 N   0  0  0  0  0  0  0  0  0  0  0  0
    6.5666   -1.7677   21.5657 N   0  0  0  0  0  0  0  0  0  0  0  0
    7.1343   -2.4322   22.5523 C   0  0  0  0  0  0  0  0  0  0  0  0
    6.4271   -3.4339   23.1649 N   0  0  0  0  0  0  0  0  0  0  0  0
    5.0632   -3.7465   22.7583 C   0  0  0  0  0  0  0  0  0  0  0  0
    4.3894   -2.9216   22.9784 H   0  0  0  0  0  0  0  0  0  0  0  0
    5.0098   -3.9318   21.6810 H   0  0  0  0  0  0  0  0  0  0  0  0
    4.6719   -4.9691   23.5893 C   0  0  0  0  0  0  0  0  0  0  0  0
    3.6107   -4.9349   23.8671 H   0  0  0  0  0  0  0  0  0  0  0  0
    4.8140   -5.8863   23.0089 H   0  0  0  0  0  0  0  0  0  0  0  0
    5.6135   -4.9548   24.8092 C   0  0  2  0  0  0  0  0  0  0  0  0
    6.0286   -5.9527   24.9490 H   0  0  0  0  0  0  0  0  0  0  0  0
    5.0270   -4.4774   26.1523 C   0  0  0  0  0  0  0  0  0  0  0  0
    5.3670   -5.1749   26.9458 H   0  0  0  0  0  0  0  0  0  0  0  0
    3.9293   -4.4845   26.1457 H   0  0  0  0  0  0  0  0  0  0  0  0
    5.5241   -3.1277   26.3945 N   0  0  0  0  0  0  0  0  0  0  0  0
    5.4878   -2.7545   27.7997 C   0  0  0  0  0  0  0  0  0  0  0  0
    4.4631   -2.5085   28.1005 H   0  0  0  0  0  0  0  0  0  0  0  0
    6.1070   -1.8739   28.0020 H   0  0  0  0  0  0  0  0  0  0  0  0
    5.8310   -3.5744   28.4574 H   0  0  0  0  0  0  0  0  0  0  0  0
    6.8246   -3.0363   25.7252 C   0  0  0  0  0  0  0  0  0  0  0  0
    7.6432   -3.4159   26.3700 H   0  0  0  0  0  0  0  0  0  0  0  0
    7.0573   -1.9992   25.4515 H   0  0  0  0  0  0  0  0  0  0  0  0
    6.7602   -3.9784   24.4864 C   0  0  2  0  0  0  0  0  0  0  0  0
    7.7189   -4.5031   24.3970 H   0  0  0  0  0  0  0  0  0  0  0  0
    8.4880   -2.1558   22.9754 C   0  0  0  0  0  0  0  0  0  0  0  0
    8.8955   -2.7172   23.8054 H   0  0  0  0  0  0  0  0  0  0  0  0
    9.2270   -1.2283   22.3173 C   0  0  0  0  0  0  0  0  0  0  0  0
   10.2517   -0.9939   22.5641 H   0  0  0  0  0  0  0  0  0  0  0  0
    8.6824   -0.4565   21.2098 C   0  0  0  0  0  0  0  0  0  0  0  0
    9.3028    0.3921   20.5890 O   0  0  0  0  0  0  0  0  0  0  0  0
    5.4101    0.5433   20.1599 C   0  0  0  0  0  0  0  0  0  0  0  0
    4.9698    0.4730   21.1553 H   0  0  0  0  0  0  0  0  0  0  0  0
    4.8167    1.2725   19.1232 C   0  0  0  0  0  0  0  0  0  0  0  0
    3.9028    1.8303   19.2830 H   0  0  0  0  0  0  0  0  0  0  0  0
  1  2  1  0
  2  3  2  0
  3  4  1  0
  4  5  1  0
  4  6  2  0
  6  7  1  0
  7  8  1  0
  8  9  2  0
  9 10  1  0
 10 11  1  0
 11 12  1  0
 11 13  1  0
 11 14  1  0
 14 15  1  0
 14 16  1  0
 14 17  1  0
 17 18  1  1
 17 19  1  0
 19 20  1  0
 19 21  1  0
 19 22  1  0
 22 23  1  0
 23 24  1  0
 23 25  1  0
 23 26  1  0
 22 27  1  0
 27 28  1  0
 27 29  1  0
 27 30  1  0
 30 31  1  6
  9 32  1  0
 32 33  1  0
 32 34  2  0
 34 35  1  0
 34 36  1  0
 36 37  2  0
  6 38  1  0
 38 39  1  0
 38 40  2  0
 40 41  1  0
 40  2  1  0
 36  7  1  0
 30 10  1  0
 30 17  1  0
M  END
>  <cnnaffinity>  (1) 
-5.34279

>  <filename>  (1) 
CN1C[C@H]2CCN(c3ccc(=O)n(-c4cccnc4)n3)[C@H]2C1

$$$$
