
     RDKit          3D

 30 33  0  0  0  0  0  0  0  0999 V2000
    4.9258    1.7724   17.0030 H   0  0  0  0  0  0  0  0  0  0  0  0
    5.4103    1.2854   17.8462 C   0  0  0  0  0  0  0  0  0  0  0  0
    6.5745    0.6676   17.5940 N   0  0  0  0  0  0  0  0  0  0  0  0
    7.1802    0.0536   18.6147 C   0  0  0  0  0  0  0  0  0  0  0  0
    8.1262   -0.4326   18.3845 H   0  0  0  0  0  0  0  0  0  0  0  0
    6.6459    0.0156   19.9093 C   0  0  0  0  0  0  0  0  0  0  0  0
    7.3654   -0.6913   20.9635 C   0  0  0  0  0  0  0  0  0  0  0  0
    8.5523   -1.3276   20.7471 N   0  0  0  0  0  0  0  0  0  0  0  0
    8.8141   -1.8053   21.9465 C   0  0  0  0  0  0  0  0  0  0  0  0
   10.0424   -2.7395   22.7565 S   0  0  0  0  0  0  0  0  0  0  0  0
    9.1457   -2.6291   24.2380 C   0  0  0  0  0  0  0  0  0  0  0  0
    9.5644   -3.1137   25.1120 H   0  0  0  0  0  0  0  0  0  0  0  0
    7.9893   -1.9254   24.1327 C   0  0  0  0  0  0  0  0  0  0  0  0
    7.0040   -1.6374   25.1908 C   0  0  0  0  0  0  0  0  0  0  0  0
    5.8755   -0.9307   25.0547 N   0  0  0  0  0  0  0  0  0  0  0  0
    5.3010   -0.9383   26.2550 N   0  0  0  0  0  0  0  0  0  0  0  0
    4.0799   -0.1932   26.4845 C   0  0  0  0  0  0  0  0  0  0  0  0
    4.2932    0.7997   26.8883 H   0  0  0  0  0  0  0  0  0  0  0  0
    3.5355   -0.0909   25.5458 H   0  0  0  0  0  0  0  0  0  0  0  0
    3.4628   -0.7371   27.1985 H   0  0  0  0  0  0  0  0  0  0  0  0
    6.0327   -1.6009   27.1808 C   0  0  0  0  0  0  0  0  0  0  0  0
    5.7067   -1.6679   28.2118 H   0  0  0  0  0  0  0  0  0  0  0  0
    7.1421   -2.0789   26.5356 C   0  0  0  0  0  0  0  0  0  0  0  0
    7.9456   -2.6604   26.9700 H   0  0  0  0  0  0  0  0  0  0  0  0
    7.8409   -1.4783   22.8217 N   0  0  0  0  0  0  0  0  0  0  0  0
    6.8895   -0.7534   22.2013 N   0  0  0  0  0  0  0  0  0  0  0  0
    5.4256    0.6588   20.1668 C   0  0  0  0  0  0  0  0  0  0  0  0
    4.9996    0.6337   21.1761 H   0  0  0  0  0  0  0  0  0  0  0  0
    4.8043    1.3101   19.1088 C   0  0  0  0  0  0  0  0  0  0  0  0
    3.8736    1.8435   19.2590 H   0  0  0  0  0  0  0  0  0  0  0  0
  1  2  1  0
  2  3  2  0
  3  4  1  0
  4  5  1  0
  4  6  2  0
  6  7  1  0
  7  8  1  0
  8  9  2  0
  9 10  1  0
 10 11  1  0
 11 12  1  0
 11 13  2  0
 13 14  1  0
 14 15  2  0
 15 16  1  0
 16 17  1  0
 17 18  1  0
 17 19  1  0
 17 20  1  0
 16 21  1  0
 21 22  1  0
 21 23  2  0
 23 24  1  0
 13 25  1  0
 25 26  1  0
  6 27  1  0
 27 28  1  0
 27 29  2  0
 29 30  1  0
 29  2  1  0
 26  7  2  0
 25  9  1  0
 23 14  1  0
M  END
>  <cnnaffinity>  (1) 
-5.42539

>  <filename>  (1) 
Cn1ccc(-c2csc3nc(-c4cccnc4)nn23)n1

$$$$
