
     RDKit          3D

 32 34  0  0  0  0  0  0  0  0999 V2000
    4.9170    1.8002   16.9814 H   0  0  0  0  0  0  0  0  0  0  0  0
    5.3945    1.3007   17.8218 C   0  0  0  0  0  0  0  0  0  0  0  0
    6.5593    0.6887   17.5577 N   0  0  0  0  0  0  0  0  0  0  0  0
    7.1690    0.0703   18.5747 C   0  0  0  0  0  0  0  0  0  0  0  0
    8.1197   -0.4107   18.3333 H   0  0  0  0  0  0  0  0  0  0  0  0
    6.6564    0.0068   19.8825 C   0  0  0  0  0  0  0  0  0  0  0  0
    7.3871   -0.7073   21.0071 C   0  0  2  0  0  0  0  0  0  0  0  0
    8.2288   -1.2561   20.5754 H   0  0  0  0  0  0  0  0  0  0  0  0
    6.5275   -1.7509   21.7306 C   0  0  0  0  0  0  0  0  0  0  0  0
    5.9701   -2.7271   21.2776 O   0  0  0  0  0  0  0  0  0  0  0  0
    6.4979   -1.4316   23.0535 N   0  0  0  0  0  0  0  0  0  0  0  0
    5.7358   -1.8820   23.5390 H   0  0  0  0  0  0  0  0  0  0  0  0
    7.0521   -0.1400   23.4037 C   0  0  0  0  0  0  0  0  0  0  0  0
    7.6699   -0.2234   24.3098 H   0  0  0  0  0  0  0  0  0  0  0  0
    6.2873    0.6237   23.6378 H   0  0  0  0  0  0  0  0  0  0  0  0
    7.8589    0.2554   22.1388 C   0  0  1  0  0  0  0  0  0  0  0  0
    7.6343    1.2910   21.8722 H   0  0  0  0  0  0  0  0  0  0  0  0
    9.3371    0.2624   22.3414 C   0  0  0  0  0  0  0  0  0  0  0  0
   10.2125    1.3150   22.1709 C   0  0  0  0  0  0  0  0  0  0  0  0
    9.9489    2.3147   21.8576 H   0  0  0  0  0  0  0  0  0  0  0  0
   11.4755    0.7835   22.4824 C   0  0  0  0  0  0  0  0  0  0  0  0
   12.4392    1.2781   22.4801 H   0  0  0  0  0  0  0  0  0  0  0  0
   11.3913   -0.4957   22.8165 N   0  0  0  0  0  0  0  0  0  0  0  0
   10.0884   -0.8006   22.7254 N   0  0  0  0  0  0  0  0  0  0  0  0
    9.6608   -2.1567   23.0177 C   0  0  0  0  0  0  0  0  0  0  0  0
    8.9238   -2.1685   23.8235 H   0  0  0  0  0  0  0  0  0  0  0  0
    9.2419   -2.6444   22.1333 H   0  0  0  0  0  0  0  0  0  0  0  0
   10.5502   -2.7031   23.3318 H   0  0  0  0  0  0  0  0  0  0  0  0
    5.4424    0.6533   20.1346 C   0  0  0  0  0  0  0  0  0  0  0  0
    5.0112    0.6345   21.1404 H   0  0  0  0  0  0  0  0  0  0  0  0
    4.8047    1.3130   19.0879 C   0  0  0  0  0  0  0  0  0  0  0  0
    3.8752    1.8423   19.2464 H   0  0  0  0  0  0  0  0  0  0  0  0
  1  2  1  0
  2  3  2  0
  3  4  1  0
  4  5  1  0
  4  6  2  0
  6  7  1  0
  7  8  1  6
  7  9  1  0
  9 10  2  0
  9 11  1  0
 11 12  1  0
 11 13  1  0
 13 14  1  0
 13 15  1  0
 13 16  1  0
 16 17  1  6
 16 18  1  0
 18 19  2  0
 19 20  1  0
 19 21  1  0
 21 22  1  0
 21 23  2  0
 23 24  1  0
 24 25  1  0
 25 26  1  0
 25 27  1  0
 25 28  1  0
  6 29  1  0
 29 30  1  0
 29 31  2  0
 31 32  1  0
 31  2  1  0
 16  7  1  0
 24 18  1  0
M  END
>  <cnnaffinity>  (1) 
-5.13712

>  <filename>  (1) 
Cn1nccc1[C@@H]1CNC(=O)[C@H]1c1cccnc1

$$$$
