
     RDKit          3D

 33 35  0  0  0  0  0  0  0  0999 V2000
    9.7256   -2.2719   22.3198 C   0  0  0  0  0  0  0  0  0  0  0  0
    8.4544   -1.7782   21.8375 N   0  0  0  0  0  0  0  0  0  0  0  0
    8.3542   -1.2133   20.6132 N   0  0  0  0  0  0  0  0  0  0  0  0
    7.1050   -0.7756   20.5978 C   0  0  0  0  0  0  0  0  0  0  0  0
    6.5028    0.0095   19.5244 C   0  0  0  0  0  0  0  0  0  0  0  0
    5.3120    0.7317   19.7209 C   0  0  0  0  0  0  0  0  0  0  0  0
    4.8057    1.4655   18.6536 C   0  0  0  0  0  0  0  0  0  0  0  0
    5.4922    1.4414   17.4340 C   0  0  0  0  0  0  0  0  0  0  0  0
    6.6292    0.7571   17.2374 N   0  0  0  0  0  0  0  0  0  0  0  0
    7.1283    0.0748   18.2730 C   0  0  0  0  0  0  0  0  0  0  0  0
    8.0750   -0.4374   18.1049 H   0  0  0  0  0  0  0  0  0  0  0  0
    5.1149    1.9989   16.5802 H   0  0  0  0  0  0  0  0  0  0  0  0
    3.9101    2.0683   18.7585 H   0  0  0  0  0  0  0  0  0  0  0  0
    4.8148    0.7220   20.6936 H   0  0  0  0  0  0  0  0  0  0  0  0
    6.4072   -1.0411   21.7294 N   0  0  0  0  0  0  0  0  0  0  0  0
    7.2875   -1.6494   22.4976 C   0  0  0  0  0  0  0  0  0  0  0  0
    7.1328   -1.9071   23.9688 C   0  0  0  0  0  0  0  0  0  0  0  0
    7.9483   -0.8977   24.7809 C   0  0  0  0  0  0  0  0  0  0  0  0
    7.6873    0.4641   24.5490 C   0  0  0  0  0  0  0  0  0  0  0  0
    8.5105    1.4689   25.0497 C   0  0  0  0  0  0  0  0  0  0  0  0
    9.6270    1.1098   25.8091 C   0  0  0  0  0  0  0  0  0  0  0  0
    9.8740   -0.2255   26.1257 C   0  0  0  0  0  0  0  0  0  0  0  0
    9.0061   -1.2156   25.6432 C   0  0  0  0  0  0  0  0  0  0  0  0
    9.2729   -2.8503   26.2065 Cl  0  0  0  0  0  0  0  0  0  0  0  0
   10.7104   -0.4996   26.7630 H   0  0  0  0  0  0  0  0  0  0  0  0
   10.3023    1.8763   26.1646 H   0  0  0  0  0  0  0  0  0  0  0  0
    8.2741    2.5111   24.8462 H   0  0  0  0  0  0  0  0  0  0  0  0
    6.8287    0.7206   23.9312 H   0  0  0  0  0  0  0  0  0  0  0  0
    6.0702   -1.7652   24.1739 H   0  0  0  0  0  0  0  0  0  0  0  0
    7.3733   -2.9457   24.2099 H   0  0  0  0  0  0  0  0  0  0  0  0
   10.3871   -2.3679   21.4606 H   0  0  0  0  0  0  0  0  0  0  0  0
   10.1743   -1.5882   23.0485 H   0  0  0  0  0  0  0  0  0  0  0  0
    9.5942   -3.2483   22.7899 H   0  0  0  0  0  0  0  0  0  0  0  0
  1  2  1  0
  2  3  1  0
  3  4  2  0
  4  5  1  0
  5  6  2  0
  6  7  1  0
  7  8  2  0
  8  9  1  0
  9 10  2  0
 10 11  1  0
  8 12  1  0
  7 13  1  0
  6 14  1  0
  4 15  1  0
 15 16  2  0
 16 17  1  0
 17 18  1  0
 18 19  2  0
 19 20  1  0
 20 21  2  0
 21 22  1  0
 22 23  2  0
 23 24  1  0
 22 25  1  0
 21 26  1  0
 20 27  1  0
 19 28  1  0
 17 29  1  0
 17 30  1  0
  1 31  1  0
  1 32  1  0
  1 33  1  0
 16  2  1  0
 23 18  1  0
 10  5  1  0
M  END
>  <cnnaffinity>  (1) 
-5.31247

>  <filename>  (1) 
Cn1nc(-c2cccnc2)nc1Cc1ccccc1Cl

$$$$
