
     RDKit          3D

 29 31  0  0  0  0  0  0  0  0999 V2000
    4.9314    1.8005   16.9964 H   0  0  0  0  0  0  0  0  0  0  0  0
    5.3960    1.2897   17.8331 C   0  0  0  0  0  0  0  0  0  0  0  0
    6.5511    0.6601   17.5623 N   0  0  0  0  0  0  0  0  0  0  0  0
    7.1730    0.0465   18.5760 C   0  0  0  0  0  0  0  0  0  0  0  0
    8.1278   -0.4340   18.3606 H   0  0  0  0  0  0  0  0  0  0  0  0
    6.6574    0.0077   19.8864 C   0  0  0  0  0  0  0  0  0  0  0  0
    7.3471   -0.6714   20.9358 N   0  0  0  0  0  0  0  0  0  0  0  0
    6.7446   -1.5807   21.7870 C   0  0  0  0  0  0  0  0  0  0  0  0
    5.6954   -1.8143   21.7077 H   0  0  0  0  0  0  0  0  0  0  0  0
    7.6772   -2.0503   22.6485 C   0  0  0  0  0  0  0  0  0  0  0  0
    7.4748   -2.9298   23.7749 C   0  0  0  0  0  0  0  0  0  0  0  0
    6.2958   -3.1633   24.4594 C   0  0  0  0  0  0  0  0  0  0  0  0
    5.3597   -2.6601   24.2708 H   0  0  0  0  0  0  0  0  0  0  0  0
    6.6206   -4.1142   25.4374 C   0  0  0  0  0  0  0  0  0  0  0  0
    5.9941   -4.5804   26.1914 H   0  0  0  0  0  0  0  0  0  0  0  0
    7.9039   -4.4466   25.3667 N   0  0  0  0  0  0  0  0  0  0  0  0
    8.4160   -3.7242   24.3657 N   0  0  0  0  0  0  0  0  0  0  0  0
    9.8168   -3.8909   24.0351 C   0  0  0  0  0  0  0  0  0  0  0  0
   10.1317   -4.8521   24.4470 H   0  0  0  0  0  0  0  0  0  0  0  0
   10.4314   -3.0977   24.4743 H   0  0  0  0  0  0  0  0  0  0  0  0
    9.9257   -3.8924   22.9501 H   0  0  0  0  0  0  0  0  0  0  0  0
    8.8616   -1.4178   22.2891 N   0  0  0  0  0  0  0  0  0  0  0  0
    9.7457   -1.3679   22.7710 H   0  0  0  0  0  0  0  0  0  0  0  0
    8.6694   -0.5130   21.2995 C   0  0  0  0  0  0  0  0  0  0  0  0
    9.8191    0.5621   20.7892 S   0  0  0  0  0  0  0  0  0  0  0  0
    5.4434    0.6457   20.1520 C   0  0  0  0  0  0  0  0  0  0  0  0
    5.0378    0.6325   21.1666 H   0  0  0  0  0  0  0  0  0  0  0  0
    4.8048    1.3093   19.1023 C   0  0  0  0  0  0  0  0  0  0  0  0
    3.8746    1.8433   19.2606 H   0  0  0  0  0  0  0  0  0  0  0  0
  1  2  1  0
  2  3  2  0
  3  4  1  0
  4  5  1  0
  4  6  2  0
  6  7  1  0
  7  8  1  0
  8  9  1  0
  8 10  2  0
 10 11  1  0
 11 12  2  0
 12 13  1  0
 12 14  1  0
 14 15  1  0
 14 16  2  0
 16 17  1  0
 17 18  1  0
 18 19  1  0
 18 20  1  0
 18 21  1  0
 10 22  1  0
 22 23  1  0
 22 24  1  0
 24 25  2  0
  6 26  1  0
 26 27  1  0
 26 28  2  0
 28 29  1  0
 28  2  1  0
 24  7  1  0
 17 11  1  0
M  END
>  <cnnaffinity>  (1) 
-5.20627

>  <filename>  (1) 
Cn1nccc1-c1cn(-c2cccnc2)c(=S)[nH]1

$$$$
