
     RDKit          3D

 29 31  0  0  0  0  0  0  0  0999 V2000
    4.9826    1.8802   16.7929 H   0  0  0  0  0  0  0  0  0  0  0  0
    5.4290    1.3445   17.6287 C   0  0  0  0  0  0  0  0  0  0  0  0
    6.5760    0.6943   17.3758 N   0  0  0  0  0  0  0  0  0  0  0  0
    7.1588    0.0449   18.3874 C   0  0  0  0  0  0  0  0  0  0  0  0
    8.0828   -0.4852   18.1687 H   0  0  0  0  0  0  0  0  0  0  0  0
    6.6402    0.0141   19.6896 C   0  0  0  0  0  0  0  0  0  0  0  0
    7.3790   -0.6659   20.7595 C   0  0  0  0  0  0  0  0  0  0  0  0
    8.5396   -1.3013   20.5073 N   0  0  0  0  0  0  0  0  0  0  0  0
    8.8871   -1.7592   21.7261 N   0  0  0  0  0  0  0  0  0  0  0  0
    9.9660   -2.4409   22.2742 C   0  0  0  0  0  0  0  0  0  0  0  0
   10.8035   -2.7283   21.6659 H   0  0  0  0  0  0  0  0  0  0  0  0
    9.7231   -2.5508   23.6019 C   0  0  0  0  0  0  0  0  0  0  0  0
   10.2995   -3.0449   24.3710 H   0  0  0  0  0  0  0  0  0  0  0  0
    8.4874   -1.9212   23.8926 N   0  0  0  0  0  0  0  0  0  0  0  0
    7.8431   -1.4785   25.0806 C   0  0  0  0  0  0  0  0  0  0  0  0
    6.7995   -0.8529   25.0437 O   0  0  0  0  0  0  0  0  0  0  0  0
    8.4941   -1.7528   26.2353 N   0  0  0  0  0  0  0  0  0  0  0  0
    9.2269   -2.4337   26.2232 H   0  0  0  0  0  0  0  0  0  0  0  0
    8.0529   -1.2052   27.5054 C   0  0  0  0  0  0  0  0  0  0  0  0
    7.2545   -1.8062   27.9533 H   0  0  0  0  0  0  0  0  0  0  0  0
    7.6515   -0.1998   27.3610 H   0  0  0  0  0  0  0  0  0  0  0  0
    8.9160   -1.1327   28.1708 H   0  0  0  0  0  0  0  0  0  0  0  0
    8.0049   -1.4435   22.6791 C   0  0  0  0  0  0  0  0  0  0  0  0
    6.9950   -0.7056   22.1143 C   0  0  0  0  0  0  0  0  0  0  0  0
    6.1700   -0.2341   22.6189 H   0  0  0  0  0  0  0  0  0  0  0  0
    5.4241    0.6698   19.9301 C   0  0  0  0  0  0  0  0  0  0  0  0
    4.9791    0.6397   20.9240 H   0  0  0  0  0  0  0  0  0  0  0  0
    4.8092    1.3482   18.8832 C   0  0  0  0  0  0  0  0  0  0  0  0
    3.8770    1.8829   19.0299 H   0  0  0  0  0  0  0  0  0  0  0  0
  1  2  1  0
  2  3  2  0
  3  4  1  0
  4  5  1  0
  4  6  2  0
  6  7  1  0
  7  8  2  0
  8  9  1  0
  9 10  1  0
 10 11  1  0
 10 12  2  0
 12 13  1  0
 12 14  1  0
 14 15  1  0
 15 16  2  0
 15 17  1  0
 17 18  1  0
 17 19  1  0
 19 20  1  0
 19 21  1  0
 19 22  1  0
 14 23  1  0
 23 24  2  0
 24 25  1  0
  6 26  1  0
 26 27  1  0
 26 28  2  0
 28 29  1  0
 28  2  1  0
 24  7  1  0
 23  9  1  0
M  END
>  <cnnaffinity>  (1) 
-4.98402

>  <filename>  (1) 
CNC(=O)n1ccn2nc(-c3cccnc3)cc12

$$$$
