
     RDKit          3D

 23 24  0  0  0  0  0  0  0  0999 V2000
    4.9212    1.8243   16.9867 H   0  0  0  0  0  0  0  0  0  0  0  0
    5.4052    1.3091   17.8160 C   0  0  0  0  0  0  0  0  0  0  0  0
    6.5616    0.6849   17.5370 N   0  0  0  0  0  0  0  0  0  0  0  0
    7.2036    0.0711   18.5394 C   0  0  0  0  0  0  0  0  0  0  0  0
    8.1315   -0.4378   18.2831 H   0  0  0  0  0  0  0  0  0  0  0  0
    6.7225    0.0252   19.8709 C   0  0  0  0  0  0  0  0  0  0  0  0
    7.4036   -0.6828   20.9317 N   0  0  0  0  0  0  0  0  0  0  0  0
    8.7194   -0.6185   21.3655 C   0  0  0  0  0  0  0  0  0  0  0  0
    9.6092    0.1750   20.7215 N   0  0  0  0  0  0  0  0  0  0  0  0
    9.1600    0.9817   20.3233 H   0  0  0  0  0  0  0  0  0  0  0  0
   10.9597    0.2745   21.2721 C   0  0  0  0  0  0  0  0  0  0  0  0
   11.4795    1.1430   20.8505 H   0  0  0  0  0  0  0  0  0  0  0  0
   10.9655    0.3316   22.3668 H   0  0  0  0  0  0  0  0  0  0  0  0
   11.5297   -0.6246   21.0144 H   0  0  0  0  0  0  0  0  0  0  0  0
    9.0009   -1.4018   22.3615 N   0  0  0  0  0  0  0  0  0  0  0  0
    7.7886   -2.0394   22.5775 N   0  0  0  0  0  0  0  0  0  0  0  0
    7.6454   -2.7652   23.2536 H   0  0  0  0  0  0  0  0  0  0  0  0
    6.8134   -1.7006   21.7036 C   0  0  0  0  0  0  0  0  0  0  0  0
    5.7108   -2.1990   21.5885 O   0  0  0  0  0  0  0  0  0  0  0  0
    5.4939    0.6427   20.1308 C   0  0  0  0  0  0  0  0  0  0  0  0
    5.0618    0.5665   21.1289 H   0  0  0  0  0  0  0  0  0  0  0  0
    4.8299    1.3098   19.0920 C   0  0  0  0  0  0  0  0  0  0  0  0
    3.8849    1.8256   19.2508 H   0  0  0  0  0  0  0  0  0  0  0  0
  1  2  1  0
  2  3  2  0
  3  4  1  0
  4  5  1  0
  4  6  2  0
  6  7  1  0
  7  8  1  0
  8  9  1  0
  9 10  1  0
  9 11  1  0
 11 12  1  0
 11 13  1  0
 11 14  1  0
  8 15  2  0
 15 16  1  0
 16 17  1  0
 16 18  1  0
 18 19  2  0
  6 20  1  0
 20 21  1  0
 20 22  2  0
 22 23  1  0
 22  2  1  0
 18  7  1  0
M  END
>  <cnnaffinity>  (1) 
-3.87365

>  <filename>  (1) 
CNc1n[nH]c(=O)n1-c1cccnc1

$$$$
