
     RDKit          3D

 30 32  0  0  0  0  0  0  0  0999 V2000
    5.0533    1.7999   17.0199 H   0  0  0  0  0  0  0  0  0  0  0  0
    5.4964    1.2738   17.8651 C   0  0  0  0  0  0  0  0  0  0  0  0
    6.6576    0.6527   17.6151 N   0  0  0  0  0  0  0  0  0  0  0  0
    7.2369   -0.0071   18.6216 C   0  0  0  0  0  0  0  0  0  0  0  0
    8.2062   -0.4549   18.4050 H   0  0  0  0  0  0  0  0  0  0  0  0
    6.6704   -0.1413   19.9039 C   0  0  0  0  0  0  0  0  0  0  0  0
    7.3749   -0.9492   20.9135 C   0  0  0  0  0  0  0  0  0  0  0  0
    8.7000   -0.8227   21.0326 N   0  0  0  0  0  0  0  0  0  0  0  0
    9.0173   -1.6761   21.9981 N   0  0  0  0  0  0  0  0  0  0  0  0
    8.0018   -2.3779   22.5106 C   0  0  0  0  0  0  0  0  0  0  0  0
    6.8692   -1.9605   21.8195 C   0  0  0  0  0  0  0  0  0  0  0  0
    5.5710   -2.5124   21.8741 N   0  0  0  0  0  0  0  0  0  0  0  0
    4.8828   -1.7672   21.7898 H   0  0  0  0  0  0  0  0  0  0  0  0
    5.3124   -3.3639   23.0271 C   0  0  0  0  0  0  0  0  0  0  0  0
    4.2785   -3.7072   23.0257 H   0  0  0  0  0  0  0  0  0  0  0  0
    5.5157   -2.8815   23.9979 H   0  0  0  0  0  0  0  0  0  0  0  0
    5.9320   -4.2630   22.9627 H   0  0  0  0  0  0  0  0  0  0  0  0
    8.5159   -3.2275   23.6474 C   0  0  0  0  0  0  0  0  0  0  0  0
    8.2643   -4.2867   23.5259 H   0  0  0  0  0  0  0  0  0  0  0  0
    8.0701   -2.9049   24.5968 H   0  0  0  0  0  0  0  0  0  0  0  0
   10.0597   -2.9717   23.6295 C   0  0  0  0  0  0  0  0  0  0  0  0
   10.3842   -2.5338   24.5732 H   0  0  0  0  0  0  0  0  0  0  0  0
   10.6215   -3.8916   23.4675 H   0  0  0  0  0  0  0  0  0  0  0  0
   10.3404   -1.9750   22.4704 C   0  0  0  0  0  0  0  0  0  0  0  0
   10.8304   -1.0477   22.7776 H   0  0  0  0  0  0  0  0  0  0  0  0
   10.9259   -2.4113   21.6555 H   0  0  0  0  0  0  0  0  0  0  0  0
    5.4576    0.5230   20.1524 C   0  0  0  0  0  0  0  0  0  0  0  0
    5.0008    0.4991   21.1431 H   0  0  0  0  0  0  0  0  0  0  0  0
    4.8662    1.2517   19.1143 C   0  0  0  0  0  0  0  0  0  0  0  0
    3.9366    1.7912   19.2466 H   0  0  0  0  0  0  0  0  0  0  0  0
  1  2  1  0
  2  3  2  0
  3  4  1  0
  4  5  1  0
  4  6  2  0
  6  7  1  0
  7  8  2  0
  8  9  1  0
  9 10  1  0
 10 11  2  0
 11 12  1  0
 12 13  1  0
 12 14  1  0
 14 15  1  0
 14 16  1  0
 14 17  1  0
 10 18  1  0
 18 19  1  0
 18 20  1  0
 18 21  1  0
 21 22  1  0
 21 23  1  0
 21 24  1  0
 24 25  1  0
 24 26  1  0
  6 27  1  0
 27 28  1  0
 27 29  2  0
 29 30  1  0
 29  2  1  0
 11  7  1  0
 24  9  1  0
M  END
>  <cnnaffinity>  (1) 
-4.68378

>  <filename>  (1) 
CNc1c(-c2cccnc2)nn2c1CCC2

$$$$
