
     RDKit          3D

 27 28  0  0  0  0  0  0  0  0999 V2000
    7.4865    1.0331   23.9387 H   0  0  0  0  0  0  0  0  0  0  0  0
    7.4524    0.9286   22.8473 C   0  0  0  0  0  0  0  0  0  0  0  0
    7.5416   -0.3075   22.3280 C   0  0  0  0  0  0  0  0  0  0  0  0
    7.3467   -0.7506   20.9481 C   0  0  0  0  0  0  0  0  0  0  0  0
    6.6493    0.0233   19.9003 C   0  0  0  0  0  0  0  0  0  0  0  0
    7.1742    0.0551   18.6060 C   0  0  0  0  0  0  0  0  0  0  0  0
    8.1155   -0.4420   18.3791 H   0  0  0  0  0  0  0  0  0  0  0  0
    6.5734    0.6779   17.5883 N   0  0  0  0  0  0  0  0  0  0  0  0
    5.4060    1.2927   17.8388 C   0  0  0  0  0  0  0  0  0  0  0  0
    4.9247    1.7798   16.9949 H   0  0  0  0  0  0  0  0  0  0  0  0
    4.7969    1.3107   19.0969 C   0  0  0  0  0  0  0  0  0  0  0  0
    3.8683    1.8444   19.2525 H   0  0  0  0  0  0  0  0  0  0  0  0
    5.4235    0.6525   20.1502 C   0  0  0  0  0  0  0  0  0  0  0  0
    4.9829    0.6371   21.1504 H   0  0  0  0  0  0  0  0  0  0  0  0
    7.7642   -1.9443   20.7206 N   0  0  0  0  0  0  0  0  0  0  0  0
    8.2364   -2.5345   21.9756 C   0  0  0  0  0  0  0  0  0  0  0  0
    9.3086   -2.7253   21.8788 H   0  0  0  0  0  0  0  0  0  0  0  0
    7.7516   -3.5027   22.1303 H   0  0  0  0  0  0  0  0  0  0  0  0
    7.9385   -1.5342   23.1195 C   0  0  0  0  0  0  0  0  0  0  0  0
    7.1244   -1.9006   23.7605 H   0  0  0  0  0  0  0  0  0  0  0  0
    8.8141   -1.3606   23.7576 H   0  0  0  0  0  0  0  0  0  0  0  0
    7.3122    2.0885   22.1654 N   0  0  0  0  0  0  0  0  0  0  0  0
    7.5151    2.0491   21.1759 H   0  0  0  0  0  0  0  0  0  0  0  0
    6.9478    3.3346   22.8006 C   0  0  0  0  0  0  0  0  0  0  0  0
    5.9410    3.2977   23.2412 H   0  0  0  0  0  0  0  0  0  0  0  0
    6.9556    4.1344   22.0572 H   0  0  0  0  0  0  0  0  0  0  0  0
    7.6507    3.5975   23.6018 H   0  0  0  0  0  0  0  0  0  0  0  0
  1  2  1  0
  2  3  2  3
  3  4  1  0
  4  5  1  0
  5  6  2  0
  6  7  1  0
  6  8  1  0
  8  9  2  0
  9 10  1  0
  9 11  1  0
 11 12  1  0
 11 13  2  0
 13 14  1  0
  4 15  2  0
 15 16  1  0
 16 17  1  0
 16 18  1  0
 16 19  1  0
 19 20  1  0
 19 21  1  0
  2 22  1  0
 22 23  1  0
 22 24  1  0
 24 25  1  0
 24 26  1  0
 24 27  1  0
 19  3  1  0
 13  5  1  0
M  END
>  <cnnaffinity>  (1) 
-4.20708

>  <filename>  (1) 
CNC=C1CCN=C1c1cccnc1

$$$$
