
     RDKit          3D

 28 29  0  0  0  0  0  0  0  0999 V2000
    4.9931    1.7810   17.0305 H   0  0  0  0  0  0  0  0  0  0  0  0
    5.4521    1.2685   17.8713 C   0  0  0  0  0  0  0  0  0  0  0  0
    6.6186    0.6429   17.6301 N   0  0  0  0  0  0  0  0  0  0  0  0
    7.2138    0.0104   18.6522 C   0  0  0  0  0  0  0  0  0  0  0  0
    8.1662   -0.4783   18.4381 H   0  0  0  0  0  0  0  0  0  0  0  0
    6.6786   -0.0521   19.9708 C   0  0  0  0  0  0  0  0  0  0  0  0
    7.3107   -0.6913   21.0070 N   0  0  0  0  0  0  0  0  0  0  0  0
    6.8540   -1.0753   22.3318 C   0  0  0  0  0  0  0  0  0  0  0  0
    6.7047   -0.2085   22.9942 H   0  0  0  0  0  0  0  0  0  0  0  0
    5.9665   -1.7257   22.3406 H   0  0  0  0  0  0  0  0  0  0  0  0
    8.1978   -1.8139   22.5028 C   0  0  0  0  0  0  0  0  0  0  0  0
    8.1047   -2.8986   22.5703 H   0  0  0  0  0  0  0  0  0  0  0  0
    8.8250   -1.4350   23.3132 H   0  0  0  0  0  0  0  0  0  0  0  0
    8.6265   -1.3083   21.1075 C   0  0  2  0  0  0  0  0  0  0  0  0
    8.7607   -2.0851   20.3379 H   0  0  0  0  0  0  0  0  0  0  0  0
    9.8537   -0.3610   21.0491 C   0  0  0  0  0  0  0  0  0  0  0  0
    9.8012    0.3599   21.8796 H   0  0  0  0  0  0  0  0  0  0  0  0
    9.7448    0.2473   20.1443 H   0  0  0  0  0  0  0  0  0  0  0  0
   11.1888   -0.9719   21.0422 N   0  0  0  0  0  0  0  0  0  0  0  0
   11.2791   -1.5707   20.2272 H   0  0  0  0  0  0  0  0  0  0  0  0
   11.5956   -1.7496   22.2026 C   0  0  0  0  0  0  0  0  0  0  0  0
   11.6339   -1.0881   23.0752 H   0  0  0  0  0  0  0  0  0  0  0  0
   10.9766   -2.6343   22.4526 H   0  0  0  0  0  0  0  0  0  0  0  0
   12.6200   -2.0926   22.0232 H   0  0  0  0  0  0  0  0  0  0  0  0
    5.4499    0.5997   20.1898 C   0  0  0  0  0  0  0  0  0  0  0  0
    5.0167    0.5888   21.1898 H   0  0  0  0  0  0  0  0  0  0  0  0
    4.8376    1.2694   19.1319 C   0  0  0  0  0  0  0  0  0  0  0  0
    3.9020    1.8027   19.2767 H   0  0  0  0  0  0  0  0  0  0  0  0
  1  2  1  0
  2  3  2  0
  3  4  1  0
  4  5  1  0
  4  6  2  0
  6  7  1  0
  7  8  1  0
  8  9  1  0
  8 10  1  0
  8 11  1  0
 11 12  1  0
 11 13  1  0
 11 14  1  0
 14 15  1  6
 14 16  1  0
 16 17  1  0
 16 18  1  0
 16 19  1  0
 19 20  1  0
 19 21  1  0
 21 22  1  0
 21 23  1  0
 21 24  1  0
  6 25  1  0
 25 26  1  0
 25 27  2  0
 27 28  1  0
 27  2  1  0
 14  7  1  0
M  END
>  <cnnaffinity>  (1) 
-3.76726

>  <filename>  (1) 
CNC[C@H]1CCN1c1cccnc1

$$$$
