
     RDKit          3D

 28 29  0  0  0  0  0  0  0  0999 V2000
    4.9391    1.7982   17.0078 H   0  0  0  0  0  0  0  0  0  0  0  0
    5.4159    1.2907   17.8422 C   0  0  0  0  0  0  0  0  0  0  0  0
    6.5823    0.6801   17.5679 N   0  0  0  0  0  0  0  0  0  0  0  0
    7.2012    0.0649   18.5813 C   0  0  0  0  0  0  0  0  0  0  0  0
    8.1450   -0.4291   18.3551 H   0  0  0  0  0  0  0  0  0  0  0  0
    6.6903   -0.0178   19.8947 C   0  0  0  0  0  0  0  0  0  0  0  0
    7.3907   -0.7238   20.9039 N   0  0  0  0  0  0  0  0  0  0  0  0
    6.8202   -1.6170   21.8038 C   0  0  0  0  0  0  0  0  0  0  0  0
    5.7594   -2.1852   21.7564 O   0  0  0  0  0  0  0  0  0  0  0  0
    7.7708   -1.8354   22.7764 N   0  0  0  0  0  0  0  0  0  0  0  0
    7.6180   -2.5796   23.4300 H   0  0  0  0  0  0  0  0  0  0  0  0
    9.0290   -1.5145   22.3443 C   0  0  0  0  0  0  0  0  0  0  0  0
   10.0309   -1.9211   22.8676 O   0  0  0  0  0  0  0  0  0  0  0  0
    8.8401   -0.6446   21.1115 C   0  0  2  0  0  0  0  0  0  0  0  0
    9.4074   -1.1135   20.2956 H   0  0  0  0  0  0  0  0  0  0  0  0
    9.3416    0.7745   21.3315 C   0  0  0  0  0  0  0  0  0  0  0  0
    8.9952    1.4177   20.4997 H   0  0  0  0  0  0  0  0  0  0  0  0
    8.8687    1.1723   22.2405 H   0  0  0  0  0  0  0  0  0  0  0  0
   10.7727    0.7509   21.5288 N   0  0  0  0  0  0  0  0  0  0  0  0
   11.2542    0.3112   20.7508 H   0  0  0  0  0  0  0  0  0  0  0  0
   11.3252    2.0575   21.8505 C   0  0  0  0  0  0  0  0  0  0  0  0
   11.0965    2.8438   21.1084 H   0  0  0  0  0  0  0  0  0  0  0  0
   10.9025    2.3779   22.8120 H   0  0  0  0  0  0  0  0  0  0  0  0
   12.4132    2.0027   21.9737 H   0  0  0  0  0  0  0  0  0  0  0  0
    5.4627    0.6186   20.1632 C   0  0  0  0  0  0  0  0  0  0  0  0
    5.0278    0.5739   21.1637 H   0  0  0  0  0  0  0  0  0  0  0  0
    4.8230    1.2918   19.1131 C   0  0  0  0  0  0  0  0  0  0  0  0
    3.8840    1.8249   19.2675 H   0  0  0  0  0  0  0  0  0  0  0  0
  1  2  1  0
  2  3  2  0
  3  4  1  0
  4  5  1  0
  4  6  2  0
  6  7  1  0
  7  8  1  0
  8  9  2  0
  8 10  1  0
 10 11  1  0
 10 12  1  0
 12 13  2  0
 12 14  1  0
 14 15  1  6
 14 16  1  0
 16 17  1  0
 16 18  1  0
 16 19  1  0
 19 20  1  0
 19 21  1  0
 21 22  1  0
 21 23  1  0
 21 24  1  0
  6 25  1  0
 25 26  1  0
 25 27  2  0
 27 28  1  0
 27  2  1  0
 14  7  1  0
M  END
>  <cnnaffinity>  (1) 
-4.24134

>  <filename>  (1) 
CNC[C@H]1C(=O)NC(=O)N1c1cccnc1

$$$$
