
     RDKit          3D

 31 33  0  0  0  0  0  0  0  0999 V2000
    4.9616    1.8235   16.9722 H   0  0  0  0  0  0  0  0  0  0  0  0
    5.4051    1.2955   17.8140 C   0  0  0  0  0  0  0  0  0  0  0  0
    6.5524    0.6441   17.5707 N   0  0  0  0  0  0  0  0  0  0  0  0
    7.1295    0.0032   18.5907 C   0  0  0  0  0  0  0  0  0  0  0  0
    8.0617   -0.5143   18.3752 H   0  0  0  0  0  0  0  0  0  0  0  0
    6.6217    0.0043   19.8997 C   0  0  0  0  0  0  0  0  0  0  0  0
    7.3902   -0.6581   20.9475 C   0  0  0  0  0  0  0  0  0  0  0  0
    7.9506   -1.9080   20.7782 N   0  0  0  0  0  0  0  0  0  0  0  0
    8.4732   -2.1758   21.9436 C   0  0  0  0  0  0  0  0  0  0  0  0
    8.4025   -1.1378   22.8146 N   0  0  0  0  0  0  0  0  0  0  0  0
    7.6472   -0.1630   22.2070 C   0  0  0  0  0  0  0  0  0  0  0  0
    7.3255    1.1166   22.8828 C   0  0  0  0  0  0  0  0  0  0  0  0
    8.2585    1.5191   23.3085 H   0  0  0  0  0  0  0  0  0  0  0  0
    7.0120    1.8507   22.1194 H   0  0  0  0  0  0  0  0  0  0  0  0
    6.3854    0.9386   23.9834 N   0  0  0  0  0  0  0  0  0  0  0  0
    5.5447    0.4679   23.6527 H   0  0  0  0  0  0  0  0  0  0  0  0
    6.0894    2.1746   24.6862 C   0  0  0  0  0  0  0  0  0  0  0  0
    5.3787    1.9869   25.4963 H   0  0  0  0  0  0  0  0  0  0  0  0
    5.6915    3.0007   24.0631 H   0  0  0  0  0  0  0  0  0  0  0  0
    7.0180    2.5283   25.1515 H   0  0  0  0  0  0  0  0  0  0  0  0
    8.9755   -1.3002   24.1347 C   0  0  0  0  0  0  0  0  0  0  0  0
    8.1792   -1.4164   24.8782 H   0  0  0  0  0  0  0  0  0  0  0  0
    9.5726   -0.4265   24.4112 H   0  0  0  0  0  0  0  0  0  0  0  0
    9.8785   -2.5418   24.0029 C   0  0  0  0  0  0  0  0  0  0  0  0
   10.8635   -2.2653   23.6196 H   0  0  0  0  0  0  0  0  0  0  0  0
    9.9909   -3.0925   24.9386 H   0  0  0  0  0  0  0  0  0  0  0  0
    9.1231   -3.6115   22.7277 S   0  0  0  0  0  0  0  0  0  0  0  0
    5.4043    0.6697   20.1322 C   0  0  0  0  0  0  0  0  0  0  0  0
    4.9471    0.6731   21.1247 H   0  0  0  0  0  0  0  0  0  0  0  0
    4.7838    1.3168   19.0664 C   0  0  0  0  0  0  0  0  0  0  0  0
    3.8561    1.8575   19.1975 H   0  0  0  0  0  0  0  0  0  0  0  0
  1  2  1  0
  2  3  2  0
  3  4  1  0
  4  5  1  0
  4  6  2  0
  6  7  1  0
  7  8  1  0
  8  9  2  0
  9 10  1  0
 10 11  1  0
 11 12  1  0
 12 13  1  0
 12 14  1  0
 12 15  1  0
 15 16  1  0
 15 17  1  0
 17 18  1  0
 17 19  1  0
 17 20  1  0
 10 21  1  0
 21 22  1  0
 21 23  1  0
 21 24  1  0
 24 25  1  0
 24 26  1  0
 24 27  1  0
  6 28  1  0
 28 29  1  0
 28 30  2  0
 30 31  1  0
 30  2  1  0
 11  7  2  0
 27  9  1  0
M  END
>  <cnnaffinity>  (1) 
-4.94358

>  <filename>  (1) 
CNCc1c(-c2cccnc2)nc2n1CCS2

$$$$
