
     RDKit          3D

 29 31  0  0  0  0  0  0  0  0999 V2000
    4.9931    1.8340   16.9556 H   0  0  0  0  0  0  0  0  0  0  0  0
    5.4140    1.3035   17.8111 C   0  0  0  0  0  0  0  0  0  0  0  0
    6.5569    0.6394   17.5863 N   0  0  0  0  0  0  0  0  0  0  0  0
    7.0988   -0.0077   18.6243 C   0  0  0  0  0  0  0  0  0  0  0  0
    8.0309   -0.5288   18.4154 H   0  0  0  0  0  0  0  0  0  0  0  0
    6.5470   -0.0510   19.9159 C   0  0  0  0  0  0  0  0  0  0  0  0
    7.2453   -0.7730   20.9804 C   0  0  0  0  0  0  0  0  0  0  0  0
    6.5907   -1.6431   21.8270 N   0  0  0  0  0  0  0  0  0  0  0  0
    7.5392   -2.1002   22.6075 C   0  0  0  0  0  0  0  0  0  0  0  0
    7.7029   -3.2160   23.9555 S   0  0  0  0  0  0  0  0  0  0  0  0
    9.4334   -2.8708   24.0496 C   0  0  0  0  0  0  0  0  0  0  0  0
   10.0525   -3.3511   24.7971 H   0  0  0  0  0  0  0  0  0  0  0  0
    9.8200   -1.9805   23.1218 C   0  0  0  0  0  0  0  0  0  0  0  0
   10.7954   -1.5493   22.9325 H   0  0  0  0  0  0  0  0  0  0  0  0
    8.7655   -1.5648   22.3239 N   0  0  0  0  0  0  0  0  0  0  0  0
    8.5862   -0.6676   21.2958 C   0  0  0  0  0  0  0  0  0  0  0  0
    9.7037    0.1853   20.8297 C   0  0  0  0  0  0  0  0  0  0  0  0
   10.5100   -0.4817   20.4819 H   0  0  0  0  0  0  0  0  0  0  0  0
    9.3775    0.7519   19.9527 H   0  0  0  0  0  0  0  0  0  0  0  0
   10.2437    1.0380   21.8825 N   0  0  0  0  0  0  0  0  0  0  0  0
    9.4913    1.5857   22.2921 H   0  0  0  0  0  0  0  0  0  0  0  0
   11.3105    1.9125   21.4330 C   0  0  0  0  0  0  0  0  0  0  0  0
   10.9890    2.7002   20.7307 H   0  0  0  0  0  0  0  0  0  0  0  0
   12.0791    1.3116   20.9339 H   0  0  0  0  0  0  0  0  0  0  0  0
   11.7821    2.3830   22.3002 H   0  0  0  0  0  0  0  0  0  0  0  0
    5.3398    0.6333   20.1301 C   0  0  0  0  0  0  0  0  0  0  0  0
    4.8715    0.6428   21.1167 H   0  0  0  0  0  0  0  0  0  0  0  0
    4.7753    1.3238   19.0564 C   0  0  0  0  0  0  0  0  0  0  0  0
    3.8569    1.8895   19.1658 H   0  0  0  0  0  0  0  0  0  0  0  0
  1  2  1  0
  2  3  2  0
  3  4  1  0
  4  5  1  0
  4  6  2  0
  6  7  1  0
  7  8  1  0
  8  9  2  0
  9 10  1  0
 10 11  1  0
 11 12  1  0
 11 13  2  0
 13 14  1  0
 13 15  1  0
 15 16  1  0
 16 17  1  0
 17 18  1  0
 17 19  1  0
 17 20  1  0
 20 21  1  0
 20 22  1  0
 22 23  1  0
 22 24  1  0
 22 25  1  0
  6 26  1  0
 26 27  1  0
 26 28  2  0
 28 29  1  0
 28  2  1  0
 16  7  2  0
 15  9  1  0
M  END
>  <cnnaffinity>  (1) 
-5.11977

>  <filename>  (1) 
CNCc1c(-c2cccnc2)nc2sccn12

$$$$
