
     RDKit          3D

 41 43  0  0  0  0  0  0  0  0999 V2000
    2.1360   -3.8505   25.1551 C   0  0  0  0  0  0  0  0  0  0  0  0
    2.9672   -4.0674   24.0344 O   0  0  0  0  0  0  0  0  0  0  0  0
    4.3639   -3.9652   24.2665 C   0  0  1  0  0  0  0  0  0  0  0  0
    4.9392   -5.2574   24.9204 C   0  0  0  0  0  0  0  0  0  0  0  0
    6.3656   -5.5905   24.4291 C   0  0  0  0  0  0  0  0  0  0  0  0
    7.1902   -4.3437   24.1393 C   0  0  0  0  0  0  0  0  0  0  0  0
    6.5040   -3.5067   23.1369 N   0  0  0  0  0  0  0  0  0  0  0  0
    7.1798   -2.4828   22.5611 C   0  0  0  0  0  0  0  0  0  0  0  0
    8.4357   -2.2897   22.9724 N   0  0  0  0  0  0  0  0  0  0  0  0
    9.0827   -1.2888   22.4093 C   0  0  0  0  0  0  0  0  0  0  0  0
    8.5609   -0.4773   21.4076 C   0  0  0  0  0  0  0  0  0  0  0  0
    9.3527    0.6370   20.7854 C   0  0  0  0  0  0  0  0  0  0  0  0
    8.7377    1.5324   20.6709 H   0  0  0  0  0  0  0  0  0  0  0  0
    9.6591    0.3358   19.7841 H   0  0  0  0  0  0  0  0  0  0  0  0
   10.2471    0.8759   21.3630 H   0  0  0  0  0  0  0  0  0  0  0  0
    7.2445   -0.8132   21.0366 C   0  0  0  0  0  0  0  0  0  0  0  0
    6.5519   -0.0785   19.9696 C   0  0  0  0  0  0  0  0  0  0  0  0
    5.3443    0.5947   20.1799 C   0  0  0  0  0  0  0  0  0  0  0  0
    4.7890    1.2939   19.1116 C   0  0  0  0  0  0  0  0  0  0  0  0
    5.4409    1.2671   17.8745 C   0  0  0  0  0  0  0  0  0  0  0  0
    6.5839    0.6006   17.6554 N   0  0  0  0  0  0  0  0  0  0  0  0
    7.1206   -0.0494   18.6945 C   0  0  0  0  0  0  0  0  0  0  0  0
    8.0683   -0.5562   18.4958 H   0  0  0  0  0  0  0  0  0  0  0  0
    5.0265    1.8029   17.0241 H   0  0  0  0  0  0  0  0  0  0  0  0
    3.8798    1.8679   19.2312 H   0  0  0  0  0  0  0  0  0  0  0  0
    4.8752    0.5822   21.1652 H   0  0  0  0  0  0  0  0  0  0  0  0
    6.5455   -1.7769   21.6198 N   0  0  0  0  0  0  0  0  0  0  0  0
   10.1006   -1.1241   22.7803 H   0  0  0  0  0  0  0  0  0  0  0  0
    5.0629   -3.7133   22.9244 C   0  0  0  0  0  0  0  0  0  0  0  0
    4.6279   -2.8678   22.3982 H   0  0  0  0  0  0  0  0  0  0  0  0
    4.8907   -4.5904   22.2839 H   0  0  0  0  0  0  0  0  0  0  0  0
    8.1706   -4.6235   23.7433 H   0  0  0  0  0  0  0  0  0  0  0  0
    7.3718   -3.7659   25.0592 H   0  0  0  0  0  0  0  0  0  0  0  0
    6.3120   -6.1655   23.4975 H   0  0  0  0  0  0  0  0  0  0  0  0
    6.8983   -6.2176   25.1461 H   0  0  0  0  0  0  0  0  0  0  0  0
    4.2711   -6.0885   24.6654 H   0  0  0  0  0  0  0  0  0  0  0  0
    4.9332   -5.1378   26.0104 H   0  0  0  0  0  0  0  0  0  0  0  0
    4.5779   -3.0881   24.9001 H   0  0  0  0  0  0  0  0  0  0  0  0
    1.1148   -4.0868   24.8400 H   0  0  0  0  0  0  0  0  0  0  0  0
    2.1535   -2.8019   25.4932 H   0  0  0  0  0  0  0  0  0  0  0  0
    2.3881   -4.4985   26.0090 H   0  0  0  0  0  0  0  0  0  0  0  0
  1  2  1  0
  2  3  1  0
  3  4  1  0
  4  5  1  0
  5  6  1  0
  6  7  1  0
  7  8  1  0
  8  9  2  0
  9 10  1  0
 10 11  2  0
 11 12  1  0
 12 13  1  0
 12 14  1  0
 12 15  1  0
 11 16  1  0
 16 17  1  0
 17 18  2  0
 18 19  1  0
 19 20  2  0
 20 21  1  0
 21 22  2  0
 22 23  1  0
 20 24  1  0
 19 25  1  0
 18 26  1  0
 16 27  2  0
 10 28  1  0
  7 29  1  0
 29 30  1  0
 29 31  1  0
  6 32  1  0
  6 33  1  0
  5 34  1  0
  5 35  1  0
  4 36  1  0
  4 37  1  0
  3 38  1  1
  1 39  1  0
  1 40  1  0
  1 41  1  0
 29  3  1  0
 27  8  1  0
 22 17  1  0
M  END
>  <cnnaffinity>  (1) 
-5.10231

>  <filename>  (1) 
CO[C@H]1CCCN(c2ncc(C)c(-c3cccnc3)n2)C1

$$$$
