
     RDKit          3D

 35 37  0  0  0  0  0  0  0  0999 V2000
    4.9299    1.7922   16.9959 H   0  0  0  0  0  0  0  0  0  0  0  0
    5.3976    1.2906   17.8385 C   0  0  0  0  0  0  0  0  0  0  0  0
    6.5536    0.6628   17.5754 N   0  0  0  0  0  0  0  0  0  0  0  0
    7.1715    0.0442   18.5871 C   0  0  0  0  0  0  0  0  0  0  0  0
    8.1253   -0.4305   18.3603 H   0  0  0  0  0  0  0  0  0  0  0  0
    6.6525   -0.0022   19.8974 C   0  0  0  0  0  0  0  0  0  0  0  0
    7.3353   -0.6889   20.9467 N   0  0  0  0  0  0  0  0  0  0  0  0
    6.7388   -1.6036   21.8029 C   0  0  0  0  0  0  0  0  0  0  0  0
    5.6923   -1.8409   21.7056 H   0  0  0  0  0  0  0  0  0  0  0  0
    7.6778   -2.0661   22.6657 C   0  0  0  0  0  0  0  0  0  0  0  0
    7.5546   -3.0145   23.7837 C   0  0  0  0  0  0  0  0  0  0  0  0
    6.2752   -3.2754   24.3095 C   0  0  0  0  0  0  0  0  0  0  0  0
    5.4284   -2.7405   23.8935 H   0  0  0  0  0  0  0  0  0  0  0  0
    6.0816   -4.1840   25.3445 C   0  0  0  0  0  0  0  0  0  0  0  0
    5.0747   -4.3616   25.7194 H   0  0  0  0  0  0  0  0  0  0  0  0
    7.1863   -4.8654   25.8979 C   0  0  0  0  0  0  0  0  0  0  0  0
    7.0581   -5.8524   27.0276 C   0  0  0  0  0  0  0  0  0  0  0  0
    7.9909   -6.4264   27.5433 O   0  0  0  0  0  0  0  0  0  0  0  0
    5.7778   -6.0271   27.4210 O   0  0  0  0  0  0  0  0  0  0  0  0
    5.5446   -6.9520   28.4897 C   0  0  0  0  0  0  0  0  0  0  0  0
    5.8695   -7.9621   28.2187 H   0  0  0  0  0  0  0  0  0  0  0  0
    4.4677   -6.9222   28.6443 H   0  0  0  0  0  0  0  0  0  0  0  0
    6.0741   -6.6507   29.3998 H   0  0  0  0  0  0  0  0  0  0  0  0
    8.4751   -4.6047   25.3811 C   0  0  0  0  0  0  0  0  0  0  0  0
    9.3383   -5.1197   25.8045 H   0  0  0  0  0  0  0  0  0  0  0  0
    8.6534   -3.6952   24.3411 C   0  0  0  0  0  0  0  0  0  0  0  0
    9.6511   -3.5209   23.9474 H   0  0  0  0  0  0  0  0  0  0  0  0
    8.8513   -1.4169   22.3011 N   0  0  0  0  0  0  0  0  0  0  0  0
    9.7557   -1.4139   22.7434 H   0  0  0  0  0  0  0  0  0  0  0  0
    8.6579   -0.5266   21.2997 C   0  0  0  0  0  0  0  0  0  0  0  0
    9.8142    0.5241   20.7526 S   0  0  0  0  0  0  0  0  0  0  0  0
    5.4425    0.6444   20.1604 C   0  0  0  0  0  0  0  0  0  0  0  0
    5.0342    0.6307   21.1726 H   0  0  0  0  0  0  0  0  0  0  0  0
    4.8099    1.3094   19.1075 C   0  0  0  0  0  0  0  0  0  0  0  0
    3.8802    1.8413   19.2585 H   0  0  0  0  0  0  0  0  0  0  0  0
  1  2  1  0
  2  3  2  0
  3  4  1  0
  4  5  1  0
  4  6  2  0
  6  7  1  0
  7  8  1  0
  8  9  1  0
  8 10  2  0
 10 11  1  0
 11 12  2  0
 12 13  1  0
 12 14  1  0
 14 15  1  0
 14 16  2  0
 16 17  1  0
 17 18  2  0
 17 19  1  0
 19 20  1  0
 20 21  1  0
 20 22  1  0
 20 23  1  0
 16 24  1  0
 24 25  1  0
 24 26  2  0
 26 27  1  0
 10 28  1  0
 28 29  1  0
 28 30  1  0
 30 31  2  0
  6 32  1  0
 32 33  1  0
 32 34  2  0
 34 35  1  0
 34  2  1  0
 30  7  1  0
 26 11  1  0
M  END
>  <cnnaffinity>  (1) 
-5.4713

>  <filename>  (1) 
COC(=O)c1ccc(-c2cn(-c3cccnc3)c(=S)[nH]2)cc1

$$$$
