
     RDKit          3D

 36 38  0  0  0  0  0  0  0  0999 V2000
    4.9345    1.7979   16.9875 H   0  0  0  0  0  0  0  0  0  0  0  0
    5.3909    1.2966   17.8392 C   0  0  0  0  0  0  0  0  0  0  0  0
    6.5458    0.6653   17.5840 N   0  0  0  0  0  0  0  0  0  0  0  0
    7.1353    0.0327   18.6007 C   0  0  0  0  0  0  0  0  0  0  0  0
    8.1094   -0.4129   18.3973 H   0  0  0  0  0  0  0  0  0  0  0  0
    6.5986   -0.0337   19.8997 C   0  0  0  0  0  0  0  0  0  0  0  0
    7.3203   -0.7502   20.9888 C   0  0  0  0  0  0  0  0  0  0  0  0
    6.5779   -1.5150   21.7552 N   0  0  0  0  0  0  0  0  0  0  0  0
    7.1562   -2.1898   22.8033 N   0  0  0  0  0  0  0  0  0  0  0  0
    6.2885   -2.9960   23.6319 C   0  0  0  0  0  0  0  0  0  0  0  0
    5.2068   -3.6784   23.0552 C   0  0  0  0  0  0  0  0  0  0  0  0
    5.0490   -3.5490   21.9914 H   0  0  0  0  0  0  0  0  0  0  0  0
    4.3682   -4.4710   23.8434 C   0  0  0  0  0  0  0  0  0  0  0  0
    3.5263   -4.9943   23.3923 H   0  0  0  0  0  0  0  0  0  0  0  0
    4.5804   -4.5986   25.2346 C   0  0  0  0  0  0  0  0  0  0  0  0
    3.6328   -5.4624   26.0385 C   0  0  0  0  0  0  0  0  0  0  0  0
    2.6887   -6.0605   25.5688 O   0  0  0  0  0  0  0  0  0  0  0  0
    3.9393   -5.5070   27.3543 O   0  0  0  0  0  0  0  0  0  0  0  0
    3.1047   -6.3049   28.2106 C   0  0  0  0  0  0  0  0  0  0  0  0
    3.5401   -6.1904   29.2046 H   0  0  0  0  0  0  0  0  0  0  0  0
    2.0682   -5.9477   28.2006 H   0  0  0  0  0  0  0  0  0  0  0  0
    3.1105   -7.3582   27.9059 H   0  0  0  0  0  0  0  0  0  0  0  0
    5.6637   -3.9040   25.8101 C   0  0  0  0  0  0  0  0  0  0  0  0
    5.8587   -3.9805   26.8784 H   0  0  0  0  0  0  0  0  0  0  0  0
    6.5049   -3.1185   25.0183 C   0  0  0  0  0  0  0  0  0  0  0  0
    7.3259   -2.5667   25.4633 H   0  0  0  0  0  0  0  0  0  0  0  0
    8.5153   -2.1239   23.0255 C   0  0  0  0  0  0  0  0  0  0  0  0
    8.8764   -2.7433   23.8406 H   0  0  0  0  0  0  0  0  0  0  0  0
    9.3429   -1.3670   22.2811 C   0  0  0  0  0  0  0  0  0  0  0  0
   10.4061   -1.2968   22.4552 H   0  0  0  0  0  0  0  0  0  0  0  0
    8.8070   -0.5688   21.1879 C   0  0  0  0  0  0  0  0  0  0  0  0
    9.5129    0.1655   20.5082 O   0  0  0  0  0  0  0  0  0  0  0  0
    5.3940    0.6307   20.1532 C   0  0  0  0  0  0  0  0  0  0  0  0
    4.9838    0.6185   21.1638 H   0  0  0  0  0  0  0  0  0  0  0  0
    4.7872    1.3191   19.1016 C   0  0  0  0  0  0  0  0  0  0  0  0
    3.8633    1.8668   19.2358 H   0  0  0  0  0  0  0  0  0  0  0  0
  1  2  1  0
  2  3  2  0
  3  4  1  0
  4  5  1  0
  4  6  2  0
  6  7  1  0
  7  8  2  0
  8  9  1  0
  9 10  1  0
 10 11  2  0
 11 12  1  0
 11 13  1  0
 13 14  1  0
 13 15  2  0
 15 16  1  0
 16 17  2  0
 16 18  1  0
 18 19  1  0
 19 20  1  0
 19 21  1  0
 19 22  1  0
 15 23  1  0
 23 24  1  0
 23 25  2  0
 25 26  1  0
  9 27  1  0
 27 28  1  0
 27 29  2  0
 29 30  1  0
 29 31  1  0
 31 32  2  0
  6 33  1  0
 33 34  1  0
 33 35  2  0
 35 36  1  0
 35  2  1  0
 31  7  1  0
 25 10  1  0
M  END
>  <cnnaffinity>  (1) 
-5.28406

>  <filename>  (1) 
COC(=O)c1ccc(-n2ccc(=O)c(-c3cccnc3)n2)cc1

$$$$
