
     RDKit          3D

 36 39  0  0  0  0  0  0  0  0999 V2000
    4.9281    1.7727   17.0027 H   0  0  0  0  0  0  0  0  0  0  0  0
    5.4102    1.2853   17.8467 C   0  0  0  0  0  0  0  0  0  0  0  0
    6.5746    0.6665   17.5951 N   0  0  0  0  0  0  0  0  0  0  0  0
    7.1798    0.0532   18.6163 C   0  0  0  0  0  0  0  0  0  0  0  0
    8.1254   -0.4321   18.3852 H   0  0  0  0  0  0  0  0  0  0  0  0
    6.6450    0.0165   19.9122 C   0  0  0  0  0  0  0  0  0  0  0  0
    7.3636   -0.6887   20.9674 C   0  0  0  0  0  0  0  0  0  0  0  0
    8.5477   -1.3264   20.7551 N   0  0  0  0  0  0  0  0  0  0  0  0
    8.8027   -1.8177   21.9484 C   0  0  0  0  0  0  0  0  0  0  0  0
    9.9977   -2.8166   22.7276 S   0  0  0  0  0  0  0  0  0  0  0  0
    9.0777   -2.7648   24.2015 C   0  0  0  0  0  0  0  0  0  0  0  0
    9.4604   -3.2859   25.0702 H   0  0  0  0  0  0  0  0  0  0  0  0
    7.9554   -2.0179   24.1197 C   0  0  0  0  0  0  0  0  0  0  0  0
    6.9672   -1.7638   25.1965 C   0  0  0  0  0  0  0  0  0  0  0  0
    6.7597   -2.7544   26.1828 C   0  0  0  0  0  0  0  0  0  0  0  0
    7.3078   -3.6933   26.1282 H   0  0  0  0  0  0  0  0  0  0  0  0
    5.8505   -2.5654   27.2201 C   0  0  0  0  0  0  0  0  0  0  0  0
    5.7129   -3.3474   27.9624 H   0  0  0  0  0  0  0  0  0  0  0  0
    5.1143   -1.3682   27.3154 C   0  0  0  0  0  0  0  0  0  0  0  0
    4.1113   -1.1053   28.4179 C   0  0  0  0  0  0  0  0  0  0  0  0
    3.4637   -0.0837   28.5120 O   0  0  0  0  0  0  0  0  0  0  0  0
    3.9930   -2.1257   29.3015 O   0  0  0  0  0  0  0  0  0  0  0  0
    3.0658   -1.9659   30.3888 C   0  0  0  0  0  0  0  0  0  0  0  0
    2.0393   -1.8355   30.0361 H   0  0  0  0  0  0  0  0  0  0  0  0
    3.3231   -1.1178   31.0290 H   0  0  0  0  0  0  0  0  0  0  0  0
    3.1237   -2.8805   30.9755 H   0  0  0  0  0  0  0  0  0  0  0  0
    5.3304   -0.3746   26.3322 C   0  0  0  0  0  0  0  0  0  0  0  0
    4.7780    0.5588   26.3711 H   0  0  0  0  0  0  0  0  0  0  0  0
    6.2389   -0.5613   25.2945 C   0  0  0  0  0  0  0  0  0  0  0  0
    6.3916    0.2059   24.5371 H   0  0  0  0  0  0  0  0  0  0  0  0
    7.8366   -1.4837   22.8310 N   0  0  0  0  0  0  0  0  0  0  0  0
    6.8856   -0.7518   22.2063 N   0  0  0  0  0  0  0  0  0  0  0  0
    5.4246    0.6591   20.1690 C   0  0  0  0  0  0  0  0  0  0  0  0
    4.9978    0.6351   21.1775 H   0  0  0  0  0  0  0  0  0  0  0  0
    4.8044    1.3098   19.1090 C   0  0  0  0  0  0  0  0  0  0  0  0
    3.8740    1.8432   19.2577 H   0  0  0  0  0  0  0  0  0  0  0  0
  1  2  1  0
  2  3  2  0
  3  4  1  0
  4  5  1  0
  4  6  2  0
  6  7  1  0
  7  8  1  0
  8  9  2  0
  9 10  1  0
 10 11  1  0
 11 12  1  0
 11 13  2  0
 13 14  1  0
 14 15  2  0
 15 16  1  0
 15 17  1  0
 17 18  1  0
 17 19  2  0
 19 20  1  0
 20 21  2  0
 20 22  1  0
 22 23  1  0
 23 24  1  0
 23 25  1  0
 23 26  1  0
 19 27  1  0
 27 28  1  0
 27 29  2  0
 29 30  1  0
 13 31  1  0
 31 32  1  0
  6 33  1  0
 33 34  1  0
 33 35  2  0
 35 36  1  0
 35  2  1  0
 32  7  2  0
 31  9  1  0
 29 14  1  0
M  END
>  <cnnaffinity>  (1) 
-5.42394

>  <filename>  (1) 
COC(=O)c1ccc(-c2csc3nc(-c4cccnc4)nn23)cc1

$$$$
