
     RDKit          3D

 37 39  0  0  0  0  0  0  0  0999 V2000
    4.9175    1.8001   16.9759 H   0  0  0  0  0  0  0  0  0  0  0  0
    5.3878    1.3035   17.8218 C   0  0  0  0  0  0  0  0  0  0  0  0
    6.5507    0.6841   17.5630 N   0  0  0  0  0  0  0  0  0  0  0  0
    7.1583    0.0714   18.5859 C   0  0  0  0  0  0  0  0  0  0  0  0
    8.1046   -0.4198   18.3546 H   0  0  0  0  0  0  0  0  0  0  0  0
    6.6466    0.0102   19.8962 C   0  0  0  0  0  0  0  0  0  0  0  0
    7.3682   -0.7116   20.9752 C   0  0  0  0  0  0  0  0  0  0  0  0
    8.7812   -0.5634   21.1332 C   0  0  0  0  0  0  0  0  0  0  0  0
    9.3067    0.1056   20.4500 H   0  0  0  0  0  0  0  0  0  0  0  0
    9.4312   -1.2156   22.1325 C   0  0  0  0  0  0  0  0  0  0  0  0
   10.4960   -1.1441   22.3014 H   0  0  0  0  0  0  0  0  0  0  0  0
    8.7441   -2.0946   23.0712 C   0  0  0  0  0  0  0  0  0  0  0  0
    9.3286   -2.6952   23.9582 O   0  0  0  0  0  0  0  0  0  0  0  0
    7.3325   -2.2134   22.8685 N   0  0  0  0  0  0  0  0  0  0  0  0
    6.5608   -3.0386   23.7599 C   0  0  0  0  0  0  0  0  0  0  0  0
    5.7834   -4.0844   23.2504 C   0  0  0  0  0  0  0  0  0  0  0  0
    5.7888   -4.2557   22.1793 H   0  0  0  0  0  0  0  0  0  0  0  0
    5.0528   -4.9026   24.1134 C   0  0  0  0  0  0  0  0  0  0  0  0
    4.4540   -5.7183   23.7163 H   0  0  0  0  0  0  0  0  0  0  0  0
    5.0711   -4.6750   25.5074 C   0  0  0  0  0  0  0  0  0  0  0  0
    4.2531   -5.5827   26.3973 C   0  0  0  0  0  0  0  0  0  0  0  0
    3.5699   -6.4985   25.9924 O   0  0  0  0  0  0  0  0  0  0  0  0
    4.3474   -5.2717   27.7101 O   0  0  0  0  0  0  0  0  0  0  0  0
    3.6072   -6.0768   28.6415 C   0  0  0  0  0  0  0  0  0  0  0  0
    2.5303   -6.0265   28.4439 H   0  0  0  0  0  0  0  0  0  0  0  0
    3.9186   -7.1269   28.5987 H   0  0  0  0  0  0  0  0  0  0  0  0
    3.8356   -5.6501   29.6189 H   0  0  0  0  0  0  0  0  0  0  0  0
    5.8471   -3.6063   26.0054 C   0  0  0  0  0  0  0  0  0  0  0  0
    5.8906   -3.4112   27.0746 H   0  0  0  0  0  0  0  0  0  0  0  0
    6.5838   -2.7996   25.1387 C   0  0  0  0  0  0  0  0  0  0  0  0
    7.2092   -1.9936   25.5060 H   0  0  0  0  0  0  0  0  0  0  0  0
    6.7027   -1.5306   21.8486 C   0  0  0  0  0  0  0  0  0  0  0  0
    5.6342   -1.6904   21.7690 H   0  0  0  0  0  0  0  0  0  0  0  0
    5.4246    0.6545   20.1399 C   0  0  0  0  0  0  0  0  0  0  0  0
    5.0062    0.6489   21.1478 H   0  0  0  0  0  0  0  0  0  0  0  0
    4.7952    1.3208   19.0880 C   0  0  0  0  0  0  0  0  0  0  0  0
    3.8652    1.8526   19.2381 H   0  0  0  0  0  0  0  0  0  0  0  0
  1  2  1  0
  2  3  2  0
  3  4  1  0
  4  5  1  0
  4  6  2  0
  6  7  1  0
  7  8  1  0
  8  9  1  0
  8 10  2  0
 10 11  1  0
 10 12  1  0
 12 13  2  0
 12 14  1  0
 14 15  1  0
 15 16  2  0
 16 17  1  0
 16 18  1  0
 18 19  1  0
 18 20  2  0
 20 21  1  0
 21 22  2  0
 21 23  1  0
 23 24  1  0
 24 25  1  0
 24 26  1  0
 24 27  1  0
 20 28  1  0
 28 29  1  0
 28 30  2  0
 30 31  1  0
 14 32  1  0
 32 33  1  0
  6 34  1  0
 34 35  1  0
 34 36  2  0
 36 37  1  0
 36  2  1  0
 32  7  2  0
 30 15  1  0
M  END
>  <cnnaffinity>  (1) 
-5.10397

>  <filename>  (1) 
COC(=O)c1ccc(-n2cc(-c3cccnc3)ccc2=O)cc1

$$$$
