
     RDKit          3D

 41 44  0  0  0  0  0  0  0  0999 V2000
    4.9433    1.8134   16.9809 H   0  0  0  0  0  0  0  0  0  0  0  0
    5.4025    1.2940   17.8194 C   0  0  0  0  0  0  0  0  0  0  0  0
    6.5641    0.6708   17.5633 N   0  0  0  0  0  0  0  0  0  0  0  0
    7.1546    0.0230   18.5712 C   0  0  0  0  0  0  0  0  0  0  0  0
    8.1102   -0.4473   18.3373 H   0  0  0  0  0  0  0  0  0  0  0  0
    6.6247   -0.0324   19.8728 C   0  0  0  0  0  0  0  0  0  0  0  0
    7.3565   -0.6943   20.9501 C   0  0  0  0  0  0  0  0  0  0  0  0
    8.0759   -1.7908   20.7283 N   0  0  0  0  0  0  0  0  0  0  0  0
    8.5563   -2.0930   21.9343 N   0  0  0  0  0  0  0  0  0  0  0  0
    8.2244   -1.2594   22.9142 C   0  0  0  0  0  0  0  0  0  0  0  0
    7.4465   -0.2830   22.3204 C   0  0  0  0  0  0  0  0  0  0  0  0
    7.0899    0.9711   22.9658 C   0  0  0  0  0  0  0  0  0  0  0  0
    7.2879    2.1995   22.3172 C   0  0  0  0  0  0  0  0  0  0  0  0
    7.6862    2.1919   21.3067 H   0  0  0  0  0  0  0  0  0  0  0  0
    6.9814    3.3919   22.9574 C   0  0  0  0  0  0  0  0  0  0  0  0
    7.1358    4.3242   22.4246 H   0  0  0  0  0  0  0  0  0  0  0  0
    6.4713    3.3789   24.2742 C   0  0  0  0  0  0  0  0  0  0  0  0
    6.1056    4.6319   25.0211 C   0  0  0  0  0  0  0  0  0  0  0  0
    5.6675    4.6574   26.1527 O   0  0  0  0  0  0  0  0  0  0  0  0
    6.3205    5.7421   24.2905 O   0  0  0  0  0  0  0  0  0  0  0  0
    6.0036    7.0013   24.8912 C   0  0  0  0  0  0  0  0  0  0  0  0
    4.9422    7.0433   25.1594 H   0  0  0  0  0  0  0  0  0  0  0  0
    6.5975    7.1531   25.7992 H   0  0  0  0  0  0  0  0  0  0  0  0
    6.2532    7.7308   24.1189 H   0  0  0  0  0  0  0  0  0  0  0  0
    6.2923    2.1435   24.9262 C   0  0  0  0  0  0  0  0  0  0  0  0
    5.9066    2.1293   25.9420 H   0  0  0  0  0  0  0  0  0  0  0  0
    6.6111    0.9554   24.2798 C   0  0  0  0  0  0  0  0  0  0  0  0
    6.4776    0.0011   24.7812 H   0  0  0  0  0  0  0  0  0  0  0  0
    9.0704   -1.4997   24.1398 C   0  0  0  0  0  0  0  0  0  0  0  0
    9.6667   -0.6019   24.3373 H   0  0  0  0  0  0  0  0  0  0  0  0
    8.4714   -1.6980   25.0338 H   0  0  0  0  0  0  0  0  0  0  0  0
    9.9495   -2.7154   23.7214 C   0  0  0  0  0  0  0  0  0  0  0  0
    9.7688   -3.5886   24.3470 H   0  0  0  0  0  0  0  0  0  0  0  0
   11.0099   -2.4877   23.7782 H   0  0  0  0  0  0  0  0  0  0  0  0
    9.5783   -3.0514   22.2518 C   0  0  0  0  0  0  0  0  0  0  0  0
    9.1648   -4.0571   22.1536 H   0  0  0  0  0  0  0  0  0  0  0  0
   10.4120   -2.8883   21.5650 H   0  0  0  0  0  0  0  0  0  0  0  0
    5.4110    0.6245   20.1229 C   0  0  0  0  0  0  0  0  0  0  0  0
    4.9971    0.6468   21.1317 H   0  0  0  0  0  0  0  0  0  0  0  0
    4.7918    1.2980   19.0772 C   0  0  0  0  0  0  0  0  0  0  0  0
    3.8690    1.8433   19.2312 H   0  0  0  0  0  0  0  0  0  0  0  0
  1  2  1  0
  2  3  2  0
  3  4  1  0
  4  5  1  0
  4  6  2  0
  6  7  1  0
  7  8  2  0
  8  9  1  0
  9 10  1  0
 10 11  2  0
 11 12  1  0
 12 13  2  0
 13 14  1  0
 13 15  1  0
 15 16  1  0
 15 17  2  0
 17 18  1  0
 18 19  2  0
 18 20  1  0
 20 21  1  0
 21 22  1  0
 21 23  1  0
 21 24  1  0
 17 25  1  0
 25 26  1  0
 25 27  2  0
 27 28  1  0
 10 29  1  0
 29 30  1  0
 29 31  1  0
 29 32  1  0
 32 33  1  0
 32 34  1  0
 32 35  1  0
 35 36  1  0
 35 37  1  0
  6 38  1  0
 38 39  1  0
 38 40  2  0
 40 41  1  0
 40  2  1  0
 11  7  1  0
 27 12  1  0
 35  9  1  0
M  END
>  <cnnaffinity>  (1) 
-5.41206

>  <filename>  (1) 
COC(=O)c1ccc(-c2c(-c3cccnc3)nn3c2CCC3)cc1

$$$$
