
     RDKit          3D

 35 37  0  0  0  0  0  0  0  0999 V2000
    4.9337    1.8044   16.9689 H   0  0  0  0  0  0  0  0  0  0  0  0
    5.4035    1.3039   17.8130 C   0  0  0  0  0  0  0  0  0  0  0  0
    6.5650    0.6810   17.5619 N   0  0  0  0  0  0  0  0  0  0  0  0
    7.1740    0.0652   18.5827 C   0  0  0  0  0  0  0  0  0  0  0  0
    8.1086   -0.4273   18.3247 H   0  0  0  0  0  0  0  0  0  0  0  0
    6.6659    0.0145   19.8954 C   0  0  0  0  0  0  0  0  0  0  0  0
    7.3431   -0.7050   20.9822 C   0  0  0  0  0  0  0  0  0  0  0  0
    6.8213   -1.2409   22.1088 C   0  0  0  0  0  0  0  0  0  0  0  0
    5.8019   -1.3487   22.4058 H   0  0  0  0  0  0  0  0  0  0  0  0
    7.8370   -1.8115   22.8732 N   0  0  0  0  0  0  0  0  0  0  0  0
    7.6703   -2.4651   24.1284 C   0  0  0  0  0  0  0  0  0  0  0  0
    6.7053   -2.0090   25.0428 C   0  0  0  0  0  0  0  0  0  0  0  0
    6.1074   -1.1397   24.7828 H   0  0  0  0  0  0  0  0  0  0  0  0
    6.5070   -2.6620   26.2617 C   0  0  0  0  0  0  0  0  0  0  0  0
    5.7667   -2.2734   26.9614 H   0  0  0  0  0  0  0  0  0  0  0  0
    7.2715   -3.8033   26.5870 C   0  0  0  0  0  0  0  0  0  0  0  0
    7.1297   -4.5659   27.8776 C   0  0  0  0  0  0  0  0  0  0  0  0
    7.9122   -5.4152   28.2479 O   0  0  0  0  0  0  0  0  0  0  0  0
    6.0337   -4.2172   28.5908 O   0  0  0  0  0  0  0  0  0  0  0  0
    5.9555   -4.6674   29.9513 C   0  0  0  0  0  0  0  0  0  0  0  0
    5.6839   -5.7254   30.0098 H   0  0  0  0  0  0  0  0  0  0  0  0
    5.1845   -4.0514   30.4148 H   0  0  0  0  0  0  0  0  0  0  0  0
    6.9059   -4.5281   30.4725 H   0  0  0  0  0  0  0  0  0  0  0  0
    8.2520   -4.2418   25.6710 C   0  0  0  0  0  0  0  0  0  0  0  0
    8.8833   -5.0913   25.9339 H   0  0  0  0  0  0  0  0  0  0  0  0
    8.4471   -3.5843   24.4564 C   0  0  0  0  0  0  0  0  0  0  0  0
    9.1974   -3.9083   23.7454 H   0  0  0  0  0  0  0  0  0  0  0  0
    9.0477   -1.6507   22.1912 C   0  0  0  0  0  0  0  0  0  0  0  0
   10.1706   -1.9926   22.4965 O   0  0  0  0  0  0  0  0  0  0  0  0
    8.7010   -0.9981   21.0321 N   0  0  0  0  0  0  0  0  0  0  0  0
    9.4617   -0.6942   20.4554 H   0  0  0  0  0  0  0  0  0  0  0  0
    5.4388    0.6689   20.1286 C   0  0  0  0  0  0  0  0  0  0  0  0
    5.0021    0.6752   21.1287 H   0  0  0  0  0  0  0  0  0  0  0  0
    4.8019    1.3226   19.0752 C   0  0  0  0  0  0  0  0  0  0  0  0
    3.8654    1.8511   19.2181 H   0  0  0  0  0  0  0  0  0  0  0  0
  1  2  1  0
  2  3  2  0
  3  4  1  0
  4  5  1  0
  4  6  2  0
  6  7  1  0
  7  8  2  0
  8  9  1  0
  8 10  1  0
 10 11  1  0
 11 12  2  0
 12 13  1  0
 12 14  1  0
 14 15  1  0
 14 16  2  0
 16 17  1  0
 17 18  2  0
 17 19  1  0
 19 20  1  0
 20 21  1  0
 20 22  1  0
 20 23  1  0
 16 24  1  0
 24 25  1  0
 24 26  2  0
 26 27  1  0
 10 28  1  0
 28 29  2  0
 28 30  1  0
 30 31  1  0
  6 32  1  0
 32 33  1  0
 32 34  2  0
 34 35  1  0
 34  2  1  0
 30  7  1  0
 26 11  1  0
M  END
>  <cnnaffinity>  (1) 
-5.26151

>  <filename>  (1) 
COC(=O)c1ccc(-n2cc(-c3cccnc3)[nH]c2=O)cc1

$$$$
