
     RDKit          3D

 28 30  0  0  0  0  0  0  0  0999 V2000
    4.9301    1.8003   16.9783 H   0  0  0  0  0  0  0  0  0  0  0  0
    5.4016    1.2946   17.8175 C   0  0  0  0  0  0  0  0  0  0  0  0
    6.5633    0.6754   17.5575 N   0  0  0  0  0  0  0  0  0  0  0  0
    7.1799    0.0563   18.5706 C   0  0  0  0  0  0  0  0  0  0  0  0
    8.1291   -0.4203   18.3321 H   0  0  0  0  0  0  0  0  0  0  0  0
    6.6671    0.0074   19.8816 C   0  0  0  0  0  0  0  0  0  0  0  0
    7.3766   -0.6977   20.9655 C   0  0  0  0  0  0  0  0  0  0  0  0
    8.5449   -1.3324   20.7631 N   0  0  0  0  0  0  0  0  0  0  0  0
    8.8190   -1.8255   21.9873 N   0  0  0  0  0  0  0  0  0  0  0  0
    9.8448   -2.5749   22.5462 C   0  0  0  0  0  0  0  0  0  0  0  0
   10.6805   -2.8613   21.9394 H   0  0  0  0  0  0  0  0  0  0  0  0
    9.5315   -2.7553   23.8483 C   0  0  0  0  0  0  0  0  0  0  0  0
   10.0634   -3.2848   24.6257 H   0  0  0  0  0  0  0  0  0  0  0  0
    8.3086   -2.1098   24.1093 N   0  0  0  0  0  0  0  0  0  0  0  0
    7.6444   -2.0560   25.3449 C   0  0  0  0  0  0  0  0  0  0  0  0
    8.0646   -2.5812   26.3476 O   0  0  0  0  0  0  0  0  0  0  0  0
    6.5044   -1.3558   25.2499 O   0  0  0  0  0  0  0  0  0  0  0  0
    5.7147   -1.2225   26.4433 C   0  0  0  0  0  0  0  0  0  0  0  0
    6.2748   -0.7119   27.2334 H   0  0  0  0  0  0  0  0  0  0  0  0
    4.8546   -0.6299   26.1350 H   0  0  0  0  0  0  0  0  0  0  0  0
    5.3965   -2.2004   26.8192 H   0  0  0  0  0  0  0  0  0  0  0  0
    7.8928   -1.5347   22.9114 C   0  0  0  0  0  0  0  0  0  0  0  0
    6.9188   -0.7884   22.3013 C   0  0  0  0  0  0  0  0  0  0  0  0
    6.0416   -0.3685   22.7497 H   0  0  0  0  0  0  0  0  0  0  0  0
    5.4456    0.6556   20.1293 C   0  0  0  0  0  0  0  0  0  0  0  0
    5.0023    0.6532   21.1280 H   0  0  0  0  0  0  0  0  0  0  0  0
    4.8083    1.3109   19.0837 C   0  0  0  0  0  0  0  0  0  0  0  0
    3.8761    1.8394   19.2416 H   0  0  0  0  0  0  0  0  0  0  0  0
  1  2  1  0
  2  3  2  0
  3  4  1  0
  4  5  1  0
  4  6  2  0
  6  7  1  0
  7  8  2  0
  8  9  1  0
  9 10  1  0
 10 11  1  0
 10 12  2  0
 12 13  1  0
 12 14  1  0
 14 15  1  0
 15 16  2  0
 15 17  1  0
 17 18  1  0
 18 19  1  0
 18 20  1  0
 18 21  1  0
 14 22  1  0
 22 23  2  0
 23 24  1  0
  6 25  1  0
 25 26  1  0
 25 27  2  0
 27 28  1  0
 27  2  1  0
 23  7  1  0
 22  9  1  0
M  END
>  <cnnaffinity>  (1) 
-4.82577

>  <filename>  (1) 
COC(=O)n1ccn2nc(-c3cccnc3)cc12

$$$$
