
     RDKit          3D

 40 43  0  0  0  0  0  0  0  0999 V2000
    4.9464    1.8141   16.9668 H   0  0  0  0  0  0  0  0  0  0  0  0
    5.3983    1.2985   17.8143 C   0  0  0  0  0  0  0  0  0  0  0  0
    6.5541    0.6633   17.5647 N   0  0  0  0  0  0  0  0  0  0  0  0
    7.1540    0.0327   18.5794 C   0  0  0  0  0  0  0  0  0  0  0  0
    8.1013   -0.4506   18.3522 H   0  0  0  0  0  0  0  0  0  0  0  0
    6.6454    0.0030   19.8876 C   0  0  0  0  0  0  0  0  0  0  0  0
    7.3865   -0.6681   20.9520 C   0  0  0  0  0  0  0  0  0  0  0  0
    8.0864   -1.8433   20.7500 N   0  0  0  0  0  0  0  0  0  0  0  0
    8.5107   -2.1483   21.9453 C   0  0  0  0  0  0  0  0  0  0  0  0
    9.4430   -3.4470   22.6209 S   0  0  0  0  0  0  0  0  0  0  0  0
    9.4777   -2.6523   24.1750 C   0  0  0  0  0  0  0  0  0  0  0  0
   10.0637   -3.1157   24.9579 H   0  0  0  0  0  0  0  0  0  0  0  0
    8.7598   -1.5179   24.1874 C   0  0  0  0  0  0  0  0  0  0  0  0
    8.5766   -0.8457   25.0203 H   0  0  0  0  0  0  0  0  0  0  0  0
    8.1918   -1.2388   22.9324 N   0  0  0  0  0  0  0  0  0  0  0  0
    7.4654   -0.2514   22.2884 C   0  0  0  0  0  0  0  0  0  0  0  0
    7.0501    0.8882   22.9156 N   0  0  0  0  0  0  0  0  0  0  0  0
    6.8367    1.6804   22.3270 H   0  0  0  0  0  0  0  0  0  0  0  0
    6.7517    1.0077   24.3317 C   0  0  0  0  0  0  0  0  0  0  0  0
    7.6730    1.2234   24.8931 H   0  0  0  0  0  0  0  0  0  0  0  0
    6.3700    0.0405   24.6945 H   0  0  0  0  0  0  0  0  0  0  0  0
    5.7290    2.1047   24.5505 C   0  0  0  0  0  0  0  0  0  0  0  0
    6.1035    3.4065   24.9094 C   0  0  0  0  0  0  0  0  0  0  0  0
    7.1520    3.6478   25.0836 H   0  0  0  0  0  0  0  0  0  0  0  0
    5.1452    4.4178   25.0777 C   0  0  0  0  0  0  0  0  0  0  0  0
    5.4355    5.4212   25.3725 H   0  0  0  0  0  0  0  0  0  0  0  0
    3.7922    4.1254   24.8737 C   0  0  0  0  0  0  0  0  0  0  0  0
    2.7689    5.0107   25.0126 O   0  0  0  0  0  0  0  0  0  0  0  0
    3.0477    6.3427   25.3851 C   0  0  0  0  0  0  0  0  0  0  0  0
    3.6978    6.8366   24.6484 H   0  0  0  0  0  0  0  0  0  0  0  0
    3.5315    6.3900   26.3717 H   0  0  0  0  0  0  0  0  0  0  0  0
    2.0707    6.8279   25.4167 H   0  0  0  0  0  0  0  0  0  0  0  0
    3.3985    2.8294   24.5066 C   0  0  0  0  0  0  0  0  0  0  0  0
    2.3328    2.6712   24.3621 H   0  0  0  0  0  0  0  0  0  0  0  0
    4.3609    1.8319   24.3648 C   0  0  0  0  0  0  0  0  0  0  0  0
    4.0717    0.8081   24.1359 H   0  0  0  0  0  0  0  0  0  0  0  0
    5.4253    0.6605   20.1267 C   0  0  0  0  0  0  0  0  0  0  0  0
    4.9941    0.6505   21.1279 H   0  0  0  0  0  0  0  0  0  0  0  0
    4.7897    1.3158   19.0748 C   0  0  0  0  0  0  0  0  0  0  0  0
    3.8577    1.8540   19.2152 H   0  0  0  0  0  0  0  0  0  0  0  0
  1  2  1  0
  2  3  2  0
  3  4  1  0
  4  5  1  0
  4  6  2  0
  6  7  1  0
  7  8  1  0
  8  9  2  0
  9 10  1  0
 10 11  1  0
 11 12  1  0
 11 13  2  0
 13 14  1  0
 13 15  1  0
 15 16  1  0
 16 17  1  0
 17 18  1  0
 17 19  1  0
 19 20  1  0
 19 21  1  0
 19 22  1  0
 22 23  2  0
 23 24  1  0
 23 25  1  0
 25 26  1  0
 25 27  2  0
 27 28  1  0
 28 29  1  0
 29 30  1  0
 29 31  1  0
 29 32  1  0
 27 33  1  0
 33 34  1  0
 33 35  2  0
 35 36  1  0
  6 37  1  0
 37 38  1  0
 37 39  2  0
 39 40  1  0
 39  2  1  0
 16  7  2  0
 35 22  1  0
 15  9  1  0
M  END
>  <cnnaffinity>  (1) 
-5.25902

>  <filename>  (1) 
COc1ccc(CNc2c(-c3cccnc3)nc3sccn23)cc1

$$$$
