
     RDKit          3D

 39 42  0  0  0  0  0  0  0  0999 V2000
    4.9930    1.8418   16.9074 H   0  0  0  0  0  0  0  0  0  0  0  0
    5.4173    1.2970   17.7488 C   0  0  0  0  0  0  0  0  0  0  0  0
    6.5567    0.6301   17.5092 N   0  0  0  0  0  0  0  0  0  0  0  0
    7.1238   -0.0046   18.5392 C   0  0  0  0  0  0  0  0  0  0  0  0
    8.0323   -0.5553   18.3090 H   0  0  0  0  0  0  0  0  0  0  0  0
    6.6177    0.0131   19.8547 C   0  0  0  0  0  0  0  0  0  0  0  0
    7.3887   -0.6035   20.9470 C   0  0  0  0  0  0  0  0  0  0  0  0
    8.1185   -1.7009   20.7378 N   0  0  0  0  0  0  0  0  0  0  0  0
    8.6106   -1.9821   21.9423 N   0  0  0  0  0  0  0  0  0  0  0  0
    8.2795   -1.1440   22.9191 C   0  0  0  0  0  0  0  0  0  0  0  0
    7.4717   -0.1878   22.3201 C   0  0  0  0  0  0  0  0  0  0  0  0
    6.9908    1.0285   22.9810 C   0  0  0  0  0  0  0  0  0  0  0  0
    7.2149    2.2740   22.3790 C   0  0  0  0  0  0  0  0  0  0  0  0
    7.6599    2.2961   21.3852 H   0  0  0  0  0  0  0  0  0  0  0  0
    6.9106    3.4616   23.0360 C   0  0  0  0  0  0  0  0  0  0  0  0
    7.1616    4.4128   22.5765 H   0  0  0  0  0  0  0  0  0  0  0  0
    6.3200    3.4103   24.2971 C   0  0  0  0  0  0  0  0  0  0  0  0
    6.0829    4.3352   24.8160 H   0  0  0  0  0  0  0  0  0  0  0  0
    6.0495    2.1831   24.9061 C   0  0  0  0  0  0  0  0  0  0  0  0
    5.5911    2.1654   25.8876 H   0  0  0  0  0  0  0  0  0  0  0  0
    6.4039    0.9836   24.2722 C   0  0  0  0  0  0  0  0  0  0  0  0
    6.2332   -0.2555   24.8249 O   0  0  0  0  0  0  0  0  0  0  0  0
    5.5554   -0.3931   26.0556 C   0  0  0  0  0  0  0  0  0  0  0  0
    5.4679   -1.4657   26.2401 H   0  0  0  0  0  0  0  0  0  0  0  0
    4.5505    0.0450   26.0061 H   0  0  0  0  0  0  0  0  0  0  0  0
    6.1252    0.0666   26.8733 H   0  0  0  0  0  0  0  0  0  0  0  0
    9.0448   -1.4631   24.1826 C   0  0  0  0  0  0  0  0  0  0  0  0
    8.3660   -1.7281   24.9948 H   0  0  0  0  0  0  0  0  0  0  0  0
    9.6397   -0.6093   24.5175 H   0  0  0  0  0  0  0  0  0  0  0  0
    9.9612   -2.6365   23.7434 C   0  0  0  0  0  0  0  0  0  0  0  0
   10.9954   -2.3075   23.6903 H   0  0  0  0  0  0  0  0  0  0  0  0
    9.9209   -3.4708   24.4456 H   0  0  0  0  0  0  0  0  0  0  0  0
    9.5326   -3.0251   22.3043 C   0  0  0  0  0  0  0  0  0  0  0  0
   10.3784   -2.9697   21.6240 H   0  0  0  0  0  0  0  0  0  0  0  0
    9.0349   -3.9933   22.2326 H   0  0  0  0  0  0  0  0  0  0  0  0
    5.3825    0.6520   20.0674 C   0  0  0  0  0  0  0  0  0  0  0  0
    4.9035    0.6440   21.0518 H   0  0  0  0  0  0  0  0  0  0  0  0
    4.7819    1.3072   18.9951 C   0  0  0  0  0  0  0  0  0  0  0  0
    3.8431    1.8398   19.1088 H   0  0  0  0  0  0  0  0  0  0  0  0
  1  2  1  0
  2  3  2  0
  3  4  1  0
  4  5  1  0
  4  6  2  0
  6  7  1  0
  7  8  2  0
  8  9  1  0
  9 10  1  0
 10 11  2  0
 11 12  1  0
 12 13  2  0
 13 14  1  0
 13 15  1  0
 15 16  1  0
 15 17  2  0
 17 18  1  0
 17 19  1  0
 19 20  1  0
 19 21  2  0
 21 22  1  0
 22 23  1  0
 23 24  1  0
 23 25  1  0
 23 26  1  0
 10 27  1  0
 27 28  1  0
 27 29  1  0
 27 30  1  0
 30 31  1  0
 30 32  1  0
 30 33  1  0
 33 34  1  0
 33 35  1  0
  6 36  1  0
 36 37  1  0
 36 38  2  0
 38 39  1  0
 38  2  1  0
 11  7  1  0
 21 12  1  0
 33  9  1  0
M  END
>  <cnnaffinity>  (1) 
-5.43626

>  <filename>  (1) 
COc1ccccc1-c1c(-c2cccnc2)nn2c1CCC2

$$$$
