
     RDKit          3D

 38 41  0  0  0  0  0  0  0  0999 V2000
    4.9924    1.7913   16.9857 H   0  0  0  0  0  0  0  0  0  0  0  0
    5.4325    1.2794   17.8376 C   0  0  0  0  0  0  0  0  0  0  0  0
    6.5912    0.6419   17.6121 N   0  0  0  0  0  0  0  0  0  0  0  0
    7.1667    0.0241   18.6475 C   0  0  0  0  0  0  0  0  0  0  0  0
    8.1182   -0.4687   18.4536 H   0  0  0  0  0  0  0  0  0  0  0  0
    6.6155   -0.0014   19.9362 C   0  0  0  0  0  0  0  0  0  0  0  0
    7.3566   -0.7119   20.9831 C   0  0  0  0  0  0  0  0  0  0  0  0
    8.5488   -1.3439   20.7536 N   0  0  0  0  0  0  0  0  0  0  0  0
    8.8327   -1.8184   21.9503 C   0  0  0  0  0  0  0  0  0  0  0  0
   10.0851   -2.7394   22.7442 S   0  0  0  0  0  0  0  0  0  0  0  0
    9.2600   -2.5493   24.2635 C   0  0  0  0  0  0  0  0  0  0  0  0
    9.6798   -2.9654   25.1672 H   0  0  0  0  0  0  0  0  0  0  0  0
    8.0897   -1.8808   24.1667 C   0  0  0  0  0  0  0  0  0  0  0  0
    7.0951   -1.6317   25.2344 C   0  0  0  0  0  0  0  0  0  0  0  0
    5.7167   -1.8294   25.0297 C   0  0  0  0  0  0  0  0  0  0  0  0
    5.3910   -2.2078   24.0670 H   0  0  0  0  0  0  0  0  0  0  0  0
    4.7923   -1.5615   26.0268 C   0  0  0  0  0  0  0  0  0  0  0  0
    3.7219   -1.6396   25.8935 H   0  0  0  0  0  0  0  0  0  0  0  0
    5.2232   -1.1185   27.2822 C   0  0  0  0  0  0  0  0  0  0  0  0
    4.2228   -0.9113   28.1774 O   0  0  0  0  0  0  0  0  0  0  0  0
    4.5348   -0.5675   29.5121 C   0  0  0  0  0  0  0  0  0  0  0  0
    3.5835   -0.4804   30.0379 H   0  0  0  0  0  0  0  0  0  0  0  0
    5.0643    0.3910   29.5707 H   0  0  0  0  0  0  0  0  0  0  0  0
    5.1440   -1.3373   30.0019 H   0  0  0  0  0  0  0  0  0  0  0  0
    6.5797   -0.9050   27.5332 C   0  0  0  0  0  0  0  0  0  0  0  0
    6.8805   -0.5057   28.4959 H   0  0  0  0  0  0  0  0  0  0  0  0
    7.5097   -1.2008   26.5194 C   0  0  0  0  0  0  0  0  0  0  0  0
    8.8510   -1.0953   26.6918 O   0  0  0  0  0  0  0  0  0  0  0  0
    9.3857   -0.5219   27.8619 C   0  0  0  0  0  0  0  0  0  0  0  0
    8.8643    0.4028   28.1314 H   0  0  0  0  0  0  0  0  0  0  0  0
    9.3496   -1.2176   28.6995 H   0  0  0  0  0  0  0  0  0  0  0  0
   10.4295   -0.3005   27.6478 H   0  0  0  0  0  0  0  0  0  0  0  0
    7.8712   -1.4975   22.8394 N   0  0  0  0  0  0  0  0  0  0  0  0
    6.9038   -0.7764   22.2258 N   0  0  0  0  0  0  0  0  0  0  0  0
    5.3963    0.6661   20.1627 C   0  0  0  0  0  0  0  0  0  0  0  0
    4.9474    0.6901   21.1585 H   0  0  0  0  0  0  0  0  0  0  0  0
    4.7965    1.3115   19.0843 C   0  0  0  0  0  0  0  0  0  0  0  0
    3.8620    1.8512   19.1957 H   0  0  0  0  0  0  0  0  0  0  0  0
  1  2  1  0
  2  3  2  0
  3  4  1  0
  4  5  1  0
  4  6  2  0
  6  7  1  0
  7  8  1  0
  8  9  2  0
  9 10  1  0
 10 11  1  0
 11 12  1  0
 11 13  2  0
 13 14  1  0
 14 15  2  0
 15 16  1  0
 15 17  1  0
 17 18  1  0
 17 19  2  0
 19 20  1  0
 20 21  1  0
 21 22  1  0
 21 23  1  0
 21 24  1  0
 19 25  1  0
 25 26  1  0
 25 27  2  0
 27 28  1  0
 28 29  1  0
 29 30  1  0
 29 31  1  0
 29 32  1  0
 13 33  1  0
 33 34  1  0
  6 35  1  0
 35 36  1  0
 35 37  2  0
 37 38  1  0
 37  2  1  0
 34  7  2  0
 33  9  1  0
 27 14  1  0
M  END
>  <cnnaffinity>  (1) 
-5.59963

>  <filename>  (1) 
COc1ccc(-c2csc3nc(-c4cccnc4)nn23)c(OC)c1

$$$$
