
     RDKit          3D

 38 41  0  0  0  0  0  0  0  0999 V2000
    4.9121    1.8069   16.9789 H   0  0  0  0  0  0  0  0  0  0  0  0
    5.3811    1.3016   17.8240 C   0  0  0  0  0  0  0  0  0  0  0  0
    6.5447    0.6839   17.5660 N   0  0  0  0  0  0  0  0  0  0  0  0
    7.1567    0.0744   18.5848 C   0  0  0  0  0  0  0  0  0  0  0  0
    8.1069   -0.3961   18.3405 H   0  0  0  0  0  0  0  0  0  0  0  0
    6.6674    0.0223   19.9099 C   0  0  0  0  0  0  0  0  0  0  0  0
    7.4214   -0.6845   20.9577 C   0  0  0  0  0  0  0  0  0  0  0  0
    8.3431   -1.7072   20.9059 C   0  0  0  0  0  0  0  0  0  0  0  0
    8.7481   -2.1231   20.0050 H   0  0  0  0  0  0  0  0  0  0  0  0
    8.7948   -2.1070   22.1353 N   0  0  0  0  0  0  0  0  0  0  0  0
    8.1717   -1.2934   22.9493 C   0  0  0  0  0  0  0  0  0  0  0  0
    8.2031   -0.9232   24.6267 S   0  0  0  0  0  0  0  0  0  0  0  0
    7.0639    0.4012   24.2892 C   0  0  0  0  0  0  0  0  0  0  0  0
    6.6086    1.2715   25.3853 C   0  0  0  0  0  0  0  0  0  0  0  0
    7.1646    1.1591   26.6692 C   0  0  0  0  0  0  0  0  0  0  0  0
    7.9461    0.4237   26.8610 H   0  0  0  0  0  0  0  0  0  0  0  0
    6.7505    1.9618   27.7250 C   0  0  0  0  0  0  0  0  0  0  0  0
    7.2007    1.8416   28.7002 H   0  0  0  0  0  0  0  0  0  0  0  0
    5.7518    2.9168   27.5113 C   0  0  0  0  0  0  0  0  0  0  0  0
    5.2741    3.7537   28.4641 O   0  0  0  0  0  0  0  0  0  0  0  0
    5.7702    3.7117   29.7894 C   0  0  0  0  0  0  0  0  0  0  0  0
    5.2038    4.4848   30.3111 H   0  0  0  0  0  0  0  0  0  0  0  0
    6.8445    3.9441   29.8369 H   0  0  0  0  0  0  0  0  0  0  0  0
    5.5940    2.7369   30.2682 H   0  0  0  0  0  0  0  0  0  0  0  0
    5.1708    3.0616   26.2476 C   0  0  0  0  0  0  0  0  0  0  0  0
    4.4002    3.8133   26.1183 H   0  0  0  0  0  0  0  0  0  0  0  0
    5.5879    2.2482   25.1935 C   0  0  0  0  0  0  0  0  0  0  0  0
    5.0492    2.3301   23.9672 O   0  0  0  0  0  0  0  0  0  0  0  0
    4.0492    3.2630   23.6238 C   0  0  0  0  0  0  0  0  0  0  0  0
    3.1189    3.0983   24.1865 H   0  0  0  0  0  0  0  0  0  0  0  0
    3.8725    3.0652   22.5649 H   0  0  0  0  0  0  0  0  0  0  0  0
    4.3836    4.3037   23.7451 H   0  0  0  0  0  0  0  0  0  0  0  0
    6.7072    0.5203   23.0425 N   0  0  0  0  0  0  0  0  0  0  0  0
    7.3314   -0.4272   22.3198 N   0  0  0  0  0  0  0  0  0  0  0  0
    5.4380    0.6623   20.1514 C   0  0  0  0  0  0  0  0  0  0  0  0
    5.0307    0.6450   21.1604 H   0  0  0  0  0  0  0  0  0  0  0  0
    4.7938    1.3112   19.0933 C   0  0  0  0  0  0  0  0  0  0  0  0
    3.8597    1.8439   19.2323 H   0  0  0  0  0  0  0  0  0  0  0  0
  1  2  1  0
  2  3  2  0
  3  4  1  0
  4  5  1  0
  4  6  2  0
  6  7  1  0
  7  8  2  0
  8  9  1  0
  8 10  1  0
 10 11  2  0
 11 12  1  0
 12 13  1  0
 13 14  1  0
 14 15  2  0
 15 16  1  0
 15 17  1  0
 17 18  1  0
 17 19  2  0
 19 20  1  0
 20 21  1  0
 21 22  1  0
 21 23  1  0
 21 24  1  0
 19 25  1  0
 25 26  1  0
 25 27  2  0
 27 28  1  0
 28 29  1  0
 29 30  1  0
 29 31  1  0
 29 32  1  0
 13 33  2  0
 33 34  1  0
  6 35  1  0
 35 36  1  0
 35 37  2  0
 37 38  1  0
 37  2  1  0
 34  7  1  0
 34 11  1  0
 27 14  1  0
M  END
>  <cnnaffinity>  (1) 
-5.19704

>  <filename>  (1) 
COc1ccc(-c2nn3c(-c4cccnc4)cnc3s2)c(OC)c1

$$$$
