
     RDKit          3D

 35 37  0  0  0  0  0  0  0  0999 V2000
    4.9808    1.7294   17.0386 H   0  0  0  0  0  0  0  0  0  0  0  0
    5.4536    1.2165   17.8715 C   0  0  0  0  0  0  0  0  0  0  0  0
    6.6056    0.5777   17.6041 N   0  0  0  0  0  0  0  0  0  0  0  0
    7.2361   -0.0161   18.6288 C   0  0  0  0  0  0  0  0  0  0  0  0
    8.1632   -0.5377   18.3901 H   0  0  0  0  0  0  0  0  0  0  0  0
    6.7683   -0.0033   19.9770 C   0  0  0  0  0  0  0  0  0  0  0  0
    7.4816   -0.5242   21.0187 N   0  0  0  0  0  0  0  0  0  0  0  0
    7.0520   -0.8526   22.3633 C   0  0  0  0  0  0  0  0  0  0  0  0
    6.9436    0.0300   23.0104 H   0  0  0  0  0  0  0  0  0  0  0  0
    6.1304   -1.4531   22.4048 H   0  0  0  0  0  0  0  0  0  0  0  0
    8.3848   -1.6423   22.5225 C   0  0  0  0  0  0  0  0  0  0  0  0
    9.0778   -1.1136   23.1810 H   0  0  0  0  0  0  0  0  0  0  0  0
    8.3635   -3.0885   22.9871 C   0  0  0  0  0  0  0  0  0  0  0  0
    9.0496   -3.4073   23.9392 O   0  0  0  0  0  0  0  0  0  0  0  0
    7.4881   -4.1426   22.2627 C   0  0  0  0  0  0  0  0  0  0  0  0
    6.8707   -3.8021   21.1105 N   0  0  0  0  0  0  0  0  0  0  0  0
    6.1306   -4.7085   20.4878 C   0  0  0  0  0  0  0  0  0  0  0  0
    5.5254   -4.3988   19.3235 O   0  0  0  0  0  0  0  0  0  0  0  0
    5.4808   -3.0391   18.9189 C   0  0  0  0  0  0  0  0  0  0  0  0
    6.3736   -2.7375   18.3617 H   0  0  0  0  0  0  0  0  0  0  0  0
    4.6137   -2.9435   18.2697 H   0  0  0  0  0  0  0  0  0  0  0  0
    5.3443   -2.3855   19.7732 H   0  0  0  0  0  0  0  0  0  0  0  0
    5.9005   -6.0029   20.9787 C   0  0  0  0  0  0  0  0  0  0  0  0
    5.2356   -6.6478   20.4152 H   0  0  0  0  0  0  0  0  0  0  0  0
    6.5214   -6.3624   22.1640 C   0  0  0  0  0  0  0  0  0  0  0  0
    6.3674   -7.3525   22.5985 H   0  0  0  0  0  0  0  0  0  0  0  0
    7.3523   -5.4280   22.8086 C   0  0  0  0  0  0  0  0  0  0  0  0
    7.8845   -5.6832   23.7155 H   0  0  0  0  0  0  0  0  0  0  0  0
    8.6777   -1.3367   21.0266 C   0  0  0  0  0  0  0  0  0  0  0  0
    8.6005   -2.2018   20.3635 H   0  0  0  0  0  0  0  0  0  0  0  0
    9.6005   -0.7787   20.8147 H   0  0  0  0  0  0  0  0  0  0  0  0
    5.5255    0.6150   20.2108 C   0  0  0  0  0  0  0  0  0  0  0  0
    5.1143    0.6063   21.2203 H   0  0  0  0  0  0  0  0  0  0  0  0
    4.8740    1.2391   19.1465 C   0  0  0  0  0  0  0  0  0  0  0  0
    3.9380    1.7638   19.3056 H   0  0  0  0  0  0  0  0  0  0  0  0
  1  2  1  0
  2  3  2  0
  3  4  1  0
  4  5  1  0
  4  6  2  0
  6  7  1  0
  7  8  1  0
  8  9  1  0
  8 10  1  0
  8 11  1  0
 11 12  1  0
 11 13  1  0
 13 14  2  0
 13 15  1  0
 15 16  2  0
 16 17  1  0
 17 18  1  0
 18 19  1  0
 19 20  1  0
 19 21  1  0
 19 22  1  0
 17 23  2  0
 23 24  1  0
 23 25  1  0
 25 26  1  0
 25 27  2  0
 27 28  1  0
 11 29  1  0
 29 30  1  0
 29 31  1  0
  6 32  1  0
 32 33  1  0
 32 34  2  0
 34 35  1  0
 34  2  1  0
 29  7  1  0
 27 15  1  0
M  END
>  <cnnaffinity>  (1) 
-5.30701

>  <filename>  (1) 
COc1cccc(C(=O)C2CN(c3cccnc3)C2)n1

$$$$
