
     RDKit          3D

 33 35  0  0  0  0  0  0  0  0999 V2000
    4.9324    1.7919   16.9881 H   0  0  0  0  0  0  0  0  0  0  0  0
    5.3957    1.2942   17.8367 C   0  0  0  0  0  0  0  0  0  0  0  0
    6.5506    0.6652   17.5811 N   0  0  0  0  0  0  0  0  0  0  0  0
    7.1483    0.0446   18.6024 C   0  0  0  0  0  0  0  0  0  0  0  0
    8.1116   -0.4169   18.3873 H   0  0  0  0  0  0  0  0  0  0  0  0
    6.6217   -0.0064   19.9033 C   0  0  0  0  0  0  0  0  0  0  0  0
    7.3237   -0.7297   20.9761 C   0  0  0  0  0  0  0  0  0  0  0  0
    6.5919   -1.5000   21.7541 N   0  0  0  0  0  0  0  0  0  0  0  0
    7.1791   -2.2000   22.7905 C   0  0  0  0  0  0  0  0  0  0  0  0
    6.2793   -3.0539   23.6508 C   0  0  0  0  0  0  0  0  0  0  0  0
    6.5967   -3.3484   24.9987 C   0  0  0  0  0  0  0  0  0  0  0  0
    7.4822   -2.9514   25.4759 H   0  0  0  0  0  0  0  0  0  0  0  0
    5.7373   -4.1407   25.7423 C   0  0  0  0  0  0  0  0  0  0  0  0
    5.9803   -4.3750   26.7781 H   0  0  0  0  0  0  0  0  0  0  0  0
    4.5944   -4.6644   25.2656 N   0  0  0  0  0  0  0  0  0  0  0  0
    4.2979   -4.3807   24.0073 C   0  0  0  0  0  0  0  0  0  0  0  0
    3.1651   -4.8506   23.4540 O   0  0  0  0  0  0  0  0  0  0  0  0
    2.2752   -5.6677   24.2116 C   0  0  0  0  0  0  0  0  0  0  0  0
    1.4662   -5.8966   23.5167 H   0  0  0  0  0  0  0  0  0  0  0  0
    2.7583   -6.5938   24.5472 H   0  0  0  0  0  0  0  0  0  0  0  0
    1.8810   -5.1390   25.0886 H   0  0  0  0  0  0  0  0  0  0  0  0
    5.0961   -3.5935   23.1588 C   0  0  0  0  0  0  0  0  0  0  0  0
    4.7547   -3.3966   22.1536 H   0  0  0  0  0  0  0  0  0  0  0  0
    8.5311   -2.1310   23.0245 C   0  0  0  0  0  0  0  0  0  0  0  0
    9.0385   -2.6887   23.8036 H   0  0  0  0  0  0  0  0  0  0  0  0
    9.3025   -1.3311   22.2185 N   0  0  0  0  0  0  0  0  0  0  0  0
   10.3005   -1.1682   22.3016 H   0  0  0  0  0  0  0  0  0  0  0  0
    8.8148   -0.5614   21.1733 C   0  0  0  0  0  0  0  0  0  0  0  0
    9.6196    0.1312   20.5705 O   0  0  0  0  0  0  0  0  0  0  0  0
    5.4051    0.6468   20.1519 C   0  0  0  0  0  0  0  0  0  0  0  0
    4.9690    0.6358   21.1533 H   0  0  0  0  0  0  0  0  0  0  0  0
    4.7915    1.3203   19.0995 C   0  0  0  0  0  0  0  0  0  0  0  0
    3.8634    1.8615   19.2407 H   0  0  0  0  0  0  0  0  0  0  0  0
  1  2  1  0
  2  3  2  0
  3  4  1  0
  4  5  1  0
  4  6  2  0
  6  7  1  0
  7  8  2  0
  8  9  1  0
  9 10  1  0
 10 11  2  0
 11 12  1  0
 11 13  1  0
 13 14  1  0
 13 15  2  0
 15 16  1  0
 16 17  1  0
 17 18  1  0
 18 19  1  0
 18 20  1  0
 18 21  1  0
 16 22  2  0
 22 23  1  0
  9 24  2  0
 24 25  1  0
 24 26  1  0
 26 27  1  0
 26 28  1  0
 28 29  2  0
  6 30  1  0
 30 31  1  0
 30 32  2  0
 32 33  1  0
 32  2  1  0
 28  7  1  0
 22 10  1  0
M  END
>  <cnnaffinity>  (1) 
-5.31733

>  <filename>  (1) 
COc1cc(-c2c[nH]c(=O)c(-c3cccnc3)n2)ccn1

$$$$
