
     RDKit          3D

 39 41  0  0  0  0  0  0  0  0999 V2000
    4.9165    1.8317   16.9791 H   0  0  0  0  0  0  0  0  0  0  0  0
    5.3814    1.3023   17.8090 C   0  0  0  0  0  0  0  0  0  0  0  0
    6.5311    0.6639   17.5364 N   0  0  0  0  0  0  0  0  0  0  0  0
    7.1528    0.0401   18.5459 C   0  0  0  0  0  0  0  0  0  0  0  0
    8.1020   -0.4389   18.3154 H   0  0  0  0  0  0  0  0  0  0  0  0
    6.6521   -0.0051   19.8652 C   0  0  0  0  0  0  0  0  0  0  0  0
    7.3640   -0.6868   20.9241 N   0  0  0  0  0  0  0  0  0  0  0  0
    6.7413   -1.7324   21.5853 C   0  0  0  0  0  0  0  0  0  0  0  0
    5.7224   -1.9369   21.2673 H   0  0  0  0  0  0  0  0  0  0  0  0
    7.3487   -2.4529   22.5842 C   0  0  0  0  0  0  0  0  0  0  0  0
    6.6629   -3.5752   23.2818 C   0  0  0  0  0  0  0  0  0  0  0  0
    6.7726   -3.7436   24.6725 C   0  0  0  0  0  0  0  0  0  0  0  0
    7.3376   -3.0236   25.2614 H   0  0  0  0  0  0  0  0  0  0  0  0
    6.1257   -4.8029   25.3119 C   0  0  0  0  0  0  0  0  0  0  0  0
    6.2245   -4.9228   26.3855 H   0  0  0  0  0  0  0  0  0  0  0  0
    5.3449   -5.7167   24.5871 C   0  0  0  0  0  0  0  0  0  0  0  0
    4.7536   -6.8118   25.1519 O   0  0  0  0  0  0  0  0  0  0  0  0
    4.7844   -7.0210   26.5483 C   0  0  0  0  0  0  0  0  0  0  0  0
    4.3516   -6.1726   27.0930 H   0  0  0  0  0  0  0  0  0  0  0  0
    4.1723   -7.9040   26.7376 H   0  0  0  0  0  0  0  0  0  0  0  0
    5.8031   -7.2157   26.9056 H   0  0  0  0  0  0  0  0  0  0  0  0
    5.1670   -5.5238   23.1842 C   0  0  0  0  0  0  0  0  0  0  0  0
    4.3828   -6.2553   22.3386 O   0  0  0  0  0  0  0  0  0  0  0  0
    3.4657   -7.2166   22.8663 C   0  0  0  0  0  0  0  0  0  0  0  0
    4.0094   -8.0630   23.2922 H   0  0  0  0  0  0  0  0  0  0  0  0
    2.8410   -7.5552   22.0381 H   0  0  0  0  0  0  0  0  0  0  0  0
    2.8230   -6.7801   23.6362 H   0  0  0  0  0  0  0  0  0  0  0  0
    5.8683   -4.4837   22.5655 C   0  0  0  0  0  0  0  0  0  0  0  0
    5.7907   -4.4261   21.4853 H   0  0  0  0  0  0  0  0  0  0  0  0
    8.6767   -2.0720   22.9650 C   0  0  0  0  0  0  0  0  0  0  0  0
    9.1819   -2.6395   23.7510 H   0  0  0  0  0  0  0  0  0  0  0  0
    9.3089   -1.0386   22.3535 C   0  0  0  0  0  0  0  0  0  0  0  0
   10.3014   -0.7074   22.6195 H   0  0  0  0  0  0  0  0  0  0  0  0
    8.7001   -0.2688   21.2763 C   0  0  0  0  0  0  0  0  0  0  0  0
    9.2682    0.6460   20.7038 O   0  0  0  0  0  0  0  0  0  0  0  0
    5.4366    0.6376   20.1256 C   0  0  0  0  0  0  0  0  0  0  0  0
    5.0274    0.6269   21.1362 H   0  0  0  0  0  0  0  0  0  0  0  0
    4.7979    1.3144   19.0799 C   0  0  0  0  0  0  0  0  0  0  0  0
    3.8706    1.8511   19.2367 H   0  0  0  0  0  0  0  0  0  0  0  0
  1  2  1  0
  2  3  2  0
  3  4  1  0
  4  5  1  0
  4  6  2  0
  6  7  1  0
  7  8  1  0
  8  9  1  0
  8 10  2  0
 10 11  1  0
 11 12  2  0
 12 13  1  0
 12 14  1  0
 14 15  1  0
 14 16  2  0
 16 17  1  0
 17 18  1  0
 18 19  1  0
 18 20  1  0
 18 21  1  0
 16 22  1  0
 22 23  1  0
 23 24  1  0
 24 25  1  0
 24 26  1  0
 24 27  1  0
 22 28  2  0
 28 29  1  0
 10 30  1  0
 30 31  1  0
 30 32  2  0
 32 33  1  0
 32 34  1  0
 34 35  2  0
  6 36  1  0
 36 37  1  0
 36 38  2  0
 38 39  1  0
 38  2  1  0
 34  7  1  0
 28 11  1  0
M  END
>  <cnnaffinity>  (1) 
-5.64408

>  <filename>  (1) 
COc1ccc(-c2ccc(=O)n(-c3cccnc3)c2)cc1OC

$$$$
