
     RDKit          3D

 37 39  0  0  0  0  0  0  0  0999 V2000
    4.9508    1.7792   16.9787 H   0  0  0  0  0  0  0  0  0  0  0  0
    5.4131    1.3079   17.8459 C   0  0  0  0  0  0  0  0  0  0  0  0
    6.6019    0.7193   17.6366 N   0  0  0  0  0  0  0  0  0  0  0  0
    7.1921    0.1246   18.6831 C   0  0  0  0  0  0  0  0  0  0  0  0
    8.1510   -0.3510   18.4897 H   0  0  0  0  0  0  0  0  0  0  0  0
    6.6304    0.0875   19.9729 C   0  0  0  0  0  0  0  0  0  0  0  0
    7.2421   -0.6246   21.0530 N   0  0  0  0  0  0  0  0  0  0  0  0
    7.5432    0.1294   22.1588 N   0  0  0  0  0  0  0  0  0  0  0  0
    8.2303   -0.4334   23.1158 C   0  0  0  0  0  0  0  0  0  0  0  0
    8.4964    0.3899   24.3513 C   0  0  0  0  0  0  0  0  0  0  0  0
    8.4815   -0.2678   25.2264 H   0  0  0  0  0  0  0  0  0  0  0  0
    7.6788    1.1132   24.4639 H   0  0  0  0  0  0  0  0  0  0  0  0
    9.8227    1.1085   24.2574 C   0  0  0  0  0  0  0  0  0  0  0  0
   11.0143    0.5385   24.7339 C   0  0  0  0  0  0  0  0  0  0  0  0
   10.9980   -0.4102   25.2661 H   0  0  0  0  0  0  0  0  0  0  0  0
   12.2277    1.1931   24.5249 C   0  0  0  0  0  0  0  0  0  0  0  0
   13.1551    0.7390   24.8683 H   0  0  0  0  0  0  0  0  0  0  0  0
   12.2700    2.4262   23.8626 C   0  0  0  0  0  0  0  0  0  0  0  0
   13.2221    2.9142   23.6774 H   0  0  0  0  0  0  0  0  0  0  0  0
   11.0773    3.0077   23.4074 C   0  0  0  0  0  0  0  0  0  0  0  0
   10.9754    4.2058   22.7710 O   0  0  0  0  0  0  0  0  0  0  0  0
   12.1451    4.9481   22.4963 C   0  0  0  0  0  0  0  0  0  0  0  0
   12.6445    5.2575   23.4245 H   0  0  0  0  0  0  0  0  0  0  0  0
   12.8496    4.3817   21.8722 H   0  0  0  0  0  0  0  0  0  0  0  0
   11.8205    5.8322   21.9478 H   0  0  0  0  0  0  0  0  0  0  0  0
    9.8637    2.3317   23.5948 C   0  0  0  0  0  0  0  0  0  0  0  0
    8.9553    2.7779   23.2008 H   0  0  0  0  0  0  0  0  0  0  0  0
    8.7187   -1.7931   23.0057 C   0  0  0  0  0  0  0  0  0  0  0  0
    9.4058   -2.1605   23.7706 H   0  0  0  0  0  0  0  0  0  0  0  0
    8.2673   -2.5844   21.9906 C   0  0  0  0  0  0  0  0  0  0  0  0
    8.5242   -3.6285   21.8681 H   0  0  0  0  0  0  0  0  0  0  0  0
    7.2915   -2.0678   21.0271 C   0  0  0  0  0  0  0  0  0  0  0  0
    6.6141   -2.7286   20.2607 O   0  0  0  0  0  0  0  0  0  0  0  0
    5.4278    0.7592   20.1937 C   0  0  0  0  0  0  0  0  0  0  0  0
    5.0418    0.8337   21.2081 H   0  0  0  0  0  0  0  0  0  0  0  0
    4.7898    1.3516   19.0975 C   0  0  0  0  0  0  0  0  0  0  0  0
    3.8484    1.8740   19.2191 H   0  0  0  0  0  0  0  0  0  0  0  0
  1  2  1  0
  2  3  2  0
  3  4  1  0
  4  5  1  0
  4  6  2  0
  6  7  1  0
  7  8  1  0
  8  9  2  0
  9 10  1  0
 10 11  1  0
 10 12  1  0
 10 13  1  0
 13 14  2  0
 14 15  1  0
 14 16  1  0
 16 17  1  0
 16 18  2  0
 18 19  1  0
 18 20  1  0
 20 21  1  0
 21 22  1  0
 22 23  1  0
 22 24  1  0
 22 25  1  0
 20 26  2  0
 26 27  1  0
  9 28  1  0
 28 29  1  0
 28 30  2  0
 30 31  1  0
 30 32  1  0
 32 33  2  0
  6 34  1  0
 34 35  1  0
 34 36  2  0
 36 37  1  0
 36  2  1  0
 32  7  1  0
 26 13  1  0
M  END
>  <cnnaffinity>  (1) 
-5.53248

>  <filename>  (1) 
COc1cccc(Cc2ccc(=O)n(-c3cccnc3)n2)c1

$$$$
