
     RDKit          3D

 33 36  0  0  0  0  0  0  0  0999 V2000
    4.9406    1.7721   16.9664 H   0  0  0  0  0  0  0  0  0  0  0  0
    5.3997    1.2938   17.8313 C   0  0  0  0  0  0  0  0  0  0  0  0
    6.5634    0.6639   17.6065 N   0  0  0  0  0  0  0  0  0  0  0  0
    7.1542    0.0923   18.6591 C   0  0  0  0  0  0  0  0  0  0  0  0
    8.0964   -0.4073   18.4494 H   0  0  0  0  0  0  0  0  0  0  0  0
    6.6509    0.1125   19.9763 C   0  0  0  0  0  0  0  0  0  0  0  0
    7.4268   -0.5676   21.0305 C   0  0  0  0  0  0  0  0  0  0  0  0
    8.2686   -1.6087   20.8734 C   0  0  0  0  0  0  0  0  0  0  0  0
    8.6380   -2.0129   19.9511 H   0  0  0  0  0  0  0  0  0  0  0  0
    8.8552   -2.2643   22.3701 S   0  0  0  0  0  0  0  0  0  0  0  0
    8.0618   -0.9863   23.2265 C   0  0  0  0  0  0  0  0  0  0  0  0
    8.0803   -0.4920   24.4373 N   0  0  0  0  0  0  0  0  0  0  0  0
    7.3287    0.6268   24.2783 C   0  0  0  0  0  0  0  0  0  0  0  0
    7.1064    1.5300   25.3815 C   0  0  0  0  0  0  0  0  0  0  0  0
    6.3389    2.6628   25.1658 C   0  0  0  0  0  0  0  0  0  0  0  0
    5.9320    2.8579   24.1771 H   0  0  0  0  0  0  0  0  0  0  0  0
    6.0644    3.5486   26.1303 N   0  0  0  0  0  0  0  0  0  0  0  0
    6.5704    3.3083   27.3309 C   0  0  0  0  0  0  0  0  0  0  0  0
    6.3480    4.1392   28.3587 O   0  0  0  0  0  0  0  0  0  0  0  0
    5.5415    5.2892   28.1424 C   0  0  0  0  0  0  0  0  0  0  0  0
    5.4964    5.7941   29.1061 H   0  0  0  0  0  0  0  0  0  0  0  0
    4.5351    5.0045   27.8146 H   0  0  0  0  0  0  0  0  0  0  0  0
    5.9938    5.9445   27.3894 H   0  0  0  0  0  0  0  0  0  0  0  0
    7.3705    2.1959   27.6477 C   0  0  0  0  0  0  0  0  0  0  0  0
    7.7198    2.1220   28.6638 H   0  0  0  0  0  0  0  0  0  0  0  0
    7.6532    1.2860   26.6621 C   0  0  0  0  0  0  0  0  0  0  0  0
    8.2771    0.4076   26.8553 H   0  0  0  0  0  0  0  0  0  0  0  0
    6.8441    0.8484   23.0603 N   0  0  0  0  0  0  0  0  0  0  0  0
    7.3274   -0.2282   22.3850 N   0  0  0  0  0  0  0  0  0  0  0  0
    5.4169    0.7555   20.1888 C   0  0  0  0  0  0  0  0  0  0  0  0
    4.9814    0.7945   21.1915 H   0  0  0  0  0  0  0  0  0  0  0  0
    4.7864    1.3431   19.0910 C   0  0  0  0  0  0  0  0  0  0  0  0
    3.8344    1.8531   19.1924 H   0  0  0  0  0  0  0  0  0  0  0  0
  1  2  1  0
  2  3  2  0
  3  4  1  0
  4  5  1  0
  4  6  2  0
  6  7  1  0
  7  8  2  0
  8  9  1  0
  8 10  1  0
 10 11  1  0
 11 12  2  0
 12 13  1  0
 13 14  1  0
 14 15  2  0
 15 16  1  0
 15 17  1  0
 17 18  2  0
 18 19  1  0
 19 20  1  0
 20 21  1  0
 20 22  1  0
 20 23  1  0
 18 24  1  0
 24 25  1  0
 24 26  2  0
 26 27  1  0
 13 28  2  0
 28 29  1  0
  6 30  1  0
 30 31  1  0
 30 32  2  0
 32 33  1  0
 32  2  1  0
 29  7  1  0
 29 11  1  0
 26 14  1  0
M  END
>  <cnnaffinity>  (1) 
-5.29953

>  <filename>  (1) 
COc1ccc(-c2nc3scc(-c4cccnc4)n3n2)cn1

$$$$
