
     RDKit          3D

 31 33  0  0  0  0  0  0  0  0999 V2000
    4.9304    1.8040   16.9822 H   0  0  0  0  0  0  0  0  0  0  0  0
    5.3970    1.2989   17.8270 C   0  0  0  0  0  0  0  0  0  0  0  0
    6.5594    0.6774   17.5708 N   0  0  0  0  0  0  0  0  0  0  0  0
    7.1560    0.0464   18.5858 C   0  0  0  0  0  0  0  0  0  0  0  0
    8.1043   -0.4385   18.3549 H   0  0  0  0  0  0  0  0  0  0  0  0
    6.6382    0.0146   19.8901 C   0  0  0  0  0  0  0  0  0  0  0  0
    7.3883   -0.6954   20.9222 C   0  0  0  0  0  0  0  0  0  0  0  0
    7.9751   -1.8340   20.7094 N   0  0  0  0  0  0  0  0  0  0  0  0
    8.4869   -2.1693   21.9203 N   0  0  0  0  0  0  0  0  0  0  0  0
    9.0242   -3.0096   22.0853 H   0  0  0  0  0  0  0  0  0  0  0  0
    8.2715   -1.2685   22.8907 C   0  0  0  0  0  0  0  0  0  0  0  0
    8.8140   -1.3893   24.4524 S   0  0  0  0  0  0  0  0  0  0  0  0
    7.5337   -0.2849   22.2423 N   0  0  0  0  0  0  0  0  0  0  0  0
    7.1403    0.9768   22.8113 C   0  0  0  0  0  0  0  0  0  0  0  0
    6.3709    1.0241   23.9951 C   0  0  0  0  0  0  0  0  0  0  0  0
    6.0725    0.1073   24.4996 H   0  0  0  0  0  0  0  0  0  0  0  0
    5.9859    2.1741   24.5499 N   0  0  0  0  0  0  0  0  0  0  0  0
    6.3550    3.3277   23.9699 C   0  0  0  0  0  0  0  0  0  0  0  0
    6.0270    4.2353   24.4696 H   0  0  0  0  0  0  0  0  0  0  0  0
    7.1193    3.3825   22.7863 C   0  0  0  0  0  0  0  0  0  0  0  0
    7.5002    4.5121   22.1404 O   0  0  0  0  0  0  0  0  0  0  0  0
    7.1415    5.7921   22.6401 C   0  0  0  0  0  0  0  0  0  0  0  0
    6.0528    5.9336   22.6836 H   0  0  0  0  0  0  0  0  0  0  0  0
    7.5732    6.4923   21.9254 H   0  0  0  0  0  0  0  0  0  0  0  0
    7.5611    5.9751   23.6384 H   0  0  0  0  0  0  0  0  0  0  0  0
    7.5172    2.1699   22.2000 C   0  0  0  0  0  0  0  0  0  0  0  0
    8.0740    2.1824   21.2632 H   0  0  0  0  0  0  0  0  0  0  0  0
    5.4161    0.6507   20.1415 C   0  0  0  0  0  0  0  0  0  0  0  0
    5.0057    0.6428   21.1525 H   0  0  0  0  0  0  0  0  0  0  0  0
    4.7896    1.3105   19.0884 C   0  0  0  0  0  0  0  0  0  0  0  0
    3.8618    1.8485   19.2349 H   0  0  0  0  0  0  0  0  0  0  0  0
  1  2  1  0
  2  3  2  0
  3  4  1  0
  4  5  1  0
  4  6  2  0
  6  7  1  0
  7  8  2  0
  8  9  1  0
  9 10  1  0
  9 11  1  0
 11 12  2  0
 11 13  1  0
 13 14  1  0
 14 15  2  0
 15 16  1  0
 15 17  1  0
 17 18  2  0
 18 19  1  0
 18 20  1  0
 20 21  1  0
 21 22  1  0
 22 23  1  0
 22 24  1  0
 22 25  1  0
 20 26  2  0
 26 27  1  0
  6 28  1  0
 28 29  1  0
 28 30  2  0
 30 31  1  0
 30  2  1  0
 13  7  1  0
 26 14  1  0
M  END
>  <cnnaffinity>  (1) 
-5.24926

>  <filename>  (1) 
COc1cncc(-n2c(-c3cccnc3)n[nH]c2=S)c1

$$$$
