
     RDKit          3D

 39 41  0  0  0  0  0  0  0  0999 V2000
    4.9446    1.8049   16.9532 H   0  0  0  0  0  0  0  0  0  0  0  0
    5.3880    1.3199   17.8183 C   0  0  0  0  0  0  0  0  0  0  0  0
    6.5532    0.6917   17.6030 N   0  0  0  0  0  0  0  0  0  0  0  0
    7.1389    0.1076   18.6502 C   0  0  0  0  0  0  0  0  0  0  0  0
    8.0638   -0.4435   18.4723 H   0  0  0  0  0  0  0  0  0  0  0  0
    6.6171    0.1569   19.9489 C   0  0  0  0  0  0  0  0  0  0  0  0
    7.3601   -0.5424   21.0122 C   0  0  0  0  0  0  0  0  0  0  0  0
    8.0075   -1.6059   20.6224 N   0  0  0  0  0  0  0  0  0  0  0  0
    8.4765   -2.4579   21.5683 C   0  0  0  0  0  0  0  0  0  0  0  0
    8.8376   -3.5884   21.3412 O   0  0  0  0  0  0  0  0  0  0  0  0
    8.5162   -2.0247   22.8804 N   0  0  0  0  0  0  0  0  0  0  0  0
    9.1490   -2.5011   23.4888 H   0  0  0  0  0  0  0  0  0  0  0  0
    7.9933   -0.8502   23.2677 C   0  0  0  0  0  0  0  0  0  0  0  0
    8.2194   -0.5670   24.5867 N   0  0  0  0  0  0  0  0  0  0  0  0
    8.2006    0.8401   24.9974 C   0  0  0  0  0  0  0  0  0  0  0  0
    8.6200    1.4608   24.1948 H   0  0  0  0  0  0  0  0  0  0  0  0
    7.1679    1.1833   25.1913 H   0  0  0  0  0  0  0  0  0  0  0  0
    9.0678    0.9942   26.2492 C   0  0  0  0  0  0  0  0  0  0  0  0
    9.0541    2.0400   26.5713 H   0  0  0  0  0  0  0  0  0  0  0  0
   10.1024    0.7437   25.9900 H   0  0  0  0  0  0  0  0  0  0  0  0
    8.5951    0.0653   27.3759 C   0  0  0  0  0  0  0  0  0  0  0  0
    9.3192    0.0641   28.2074 H   0  0  0  0  0  0  0  0  0  0  0  0
    7.3107    0.4697   27.8360 O   0  0  0  0  0  0  0  0  0  0  0  0
    7.3174    1.3882   28.9072 C   0  0  0  0  0  0  0  0  0  0  0  0
    7.9131    2.2922   28.6963 H   0  0  0  0  0  0  0  0  0  0  0  0
    6.2820    1.6921   29.0719 H   0  0  0  0  0  0  0  0  0  0  0  0
    7.6959    0.9233   29.8316 H   0  0  0  0  0  0  0  0  0  0  0  0
    8.4848   -1.3710   26.8729 C   0  0  0  0  0  0  0  0  0  0  0  0
    8.0579   -2.0029   27.6537 H   0  0  0  0  0  0  0  0  0  0  0  0
    9.4941   -1.7465   26.6700 H   0  0  0  0  0  0  0  0  0  0  0  0
    7.6560   -1.4791   25.5980 C   0  0  0  0  0  0  0  0  0  0  0  0
    6.5973   -1.2335   25.7891 H   0  0  0  0  0  0  0  0  0  0  0  0
    7.6754   -2.5126   25.2297 H   0  0  0  0  0  0  0  0  0  0  0  0
    7.3312   -0.0907   22.3475 C   0  0  0  0  0  0  0  0  0  0  0  0
    6.8109    0.7976   22.6577 H   0  0  0  0  0  0  0  0  0  0  0  0
    5.3755    0.7667   20.1527 C   0  0  0  0  0  0  0  0  0  0  0  0
    4.9010    0.7317   21.1355 H   0  0  0  0  0  0  0  0  0  0  0  0
    4.7509    1.3660   19.0625 C   0  0  0  0  0  0  0  0  0  0  0  0
    3.8005    1.8736   19.1673 H   0  0  0  0  0  0  0  0  0  0  0  0
  1  2  1  0
  2  3  2  0
  3  4  1  0
  4  5  1  0
  4  6  2  0
  6  7  1  0
  7  8  2  0
  8  9  1  0
  9 10  2  0
  9 11  1  0
 11 12  1  0
 11 13  1  0
 13 14  1  0
 14 15  1  0
 15 16  1  0
 15 17  1  0
 15 18  1  0
 18 19  1  0
 18 20  1  0
 18 21  1  0
 21 22  1  0
 21 23  1  0
 23 24  1  0
 24 25  1  0
 24 26  1  0
 24 27  1  0
 21 28  1  0
 28 29  1  0
 28 30  1  0
 28 31  1  0
 31 32  1  0
 31 33  1  0
 13 34  2  0
 34 35  1  0
  6 36  1  0
 36 37  1  0
 36 38  2  0
 38 39  1  0
 38  2  1  0
 34  7  1  0
 31 14  1  0
M  END
>  <cnnaffinity>  (1) 
-5.08004

>  <filename>  (1) 
COC1CCN(c2cc(-c3cccnc3)nc(=O)[nH]2)CC1

$$$$
