
     RDKit          3D

 37 39  0  0  0  0  0  0  0  0999 V2000
    4.9101    1.8043   16.9858 H   0  0  0  0  0  0  0  0  0  0  0  0
    5.3884    1.3018   17.8244 C   0  0  0  0  0  0  0  0  0  0  0  0
    6.5477    0.6816   17.5511 N   0  0  0  0  0  0  0  0  0  0  0  0
    7.1818    0.0751   18.5637 C   0  0  0  0  0  0  0  0  0  0  0  0
    8.1269   -0.4112   18.3275 H   0  0  0  0  0  0  0  0  0  0  0  0
    6.6864    0.0338   19.8858 C   0  0  0  0  0  0  0  0  0  0  0  0
    7.3705   -0.6810   20.9591 N   0  0  0  0  0  0  0  0  0  0  0  0
    6.7643   -1.8497   21.5200 C   0  0  0  0  0  0  0  0  0  0  0  0
    5.6979   -2.2538   21.0965 O   0  0  0  0  0  0  0  0  0  0  0  0
    7.4817   -2.5110   22.5656 C   0  0  0  0  0  0  0  0  0  0  0  0
    7.0366   -3.3845   22.9963 H   0  0  0  0  0  0  0  0  0  0  0  0
    8.6599   -2.0508   23.0038 C   0  0  0  0  0  0  0  0  0  0  0  0
    9.3831   -2.5616   24.0304 N   0  0  0  0  0  0  0  0  0  0  0  0
   10.3765   -2.5729   23.8728 H   0  0  0  0  0  0  0  0  0  0  0  0
    8.8435   -3.3280   25.0925 C   0  0  0  0  0  0  0  0  0  0  0  0
    7.6101   -2.9641   25.6513 C   0  0  0  0  0  0  0  0  0  0  0  0
    7.0914   -2.1135   25.2216 H   0  0  0  0  0  0  0  0  0  0  0  0
    7.0589   -3.6641   26.7312 C   0  0  0  0  0  0  0  0  0  0  0  0
    6.1040   -3.3631   27.1512 H   0  0  0  0  0  0  0  0  0  0  0  0
    7.7426   -4.7618   27.2676 C   0  0  0  0  0  0  0  0  0  0  0  0
    7.3100   -5.5121   28.3190 O   0  0  0  0  0  0  0  0  0  0  0  0
    6.0694   -5.2317   28.9405 C   0  0  0  0  0  0  0  0  0  0  0  0
    6.0510   -4.2311   29.3929 H   0  0  0  0  0  0  0  0  0  0  0  0
    5.9676   -5.9847   29.7257 H   0  0  0  0  0  0  0  0  0  0  0  0
    5.2283   -5.3156   28.2375 H   0  0  0  0  0  0  0  0  0  0  0  0
    8.9784   -5.1419   26.7088 C   0  0  0  0  0  0  0  0  0  0  0  0
    9.4834   -5.9968   27.1507 H   0  0  0  0  0  0  0  0  0  0  0  0
    9.5255   -4.4299   25.6349 C   0  0  0  0  0  0  0  0  0  0  0  0
   10.4824   -4.7306   25.2115 H   0  0  0  0  0  0  0  0  0  0  0  0
    9.2445   -1.0141   22.3470 N   0  0  0  0  0  0  0  0  0  0  0  0
   10.0621   -0.5249   22.6583 H   0  0  0  0  0  0  0  0  0  0  0  0
    8.6235   -0.2484   21.3955 C   0  0  0  0  0  0  0  0  0  0  0  0
    9.2003    0.7296   20.9827 O   0  0  0  0  0  0  0  0  0  0  0  0
    5.4650    0.6575   20.1442 C   0  0  0  0  0  0  0  0  0  0  0  0
    5.0422    0.5976   21.1444 H   0  0  0  0  0  0  0  0  0  0  0  0
    4.8120    1.3194   19.0966 C   0  0  0  0  0  0  0  0  0  0  0  0
    3.8765    1.8399   19.2530 H   0  0  0  0  0  0  0  0  0  0  0  0
  1  2  1  0
  2  3  2  0
  3  4  1  0
  4  5  1  0
  4  6  2  0
  6  7  1  0
  7  8  1  0
  8  9  2  0
  8 10  1  0
 10 11  1  0
 10 12  2  0
 12 13  1  0
 13 14  1  0
 13 15  1  0
 15 16  2  0
 16 17  1  0
 16 18  1  0
 18 19  1  0
 18 20  2  0
 20 21  1  0
 21 22  1  0
 22 23  1  0
 22 24  1  0
 22 25  1  0
 20 26  1  0
 26 27  1  0
 26 28  2  0
 28 29  1  0
 12 30  1  0
 30 31  1  0
 30 32  1  0
 32 33  2  0
  6 34  1  0
 34 35  1  0
 34 36  2  0
 36 37  1  0
 36  2  1  0
 32  7  1  0
 28 15  1  0
M  END
>  <cnnaffinity>  (1) 
-5.51799

>  <filename>  (1) 
COc1ccc(Nc2cc(=O)n(-c3cccnc3)c(=O)[nH]2)cc1

$$$$
