
     RDKit          3D

 32 34  0  0  0  0  0  0  0  0999 V2000
    4.9197    1.8222   16.9973 H   0  0  0  0  0  0  0  0  0  0  0  0
    5.4518    1.3190   17.8090 C   0  0  0  0  0  0  0  0  0  0  0  0
    6.6232    0.7483   17.4877 N   0  0  0  0  0  0  0  0  0  0  0  0
    7.2711    0.0830   18.4553 C   0  0  0  0  0  0  0  0  0  0  0  0
    8.2183   -0.3639   18.1675 H   0  0  0  0  0  0  0  0  0  0  0  0
    6.8008   -0.0771   19.7766 C   0  0  0  0  0  0  0  0  0  0  0  0
    7.5534   -0.8278   20.8152 C   0  0  0  0  0  0  0  0  0  0  0  0
    8.8658   -0.7581   21.1379 C   0  0  0  0  0  0  0  0  0  0  0  0
    9.6533   -0.2463   20.6019 H   0  0  0  0  0  0  0  0  0  0  0  0
    9.1492   -1.3849   22.3515 N   0  0  0  0  0  0  0  0  0  0  0  0
    9.9660   -1.9946   22.3926 H   0  0  0  0  0  0  0  0  0  0  0  0
    7.9596   -2.0420   22.7105 N   0  0  0  0  0  0  0  0  0  0  0  0
    7.8505   -2.6957   23.9603 C   0  0  0  0  0  0  0  0  0  0  0  0
    8.7909   -2.5087   24.9985 C   0  0  0  0  0  0  0  0  0  0  0  0
    9.6048   -1.7973   24.8854 H   0  0  0  0  0  0  0  0  0  0  0  0
    8.7194   -3.1620   26.1654 N   0  0  0  0  0  0  0  0  0  0  0  0
    7.7163   -4.0276   26.3548 C   0  0  0  0  0  0  0  0  0  0  0  0
    7.6746   -4.5593   27.3055 H   0  0  0  0  0  0  0  0  0  0  0  0
    6.7124   -4.2729   25.3810 C   0  0  0  0  0  0  0  0  0  0  0  0
    5.7536   -5.1842   25.6973 O   0  0  0  0  0  0  0  0  0  0  0  0
    4.7114   -5.4577   24.7727 C   0  0  0  0  0  0  0  0  0  0  0  0
    4.1178   -4.5591   24.5602 H   0  0  0  0  0  0  0  0  0  0  0  0
    5.1041   -5.8550   23.8276 H   0  0  0  0  0  0  0  0  0  0  0  0
    4.0755   -6.2088   25.2438 H   0  0  0  0  0  0  0  0  0  0  0  0
    6.7736   -3.5720   24.1739 C   0  0  0  0  0  0  0  0  0  0  0  0
    6.0235   -3.6693   23.3953 H   0  0  0  0  0  0  0  0  0  0  0  0
    6.9281   -1.7432   21.7915 C   0  0  0  0  0  0  0  0  0  0  0  0
    5.8029   -2.2196   21.7999 O   0  0  0  0  0  0  0  0  0  0  0  0
    5.5871    0.5573   20.0920 C   0  0  0  0  0  0  0  0  0  0  0  0
    5.2118    0.5163   21.1180 H   0  0  0  0  0  0  0  0  0  0  0  0
    4.9042    1.2606   19.0962 C   0  0  0  0  0  0  0  0  0  0  0  0
    3.9681    1.7693   19.2999 H   0  0  0  0  0  0  0  0  0  0  0  0
  1  2  1  0
  2  3  2  0
  3  4  1  0
  4  5  1  0
  4  6  2  0
  6  7  1  0
  7  8  2  0
  8  9  1  0
  8 10  1  0
 10 11  1  0
 10 12  1  0
 12 13  1  0
 13 14  2  0
 14 15  1  0
 14 16  1  0
 16 17  2  0
 17 18  1  0
 17 19  1  0
 19 20  1  0
 20 21  1  0
 21 22  1  0
 21 23  1  0
 21 24  1  0
 19 25  2  0
 25 26  1  0
 12 27  1  0
 27 28  2  0
  6 29  1  0
 29 30  1  0
 29 31  2  0
 31 32  1  0
 31  2  1  0
 27  7  1  0
 25 13  1  0
M  END
>  <cnnaffinity>  (1) 
-4.92957

>  <filename>  (1) 
COc1cncc(-n2[nH]cc(-c3cccnc3)c2=O)c1

$$$$
