
     RDKit          3D

 38 41  0  0  0  0  0  0  0  0999 V2000
    4.9718    1.8496   16.9108 H   0  0  0  0  0  0  0  0  0  0  0  0
    5.4111    1.2962   17.7417 C   0  0  0  0  0  0  0  0  0  0  0  0
    6.5573    0.6431   17.4943 N   0  0  0  0  0  0  0  0  0  0  0  0
    7.1440   -0.0002   18.5117 C   0  0  0  0  0  0  0  0  0  0  0  0
    8.0738   -0.5108   18.2715 H   0  0  0  0  0  0  0  0  0  0  0  0
    6.6200   -0.0358   19.8191 C   0  0  0  0  0  0  0  0  0  0  0  0
    7.3691   -0.6382   20.9390 C   0  0  0  0  0  0  0  0  0  0  0  0
    8.5132   -1.3119   20.7360 N   0  0  0  0  0  0  0  0  0  0  0  0
    8.9367   -1.5575   21.9907 N   0  0  0  0  0  0  0  0  0  0  0  0
   10.0852   -2.1091   22.5405 C   0  0  0  0  0  0  0  0  0  0  0  0
   10.8376   -2.5447   21.9117 H   0  0  0  0  0  0  0  0  0  0  0  0
    9.9911   -1.9197   23.8781 C   0  0  0  0  0  0  0  0  0  0  0  0
   10.6591   -2.1559   24.6911 H   0  0  0  0  0  0  0  0  0  0  0  0
    8.7969   -1.2664   24.1482 N   0  0  0  0  0  0  0  0  0  0  0  0
    8.4369   -0.8549   25.4209 N   0  0  0  0  0  0  0  0  0  0  0  0
    8.9245   -0.0002   25.6744 H   0  0  0  0  0  0  0  0  0  0  0  0
    7.0679   -0.6766   25.7443 C   0  0  0  0  0  0  0  0  0  0  0  0
    6.7273    0.4675   26.4799 C   0  0  0  0  0  0  0  0  0  0  0  0
    7.5081    1.1947   26.7125 H   0  0  0  0  0  0  0  0  0  0  0  0
    5.4146    0.6878   26.8803 C   0  0  0  0  0  0  0  0  0  0  0  0
    5.1421    1.5737   27.4452 H   0  0  0  0  0  0  0  0  0  0  0  0
    4.4147   -0.2522   26.5648 C   0  0  0  0  0  0  0  0  0  0  0  0
    3.1735    0.0285   27.0505 O   0  0  0  0  0  0  0  0  0  0  0  0
    2.1213   -0.8868   26.8184 C   0  0  0  0  0  0  0  0  0  0  0  0
    1.2433   -0.4723   27.3175 H   0  0  0  0  0  0  0  0  0  0  0  0
    2.3470   -1.8764   27.2395 H   0  0  0  0  0  0  0  0  0  0  0  0
    1.9177   -0.9896   25.7443 H   0  0  0  0  0  0  0  0  0  0  0  0
    4.7533   -1.3859   25.8109 C   0  0  0  0  0  0  0  0  0  0  0  0
    3.9953   -2.1107   25.5387 H   0  0  0  0  0  0  0  0  0  0  0  0
    6.0753   -1.5909   25.3957 C   0  0  0  0  0  0  0  0  0  0  0  0
    6.3422   -2.4345   24.7665 H   0  0  0  0  0  0  0  0  0  0  0  0
    8.1470   -1.0459   22.9504 C   0  0  0  0  0  0  0  0  0  0  0  0
    7.0576   -0.4725   22.3082 C   0  0  0  0  0  0  0  0  0  0  0  0
    6.1730   -0.0548   22.7573 H   0  0  0  0  0  0  0  0  0  0  0  0
    5.3994    0.6175   20.0467 C   0  0  0  0  0  0  0  0  0  0  0  0
    4.9393    0.6039   21.0357 H   0  0  0  0  0  0  0  0  0  0  0  0
    4.7908    1.2980   18.9950 C   0  0  0  0  0  0  0  0  0  0  0  0
    3.8755    1.8573   19.1482 H   0  0  0  0  0  0  0  0  0  0  0  0
  1  2  1  0
  2  3  2  0
  3  4  1  0
  4  5  1  0
  4  6  2  0
  6  7  1  0
  7  8  2  0
  8  9  1  0
  9 10  1  0
 10 11  1  0
 10 12  2  0
 12 13  1  0
 12 14  1  0
 14 15  1  0
 15 16  1  0
 15 17  1  0
 17 18  2  0
 18 19  1  0
 18 20  1  0
 20 21  1  0
 20 22  2  0
 22 23  1  0
 23 24  1  0
 24 25  1  0
 24 26  1  0
 24 27  1  0
 22 28  1  0
 28 29  1  0
 28 30  2  0
 30 31  1  0
 14 32  1  0
 32 33  2  0
 33 34  1  0
  6 35  1  0
 35 36  1  0
 35 37  2  0
 37 38  1  0
 37  2  1  0
 33  7  1  0
 32  9  1  0
 30 17  1  0
M  END
>  <cnnaffinity>  (1) 
-5.63872

>  <filename>  (1) 
COc1ccc(Nn2ccn3nc(-c4cccnc4)cc23)cc1

$$$$
