
     RDKit          3D

 42 45  0  0  0  0  0  0  0  0999 V2000
    4.9860    1.8492   16.9294 H   0  0  0  0  0  0  0  0  0  0  0  0
    5.4048    1.3013   17.7738 C   0  0  0  0  0  0  0  0  0  0  0  0
    6.5481    0.6396   17.5369 N   0  0  0  0  0  0  0  0  0  0  0  0
    7.1167    0.0036   18.5645 C   0  0  0  0  0  0  0  0  0  0  0  0
    8.0340   -0.5389   18.3327 H   0  0  0  0  0  0  0  0  0  0  0  0
    6.6058    0.0170   19.8764 C   0  0  0  0  0  0  0  0  0  0  0  0
    7.3563   -0.6101   20.9655 C   0  0  0  0  0  0  0  0  0  0  0  0
    7.8633   -1.8273   20.8135 N   0  0  0  0  0  0  0  0  0  0  0  0
    8.4873   -2.0529   21.9711 N   0  0  0  0  0  0  0  0  0  0  0  0
    8.4716   -1.0255   22.8297 C   0  0  0  0  0  0  0  0  0  0  0  0
    7.7123   -0.0395   22.2275 C   0  0  0  0  0  0  0  0  0  0  0  0
    7.4532    1.3187   22.8311 C   0  0  0  0  0  0  0  0  0  0  0  0
    6.7422    1.8751   22.2142 H   0  0  0  0  0  0  0  0  0  0  0  0
    8.3748    1.9160   22.8154 H   0  0  0  0  0  0  0  0  0  0  0  0
    6.9570    1.2373   24.2595 C   0  0  0  0  0  0  0  0  0  0  0  0
    7.8184    1.4276   25.3539 C   0  0  0  0  0  0  0  0  0  0  0  0
    8.8726    1.6313   25.1783 H   0  0  0  0  0  0  0  0  0  0  0  0
    7.3339    1.3191   26.6574 C   0  0  0  0  0  0  0  0  0  0  0  0
    8.0062    1.4886   27.4938 H   0  0  0  0  0  0  0  0  0  0  0  0
    5.9914    0.9971   26.9000 C   0  0  0  0  0  0  0  0  0  0  0  0
    5.6283    0.9337   27.9208 H   0  0  0  0  0  0  0  0  0  0  0  0
    5.1327    0.7779   25.8140 C   0  0  0  0  0  0  0  0  0  0  0  0
    3.8183    0.4264   25.8999 O   0  0  0  0  0  0  0  0  0  0  0  0
    3.2225    0.3173   27.1786 C   0  0  0  0  0  0  0  0  0  0  0  0
    3.2591    1.2758   27.7131 H   0  0  0  0  0  0  0  0  0  0  0  0
    3.7146   -0.4573   27.7816 H   0  0  0  0  0  0  0  0  0  0  0  0
    2.1787    0.0363   27.0144 H   0  0  0  0  0  0  0  0  0  0  0  0
    5.6246    0.9158   24.5091 C   0  0  0  0  0  0  0  0  0  0  0  0
    4.9227    0.7355   23.7007 H   0  0  0  0  0  0  0  0  0  0  0  0
    9.3884   -1.3150   23.9912 C   0  0  0  0  0  0  0  0  0  0  0  0
   10.1260   -0.5189   24.1268 H   0  0  0  0  0  0  0  0  0  0  0  0
    8.8250   -1.4145   24.9214 H   0  0  0  0  0  0  0  0  0  0  0  0
   10.0615   -2.6638   23.5984 C   0  0  0  0  0  0  0  0  0  0  0  0
   11.1408   -2.5628   23.5046 H   0  0  0  0  0  0  0  0  0  0  0  0
    9.8611   -3.4415   24.3368 H   0  0  0  0  0  0  0  0  0  0  0  0
    9.4844   -3.0556   22.2158 C   0  0  0  0  0  0  0  0  0  0  0  0
    9.0271   -4.0459   22.1847 H   0  0  0  0  0  0  0  0  0  0  0  0
   10.2312   -2.9472   21.4256 H   0  0  0  0  0  0  0  0  0  0  0  0
    5.3782    0.6598   20.0897 C   0  0  0  0  0  0  0  0  0  0  0  0
    4.8931    0.6240   21.0684 H   0  0  0  0  0  0  0  0  0  0  0  0
    4.7750    1.3148   19.0203 C   0  0  0  0  0  0  0  0  0  0  0  0
    3.8441    1.8499   19.1409 H   0  0  0  0  0  0  0  0  0  0  0  0
  1  2  1  0
  2  3  2  0
  3  4  1  0
  4  5  1  0
  4  6  2  0
  6  7  1  0
  7  8  2  0
  8  9  1  0
  9 10  1  0
 10 11  2  0
 11 12  1  0
 12 13  1  0
 12 14  1  0
 12 15  1  0
 15 16  2  0
 16 17  1  0
 16 18  1  0
 18 19  1  0
 18 20  2  0
 20 21  1  0
 20 22  1  0
 22 23  1  0
 23 24  1  0
 24 25  1  0
 24 26  1  0
 24 27  1  0
 22 28  2  0
 28 29  1  0
 10 30  1  0
 30 31  1  0
 30 32  1  0
 30 33  1  0
 33 34  1  0
 33 35  1  0
 33 36  1  0
 36 37  1  0
 36 38  1  0
  6 39  1  0
 39 40  1  0
 39 41  2  0
 41 42  1  0
 41  2  1  0
 11  7  1  0
 28 15  1  0
 36  9  1  0
M  END
>  <cnnaffinity>  (1) 
-5.63443

>  <filename>  (1) 
COc1cccc(Cc2c(-c3cccnc3)nn3c2CCC3)c1

$$$$
