
     RDKit          3D

 36 37  0  0  0  0  0  0  0  0999 V2000
    5.0410    1.7322   17.0493 H   0  0  0  0  0  0  0  0  0  0  0  0
    5.4877    1.2507   17.9221 C   0  0  0  0  0  0  0  0  0  0  0  0
    6.6535    0.6182   17.7192 N   0  0  0  0  0  0  0  0  0  0  0  0
    7.2125    0.0080   18.7660 C   0  0  0  0  0  0  0  0  0  0  0  0
    8.1463   -0.5263   18.6008 H   0  0  0  0  0  0  0  0  0  0  0  0
    6.6631   -0.0017   20.0507 C   0  0  0  0  0  0  0  0  0  0  0  0
    7.4079   -0.8254   21.0235 C   0  0  0  0  0  0  0  0  0  0  0  0
    8.1463   -1.7299   20.7131 O   0  0  0  0  0  0  0  0  0  0  0  0
    7.1306   -0.5471   22.3333 N   0  0  0  0  0  0  0  0  0  0  0  0
    6.9764    0.3687   22.7181 H   0  0  0  0  0  0  0  0  0  0  0  0
    7.9453   -1.4026   23.4813 S   0  0  0  0  0  0  0  0  0  0  0  0
    7.5655   -0.6489   24.6603 O   0  0  0  0  0  0  0  0  0  0  0  0
    9.3258   -1.5823   23.1195 O   0  0  0  0  0  0  0  0  0  0  0  0
    7.0556   -2.9118   23.4399 C   0  0  0  0  0  0  0  0  0  0  0  0
    5.8153   -3.0832   22.8233 C   0  0  0  0  0  0  0  0  0  0  0  0
    5.3784   -2.3224   22.1842 H   0  0  0  0  0  0  0  0  0  0  0  0
    5.0925   -4.2507   23.0065 C   0  0  0  0  0  0  0  0  0  0  0  0
    4.0949   -4.3345   22.5976 H   0  0  0  0  0  0  0  0  0  0  0  0
    5.6526   -5.2926   23.7520 C   0  0  0  0  0  0  0  0  0  0  0  0
    5.0655   -6.5022   23.9359 O   0  0  0  0  0  0  0  0  0  0  0  0
    3.8184   -6.7358   23.3073 C   0  0  0  0  0  0  0  0  0  0  0  0
    3.5656   -7.7771   23.5065 H   0  0  0  0  0  0  0  0  0  0  0  0
    3.8865   -6.5730   22.2217 H   0  0  0  0  0  0  0  0  0  0  0  0
    3.0394   -6.0770   23.7190 H   0  0  0  0  0  0  0  0  0  0  0  0
    6.8953   -5.1190   24.3687 C   0  0  0  0  0  0  0  0  0  0  0  0
    7.2817   -5.9376   24.9550 H   0  0  0  0  0  0  0  0  0  0  0  0
    7.5919   -3.9197   24.2517 C   0  0  0  0  0  0  0  0  0  0  0  0
    8.7419   -3.6641   24.8976 O   0  0  0  0  0  0  0  0  0  0  0  0
    9.3954   -4.7137   25.6038 C   0  0  0  0  0  0  0  0  0  0  0  0
   10.3323   -4.2926   25.9698 H   0  0  0  0  0  0  0  0  0  0  0  0
    8.7919   -5.0514   26.4570 H   0  0  0  0  0  0  0  0  0  0  0  0
    9.6122   -5.5600   24.9378 H   0  0  0  0  0  0  0  0  0  0  0  0
    5.4504    0.6733   20.2636 C   0  0  0  0  0  0  0  0  0  0  0  0
    4.9781    0.7111   21.2477 H   0  0  0  0  0  0  0  0  0  0  0  0
    4.8526    1.2978   19.1690 C   0  0  0  0  0  0  0  0  0  0  0  0
    3.9148    1.8303   19.2692 H   0  0  0  0  0  0  0  0  0  0  0  0
  1  2  1  0
  2  3  2  0
  3  4  1  0
  4  5  1  0
  4  6  2  0
  6  7  1  0
  7  8  2  0
  7  9  1  0
  9 10  1  0
  9 11  1  0
 11 12  2  0
 11 13  2  0
 11 14  1  0
 14 15  2  0
 15 16  1  0
 15 17  1  0
 17 18  1  0
 17 19  2  0
 19 20  1  0
 20 21  1  0
 21 22  1  0
 21 23  1  0
 21 24  1  0
 19 25  1  0
 25 26  1  0
 25 27  2  0
 27 28  1  0
 28 29  1  0
 29 30  1  0
 29 31  1  0
 29 32  1  0
  6 33  1  0
 33 34  1  0
 33 35  2  0
 35 36  1  0
 35  2  1  0
 27 14  1  0
M  END
>  <cnnaffinity>  (1) 
-4.9511

>  <filename>  (1) 
COc1ccc(S(=O)(=O)NC(=O)c2cccnc2)c(OC)c1

$$$$
