
     RDKit          3D

 36 38  0  0  0  0  0  0  0  0999 V2000
    9.3823    1.0727   20.5392 H   0  0  0  0  0  0  0  0  0  0  0  0
    9.6939    0.1521   21.0418 C   0  0  0  0  0  0  0  0  0  0  0  0
    8.7602   -0.7705   21.3658 C   0  0  0  0  0  0  0  0  0  0  0  0
    7.3061   -0.8053   21.0144 C   0  0  0  0  0  0  0  0  0  0  0  0
    6.6521   -0.0230   19.9332 C   0  0  0  0  0  0  0  0  0  0  0  0
    7.2309    0.0141   18.6610 C   0  0  0  0  0  0  0  0  0  0  0  0
    8.1711   -0.5030   18.4776 H   0  0  0  0  0  0  0  0  0  0  0  0
    6.6917    0.6475   17.6105 N   0  0  0  0  0  0  0  0  0  0  0  0
    5.5348    1.2949   17.8099 C   0  0  0  0  0  0  0  0  0  0  0  0
    5.1176    1.8105   16.9472 H   0  0  0  0  0  0  0  0  0  0  0  0
    4.8557    1.3094   19.0361 C   0  0  0  0  0  0  0  0  0  0  0  0
    3.9210    1.8591   19.1266 H   0  0  0  0  0  0  0  0  0  0  0  0
    5.4136    0.6197   20.1135 C   0  0  0  0  0  0  0  0  0  0  0  0
    4.9064    0.5772   21.0792 H   0  0  0  0  0  0  0  0  0  0  0  0
    6.6198   -1.6165   21.7298 N   0  0  0  0  0  0  0  0  0  0  0  0
    7.4763   -2.2149   22.7524 C   0  0  0  0  0  0  0  0  0  0  0  0
    7.1979   -1.7716   23.7131 H   0  0  0  0  0  0  0  0  0  0  0  0
    7.2732   -3.2841   22.8282 H   0  0  0  0  0  0  0  0  0  0  0  0
    8.9378   -1.8880   22.3794 C   0  0  0  0  0  0  0  0  0  0  0  0
    9.5517   -1.5872   23.2342 H   0  0  0  0  0  0  0  0  0  0  0  0
    9.4054   -2.7597   21.9084 H   0  0  0  0  0  0  0  0  0  0  0  0
   11.1327    0.0983   21.4411 C   0  0  0  0  0  0  0  0  0  0  0  0
   11.8583   -1.1117   21.4368 C   0  0  0  0  0  0  0  0  0  0  0  0
   11.3740   -2.0122   21.0649 H   0  0  0  0  0  0  0  0  0  0  0  0
   13.1692   -1.1918   21.9177 C   0  0  0  0  0  0  0  0  0  0  0  0
   13.6884   -2.1446   21.9248 H   0  0  0  0  0  0  0  0  0  0  0  0
   13.7895   -0.0560   22.4370 C   0  0  0  0  0  0  0  0  0  0  0  0
   14.7896   -0.1135   22.8658 H   0  0  0  0  0  0  0  0  0  0  0  0
   13.1162    1.1723   22.4160 C   0  0  0  0  0  0  0  0  0  0  0  0
   13.6009    2.0599   22.8070 H   0  0  0  0  0  0  0  0  0  0  0  0
   11.8116    1.2658   21.9001 C   0  0  0  0  0  0  0  0  0  0  0  0
   11.0888    2.4213   21.8733 O   0  0  0  0  0  0  0  0  0  0  0  0
   11.6446    3.6571   22.2834 C   0  0  0  0  0  0  0  0  0  0  0  0
   12.2428    3.5837   23.2025 H   0  0  0  0  0  0  0  0  0  0  0  0
   10.7878    4.3017   22.4838 H   0  0  0  0  0  0  0  0  0  0  0  0
   12.2567    4.0880   21.4814 H   0  0  0  0  0  0  0  0  0  0  0  0
  1  2  1  0
  2  3  2  3
  3  4  1  0
  4  5  1  0
  5  6  2  0
  6  7  1  0
  6  8  1  0
  8  9  2  0
  9 10  1  0
  9 11  1  0
 11 12  1  0
 11 13  2  0
 13 14  1  0
  4 15  2  0
 15 16  1  0
 16 17  1  0
 16 18  1  0
 16 19  1  0
 19 20  1  0
 19 21  1  0
  2 22  1  0
 22 23  2  0
 23 24  1  0
 23 25  1  0
 25 26  1  0
 25 27  2  0
 27 28  1  0
 27 29  1  0
 29 30  1  0
 29 31  2  0
 31 32  1  0
 32 33  1  0
 33 34  1  0
 33 35  1  0
 33 36  1  0
 19  3  1  0
 31 22  1  0
 13  5  1  0
M  END
>  <cnnaffinity>  (1) 
-5.98832

>  <filename>  (1) 
COc1ccccc1C=C1CCN=C1c1cccnc1

$$$$
