
     RDKit          3D

 38 41  0  0  0  0  0  0  0  0999 V2000
    4.9439    1.8115   16.9817 H   0  0  0  0  0  0  0  0  0  0  0  0
    5.4037    1.2939   17.8213 C   0  0  0  0  0  0  0  0  0  0  0  0
    6.5652    0.6686   17.5682 N   0  0  0  0  0  0  0  0  0  0  0  0
    7.1564    0.0275   18.5796 C   0  0  0  0  0  0  0  0  0  0  0  0
    8.1079   -0.4491   18.3448 H   0  0  0  0  0  0  0  0  0  0  0  0
    6.6280   -0.0220   19.8820 C   0  0  0  0  0  0  0  0  0  0  0  0
    7.3540   -0.6926   20.9611 C   0  0  0  0  0  0  0  0  0  0  0  0
    8.0748   -1.7887   20.7313 N   0  0  0  0  0  0  0  0  0  0  0  0
    8.5486   -2.1051   21.9353 N   0  0  0  0  0  0  0  0  0  0  0  0
    8.2184   -1.2775   22.9208 C   0  0  0  0  0  0  0  0  0  0  0  0
    7.4369   -0.3001   22.3372 C   0  0  0  0  0  0  0  0  0  0  0  0
    7.0850    0.9469   22.9932 C   0  0  0  0  0  0  0  0  0  0  0  0
    7.2736    2.1866   22.3552 C   0  0  0  0  0  0  0  0  0  0  0  0
    7.6618    2.2269   21.3449 H   0  0  0  0  0  0  0  0  0  0  0  0
    6.9625    3.3401   23.0436 C   0  0  0  0  0  0  0  0  0  0  0  0
    7.0931    4.3131   22.5725 H   0  0  0  0  0  0  0  0  0  0  0  0
    6.4914    3.3386   24.3039 N   0  0  0  0  0  0  0  0  0  0  0  0
    6.3337    2.1615   24.8885 C   0  0  0  0  0  0  0  0  0  0  0  0
    5.8651    2.0857   26.1427 O   0  0  0  0  0  0  0  0  0  0  0  0
    5.5341    3.2733   26.8503 C   0  0  0  0  0  0  0  0  0  0  0  0
    5.1952    2.8922   27.8145 H   0  0  0  0  0  0  0  0  0  0  0  0
    4.7417    3.8364   26.3381 H   0  0  0  0  0  0  0  0  0  0  0  0
    6.4077    3.9302   26.9615 H   0  0  0  0  0  0  0  0  0  0  0  0
    6.6247    0.9326   24.2960 C   0  0  0  0  0  0  0  0  0  0  0  0
    6.4599    0.0356   24.8778 H   0  0  0  0  0  0  0  0  0  0  0  0
    9.0703   -1.5110   24.1414 C   0  0  0  0  0  0  0  0  0  0  0  0
    9.6672   -0.6117   24.3363 H   0  0  0  0  0  0  0  0  0  0  0  0
    8.4684   -1.7038   25.0348 H   0  0  0  0  0  0  0  0  0  0  0  0
    9.9420   -2.7280   23.7216 C   0  0  0  0  0  0  0  0  0  0  0  0
   11.0033   -2.5048   23.7811 H   0  0  0  0  0  0  0  0  0  0  0  0
    9.7530   -3.5987   24.3483 H   0  0  0  0  0  0  0  0  0  0  0  0
    9.5716   -3.0601   22.2513 C   0  0  0  0  0  0  0  0  0  0  0  0
    9.1592   -4.0658   22.1472 H   0  0  0  0  0  0  0  0  0  0  0  0
   10.4055   -2.8942   21.5647 H   0  0  0  0  0  0  0  0  0  0  0  0
    5.4112    0.6315   20.1272 C   0  0  0  0  0  0  0  0  0  0  0  0
    4.9875    0.6439   21.1322 H   0  0  0  0  0  0  0  0  0  0  0  0
    4.7910    1.3013   19.0785 C   0  0  0  0  0  0  0  0  0  0  0  0
    3.8652    1.8455   19.2297 H   0  0  0  0  0  0  0  0  0  0  0  0
  1  2  1  0
  2  3  2  0
  3  4  1  0
  4  5  1  0
  4  6  2  0
  6  7  1  0
  7  8  2  0
  8  9  1  0
  9 10  1  0
 10 11  2  0
 11 12  1  0
 12 13  2  0
 13 14  1  0
 13 15  1  0
 15 16  1  0
 15 17  2  0
 17 18  1  0
 18 19  1  0
 19 20  1  0
 20 21  1  0
 20 22  1  0
 20 23  1  0
 18 24  2  0
 24 25  1  0
 10 26  1  0
 26 27  1  0
 26 28  1  0
 26 29  1  0
 29 30  1  0
 29 31  1  0
 29 32  1  0
 32 33  1  0
 32 34  1  0
  6 35  1  0
 35 36  1  0
 35 37  2  0
 37 38  1  0
 37  2  1  0
 11  7  1  0
 24 12  1  0
 32  9  1  0
M  END
>  <cnnaffinity>  (1) 
-5.54862

>  <filename>  (1) 
COc1cc(-c2c(-c3cccnc3)nn3c2CCC3)ccn1

$$$$
