
     RDKit          3D

 40 42  0  0  0  0  0  0  0  0999 V2000
    4.9185    1.8103   16.9438 H   0  0  0  0  0  0  0  0  0  0  0  0
    5.3945    1.3113   17.7843 C   0  0  0  0  0  0  0  0  0  0  0  0
    6.5395    0.6700   17.5020 N   0  0  0  0  0  0  0  0  0  0  0  0
    7.1703    0.0415   18.5012 C   0  0  0  0  0  0  0  0  0  0  0  0
    8.0969   -0.4723   18.2534 H   0  0  0  0  0  0  0  0  0  0  0  0
    6.6911    0.0210   19.8254 C   0  0  0  0  0  0  0  0  0  0  0  0
    7.4074   -0.6505   20.8801 N   0  0  0  0  0  0  0  0  0  0  0  0
    6.7685   -1.6924   21.5289 C   0  0  0  0  0  0  0  0  0  0  0  0
    5.7555   -1.9052   21.2031 H   0  0  0  0  0  0  0  0  0  0  0  0
    7.3525   -2.4341   22.5221 C   0  0  0  0  0  0  0  0  0  0  0  0
    6.6392   -3.5267   23.0275 N   0  0  0  0  0  0  0  0  0  0  0  0
    5.6374   -3.3949   22.9520 H   0  0  0  0  0  0  0  0  0  0  0  0
    7.0220   -4.2590   24.2281 C   0  0  0  0  0  0  0  0  0  0  0  0
    7.2173   -3.5780   25.0763 H   0  0  0  0  0  0  0  0  0  0  0  0
    7.9714   -4.7755   24.0245 H   0  0  0  0  0  0  0  0  0  0  0  0
    5.9419   -5.2611   24.6192 C   0  0  0  0  0  0  0  0  0  0  0  0
    5.2105   -5.0843   25.8073 C   0  0  0  0  0  0  0  0  0  0  0  0
    5.3712   -4.1843   26.3963 H   0  0  0  0  0  0  0  0  0  0  0  0
    4.2685   -6.0186   26.2327 C   0  0  0  0  0  0  0  0  0  0  0  0
    3.6933   -5.8938   27.1448 H   0  0  0  0  0  0  0  0  0  0  0  0
    4.0074   -7.1569   25.4572 C   0  0  0  0  0  0  0  0  0  0  0  0
    3.0639   -7.9947   25.9779 O   0  0  0  0  0  0  0  0  0  0  0  0
    2.7445   -9.2183   25.3473 C   0  0  0  0  0  0  0  0  0  0  0  0
    3.5368   -9.9655   25.4754 H   0  0  0  0  0  0  0  0  0  0  0  0
    2.5451   -9.0933   24.2775 H   0  0  0  0  0  0  0  0  0  0  0  0
    1.8302   -9.5768   25.8281 H   0  0  0  0  0  0  0  0  0  0  0  0
    4.6828   -7.3239   24.2398 C   0  0  0  0  0  0  0  0  0  0  0  0
    4.4520   -8.1688   23.6042 H   0  0  0  0  0  0  0  0  0  0  0  0
    5.6307   -6.3730   23.8241 C   0  0  0  0  0  0  0  0  0  0  0  0
    6.1398   -6.5060   22.8687 H   0  0  0  0  0  0  0  0  0  0  0  0
    8.6760   -2.0526   22.9397 C   0  0  0  0  0  0  0  0  0  0  0  0
    9.1474   -2.6145   23.7475 H   0  0  0  0  0  0  0  0  0  0  0  0
    9.3218   -1.0094   22.3318 C   0  0  0  0  0  0  0  0  0  0  0  0
   10.3191   -0.6843   22.6004 H   0  0  0  0  0  0  0  0  0  0  0  0
    8.7461   -0.2415   21.2320 C   0  0  0  0  0  0  0  0  0  0  0  0
    9.3281    0.6571   20.6474 O   0  0  0  0  0  0  0  0  0  0  0  0
    5.4770    0.6619   20.0983 C   0  0  0  0  0  0  0  0  0  0  0  0
    5.0899    0.6309   21.1174 H   0  0  0  0  0  0  0  0  0  0  0  0
    4.8209    1.3335   19.0609 C   0  0  0  0  0  0  0  0  0  0  0  0
    3.8855    1.8577   19.2249 H   0  0  0  0  0  0  0  0  0  0  0  0
  1  2  1  0
  2  3  2  0
  3  4  1  0
  4  5  1  0
  4  6  2  0
  6  7  1  0
  7  8  1  0
  8  9  1  0
  8 10  2  0
 10 11  1  0
 11 12  1  0
 11 13  1  0
 13 14  1  0
 13 15  1  0
 13 16  1  0
 16 17  2  0
 17 18  1  0
 17 19  1  0
 19 20  1  0
 19 21  2  0
 21 22  1  0
 22 23  1  0
 23 24  1  0
 23 25  1  0
 23 26  1  0
 21 27  1  0
 27 28  1  0
 27 29  2  0
 29 30  1  0
 10 31  1  0
 31 32  1  0
 31 33  2  0
 33 34  1  0
 33 35  1  0
 35 36  2  0
  6 37  1  0
 37 38  1  0
 37 39  2  0
 39 40  1  0
 39  2  1  0
 35  7  1  0
 29 16  1  0
M  END
>  <cnnaffinity>  (1) 
-5.50985

>  <filename>  (1) 
COc1ccc(CNc2ccc(=O)n(-c3cccnc3)c2)cc1

$$$$
