
     RDKit          3D

 33 36  0  0  0  0  0  0  0  0999 V2000
    4.9417    1.7875   16.9685 H   0  0  0  0  0  0  0  0  0  0  0  0
    5.4005    1.2941   17.8229 C   0  0  0  0  0  0  0  0  0  0  0  0
    6.5628    0.6639   17.5882 N   0  0  0  0  0  0  0  0  0  0  0  0
    7.1570    0.0778   18.6305 C   0  0  0  0  0  0  0  0  0  0  0  0
    8.1030   -0.4105   18.4040 H   0  0  0  0  0  0  0  0  0  0  0  0
    6.6543    0.0817   19.9490 C   0  0  0  0  0  0  0  0  0  0  0  0
    7.4285   -0.6083   21.0011 C   0  0  0  0  0  0  0  0  0  0  0  0
    8.2903   -1.6294   20.8353 C   0  0  0  0  0  0  0  0  0  0  0  0
    8.7046   -1.9743   19.9063 H   0  0  0  0  0  0  0  0  0  0  0  0
    8.8702   -2.3055   22.3269 S   0  0  0  0  0  0  0  0  0  0  0  0
    8.0786   -1.0365   23.1992 C   0  0  0  0  0  0  0  0  0  0  0  0
    8.1082   -0.5324   24.4091 N   0  0  0  0  0  0  0  0  0  0  0  0
    7.3471    0.5877   24.2497 C   0  0  0  0  0  0  0  0  0  0  0  0
    7.0889    1.5580   25.3578 C   0  0  0  0  0  0  0  0  0  0  0  0
    7.6099    1.3702   26.6624 C   0  0  0  0  0  0  0  0  0  0  0  0
    8.2316    0.5146   26.8967 H   0  0  0  0  0  0  0  0  0  0  0  0
    7.3199    2.2987   27.6472 C   0  0  0  0  0  0  0  0  0  0  0  0
    7.7039    2.1678   28.6540 H   0  0  0  0  0  0  0  0  0  0  0  0
    6.5648    3.3949   27.4499 N   0  0  0  0  0  0  0  0  0  0  0  0
    6.0876    3.5667   26.2272 C   0  0  0  0  0  0  0  0  0  0  0  0
    5.3203    4.6259   25.9252 O   0  0  0  0  0  0  0  0  0  0  0  0
    5.0247    5.5611   26.9516 C   0  0  0  0  0  0  0  0  0  0  0  0
    5.9464    6.0034   27.3435 H   0  0  0  0  0  0  0  0  0  0  0  0
    4.4835    5.0742   27.7695 H   0  0  0  0  0  0  0  0  0  0  0  0
    4.4030    6.3281   26.4910 H   0  0  0  0  0  0  0  0  0  0  0  0
    6.3176    2.6974   25.1521 C   0  0  0  0  0  0  0  0  0  0  0  0
    5.8767    2.9685   24.2043 H   0  0  0  0  0  0  0  0  0  0  0  0
    6.8576    0.7893   23.0291 N   0  0  0  0  0  0  0  0  0  0  0  0
    7.3310   -0.2848   22.3599 N   0  0  0  0  0  0  0  0  0  0  0  0
    5.4222    0.7269   20.1692 C   0  0  0  0  0  0  0  0  0  0  0  0
    4.9922    0.7620   21.1741 H   0  0  0  0  0  0  0  0  0  0  0  0
    4.7912    1.3309   19.0837 C   0  0  0  0  0  0  0  0  0  0  0  0
    3.8438    1.8487   19.1976 H   0  0  0  0  0  0  0  0  0  0  0  0
  1  2  1  0
  2  3  2  0
  3  4  1  0
  4  5  1  0
  4  6  2  0
  6  7  1  0
  7  8  2  0
  8  9  1  0
  8 10  1  0
 10 11  1  0
 11 12  2  0
 12 13  1  0
 13 14  1  0
 14 15  2  0
 15 16  1  0
 15 17  1  0
 17 18  1  0
 17 19  2  0
 19 20  1  0
 20 21  1  0
 21 22  1  0
 22 23  1  0
 22 24  1  0
 22 25  1  0
 20 26  2  0
 26 27  1  0
 13 28  2  0
 28 29  1  0
  6 30  1  0
 30 31  1  0
 30 32  2  0
 32 33  1  0
 32  2  1  0
 29  7  1  0
 29 11  1  0
 26 14  1  0
M  END
>  <cnnaffinity>  (1) 
-5.25779

>  <filename>  (1) 
COc1cc(-c2nc3scc(-c4cccnc4)n3n2)ccn1

$$$$
