
     RDKit          3D

 38 40  0  0  0  0  0  0  0  0999 V2000
    4.9350    1.7913   16.9889 H   0  0  0  0  0  0  0  0  0  0  0  0
    5.3953    1.2932   17.8392 C   0  0  0  0  0  0  0  0  0  0  0  0
    6.5505    0.6628   17.5864 N   0  0  0  0  0  0  0  0  0  0  0  0
    7.1452    0.0396   18.6069 C   0  0  0  0  0  0  0  0  0  0  0  0
    8.1111   -0.4164   18.3898 H   0  0  0  0  0  0  0  0  0  0  0  0
    6.6181   -0.0171   19.9083 C   0  0  0  0  0  0  0  0  0  0  0  0
    7.3254   -0.7387   20.9826 C   0  0  0  0  0  0  0  0  0  0  0  0
    6.6052   -1.5215   21.7632 N   0  0  0  0  0  0  0  0  0  0  0  0
    7.1970   -2.1941   22.8119 C   0  0  0  0  0  0  0  0  0  0  0  0
    6.3082   -3.0432   23.6743 C   0  0  0  0  0  0  0  0  0  0  0  0
    5.3297   -3.8463   23.0769 C   0  0  0  0  0  0  0  0  0  0  0  0
    5.2252   -3.7892   21.9966 H   0  0  0  0  0  0  0  0  0  0  0  0
    4.5066   -4.7016   23.8108 C   0  0  0  0  0  0  0  0  0  0  0  0
    3.7602   -5.3105   23.3139 H   0  0  0  0  0  0  0  0  0  0  0  0
    4.6452   -4.7522   25.2021 C   0  0  0  0  0  0  0  0  0  0  0  0
    3.8993   -5.5394   26.0186 O   0  0  0  0  0  0  0  0  0  0  0  0
    2.8932   -6.3869   25.4927 C   0  0  0  0  0  0  0  0  0  0  0  0
    2.4691   -6.8883   26.3640 H   0  0  0  0  0  0  0  0  0  0  0  0
    3.3010   -7.1402   24.8026 H   0  0  0  0  0  0  0  0  0  0  0  0
    2.1016   -5.8243   24.9759 H   0  0  0  0  0  0  0  0  0  0  0  0
    5.6010   -3.9506   25.8470 C   0  0  0  0  0  0  0  0  0  0  0  0
    5.6863   -4.0140   26.9270 H   0  0  0  0  0  0  0  0  0  0  0  0
    6.4206   -3.1025   25.0969 C   0  0  0  0  0  0  0  0  0  0  0  0
    7.3589   -2.2980   25.6575 O   0  0  0  0  0  0  0  0  0  0  0  0
    7.5672   -2.2272   27.0538 C   0  0  0  0  0  0  0  0  0  0  0  0
    6.6711   -1.8937   27.5963 H   0  0  0  0  0  0  0  0  0  0  0  0
    7.9165   -3.1846   27.4643 H   0  0  0  0  0  0  0  0  0  0  0  0
    8.3531   -1.4784   27.1723 H   0  0  0  0  0  0  0  0  0  0  0  0
    8.5550   -2.1210   23.0287 C   0  0  0  0  0  0  0  0  0  0  0  0
    9.0426   -2.6644   23.8257 H   0  0  0  0  0  0  0  0  0  0  0  0
    9.3199   -1.3360   22.2072 N   0  0  0  0  0  0  0  0  0  0  0  0
   10.3150   -1.1615   22.2884 H   0  0  0  0  0  0  0  0  0  0  0  0
    8.8189   -0.5602   21.1700 C   0  0  0  0  0  0  0  0  0  0  0  0
    9.6146    0.1394   20.5673 O   0  0  0  0  0  0  0  0  0  0  0  0
    5.4022    0.6413   20.1553 C   0  0  0  0  0  0  0  0  0  0  0  0
    4.9680    0.6347   21.1569 H   0  0  0  0  0  0  0  0  0  0  0  0
    4.7924    1.3182   19.1019 C   0  0  0  0  0  0  0  0  0  0  0  0
    3.8650    1.8612   19.2403 H   0  0  0  0  0  0  0  0  0  0  0  0
  1  2  1  0
  2  3  2  0
  3  4  1  0
  4  5  1  0
  4  6  2  0
  6  7  1  0
  7  8  2  0
  8  9  1  0
  9 10  1  0
 10 11  2  0
 11 12  1  0
 11 13  1  0
 13 14  1  0
 13 15  2  0
 15 16  1  0
 16 17  1  0
 17 18  1  0
 17 19  1  0
 17 20  1  0
 15 21  1  0
 21 22  1  0
 21 23  2  0
 23 24  1  0
 24 25  1  0
 25 26  1  0
 25 27  1  0
 25 28  1  0
  9 29  2  0
 29 30  1  0
 29 31  1  0
 31 32  1  0
 31 33  1  0
 33 34  2  0
  6 35  1  0
 35 36  1  0
 35 37  2  0
 37 38  1  0
 37  2  1  0
 33  7  1  0
 23 10  1  0
M  END
>  <cnnaffinity>  (1) 
-5.43853

>  <filename>  (1) 
COc1ccc(-c2c[nH]c(=O)c(-c3cccnc3)n2)c(OC)c1

$$$$
