
     RDKit          3D

 34 36  0  0  0  0  0  0  0  0999 V2000
    5.0884    1.8279   17.0188 H   0  0  0  0  0  0  0  0  0  0  0  0
    5.5573    1.2982   17.8462 C   0  0  0  0  0  0  0  0  0  0  0  0
    6.7501    0.7328   17.5848 N   0  0  0  0  0  0  0  0  0  0  0  0
    7.3508    0.0711   18.5769 C   0  0  0  0  0  0  0  0  0  0  0  0
    8.3349   -0.3468   18.3723 H   0  0  0  0  0  0  0  0  0  0  0  0
    6.7671   -0.1143   19.8449 C   0  0  0  0  0  0  0  0  0  0  0  0
    7.4491   -0.8819   20.8413 N   0  0  0  0  0  0  0  0  0  0  0  0
    8.7993   -0.6352   20.9208 N   0  0  0  0  0  0  0  0  0  0  0  0
    9.4638   -1.1234   21.9374 C   0  0  0  0  0  0  0  0  0  0  0  0
   10.9069   -0.7231   22.0662 C   0  0  0  0  0  0  0  0  0  0  0  0
   11.9419   -1.6658   22.0701 C   0  0  0  0  0  0  0  0  0  0  0  0
   11.6820   -2.7204   22.0045 H   0  0  0  0  0  0  0  0  0  0  0  0
   13.2825   -1.2680   22.1398 C   0  0  0  0  0  0  0  0  0  0  0  0
   14.0738   -2.0091   22.1611 H   0  0  0  0  0  0  0  0  0  0  0  0
   13.6026    0.0899   22.2049 C   0  0  0  0  0  0  0  0  0  0  0  0
   14.6445    0.4045   22.1965 H   0  0  0  0  0  0  0  0  0  0  0  0
   12.5855    1.0486   22.2315 C   0  0  0  0  0  0  0  0  0  0  0  0
   12.8179    2.1107   22.2754 H   0  0  0  0  0  0  0  0  0  0  0  0
   11.2428    0.6435   22.1793 C   0  0  0  0  0  0  0  0  0  0  0  0
   10.2085    1.5172   22.2993 O   0  0  0  0  0  0  0  0  0  0  0  0
   10.3946    2.8709   21.9554 C   0  0  0  0  0  0  0  0  0  0  0  0
    9.3909    3.3011   21.8948 H   0  0  0  0  0  0  0  0  0  0  0  0
   10.9896    3.4146   22.7030 H   0  0  0  0  0  0  0  0  0  0  0  0
   10.8859    2.9583   20.9790 H   0  0  0  0  0  0  0  0  0  0  0  0
    8.8474   -2.0027   22.8971 C   0  0  0  0  0  0  0  0  0  0  0  0
    9.4523   -2.3643   23.7234 H   0  0  0  0  0  0  0  0  0  0  0  0
    7.5331   -2.3402   22.7564 C   0  0  0  0  0  0  0  0  0  0  0  0
    6.9930   -2.9874   23.4349 H   0  0  0  0  0  0  0  0  0  0  0  0
    6.7346   -1.8533   21.6392 C   0  0  0  0  0  0  0  0  0  0  0  0
    5.6033   -2.2195   21.3803 O   0  0  0  0  0  0  0  0  0  0  0  0
    5.5315    0.4856   20.1175 C   0  0  0  0  0  0  0  0  0  0  0  0
    5.0725    0.3826   21.0993 H   0  0  0  0  0  0  0  0  0  0  0  0
    4.9281    1.2189   19.0922 C   0  0  0  0  0  0  0  0  0  0  0  0
    3.9774    1.7198   19.2460 H   0  0  0  0  0  0  0  0  0  0  0  0
  1  2  1  0
  2  3  2  0
  3  4  1  0
  4  5  1  0
  4  6  2  0
  6  7  1  0
  7  8  1  0
  8  9  2  0
  9 10  1  0
 10 11  2  0
 11 12  1  0
 11 13  1  0
 13 14  1  0
 13 15  2  0
 15 16  1  0
 15 17  1  0
 17 18  1  0
 17 19  2  0
 19 20  1  0
 20 21  1  0
 21 22  1  0
 21 23  1  0
 21 24  1  0
  9 25  1  0
 25 26  1  0
 25 27  2  0
 27 28  1  0
 27 29  1  0
 29 30  2  0
  6 31  1  0
 31 32  1  0
 31 33  2  0
 33 34  1  0
 33  2  1  0
 29  7  1  0
 19 10  1  0
M  END
>  <cnnaffinity>  (1) 
-5.21813

>  <filename>  (1) 
COc1ccccc1-c1ccc(=O)n(-c2cccnc2)n1

$$$$
