
     RDKit          3D

 39 42  0  0  0  0  0  0  0  0999 V2000
    4.9438    1.8151   16.9800 H   0  0  0  0  0  0  0  0  0  0  0  0
    5.4028    1.2935   17.8181 C   0  0  0  0  0  0  0  0  0  0  0  0
    6.5629    0.6691   17.5628 N   0  0  0  0  0  0  0  0  0  0  0  0
    7.1539    0.0218   18.5709 C   0  0  0  0  0  0  0  0  0  0  0  0
    8.1081   -0.4500   18.3365 H   0  0  0  0  0  0  0  0  0  0  0  0
    6.6241   -0.0296   19.8722 C   0  0  0  0  0  0  0  0  0  0  0  0
    7.3558   -0.6903   20.9534 C   0  0  0  0  0  0  0  0  0  0  0  0
    8.0766   -1.7872   20.7336 N   0  0  0  0  0  0  0  0  0  0  0  0
    8.5574   -2.0870   21.9386 N   0  0  0  0  0  0  0  0  0  0  0  0
    8.2286   -1.2514   22.9186 C   0  0  0  0  0  0  0  0  0  0  0  0
    7.4488   -0.2786   22.3231 C   0  0  0  0  0  0  0  0  0  0  0  0
    7.0869    0.9724   22.9661 C   0  0  0  0  0  0  0  0  0  0  0  0
    7.2820    2.1990   22.3193 C   0  0  0  0  0  0  0  0  0  0  0  0
    7.6798    2.2096   21.3069 H   0  0  0  0  0  0  0  0  0  0  0  0
    6.9709    3.3919   22.9650 C   0  0  0  0  0  0  0  0  0  0  0  0
    7.1122    4.3390   22.4557 H   0  0  0  0  0  0  0  0  0  0  0  0
    6.4648    3.3762   24.2736 C   0  0  0  0  0  0  0  0  0  0  0  0
    6.1191    4.4716   24.9859 O   0  0  0  0  0  0  0  0  0  0  0  0
    6.2536    5.7539   24.4089 C   0  0  0  0  0  0  0  0  0  0  0  0
    5.9068    6.4384   25.1845 H   0  0  0  0  0  0  0  0  0  0  0  0
    7.3003    5.9657   24.1495 H   0  0  0  0  0  0  0  0  0  0  0  0
    5.6353    5.8517   23.5054 H   0  0  0  0  0  0  0  0  0  0  0  0
    6.2918    2.1287   24.9178 C   0  0  0  0  0  0  0  0  0  0  0  0
    5.8143    2.0913   26.1754 F   0  0  0  0  0  0  0  0  0  0  0  0
    6.6064    0.9476   24.2852 C   0  0  0  0  0  0  0  0  0  0  0  0
    6.4554    0.0139   24.8237 H   0  0  0  0  0  0  0  0  0  0  0  0
    9.0719   -1.4947   24.1458 C   0  0  0  0  0  0  0  0  0  0  0  0
    8.4686   -1.6949   25.0377 H   0  0  0  0  0  0  0  0  0  0  0  0
    9.6701   -0.5989   24.3491 H   0  0  0  0  0  0  0  0  0  0  0  0
    9.9470   -2.7110   23.7252 C   0  0  0  0  0  0  0  0  0  0  0  0
   11.0074   -2.4833   23.7818 H   0  0  0  0  0  0  0  0  0  0  0  0
    9.7659   -3.5844   24.3510 H   0  0  0  0  0  0  0  0  0  0  0  0
    9.5760   -3.0458   22.2565 C   0  0  0  0  0  0  0  0  0  0  0  0
    9.1597   -4.0500   22.1551 H   0  0  0  0  0  0  0  0  0  0  0  0
   10.4111   -2.8872   21.5697 H   0  0  0  0  0  0  0  0  0  0  0  0
    5.4119    0.6281   20.1225 C   0  0  0  0  0  0  0  0  0  0  0  0
    5.0006    0.6534   21.1322 H   0  0  0  0  0  0  0  0  0  0  0  0
    4.7905    1.2992   19.0749 C   0  0  0  0  0  0  0  0  0  0  0  0
    3.8665    1.8443   19.2293 H   0  0  0  0  0  0  0  0  0  0  0  0
  1  2  1  0
  2  3  2  0
  3  4  1  0
  4  5  1  0
  4  6  2  0
  6  7  1  0
  7  8  2  0
  8  9  1  0
  9 10  1  0
 10 11  2  0
 11 12  1  0
 12 13  2  0
 13 14  1  0
 13 15  1  0
 15 16  1  0
 15 17  2  0
 17 18  1  0
 18 19  1  0
 19 20  1  0
 19 21  1  0
 19 22  1  0
 17 23  1  0
 23 24  1  0
 23 25  2  0
 25 26  1  0
 10 27  1  0
 27 28  1  0
 27 29  1  0
 27 30  1  0
 30 31  1  0
 30 32  1  0
 30 33  1  0
 33 34  1  0
 33 35  1  0
  6 36  1  0
 36 37  1  0
 36 38  2  0
 38 39  1  0
 38  2  1  0
 11  7  1  0
 25 12  1  0
 33  9  1  0
M  END
>  <cnnaffinity>  (1) 
-5.73178

>  <filename>  (1) 
COc1ccc(-c2c(-c3cccnc3)nn3c2CCC3)cc1F

$$$$
