
     RDKit          3D

 35 38  0  0  0  0  0  0  0  0999 V2000
    4.9531    1.8037   16.9795 H   0  0  0  0  0  0  0  0  0  0  0  0
    5.4030    1.2880   17.8264 C   0  0  0  0  0  0  0  0  0  0  0  0
    6.5609    0.6553   17.5808 N   0  0  0  0  0  0  0  0  0  0  0  0
    7.1548    0.0258   18.5977 C   0  0  0  0  0  0  0  0  0  0  0  0
    8.1012   -0.4583   18.3639 H   0  0  0  0  0  0  0  0  0  0  0  0
    6.6426    0.0002   19.9041 C   0  0  0  0  0  0  0  0  0  0  0  0
    7.3869   -0.6691   20.9668 C   0  0  0  0  0  0  0  0  0  0  0  0
    8.0494   -1.8504   20.7431 N   0  0  0  0  0  0  0  0  0  0  0  0
    8.4596   -2.2023   21.9319 C   0  0  0  0  0  0  0  0  0  0  0  0
    9.3396   -3.5371   22.6076 S   0  0  0  0  0  0  0  0  0  0  0  0
    9.4261   -2.7334   24.1558 C   0  0  0  0  0  0  0  0  0  0  0  0
   10.0041   -3.2005   24.9429 H   0  0  0  0  0  0  0  0  0  0  0  0
    8.7416   -1.5760   24.1570 C   0  0  0  0  0  0  0  0  0  0  0  0
    8.5937   -0.8545   24.9530 H   0  0  0  0  0  0  0  0  0  0  0  0
    8.1640   -1.3064   22.9200 N   0  0  0  0  0  0  0  0  0  0  0  0
    7.4859   -0.2712   22.3010 C   0  0  0  0  0  0  0  0  0  0  0  0
    7.0913    0.9550   22.9781 C   0  0  0  0  0  0  0  0  0  0  0  0
    7.3021    2.1977   22.3607 C   0  0  0  0  0  0  0  0  0  0  0  0
    7.7530    2.2277   21.3730 H   0  0  0  0  0  0  0  0  0  0  0  0
    6.9038    3.3820   22.9801 C   0  0  0  0  0  0  0  0  0  0  0  0
    7.0651    4.3377   22.4888 H   0  0  0  0  0  0  0  0  0  0  0  0
    6.2814    3.3474   24.2338 C   0  0  0  0  0  0  0  0  0  0  0  0
    5.8604    4.4288   24.9262 O   0  0  0  0  0  0  0  0  0  0  0  0
    6.0339    5.7199   24.3794 C   0  0  0  0  0  0  0  0  0  0  0  0
    5.4965    5.8268   23.4257 H   0  0  0  0  0  0  0  0  0  0  0  0
    5.6148    6.3868   25.1318 H   0  0  0  0  0  0  0  0  0  0  0  0
    7.0975    5.9453   24.2135 H   0  0  0  0  0  0  0  0  0  0  0  0
    6.0628    2.0889   24.8440 C   0  0  0  0  0  0  0  0  0  0  0  0
    5.4649    2.0344   26.0467 F   0  0  0  0  0  0  0  0  0  0  0  0
    6.4553    0.9158   24.2349 C   0  0  0  0  0  0  0  0  0  0  0  0
    6.2327   -0.0259   24.7267 H   0  0  0  0  0  0  0  0  0  0  0  0
    5.4189    0.6533   20.1432 C   0  0  0  0  0  0  0  0  0  0  0  0
    4.9918    0.6762   21.1483 H   0  0  0  0  0  0  0  0  0  0  0  0
    4.7925    1.3053   19.0850 C   0  0  0  0  0  0  0  0  0  0  0  0
    3.8621    1.8471   19.2218 H   0  0  0  0  0  0  0  0  0  0  0  0
  1  2  1  0
  2  3  2  0
  3  4  1  0
  4  5  1  0
  4  6  2  0
  6  7  1  0
  7  8  1  0
  8  9  2  0
  9 10  1  0
 10 11  1  0
 11 12  1  0
 11 13  2  0
 13 14  1  0
 13 15  1  0
 15 16  1  0
 16 17  1  0
 17 18  2  0
 18 19  1  0
 18 20  1  0
 20 21  1  0
 20 22  2  0
 22 23  1  0
 23 24  1  0
 24 25  1  0
 24 26  1  0
 24 27  1  0
 22 28  1  0
 28 29  1  0
 28 30  2  0
 30 31  1  0
  6 32  1  0
 32 33  1  0
 32 34  2  0
 34 35  1  0
 34  2  1  0
 16  7  2  0
 30 17  1  0
 15  9  1  0
M  END
>  <cnnaffinity>  (1) 
-5.83387

>  <filename>  (1) 
COc1ccc(-c2c(-c3cccnc3)nc3sccn23)cc1F

$$$$
