
     RDKit          3D

 37 39  0  0  0  0  0  0  0  0999 V2000
    4.9283    1.7971   16.9971 H   0  0  0  0  0  0  0  0  0  0  0  0
    5.3968    1.2900   17.8350 C   0  0  0  0  0  0  0  0  0  0  0  0
    6.5541    0.6619   17.5683 N   0  0  0  0  0  0  0  0  0  0  0  0
    7.1736    0.0461   18.5828 C   0  0  0  0  0  0  0  0  0  0  0  0
    8.1268   -0.4337   18.3632 H   0  0  0  0  0  0  0  0  0  0  0  0
    6.6534    0.0021   19.8923 C   0  0  0  0  0  0  0  0  0  0  0  0
    7.3310   -0.6786   20.9528 N   0  0  0  0  0  0  0  0  0  0  0  0
    6.7341   -1.6056   21.7932 C   0  0  0  0  0  0  0  0  0  0  0  0
    5.6855   -1.8425   21.7201 H   0  0  0  0  0  0  0  0  0  0  0  0
    7.6667   -2.0572   22.6667 C   0  0  0  0  0  0  0  0  0  0  0  0
    7.5637   -2.9862   23.7942 C   0  0  0  0  0  0  0  0  0  0  0  0
    8.2927   -2.7915   24.9754 C   0  0  0  0  0  0  0  0  0  0  0  0
    8.9677   -1.9395   25.0442 H   0  0  0  0  0  0  0  0  0  0  0  0
    8.1502   -3.6319   26.0781 C   0  0  0  0  0  0  0  0  0  0  0  0
    8.7204   -3.4591   26.9821 H   0  0  0  0  0  0  0  0  0  0  0  0
    7.2537   -4.7066   26.0085 C   0  0  0  0  0  0  0  0  0  0  0  0
    7.0253   -5.5910   27.0117 O   0  0  0  0  0  0  0  0  0  0  0  0
    7.7221   -5.4699   28.2364 C   0  0  0  0  0  0  0  0  0  0  0  0
    8.8103   -5.5570   28.0996 H   0  0  0  0  0  0  0  0  0  0  0  0
    7.5017   -4.5133   28.7286 H   0  0  0  0  0  0  0  0  0  0  0  0
    7.3534   -6.2953   28.8466 H   0  0  0  0  0  0  0  0  0  0  0  0
    6.5109   -4.9345   24.8433 C   0  0  0  0  0  0  0  0  0  0  0  0
    5.8213   -5.7707   24.8312 H   0  0  0  0  0  0  0  0  0  0  0  0
    6.6641   -4.0887   23.7458 C   0  0  0  0  0  0  0  0  0  0  0  0
    5.9869   -4.2506   22.5818 O   0  0  0  0  0  0  0  0  0  0  0  0
    5.0740   -5.3079   22.3822 C   0  0  0  0  0  0  0  0  0  0  0  0
    5.5495   -6.2941   22.4758 H   0  0  0  0  0  0  0  0  0  0  0  0
    4.2150   -5.2442   23.0642 H   0  0  0  0  0  0  0  0  0  0  0  0
    4.7346   -5.1693   21.3557 H   0  0  0  0  0  0  0  0  0  0  0  0
    8.8288   -1.3727   22.3460 N   0  0  0  0  0  0  0  0  0  0  0  0
    9.7551   -1.4535   22.7293 H   0  0  0  0  0  0  0  0  0  0  0  0
    8.6505   -0.5037   21.3235 C   0  0  0  0  0  0  0  0  0  0  0  0
    9.8154    0.5309   20.7698 S   0  0  0  0  0  0  0  0  0  0  0  0
    5.4419    0.6459   20.1542 C   0  0  0  0  0  0  0  0  0  0  0  0
    5.0343    0.6297   21.1669 H   0  0  0  0  0  0  0  0  0  0  0  0
    4.8044    1.3105   19.1031 C   0  0  0  0  0  0  0  0  0  0  0  0
    3.8725    1.8439   19.2618 H   0  0  0  0  0  0  0  0  0  0  0  0
  1  2  1  0
  2  3  2  0
  3  4  1  0
  4  5  1  0
  4  6  2  0
  6  7  1  0
  7  8  1  0
  8  9  1  0
  8 10  2  0
 10 11  1  0
 11 12  2  0
 12 13  1  0
 12 14  1  0
 14 15  1  0
 14 16  2  0
 16 17  1  0
 17 18  1  0
 18 19  1  0
 18 20  1  0
 18 21  1  0
 16 22  1  0
 22 23  1  0
 22 24  2  0
 24 25  1  0
 25 26  1  0
 26 27  1  0
 26 28  1  0
 26 29  1  0
 10 30  1  0
 30 31  1  0
 30 32  1  0
 32 33  2  0
  6 34  1  0
 34 35  1  0
 34 36  2  0
 36 37  1  0
 36  2  1  0
 32  7  1  0
 24 11  1  0
M  END
>  <cnnaffinity>  (1) 
-5.57387

>  <filename>  (1) 
COc1ccc(-c2cn(-c3cccnc3)c(=S)[nH]2)c(OC)c1

$$$$
