
     RDKit          3D

 38 40  0  0  0  0  0  0  0  0999 V2000
    4.9482    1.8361   16.9938 H   0  0  0  0  0  0  0  0  0  0  0  0
    5.3836    1.2898   17.8267 C   0  0  0  0  0  0  0  0  0  0  0  0
    6.5339    0.6477   17.5752 N   0  0  0  0  0  0  0  0  0  0  0  0
    7.1203    0.0222   18.5991 C   0  0  0  0  0  0  0  0  0  0  0  0
    8.0857   -0.4424   18.3976 H   0  0  0  0  0  0  0  0  0  0  0  0
    6.5787   -0.0434   19.8986 C   0  0  0  0  0  0  0  0  0  0  0  0
    7.2967   -0.7801   20.9913 C   0  0  0  0  0  0  0  0  0  0  0  0
    6.5544   -1.5630   21.7375 N   0  0  0  0  0  0  0  0  0  0  0  0
    7.1241   -2.2325   22.7970 N   0  0  0  0  0  0  0  0  0  0  0  0
    6.2621   -3.0109   23.6480 C   0  0  0  0  0  0  0  0  0  0  0  0
    6.5076   -3.0902   25.0270 C   0  0  0  0  0  0  0  0  0  0  0  0
    7.3246   -2.5151   25.4535 H   0  0  0  0  0  0  0  0  0  0  0  0
    5.6813   -3.8732   25.8488 C   0  0  0  0  0  0  0  0  0  0  0  0
    5.8707   -3.9407   26.9150 H   0  0  0  0  0  0  0  0  0  0  0  0
    4.6193   -4.5890   25.3046 C   0  0  0  0  0  0  0  0  0  0  0  0
    3.7401   -5.3644   25.9883 O   0  0  0  0  0  0  0  0  0  0  0  0
    3.8717   -5.5455   27.3718 C   0  0  0  0  0  0  0  0  0  0  0  0
    3.7687   -4.5955   27.9119 H   0  0  0  0  0  0  0  0  0  0  0  0
    4.8289   -6.0201   27.6228 H   0  0  0  0  0  0  0  0  0  0  0  0
    3.0533   -6.2106   27.6492 H   0  0  0  0  0  0  0  0  0  0  0  0
    4.3877   -4.5223   23.8987 C   0  0  0  0  0  0  0  0  0  0  0  0
    3.3496   -5.2870   23.4921 O   0  0  0  0  0  0  0  0  0  0  0  0
    2.9938   -5.3260   22.1476 C   0  0  0  0  0  0  0  0  0  0  0  0
    2.1249   -5.9804   22.0969 H   0  0  0  0  0  0  0  0  0  0  0  0
    3.8112   -5.7164   21.5256 H   0  0  0  0  0  0  0  0  0  0  0  0
    2.7153   -4.3243   21.8236 H   0  0  0  0  0  0  0  0  0  0  0  0
    5.1857   -3.7161   23.0842 C   0  0  0  0  0  0  0  0  0  0  0  0
    4.9799   -3.5922   22.0243 H   0  0  0  0  0  0  0  0  0  0  0  0
    8.4815   -2.1721   23.0355 C   0  0  0  0  0  0  0  0  0  0  0  0
    8.8449   -2.7876   23.8591 H   0  0  0  0  0  0  0  0  0  0  0  0
    9.3138   -1.4208   22.3033 C   0  0  0  0  0  0  0  0  0  0  0  0
   10.3771   -1.3640   22.5016 H   0  0  0  0  0  0  0  0  0  0  0  0
    8.7965   -0.6068   21.2088 C   0  0  0  0  0  0  0  0  0  0  0  0
    9.5299    0.1212   20.5496 O   0  0  0  0  0  0  0  0  0  0  0  0
    5.3619    0.6149   20.1355 C   0  0  0  0  0  0  0  0  0  0  0  0
    4.9238    0.5858   21.1345 H   0  0  0  0  0  0  0  0  0  0  0  0
    4.7639    1.3075   19.0809 C   0  0  0  0  0  0  0  0  0  0  0  0
    3.8529    1.8809   19.2186 H   0  0  0  0  0  0  0  0  0  0  0  0
  1  2  1  0
  2  3  2  0
  3  4  1  0
  4  5  1  0
  4  6  2  0
  6  7  1  0
  7  8  2  0
  8  9  1  0
  9 10  1  0
 10 11  2  0
 11 12  1  0
 11 13  1  0
 13 14  1  0
 13 15  2  0
 15 16  1  0
 16 17  1  0
 17 18  1  0
 17 19  1  0
 17 20  1  0
 15 21  1  0
 21 22  1  0
 22 23  1  0
 23 24  1  0
 23 25  1  0
 23 26  1  0
 21 27  2  0
 27 28  1  0
  9 29  1  0
 29 30  1  0
 29 31  2  0
 31 32  1  0
 31 33  1  0
 33 34  2  0
  6 35  1  0
 35 36  1  0
 35 37  2  0
 37 38  1  0
 37  2  1  0
 33  7  1  0
 27 10  1  0
M  END
>  <cnnaffinity>  (1) 
-5.22552

>  <filename>  (1) 
COc1ccc(-n2ccc(=O)c(-c3cccnc3)n2)cc1OC

$$$$
