
     RDKit          3D

 32 33  0  0  0  0  0  0  0  0999 V2000
    8.0746    3.2559   25.9973 H   0  0  0  0  0  0  0  0  0  0  0  0
    8.1870    2.6642   25.0913 C   0  0  0  0  0  0  0  0  0  0  0  0
    9.1126    1.7026   25.1573 N   0  0  0  0  0  0  0  0  0  0  0  0
    9.3058    0.9268   24.0987 C   0  0  0  0  0  0  0  0  0  0  0  0
   10.2294   -0.0501   24.1858 O   0  0  0  0  0  0  0  0  0  0  0  0
   10.8917   -0.2402   25.4374 C   0  0  0  0  0  0  0  0  0  0  0  0
   11.4975   -1.1206   25.2967 H   0  0  0  0  0  0  0  0  0  0  0  0
   11.5203    0.6177   25.6739 H   0  0  0  0  0  0  0  0  0  0  0  0
   10.1676   -0.3666   26.2463 H   0  0  0  0  0  0  0  0  0  0  0  0
    8.5464    1.0440   22.8716 C   0  0  0  0  0  0  0  0  0  0  0  0
    8.6823    0.2353   21.6796 N   0  0  0  0  0  0  0  0  0  0  0  0
    9.9826    0.2429   21.0172 C   0  0  0  0  0  0  0  0  0  0  0  0
   10.7649   -0.0737   21.7156 H   0  0  0  0  0  0  0  0  0  0  0  0
    9.9755   -0.4460   20.1719 H   0  0  0  0  0  0  0  0  0  0  0  0
   10.2101    1.2502   20.6503 H   0  0  0  0  0  0  0  0  0  0  0  0
    7.5078   -0.8614   21.1544 S   0  0  0  0  0  0  0  0  0  0  0  0
    6.6008   -1.1592   22.2371 O   0  0  0  0  0  0  0  0  0  0  0  0
    8.2454   -1.8923   20.4552 O   0  0  0  0  0  0  0  0  0  0  0  0
    6.6369    0.0495   19.9607 C   0  0  0  0  0  0  0  0  0  0  0  0
    7.2067    0.0333   18.6989 C   0  0  0  0  0  0  0  0  0  0  0  0
    8.1222   -0.5234   18.5018 H   0  0  0  0  0  0  0  0  0  0  0  0
    6.6319    0.6422   17.6653 N   0  0  0  0  0  0  0  0  0  0  0  0
    5.4666    1.2783   17.8677 C   0  0  0  0  0  0  0  0  0  0  0  0
    5.0203    1.7688   17.0019 H   0  0  0  0  0  0  0  0  0  0  0  0
    4.8237    1.3143   19.1107 C   0  0  0  0  0  0  0  0  0  0  0  0
    3.8814    1.8363   19.2188 H   0  0  0  0  0  0  0  0  0  0  0  0
    5.4215    0.6879   20.2011 C   0  0  0  0  0  0  0  0  0  0  0  0
    4.9606    0.6706   21.1908 H   0  0  0  0  0  0  0  0  0  0  0  0
    7.6247    2.0854   22.8383 C   0  0  0  0  0  0  0  0  0  0  0  0
    7.0810    2.2283   21.9073 H   0  0  0  0  0  0  0  0  0  0  0  0
    7.4278    2.9036   23.9623 C   0  0  0  0  0  0  0  0  0  0  0  0
    6.7067    3.7086   23.9498 H   0  0  0  0  0  0  0  0  0  0  0  0
  1  2  1  0
  2  3  2  0
  3  4  1  0
  4  5  1  0
  5  6  1  0
  6  7  1  0
  6  8  1  0
  6  9  1  0
  4 10  2  0
 10 11  1  0
 11 12  1  0
 12 13  1  0
 12 14  1  0
 12 15  1  0
 11 16  1  0
 16 17  2  0
 16 18  2  0
 16 19  1  0
 19 20  2  0
 20 21  1  0
 20 22  1  0
 22 23  2  0
 23 24  1  0
 23 25  1  0
 25 26  1  0
 25 27  2  0
 27 28  1  0
 10 29  1  0
 29 30  1  0
 29 31  2  0
 31 32  1  0
 31  2  1  0
 27 19  1  0
M  END
>  <cnnaffinity>  (1) 
-4.45334

>  <filename>  (1) 
COc1ncccc1N(C)S(=O)(=O)c1cccnc1

$$$$
