
     RDKit          3D

 31 33  0  0  0  0  0  0  0  0999 V2000
    4.9097    1.8135   16.9921 H   0  0  0  0  0  0  0  0  0  0  0  0
    5.4041    1.2991   17.8127 C   0  0  0  0  0  0  0  0  0  0  0  0
    6.5603    0.6864   17.5184 N   0  0  0  0  0  0  0  0  0  0  0  0
    7.2160    0.0611   18.5072 C   0  0  0  0  0  0  0  0  0  0  0  0
    8.1706   -0.4004   18.2636 H   0  0  0  0  0  0  0  0  0  0  0  0
    6.7204    0.0120   19.8231 C   0  0  0  0  0  0  0  0  0  0  0  0
    7.3033   -0.6915   20.8789 O   0  0  0  0  0  0  0  0  0  0  0  0
    8.6251   -0.7379   21.0640 C   0  0  0  0  0  0  0  0  0  0  0  0
    9.5691   -0.0798   20.4408 N   0  0  0  0  0  0  0  0  0  0  0  0
   10.7256   -0.5375   20.9804 N   0  0  0  0  0  0  0  0  0  0  0  0
   10.5149   -1.4210   21.8749 N   0  0  0  0  0  0  0  0  0  0  0  0
    9.1633   -1.5657   21.9748 N   0  0  0  0  0  0  0  0  0  0  0  0
    8.5893   -2.4599   22.9187 C   0  0  0  0  0  0  0  0  0  0  0  0
    7.2701   -2.3036   23.3785 C   0  0  0  0  0  0  0  0  0  0  0  0
    6.6417   -1.4780   23.0687 H   0  0  0  0  0  0  0  0  0  0  0  0
    6.7611   -3.2472   24.2707 C   0  0  0  0  0  0  0  0  0  0  0  0
    5.7433   -3.1439   24.6379 H   0  0  0  0  0  0  0  0  0  0  0  0
    7.5318   -4.3334   24.6946 C   0  0  0  0  0  0  0  0  0  0  0  0
    7.1044   -5.0773   25.3582 H   0  0  0  0  0  0  0  0  0  0  0  0
    8.8555   -4.4529   24.2471 C   0  0  0  0  0  0  0  0  0  0  0  0
    9.7076   -5.4682   24.5537 O   0  0  0  0  0  0  0  0  0  0  0  0
    9.4018   -6.3600   25.6035 C   0  0  0  0  0  0  0  0  0  0  0  0
   10.1524   -7.1507   25.5439 H   0  0  0  0  0  0  0  0  0  0  0  0
    8.4111   -6.8088   25.4632 H   0  0  0  0  0  0  0  0  0  0  0  0
    9.4720   -5.8609   26.5817 H   0  0  0  0  0  0  0  0  0  0  0  0
    9.3917   -3.5010   23.3762 C   0  0  0  0  0  0  0  0  0  0  0  0
   10.4343   -3.5856   23.0811 H   0  0  0  0  0  0  0  0  0  0  0  0
    5.5142    0.6362   20.1241 C   0  0  0  0  0  0  0  0  0  0  0  0
    5.1464    0.6035   21.1483 H   0  0  0  0  0  0  0  0  0  0  0  0
    4.8418    1.2982   19.0945 C   0  0  0  0  0  0  0  0  0  0  0  0
    3.9066    1.8132   19.2797 H   0  0  0  0  0  0  0  0  0  0  0  0
  1  2  1  0
  2  3  2  0
  3  4  1  0
  4  5  1  0
  4  6  2  0
  6  7  1  0
  7  8  1  0
  8  9  2  0
  9 10  1  0
 10 11  2  0
 11 12  1  0
 12 13  1  0
 13 14  2  0
 14 15  1  0
 14 16  1  0
 16 17  1  0
 16 18  2  0
 18 19  1  0
 18 20  1  0
 20 21  1  0
 21 22  1  0
 22 23  1  0
 22 24  1  0
 22 25  1  0
 20 26  2  0
 26 27  1  0
  6 28  1  0
 28 29  1  0
 28 30  2  0
 30 31  1  0
 30  2  1  0
 12  8  1  0
 26 13  1  0
M  END
>  <cnnaffinity>  (1) 
-5.11819

>  <filename>  (1) 
COc1cccc(-n2nnnc2Oc2cccnc2)c1

$$$$
