
     RDKit          3D

 32 34  0  0  0  0  0  0  0  0999 V2000
    4.9317    1.7951   16.9979 H   0  0  0  0  0  0  0  0  0  0  0  0
    5.3995    1.2889   17.8381 C   0  0  0  0  0  0  0  0  0  0  0  0
    6.5560    0.6597   17.5736 N   0  0  0  0  0  0  0  0  0  0  0  0
    7.1735    0.0418   18.5881 C   0  0  0  0  0  0  0  0  0  0  0  0
    8.1269   -0.4349   18.3654 H   0  0  0  0  0  0  0  0  0  0  0  0
    6.6554   -0.0061   19.8988 C   0  0  0  0  0  0  0  0  0  0  0  0
    7.3338   -0.6991   20.9522 N   0  0  0  0  0  0  0  0  0  0  0  0
    6.7268   -1.6127   21.8029 C   0  0  0  0  0  0  0  0  0  0  0  0
    5.6778   -1.8432   21.6928 H   0  0  0  0  0  0  0  0  0  0  0  0
    7.6586   -2.0755   22.6699 C   0  0  0  0  0  0  0  0  0  0  0  0
    7.5266   -3.0158   23.7835 C   0  0  0  0  0  0  0  0  0  0  0  0
    8.6216   -3.6884   24.3673 C   0  0  0  0  0  0  0  0  0  0  0  0
    9.6401   -3.5349   24.0193 H   0  0  0  0  0  0  0  0  0  0  0  0
    8.4921   -4.5714   25.3590 N   0  0  0  0  0  0  0  0  0  0  0  0
    7.2631   -4.8343   25.8377 C   0  0  0  0  0  0  0  0  0  0  0  0
    7.2086   -5.5607   26.6491 H   0  0  0  0  0  0  0  0  0  0  0  0
    6.1030   -4.2157   25.3287 C   0  0  0  0  0  0  0  0  0  0  0  0
    4.8276   -4.4277   25.7421 O   0  0  0  0  0  0  0  0  0  0  0  0
    4.5679   -5.3385   26.7949 C   0  0  0  0  0  0  0  0  0  0  0  0
    3.4858   -5.3084   26.9225 H   0  0  0  0  0  0  0  0  0  0  0  0
    5.0650   -5.0334   27.7258 H   0  0  0  0  0  0  0  0  0  0  0  0
    4.8884   -6.3572   26.5372 H   0  0  0  0  0  0  0  0  0  0  0  0
    6.2517   -3.2928   24.2911 C   0  0  0  0  0  0  0  0  0  0  0  0
    5.3575   -2.8007   23.9082 H   0  0  0  0  0  0  0  0  0  0  0  0
    8.8389   -1.4350   22.3188 N   0  0  0  0  0  0  0  0  0  0  0  0
    9.7403   -1.4293   22.7649 H   0  0  0  0  0  0  0  0  0  0  0  0
    8.6537   -0.5383   21.3175 C   0  0  0  0  0  0  0  0  0  0  0  0
    9.8108    0.5163   20.7814 S   0  0  0  0  0  0  0  0  0  0  0  0
    5.4440    0.6434   20.1583 C   0  0  0  0  0  0  0  0  0  0  0  0
    5.0304    0.6329   21.1686 H   0  0  0  0  0  0  0  0  0  0  0  0
    4.8087    1.3088   19.1066 C   0  0  0  0  0  0  0  0  0  0  0  0
    3.8776    1.8417   19.2622 H   0  0  0  0  0  0  0  0  0  0  0  0
  1  2  1  0
  2  3  2  0
  3  4  1  0
  4  5  1  0
  4  6  2  0
  6  7  1  0
  7  8  1  0
  8  9  1  0
  8 10  2  0
 10 11  1  0
 11 12  2  0
 12 13  1  0
 12 14  1  0
 14 15  2  0
 15 16  1  0
 15 17  1  0
 17 18  1  0
 18 19  1  0
 19 20  1  0
 19 21  1  0
 19 22  1  0
 17 23  2  0
 23 24  1  0
 10 25  1  0
 25 26  1  0
 25 27  1  0
 27 28  2  0
  6 29  1  0
 29 30  1  0
 29 31  2  0
 31 32  1  0
 31  2  1  0
 27  7  1  0
 23 11  1  0
M  END
>  <cnnaffinity>  (1) 
-5.40529

>  <filename>  (1) 
COc1cncc(-c2cn(-c3cccnc3)c(=S)[nH]2)c1

$$$$
