
     RDKit          3D

 32 34  0  0  0  0  0  0  0  0999 V2000
    4.9926    1.7997   17.0248 H   0  0  0  0  0  0  0  0  0  0  0  0
    5.4610    1.2740   17.8518 C   0  0  0  0  0  0  0  0  0  0  0  0
    6.6120    0.6395   17.5806 N   0  0  0  0  0  0  0  0  0  0  0  0
    7.2211   -0.0075   18.5833 C   0  0  0  0  0  0  0  0  0  0  0  0
    8.1556   -0.5150   18.3495 H   0  0  0  0  0  0  0  0  0  0  0  0
    6.7087   -0.0446   19.8922 C   0  0  0  0  0  0  0  0  0  0  0  0
    7.2696   -0.7547   20.9227 O   0  0  0  0  0  0  0  0  0  0  0  0
    8.6234   -0.7961   21.1216 C   0  0  0  0  0  0  0  0  0  0  0  0
    9.6528    0.0669   20.7044 C   0  0  0  0  0  0  0  0  0  0  0  0
    9.5803    0.9393   20.0675 H   0  0  0  0  0  0  0  0  0  0  0  0
   10.8193   -0.3367   21.2036 N   0  0  0  0  0  0  0  0  0  0  0  0
   10.5439   -1.4252   21.9188 N   0  0  0  0  0  0  0  0  0  0  0  0
   11.2892   -1.9215   22.4020 H   0  0  0  0  0  0  0  0  0  0  0  0
    9.2189   -1.7625   21.9076 C   0  0  0  0  0  0  0  0  0  0  0  0
    8.6510   -2.9389   22.5829 C   0  0  0  0  0  0  0  0  0  0  0  0
    9.4873   -3.5749   23.4298 N   0  0  0  0  0  0  0  0  0  0  0  0
    8.9976   -4.5826   24.1290 C   0  0  0  0  0  0  0  0  0  0  0  0
    9.7694   -5.1948   25.0436 O   0  0  0  0  0  0  0  0  0  0  0  0
   11.0276   -4.6311   25.3949 C   0  0  0  0  0  0  0  0  0  0  0  0
   11.8178   -4.9926   24.7313 H   0  0  0  0  0  0  0  0  0  0  0  0
   11.2236   -4.9515   26.4183 H   0  0  0  0  0  0  0  0  0  0  0  0
   10.9975   -3.5406   25.3444 H   0  0  0  0  0  0  0  0  0  0  0  0
    7.6819   -5.0626   24.0081 C   0  0  0  0  0  0  0  0  0  0  0  0
    7.3858   -5.8587   24.6758 H   0  0  0  0  0  0  0  0  0  0  0  0
    6.8408   -4.4594   23.0869 C   0  0  0  0  0  0  0  0  0  0  0  0
    5.8111   -4.7978   22.9490 H   0  0  0  0  0  0  0  0  0  0  0  0
    7.3383   -3.3697   22.3518 C   0  0  0  0  0  0  0  0  0  0  0  0
    6.7247   -2.8572   21.6308 H   0  0  0  0  0  0  0  0  0  0  0  0
    5.5039    0.6033   20.1697 C   0  0  0  0  0  0  0  0  0  0  0  0
    5.1118    0.5818   21.1850 H   0  0  0  0  0  0  0  0  0  0  0  0
    4.8737    1.2756   19.1230 C   0  0  0  0  0  0  0  0  0  0  0  0
    3.9448    1.8037   19.2863 H   0  0  0  0  0  0  0  0  0  0  0  0
  1  2  1  0
  2  3  2  0
  3  4  1  0
  4  5  1  0
  4  6  2  0
  6  7  1  0
  7  8  1  0
  8  9  1  0
  9 10  1  0
  9 11  2  0
 11 12  1  0
 12 13  1  0
 12 14  1  0
 14 15  1  0
 15 16  2  0
 16 17  1  0
 17 18  1  0
 18 19  1  0
 19 20  1  0
 19 21  1  0
 19 22  1  0
 17 23  2  0
 23 24  1  0
 23 25  1  0
 25 26  1  0
 25 27  2  0
 27 28  1  0
  6 29  1  0
 29 30  1  0
 29 31  2  0
 31 32  1  0
 31  2  1  0
 14  8  2  0
 27 15  1  0
M  END
>  <cnnaffinity>  (1) 
-5.5771

>  <filename>  (1) 
COc1cccc(-c2[nH]ncc2Oc2cccnc2)n1

$$$$
