
     RDKit          3D

 34 36  0  0  0  0  0  0  0  0999 V2000
    4.9331    1.7947   16.9867 H   0  0  0  0  0  0  0  0  0  0  0  0
    5.3938    1.2969   17.8382 C   0  0  0  0  0  0  0  0  0  0  0  0
    6.5489    0.6666   17.5829 N   0  0  0  0  0  0  0  0  0  0  0  0
    7.1352    0.0336   18.6002 C   0  0  0  0  0  0  0  0  0  0  0  0
    8.1083   -0.4086   18.3968 H   0  0  0  0  0  0  0  0  0  0  0  0
    6.5959   -0.0370   19.8988 C   0  0  0  0  0  0  0  0  0  0  0  0
    7.3122   -0.7503   20.9905 C   0  0  0  0  0  0  0  0  0  0  0  0
    6.5714   -1.5144   21.7511 N   0  0  0  0  0  0  0  0  0  0  0  0
    7.1451   -2.2006   22.7927 N   0  0  0  0  0  0  0  0  0  0  0  0
    6.2689   -3.0121   23.6141 C   0  0  0  0  0  0  0  0  0  0  0  0
    6.4900   -3.1259   25.0009 C   0  0  0  0  0  0  0  0  0  0  0  0
    7.3093   -2.5744   25.4464 H   0  0  0  0  0  0  0  0  0  0  0  0
    5.6406   -3.9117   25.7788 C   0  0  0  0  0  0  0  0  0  0  0  0
    5.8225   -3.9969   26.8481 H   0  0  0  0  0  0  0  0  0  0  0  0
    4.5666   -4.5975   25.2029 C   0  0  0  0  0  0  0  0  0  0  0  0
    3.9085   -5.2071   25.8147 H   0  0  0  0  0  0  0  0  0  0  0  0
    4.3448   -4.4814   23.8221 C   0  0  0  0  0  0  0  0  0  0  0  0
    3.3228   -5.0873   23.1588 O   0  0  0  0  0  0  0  0  0  0  0  0
    2.4014   -5.9110   23.8535 C   0  0  0  0  0  0  0  0  0  0  0  0
    1.7101   -6.2613   23.0868 H   0  0  0  0  0  0  0  0  0  0  0  0
    1.8366   -5.3629   24.6213 H   0  0  0  0  0  0  0  0  0  0  0  0
    2.8816   -6.7795   24.3267 H   0  0  0  0  0  0  0  0  0  0  0  0
    5.1958   -3.6873   23.0304 C   0  0  0  0  0  0  0  0  0  0  0  0
    5.0079   -3.5811   21.9710 H   0  0  0  0  0  0  0  0  0  0  0  0
    8.5070   -2.1263   23.0193 C   0  0  0  0  0  0  0  0  0  0  0  0
    8.8696   -2.7419   23.8373 H   0  0  0  0  0  0  0  0  0  0  0  0
    9.3371   -1.3694   22.2821 C   0  0  0  0  0  0  0  0  0  0  0  0
   10.4065   -1.2962   22.4559 H   0  0  0  0  0  0  0  0  0  0  0  0
    8.8020   -0.5682   21.1904 C   0  0  0  0  0  0  0  0  0  0  0  0
    9.5124    0.1647   20.5066 O   0  0  0  0  0  0  0  0  0  0  0  0
    5.3937    0.6335   20.1545 C   0  0  0  0  0  0  0  0  0  0  0  0
    4.9879    0.6187   21.1694 H   0  0  0  0  0  0  0  0  0  0  0  0
    4.7914    1.3213   19.1015 C   0  0  0  0  0  0  0  0  0  0  0  0
    3.8654    1.8622   19.2387 H   0  0  0  0  0  0  0  0  0  0  0  0
  1  2  1  0
  2  3  2  0
  3  4  1  0
  4  5  1  0
  4  6  2  0
  6  7  1  0
  7  8  2  0
  8  9  1  0
  9 10  1  0
 10 11  2  0
 11 12  1  0
 11 13  1  0
 13 14  1  0
 13 15  2  0
 15 16  1  0
 15 17  1  0
 17 18  1  0
 18 19  1  0
 19 20  1  0
 19 21  1  0
 19 22  1  0
 17 23  2  0
 23 24  1  0
  9 25  1  0
 25 26  1  0
 25 27  2  0
 27 28  1  0
 27 29  1  0
 29 30  2  0
  6 31  1  0
 31 32  1  0
 31 33  2  0
 33 34  1  0
 33  2  1  0
 29  7  1  0
 23 10  1  0
M  END
>  <cnnaffinity>  (1) 
-5.18434

>  <filename>  (1) 
COc1cccc(-n2ccc(=O)c(-c3cccnc3)n2)c1

$$$$
