
     RDKit          3D

 32 34  0  0  0  0  0  0  0  0999 V2000
    4.9229    1.8038   16.9688 H   0  0  0  0  0  0  0  0  0  0  0  0
    5.3957    1.3048   17.8147 C   0  0  0  0  0  0  0  0  0  0  0  0
    6.5597    0.6840   17.5626 N   0  0  0  0  0  0  0  0  0  0  0  0
    7.1722    0.0685   18.5812 C   0  0  0  0  0  0  0  0  0  0  0  0
    8.1074   -0.4238   18.3228 H   0  0  0  0  0  0  0  0  0  0  0  0
    6.6668    0.0151   19.8930 C   0  0  0  0  0  0  0  0  0  0  0  0
    7.3403   -0.7052   20.9776 C   0  0  0  0  0  0  0  0  0  0  0  0
    6.8242   -1.2382   22.1011 C   0  0  0  0  0  0  0  0  0  0  0  0
    5.8077   -1.3162   22.4178 H   0  0  0  0  0  0  0  0  0  0  0  0
    7.8458   -1.8023   22.8515 N   0  0  0  0  0  0  0  0  0  0  0  0
    7.6570   -2.4552   24.1053 C   0  0  0  0  0  0  0  0  0  0  0  0
    6.8381   -1.8691   25.0908 C   0  0  0  0  0  0  0  0  0  0  0  0
    6.3449   -0.9198   24.9119 H   0  0  0  0  0  0  0  0  0  0  0  0
    6.6920   -2.5280   26.2982 C   0  0  0  0  0  0  0  0  0  0  0  0
    6.0701   -2.1010   27.0850 H   0  0  0  0  0  0  0  0  0  0  0  0
    7.2737   -3.7056   26.5815 N   0  0  0  0  0  0  0  0  0  0  0  0
    8.0215   -4.2374   25.6266 C   0  0  0  0  0  0  0  0  0  0  0  0
    8.6274   -5.4168   25.8166 O   0  0  0  0  0  0  0  0  0  0  0  0
    8.4653   -6.1235   27.0377 C   0  0  0  0  0  0  0  0  0  0  0  0
    7.4119   -6.3204   27.2676 H   0  0  0  0  0  0  0  0  0  0  0  0
    9.0041   -7.0455   26.8370 H   0  0  0  0  0  0  0  0  0  0  0  0
    8.9069   -5.5844   27.8832 H   0  0  0  0  0  0  0  0  0  0  0  0
    8.2570   -3.6684   24.3690 C   0  0  0  0  0  0  0  0  0  0  0  0
    8.9069   -4.1865   23.6779 H   0  0  0  0  0  0  0  0  0  0  0  0
    9.0421   -1.6155   22.1938 C   0  0  0  0  0  0  0  0  0  0  0  0
   10.6078   -1.9943   22.6061 S   0  0  0  0  0  0  0  0  0  0  0  0
    8.6978   -0.9755   21.0430 N   0  0  0  0  0  0  0  0  0  0  0  0
    9.4407   -0.6716   20.4407 H   0  0  0  0  0  0  0  0  0  0  0  0
    5.4418    0.6659   20.1305 C   0  0  0  0  0  0  0  0  0  0  0  0
    5.0091    0.6658   21.1299 H   0  0  0  0  0  0  0  0  0  0  0  0
    4.8007    1.3212   19.0806 C   0  0  0  0  0  0  0  0  0  0  0  0
    3.8650    1.8518   19.2261 H   0  0  0  0  0  0  0  0  0  0  0  0
  1  2  1  0
  2  3  2  0
  3  4  1  0
  4  5  1  0
  4  6  2  0
  6  7  1  0
  7  8  2  0
  8  9  1  0
  8 10  1  0
 10 11  1  0
 11 12  2  0
 12 13  1  0
 12 14  1  0
 14 15  1  0
 14 16  2  0
 16 17  1  0
 17 18  1  0
 18 19  1  0
 19 20  1  0
 19 21  1  0
 19 22  1  0
 17 23  2  0
 23 24  1  0
 10 25  1  0
 25 26  2  0
 25 27  1  0
 27 28  1  0
  6 29  1  0
 29 30  1  0
 29 31  2  0
 31 32  1  0
 31  2  1  0
 27  7  1  0
 23 11  1  0
M  END
>  <cnnaffinity>  (1) 
-5.37582

>  <filename>  (1) 
COc1cc(-n2cc(-c3cccnc3)[nH]c2=S)ccn1

$$$$
