
     RDKit          3D

 33 35  0  0  0  0  0  0  0  0999 V2000
    5.0176    1.8469   16.9408 H   0  0  0  0  0  0  0  0  0  0  0  0
    5.4816    1.3369   17.7820 C   0  0  0  0  0  0  0  0  0  0  0  0
    6.6756    0.7753   17.5401 N   0  0  0  0  0  0  0  0  0  0  0  0
    7.2639    0.1331   18.5538 C   0  0  0  0  0  0  0  0  0  0  0  0
    8.2546   -0.2728   18.3659 H   0  0  0  0  0  0  0  0  0  0  0  0
    6.6718   -0.0474   19.8177 C   0  0  0  0  0  0  0  0  0  0  0  0
    7.4032   -0.8805   20.8255 C   0  0  0  0  0  0  0  0  0  0  0  0
    8.6871   -0.6305   20.9017 N   0  0  0  0  0  0  0  0  0  0  0  0
    9.4292   -1.2392   21.8808 N   0  0  0  0  0  0  0  0  0  0  0  0
   10.8028   -0.8375   21.9733 C   0  0  0  0  0  0  0  0  0  0  0  0
   11.8457   -1.7702   22.1169 C   0  0  0  0  0  0  0  0  0  0  0  0
   11.6342   -2.8365   22.0751 H   0  0  0  0  0  0  0  0  0  0  0  0
   13.1259   -1.3970   22.2696 N   0  0  0  0  0  0  0  0  0  0  0  0
   13.4184   -0.0917   22.3247 C   0  0  0  0  0  0  0  0  0  0  0  0
   14.4582    0.1932   22.4771 H   0  0  0  0  0  0  0  0  0  0  0  0
   12.4400    0.9149   22.1563 C   0  0  0  0  0  0  0  0  0  0  0  0
   12.8492    2.2117   22.2093 O   0  0  0  0  0  0  0  0  0  0  0  0
   12.2059    3.1458   21.3524 C   0  0  0  0  0  0  0  0  0  0  0  0
   12.9336    3.9412   21.1729 H   0  0  0  0  0  0  0  0  0  0  0  0
   11.9124    2.6820   20.4015 H   0  0  0  0  0  0  0  0  0  0  0  0
   11.3053    3.5591   21.8192 H   0  0  0  0  0  0  0  0  0  0  0  0
   11.1157    0.5285   21.9403 C   0  0  0  0  0  0  0  0  0  0  0  0
   10.3281    1.2595   21.7559 H   0  0  0  0  0  0  0  0  0  0  0  0
    8.8375   -1.9798   22.8832 C   0  0  0  0  0  0  0  0  0  0  0  0
    9.5009   -2.2701   23.7000 H   0  0  0  0  0  0  0  0  0  0  0  0
    7.5327   -2.3076   22.8506 C   0  0  0  0  0  0  0  0  0  0  0  0
    7.0608   -2.8970   23.6235 H   0  0  0  0  0  0  0  0  0  0  0  0
    6.7115   -1.9215   21.7070 C   0  0  0  0  0  0  0  0  0  0  0  0
    5.6046   -2.4018   21.5077 O   0  0  0  0  0  0  0  0  0  0  0  0
    5.4512    0.6023   20.0728 C   0  0  0  0  0  0  0  0  0  0  0  0
    4.9997    0.5819   21.0678 H   0  0  0  0  0  0  0  0  0  0  0  0
    4.8470    1.3019   19.0270 C   0  0  0  0  0  0  0  0  0  0  0  0
    3.9159    1.8396   19.1637 H   0  0  0  0  0  0  0  0  0  0  0  0
  1  2  1  0
  2  3  2  0
  3  4  1  0
  4  5  1  0
  4  6  2  0
  6  7  1  0
  7  8  2  0
  8  9  1  0
  9 10  1  0
 10 11  2  0
 11 12  1  0
 11 13  1  0
 13 14  2  0
 14 15  1  0
 14 16  1  0
 16 17  1  0
 17 18  1  0
 18 19  1  0
 18 20  1  0
 18 21  1  0
 16 22  2  0
 22 23  1  0
  9 24  1  0
 24 25  1  0
 24 26  2  0
 26 27  1  0
 26 28  1  0
 28 29  2  0
  6 30  1  0
 30 31  1  0
 30 32  2  0
 32 33  1  0
 32  2  1  0
 28  7  1  0
 22 10  1  0
M  END
>  <cnnaffinity>  (1) 
-5.91206

>  <filename>  (1) 
COc1cncc(-n2ccc(=O)c(-c3cccnc3)n2)c1

$$$$
