
     RDKit          3D

 33 35  0  0  0  0  0  0  0  0999 V2000
    5.1609    1.9366   16.9622 H   0  0  0  0  0  0  0  0  0  0  0  0
    5.5896    1.3390   17.7621 C   0  0  0  0  0  0  0  0  0  0  0  0
    6.8179    0.8363   17.5353 N   0  0  0  0  0  0  0  0  0  0  0  0
    7.3785    0.1234   18.5113 C   0  0  0  0  0  0  0  0  0  0  0  0
    8.3895   -0.2498   18.3554 H   0  0  0  0  0  0  0  0  0  0  0  0
    6.7320   -0.1632   19.7266 C   0  0  0  0  0  0  0  0  0  0  0  0
    7.4135   -0.9175   20.7251 N   0  0  0  0  0  0  0  0  0  0  0  0
    8.7515   -0.6583   20.7969 N   0  0  0  0  0  0  0  0  0  0  0  0
    9.4250   -1.0995   21.8256 C   0  0  0  0  0  0  0  0  0  0  0  0
   10.8832   -0.6698   21.8970 C   0  0  0  0  0  0  0  0  0  0  0  0
   11.1319    0.6548   21.9387 N   0  0  0  0  0  0  0  0  0  0  0  0
   12.3791    1.0506   22.1781 C   0  0  0  0  0  0  0  0  0  0  0  0
   12.6319    2.3657   22.3052 O   0  0  0  0  0  0  0  0  0  0  0  0
   11.7733    3.2744   21.6172 C   0  0  0  0  0  0  0  0  0  0  0  0
   11.8666    3.1363   20.5323 H   0  0  0  0  0  0  0  0  0  0  0  0
   10.7207    3.1307   21.8953 H   0  0  0  0  0  0  0  0  0  0  0  0
   12.1192    4.2695   21.8949 H   0  0  0  0  0  0  0  0  0  0  0  0
   13.4694    0.1724   22.3292 C   0  0  0  0  0  0  0  0  0  0  0  0
   14.4479    0.5938   22.5271 H   0  0  0  0  0  0  0  0  0  0  0  0
   13.2364   -1.1851   22.1662 C   0  0  0  0  0  0  0  0  0  0  0  0
   14.0539   -1.9093   22.2096 H   0  0  0  0  0  0  0  0  0  0  0  0
   11.9146   -1.6179   21.9528 C   0  0  0  0  0  0  0  0  0  0  0  0
   11.6858   -2.6683   21.8519 H   0  0  0  0  0  0  0  0  0  0  0  0
    8.8062   -1.9501   22.8216 C   0  0  0  0  0  0  0  0  0  0  0  0
    9.3748   -2.2619   23.6946 H   0  0  0  0  0  0  0  0  0  0  0  0
    7.5008   -2.3146   22.6790 C   0  0  0  0  0  0  0  0  0  0  0  0
    6.9510   -2.9524   23.3627 H   0  0  0  0  0  0  0  0  0  0  0  0
    6.7009   -1.8606   21.5516 C   0  0  0  0  0  0  0  0  0  0  0  0
    5.5648   -2.2256   21.3068 O   0  0  0  0  0  0  0  0  0  0  0  0
    5.4556    0.3540   19.9583 C   0  0  0  0  0  0  0  0  0  0  0  0
    4.9435    0.1356   20.8924 H   0  0  0  0  0  0  0  0  0  0  0  0
    4.8832    1.1273   18.9486 C   0  0  0  0  0  0  0  0  0  0  0  0
    3.9007    1.5663   19.0788 H   0  0  0  0  0  0  0  0  0  0  0  0
  1  2  1  0
  2  3  2  0
  3  4  1  0
  4  5  1  0
  4  6  2  0
  6  7  1  0
  7  8  1  0
  8  9  2  0
  9 10  1  0
 10 11  2  0
 11 12  1  0
 12 13  1  0
 13 14  1  0
 14 15  1  0
 14 16  1  0
 14 17  1  0
 12 18  2  0
 18 19  1  0
 18 20  1  0
 20 21  1  0
 20 22  2  0
 22 23  1  0
  9 24  1  0
 24 25  1  0
 24 26  2  0
 26 27  1  0
 26 28  1  0
 28 29  2  0
  6 30  1  0
 30 31  1  0
 30 32  2  0
 32 33  1  0
 32  2  1  0
 28  7  1  0
 22 10  1  0
M  END
>  <cnnaffinity>  (1) 
-5.77379

>  <filename>  (1) 
COc1cccc(-c2ccc(=O)n(-c3cccnc3)n2)n1

$$$$
