
     RDKit          3D

 34 36  0  0  0  0  0  0  0  0999 V2000
    4.9309    1.7869   16.9905 H   0  0  0  0  0  0  0  0  0  0  0  0
    5.3981    1.2934   17.8399 C   0  0  0  0  0  0  0  0  0  0  0  0
    6.5545    0.6657   17.5857 N   0  0  0  0  0  0  0  0  0  0  0  0
    7.1492    0.0422   18.6069 C   0  0  0  0  0  0  0  0  0  0  0  0
    8.1125   -0.4150   18.3870 H   0  0  0  0  0  0  0  0  0  0  0  0
    6.6183   -0.0166   19.9072 C   0  0  0  0  0  0  0  0  0  0  0  0
    7.3146   -0.7390   20.9849 C   0  0  0  0  0  0  0  0  0  0  0  0
    6.5883   -1.5118   21.7676 N   0  0  0  0  0  0  0  0  0  0  0  0
    7.1812   -2.2021   22.8102 C   0  0  0  0  0  0  0  0  0  0  0  0
    6.2951   -3.0495   23.6820 C   0  0  0  0  0  0  0  0  0  0  0  0
    6.6168   -3.3233   25.0216 C   0  0  0  0  0  0  0  0  0  0  0  0
    7.5096   -2.9007   25.4671 H   0  0  0  0  0  0  0  0  0  0  0  0
    5.7923   -4.1218   25.8241 C   0  0  0  0  0  0  0  0  0  0  0  0
    6.0734   -4.3182   26.8535 H   0  0  0  0  0  0  0  0  0  0  0  0
    4.6100   -4.6759   25.3120 C   0  0  0  0  0  0  0  0  0  0  0  0
    3.7440   -5.4575   25.9970 O   0  0  0  0  0  0  0  0  0  0  0  0
    3.9962   -5.7942   27.3527 C   0  0  0  0  0  0  0  0  0  0  0  0
    3.1550   -6.4223   27.6487 H   0  0  0  0  0  0  0  0  0  0  0  0
    4.0290   -4.9076   28.0002 H   0  0  0  0  0  0  0  0  0  0  0  0
    4.9289   -6.3614   27.4725 H   0  0  0  0  0  0  0  0  0  0  0  0
    4.2911   -4.3894   23.9606 C   0  0  0  0  0  0  0  0  0  0  0  0
    3.1610   -4.8867   23.4319 F   0  0  0  0  0  0  0  0  0  0  0  0
    5.1044   -3.6019   23.1670 C   0  0  0  0  0  0  0  0  0  0  0  0
    4.8009   -3.3960   22.1465 H   0  0  0  0  0  0  0  0  0  0  0  0
    8.5341   -2.1272   23.0288 C   0  0  0  0  0  0  0  0  0  0  0  0
    9.0451   -2.6848   23.8039 H   0  0  0  0  0  0  0  0  0  0  0  0
    9.3048   -1.3291   22.2173 N   0  0  0  0  0  0  0  0  0  0  0  0
   10.3028   -1.1685   22.3020 H   0  0  0  0  0  0  0  0  0  0  0  0
    8.8073   -0.5609   21.1748 C   0  0  0  0  0  0  0  0  0  0  0  0
    9.6081    0.1340   20.5666 O   0  0  0  0  0  0  0  0  0  0  0  0
    5.4065    0.6455   20.1555 C   0  0  0  0  0  0  0  0  0  0  0  0
    4.9743    0.6353   21.1603 H   0  0  0  0  0  0  0  0  0  0  0  0
    4.7962    1.3207   19.1028 C   0  0  0  0  0  0  0  0  0  0  0  0
    3.8675    1.8568   19.2451 H   0  0  0  0  0  0  0  0  0  0  0  0
  1  2  1  0
  2  3  2  0
  3  4  1  0
  4  5  1  0
  4  6  2  0
  6  7  1  0
  7  8  2  0
  8  9  1  0
  9 10  1  0
 10 11  2  0
 11 12  1  0
 11 13  1  0
 13 14  1  0
 13 15  2  0
 15 16  1  0
 16 17  1  0
 17 18  1  0
 17 19  1  0
 17 20  1  0
 15 21  1  0
 21 22  1  0
 21 23  2  0
 23 24  1  0
  9 25  2  0
 25 26  1  0
 25 27  1  0
 27 28  1  0
 27 29  1  0
 29 30  2  0
  6 31  1  0
 31 32  1  0
 31 33  2  0
 33 34  1  0
 33  2  1  0
 29  7  1  0
 23 10  1  0
M  END
>  <cnnaffinity>  (1) 
-5.42894

>  <filename>  (1) 
COc1ccc(-c2c[nH]c(=O)c(-c3cccnc3)n2)cc1F

$$$$
