
     RDKit          3D

 40 43  0  0  0  0  0  0  0  0999 V2000
    4.9890    1.8539   16.8807 H   0  0  0  0  0  0  0  0  0  0  0  0
    5.4201    1.3023   17.7151 C   0  0  0  0  0  0  0  0  0  0  0  0
    6.5642    0.6424   17.4761 N   0  0  0  0  0  0  0  0  0  0  0  0
    7.1358   -0.0062   18.4962 C   0  0  0  0  0  0  0  0  0  0  0  0
    8.0632   -0.5273   18.2681 H   0  0  0  0  0  0  0  0  0  0  0  0
    6.6058   -0.0322   19.7988 C   0  0  0  0  0  0  0  0  0  0  0  0
    7.3595   -0.6368   20.9114 C   0  0  0  0  0  0  0  0  0  0  0  0
    8.4899   -1.3287   20.6977 N   0  0  0  0  0  0  0  0  0  0  0  0
    8.9132   -1.5963   21.9479 N   0  0  0  0  0  0  0  0  0  0  0  0
   10.0286   -2.2161   22.4959 C   0  0  0  0  0  0  0  0  0  0  0  0
   10.7778   -2.6764   21.8846 H   0  0  0  0  0  0  0  0  0  0  0  0
    9.8959   -2.0791   23.8388 C   0  0  0  0  0  0  0  0  0  0  0  0
   10.5150   -2.4280   24.6467 H   0  0  0  0  0  0  0  0  0  0  0  0
    8.7269   -1.3811   24.1253 N   0  0  0  0  0  0  0  0  0  0  0  0
    8.2595   -0.9806   25.4005 C   0  0  0  0  0  0  0  0  0  0  0  0
    9.1552   -0.6392   26.4148 C   0  0  0  0  0  0  0  0  0  0  0  0
   10.2283   -0.6869   26.2698 H   0  0  0  0  0  0  0  0  0  0  0  0
    8.6711   -0.1709   27.6406 C   0  0  0  0  0  0  0  0  0  0  0  0
    9.3795    0.0266   28.4374 H   0  0  0  0  0  0  0  0  0  0  0  0
    7.3042    0.0290   27.8617 C   0  0  0  0  0  0  0  0  0  0  0  0
    6.7990    0.5983   28.9929 O   0  0  0  0  0  0  0  0  0  0  0  0
    7.6954    1.2642   29.8653 C   0  0  0  0  0  0  0  0  0  0  0  0
    8.2500    2.0503   29.3307 H   0  0  0  0  0  0  0  0  0  0  0  0
    7.0812    1.7165   30.6467 H   0  0  0  0  0  0  0  0  0  0  0  0
    8.4065    0.5528   30.3118 H   0  0  0  0  0  0  0  0  0  0  0  0
    6.3831   -0.3883   26.8479 C   0  0  0  0  0  0  0  0  0  0  0  0
    5.0608   -0.1869   27.1028 O   0  0  0  0  0  0  0  0  0  0  0  0
    4.0780   -0.7447   26.2557 C   0  0  0  0  0  0  0  0  0  0  0  0
    3.1243   -0.5763   26.7579 H   0  0  0  0  0  0  0  0  0  0  0  0
    4.2317   -1.8219   26.1184 H   0  0  0  0  0  0  0  0  0  0  0  0
    4.0485   -0.2543   25.2743 H   0  0  0  0  0  0  0  0  0  0  0  0
    6.8751   -0.8908   25.6393 C   0  0  0  0  0  0  0  0  0  0  0  0
    6.1927   -1.1766   24.8424 H   0  0  0  0  0  0  0  0  0  0  0  0
    8.1195   -1.1005   22.9141 C   0  0  0  0  0  0  0  0  0  0  0  0
    7.0535   -0.4823   22.2843 C   0  0  0  0  0  0  0  0  0  0  0  0
    6.1863   -0.0149   22.7120 H   0  0  0  0  0  0  0  0  0  0  0  0
    5.3842    0.6261   20.0170 C   0  0  0  0  0  0  0  0  0  0  0  0
    4.9134    0.6100   21.0014 H   0  0  0  0  0  0  0  0  0  0  0  0
    4.7882    1.3089   18.9627 C   0  0  0  0  0  0  0  0  0  0  0  0
    3.8687    1.8661   19.1054 H   0  0  0  0  0  0  0  0  0  0  0  0
  1  2  1  0
  2  3  2  0
  3  4  1  0
  4  5  1  0
  4  6  2  0
  6  7  1  0
  7  8  2  0
  8  9  1  0
  9 10  1  0
 10 11  1  0
 10 12  2  0
 12 13  1  0
 12 14  1  0
 14 15  1  0
 15 16  2  0
 16 17  1  0
 16 18  1  0
 18 19  1  0
 18 20  2  0
 20 21  1  0
 21 22  1  0
 22 23  1  0
 22 24  1  0
 22 25  1  0
 20 26  1  0
 26 27  1  0
 27 28  1  0
 28 29  1  0
 28 30  1  0
 28 31  1  0
 26 32  2  0
 32 33  1  0
 14 34  1  0
 34 35  2  0
 35 36  1  0
  6 37  1  0
 37 38  1  0
 37 39  2  0
 39 40  1  0
 39  2  1  0
 35  7  1  0
 34  9  1  0
 32 15  1  0
M  END
>  <cnnaffinity>  (1) 
-5.44553

>  <filename>  (1) 
COc1ccc(-n2ccn3nc(-c4cccnc4)cc23)cc1OC

$$$$
