
     RDKit          3D

 40 43  0  0  0  0  0  0  0  0999 V2000
    4.9216    1.7782   17.0011 H   0  0  0  0  0  0  0  0  0  0  0  0
    5.4066    1.2927   17.8425 C   0  0  0  0  0  0  0  0  0  0  0  0
    6.5710    0.6770   17.5796 N   0  0  0  0  0  0  0  0  0  0  0  0
    7.1706    0.0455   18.5907 C   0  0  0  0  0  0  0  0  0  0  0  0
    8.1212   -0.4356   18.3713 H   0  0  0  0  0  0  0  0  0  0  0  0
    6.6480    0.0051   19.8916 C   0  0  0  0  0  0  0  0  0  0  0  0
    7.3685   -0.6834   20.9448 C   0  0  0  0  0  0  0  0  0  0  0  0
    8.0536   -1.8525   20.7183 N   0  0  0  0  0  0  0  0  0  0  0  0
    8.4870   -2.1812   21.9017 C   0  0  0  0  0  0  0  0  0  0  0  0
    9.4840   -3.4388   22.5653 S   0  0  0  0  0  0  0  0  0  0  0  0
    9.4795   -2.6833   24.1333 C   0  0  0  0  0  0  0  0  0  0  0  0
   10.0452   -3.1516   24.9273 H   0  0  0  0  0  0  0  0  0  0  0  0
    8.7303   -1.5702   24.1493 C   0  0  0  0  0  0  0  0  0  0  0  0
    8.5634   -0.8995   24.9827 H   0  0  0  0  0  0  0  0  0  0  0  0
    8.1482   -1.3124   22.9049 N   0  0  0  0  0  0  0  0  0  0  0  0
    7.4427   -0.2921   22.2908 C   0  0  0  0  0  0  0  0  0  0  0  0
    7.1178    0.8653   22.9450 N   0  0  0  0  0  0  0  0  0  0  0  0
    7.4014    2.1622   22.3223 C   0  0  0  0  0  0  0  0  0  0  0  0
    8.0908    1.9930   21.4912 H   0  0  0  0  0  0  0  0  0  0  0  0
    6.4992    2.6265   21.8906 H   0  0  0  0  0  0  0  0  0  0  0  0
    8.0214    3.0871   23.3612 C   0  0  0  0  0  0  0  0  0  0  0  0
    8.1863    4.0798   22.9315 H   0  0  0  0  0  0  0  0  0  0  0  0
    9.0006    2.7028   23.6637 H   0  0  0  0  0  0  0  0  0  0  0  0
    7.1255    3.1754   24.5947 C   0  0  0  0  0  0  0  0  0  0  0  0
    6.1535    3.6053   24.2946 H   0  0  0  0  0  0  0  0  0  0  0  0
    7.7289    3.9829   25.5878 O   0  0  0  0  0  0  0  0  0  0  0  0
    7.3215    5.3302   25.5504 C   0  0  0  0  0  0  0  0  0  0  0  0
    6.2581    5.4233   25.8205 H   0  0  0  0  0  0  0  0  0  0  0  0
    7.4603    5.7842   24.5553 H   0  0  0  0  0  0  0  0  0  0  0  0
    7.9211    5.8871   26.2740 H   0  0  0  0  0  0  0  0  0  0  0  0
    6.8577    1.7962   25.1825 C   0  0  0  0  0  0  0  0  0  0  0  0
    7.8005    1.3778   25.5505 H   0  0  0  0  0  0  0  0  0  0  0  0
    6.1859    1.8862   26.0409 H   0  0  0  0  0  0  0  0  0  0  0  0
    6.2599    0.8699   24.1294 C   0  0  0  0  0  0  0  0  0  0  0  0
    5.2359    1.2085   23.8832 H   0  0  0  0  0  0  0  0  0  0  0  0
    6.1541   -0.1490   24.5098 H   0  0  0  0  0  0  0  0  0  0  0  0
    5.4327    0.6565   20.1543 C   0  0  0  0  0  0  0  0  0  0  0  0
    5.0017    0.6335   21.1603 H   0  0  0  0  0  0  0  0  0  0  0  0
    4.8020    1.3122   19.1051 C   0  0  0  0  0  0  0  0  0  0  0  0
    3.8713    1.8437   19.2604 H   0  0  0  0  0  0  0  0  0  0  0  0
  1  2  1  0
  2  3  2  0
  3  4  1  0
  4  5  1  0
  4  6  2  0
  6  7  1  0
  7  8  1  0
  8  9  2  0
  9 10  1  0
 10 11  1  0
 11 12  1  0
 11 13  2  0
 13 14  1  0
 13 15  1  0
 15 16  1  0
 16 17  1  0
 17 18  1  0
 18 19  1  0
 18 20  1  0
 18 21  1  0
 21 22  1  0
 21 23  1  0
 21 24  1  0
 24 25  1  0
 24 26  1  0
 26 27  1  0
 27 28  1  0
 27 29  1  0
 27 30  1  0
 24 31  1  0
 31 32  1  0
 31 33  1  0
 31 34  1  0
 34 35  1  0
 34 36  1  0
  6 37  1  0
 37 38  1  0
 37 39  2  0
 39 40  1  0
 39  2  1  0
 16  7  2  0
 34 17  1  0
 15  9  1  0
M  END
>  <cnnaffinity>  (1) 
-5.55806

>  <filename>  (1) 
COC1CCN(c2c(-c3cccnc3)nc3sccn23)CC1

$$$$
