
     RDKit          3D

 38 41  0  0  0  0  0  0  0  0999 V2000
    4.9308    1.7730   17.0021 H   0  0  0  0  0  0  0  0  0  0  0  0
    5.4092    1.2851   17.8467 C   0  0  0  0  0  0  0  0  0  0  0  0
    6.5736    0.6664   17.5959 N   0  0  0  0  0  0  0  0  0  0  0  0
    7.1787    0.0527   18.6173 C   0  0  0  0  0  0  0  0  0  0  0  0
    8.1256   -0.4322   18.3862 H   0  0  0  0  0  0  0  0  0  0  0  0
    6.6442    0.0169   19.9136 C   0  0  0  0  0  0  0  0  0  0  0  0
    7.3649   -0.6864   20.9695 C   0  0  0  0  0  0  0  0  0  0  0  0
    8.5528   -1.3180   20.7614 N   0  0  0  0  0  0  0  0  0  0  0  0
    8.8052   -1.8061   21.9548 C   0  0  0  0  0  0  0  0  0  0  0  0
   10.0047   -2.7909   22.7373 S   0  0  0  0  0  0  0  0  0  0  0  0
    9.0808   -2.7474   24.2122 C   0  0  0  0  0  0  0  0  0  0  0  0
    9.4684   -3.2641   25.0787 H   0  0  0  0  0  0  0  0  0  0  0  0
    7.9502   -2.0088   24.1278 C   0  0  0  0  0  0  0  0  0  0  0  0
    6.9518   -1.7585   25.1998 C   0  0  0  0  0  0  0  0  0  0  0  0
    6.7455   -2.7411   26.1795 C   0  0  0  0  0  0  0  0  0  0  0  0
    7.2989   -3.6780   26.1357 H   0  0  0  0  0  0  0  0  0  0  0  0
    5.8191   -2.5448   27.2083 C   0  0  0  0  0  0  0  0  0  0  0  0
    5.6878   -3.3305   27.9474 H   0  0  0  0  0  0  0  0  0  0  0  0
    5.0722   -1.3639   27.2973 C   0  0  0  0  0  0  0  0  0  0  0  0
    4.1536   -1.1130   28.2683 O   0  0  0  0  0  0  0  0  0  0  0  0
    3.8905   -2.0597   29.2902 C   0  0  0  0  0  0  0  0  0  0  0  0
    3.4912   -3.0062   28.9004 H   0  0  0  0  0  0  0  0  0  0  0  0
    4.7696   -2.2689   29.9156 H   0  0  0  0  0  0  0  0  0  0  0  0
    3.1268   -1.5977   29.9148 H   0  0  0  0  0  0  0  0  0  0  0  0
    5.2777   -0.3408   26.3028 C   0  0  0  0  0  0  0  0  0  0  0  0
    4.5259    0.7897   26.4219 O   0  0  0  0  0  0  0  0  0  0  0  0
    4.6410    1.8465   25.4870 C   0  0  0  0  0  0  0  0  0  0  0  0
    4.3704    1.5421   24.4668 H   0  0  0  0  0  0  0  0  0  0  0  0
    3.9301    2.6020   25.8210 H   0  0  0  0  0  0  0  0  0  0  0  0
    5.6426    2.2973   25.4739 H   0  0  0  0  0  0  0  0  0  0  0  0
    6.2113   -0.5563   25.2847 C   0  0  0  0  0  0  0  0  0  0  0  0
    6.3757    0.1988   24.5208 H   0  0  0  0  0  0  0  0  0  0  0  0
    7.8345   -1.4809   22.8360 N   0  0  0  0  0  0  0  0  0  0  0  0
    6.8833   -0.7519   22.2073 N   0  0  0  0  0  0  0  0  0  0  0  0
    5.4232    0.6598   20.1687 C   0  0  0  0  0  0  0  0  0  0  0  0
    4.9975    0.6351   21.1776 H   0  0  0  0  0  0  0  0  0  0  0  0
    4.8041    1.3103   19.1083 C   0  0  0  0  0  0  0  0  0  0  0  0
    3.8741    1.8431   19.2554 H   0  0  0  0  0  0  0  0  0  0  0  0
  1  2  1  0
  2  3  2  0
  3  4  1  0
  4  5  1  0
  4  6  2  0
  6  7  1  0
  7  8  1  0
  8  9  2  0
  9 10  1  0
 10 11  1  0
 11 12  1  0
 11 13  2  0
 13 14  1  0
 14 15  2  0
 15 16  1  0
 15 17  1  0
 17 18  1  0
 17 19  2  0
 19 20  1  0
 20 21  1  0
 21 22  1  0
 21 23  1  0
 21 24  1  0
 19 25  1  0
 25 26  1  0
 26 27  1  0
 27 28  1  0
 27 29  1  0
 27 30  1  0
 25 31  2  0
 31 32  1  0
 13 33  1  0
 33 34  1  0
  6 35  1  0
 35 36  1  0
 35 37  2  0
 37 38  1  0
 37  2  1  0
 34  7  2  0
 33  9  1  0
 31 14  1  0
M  END
>  <cnnaffinity>  (1) 
-5.65853

>  <filename>  (1) 
COc1ccc(-c2csc3nc(-c4cccnc4)nn23)cc1OC

$$$$
