
     RDKit          3D

 38 41  0  0  0  0  0  0  0  0999 V2000
    4.9554    1.8355   16.9637 H   0  0  0  0  0  0  0  0  0  0  0  0
    5.4032    1.2958   17.7968 C   0  0  0  0  0  0  0  0  0  0  0  0
    6.5569    0.6575   17.5440 N   0  0  0  0  0  0  0  0  0  0  0  0
    7.1470    0.0167   18.5599 C   0  0  0  0  0  0  0  0  0  0  0  0
    8.0903   -0.4760   18.3277 H   0  0  0  0  0  0  0  0  0  0  0  0
    6.6269   -0.0177   19.8661 C   0  0  0  0  0  0  0  0  0  0  0  0
    7.3703   -0.6702   20.9560 C   0  0  0  0  0  0  0  0  0  0  0  0
    8.0712   -1.7840   20.7518 N   0  0  0  0  0  0  0  0  0  0  0  0
    8.5502   -2.0771   21.9572 N   0  0  0  0  0  0  0  0  0  0  0  0
    8.2521   -1.2191   22.9274 C   0  0  0  0  0  0  0  0  0  0  0  0
    7.4725   -0.2458   22.3270 C   0  0  0  0  0  0  0  0  0  0  0  0
    7.0971    1.0029   22.9659 C   0  0  0  0  0  0  0  0  0  0  0  0
    6.6272    1.0154   24.2933 C   0  0  0  0  0  0  0  0  0  0  0  0
    6.4934    0.0677   24.8158 H   0  0  0  0  0  0  0  0  0  0  0  0
    6.3076    2.1352   24.9456 N   0  0  0  0  0  0  0  0  0  0  0  0
    6.4741    3.3022   24.2967 C   0  0  0  0  0  0  0  0  0  0  0  0
    6.2046    4.1977   24.8446 H   0  0  0  0  0  0  0  0  0  0  0  0
    6.9642    3.3992   22.9738 C   0  0  0  0  0  0  0  0  0  0  0  0
    7.1863    4.5281   22.2586 O   0  0  0  0  0  0  0  0  0  0  0  0
    6.8626    5.7743   22.8352 C   0  0  0  0  0  0  0  0  0  0  0  0
    7.0978    6.5176   22.0759 H   0  0  0  0  0  0  0  0  0  0  0  0
    5.7981    5.8213   23.0930 H   0  0  0  0  0  0  0  0  0  0  0  0
    7.4597    5.9521   23.7372 H   0  0  0  0  0  0  0  0  0  0  0  0
    7.2701    2.2193   22.3083 C   0  0  0  0  0  0  0  0  0  0  0  0
    7.6506    2.2810   21.2902 H   0  0  0  0  0  0  0  0  0  0  0  0
    9.0770   -1.4879   24.1555 C   0  0  0  0  0  0  0  0  0  0  0  0
    8.4527   -1.6916   25.0281 H   0  0  0  0  0  0  0  0  0  0  0  0
    9.6895   -0.6150   24.4086 H   0  0  0  0  0  0  0  0  0  0  0  0
    9.9267   -2.7188   23.7312 C   0  0  0  0  0  0  0  0  0  0  0  0
    9.7352   -3.5768   24.3718 H   0  0  0  0  0  0  0  0  0  0  0  0
   10.9850   -2.4867   23.7817 H   0  0  0  0  0  0  0  0  0  0  0  0
    9.5484   -3.0559   22.2683 C   0  0  0  0  0  0  0  0  0  0  0  0
   10.3837   -2.9151   21.5818 H   0  0  0  0  0  0  0  0  0  0  0  0
    9.1226   -4.0509   22.1347 H   0  0  0  0  0  0  0  0  0  0  0  0
    5.3973    0.6214   20.0979 C   0  0  0  0  0  0  0  0  0  0  0  0
    4.9617    0.6229   21.0958 H   0  0  0  0  0  0  0  0  0  0  0  0
    4.7784    1.2962   19.0460 C   0  0  0  0  0  0  0  0  0  0  0  0
    3.8532    1.8461   19.1992 H   0  0  0  0  0  0  0  0  0  0  0  0
  1  2  1  0
  2  3  2  0
  3  4  1  0
  4  5  1  0
  4  6  2  0
  6  7  1  0
  7  8  2  0
  8  9  1  0
  9 10  1  0
 10 11  2  0
 11 12  1  0
 12 13  2  0
 13 14  1  0
 13 15  1  0
 15 16  2  0
 16 17  1  0
 16 18  1  0
 18 19  1  0
 19 20  1  0
 20 21  1  0
 20 22  1  0
 20 23  1  0
 18 24  2  0
 24 25  1  0
 10 26  1  0
 26 27  1  0
 26 28  1  0
 26 29  1  0
 29 30  1  0
 29 31  1  0
 29 32  1  0
 32 33  1  0
 32 34  1  0
  6 35  1  0
 35 36  1  0
 35 37  2  0
 37 38  1  0
 37  2  1  0
 11  7  1  0
 24 12  1  0
 32  9  1  0
M  END
>  <cnnaffinity>  (1) 
-5.55096

>  <filename>  (1) 
COc1cncc(-c2c(-c3cccnc3)nn3c2CCC3)c1

$$$$
