
     RDKit          3D

 34 37  0  0  0  0  0  0  0  0999 V2000
    4.9366    1.7741   16.9999 H   0  0  0  0  0  0  0  0  0  0  0  0
    5.4106    1.2845   17.8455 C   0  0  0  0  0  0  0  0  0  0  0  0
    6.5739    0.6641   17.5954 N   0  0  0  0  0  0  0  0  0  0  0  0
    7.1763    0.0519   18.6197 C   0  0  0  0  0  0  0  0  0  0  0  0
    8.1238   -0.4315   18.3880 H   0  0  0  0  0  0  0  0  0  0  0  0
    6.6406    0.0170   19.9162 C   0  0  0  0  0  0  0  0  0  0  0  0
    7.3650   -0.6900   20.9691 C   0  0  0  0  0  0  0  0  0  0  0  0
    8.5496   -1.3263   20.7492 N   0  0  0  0  0  0  0  0  0  0  0  0
    8.8168   -1.8099   21.9406 C   0  0  0  0  0  0  0  0  0  0  0  0
   10.0372   -2.7675   22.7354 S   0  0  0  0  0  0  0  0  0  0  0  0
    9.1269   -2.7103   24.2148 C   0  0  0  0  0  0  0  0  0  0  0  0
    9.4904   -3.2082   25.0994 H   0  0  0  0  0  0  0  0  0  0  0  0
    7.9787   -2.0048   24.1197 C   0  0  0  0  0  0  0  0  0  0  0  0
    6.9978   -1.7277   25.1951 C   0  0  0  0  0  0  0  0  0  0  0  0
    6.4450   -0.4410   25.3485 C   0  0  0  0  0  0  0  0  0  0  0  0
    6.7221    0.3254   24.6300 H   0  0  0  0  0  0  0  0  0  0  0  0
    5.5520   -0.1477   26.3780 C   0  0  0  0  0  0  0  0  0  0  0  0
    5.1336    0.8534   26.4654 H   0  0  0  0  0  0  0  0  0  0  0  0
    5.1942   -1.1503   27.2798 C   0  0  0  0  0  0  0  0  0  0  0  0
    4.4962   -0.9316   28.0841 H   0  0  0  0  0  0  0  0  0  0  0  0
    5.7220   -2.4400   27.1639 C   0  0  0  0  0  0  0  0  0  0  0  0
    5.4406   -3.2160   27.8721 H   0  0  0  0  0  0  0  0  0  0  0  0
    6.6226   -2.7383   26.1291 C   0  0  0  0  0  0  0  0  0  0  0  0
    7.1621   -3.9743   25.9439 O   0  0  0  0  0  0  0  0  0  0  0  0
    6.8531   -5.0630   26.7949 C   0  0  0  0  0  0  0  0  0  0  0  0
    7.1711   -4.8876   27.8298 H   0  0  0  0  0  0  0  0  0  0  0  0
    7.4195   -5.9036   26.3966 H   0  0  0  0  0  0  0  0  0  0  0  0
    5.7877   -5.3255   26.7800 H   0  0  0  0  0  0  0  0  0  0  0  0
    7.8535   -1.4809   22.8295 N   0  0  0  0  0  0  0  0  0  0  0  0
    6.8963   -0.7536   22.2096 N   0  0  0  0  0  0  0  0  0  0  0  0
    5.4192    0.6609   20.1708 C   0  0  0  0  0  0  0  0  0  0  0  0
    4.9926    0.6391   21.1791 H   0  0  0  0  0  0  0  0  0  0  0  0
    4.8035    1.3102   19.1065 C   0  0  0  0  0  0  0  0  0  0  0  0
    3.8736    1.8431   19.2519 H   0  0  0  0  0  0  0  0  0  0  0  0
  1  2  1  0
  2  3  2  0
  3  4  1  0
  4  5  1  0
  4  6  2  0
  6  7  1  0
  7  8  1  0
  8  9  2  0
  9 10  1  0
 10 11  1  0
 11 12  1  0
 11 13  2  0
 13 14  1  0
 14 15  2  0
 15 16  1  0
 15 17  1  0
 17 18  1  0
 17 19  2  0
 19 20  1  0
 19 21  1  0
 21 22  1  0
 21 23  2  0
 23 24  1  0
 24 25  1  0
 25 26  1  0
 25 27  1  0
 25 28  1  0
 13 29  1  0
 29 30  1  0
  6 31  1  0
 31 32  1  0
 31 33  2  0
 33 34  1  0
 33  2  1  0
 30  7  2  0
 29  9  1  0
 23 14  1  0
M  END
>  <cnnaffinity>  (1) 
-5.46248

>  <filename>  (1) 
COc1ccccc1-c1csc2nc(-c3cccnc3)nn12

$$$$
