
     RDKit          3D

 33 35  0  0  0  0  0  0  0  0999 V2000
    4.9351    1.8007   16.9878 H   0  0  0  0  0  0  0  0  0  0  0  0
    5.3911    1.2963   17.8375 C   0  0  0  0  0  0  0  0  0  0  0  0
    6.5450    0.6643   17.5802 N   0  0  0  0  0  0  0  0  0  0  0  0
    7.1354    0.0345   18.5983 C   0  0  0  0  0  0  0  0  0  0  0  0
    8.1075   -0.4145   18.3975 H   0  0  0  0  0  0  0  0  0  0  0  0
    6.5988   -0.0299   19.8974 C   0  0  0  0  0  0  0  0  0  0  0  0
    7.3189   -0.7497   20.9851 C   0  0  0  0  0  0  0  0  0  0  0  0
    6.5713   -1.5128   21.7413 N   0  0  0  0  0  0  0  0  0  0  0  0
    7.1487   -2.1969   22.7871 N   0  0  0  0  0  0  0  0  0  0  0  0
    6.2730   -3.0092   23.5975 C   0  0  0  0  0  0  0  0  0  0  0  0
    6.4851   -3.1511   24.9859 C   0  0  0  0  0  0  0  0  0  0  0  0
    7.2887   -2.6247   25.4797 H   0  0  0  0  0  0  0  0  0  0  0  0
    5.6111   -3.9369   25.7122 C   0  0  0  0  0  0  0  0  0  0  0  0
    5.7519   -4.0637   26.7861 H   0  0  0  0  0  0  0  0  0  0  0  0
    4.5676   -4.5877   25.1751 N   0  0  0  0  0  0  0  0  0  0  0  0
    4.3824   -4.4425   23.8729 C   0  0  0  0  0  0  0  0  0  0  0  0
    3.3474   -5.0567   23.2725 O   0  0  0  0  0  0  0  0  0  0  0  0
    2.4501   -5.8744   24.0263 C   0  0  0  0  0  0  0  0  0  0  0  0
    2.9630   -6.7228   24.4984 H   0  0  0  0  0  0  0  0  0  0  0  0
    1.9305   -5.3044   24.8082 H   0  0  0  0  0  0  0  0  0  0  0  0
    1.7399   -6.2280   23.2783 H   0  0  0  0  0  0  0  0  0  0  0  0
    5.1987   -3.6699   23.0311 C   0  0  0  0  0  0  0  0  0  0  0  0
    4.9619   -3.5818   21.9848 H   0  0  0  0  0  0  0  0  0  0  0  0
    8.5066   -2.1288   23.0237 C   0  0  0  0  0  0  0  0  0  0  0  0
    8.8676   -2.7480   23.8441 H   0  0  0  0  0  0  0  0  0  0  0  0
    9.3369   -1.3718   22.2843 C   0  0  0  0  0  0  0  0  0  0  0  0
   10.3993   -1.3036   22.4608 H   0  0  0  0  0  0  0  0  0  0  0  0
    8.8085   -0.5689   21.1872 C   0  0  0  0  0  0  0  0  0  0  0  0
    9.5191    0.1645   20.5106 O   0  0  0  0  0  0  0  0  0  0  0  0
    5.3924    0.6318   20.1512 C   0  0  0  0  0  0  0  0  0  0  0  0
    4.9799    0.6178   21.1608 H   0  0  0  0  0  0  0  0  0  0  0  0
    4.7840    1.3187   19.0993 C   0  0  0  0  0  0  0  0  0  0  0  0
    3.8604    1.8695   19.2347 H   0  0  0  0  0  0  0  0  0  0  0  0
  1  2  1  0
  2  3  2  0
  3  4  1  0
  4  5  1  0
  4  6  2  0
  6  7  1  0
  7  8  2  0
  8  9  1  0
  9 10  1  0
 10 11  2  0
 11 12  1  0
 11 13  1  0
 13 14  1  0
 13 15  2  0
 15 16  1  0
 16 17  1  0
 17 18  1  0
 18 19  1  0
 18 20  1  0
 18 21  1  0
 16 22  2  0
 22 23  1  0
  9 24  1  0
 24 25  1  0
 24 26  2  0
 26 27  1  0
 26 28  1  0
 28 29  2  0
  6 30  1  0
 30 31  1  0
 30 32  2  0
 32 33  1  0
 32  2  1  0
 28  7  1  0
 22 10  1  0
M  END
>  <cnnaffinity>  (1) 
-5.16019

>  <filename>  (1) 
COc1cc(-n2ccc(=O)c(-c3cccnc3)n2)ccn1

$$$$
