
     RDKit          3D

 40 42  0  0  0  0  0  0  0  0999 V2000
    4.9647    1.7909   16.9715 H   0  0  0  0  0  0  0  0  0  0  0  0
    5.4300    1.2647   17.8028 C   0  0  0  0  0  0  0  0  0  0  0  0
    6.5658    0.6038   17.5233 N   0  0  0  0  0  0  0  0  0  0  0  0
    7.1754   -0.0258   18.5353 C   0  0  0  0  0  0  0  0  0  0  0  0
    8.1201   -0.5094   18.3051 H   0  0  0  0  0  0  0  0  0  0  0  0
    6.6791   -0.0615   19.8548 C   0  0  0  0  0  0  0  0  0  0  0  0
    7.3819   -0.7320   20.9191 N   0  0  0  0  0  0  0  0  0  0  0  0
    6.7489   -1.7654   21.5951 C   0  0  0  0  0  0  0  0  0  0  0  0
    5.7156   -1.9630   21.3322 H   0  0  0  0  0  0  0  0  0  0  0  0
    7.3789   -2.5198   22.5458 C   0  0  0  0  0  0  0  0  0  0  0  0
    6.7519   -3.6697   23.0865 N   0  0  0  0  0  0  0  0  0  0  0  0
    7.4994   -4.9152   23.2218 C   0  0  0  0  0  0  0  0  0  0  0  0
    7.9343   -5.0319   24.2375 H   0  0  0  0  0  0  0  0  0  0  0  0
    8.3373   -4.9051   22.5209 H   0  0  0  0  0  0  0  0  0  0  0  0
    6.5631   -6.0980   22.9646 C   0  0  0  0  0  0  0  0  0  0  0  0
    7.1236   -7.0393   23.0149 H   0  0  0  0  0  0  0  0  0  0  0  0
    6.1178   -6.0325   21.9639 H   0  0  0  0  0  0  0  0  0  0  0  0
    5.4219   -6.0536   23.9799 C   0  0  0  0  0  0  0  0  0  0  0  0
    5.8395   -6.1476   25.0002 H   0  0  0  0  0  0  0  0  0  0  0  0
    4.5694   -7.1520   23.7305 O   0  0  0  0  0  0  0  0  0  0  0  0
    3.6503   -7.4151   24.7674 C   0  0  0  0  0  0  0  0  0  0  0  0
    4.1668   -7.6710   25.7075 H   0  0  0  0  0  0  0  0  0  0  0  0
    2.9815   -6.5618   24.9642 H   0  0  0  0  0  0  0  0  0  0  0  0
    3.0421   -8.2683   24.4544 H   0  0  0  0  0  0  0  0  0  0  0  0
    4.6889   -4.6945   23.8888 C   0  0  0  0  0  0  0  0  0  0  0  0
    4.1979   -4.6191   22.9097 H   0  0  0  0  0  0  0  0  0  0  0  0
    3.9062   -4.6218   24.6543 H   0  0  0  0  0  0  0  0  0  0  0  0
    5.6853   -3.5464   24.0784 C   0  0  0  0  0  0  0  0  0  0  0  0
    5.1957   -2.5716   23.9857 H   0  0  0  0  0  0  0  0  0  0  0  0
    6.0846   -3.5913   25.1132 H   0  0  0  0  0  0  0  0  0  0  0  0
    8.7030   -2.1209   22.9331 C   0  0  0  0  0  0  0  0  0  0  0  0
    9.1815   -2.6855   23.7308 H   0  0  0  0  0  0  0  0  0  0  0  0
    9.3240   -1.0667   22.3372 C   0  0  0  0  0  0  0  0  0  0  0  0
   10.3113   -0.7110   22.5903 H   0  0  0  0  0  0  0  0  0  0  0  0
    8.7224   -0.3179   21.2478 C   0  0  0  0  0  0  0  0  0  0  0  0
    9.2917    0.5791   20.6468 O   0  0  0  0  0  0  0  0  0  0  0  0
    5.4879    0.6179   20.1270 C   0  0  0  0  0  0  0  0  0  0  0  0
    5.1136    0.6320   21.1524 H   0  0  0  0  0  0  0  0  0  0  0  0
    4.8542    1.2959   19.0784 C   0  0  0  0  0  0  0  0  0  0  0  0
    3.9410    1.8580   19.2399 H   0  0  0  0  0  0  0  0  0  0  0  0
  1  2  1  0
  2  3  2  0
  3  4  1  0
  4  5  1  0
  4  6  2  0
  6  7  1  0
  7  8  1  0
  8  9  1  0
  8 10  2  0
 10 11  1  0
 11 12  1  0
 12 13  1  0
 12 14  1  0
 12 15  1  0
 15 16  1  0
 15 17  1  0
 15 18  1  0
 18 19  1  0
 18 20  1  0
 20 21  1  0
 21 22  1  0
 21 23  1  0
 21 24  1  0
 18 25  1  0
 25 26  1  0
 25 27  1  0
 25 28  1  0
 28 29  1  0
 28 30  1  0
 10 31  1  0
 31 32  1  0
 31 33  2  0
 33 34  1  0
 33 35  1  0
 35 36  2  0
  6 37  1  0
 37 38  1  0
 37 39  2  0
 39 40  1  0
 39  2  1  0
 35  7  1  0
 28 11  1  0
M  END
>  <cnnaffinity>  (1) 
-5.60996

>  <filename>  (1) 
COC1CCN(c2ccc(=O)n(-c3cccnc3)c2)CC1

$$$$
