
     RDKit          3D

 39 41  0  0  0  0  0  0  0  0999 V2000
    4.9271    1.8638   16.9243 H   0  0  0  0  0  0  0  0  0  0  0  0
    5.3842    1.3352   17.7586 C   0  0  0  0  0  0  0  0  0  0  0  0
    6.5430    0.7018   17.5077 N   0  0  0  0  0  0  0  0  0  0  0  0
    7.1313    0.0618   18.5340 C   0  0  0  0  0  0  0  0  0  0  0  0
    8.0434   -0.4832   18.2968 H   0  0  0  0  0  0  0  0  0  0  0  0
    6.6222    0.0221   19.8598 C   0  0  0  0  0  0  0  0  0  0  0  0
    7.2626   -0.6323   20.9367 N   0  0  0  0  0  0  0  0  0  0  0  0
    6.6540   -1.0957   21.6002 H   0  0  0  0  0  0  0  0  0  0  0  0
    8.6373   -0.5879   21.2780 C   0  0  0  0  0  0  0  0  0  0  0  0
    9.6120    0.2861   20.7297 C   0  0  0  0  0  0  0  0  0  0  0  0
    9.4450    1.0565   19.9878 H   0  0  0  0  0  0  0  0  0  0  0  0
   10.8303    0.0741   21.2095 N   0  0  0  0  0  0  0  0  0  0  0  0
   10.6550   -0.9480   22.0664 N   0  0  0  0  0  0  0  0  0  0  0  0
   11.4194   -1.2892   22.6286 H   0  0  0  0  0  0  0  0  0  0  0  0
    9.3614   -1.3611   22.1949 C   0  0  0  0  0  0  0  0  0  0  0  0
    9.0660   -2.3432   23.1359 N   0  0  0  0  0  0  0  0  0  0  0  0
    9.8372   -3.5746   23.2099 C   0  0  0  0  0  0  0  0  0  0  0  0
    9.2476   -4.4217   22.8290 H   0  0  0  0  0  0  0  0  0  0  0  0
   10.7240   -3.4403   22.5819 H   0  0  0  0  0  0  0  0  0  0  0  0
   10.3122   -3.8661   24.6326 C   0  0  0  0  0  0  0  0  0  0  0  0
   11.1182   -3.1675   24.8853 H   0  0  0  0  0  0  0  0  0  0  0  0
   10.7249   -4.8825   24.6634 H   0  0  0  0  0  0  0  0  0  0  0  0
    9.1906   -3.7035   25.6727 C   0  0  0  0  0  0  0  0  0  0  0  0
    9.6359   -3.7114   26.6834 H   0  0  0  0  0  0  0  0  0  0  0  0
    8.2132   -4.7311   25.5502 O   0  0  0  0  0  0  0  0  0  0  0  0
    8.4968   -5.9391   26.2251 C   0  0  0  0  0  0  0  0  0  0  0  0
    9.4574   -6.3789   25.9150 H   0  0  0  0  0  0  0  0  0  0  0  0
    8.5144   -5.8073   27.3198 H   0  0  0  0  0  0  0  0  0  0  0  0
    7.6974   -6.6400   25.9686 H   0  0  0  0  0  0  0  0  0  0  0  0
    8.4520   -2.3736   25.4801 C   0  0  0  0  0  0  0  0  0  0  0  0
    9.1495   -1.5474   25.6832 H   0  0  0  0  0  0  0  0  0  0  0  0
    7.6112   -2.3107   26.1816 H   0  0  0  0  0  0  0  0  0  0  0  0
    7.9369   -2.2325   24.0434 C   0  0  0  0  0  0  0  0  0  0  0  0
    7.1902   -3.0155   23.8389 H   0  0  0  0  0  0  0  0  0  0  0  0
    7.4614   -1.2531   23.9071 H   0  0  0  0  0  0  0  0  0  0  0  0
    5.3851    0.6505   20.0753 C   0  0  0  0  0  0  0  0  0  0  0  0
    4.9281    0.6142   21.0652 H   0  0  0  0  0  0  0  0  0  0  0  0
    4.7662    1.3235   19.0152 C   0  0  0  0  0  0  0  0  0  0  0  0
    3.8230    1.8442   19.1570 H   0  0  0  0  0  0  0  0  0  0  0  0
  1  2  1  0
  2  3  2  0
  3  4  1  0
  4  5  1  0
  4  6  2  0
  6  7  1  0
  7  8  1  0
  7  9  1  0
  9 10  1  0
 10 11  1  0
 10 12  2  0
 12 13  1  0
 13 14  1  0
 13 15  1  0
 15 16  1  0
 16 17  1  0
 17 18  1  0
 17 19  1  0
 17 20  1  0
 20 21  1  0
 20 22  1  0
 20 23  1  0
 23 24  1  0
 23 25  1  0
 25 26  1  0
 26 27  1  0
 26 28  1  0
 26 29  1  0
 23 30  1  0
 30 31  1  0
 30 32  1  0
 30 33  1  0
 33 34  1  0
 33 35  1  0
  6 36  1  0
 36 37  1  0
 36 38  2  0
 38 39  1  0
 38  2  1  0
 15  9  2  0
 33 16  1  0
M  END
>  <cnnaffinity>  (1) 
-5.40749

>  <filename>  (1) 
COC1CCN(c2[nH]ncc2Nc2cccnc2)CC1

$$$$
