
     RDKit          3D

 38 41  0  0  0  0  0  0  0  0999 V2000
    4.9646    1.8395   16.9378 H   0  0  0  0  0  0  0  0  0  0  0  0
    5.3840    1.3107   17.7893 C   0  0  0  0  0  0  0  0  0  0  0  0
    6.5423    0.6644   17.5816 N   0  0  0  0  0  0  0  0  0  0  0  0
    7.0889    0.0325   18.6312 C   0  0  0  0  0  0  0  0  0  0  0  0
    8.0408   -0.4589   18.4224 H   0  0  0  0  0  0  0  0  0  0  0  0
    6.5075   -0.0266   19.9179 C   0  0  0  0  0  0  0  0  0  0  0  0
    7.2431   -0.6690   21.0287 C   0  0  0  0  0  0  0  0  0  0  0  0
    8.5953   -0.6103   21.2711 C   0  0  0  0  0  0  0  0  0  0  0  0
    8.7958   -1.1335   22.5392 C   0  0  0  0  0  0  0  0  0  0  0  0
    7.6829   -1.6061   23.0741 N   0  0  0  0  0  0  0  0  0  0  0  0
    6.7370   -1.2998   22.1411 N   0  0  0  0  0  0  0  0  0  0  0  0
    5.7690   -1.4752   22.3789 H   0  0  0  0  0  0  0  0  0  0  0  0
   10.2069   -0.9307   23.0124 C   0  0  0  0  0  0  0  0  0  0  0  0
   10.2697   -0.4919   24.0112 H   0  0  0  0  0  0  0  0  0  0  0  0
   10.7273   -1.8911   23.0587 H   0  0  0  0  0  0  0  0  0  0  0  0
   10.8248    0.0133   21.9159 C   0  0  2  0  0  0  0  0  0  0  0  0
   11.7700   -0.4301   21.5835 H   0  0  0  0  0  0  0  0  0  0  0  0
   11.1231    1.4139   22.4292 C   0  0  0  0  0  0  0  0  0  0  0  0
   10.0930    2.2735   22.9022 C   0  0  0  0  0  0  0  0  0  0  0  0
    8.8413    1.7880   22.8354 O   0  0  0  0  0  0  0  0  0  0  0  0
    7.7408    2.5745   23.2638 C   0  0  0  0  0  0  0  0  0  0  0  0
    7.8497    2.8522   24.3159 H   0  0  0  0  0  0  0  0  0  0  0  0
    7.6642    3.4893   22.6693 H   0  0  0  0  0  0  0  0  0  0  0  0
    6.8442    1.9638   23.1263 H   0  0  0  0  0  0  0  0  0  0  0  0
   10.2921    3.4891   23.3966 N   0  0  0  0  0  0  0  0  0  0  0  0
   11.5504    3.9492   23.4251 C   0  0  0  0  0  0  0  0  0  0  0  0
   11.6808    4.9528   23.8265 H   0  0  0  0  0  0  0  0  0  0  0  0
   12.6445    3.2186   22.9868 C   0  0  0  0  0  0  0  0  0  0  0  0
   13.6444    3.6372   23.0342 H   0  0  0  0  0  0  0  0  0  0  0  0
   12.4176    1.9319   22.4828 C   0  0  0  0  0  0  0  0  0  0  0  0
   13.2490    1.3224   22.1305 H   0  0  0  0  0  0  0  0  0  0  0  0
    9.8310   -0.0056   20.7085 C   0  0  0  0  0  0  0  0  0  0  0  0
   10.2311   -0.6283   19.9077 H   0  0  0  0  0  0  0  0  0  0  0  0
    9.6639    0.9883   20.2811 H   0  0  0  0  0  0  0  0  0  0  0  0
    5.2929    0.6598   20.1025 C   0  0  0  0  0  0  0  0  0  0  0  0
    4.8339    0.7071   21.0901 H   0  0  0  0  0  0  0  0  0  0  0  0
    4.7264    1.3375   19.0241 C   0  0  0  0  0  0  0  0  0  0  0  0
    3.8112    1.9080   19.1403 H   0  0  0  0  0  0  0  0  0  0  0  0
  1  2  1  0
  2  3  2  0
  3  4  1  0
  4  5  1  0
  4  6  2  0
  6  7  1  0
  7  8  2  0
  8  9  1  0
  9 10  2  0
 10 11  1  0
 11 12  1  0
  9 13  1  0
 13 14  1  0
 13 15  1  0
 13 16  1  0
 16 17  1  6
 16 18  1  0
 18 19  2  0
 19 20  1  0
 20 21  1  0
 21 22  1  0
 21 23  1  0
 21 24  1  0
 19 25  1  0
 25 26  2  0
 26 27  1  0
 26 28  1  0
 28 29  1  0
 28 30  2  0
 30 31  1  0
 16 32  1  0
 32 33  1  0
 32 34  1  0
  6 35  1  0
 35 36  1  0
 35 37  2  0
 37 38  1  0
 37  2  1  0
 11  7  1  0
 30 18  1  0
 32  8  1  0
M  END
>  <cnnaffinity>  (1) 
-5.74346

>  <filename>  (1) 
COc1ncccc1[C@H]1Cc2n[nH]c(-c3cccnc3)c2C1

$$$$
