
     RDKit          3D

 32 34  0  0  0  0  0  0  0  0999 V2000
    4.9195    1.7940   16.9790 H   0  0  0  0  0  0  0  0  0  0  0  0
    5.3941    1.2976   17.8229 C   0  0  0  0  0  0  0  0  0  0  0  0
    6.5587    0.6785   17.5668 N   0  0  0  0  0  0  0  0  0  0  0  0
    7.1637    0.0561   18.5869 C   0  0  0  0  0  0  0  0  0  0  0  0
    8.1214   -0.4059   18.3460 H   0  0  0  0  0  0  0  0  0  0  0  0
    6.6491    0.0056   19.8974 C   0  0  0  0  0  0  0  0  0  0  0  0
    7.3380   -0.6556   21.0097 C   0  0  0  0  0  0  0  0  0  0  0  0
    7.2461   -0.4413   22.3373 C   0  0  0  0  0  0  0  0  0  0  0  0
    6.6528    0.2913   22.8629 H   0  0  0  0  0  0  0  0  0  0  0  0
    8.0929   -1.3303   22.9968 N   0  0  0  0  0  0  0  0  0  0  0  0
    8.2671   -1.4290   24.4015 C   0  0  0  0  0  0  0  0  0  0  0  0
    8.2374   -0.2769   25.2093 C   0  0  0  0  0  0  0  0  0  0  0  0
    8.0933    0.7168   24.7927 H   0  0  0  0  0  0  0  0  0  0  0  0
    8.4183   -0.3283   26.5326 N   0  0  0  0  0  0  0  0  0  0  0  0
    8.6255   -1.5149   27.1043 C   0  0  0  0  0  0  0  0  0  0  0  0
    8.7833   -1.5171   28.1765 H   0  0  0  0  0  0  0  0  0  0  0  0
    8.6552   -2.7321   26.3805 C   0  0  0  0  0  0  0  0  0  0  0  0
    8.8725   -3.8607   27.1033 O   0  0  0  0  0  0  0  0  0  0  0  0
    8.9320   -5.1243   26.4619 C   0  0  0  0  0  0  0  0  0  0  0  0
    9.7514   -5.1774   25.7325 H   0  0  0  0  0  0  0  0  0  0  0  0
    9.1145   -5.8457   27.2594 H   0  0  0  0  0  0  0  0  0  0  0  0
    7.9880   -5.3749   25.9599 H   0  0  0  0  0  0  0  0  0  0  0  0
    8.4758   -2.6831   24.9953 C   0  0  0  0  0  0  0  0  0  0  0  0
    8.5141   -3.5742   24.3707 H   0  0  0  0  0  0  0  0  0  0  0  0
    8.7312   -2.1341   22.0401 C   0  0  0  0  0  0  0  0  0  0  0  0
    9.5202   -3.0432   22.1785 O   0  0  0  0  0  0  0  0  0  0  0  0
    8.2612   -1.6707   20.8400 N   0  0  0  0  0  0  0  0  0  0  0  0
    8.5416   -2.1472   20.0056 H   0  0  0  0  0  0  0  0  0  0  0  0
    5.4294    0.6597   20.1382 C   0  0  0  0  0  0  0  0  0  0  0  0
    4.9935    0.6391   21.1393 H   0  0  0  0  0  0  0  0  0  0  0  0
    4.7965    1.3177   19.0872 C   0  0  0  0  0  0  0  0  0  0  0  0
    3.8658    1.8504   19.2409 H   0  0  0  0  0  0  0  0  0  0  0  0
  1  2  1  0
  2  3  2  0
  3  4  1  0
  4  5  1  0
  4  6  2  0
  6  7  1  0
  7  8  2  0
  8  9  1  0
  8 10  1  0
 10 11  1  0
 11 12  2  0
 12 13  1  0
 12 14  1  0
 14 15  2  0
 15 16  1  0
 15 17  1  0
 17 18  1  0
 18 19  1  0
 19 20  1  0
 19 21  1  0
 19 22  1  0
 17 23  2  0
 23 24  1  0
 10 25  1  0
 25 26  2  0
 25 27  1  0
 27 28  1  0
  6 29  1  0
 29 30  1  0
 29 31  2  0
 31 32  1  0
 31  2  1  0
 27  7  1  0
 23 11  1  0
M  END
>  <cnnaffinity>  (1) 
-5.24717

>  <filename>  (1) 
COc1cncc(-n2cc(-c3cccnc3)[nH]c2=O)c1

$$$$
