
     RDKit          3D

 39 42  0  0  0  0  0  0  0  0999 V2000
    4.9427    1.8153   16.9798 H   0  0  0  0  0  0  0  0  0  0  0  0
    5.4031    1.2938   17.8174 C   0  0  0  0  0  0  0  0  0  0  0  0
    6.5632    0.6693   17.5614 N   0  0  0  0  0  0  0  0  0  0  0  0
    7.1547    0.0221   18.5698 C   0  0  0  0  0  0  0  0  0  0  0  0
    8.1087   -0.4501   18.3348 H   0  0  0  0  0  0  0  0  0  0  0  0
    6.6253   -0.0296   19.8714 C   0  0  0  0  0  0  0  0  0  0  0  0
    7.3555   -0.6914   20.9538 C   0  0  0  0  0  0  0  0  0  0  0  0
    8.0746   -1.7893   20.7307 N   0  0  0  0  0  0  0  0  0  0  0  0
    8.5533   -2.0966   21.9343 N   0  0  0  0  0  0  0  0  0  0  0  0
    8.2252   -1.2639   22.9164 C   0  0  0  0  0  0  0  0  0  0  0  0
    7.4440   -0.2880   22.3271 C   0  0  0  0  0  0  0  0  0  0  0  0
    7.0749    0.9533   22.9866 C   0  0  0  0  0  0  0  0  0  0  0  0
    7.2679    2.1961   22.3530 C   0  0  0  0  0  0  0  0  0  0  0  0
    7.6690    2.2184   21.3396 H   0  0  0  0  0  0  0  0  0  0  0  0
    6.9562    3.3714   23.0120 C   0  0  0  0  0  0  0  0  0  0  0  0
    7.0823    4.3462   22.5529 H   0  0  0  0  0  0  0  0  0  0  0  0
    6.4477    3.3242   24.3215 C   0  0  0  0  0  0  0  0  0  0  0  0
    6.1659    4.5385   24.8567 O   0  0  0  0  0  0  0  0  0  0  0  0
    5.6469    4.6279   26.1641 C   0  0  0  0  0  0  0  0  0  0  0  0
    4.6832    4.1045   26.2490 H   0  0  0  0  0  0  0  0  0  0  0  0
    6.3474    4.2087   26.9013 H   0  0  0  0  0  0  0  0  0  0  0  0
    5.5144    5.6989   26.3304 H   0  0  0  0  0  0  0  0  0  0  0  0
    6.2662    2.0956   24.9686 C   0  0  0  0  0  0  0  0  0  0  0  0
    5.8795    2.0696   25.9812 H   0  0  0  0  0  0  0  0  0  0  0  0
    6.5932    0.9171   24.3000 C   0  0  0  0  0  0  0  0  0  0  0  0
    6.4628   -0.0462   24.7919 H   0  0  0  0  0  0  0  0  0  0  0  0
    9.0641   -1.5110   24.1434 C   0  0  0  0  0  0  0  0  0  0  0  0
    8.4567   -1.7143   25.0315 H   0  0  0  0  0  0  0  0  0  0  0  0
    9.6607   -0.6154   24.3506 H   0  0  0  0  0  0  0  0  0  0  0  0
    9.9390   -2.7256   23.7228 C   0  0  0  0  0  0  0  0  0  0  0  0
    9.7540   -3.5993   24.3467 H   0  0  0  0  0  0  0  0  0  0  0  0
   10.9991   -2.4973   23.7864 H   0  0  0  0  0  0  0  0  0  0  0  0
    9.5716   -3.0555   22.2522 C   0  0  0  0  0  0  0  0  0  0  0  0
    9.1577   -4.0607   22.1470 H   0  0  0  0  0  0  0  0  0  0  0  0
   10.4096   -2.8951   21.5694 H   0  0  0  0  0  0  0  0  0  0  0  0
    5.4127    0.6265   20.1211 C   0  0  0  0  0  0  0  0  0  0  0  0
    4.9982    0.6473   21.1293 H   0  0  0  0  0  0  0  0  0  0  0  0
    4.7910    1.2988   19.0740 C   0  0  0  0  0  0  0  0  0  0  0  0
    3.8671    1.8446   19.2298 H   0  0  0  0  0  0  0  0  0  0  0  0
  1  2  1  0
  2  3  2  0
  3  4  1  0
  4  5  1  0
  4  6  2  0
  6  7  1  0
  7  8  2  0
  8  9  1  0
  9 10  1  0
 10 11  2  0
 11 12  1  0
 12 13  2  0
 13 14  1  0
 13 15  1  0
 15 16  1  0
 15 17  2  0
 17 18  1  0
 18 19  1  0
 19 20  1  0
 19 21  1  0
 19 22  1  0
 17 23  1  0
 23 24  1  0
 23 25  2  0
 25 26  1  0
 10 27  1  0
 27 28  1  0
 27 29  1  0
 27 30  1  0
 30 31  1  0
 30 32  1  0
 30 33  1  0
 33 34  1  0
 33 35  1  0
  6 36  1  0
 36 37  1  0
 36 38  2  0
 38 39  1  0
 38  2  1  0
 11  7  1  0
 25 12  1  0
 33  9  1  0
M  END
>  <cnnaffinity>  (1) 
-5.54786

>  <filename>  (1) 
COc1ccc(-c2c(-c3cccnc3)nn3c2CCC3)cc1

$$$$
