
     RDKit          3D

 33 35  0  0  0  0  0  0  0  0999 V2000
    4.9547    1.7824   16.9922 H   0  0  0  0  0  0  0  0  0  0  0  0
    5.4100    1.2869   17.8469 C   0  0  0  0  0  0  0  0  0  0  0  0
    6.5765    0.6665   17.6070 N   0  0  0  0  0  0  0  0  0  0  0  0
    7.1691    0.0534   18.6348 C   0  0  0  0  0  0  0  0  0  0  0  0
    8.1108   -0.4487   18.4092 H   0  0  0  0  0  0  0  0  0  0  0  0
    6.6436    0.0407   19.9307 C   0  0  0  0  0  0  0  0  0  0  0  0
    7.3985   -0.6834   20.9612 C   0  0  0  0  0  0  0  0  0  0  0  0
    8.0130   -1.7733   20.6996 N   0  0  0  0  0  0  0  0  0  0  0  0
    8.5171   -2.3249   21.9554 C   0  0  0  0  0  0  0  0  0  0  0  0
    9.6125   -2.4029   21.9083 H   0  0  0  0  0  0  0  0  0  0  0  0
    8.1314   -3.3445   22.1030 H   0  0  0  0  0  0  0  0  0  0  0  0
    8.0495   -1.3610   23.0725 C   0  0  0  0  0  0  0  0  0  0  0  0
    8.8774   -0.9629   23.6722 H   0  0  0  0  0  0  0  0  0  0  0  0
    7.3413   -1.8288   23.7718 H   0  0  0  0  0  0  0  0  0  0  0  0
    7.4116   -0.2903   22.2968 N   0  0  0  0  0  0  0  0  0  0  0  0
    7.1863    1.0025   22.8308 C   0  0  0  0  0  0  0  0  0  0  0  0
    6.5891    1.1898   24.1067 C   0  0  0  0  0  0  0  0  0  0  0  0
    6.2755    0.3340   24.6986 H   0  0  0  0  0  0  0  0  0  0  0  0
    6.3626    2.3912   24.6516 N   0  0  0  0  0  0  0  0  0  0  0  0
    6.7307    3.4847   23.9615 C   0  0  0  0  0  0  0  0  0  0  0  0
    6.5347    4.4416   24.4458 H   0  0  0  0  0  0  0  0  0  0  0  0
    7.3364    3.4118   22.6909 C   0  0  0  0  0  0  0  0  0  0  0  0
    7.7270    4.4758   21.9460 O   0  0  0  0  0  0  0  0  0  0  0  0
    7.5425    5.8059   22.4102 C   0  0  0  0  0  0  0  0  0  0  0  0
    8.0965    5.9962   23.3398 H   0  0  0  0  0  0  0  0  0  0  0  0
    7.9422    6.4273   21.6071 H   0  0  0  0  0  0  0  0  0  0  0  0
    6.4821    6.0448   22.5726 H   0  0  0  0  0  0  0  0  0  0  0  0
    7.5625    2.1459   22.1170 C   0  0  0  0  0  0  0  0  0  0  0  0
    7.9969    2.0650   21.1239 H   0  0  0  0  0  0  0  0  0  0  0  0
    5.4106    0.6659   20.1665 C   0  0  0  0  0  0  0  0  0  0  0  0
    4.9676    0.6622   21.1644 H   0  0  0  0  0  0  0  0  0  0  0  0
    4.7932    1.3095   19.1017 C   0  0  0  0  0  0  0  0  0  0  0  0
    3.8624    1.8444   19.2320 H   0  0  0  0  0  0  0  0  0  0  0  0
  1  2  1  0
  2  3  2  0
  3  4  1  0
  4  5  1  0
  4  6  2  0
  6  7  1  0
  7  8  2  0
  8  9  1  0
  9 10  1  0
  9 11  1  0
  9 12  1  0
 12 13  1  0
 12 14  1  0
 12 15  1  0
 15 16  1  0
 16 17  2  0
 17 18  1  0
 17 19  1  0
 19 20  2  0
 20 21  1  0
 20 22  1  0
 22 23  1  0
 23 24  1  0
 24 25  1  0
 24 26  1  0
 24 27  1  0
 22 28  2  0
 28 29  1  0
  6 30  1  0
 30 31  1  0
 30 32  2  0
 32 33  1  0
 32  2  1  0
 15  7  1  0
 28 16  1  0
M  END
>  <cnnaffinity>  (1) 
-4.87507

>  <filename>  (1) 
COc1cncc(N2CCN=C2c2cccnc2)c1

$$$$
