
     RDKit          3D

 40 43  0  0  0  0  0  0  0  0999 V2000
    4.9437    1.8123   16.9839 H   0  0  0  0  0  0  0  0  0  0  0  0
    5.3995    1.2934   17.8277 C   0  0  0  0  0  0  0  0  0  0  0  0
    6.5483    0.6492   17.5687 N   0  0  0  0  0  0  0  0  0  0  0  0
    7.1415    0.0158   18.5851 C   0  0  0  0  0  0  0  0  0  0  0  0
    8.0829   -0.4818   18.3591 H   0  0  0  0  0  0  0  0  0  0  0  0
    6.6416   -0.0001   19.8952 C   0  0  0  0  0  0  0  0  0  0  0  0
    7.4210   -0.6597   20.9404 C   0  0  0  0  0  0  0  0  0  0  0  0
    7.8456   -1.9628   20.8210 N   0  0  0  0  0  0  0  0  0  0  0  0
    8.4604   -2.1814   21.9506 C   0  0  0  0  0  0  0  0  0  0  0  0
    8.5656   -1.0845   22.7404 N   0  0  0  0  0  0  0  0  0  0  0  0
    7.8674   -0.0836   22.1197 C   0  0  0  0  0  0  0  0  0  0  0  0
    7.7018    1.2959   22.6732 C   0  0  0  0  0  0  0  0  0  0  0  0
    7.7596    2.0066   21.8404 H   0  0  0  0  0  0  0  0  0  0  0  0
    8.5492    1.5167   23.3377 H   0  0  0  0  0  0  0  0  0  0  0  0
    6.3939    1.5500   23.4204 C   0  0  0  0  0  0  0  0  0  0  0  0
    5.5651    2.6196   23.0391 C   0  0  0  0  0  0  0  0  0  0  0  0
    5.8503    3.2235   22.1809 H   0  0  0  0  0  0  0  0  0  0  0  0
    4.3756    2.8858   23.7162 C   0  0  0  0  0  0  0  0  0  0  0  0
    3.7474    3.7221   23.4092 H   0  0  0  0  0  0  0  0  0  0  0  0
    3.9868    2.0808   24.7922 C   0  0  0  0  0  0  0  0  0  0  0  0
    3.0676    2.2735   25.3342 H   0  0  0  0  0  0  0  0  0  0  0  0
    4.8066    1.0136   25.1783 C   0  0  0  0  0  0  0  0  0  0  0  0
    4.5476    0.1596   26.2019 O   0  0  0  0  0  0  0  0  0  0  0  0
    3.3812    0.3266   26.9743 C   0  0  0  0  0  0  0  0  0  0  0  0
    3.3669    1.3052   27.4733 H   0  0  0  0  0  0  0  0  0  0  0  0
    3.4198   -0.4707   27.7175 H   0  0  0  0  0  0  0  0  0  0  0  0
    2.4768    0.2250   26.3593 H   0  0  0  0  0  0  0  0  0  0  0  0
    6.0030    0.7506   24.4938 C   0  0  0  0  0  0  0  0  0  0  0  0
    6.5871   -0.1019   24.8287 H   0  0  0  0  0  0  0  0  0  0  0  0
    9.4020   -1.1547   23.9208 C   0  0  0  0  0  0  0  0  0  0  0  0
   10.0458   -0.2687   23.9650 H   0  0  0  0  0  0  0  0  0  0  0  0
    8.7903   -1.1633   24.8284 H   0  0  0  0  0  0  0  0  0  0  0  0
   10.2028   -2.4610   23.7546 C   0  0  0  0  0  0  0  0  0  0  0  0
   10.4072   -2.9594   24.7021 H   0  0  0  0  0  0  0  0  0  0  0  0
   11.1482   -2.2701   23.2417 H   0  0  0  0  0  0  0  0  0  0  0  0
    9.1911   -3.5822   22.7027 S   0  0  0  0  0  0  0  0  0  0  0  0
    5.4310    0.6667   20.1460 C   0  0  0  0  0  0  0  0  0  0  0  0
    4.9968    0.6700   21.1447 H   0  0  0  0  0  0  0  0  0  0  0  0
    4.7935    1.3207   19.0895 C   0  0  0  0  0  0  0  0  0  0  0  0
    3.8587    1.8598   19.2272 H   0  0  0  0  0  0  0  0  0  0  0  0
  1  2  1  0
  2  3  2  0
  3  4  1  0
  4  5  1  0
  4  6  2  0
  6  7  1  0
  7  8  1  0
  8  9  2  0
  9 10  1  0
 10 11  1  0
 11 12  1  0
 12 13  1  0
 12 14  1  0
 12 15  1  0
 15 16  2  0
 16 17  1  0
 16 18  1  0
 18 19  1  0
 18 20  2  0
 20 21  1  0
 20 22  1  0
 22 23  1  0
 23 24  1  0
 24 25  1  0
 24 26  1  0
 24 27  1  0
 22 28  2  0
 28 29  1  0
 10 30  1  0
 30 31  1  0
 30 32  1  0
 30 33  1  0
 33 34  1  0
 33 35  1  0
 33 36  1  0
  6 37  1  0
 37 38  1  0
 37 39  2  0
 39 40  1  0
 39  2  1  0
 11  7  2  0
 28 15  1  0
 36  9  1  0
M  END
>  <cnnaffinity>  (1) 
-5.67161

>  <filename>  (1) 
COc1cccc(Cc2c(-c3cccnc3)nc3n2CCS3)c1

$$$$
