
     RDKit          3D

 37 38  0  0  0  0  0  0  0  0999 V2000
    4.9961    1.7815   17.0112 H   0  0  0  0  0  0  0  0  0  0  0  0
    5.4259    1.2577   17.8616 C   0  0  0  0  0  0  0  0  0  0  0  0
    6.5859    0.6223   17.6453 N   0  0  0  0  0  0  0  0  0  0  0  0
    7.1476    0.0078   18.6866 C   0  0  0  0  0  0  0  0  0  0  0  0
    8.1120   -0.4722   18.5194 H   0  0  0  0  0  0  0  0  0  0  0  0
    6.5718   -0.0459   19.9596 C   0  0  0  0  0  0  0  0  0  0  0  0
    7.3980   -0.7812   20.9550 C   0  0  0  0  0  0  0  0  0  0  0  0
    8.6069   -0.8895   20.8248 O   0  0  0  0  0  0  0  0  0  0  0  0
    6.7121   -1.3361   21.9832 N   0  0  0  0  0  0  0  0  0  0  0  0
    5.7112   -1.2519   21.9586 H   0  0  0  0  0  0  0  0  0  0  0  0
    7.3611   -1.8510   23.2052 C   0  0  0  0  0  0  0  0  0  0  0  0
    8.2370   -0.7653   23.9007 C   0  0  0  0  0  0  0  0  0  0  0  0
    9.4627   -1.0478   24.5420 C   0  0  0  0  0  0  0  0  0  0  0  0
    9.8862   -2.0422   24.5480 H   0  0  0  0  0  0  0  0  0  0  0  0
   10.1623   -0.0293   25.1726 C   0  0  0  0  0  0  0  0  0  0  0  0
   11.1148   -0.2345   25.6496 H   0  0  0  0  0  0  0  0  0  0  0  0
    9.7459    1.2468   25.2339 N   0  0  0  0  0  0  0  0  0  0  0  0
    8.5872    1.5067   24.6560 C   0  0  0  0  0  0  0  0  0  0  0  0
    8.0673    2.7469   24.6574 O   0  0  0  0  0  0  0  0  0  0  0  0
    8.7935    3.8075   25.2621 C   0  0  0  0  0  0  0  0  0  0  0  0
    9.7670    3.9458   24.7831 H   0  0  0  0  0  0  0  0  0  0  0  0
    8.9520    3.6203   26.3277 H   0  0  0  0  0  0  0  0  0  0  0  0
    8.1828    4.6998   25.1264 H   0  0  0  0  0  0  0  0  0  0  0  0
    7.7947    0.5531   23.9979 C   0  0  0  0  0  0  0  0  0  0  0  0
    6.8657    0.9135   23.5804 H   0  0  0  0  0  0  0  0  0  0  0  0
    6.2490   -2.2535   24.1748 C   0  0  0  0  0  0  0  0  0  0  0  0
    5.6543   -1.3864   24.4769 H   0  0  0  0  0  0  0  0  0  0  0  0
    5.5863   -3.0038   23.7300 H   0  0  0  0  0  0  0  0  0  0  0  0
    6.6823   -2.6783   25.0858 H   0  0  0  0  0  0  0  0  0  0  0  0
    8.1636   -3.1016   22.8093 C   0  0  0  0  0  0  0  0  0  0  0  0
    9.0188   -2.8216   22.1924 H   0  0  0  0  0  0  0  0  0  0  0  0
    8.5081   -3.6484   23.6935 H   0  0  0  0  0  0  0  0  0  0  0  0
    7.5173   -3.7684   22.2284 H   0  0  0  0  0  0  0  0  0  0  0  0
    5.3558    0.6233   20.1807 C   0  0  0  0  0  0  0  0  0  0  0  0
    4.8817    0.6649   21.1666 H   0  0  0  0  0  0  0  0  0  0  0  0
    4.7827    1.2938   19.1033 C   0  0  0  0  0  0  0  0  0  0  0  0
    3.8618    1.8507   19.2232 H   0  0  0  0  0  0  0  0  0  0  0  0
  1  2  1  0
  2  3  2  0
  3  4  1  0
  4  5  1  0
  4  6  2  0
  6  7  1  0
  7  8  2  0
  7  9  1  0
  9 10  1  0
  9 11  1  0
 11 12  1  0
 12 13  2  0
 13 14  1  0
 13 15  1  0
 15 16  1  0
 15 17  2  0
 17 18  1  0
 18 19  1  0
 19 20  1  0
 20 21  1  0
 20 22  1  0
 20 23  1  0
 18 24  2  0
 24 25  1  0
 11 26  1  0
 26 27  1  0
 26 28  1  0
 26 29  1  0
 11 30  1  0
 30 31  1  0
 30 32  1  0
 30 33  1  0
  6 34  1  0
 34 35  1  0
 34 36  2  0
 36 37  1  0
 36  2  1  0
 24 12  1  0
M  END
>  <cnnaffinity>  (1) 
-5.1577

>  <filename>  (1) 
COc1cc(C(C)(C)NC(=O)c2cccnc2)ccn1

$$$$
