
     RDKit          3D

 33 36  0  0  0  0  0  0  0  0999 V2000
    4.9293    1.7727   17.0025 H   0  0  0  0  0  0  0  0  0  0  0  0
    5.4089    1.2854   17.8467 C   0  0  0  0  0  0  0  0  0  0  0  0
    6.5738    0.6671   17.5956 N   0  0  0  0  0  0  0  0  0  0  0  0
    7.1794    0.0529   18.6166 C   0  0  0  0  0  0  0  0  0  0  0  0
    8.1263   -0.4328   18.3859 H   0  0  0  0  0  0  0  0  0  0  0  0
    6.6453    0.0165   19.9124 C   0  0  0  0  0  0  0  0  0  0  0  0
    7.3657   -0.6892   20.9682 C   0  0  0  0  0  0  0  0  0  0  0  0
    8.5487   -1.3295   20.7621 N   0  0  0  0  0  0  0  0  0  0  0  0
    8.7964   -1.8166   21.9573 C   0  0  0  0  0  0  0  0  0  0  0  0
    9.9873   -2.8131   22.7355 S   0  0  0  0  0  0  0  0  0  0  0  0
    9.0656   -2.7673   24.2139 C   0  0  0  0  0  0  0  0  0  0  0  0
    9.4578   -3.2850   25.0766 H   0  0  0  0  0  0  0  0  0  0  0  0
    7.9436   -2.0221   24.1315 C   0  0  0  0  0  0  0  0  0  0  0  0
    6.9623   -1.7573   25.2082 C   0  0  0  0  0  0  0  0  0  0  0  0
    6.7371   -2.7016   26.2175 C   0  0  0  0  0  0  0  0  0  0  0  0
    7.2764   -3.6435   26.1979 H   0  0  0  0  0  0  0  0  0  0  0  0
    5.8702   -2.5600   27.2346 N   0  0  0  0  0  0  0  0  0  0  0  0
    5.1838   -1.4281   27.2792 C   0  0  0  0  0  0  0  0  0  0  0  0
    4.2912   -1.1961   28.2602 O   0  0  0  0  0  0  0  0  0  0  0  0
    4.0654   -2.1617   29.2881 C   0  0  0  0  0  0  0  0  0  0  0  0
    3.3098   -1.7330   29.9480 H   0  0  0  0  0  0  0  0  0  0  0  0
    3.6839   -3.1058   28.8881 H   0  0  0  0  0  0  0  0  0  0  0  0
    4.9679   -2.3621   29.8734 H   0  0  0  0  0  0  0  0  0  0  0  0
    5.3248   -0.3921   26.3250 C   0  0  0  0  0  0  0  0  0  0  0  0
    4.7285    0.5033   26.4241 H   0  0  0  0  0  0  0  0  0  0  0  0
    6.2170   -0.5552   25.2855 C   0  0  0  0  0  0  0  0  0  0  0  0
    6.3569    0.2080   24.5169 H   0  0  0  0  0  0  0  0  0  0  0  0
    7.8294   -1.4845   22.8398 N   0  0  0  0  0  0  0  0  0  0  0  0
    6.8839   -0.7497   22.2057 N   0  0  0  0  0  0  0  0  0  0  0  0
    5.4242    0.6594   20.1680 C   0  0  0  0  0  0  0  0  0  0  0  0
    4.9978    0.6355   21.1762 H   0  0  0  0  0  0  0  0  0  0  0  0
    4.8044    1.3102   19.1084 C   0  0  0  0  0  0  0  0  0  0  0  0
    3.8741    1.8430   19.2565 H   0  0  0  0  0  0  0  0  0  0  0  0
  1  2  1  0
  2  3  2  0
  3  4  1  0
  4  5  1  0
  4  6  2  0
  6  7  1  0
  7  8  1  0
  8  9  2  0
  9 10  1  0
 10 11  1  0
 11 12  1  0
 11 13  2  0
 13 14  1  0
 14 15  2  0
 15 16  1  0
 15 17  1  0
 17 18  2  0
 18 19  1  0
 19 20  1  0
 20 21  1  0
 20 22  1  0
 20 23  1  0
 18 24  1  0
 24 25  1  0
 24 26  2  0
 26 27  1  0
 13 28  1  0
 28 29  1  0
  6 30  1  0
 30 31  1  0
 30 32  2  0
 32 33  1  0
 32  2  1  0
 29  7  2  0
 28  9  1  0
 26 14  1  0
M  END
>  <cnnaffinity>  (1) 
-5.60512

>  <filename>  (1) 
COc1ccc(-c2csc3nc(-c4cccnc4)nn23)cn1

$$$$
