
     RDKit          3D

 39 41  0  0  0  0  0  0  0  0999 V2000
    4.9420    1.8025   16.9856 H   0  0  0  0  0  0  0  0  0  0  0  0
    5.3917    1.2949   17.8376 C   0  0  0  0  0  0  0  0  0  0  0  0
    6.5442    0.6606   17.5893 N   0  0  0  0  0  0  0  0  0  0  0  0
    7.1321    0.0273   18.6097 C   0  0  0  0  0  0  0  0  0  0  0  0
    8.1062   -0.4116   18.4016 H   0  0  0  0  0  0  0  0  0  0  0  0
    6.5878   -0.0452   19.9124 C   0  0  0  0  0  0  0  0  0  0  0  0
    7.2938   -0.7737   21.0179 C   0  0  0  0  0  0  0  0  0  0  0  0
    6.5679   -1.5654   21.7778 N   0  0  0  0  0  0  0  0  0  0  0  0
    7.1732   -2.1801   22.8235 N   0  0  0  0  0  0  0  0  0  0  0  0
    6.4720   -3.0778   23.5809 N   0  0  0  0  0  0  0  0  0  0  0  0
    5.2831   -3.7060   22.9724 C   0  0  0  0  0  0  0  0  0  0  0  0
    4.4042   -3.0526   23.0518 H   0  0  0  0  0  0  0  0  0  0  0  0
    5.5061   -3.8375   21.9082 H   0  0  0  0  0  0  0  0  0  0  0  0
    5.0252   -5.0497   23.6884 C   0  0  0  0  0  0  0  0  0  0  0  0
    5.8700   -5.7207   23.4754 H   0  0  0  0  0  0  0  0  0  0  0  0
    4.1105   -5.5227   23.3138 H   0  0  0  0  0  0  0  0  0  0  0  0
    4.9120   -4.8984   25.2124 C   0  0  0  0  0  0  0  0  0  0  0  0
    4.8964   -5.9097   25.6557 H   0  0  0  0  0  0  0  0  0  0  0  0
    3.6944   -4.2255   25.5127 O   0  0  0  0  0  0  0  0  0  0  0  0
    3.0552   -4.6470   26.6998 C   0  0  0  0  0  0  0  0  0  0  0  0
    2.6705   -5.6760   26.6110 H   0  0  0  0  0  0  0  0  0  0  0  0
    3.7184   -4.6094   27.5797 H   0  0  0  0  0  0  0  0  0  0  0  0
    2.2189   -3.9645   26.8603 H   0  0  0  0  0  0  0  0  0  0  0  0
    6.1190   -4.1233   25.7755 C   0  0  0  0  0  0  0  0  0  0  0  0
    7.0137   -4.7481   25.6452 H   0  0  0  0  0  0  0  0  0  0  0  0
    5.9844   -3.9536   26.8516 H   0  0  0  0  0  0  0  0  0  0  0  0
    6.3287   -2.7901   25.0322 C   0  0  0  0  0  0  0  0  0  0  0  0
    7.2273   -2.2627   25.3824 H   0  0  0  0  0  0  0  0  0  0  0  0
    5.4899   -2.0974   25.1971 H   0  0  0  0  0  0  0  0  0  0  0  0
    8.5241   -2.1245   23.0399 C   0  0  0  0  0  0  0  0  0  0  0  0
    8.8035   -2.7843   23.8554 H   0  0  0  0  0  0  0  0  0  0  0  0
    9.3342   -1.3718   22.2923 C   0  0  0  0  0  0  0  0  0  0  0  0
   10.3998   -1.2900   22.4375 H   0  0  0  0  0  0  0  0  0  0  0  0
    8.7690   -0.5934   21.2165 C   0  0  0  0  0  0  0  0  0  0  0  0
    9.4652    0.1459   20.5226 O   0  0  0  0  0  0  0  0  0  0  0  0
    5.3848    0.6296   20.1504 C   0  0  0  0  0  0  0  0  0  0  0  0
    4.9606    0.6364   21.1549 H   0  0  0  0  0  0  0  0  0  0  0  0
    4.7807    1.3194   19.0960 C   0  0  0  0  0  0  0  0  0  0  0  0
    3.8597    1.8741   19.2290 H   0  0  0  0  0  0  0  0  0  0  0  0
  1  2  1  0
  2  3  2  0
  3  4  1  0
  4  5  1  0
  4  6  2  0
  6  7  1  0
  7  8  2  0
  8  9  1  0
  9 10  1  0
 10 11  1  0
 11 12  1  0
 11 13  1  0
 11 14  1  0
 14 15  1  0
 14 16  1  0
 14 17  1  0
 17 18  1  0
 17 19  1  0
 19 20  1  0
 20 21  1  0
 20 22  1  0
 20 23  1  0
 17 24  1  0
 24 25  1  0
 24 26  1  0
 24 27  1  0
 27 28  1  0
 27 29  1  0
  9 30  1  0
 30 31  1  0
 30 32  2  0
 32 33  1  0
 32 34  1  0
 34 35  2  0
  6 36  1  0
 36 37  1  0
 36 38  2  0
 38 39  1  0
 38  2  1  0
 34  7  1  0
 27 10  1  0
M  END
>  <cnnaffinity>  (1) 
-5.17384

>  <filename>  (1) 
COC1CCN(n2ccc(=O)c(-c3cccnc3)n2)CC1

$$$$
