
     RDKit          3D

 40 42  0  0  0  0  0  0  0  0999 V2000
    5.3875   -2.5240   20.9857 H   0  0  0  0  0  0  0  0  0  0  0  0
    5.9079   -2.4597   21.9476 C   0  0  0  0  0  0  0  0  0  0  0  0
    7.0416   -1.7330   21.9929 C   0  0  0  0  0  0  0  0  0  0  0  0
    7.5306   -0.7655   20.9699 C   0  0  0  0  0  0  0  0  0  0  0  0
    6.6934   -0.0909   19.9442 C   0  0  0  0  0  0  0  0  0  0  0  0
    7.2455    0.0210   18.6610 C   0  0  0  0  0  0  0  0  0  0  0  0
    8.2140   -0.4266   18.4508 H   0  0  0  0  0  0  0  0  0  0  0  0
    6.6496    0.6359   17.6385 N   0  0  0  0  0  0  0  0  0  0  0  0
    5.4711    1.2287   17.8847 C   0  0  0  0  0  0  0  0  0  0  0  0
    5.0140    1.7445   17.0406 H   0  0  0  0  0  0  0  0  0  0  0  0
    4.8485    1.2208   19.1385 C   0  0  0  0  0  0  0  0  0  0  0  0
    3.9141    1.7609   19.2690 H   0  0  0  0  0  0  0  0  0  0  0  0
    5.4648    0.5392   20.1943 C   0  0  0  0  0  0  0  0  0  0  0  0
    5.0111    0.5154   21.1886 H   0  0  0  0  0  0  0  0  0  0  0  0
    8.7855   -0.5122   21.0484 N   0  0  0  0  0  0  0  0  0  0  0  0
    9.3641   -1.2619   22.1599 C   0  0  0  0  0  0  0  0  0  0  0  0
   10.0090   -2.0351   21.7285 H   0  0  0  0  0  0  0  0  0  0  0  0
    9.9844   -0.5947   22.7635 H   0  0  0  0  0  0  0  0  0  0  0  0
    8.1975   -1.8693   22.9693 C   0  0  0  0  0  0  0  0  0  0  0  0
    8.3848   -2.8953   23.2969 H   0  0  0  0  0  0  0  0  0  0  0  0
    8.0271   -1.2512   23.8564 H   0  0  0  0  0  0  0  0  0  0  0  0
    5.2839   -3.2359   23.0472 C   0  0  0  0  0  0  0  0  0  0  0  0
    5.4062   -2.9006   24.4032 C   0  0  0  0  0  0  0  0  0  0  0  0
    5.9952   -2.0336   24.6856 H   0  0  0  0  0  0  0  0  0  0  0  0
    4.7557   -3.6469   25.3993 C   0  0  0  0  0  0  0  0  0  0  0  0
    4.8515   -3.3352   26.4336 H   0  0  0  0  0  0  0  0  0  0  0  0
    3.9876   -4.7730   25.0774 C   0  0  0  0  0  0  0  0  0  0  0  0
    3.3885   -5.5918   25.9859 O   0  0  0  0  0  0  0  0  0  0  0  0
    3.5791   -5.3693   27.3679 C   0  0  0  0  0  0  0  0  0  0  0  0
    3.0938   -6.2102   27.8664 H   0  0  0  0  0  0  0  0  0  0  0  0
    4.6452   -5.3493   27.6378 H   0  0  0  0  0  0  0  0  0  0  0  0
    3.1050   -4.4312   27.6878 H   0  0  0  0  0  0  0  0  0  0  0  0
    3.8329   -5.1164   23.6951 C   0  0  0  0  0  0  0  0  0  0  0  0
    3.0533   -6.2023   23.4248 O   0  0  0  0  0  0  0  0  0  0  0  0
    2.9202   -6.6388   22.0924 C   0  0  0  0  0  0  0  0  0  0  0  0
    2.3577   -7.5730   22.1261 H   0  0  0  0  0  0  0  0  0  0  0  0
    2.3608   -5.9060   21.4987 H   0  0  0  0  0  0  0  0  0  0  0  0
    3.9002   -6.8200   21.6301 H   0  0  0  0  0  0  0  0  0  0  0  0
    4.4801   -4.3548   22.7219 C   0  0  0  0  0  0  0  0  0  0  0  0
    4.4024   -4.6483   21.6841 H   0  0  0  0  0  0  0  0  0  0  0  0
  1  2  1  0
  2  3  2  3
  3  4  1  0
  4  5  1  0
  5  6  2  0
  6  7  1  0
  6  8  1  0
  8  9  2  0
  9 10  1  0
  9 11  1  0
 11 12  1  0
 11 13  2  0
 13 14  1  0
  4 15  2  0
 15 16  1  0
 16 17  1  0
 16 18  1  0
 16 19  1  0
 19 20  1  0
 19 21  1  0
  2 22  1  0
 22 23  2  0
 23 24  1  0
 23 25  1  0
 25 26  1  0
 25 27  2  0
 27 28  1  0
 28 29  1  0
 29 30  1  0
 29 31  1  0
 29 32  1  0
 27 33  1  0
 33 34  1  0
 34 35  1  0
 35 36  1  0
 35 37  1  0
 35 38  1  0
 33 39  2  0
 39 40  1  0
 19  3  1  0
 39 22  1  0
 13  5  1  0
M  END
>  <cnnaffinity>  (1) 
-5.26749

>  <filename>  (1) 
COc1ccc(C=C2CCN=C2c2cccnc2)cc1OC

$$$$
