
     RDKit          3D

 35 37  0  0  0  0  0  0  0  0999 V2000
    4.9223    1.7874   16.9941 H   0  0  0  0  0  0  0  0  0  0  0  0
    5.4022    1.2964   17.8348 C   0  0  0  0  0  0  0  0  0  0  0  0
    6.5669    0.6804   17.5721 N   0  0  0  0  0  0  0  0  0  0  0  0
    7.1676    0.0503   18.5847 C   0  0  0  0  0  0  0  0  0  0  0  0
    8.1187   -0.4335   18.3662 H   0  0  0  0  0  0  0  0  0  0  0  0
    6.6504    0.0088   19.8918 C   0  0  0  0  0  0  0  0  0  0  0  0
    7.3817   -0.6752   20.9706 C   0  0  0  0  0  0  0  0  0  0  0  0
    8.0140   -1.8611   20.7223 N   0  0  0  0  0  0  0  0  0  0  0  0
    8.5503   -2.4204   21.7351 N   0  0  0  0  0  0  0  0  0  0  0  0
    8.3225   -1.5118   23.1371 S   0  0  0  0  0  0  0  0  0  0  0  0
    7.4726   -0.2732   22.3018 C   0  0  0  0  0  0  0  0  0  0  0  0
    7.0520    0.9014   22.8596 N   0  0  0  0  0  0  0  0  0  0  0  0
    7.4191    2.1943   22.2692 C   0  0  0  0  0  0  0  0  0  0  0  0
    6.5243    2.8183   22.1369 H   0  0  0  0  0  0  0  0  0  0  0  0
    7.8478    2.0240   21.2753 H   0  0  0  0  0  0  0  0  0  0  0  0
    8.4196    2.9143   23.1793 C   0  0  0  0  0  0  0  0  0  0  0  0
    8.6364    3.9161   22.7979 H   0  0  0  0  0  0  0  0  0  0  0  0
    9.3643    2.3590   23.1903 H   0  0  0  0  0  0  0  0  0  0  0  0
    7.9110    3.0230   24.6146 C   0  0  0  0  0  0  0  0  0  0  0  0
    8.7273    3.4243   25.2420 H   0  0  0  0  0  0  0  0  0  0  0  0
    6.8071    3.9227   24.6320 O   0  0  0  0  0  0  0  0  0  0  0  0
    6.7516    4.7343   25.7861 C   0  0  0  0  0  0  0  0  0  0  0  0
    5.8194    5.3015   25.7470 H   0  0  0  0  0  0  0  0  0  0  0  0
    6.7704    4.1452   26.7188 H   0  0  0  0  0  0  0  0  0  0  0  0
    7.6009    5.4362   25.8194 H   0  0  0  0  0  0  0  0  0  0  0  0
    7.4868    1.6504   25.1526 C   0  0  0  0  0  0  0  0  0  0  0  0
    7.0418    1.7656   26.1464 H   0  0  0  0  0  0  0  0  0  0  0  0
    8.3767    1.0224   25.2599 H   0  0  0  0  0  0  0  0  0  0  0  0
    6.4997    0.9649   24.2074 C   0  0  0  0  0  0  0  0  0  0  0  0
    5.5605    1.5340   24.1842 H   0  0  0  0  0  0  0  0  0  0  0  0
    6.2651   -0.0513   24.5373 H   0  0  0  0  0  0  0  0  0  0  0  0
    5.4309    0.6543   20.1504 C   0  0  0  0  0  0  0  0  0  0  0  0
    5.0129    0.6343   21.1575 H   0  0  0  0  0  0  0  0  0  0  0  0
    4.8030    1.3114   19.0982 C   0  0  0  0  0  0  0  0  0  0  0  0
    3.8729    1.8426   19.2505 H   0  0  0  0  0  0  0  0  0  0  0  0
  1  2  1  0
  2  3  2  0
  3  4  1  0
  4  5  1  0
  4  6  2  0
  6  7  1  0
  7  8  1  0
  8  9  2  0
  9 10  1  0
 10 11  1  0
 11 12  1  0
 12 13  1  0
 13 14  1  0
 13 15  1  0
 13 16  1  0
 16 17  1  0
 16 18  1  0
 16 19  1  0
 19 20  1  0
 19 21  1  0
 21 22  1  0
 22 23  1  0
 22 24  1  0
 22 25  1  0
 19 26  1  0
 26 27  1  0
 26 28  1  0
 26 29  1  0
 29 30  1  0
 29 31  1  0
  6 32  1  0
 32 33  1  0
 32 34  2  0
 34 35  1  0
 34  2  1  0
 11  7  2  0
 29 12  1  0
M  END
>  <cnnaffinity>  (1) 
-4.92494

>  <filename>  (1) 
COC1CCN(c2snnc2-c2cccnc2)CC1

$$$$
