
     RDKit          3D

 38 41  0  0  0  0  0  0  0  0999 V2000
    4.9493    1.7867   16.9877 H   0  0  0  0  0  0  0  0  0  0  0  0
    5.3968    1.2847   17.8375 C   0  0  0  0  0  0  0  0  0  0  0  0
    6.5596    0.6552   17.6027 N   0  0  0  0  0  0  0  0  0  0  0  0
    7.1630    0.0749   18.6415 C   0  0  0  0  0  0  0  0  0  0  0  0
    8.1114   -0.4166   18.4080 H   0  0  0  0  0  0  0  0  0  0  0  0
    6.6563    0.0895   19.9596 C   0  0  0  0  0  0  0  0  0  0  0  0
    7.4118   -0.5959   21.0233 C   0  0  0  0  0  0  0  0  0  0  0  0
    8.2453   -1.6431   20.8655 C   0  0  0  0  0  0  0  0  0  0  0  0
    8.6103   -2.0280   19.9402 H   0  0  0  0  0  0  0  0  0  0  0  0
    8.8485   -2.3117   22.3508 S   0  0  0  0  0  0  0  0  0  0  0  0
    8.0825   -1.0132   23.2057 C   0  0  0  0  0  0  0  0  0  0  0  0
    8.1093   -0.5121   24.4127 N   0  0  0  0  0  0  0  0  0  0  0  0
    7.3455    0.6102   24.2612 C   0  0  0  0  0  0  0  0  0  0  0  0
    7.0840    1.5535   25.3578 C   0  0  0  0  0  0  0  0  0  0  0  0
    7.6226    1.3179   26.6292 C   0  0  0  0  0  0  0  0  0  0  0  0
    8.2444    0.4390   26.7970 H   0  0  0  0  0  0  0  0  0  0  0  0
    7.3595    2.2118   27.6673 C   0  0  0  0  0  0  0  0  0  0  0  0
    7.7760    2.0226   28.6536 H   0  0  0  0  0  0  0  0  0  0  0  0
    6.5629    3.3459   27.4490 C   0  0  0  0  0  0  0  0  0  0  0  0
    6.2539    4.2578   28.4020 O   0  0  0  0  0  0  0  0  0  0  0  0
    6.7301    4.0501   29.7105 C   0  0  0  0  0  0  0  0  0  0  0  0
    6.3688    3.0941   30.1138 H   0  0  0  0  0  0  0  0  0  0  0  0
    7.8261    4.0569   29.7311 H   0  0  0  0  0  0  0  0  0  0  0  0
    6.3441    4.8790   30.3034 H   0  0  0  0  0  0  0  0  0  0  0  0
    6.0203    3.5979   26.1467 C   0  0  0  0  0  0  0  0  0  0  0  0
    5.2608    4.7187   26.0063 O   0  0  0  0  0  0  0  0  0  0  0  0
    4.7061    5.0147   24.7422 C   0  0  0  0  0  0  0  0  0  0  0  0
    5.4951    5.1520   23.9908 H   0  0  0  0  0  0  0  0  0  0  0  0
    4.0293    4.2142   24.4147 H   0  0  0  0  0  0  0  0  0  0  0  0
    4.1449    5.9445   24.8595 H   0  0  0  0  0  0  0  0  0  0  0  0
    6.2920    2.6989   25.1213 C   0  0  0  0  0  0  0  0  0  0  0  0
    5.8935    2.8805   24.1221 H   0  0  0  0  0  0  0  0  0  0  0  0
    6.8572    0.8172   23.0412 N   0  0  0  0  0  0  0  0  0  0  0  0
    7.3390   -0.2547   22.3725 N   0  0  0  0  0  0  0  0  0  0  0  0
    5.4169    0.7273   20.1727 C   0  0  0  0  0  0  0  0  0  0  0  0
    4.9780    0.7495   21.1700 H   0  0  0  0  0  0  0  0  0  0  0  0
    4.7813    1.3290   19.0911 C   0  0  0  0  0  0  0  0  0  0  0  0
    3.8344    1.8491   19.2028 H   0  0  0  0  0  0  0  0  0  0  0  0
  1  2  1  0
  2  3  2  0
  3  4  1  0
  4  5  1  0
  4  6  2  0
  6  7  1  0
  7  8  2  0
  8  9  1  0
  8 10  1  0
 10 11  1  0
 11 12  2  0
 12 13  1  0
 13 14  1  0
 14 15  2  0
 15 16  1  0
 15 17  1  0
 17 18  1  0
 17 19  2  0
 19 20  1  0
 20 21  1  0
 21 22  1  0
 21 23  1  0
 21 24  1  0
 19 25  1  0
 25 26  1  0
 26 27  1  0
 27 28  1  0
 27 29  1  0
 27 30  1  0
 25 31  2  0
 31 32  1  0
 13 33  2  0
 33 34  1  0
  6 35  1  0
 35 36  1  0
 35 37  2  0
 37 38  1  0
 37  2  1  0
 34  7  1  0
 34 11  1  0
 31 14  1  0
M  END
>  <cnnaffinity>  (1) 
-5.27158

>  <filename>  (1) 
COc1ccc(-c2nc3scc(-c4cccnc4)n3n2)cc1OC

$$$$
