
     RDKit          3D

 39 41  0  0  0  0  0  0  0  0999 V2000
    4.7771    1.7266   16.7042 H   0  0  0  0  0  0  0  0  0  0  0  0
    5.0328    1.0376   17.5036 C   0  0  0  0  0  0  0  0  0  0  0  0
    6.2552    0.4960   17.4183 N   0  0  0  0  0  0  0  0  0  0  0  0
    6.6269   -0.3119   18.4070 C   0  0  0  0  0  0  0  0  0  0  0  0
    7.6396   -0.7016   18.3441 H   0  0  0  0  0  0  0  0  0  0  0  0
    5.7916   -0.6924   19.4854 C   0  0  0  0  0  0  0  0  0  0  0  0
    6.4169   -1.5190   20.5382 C   0  0  0  0  0  0  0  0  0  0  0  0
    7.6810   -1.2569   20.7171 N   0  0  0  0  0  0  0  0  0  0  0  0
    8.1753   -1.1940   21.9925 C   0  0  0  0  0  0  0  0  0  0  0  0
    9.2991   -0.4068   22.0813 N   0  0  0  0  0  0  0  0  0  0  0  0
   10.1391   -0.2125   20.8978 C   0  0  0  0  0  0  0  0  0  0  0  0
   10.3130    0.8631   20.7650 H   0  0  0  0  0  0  0  0  0  0  0  0
    9.6103   -0.5782   20.0143 H   0  0  0  0  0  0  0  0  0  0  0  0
   11.4649   -0.9470   21.1000 C   0  0  0  0  0  0  0  0  0  0  0  0
   12.1139   -0.8655   20.2283 H   0  0  0  0  0  0  0  0  0  0  0  0
   11.2591   -2.0195   21.2134 H   0  0  0  0  0  0  0  0  0  0  0  0
   12.1537   -0.3976   22.3497 C   0  0  0  0  0  0  0  0  0  0  0  0
   13.0976   -0.9354   22.5398 H   0  0  0  0  0  0  0  0  0  0  0  0
   12.4170    0.9744   22.0754 O   0  0  0  0  0  0  0  0  0  0  0  0
   13.3786    1.6199   22.8756 C   0  0  0  0  0  0  0  0  0  0  0  0
   13.2036    1.4776   23.9520 H   0  0  0  0  0  0  0  0  0  0  0  0
   13.2888    2.6855   22.6508 H   0  0  0  0  0  0  0  0  0  0  0  0
   14.3976    1.2840   22.6297 H   0  0  0  0  0  0  0  0  0  0  0  0
   11.2127   -0.5744   23.5595 C   0  0  0  0  0  0  0  0  0  0  0  0
   11.0058   -1.6443   23.6800 H   0  0  0  0  0  0  0  0  0  0  0  0
   11.6843   -0.2156   24.4813 H   0  0  0  0  0  0  0  0  0  0  0  0
    9.8717    0.1076   23.3133 C   0  0  0  0  0  0  0  0  0  0  0  0
   10.0313    1.1871   23.2140 H   0  0  0  0  0  0  0  0  0  0  0  0
    9.1787   -0.0268   24.1460 H   0  0  0  0  0  0  0  0  0  0  0  0
    7.5364   -1.8771   23.0171 C   0  0  0  0  0  0  0  0  0  0  0  0
    7.8775   -1.8893   24.0457 H   0  0  0  0  0  0  0  0  0  0  0  0
    6.3789   -2.5905   22.7027 N   0  0  0  0  0  0  0  0  0  0  0  0
    5.8989   -3.2542   23.3077 H   0  0  0  0  0  0  0  0  0  0  0  0
    5.7523   -2.5608   21.4520 C   0  0  0  0  0  0  0  0  0  0  0  0
    4.8483   -3.3522   21.2612 O   0  0  0  0  0  0  0  0  0  0  0  0
    4.5277   -0.0964   19.5681 C   0  0  0  0  0  0  0  0  0  0  0  0
    3.8739   -0.2924   20.4203 H   0  0  0  0  0  0  0  0  0  0  0  0
    4.1454    0.7861   18.5538 C   0  0  0  0  0  0  0  0  0  0  0  0
    3.1857    1.2905   18.5792 H   0  0  0  0  0  0  0  0  0  0  0  0
  1  2  1  0
  2  3  2  0
  3  4  1  0
  4  5  1  0
  4  6  2  0
  6  7  1  0
  7  8  2  0
  8  9  1  0
  9 10  1  0
 10 11  1  0
 11 12  1  0
 11 13  1  0
 11 14  1  0
 14 15  1  0
 14 16  1  0
 14 17  1  0
 17 18  1  0
 17 19  1  0
 19 20  1  0
 20 21  1  0
 20 22  1  0
 20 23  1  0
 17 24  1  0
 24 25  1  0
 24 26  1  0
 24 27  1  0
 27 28  1  0
 27 29  1  0
  9 30  2  0
 30 31  1  0
 30 32  1  0
 32 33  1  0
 32 34  1  0
 34 35  2  0
  6 36  1  0
 36 37  1  0
 36 38  2  0
 38 39  1  0
 38  2  1  0
 34  7  1  0
 27 10  1  0
M  END
>  <cnnaffinity>  (1) 
-5.27665

>  <filename>  (1) 
COC1CCN(c2c[nH]c(=O)c(-c3cccnc3)n2)CC1

$$$$
