
     RDKit          3D

 35 37  0  0  0  0  0  0  0  0999 V2000
    9.3841    1.0713   20.4730 H   0  0  0  0  0  0  0  0  0  0  0  0
    9.7047    0.1542   20.9828 C   0  0  0  0  0  0  0  0  0  0  0  0
    8.7761   -0.7579   21.3451 C   0  0  0  0  0  0  0  0  0  0  0  0
    7.3233   -0.7858   21.0091 C   0  0  0  0  0  0  0  0  0  0  0  0
    6.6659   -0.0054   19.9309 C   0  0  0  0  0  0  0  0  0  0  0  0
    7.2341    0.0263   18.6536 C   0  0  0  0  0  0  0  0  0  0  0  0
    8.1771   -0.4838   18.4587 H   0  0  0  0  0  0  0  0  0  0  0  0
    6.6789    0.6513   17.6064 N   0  0  0  0  0  0  0  0  0  0  0  0
    5.5222    1.2960   17.8149 C   0  0  0  0  0  0  0  0  0  0  0  0
    5.0956    1.8005   16.9494 H   0  0  0  0  0  0  0  0  0  0  0  0
    4.8575    1.3124   19.0471 C   0  0  0  0  0  0  0  0  0  0  0  0
    3.9187    1.8537   19.1444 H   0  0  0  0  0  0  0  0  0  0  0  0
    5.4287    0.6333   20.1215 C   0  0  0  0  0  0  0  0  0  0  0  0
    4.9358    0.5892   21.0950 H   0  0  0  0  0  0  0  0  0  0  0  0
    6.6388   -1.5843   21.7405 N   0  0  0  0  0  0  0  0  0  0  0  0
    7.4997   -2.1924   22.7545 C   0  0  0  0  0  0  0  0  0  0  0  0
    7.2832   -3.2616   22.8248 H   0  0  0  0  0  0  0  0  0  0  0  0
    7.2209   -1.7576   23.7201 H   0  0  0  0  0  0  0  0  0  0  0  0
    8.9636   -1.8666   22.3723 C   0  0  0  0  0  0  0  0  0  0  0  0
    9.5804   -1.5629   23.2273 H   0  0  0  0  0  0  0  0  0  0  0  0
    9.4298   -2.7436   21.9067 H   0  0  0  0  0  0  0  0  0  0  0  0
   11.1448    0.0755   21.3617 C   0  0  0  0  0  0  0  0  0  0  0  0
   11.8575    1.2324   21.8246 C   0  0  0  0  0  0  0  0  0  0  0  0
   11.1966    2.4030   21.7832 O   0  0  0  0  0  0  0  0  0  0  0  0
   11.8562    3.6283   22.1124 C   0  0  0  0  0  0  0  0  0  0  0  0
   12.3862    4.0310   21.2427 H   0  0  0  0  0  0  0  0  0  0  0  0
   12.5619    3.5132   22.9374 H   0  0  0  0  0  0  0  0  0  0  0  0
   11.0595    4.3102   22.4078 H   0  0  0  0  0  0  0  0  0  0  0  0
   13.0773    1.2098   22.3380 N   0  0  0  0  0  0  0  0  0  0  0  0
   13.7293    0.0406   22.3773 C   0  0  0  0  0  0  0  0  0  0  0  0
   14.7267    0.0639   22.8113 H   0  0  0  0  0  0  0  0  0  0  0  0
   13.1859   -1.1400   21.8855 C   0  0  0  0  0  0  0  0  0  0  0  0
   13.7607   -2.0576   21.8974 H   0  0  0  0  0  0  0  0  0  0  0  0
   11.8782   -1.1193   21.3807 C   0  0  0  0  0  0  0  0  0  0  0  0
   11.4154   -2.0395   21.0230 H   0  0  0  0  0  0  0  0  0  0  0  0
  1  2  1  0
  2  3  2  3
  3  4  1  0
  4  5  1  0
  5  6  2  0
  6  7  1  0
  6  8  1  0
  8  9  2  0
  9 10  1  0
  9 11  1  0
 11 12  1  0
 11 13  2  0
 13 14  1  0
  4 15  2  0
 15 16  1  0
 16 17  1  0
 16 18  1  0
 16 19  1  0
 19 20  1  0
 19 21  1  0
  2 22  1  0
 22 23  2  0
 23 24  1  0
 24 25  1  0
 25 26  1  0
 25 27  1  0
 25 28  1  0
 23 29  1  0
 29 30  2  0
 30 31  1  0
 30 32  1  0
 32 33  1  0
 32 34  2  0
 34 35  1  0
 19  3  1  0
 34 22  1  0
 13  5  1  0
M  END
>  <cnnaffinity>  (1) 
-6.02407

>  <filename>  (1) 
COc1ncccc1C=C1CCN=C1c1cccnc1

$$$$
