
     RDKit          3D

 37 39  0  0  0  0  0  0  0  0999 V2000
    4.9207    1.8052   16.9663 H   0  0  0  0  0  0  0  0  0  0  0  0
    5.3935    1.3054   17.8137 C   0  0  0  0  0  0  0  0  0  0  0  0
    6.5581    0.6847   17.5628 N   0  0  0  0  0  0  0  0  0  0  0  0
    7.1708    0.0686   18.5824 C   0  0  0  0  0  0  0  0  0  0  0  0
    8.1064   -0.4224   18.3215 H   0  0  0  0  0  0  0  0  0  0  0  0
    6.6668    0.0129   19.8959 C   0  0  0  0  0  0  0  0  0  0  0  0
    7.3356   -0.7059   20.9872 C   0  0  0  0  0  0  0  0  0  0  0  0
    6.8216   -1.2266   22.1179 C   0  0  0  0  0  0  0  0  0  0  0  0
    5.8039   -1.3098   22.4246 H   0  0  0  0  0  0  0  0  0  0  0  0
    7.8411   -1.7777   22.8786 N   0  0  0  0  0  0  0  0  0  0  0  0
    7.6424   -2.4364   24.1387 C   0  0  0  0  0  0  0  0  0  0  0  0
    8.2368   -3.6695   24.3813 C   0  0  0  0  0  0  0  0  0  0  0  0
    8.8579   -4.1197   23.6154 H   0  0  0  0  0  0  0  0  0  0  0  0
    8.0494   -4.2985   25.6196 C   0  0  0  0  0  0  0  0  0  0  0  0
    8.5339   -5.2488   25.8186 H   0  0  0  0  0  0  0  0  0  0  0  0
    7.2697   -3.7161   26.6197 C   0  0  0  0  0  0  0  0  0  0  0  0
    7.0555   -4.2782   27.8384 O   0  0  0  0  0  0  0  0  0  0  0  0
    7.6470   -5.5115   28.1929 C   0  0  0  0  0  0  0  0  0  0  0  0
    8.7448   -5.4673   28.1773 H   0  0  0  0  0  0  0  0  0  0  0  0
    7.3074   -5.6958   29.2128 H   0  0  0  0  0  0  0  0  0  0  0  0
    7.3114   -6.3324   27.5448 H   0  0  0  0  0  0  0  0  0  0  0  0
    6.6412   -2.4497   26.3582 C   0  0  0  0  0  0  0  0  0  0  0  0
    5.8821   -1.9288   27.3568 O   0  0  0  0  0  0  0  0  0  0  0  0
    5.2086   -0.6973   27.2010 C   0  0  0  0  0  0  0  0  0  0  0  0
    4.4725   -0.7295   26.3863 H   0  0  0  0  0  0  0  0  0  0  0  0
    5.9055    0.1340   27.0296 H   0  0  0  0  0  0  0  0  0  0  0  0
    4.6925   -0.5501   28.1507 H   0  0  0  0  0  0  0  0  0  0  0  0
    6.8325   -1.8370   25.1174 C   0  0  0  0  0  0  0  0  0  0  0  0
    6.3527   -0.8884   24.8952 H   0  0  0  0  0  0  0  0  0  0  0  0
    9.0368   -1.6043   22.2136 C   0  0  0  0  0  0  0  0  0  0  0  0
   10.6067   -1.9822   22.6016 S   0  0  0  0  0  0  0  0  0  0  0  0
    8.6910   -0.9770   21.0558 N   0  0  0  0  0  0  0  0  0  0  0  0
    9.4357   -0.6800   20.4496 H   0  0  0  0  0  0  0  0  0  0  0  0
    5.4421    0.6656   20.1293 C   0  0  0  0  0  0  0  0  0  0  0  0
    5.0093    0.6648   21.1296 H   0  0  0  0  0  0  0  0  0  0  0  0
    4.7991    1.3218   19.0798 C   0  0  0  0  0  0  0  0  0  0  0  0
    3.8638    1.8523   19.2259 H   0  0  0  0  0  0  0  0  0  0  0  0
  1  2  1  0
  2  3  2  0
  3  4  1  0
  4  5  1  0
  4  6  2  0
  6  7  1  0
  7  8  2  0
  8  9  1  0
  8 10  1  0
 10 11  1  0
 11 12  2  0
 12 13  1  0
 12 14  1  0
 14 15  1  0
 14 16  2  0
 16 17  1  0
 17 18  1  0
 18 19  1  0
 18 20  1  0
 18 21  1  0
 16 22  1  0
 22 23  1  0
 23 24  1  0
 24 25  1  0
 24 26  1  0
 24 27  1  0
 22 28  2  0
 28 29  1  0
 10 30  1  0
 30 31  2  0
 30 32  1  0
 32 33  1  0
  6 34  1  0
 34 35  1  0
 34 36  2  0
 36 37  1  0
 36  2  1  0
 32  7  1  0
 28 11  1  0
M  END
>  <cnnaffinity>  (1) 
-5.49492

>  <filename>  (1) 
COc1ccc(-n2cc(-c3cccnc3)[nH]c2=S)cc1OC

$$$$
