
     RDKit          3D

 38 41  0  0  0  0  0  0  0  0999 V2000
    4.9210    1.7791   16.9994 H   0  0  0  0  0  0  0  0  0  0  0  0
    5.4040    1.2922   17.8408 C   0  0  0  0  0  0  0  0  0  0  0  0
    6.5673    0.6747   17.5800 N   0  0  0  0  0  0  0  0  0  0  0  0
    7.1641    0.0446   18.5947 C   0  0  0  0  0  0  0  0  0  0  0  0
    8.1153   -0.4348   18.3730 H   0  0  0  0  0  0  0  0  0  0  0  0
    6.6467    0.0088   19.8955 C   0  0  0  0  0  0  0  0  0  0  0  0
    7.3948   -0.6707   20.9455 C   0  0  0  0  0  0  0  0  0  0  0  0
    7.6747   -2.0124   20.8786 N   0  0  0  0  0  0  0  0  0  0  0  0
    8.3147   -2.2522   21.9910 C   0  0  0  0  0  0  0  0  0  0  0  0
    9.0789   -3.6272   22.7515 S   0  0  0  0  0  0  0  0  0  0  0  0
    9.6366   -2.5993   24.0594 C   0  0  0  0  0  0  0  0  0  0  0  0
   10.2264   -3.0328   24.8530 H   0  0  0  0  0  0  0  0  0  0  0  0
    9.2430   -1.3209   23.9240 C   0  0  0  0  0  0  0  0  0  0  0  0
    9.4422   -0.4790   24.5818 H   0  0  0  0  0  0  0  0  0  0  0  0
    8.4991   -1.1342   22.7659 N   0  0  0  0  0  0  0  0  0  0  0  0
    7.9305   -0.0826   22.0786 C   0  0  0  0  0  0  0  0  0  0  0  0
    7.9307    1.3422   22.5267 C   0  0  0  0  0  0  0  0  0  0  0  0
    8.0614    1.9689   21.6364 H   0  0  0  0  0  0  0  0  0  0  0  0
    8.8025    1.5201   23.1705 H   0  0  0  0  0  0  0  0  0  0  0  0
    6.6606    1.7600   23.2603 C   0  0  0  0  0  0  0  0  0  0  0  0
    6.3156    1.1252   24.4580 C   0  0  0  0  0  0  0  0  0  0  0  0
    6.9590    0.3460   24.8675 H   0  0  0  0  0  0  0  0  0  0  0  0
    5.1449    1.4920   25.1236 C   0  0  0  0  0  0  0  0  0  0  0  0
    4.8946    0.9983   26.0592 H   0  0  0  0  0  0  0  0  0  0  0  0
    4.3113    2.4776   24.5997 C   0  0  0  0  0  0  0  0  0  0  0  0
    3.4047    2.7712   25.1142 H   0  0  0  0  0  0  0  0  0  0  0  0
    4.6437    3.1221   23.3919 C   0  0  0  0  0  0  0  0  0  0  0  0
    3.7615    4.0702   22.9556 O   0  0  0  0  0  0  0  0  0  0  0  0
    3.9921    4.7490   21.7336 C   0  0  0  0  0  0  0  0  0  0  0  0
    4.0055    4.0765   20.8673 H   0  0  0  0  0  0  0  0  0  0  0  0
    4.9151    5.3434   21.7335 H   0  0  0  0  0  0  0  0  0  0  0  0
    3.1560    5.4354   21.6087 H   0  0  0  0  0  0  0  0  0  0  0  0
    5.8287    2.7644   22.7371 C   0  0  0  0  0  0  0  0  0  0  0  0
    6.0938    3.2279   21.7908 H   0  0  0  0  0  0  0  0  0  0  0  0
    5.4315    0.6559   20.1533 C   0  0  0  0  0  0  0  0  0  0  0  0
    4.9994    0.6300   21.1575 H   0  0  0  0  0  0  0  0  0  0  0  0
    4.8020    1.3134   19.1021 C   0  0  0  0  0  0  0  0  0  0  0  0
    3.8682    1.8438   19.2538 H   0  0  0  0  0  0  0  0  0  0  0  0
  1  2  1  0
  2  3  2  0
  3  4  1  0
  4  5  1  0
  4  6  2  0
  6  7  1  0
  7  8  1  0
  8  9  2  0
  9 10  1  0
 10 11  1  0
 11 12  1  0
 11 13  2  0
 13 14  1  0
 13 15  1  0
 15 16  1  0
 16 17  1  0
 17 18  1  0
 17 19  1  0
 17 20  1  0
 20 21  2  0
 21 22  1  0
 21 23  1  0
 23 24  1  0
 23 25  2  0
 25 26  1  0
 25 27  1  0
 27 28  1  0
 28 29  1  0
 29 30  1  0
 29 31  1  0
 29 32  1  0
 27 33  2  0
 33 34  1  0
  6 35  1  0
 35 36  1  0
 35 37  2  0
 37 38  1  0
 37  2  1  0
 16  7  2  0
 33 20  1  0
 15  9  1  0
M  END
>  <cnnaffinity>  (1) 
-5.73949

>  <filename>  (1) 
COc1cccc(Cc2c(-c3cccnc3)nc3sccn23)c1

$$$$
