
     RDKit          3D

 38 40  0  0  0  0  0  0  0  0999 V2000
    4.9313    1.7931   16.9935 H   0  0  0  0  0  0  0  0  0  0  0  0
    5.4019    1.2953   17.8407 C   0  0  0  0  0  0  0  0  0  0  0  0
    6.5624    0.6703   17.5853 N   0  0  0  0  0  0  0  0  0  0  0  0
    7.1728    0.0489   18.6018 C   0  0  0  0  0  0  0  0  0  0  0  0
    8.1117   -0.4442   18.3576 H   0  0  0  0  0  0  0  0  0  0  0  0
    6.6609   -0.0115   19.9121 C   0  0  0  0  0  0  0  0  0  0  0  0
    7.3497   -0.7042   20.9680 N   0  0  0  0  0  0  0  0  0  0  0  0
    6.5800   -1.4375   21.8332 N   0  0  0  0  0  0  0  0  0  0  0  0
    7.1569   -2.0627   22.8314 C   0  0  0  0  0  0  0  0  0  0  0  0
    6.2395   -2.8526   23.7201 C   0  0  0  0  0  0  0  0  0  0  0  0
    5.3620   -3.7801   23.1564 C   0  0  0  0  0  0  0  0  0  0  0  0
    5.3543   -3.8818   22.0731 H   0  0  0  0  0  0  0  0  0  0  0  0
    4.5425   -4.5882   23.9469 C   0  0  0  0  0  0  0  0  0  0  0  0
    3.8700   -5.3100   23.4982 H   0  0  0  0  0  0  0  0  0  0  0  0
    4.5820   -4.4461   25.3385 C   0  0  0  0  0  0  0  0  0  0  0  0
    3.8114   -5.1522   26.2044 O   0  0  0  0  0  0  0  0  0  0  0  0
    2.8851   -6.1118   25.7310 C   0  0  0  0  0  0  0  0  0  0  0  0
    2.1167   -5.6621   25.0845 H   0  0  0  0  0  0  0  0  0  0  0  0
    2.4176   -6.5096   26.6332 H   0  0  0  0  0  0  0  0  0  0  0  0
    3.3807   -6.9253   25.1814 H   0  0  0  0  0  0  0  0  0  0  0  0
    5.4431   -3.5140   25.9365 C   0  0  0  0  0  0  0  0  0  0  0  0
    5.4495   -3.4361   27.0194 H   0  0  0  0  0  0  0  0  0  0  0  0
    6.2546   -2.7124   25.1354 C   0  0  0  0  0  0  0  0  0  0  0  0
    7.0986   -1.7743   25.6130 O   0  0  0  0  0  0  0  0  0  0  0  0
    7.2442   -1.5407   26.9984 C   0  0  0  0  0  0  0  0  0  0  0  0
    7.9945   -0.7504   27.0601 H   0  0  0  0  0  0  0  0  0  0  0  0
    6.3071   -1.1911   27.4537 H   0  0  0  0  0  0  0  0  0  0  0  0
    7.6087   -2.4278   27.5344 H   0  0  0  0  0  0  0  0  0  0  0  0
    8.6623   -2.0867   23.0463 C   0  0  0  0  0  0  0  0  0  0  0  0
    9.2485   -2.7610   23.8772 O   0  0  0  0  0  0  0  0  0  0  0  0
    9.3793   -1.2475   22.0945 C   0  0  0  0  0  0  0  0  0  0  0  0
   10.4522   -1.2078   22.2041 H   0  0  0  0  0  0  0  0  0  0  0  0
    8.7126   -0.6076   21.1171 C   0  0  0  0  0  0  0  0  0  0  0  0
    9.2041    0.0370   20.3902 H   0  0  0  0  0  0  0  0  0  0  0  0
    5.4440    0.6357   20.1645 C   0  0  0  0  0  0  0  0  0  0  0  0
    5.0345    0.5871   21.1722 H   0  0  0  0  0  0  0  0  0  0  0  0
    4.8127    1.3091   19.1106 C   0  0  0  0  0  0  0  0  0  0  0  0
    3.8784    1.8422   19.2559 H   0  0  0  0  0  0  0  0  0  0  0  0
  1  2  1  0
  2  3  2  0
  3  4  1  0
  4  5  1  0
  4  6  2  0
  6  7  1  0
  7  8  1  0
  8  9  2  0
  9 10  1  0
 10 11  2  0
 11 12  1  0
 11 13  1  0
 13 14  1  0
 13 15  2  0
 15 16  1  0
 16 17  1  0
 17 18  1  0
 17 19  1  0
 17 20  1  0
 15 21  1  0
 21 22  1  0
 21 23  2  0
 23 24  1  0
 24 25  1  0
 25 26  1  0
 25 27  1  0
 25 28  1  0
  9 29  1  0
 29 30  2  0
 29 31  1  0
 31 32  1  0
 31 33  2  0
 33 34  1  0
  6 35  1  0
 35 36  1  0
 35 37  2  0
 37 38  1  0
 37  2  1  0
 33  7  1  0
 23 10  1  0
M  END
>  <cnnaffinity>  (1) 
-5.19453

>  <filename>  (1) 
COc1ccc(-c2nn(-c3cccnc3)ccc2=O)c(OC)c1

$$$$
