
     RDKit          3D

 33 35  0  0  0  0  0  0  0  0999 V2000
    4.9195    1.8060   16.9952 H   0  0  0  0  0  0  0  0  0  0  0  0
    5.3946    1.2999   17.8320 C   0  0  0  0  0  0  0  0  0  0  0  0
    6.5576    0.6834   17.5636 N   0  0  0  0  0  0  0  0  0  0  0  0
    7.1676    0.0524   18.5763 C   0  0  0  0  0  0  0  0  0  0  0  0
    8.1175   -0.4294   18.3514 H   0  0  0  0  0  0  0  0  0  0  0  0
    6.6588   -0.0257   19.8990 C   0  0  0  0  0  0  0  0  0  0  0  0
    7.3156   -0.7388   20.9143 N   0  0  0  0  0  0  0  0  0  0  0  0
    6.7697   -1.0416   21.7134 H   0  0  0  0  0  0  0  0  0  0  0  0
    8.7039   -0.7644   21.1068 C   0  0  0  0  0  0  0  0  0  0  0  0
    9.6949    0.1563   20.6845 C   0  0  0  0  0  0  0  0  0  0  0  0
    9.5561    1.0396   20.0783 H   0  0  0  0  0  0  0  0  0  0  0  0
   10.9027   -0.1865   21.1188 N   0  0  0  0  0  0  0  0  0  0  0  0
   10.6993   -1.3150   21.8134 N   0  0  0  0  0  0  0  0  0  0  0  0
   11.5002   -1.7883   22.2129 H   0  0  0  0  0  0  0  0  0  0  0  0
    9.3968   -1.7181   21.8391 C   0  0  0  0  0  0  0  0  0  0  0  0
    8.9140   -2.9250   22.5257 C   0  0  0  0  0  0  0  0  0  0  0  0
    9.4769   -3.3565   23.7444 C   0  0  0  0  0  0  0  0  0  0  0  0
   10.2816   -2.8004   24.2101 H   0  0  0  0  0  0  0  0  0  0  0  0
    8.9621   -4.4817   24.3581 C   0  0  0  0  0  0  0  0  0  0  0  0
    9.3760   -4.8211   25.3061 H   0  0  0  0  0  0  0  0  0  0  0  0
    7.9502   -5.2099   23.8505 N   0  0  0  0  0  0  0  0  0  0  0  0
    7.4360   -4.7968   22.7037 C   0  0  0  0  0  0  0  0  0  0  0  0
    6.4177   -5.4601   22.1330 O   0  0  0  0  0  0  0  0  0  0  0  0
    5.8827   -6.6226   22.7562 C   0  0  0  0  0  0  0  0  0  0  0  0
    5.0818   -6.9388   22.0862 H   0  0  0  0  0  0  0  0  0  0  0  0
    6.6420   -7.4085   22.8425 H   0  0  0  0  0  0  0  0  0  0  0  0
    5.4883   -6.3992   23.7565 H   0  0  0  0  0  0  0  0  0  0  0  0
    7.8727   -3.6725   21.9920 C   0  0  0  0  0  0  0  0  0  0  0  0
    7.3851   -3.4287   21.0597 H   0  0  0  0  0  0  0  0  0  0  0  0
    5.4438    0.6271   20.1520 C   0  0  0  0  0  0  0  0  0  0  0  0
    5.0295    0.6133   21.1606 H   0  0  0  0  0  0  0  0  0  0  0  0
    4.8069    1.3030   19.1041 C   0  0  0  0  0  0  0  0  0  0  0  0
    3.8746    1.8393   19.2617 H   0  0  0  0  0  0  0  0  0  0  0  0
  1  2  1  0
  2  3  2  0
  3  4  1  0
  4  5  1  0
  4  6  2  0
  6  7  1  0
  7  8  1  0
  7  9  1  0
  9 10  1  0
 10 11  1  0
 10 12  2  0
 12 13  1  0
 13 14  1  0
 13 15  1  0
 15 16  1  0
 16 17  2  0
 17 18  1  0
 17 19  1  0
 19 20  1  0
 19 21  2  0
 21 22  1  0
 22 23  1  0
 23 24  1  0
 24 25  1  0
 24 26  1  0
 24 27  1  0
 22 28  2  0
 28 29  1  0
  6 30  1  0
 30 31  1  0
 30 32  2  0
 32 33  1  0
 32  2  1  0
 15  9  2  0
 28 16  1  0
M  END
>  <cnnaffinity>  (1) 
-5.61642

>  <filename>  (1) 
COc1cc(-c2[nH]ncc2Nc2cccnc2)ccn1

$$$$
