
     RDKit          3D

 34 36  0  0  0  0  0  0  0  0999 V2000
    5.0205    1.8369   16.9867 H   0  0  0  0  0  0  0  0  0  0  0  0
    5.4891    1.3113   17.8157 C   0  0  0  0  0  0  0  0  0  0  0  0
    6.6788    0.7485   17.5553 N   0  0  0  0  0  0  0  0  0  0  0  0
    7.2941    0.1132   18.5550 C   0  0  0  0  0  0  0  0  0  0  0  0
    8.2758   -0.2983   18.3245 H   0  0  0  0  0  0  0  0  0  0  0  0
    6.7300   -0.0620   19.8340 C   0  0  0  0  0  0  0  0  0  0  0  0
    7.4623   -0.8831   20.8192 C   0  0  0  0  0  0  0  0  0  0  0  0
    8.7735   -0.7307   20.8735 N   0  0  0  0  0  0  0  0  0  0  0  0
    9.4823   -1.2672   21.9242 C   0  0  0  0  0  0  0  0  0  0  0  0
   10.9562   -0.9853   21.9805 C   0  0  0  0  0  0  0  0  0  0  0  0
   11.9025   -2.0165   22.0406 C   0  0  0  0  0  0  0  0  0  0  0  0
   11.5499   -3.0378   22.0711 H   0  0  0  0  0  0  0  0  0  0  0  0
   13.2746   -1.7511   22.0729 C   0  0  0  0  0  0  0  0  0  0  0  0
   14.0062   -2.5538   22.0651 H   0  0  0  0  0  0  0  0  0  0  0  0
   13.7147   -0.4339   22.1871 C   0  0  0  0  0  0  0  0  0  0  0  0
   14.7712   -0.2127   22.2816 H   0  0  0  0  0  0  0  0  0  0  0  0
   12.7925    0.6100   22.1770 C   0  0  0  0  0  0  0  0  0  0  0  0
   13.1025    1.6457   22.2412 H   0  0  0  0  0  0  0  0  0  0  0  0
   11.4308    0.3400   22.0015 C   0  0  0  0  0  0  0  0  0  0  0  0
   10.5153    1.3308   21.9369 O   0  0  0  0  0  0  0  0  0  0  0  0
   10.8110    2.5496   21.2965 C   0  0  0  0  0  0  0  0  0  0  0  0
    9.8234    2.9360   21.0550 H   0  0  0  0  0  0  0  0  0  0  0  0
   11.3295    3.2497   21.9630 H   0  0  0  0  0  0  0  0  0  0  0  0
   11.3986    2.4425   20.3722 H   0  0  0  0  0  0  0  0  0  0  0  0
    8.8685   -1.9812   22.9237 C   0  0  0  0  0  0  0  0  0  0  0  0
    9.3823   -2.2965   23.8291 H   0  0  0  0  0  0  0  0  0  0  0  0
    7.5289   -2.2704   22.7984 N   0  0  0  0  0  0  0  0  0  0  0  0
    7.0009   -2.8721   23.4203 H   0  0  0  0  0  0  0  0  0  0  0  0
    6.7352   -1.8761   21.7194 C   0  0  0  0  0  0  0  0  0  0  0  0
    5.6205   -2.3609   21.6305 O   0  0  0  0  0  0  0  0  0  0  0  0
    5.4967    0.5629   20.0988 C   0  0  0  0  0  0  0  0  0  0  0  0
    5.0360    0.5063   21.0858 H   0  0  0  0  0  0  0  0  0  0  0  0
    4.8717    1.2636   19.0672 C   0  0  0  0  0  0  0  0  0  0  0  0
    3.9343    1.7865   19.2193 H   0  0  0  0  0  0  0  0  0  0  0  0
  1  2  1  0
  2  3  2  0
  3  4  1  0
  4  5  1  0
  4  6  2  0
  6  7  1  0
  7  8  2  0
  8  9  1  0
  9 10  1  0
 10 11  2  0
 11 12  1  0
 11 13  1  0
 13 14  1  0
 13 15  2  0
 15 16  1  0
 15 17  1  0
 17 18  1  0
 17 19  2  0
 19 20  1  0
 20 21  1  0
 21 22  1  0
 21 23  1  0
 21 24  1  0
  9 25  2  0
 25 26  1  0
 25 27  1  0
 27 28  1  0
 27 29  1  0
 29 30  2  0
  6 31  1  0
 31 32  1  0
 31 33  2  0
 33 34  1  0
 33  2  1  0
 29  7  1  0
 19 10  1  0
M  END
>  <cnnaffinity>  (1) 
-5.78697

>  <filename>  (1) 
COc1ccccc1-c1c[nH]c(=O)c(-c2cccnc2)n1

$$$$
