
     RDKit          3D

 36 37  0  0  0  0  0  0  0  0999 V2000
    4.9961    1.7547   16.9371 H   0  0  0  0  0  0  0  0  0  0  0  0
    5.4325    1.3170   17.8329 C   0  0  0  0  0  0  0  0  0  0  0  0
    6.6171    0.7027   17.6811 N   0  0  0  0  0  0  0  0  0  0  0  0
    7.1589    0.1343   18.7668 C   0  0  0  0  0  0  0  0  0  0  0  0
    8.1119   -0.3717   18.6107 H   0  0  0  0  0  0  0  0  0  0  0  0
    6.5748    0.1273   20.0443 C   0  0  0  0  0  0  0  0  0  0  0  0
    7.2484   -0.5887   21.2047 C   0  0  2  0  0  0  0  0  0  0  0  0
    6.6163   -0.4709   22.0913 H   0  0  0  0  0  0  0  0  0  0  0  0
    8.9239    0.0670   21.6124 S   0  0  0  0  0  0  0  0  0  0  0  0
    8.4944    1.6636   22.2206 C   0  0  0  0  0  0  0  0  0  0  0  0
    8.4427    2.7484   21.3575 C   0  0  0  0  0  0  0  0  0  0  0  0
    8.6678    2.5905   20.3118 H   0  0  0  0  0  0  0  0  0  0  0  0
    8.0754    4.0053   21.8482 C   0  0  0  0  0  0  0  0  0  0  0  0
    8.0785    4.8613   21.1816 H   0  0  0  0  0  0  0  0  0  0  0  0
    7.6863    4.1932   23.1754 C   0  0  0  0  0  0  0  0  0  0  0  0
    7.2564    5.4027   23.6423 O   0  0  0  0  0  0  0  0  0  0  0  0
    6.9539    6.4179   22.6919 C   0  0  0  0  0  0  0  0  0  0  0  0
    6.4971    7.2284   23.2568 H   0  0  0  0  0  0  0  0  0  0  0  0
    6.2468    6.0675   21.9247 H   0  0  0  0  0  0  0  0  0  0  0  0
    7.8523    6.7965   22.1816 H   0  0  0  0  0  0  0  0  0  0  0  0
    7.7699    3.0720   24.0730 C   0  0  0  0  0  0  0  0  0  0  0  0
    7.4441    3.2633   25.3794 O   0  0  0  0  0  0  0  0  0  0  0  0
    7.5941    2.1756   26.2756 C   0  0  0  0  0  0  0  0  0  0  0  0
    6.9551    1.3302   25.9891 H   0  0  0  0  0  0  0  0  0  0  0  0
    8.6334    1.8235   26.3147 H   0  0  0  0  0  0  0  0  0  0  0  0
    7.2965    2.5415   27.2585 H   0  0  0  0  0  0  0  0  0  0  0  0
    8.1930    1.8324   23.5774 C   0  0  0  0  0  0  0  0  0  0  0  0
    8.3097    0.9855   24.2481 H   0  0  0  0  0  0  0  0  0  0  0  0
    7.5144   -2.0777   20.9836 C   0  0  0  0  0  0  0  0  0  0  0  0
    7.7666   -2.5329   21.9456 H   0  0  0  0  0  0  0  0  0  0  0  0
    8.3763   -2.2039   20.3276 H   0  0  0  0  0  0  0  0  0  0  0  0
    6.6493   -2.5956   20.5621 H   0  0  0  0  0  0  0  0  0  0  0  0
    5.3385    0.7823   20.1762 C   0  0  0  0  0  0  0  0  0  0  0  0
    4.8332    0.8094   21.1435 H   0  0  0  0  0  0  0  0  0  0  0  0
    4.7559    1.3819   19.0551 C   0  0  0  0  0  0  0  0  0  0  0  0
    3.7985    1.8917   19.1109 H   0  0  0  0  0  0  0  0  0  0  0  0
  1  2  1  0
  2  3  2  0
  3  4  1  0
  4  5  1  0
  4  6  2  0
  6  7  1  0
  7  8  1  1
  7  9  1  0
  9 10  1  0
 10 11  2  0
 11 12  1  0
 11 13  1  0
 13 14  1  0
 13 15  2  0
 15 16  1  0
 16 17  1  0
 17 18  1  0
 17 19  1  0
 17 20  1  0
 15 21  1  0
 21 22  1  0
 22 23  1  0
 23 24  1  0
 23 25  1  0
 23 26  1  0
 21 27  2  0
 27 28  1  0
  7 29  1  0
 29 30  1  0
 29 31  1  0
 29 32  1  0
  6 33  1  0
 33 34  1  0
 33 35  2  0
 35 36  1  0
 35  2  1  0
 27 10  1  0
M  END
>  <cnnaffinity>  (1) 
-4.44299

>  <filename>  (1) 
COc1ccc(S[C@H](C)c2cccnc2)cc1OC

$$$$
