
     RDKit          3D

 33 35  0  0  0  0  0  0  0  0999 V2000
    4.9134    1.7882   16.9939 H   0  0  0  0  0  0  0  0  0  0  0  0
    5.3953    1.2982   17.8361 C   0  0  0  0  0  0  0  0  0  0  0  0
    6.5590    0.6835   17.5693 N   0  0  0  0  0  0  0  0  0  0  0  0
    7.1708    0.0605   18.5868 C   0  0  0  0  0  0  0  0  0  0  0  0
    8.1187   -0.4283   18.3722 H   0  0  0  0  0  0  0  0  0  0  0  0
    6.6641   -0.0112   19.9089 C   0  0  0  0  0  0  0  0  0  0  0  0
    7.3215   -0.7200   20.9239 N   0  0  0  0  0  0  0  0  0  0  0  0
    6.7685   -1.0541   21.7015 H   0  0  0  0  0  0  0  0  0  0  0  0
    8.7070   -0.7705   21.1143 C   0  0  0  0  0  0  0  0  0  0  0  0
    9.6935    0.1430   20.6766 C   0  0  0  0  0  0  0  0  0  0  0  0
    9.5345    1.0219   20.0732 H   0  0  0  0  0  0  0  0  0  0  0  0
   10.9046   -0.1837   21.1075 N   0  0  0  0  0  0  0  0  0  0  0  0
   10.7047   -1.3017   21.8182 N   0  0  0  0  0  0  0  0  0  0  0  0
   11.5036   -1.7524   22.2359 H   0  0  0  0  0  0  0  0  0  0  0  0
    9.4079   -1.7168   21.8535 C   0  0  0  0  0  0  0  0  0  0  0  0
    8.9521   -2.9129   22.5644 C   0  0  0  0  0  0  0  0  0  0  0  0
    7.8912   -3.6875   22.0470 C   0  0  0  0  0  0  0  0  0  0  0  0
    7.4395   -3.4064   21.0971 H   0  0  0  0  0  0  0  0  0  0  0  0
    7.4092   -4.7779   22.6472 N   0  0  0  0  0  0  0  0  0  0  0  0
    7.9632   -5.1397   23.8171 C   0  0  0  0  0  0  0  0  0  0  0  0
    7.5439   -6.0251   24.2843 H   0  0  0  0  0  0  0  0  0  0  0  0
    9.0290   -4.4446   24.4261 C   0  0  0  0  0  0  0  0  0  0  0  0
    9.6332   -4.7708   25.5954 O   0  0  0  0  0  0  0  0  0  0  0  0
    9.2162   -5.9005   26.3454 C   0  0  0  0  0  0  0  0  0  0  0  0
    9.3508   -6.8418   25.7971 H   0  0  0  0  0  0  0  0  0  0  0  0
    9.8618   -5.8875   27.2195 H   0  0  0  0  0  0  0  0  0  0  0  0
    8.1730   -5.8258   26.6765 H   0  0  0  0  0  0  0  0  0  0  0  0
    9.5301   -3.3106   23.7776 C   0  0  0  0  0  0  0  0  0  0  0  0
   10.3425   -2.7477   24.2376 H   0  0  0  0  0  0  0  0  0  0  0  0
    5.4429    0.6321   20.1629 C   0  0  0  0  0  0  0  0  0  0  0  0
    5.0201    0.6205   21.1690 H   0  0  0  0  0  0  0  0  0  0  0  0
    4.8125    1.3052   19.1086 C   0  0  0  0  0  0  0  0  0  0  0  0
    3.8825    1.8370   19.2633 H   0  0  0  0  0  0  0  0  0  0  0  0
  1  2  1  0
  2  3  2  0
  3  4  1  0
  4  5  1  0
  4  6  2  0
  6  7  1  0
  7  8  1  0
  7  9  1  0
  9 10  1  0
 10 11  1  0
 10 12  2  0
 12 13  1  0
 13 14  1  0
 13 15  1  0
 15 16  1  0
 16 17  2  0
 17 18  1  0
 17 19  1  0
 19 20  2  0
 20 21  1  0
 20 22  1  0
 22 23  1  0
 23 24  1  0
 24 25  1  0
 24 26  1  0
 24 27  1  0
 22 28  2  0
 28 29  1  0
  6 30  1  0
 30 31  1  0
 30 32  2  0
 32 33  1  0
 32  2  1  0
 15  9  2  0
 28 16  1  0
M  END
>  <cnnaffinity>  (1) 
-5.7633

>  <filename>  (1) 
COc1cncc(-c2[nH]ncc2Nc2cccnc2)c1

$$$$
