
     RDKit          3D

 33 35  0  0  0  0  0  0  0  0999 V2000
    4.9287    1.7795   16.9968 H   0  0  0  0  0  0  0  0  0  0  0  0
    5.4089    1.2865   17.8402 C   0  0  0  0  0  0  0  0  0  0  0  0
    6.5762    0.6715   17.5822 N   0  0  0  0  0  0  0  0  0  0  0  0
    7.2084    0.0825   18.6033 C   0  0  0  0  0  0  0  0  0  0  0  0
    8.1507   -0.4119   18.3798 H   0  0  0  0  0  0  0  0  0  0  0  0
    6.6877    0.0417   19.9086 C   0  0  0  0  0  0  0  0  0  0  0  0
    7.3856   -0.6566   20.9456 N   0  0  0  0  0  0  0  0  0  0  0  0
    8.7207   -0.3822   21.0476 N   0  0  0  0  0  0  0  0  0  0  0  0
    9.3878   -0.8977   22.0402 C   0  0  0  0  0  0  0  0  0  0  0  0
   10.8233   -0.4480   22.2316 C   0  0  0  0  0  0  0  0  0  0  0  0
   11.4149   -1.2680   22.6518 H   0  0  0  0  0  0  0  0  0  0  0  0
   11.2436   -0.1536   21.2641 H   0  0  0  0  0  0  0  0  0  0  0  0
   10.9636    0.6828   23.1342 N   0  0  0  0  0  0  0  0  0  0  0  0
   10.7532    1.9800   22.6816 N   0  0  0  0  0  0  0  0  0  0  0  0
   10.7797    2.6490   23.7767 C   0  0  0  0  0  0  0  0  0  0  0  0
   10.6891    3.9495   23.9754 O   0  0  0  0  0  0  0  0  0  0  0  0
   10.5050    4.7606   22.8076 C   0  0  0  0  0  0  0  0  0  0  0  0
   10.4528    5.7872   23.1726 H   0  0  0  0  0  0  0  0  0  0  0  0
    9.5695    4.4958   22.3026 H   0  0  0  0  0  0  0  0  0  0  0  0
   11.3496    4.6501   22.1170 H   0  0  0  0  0  0  0  0  0  0  0  0
   10.9331    1.9510   24.9091 O   0  0  0  0  0  0  0  0  0  0  0  0
   11.0331    0.6392   24.5027 C   0  0  0  0  0  0  0  0  0  0  0  0
   11.1483   -0.3007   25.2387 O   0  0  0  0  0  0  0  0  0  0  0  0
    8.8147   -1.8800   22.9308 C   0  0  0  0  0  0  0  0  0  0  0  0
    9.4437   -2.3149   23.7034 H   0  0  0  0  0  0  0  0  0  0  0  0
    7.5162   -2.2409   22.7690 C   0  0  0  0  0  0  0  0  0  0  0  0
    6.9997   -2.9759   23.3733 H   0  0  0  0  0  0  0  0  0  0  0  0
    6.6961   -1.6616   21.7143 C   0  0  0  0  0  0  0  0  0  0  0  0
    5.5545   -2.0061   21.4635 O   0  0  0  0  0  0  0  0  0  0  0  0
    5.4590    0.6557   20.1667 C   0  0  0  0  0  0  0  0  0  0  0  0
    5.0197    0.6031   21.1613 H   0  0  0  0  0  0  0  0  0  0  0  0
    4.8221    1.3091   19.1081 C   0  0  0  0  0  0  0  0  0  0  0  0
    3.8850    1.8313   19.2567 H   0  0  0  0  0  0  0  0  0  0  0  0
  1  2  1  0
  2  3  2  0
  3  4  1  0
  4  5  1  0
  4  6  2  0
  6  7  1  0
  7  8  1  0
  8  9  2  0
  9 10  1  0
 10 11  1  0
 10 12  1  0
 10 13  1  0
 13 14  1  0
 14 15  2  0
 15 16  1  0
 16 17  1  0
 17 18  1  0
 17 19  1  0
 17 20  1  0
 15 21  1  0
 21 22  1  0
 22 23  2  0
  9 24  1  0
 24 25  1  0
 24 26  2  0
 26 27  1  0
 26 28  1  0
 28 29  2  0
  6 30  1  0
 30 31  1  0
 30 32  2  0
 32 33  1  0
 32  2  1  0
 28  7  1  0
 22 13  1  0
M  END
>  <cnnaffinity>  (1) 
-5.30676

>  <filename>  (1) 
COc1nn(Cc2ccc(=O)n(-c3cccnc3)n2)c(=O)o1

$$$$
