
     RDKit          3D

 34 37  0  0  0  0  0  0  0  0999 V2000
    4.9458    1.7735   16.9781 H   0  0  0  0  0  0  0  0  0  0  0  0
    5.4062    1.2902   17.8356 C   0  0  0  0  0  0  0  0  0  0  0  0
    6.5690    0.6600   17.6040 N   0  0  0  0  0  0  0  0  0  0  0  0
    7.1583    0.0854   18.6540 C   0  0  0  0  0  0  0  0  0  0  0  0
    8.1026   -0.4132   18.4393 H   0  0  0  0  0  0  0  0  0  0  0  0
    6.6544    0.1070   19.9718 C   0  0  0  0  0  0  0  0  0  0  0  0
    7.4314   -0.5822   21.0213 C   0  0  0  0  0  0  0  0  0  0  0  0
    8.2848   -1.6128   20.8553 C   0  0  0  0  0  0  0  0  0  0  0  0
    8.6821   -1.9831   19.9322 H   0  0  0  0  0  0  0  0  0  0  0  0
    8.8686   -2.2959   22.3420 S   0  0  0  0  0  0  0  0  0  0  0  0
    8.0779   -1.0260   23.2139 C   0  0  0  0  0  0  0  0  0  0  0  0
    8.1018   -0.5288   24.4263 N   0  0  0  0  0  0  0  0  0  0  0  0
    7.3449    0.5964   24.2711 C   0  0  0  0  0  0  0  0  0  0  0  0
    7.0978    1.5433   25.3705 C   0  0  0  0  0  0  0  0  0  0  0  0
    7.6339    1.3173   26.6465 C   0  0  0  0  0  0  0  0  0  0  0  0
    8.2542    0.4426   26.8269 H   0  0  0  0  0  0  0  0  0  0  0  0
    7.3771    2.2099   27.6870 C   0  0  0  0  0  0  0  0  0  0  0  0
    7.7977    2.0149   28.6671 H   0  0  0  0  0  0  0  0  0  0  0  0
    6.5844    3.3487   27.4754 C   0  0  0  0  0  0  0  0  0  0  0  0
    6.2629    4.2748   28.4066 O   0  0  0  0  0  0  0  0  0  0  0  0
    6.7219    4.0738   29.7256 C   0  0  0  0  0  0  0  0  0  0  0  0
    7.8158    4.0874   29.7644 H   0  0  0  0  0  0  0  0  0  0  0  0
    6.3578    3.1218   30.1326 H   0  0  0  0  0  0  0  0  0  0  0  0
    6.3305    4.9011   30.3120 H   0  0  0  0  0  0  0  0  0  0  0  0
    6.0660    3.5666   26.1816 C   0  0  0  0  0  0  0  0  0  0  0  0
    5.3123    4.6544   25.9646 F   0  0  0  0  0  0  0  0  0  0  0  0
    6.3124    2.6937   25.1441 C   0  0  0  0  0  0  0  0  0  0  0  0
    5.8954    2.9154   24.1653 H   0  0  0  0  0  0  0  0  0  0  0  0
    6.8599    0.8038   23.0495 N   0  0  0  0  0  0  0  0  0  0  0  0
    7.3352   -0.2698   22.3789 N   0  0  0  0  0  0  0  0  0  0  0  0
    5.4182    0.7477   20.1894 C   0  0  0  0  0  0  0  0  0  0  0  0
    4.9826    0.7835   21.1930 H   0  0  0  0  0  0  0  0  0  0  0  0
    4.7911    1.3380   19.0931 C   0  0  0  0  0  0  0  0  0  0  0  0
    3.8395    1.8478   19.1988 H   0  0  0  0  0  0  0  0  0  0  0  0
  1  2  1  0
  2  3  2  0
  3  4  1  0
  4  5  1  0
  4  6  2  0
  6  7  1  0
  7  8  2  0
  8  9  1  0
  8 10  1  0
 10 11  1  0
 11 12  2  0
 12 13  1  0
 13 14  1  0
 14 15  2  0
 15 16  1  0
 15 17  1  0
 17 18  1  0
 17 19  2  0
 19 20  1  0
 20 21  1  0
 21 22  1  0
 21 23  1  0
 21 24  1  0
 19 25  1  0
 25 26  1  0
 25 27  2  0
 27 28  1  0
 13 29  2  0
 29 30  1  0
  6 31  1  0
 31 32  1  0
 31 33  2  0
 33 34  1  0
 33  2  1  0
 30  7  1  0
 30 11  1  0
 27 14  1  0
M  END
>  <cnnaffinity>  (1) 
-5.3384

>  <filename>  (1) 
COc1ccc(-c2nc3scc(-c4cccnc4)n3n2)cc1F

$$$$
