
     RDKit          3D

 35 38  0  0  0  0  0  0  0  0999 V2000
    4.9923    1.8553   16.8976 H   0  0  0  0  0  0  0  0  0  0  0  0
    5.4207    1.3016   17.7294 C   0  0  0  0  0  0  0  0  0  0  0  0
    6.5657    0.6478   17.4779 N   0  0  0  0  0  0  0  0  0  0  0  0
    7.1351   -0.0022   18.4989 C   0  0  0  0  0  0  0  0  0  0  0  0
    8.0710   -0.5152   18.2838 H   0  0  0  0  0  0  0  0  0  0  0  0
    6.6002   -0.0361   19.8024 C   0  0  0  0  0  0  0  0  0  0  0  0
    7.3502   -0.6490   20.9146 C   0  0  0  0  0  0  0  0  0  0  0  0
    8.4816   -1.3381   20.6981 N   0  0  0  0  0  0  0  0  0  0  0  0
    8.9208   -1.5992   21.9481 N   0  0  0  0  0  0  0  0  0  0  0  0
   10.0413   -2.2156   22.4957 C   0  0  0  0  0  0  0  0  0  0  0  0
   10.7889   -2.6734   21.8734 H   0  0  0  0  0  0  0  0  0  0  0  0
    9.9211   -2.0707   23.8414 C   0  0  0  0  0  0  0  0  0  0  0  0
   10.5426   -2.4232   24.6497 H   0  0  0  0  0  0  0  0  0  0  0  0
    8.7508   -1.3742   24.1294 N   0  0  0  0  0  0  0  0  0  0  0  0
    8.2963   -0.9659   25.3978 C   0  0  0  0  0  0  0  0  0  0  0  0
    6.9256   -0.8877   25.6611 C   0  0  0  0  0  0  0  0  0  0  0  0
    6.2330   -1.2012   24.8809 H   0  0  0  0  0  0  0  0  0  0  0  0
    6.4038   -0.4139   26.8085 N   0  0  0  0  0  0  0  0  0  0  0  0
    7.2584   -0.0124   27.7385 C   0  0  0  0  0  0  0  0  0  0  0  0
    6.8547    0.5883   28.8755 O   0  0  0  0  0  0  0  0  0  0  0  0
    5.4696    0.7217   29.1686 C   0  0  0  0  0  0  0  0  0  0  0  0
    4.9528    1.3315   28.4180 H   0  0  0  0  0  0  0  0  0  0  0  0
    4.9928   -0.2619   29.2356 H   0  0  0  0  0  0  0  0  0  0  0  0
    5.4227    1.2215   30.1386 H   0  0  0  0  0  0  0  0  0  0  0  0
    8.6570   -0.1475   27.6140 C   0  0  0  0  0  0  0  0  0  0  0  0
    9.2594    0.1183   28.4699 H   0  0  0  0  0  0  0  0  0  0  0  0
    9.1967   -0.5907   26.4221 C   0  0  0  0  0  0  0  0  0  0  0  0
   10.2806   -0.6194   26.2674 H   0  0  0  0  0  0  0  0  0  0  0  0
    8.1323   -1.0997   22.9183 C   0  0  0  0  0  0  0  0  0  0  0  0
    7.0537   -0.4959   22.2910 C   0  0  0  0  0  0  0  0  0  0  0  0
    6.1842   -0.0272   22.7145 H   0  0  0  0  0  0  0  0  0  0  0  0
    5.3781    0.6177   20.0336 C   0  0  0  0  0  0  0  0  0  0  0  0
    4.9120    0.6175   21.0233 H   0  0  0  0  0  0  0  0  0  0  0  0
    4.7874    1.3008   18.9773 C   0  0  0  0  0  0  0  0  0  0  0  0
    3.8727    1.8624   19.1231 H   0  0  0  0  0  0  0  0  0  0  0  0
  1  2  1  0
  2  3  2  0
  3  4  1  0
  4  5  1  0
  4  6  2  0
  6  7  1  0
  7  8  2  0
  8  9  1  0
  9 10  1  0
 10 11  1  0
 10 12  2  0
 12 13  1  0
 12 14  1  0
 14 15  1  0
 15 16  2  0
 16 17  1  0
 16 18  1  0
 18 19  2  0
 19 20  1  0
 20 21  1  0
 21 22  1  0
 21 23  1  0
 21 24  1  0
 19 25  1  0
 25 26  1  0
 25 27  2  0
 27 28  1  0
 14 29  1  0
 29 30  2  0
 30 31  1  0
  6 32  1  0
 32 33  1  0
 32 34  2  0
 34 35  1  0
 34  2  1  0
 30  7  1  0
 29  9  1  0
 27 15  1  0
M  END
>  <cnnaffinity>  (1) 
-5.40378

>  <filename>  (1) 
COc1ccc(-n2ccn3nc(-c4cccnc4)cc23)cn1

$$$$
