
     RDKit          3D

 34 36  0  0  0  0  0  0  0  0999 V2000
    4.9342    1.8380   16.9400 H   0  0  0  0  0  0  0  0  0  0  0  0
    5.3883    1.3199   17.7813 C   0  0  0  0  0  0  0  0  0  0  0  0
    6.5450    0.6846   17.5360 N   0  0  0  0  0  0  0  0  0  0  0  0
    7.1356    0.0644   18.5693 C   0  0  0  0  0  0  0  0  0  0  0  0
    8.0821   -0.4284   18.3405 H   0  0  0  0  0  0  0  0  0  0  0  0
    6.6081    0.0084   19.8792 C   0  0  0  0  0  0  0  0  0  0  0  0
    7.3174   -0.7143   20.9868 C   0  0  0  0  0  0  0  0  0  0  0  0
    8.7246   -0.5473   21.1907 C   0  0  0  0  0  0  0  0  0  0  0  0
    9.2836    0.1170   20.5346 H   0  0  0  0  0  0  0  0  0  0  0  0
    9.4309   -1.1989   22.1833 C   0  0  0  0  0  0  0  0  0  0  0  0
   10.9106   -1.0118   22.2948 C   0  0  0  0  0  0  0  0  0  0  0  0
   11.5561    0.2649   22.3789 C   0  0  0  0  0  0  0  0  0  0  0  0
   10.7328    1.3243   22.4027 O   0  0  0  0  0  0  0  0  0  0  0  0
   11.2723    2.6354   22.5251 C   0  0  0  0  0  0  0  0  0  0  0  0
   11.9518    2.8661   21.6999 H   0  0  0  0  0  0  0  0  0  0  0  0
   11.8230    2.7461   23.4630 H   0  0  0  0  0  0  0  0  0  0  0  0
   10.4108    3.3028   22.5035 H   0  0  0  0  0  0  0  0  0  0  0  0
   12.8646    0.4464   22.4662 N   0  0  0  0  0  0  0  0  0  0  0  0
   13.6418   -0.6393   22.3414 C   0  0  0  0  0  0  0  0  0  0  0  0
   14.7110   -0.4681   22.4250 H   0  0  0  0  0  0  0  0  0  0  0  0
   13.1477   -1.9177   22.1385 C   0  0  0  0  0  0  0  0  0  0  0  0
   13.8448   -2.7326   21.9762 H   0  0  0  0  0  0  0  0  0  0  0  0
   11.7603   -2.1102   22.2012 C   0  0  0  0  0  0  0  0  0  0  0  0
   11.3027   -3.0965   22.1920 H   0  0  0  0  0  0  0  0  0  0  0  0
    8.7058   -2.1472   23.0641 C   0  0  0  0  0  0  0  0  0  0  0  0
    9.1187   -2.8569   23.9647 O   0  0  0  0  0  0  0  0  0  0  0  0
    7.3286   -2.2065   22.8236 N   0  0  0  0  0  0  0  0  0  0  0  0
    6.9352   -2.8013   23.5416 H   0  0  0  0  0  0  0  0  0  0  0  0
    6.6404   -1.5466   21.8440 C   0  0  0  0  0  0  0  0  0  0  0  0
    5.5663   -1.7258   21.7660 H   0  0  0  0  0  0  0  0  0  0  0  0
    5.3911    0.6770   20.0975 C   0  0  0  0  0  0  0  0  0  0  0  0
    4.9594    0.7057   21.0976 H   0  0  0  0  0  0  0  0  0  0  0  0
    4.7749    1.3436   19.0370 C   0  0  0  0  0  0  0  0  0  0  0  0
    3.8443    1.8807   19.1771 H   0  0  0  0  0  0  0  0  0  0  0  0
  1  2  1  0
  2  3  2  0
  3  4  1  0
  4  5  1  0
  4  6  2  0
  6  7  1  0
  7  8  1  0
  8  9  1  0
  8 10  2  0
 10 11  1  0
 11 12  2  0
 12 13  1  0
 13 14  1  0
 14 15  1  0
 14 16  1  0
 14 17  1  0
 12 18  1  0
 18 19  2  0
 19 20  1  0
 19 21  1  0
 21 22  1  0
 21 23  2  0
 23 24  1  0
 10 25  1  0
 25 26  2  0
 25 27  1  0
 27 28  1  0
 27 29  1  0
 29 30  1  0
  6 31  1  0
 31 32  1  0
 31 33  2  0
 33 34  1  0
 33  2  1  0
 29  7  2  0
 23 11  1  0
M  END
>  <cnnaffinity>  (1) 
-5.43716

>  <filename>  (1) 
COc1ncccc1-c1cc(-c2cccnc2)c[nH]c1=O

$$$$
