
     RDKit          3D

 35 38  0  0  0  0  0  0  0  0999 V2000
    4.9401    1.7973   16.9578 H   0  0  0  0  0  0  0  0  0  0  0  0
    5.4206    1.3024   17.7954 C   0  0  0  0  0  0  0  0  0  0  0  0
    6.5827    0.6876   17.5372 N   0  0  0  0  0  0  0  0  0  0  0  0
    7.2138    0.0949   18.5562 C   0  0  0  0  0  0  0  0  0  0  0  0
    8.1507   -0.4028   18.3108 H   0  0  0  0  0  0  0  0  0  0  0  0
    6.7112    0.0751   19.8714 C   0  0  0  0  0  0  0  0  0  0  0  0
    7.4047   -0.6725   20.9363 C   0  0  0  0  0  0  0  0  0  0  0  0
    8.6303   -1.1950   20.7742 N   0  0  0  0  0  0  0  0  0  0  0  0
    8.8061   -1.8962   21.9173 N   0  0  0  0  0  0  0  0  0  0  0  0
    9.7607   -2.7918   22.3803 C   0  0  0  0  0  0  0  0  0  0  0  0
   10.6984   -2.9020   21.8613 H   0  0  0  0  0  0  0  0  0  0  0  0
    9.2263   -3.3706   23.4846 C   0  0  0  0  0  0  0  0  0  0  0  0
    9.6078   -4.1611   24.1150 H   0  0  0  0  0  0  0  0  0  0  0  0
    7.9766   -2.7944   23.7506 N   0  0  0  0  0  0  0  0  0  0  0  0
    7.0555   -3.1047   24.7746 C   0  0  0  0  0  0  0  0  0  0  0  0
    6.2476   -2.0951   25.3526 C   0  0  0  0  0  0  0  0  0  0  0  0
    6.3758   -1.0597   25.0381 H   0  0  0  0  0  0  0  0  0  0  0  0
    5.3205   -2.3540   26.2774 N   0  0  0  0  0  0  0  0  0  0  0  0
    5.1361   -3.6274   26.6686 C   0  0  0  0  0  0  0  0  0  0  0  0
    4.3573   -3.8110   27.4052 H   0  0  0  0  0  0  0  0  0  0  0  0
    5.8899   -4.7024   26.1492 C   0  0  0  0  0  0  0  0  0  0  0  0
    5.7618   -6.0196   26.4534 O   0  0  0  0  0  0  0  0  0  0  0  0
    4.8290   -6.4056   27.4429 C   0  0  0  0  0  0  0  0  0  0  0  0
    5.0478   -5.9137   28.3968 H   0  0  0  0  0  0  0  0  0  0  0  0
    4.9287   -7.4852   27.5532 H   0  0  0  0  0  0  0  0  0  0  0  0
    3.8071   -6.1571   27.1357 H   0  0  0  0  0  0  0  0  0  0  0  0
    6.8696   -4.4192   25.1937 C   0  0  0  0  0  0  0  0  0  0  0  0
    7.4207   -5.2539   24.7718 H   0  0  0  0  0  0  0  0  0  0  0  0
    7.7481   -1.8600   22.7502 C   0  0  0  0  0  0  0  0  0  0  0  0
    6.8266   -0.9988   22.1821 C   0  0  0  0  0  0  0  0  0  0  0  0
    5.9149   -0.5883   22.5591 H   0  0  0  0  0  0  0  0  0  0  0  0
    5.4774    0.7056   20.1119 C   0  0  0  0  0  0  0  0  0  0  0  0
    5.0236    0.7048   21.1039 H   0  0  0  0  0  0  0  0  0  0  0  0
    4.8236    1.3288   19.0578 C   0  0  0  0  0  0  0  0  0  0  0  0
    3.8777    1.8337   19.2075 H   0  0  0  0  0  0  0  0  0  0  0  0
  1  2  1  0
  2  3  2  0
  3  4  1  0
  4  5  1  0
  4  6  2  0
  6  7  1  0
  7  8  2  0
  8  9  1  0
  9 10  1  0
 10 11  1  0
 10 12  2  0
 12 13  1  0
 12 14  1  0
 14 15  1  0
 15 16  2  0
 16 17  1  0
 16 18  1  0
 18 19  2  0
 19 20  1  0
 19 21  1  0
 21 22  1  0
 22 23  1  0
 23 24  1  0
 23 25  1  0
 23 26  1  0
 21 27  2  0
 27 28  1  0
 14 29  1  0
 29 30  2  0
 30 31  1  0
  6 32  1  0
 32 33  1  0
 32 34  2  0
 34 35  1  0
 34  2  1  0
 30  7  1  0
 29  9  1  0
 27 15  1  0
M  END
>  <cnnaffinity>  (1) 
-5.76286

>  <filename>  (1) 
COc1cncc(-n2ccn3nc(-c4cccnc4)cc23)c1

$$$$
