
     RDKit          3D

 35 37  0  0  0  0  0  0  0  0999 V2000
    5.0272    2.0342   16.9957 H   0  0  0  0  0  0  0  0  0  0  0  0
    5.4415    1.3640   17.7459 C   0  0  0  0  0  0  0  0  0  0  0  0
    6.5783    0.7284   17.4182 N   0  0  0  0  0  0  0  0  0  0  0  0
    7.1281   -0.0751   18.3356 C   0  0  0  0  0  0  0  0  0  0  0  0
    8.0426   -0.5851   18.0353 H   0  0  0  0  0  0  0  0  0  0  0  0
    6.5713   -0.2947   19.6121 C   0  0  0  0  0  0  0  0  0  0  0  0
    7.2718   -1.0651   20.5926 N   0  0  0  0  0  0  0  0  0  0  0  0
    8.5680   -0.7429   20.9954 C   0  0  0  0  0  0  0  0  0  0  0  0
    9.0845    0.1348   20.6509 H   0  0  0  0  0  0  0  0  0  0  0  0
    8.9527   -1.6562   21.9054 C   0  0  0  0  0  0  0  0  0  0  0  0
   10.1049   -1.8557   22.6419 N   0  0  0  0  0  0  0  0  0  0  0  0
   10.4831   -2.7851   22.5288 H   0  0  0  0  0  0  0  0  0  0  0  0
   11.0844   -0.8373   22.6850 C   0  0  0  0  0  0  0  0  0  0  0  0
   12.4357   -1.1202   22.4340 C   0  0  0  0  0  0  0  0  0  0  0  0
   12.7466   -2.1495   22.2558 H   0  0  0  0  0  0  0  0  0  0  0  0
   13.3881   -0.1004   22.4689 C   0  0  0  0  0  0  0  0  0  0  0  0
   14.4386   -0.2778   22.2571 H   0  0  0  0  0  0  0  0  0  0  0  0
   13.0050    1.2160   22.7837 C   0  0  0  0  0  0  0  0  0  0  0  0
   14.0182    2.1237   22.8526 O   0  0  0  0  0  0  0  0  0  0  0  0
   13.7424    3.5098   22.7793 C   0  0  0  0  0  0  0  0  0  0  0  0
   14.7168    3.9930   22.6744 H   0  0  0  0  0  0  0  0  0  0  0  0
   13.1120    3.7672   21.9153 H   0  0  0  0  0  0  0  0  0  0  0  0
   13.2597    3.8775   23.6937 H   0  0  0  0  0  0  0  0  0  0  0  0
   11.6607    1.4980   23.0543 C   0  0  0  0  0  0  0  0  0  0  0  0
   11.3606    2.5143   23.2878 H   0  0  0  0  0  0  0  0  0  0  0  0
   10.7099    0.4704   23.0137 C   0  0  0  0  0  0  0  0  0  0  0  0
    9.6573    0.6484   23.2216 H   0  0  0  0  0  0  0  0  0  0  0  0
    7.9055   -2.5278   22.0546 N   0  0  0  0  0  0  0  0  0  0  0  0
    7.7899   -3.1994   22.7899 H   0  0  0  0  0  0  0  0  0  0  0  0
    6.8313   -2.1682   21.3001 C   0  0  0  0  0  0  0  0  0  0  0  0
    5.3826   -2.9801   21.3253 S   0  0  0  0  0  0  0  0  0  0  0  0
    5.3560    0.3230   19.9220 C   0  0  0  0  0  0  0  0  0  0  0  0
    4.8876    0.1318   20.8875 H   0  0  0  0  0  0  0  0  0  0  0  0
    4.7977    1.1898   18.9757 C   0  0  0  0  0  0  0  0  0  0  0  0
    3.8924    1.7470   19.1885 H   0  0  0  0  0  0  0  0  0  0  0  0
  1  2  1  0
  2  3  2  0
  3  4  1  0
  4  5  1  0
  4  6  2  0
  6  7  1  0
  7  8  1  0
  8  9  1  0
  8 10  2  0
 10 11  1  0
 11 12  1  0
 11 13  1  0
 13 14  2  0
 14 15  1  0
 14 16  1  0
 16 17  1  0
 16 18  2  0
 18 19  1  0
 19 20  1  0
 20 21  1  0
 20 22  1  0
 20 23  1  0
 18 24  1  0
 24 25  1  0
 24 26  2  0
 26 27  1  0
 10 28  1  0
 28 29  1  0
 28 30  1  0
 30 31  2  0
  6 32  1  0
 32 33  1  0
 32 34  2  0
 34 35  1  0
 34  2  1  0
 30  7  1  0
 26 13  1  0
M  END
>  <cnnaffinity>  (1) 
-5.67742

>  <filename>  (1) 
COc1ccc(Nc2cn(-c3cccnc3)c(=S)[nH]2)cc1

$$$$
