
     RDKit          3D

 34 36  0  0  0  0  0  0  0  0999 V2000
    4.9162    1.8020   16.9752 H   0  0  0  0  0  0  0  0  0  0  0  0
    5.3906    1.3028   17.8185 C   0  0  0  0  0  0  0  0  0  0  0  0
    6.5532    0.6844   17.5561 N   0  0  0  0  0  0  0  0  0  0  0  0
    7.1676    0.0757   18.5788 C   0  0  0  0  0  0  0  0  0  0  0  0
    8.1089   -0.4199   18.3406 H   0  0  0  0  0  0  0  0  0  0  0  0
    6.6640    0.0201   19.8918 C   0  0  0  0  0  0  0  0  0  0  0  0
    7.3919   -0.6945   20.9698 C   0  0  0  0  0  0  0  0  0  0  0  0
    6.6869   -1.5483   21.8714 C   0  0  0  0  0  0  0  0  0  0  0  0
    5.6171   -1.6742   21.7190 H   0  0  0  0  0  0  0  0  0  0  0  0
    7.3438   -2.2034   22.8642 C   0  0  0  0  0  0  0  0  0  0  0  0
    6.8621   -2.8547   23.5769 H   0  0  0  0  0  0  0  0  0  0  0  0
    8.7764   -2.0669   23.0686 C   0  0  0  0  0  0  0  0  0  0  0  0
    9.3848   -2.6440   23.9555 O   0  0  0  0  0  0  0  0  0  0  0  0
    9.4372   -1.1955   22.1337 N   0  0  0  0  0  0  0  0  0  0  0  0
   10.8587   -0.9840   22.2239 C   0  0  0  0  0  0  0  0  0  0  0  0
   11.7544   -2.0608   22.1553 C   0  0  0  0  0  0  0  0  0  0  0  0
   11.3770   -3.0746   22.1314 H   0  0  0  0  0  0  0  0  0  0  0  0
   13.0840   -1.9002   22.1883 N   0  0  0  0  0  0  0  0  0  0  0  0
   13.5750   -0.6759   22.3837 C   0  0  0  0  0  0  0  0  0  0  0  0
   14.6544   -0.5859   22.4988 H   0  0  0  0  0  0  0  0  0  0  0  0
   12.7573    0.4769   22.4798 C   0  0  0  0  0  0  0  0  0  0  0  0
   13.4015    1.6550   22.6642 O   0  0  0  0  0  0  0  0  0  0  0  0
   12.6646    2.8640   22.6809 C   0  0  0  0  0  0  0  0  0  0  0  0
   11.9705    2.8926   23.5308 H   0  0  0  0  0  0  0  0  0  0  0  0
   13.4192    3.6433   22.7872 H   0  0  0  0  0  0  0  0  0  0  0  0
   12.1019    3.0177   21.7494 H   0  0  0  0  0  0  0  0  0  0  0  0
   11.3687    0.3142   22.3688 C   0  0  0  0  0  0  0  0  0  0  0  0
   10.6825    1.1598   22.4056 H   0  0  0  0  0  0  0  0  0  0  0  0
    8.7402   -0.5538   21.1333 C   0  0  0  0  0  0  0  0  0  0  0  0
    9.3333    0.0825   20.4846 H   0  0  0  0  0  0  0  0  0  0  0  0
    5.4387    0.6586   20.1358 C   0  0  0  0  0  0  0  0  0  0  0  0
    5.0168    0.6453   21.1417 H   0  0  0  0  0  0  0  0  0  0  0  0
    4.7995    1.3200   19.0870 C   0  0  0  0  0  0  0  0  0  0  0  0
    3.8659    1.8489   19.2384 H   0  0  0  0  0  0  0  0  0  0  0  0
  1  2  1  0
  2  3  2  0
  3  4  1  0
  4  5  1  0
  4  6  2  0
  6  7  1  0
  7  8  1  0
  8  9  1  0
  8 10  2  0
 10 11  1  0
 10 12  1  0
 12 13  2  0
 12 14  1  0
 14 15  1  0
 15 16  2  0
 16 17  1  0
 16 18  1  0
 18 19  2  0
 19 20  1  0
 19 21  1  0
 21 22  1  0
 22 23  1  0
 23 24  1  0
 23 25  1  0
 23 26  1  0
 21 27  2  0
 27 28  1  0
 14 29  1  0
 29 30  1  0
  6 31  1  0
 31 32  1  0
 31 33  2  0
 33 34  1  0
 33  2  1  0
 29  7  2  0
 27 15  1  0
M  END
>  <cnnaffinity>  (1) 
-5.94161

>  <filename>  (1) 
COc1cncc(-n2cc(-c3cccnc3)ccc2=O)c1

$$$$
