
     RDKit          3D

 34 36  0  0  0  0  0  0  0  0999 V2000
    4.9666    1.9041   16.9286 H   0  0  0  0  0  0  0  0  0  0  0  0
    5.4167    1.3628   17.7587 C   0  0  0  0  0  0  0  0  0  0  0  0
    6.5882    0.7587   17.5011 N   0  0  0  0  0  0  0  0  0  0  0  0
    7.1666    0.0891   18.5042 C   0  0  0  0  0  0  0  0  0  0  0  0
    8.1260   -0.3750   18.2695 H   0  0  0  0  0  0  0  0  0  0  0  0
    6.6016   -0.0596   19.7928 C   0  0  0  0  0  0  0  0  0  0  0  0
    7.2988   -0.8257   20.8619 C   0  0  0  0  0  0  0  0  0  0  0  0
    8.6053   -0.5710   21.1069 C   0  0  0  0  0  0  0  0  0  0  0  0
    9.1385    0.1923   20.5421 H   0  0  0  0  0  0  0  0  0  0  0  0
    9.3405   -1.2212   22.0913 N   0  0  0  0  0  0  0  0  0  0  0  0
   10.7341   -0.8611   22.2414 C   0  0  0  0  0  0  0  0  0  0  0  0
   11.8029   -1.7829   22.1833 C   0  0  0  0  0  0  0  0  0  0  0  0
   11.6009   -2.8472   22.1072 H   0  0  0  0  0  0  0  0  0  0  0  0
   13.0841   -1.3972   22.2349 N   0  0  0  0  0  0  0  0  0  0  0  0
   13.3684   -0.0929   22.3621 C   0  0  0  0  0  0  0  0  0  0  0  0
   14.4285    0.1578   22.4013 H   0  0  0  0  0  0  0  0  0  0  0  0
   12.3694    0.9002   22.4393 C   0  0  0  0  0  0  0  0  0  0  0  0
   12.5755    2.2441   22.4984 O   0  0  0  0  0  0  0  0  0  0  0  0
   13.7317    2.7018   23.1718 C   0  0  0  0  0  0  0  0  0  0  0  0
   13.6554    3.7875   23.2459 H   0  0  0  0  0  0  0  0  0  0  0  0
   13.7616    2.2744   24.1784 H   0  0  0  0  0  0  0  0  0  0  0  0
   14.6567    2.4455   22.6367 H   0  0  0  0  0  0  0  0  0  0  0  0
   11.0344    0.4915   22.3724 C   0  0  0  0  0  0  0  0  0  0  0  0
   10.2452    1.2389   22.4224 H   0  0  0  0  0  0  0  0  0  0  0  0
    8.6906   -2.0874   23.0024 C   0  0  0  0  0  0  0  0  0  0  0  0
    9.2314   -2.7026   23.8903 O   0  0  0  0  0  0  0  0  0  0  0  0
    7.3484   -2.2086   22.8176 N   0  0  0  0  0  0  0  0  0  0  0  0
    6.9483   -2.9478   23.3600 H   0  0  0  0  0  0  0  0  0  0  0  0
    6.6258   -1.8639   21.6952 C   0  0  0  0  0  0  0  0  0  0  0  0
    5.5767   -2.4402   21.5051 O   0  0  0  0  0  0  0  0  0  0  0  0
    5.3878    0.5996   20.0385 C   0  0  0  0  0  0  0  0  0  0  0  0
    4.9510    0.5598   21.0356 H   0  0  0  0  0  0  0  0  0  0  0  0
    4.7874    1.3232   19.0049 C   0  0  0  0  0  0  0  0  0  0  0  0
    3.8602    1.8640   19.1555 H   0  0  0  0  0  0  0  0  0  0  0  0
  1  2  1  0
  2  3  2  0
  3  4  1  0
  4  5  1  0
  4  6  2  0
  6  7  1  0
  7  8  2  0
  8  9  1  0
  8 10  1  0
 10 11  1  0
 11 12  2  0
 12 13  1  0
 12 14  1  0
 14 15  2  0
 15 16  1  0
 15 17  1  0
 17 18  1  0
 18 19  1  0
 19 20  1  0
 19 21  1  0
 19 22  1  0
 17 23  2  0
 23 24  1  0
 10 25  1  0
 25 26  2  0
 25 27  1  0
 27 28  1  0
 27 29  1  0
 29 30  2  0
  6 31  1  0
 31 32  1  0
 31 33  2  0
 33 34  1  0
 33  2  1  0
 29  7  1  0
 23 11  1  0
M  END
>  <cnnaffinity>  (1) 
-5.51437

>  <filename>  (1) 
COc1cncc(-n2cc(-c3cccnc3)c(=O)[nH]c2=O)c1

$$$$
