
     RDKit          3D

 43 46  0  0  0  0  0  0  0  0999 V2000
    4.9602    1.8381   16.9487 H   0  0  0  0  0  0  0  0  0  0  0  0
    5.3999    1.2968   17.7842 C   0  0  0  0  0  0  0  0  0  0  0  0
    6.5497    0.6492   17.5357 N   0  0  0  0  0  0  0  0  0  0  0  0
    7.1398    0.0157   18.5544 C   0  0  0  0  0  0  0  0  0  0  0  0
    8.0739   -0.4958   18.3228 H   0  0  0  0  0  0  0  0  0  0  0  0
    6.6311    0.0021   19.8662 C   0  0  0  0  0  0  0  0  0  0  0  0
    7.3854   -0.6413   20.9528 C   0  0  0  0  0  0  0  0  0  0  0  0
    8.1379   -1.7202   20.7389 N   0  0  0  0  0  0  0  0  0  0  0  0
    8.6148   -2.0127   21.9451 N   0  0  0  0  0  0  0  0  0  0  0  0
    8.2567   -1.1945   22.9251 C   0  0  0  0  0  0  0  0  0  0  0  0
    7.4320   -0.2582   22.3309 C   0  0  0  0  0  0  0  0  0  0  0  0
    7.0061    0.9783   22.9666 C   0  0  0  0  0  0  0  0  0  0  0  0
    7.2763    2.2074   22.3571 C   0  0  0  0  0  0  0  0  0  0  0  0
    7.7583    2.2116   21.3811 H   0  0  0  0  0  0  0  0  0  0  0  0
    6.9715    3.4063   22.9869 C   0  0  0  0  0  0  0  0  0  0  0  0
    7.2226    4.3484   22.5133 H   0  0  0  0  0  0  0  0  0  0  0  0
    6.3578    3.3731   24.2477 C   0  0  0  0  0  0  0  0  0  0  0  0
    5.9987    4.4729   24.9594 O   0  0  0  0  0  0  0  0  0  0  0  0
    6.2551    5.7369   24.3843 C   0  0  0  0  0  0  0  0  0  0  0  0
    7.3307    5.8835   24.2254 H   0  0  0  0  0  0  0  0  0  0  0  0
    5.7345    5.8468   23.4246 H   0  0  0  0  0  0  0  0  0  0  0  0
    5.8891    6.4924   25.0779 H   0  0  0  0  0  0  0  0  0  0  0  0
    6.0695    2.1589   24.8778 C   0  0  0  0  0  0  0  0  0  0  0  0
    5.5943    2.1927   25.8523 H   0  0  0  0  0  0  0  0  0  0  0  0
    6.4096    0.9663   24.2531 C   0  0  0  0  0  0  0  0  0  0  0  0
    6.2104   -0.2601   24.8094 O   0  0  0  0  0  0  0  0  0  0  0  0
    5.5488   -0.3930   26.0486 C   0  0  0  0  0  0  0  0  0  0  0  0
    5.4583   -1.4656   26.2352 H   0  0  0  0  0  0  0  0  0  0  0  0
    6.1245    0.0567   26.8666 H   0  0  0  0  0  0  0  0  0  0  0  0
    4.5452    0.0483   26.0233 H   0  0  0  0  0  0  0  0  0  0  0  0
    9.0872   -1.4272   24.1526 C   0  0  0  0  0  0  0  0  0  0  0  0
    9.6610   -0.5348   24.4280 H   0  0  0  0  0  0  0  0  0  0  0  0
    8.4558   -1.6608   25.0025 H   0  0  0  0  0  0  0  0  0  0  0  0
   10.0016   -2.6038   23.7205 C   0  0  0  0  0  0  0  0  0  0  0  0
    9.9291   -3.4552   24.3955 H   0  0  0  0  0  0  0  0  0  0  0  0
   11.0286   -2.2693   23.6976 H   0  0  0  0  0  0  0  0  0  0  0  0
    9.6110   -2.9924   22.2720 C   0  0  0  0  0  0  0  0  0  0  0  0
   10.4436   -2.8813   21.5765 H   0  0  0  0  0  0  0  0  0  0  0  0
    9.1681   -3.9827   22.1690 H   0  0  0  0  0  0  0  0  0  0  0  0
    5.3992    0.6424   20.0930 C   0  0  0  0  0  0  0  0  0  0  0  0
    4.9624    0.6520   21.0925 H   0  0  0  0  0  0  0  0  0  0  0  0
    4.7795    1.3045   19.0368 C   0  0  0  0  0  0  0  0  0  0  0  0
    3.8522    1.8480   19.1777 H   0  0  0  0  0  0  0  0  0  0  0  0
  1  2  1  0
  2  3  2  0
  3  4  1  0
  4  5  1  0
  4  6  2  0
  6  7  1  0
  7  8  2  0
  8  9  1  0
  9 10  1  0
 10 11  2  0
 11 12  1  0
 12 13  2  0
 13 14  1  0
 13 15  1  0
 15 16  1  0
 15 17  2  0
 17 18  1  0
 18 19  1  0
 19 20  1  0
 19 21  1  0
 19 22  1  0
 17 23  1  0
 23 24  1  0
 23 25  2  0
 25 26  1  0
 26 27  1  0
 27 28  1  0
 27 29  1  0
 27 30  1  0
 10 31  1  0
 31 32  1  0
 31 33  1  0
 31 34  1  0
 34 35  1  0
 34 36  1  0
 34 37  1  0
 37 38  1  0
 37 39  1  0
  6 40  1  0
 40 41  1  0
 40 42  2  0
 42 43  1  0
 42  2  1  0
 11  7  1  0
 25 12  1  0
 37  9  1  0
M  END
>  <cnnaffinity>  (1) 
-5.59317

>  <filename>  (1) 
COc1ccc(-c2c(-c3cccnc3)nn3c2CCC3)c(OC)c1

$$$$
