
     RDKit          3D

 39 42  0  0  0  0  0  0  0  0999 V2000
    4.9466    1.8167   16.9787 H   0  0  0  0  0  0  0  0  0  0  0  0
    5.4031    1.2930   17.8169 C   0  0  0  0  0  0  0  0  0  0  0  0
    6.5637    0.6652   17.5653 N   0  0  0  0  0  0  0  0  0  0  0  0
    7.1537    0.0221   18.5769 C   0  0  0  0  0  0  0  0  0  0  0  0
    8.1059   -0.4532   18.3408 H   0  0  0  0  0  0  0  0  0  0  0  0
    6.6242   -0.0237   19.8789 C   0  0  0  0  0  0  0  0  0  0  0  0
    7.3504   -0.6854   20.9659 C   0  0  0  0  0  0  0  0  0  0  0  0
    8.0771   -1.7774   20.7394 N   0  0  0  0  0  0  0  0  0  0  0  0
    8.5536   -2.0889   21.9423 N   0  0  0  0  0  0  0  0  0  0  0  0
    8.2224   -1.2630   22.9296 C   0  0  0  0  0  0  0  0  0  0  0  0
    7.4347   -0.2901   22.3429 C   0  0  0  0  0  0  0  0  0  0  0  0
    7.0723    0.9563   22.9963 C   0  0  0  0  0  0  0  0  0  0  0  0
    7.2726    2.1862   22.3471 C   0  0  0  0  0  0  0  0  0  0  0  0
    7.6718    2.1838   21.3388 H   0  0  0  0  0  0  0  0  0  0  0  0
    6.9690    3.3747   22.9954 C   0  0  0  0  0  0  0  0  0  0  0  0
    7.1197    4.3219   22.4836 H   0  0  0  0  0  0  0  0  0  0  0  0
    6.4651    3.3512   24.3013 C   0  0  0  0  0  0  0  0  0  0  0  0
    6.2089    4.2694   24.8140 H   0  0  0  0  0  0  0  0  0  0  0  0
    6.2815    2.1241   24.9498 C   0  0  0  0  0  0  0  0  0  0  0  0
    5.8039    1.9736   26.2111 O   0  0  0  0  0  0  0  0  0  0  0  0
    5.4504    3.1086   26.9685 C   0  0  0  0  0  0  0  0  0  0  0  0
    4.6448    3.6775   26.4816 H   0  0  0  0  0  0  0  0  0  0  0  0
    6.3144    3.7721   27.1201 H   0  0  0  0  0  0  0  0  0  0  0  0
    5.1079    2.7071   27.9249 H   0  0  0  0  0  0  0  0  0  0  0  0
    6.5979    0.9283   24.3033 C   0  0  0  0  0  0  0  0  0  0  0  0
    6.4507   -0.0037   24.8416 H   0  0  0  0  0  0  0  0  0  0  0  0
    9.0692   -1.5056   24.1532 C   0  0  0  0  0  0  0  0  0  0  0  0
    8.4631   -1.7099   25.0427 H   0  0  0  0  0  0  0  0  0  0  0  0
    9.6676   -0.6092   24.3597 H   0  0  0  0  0  0  0  0  0  0  0  0
    9.9422   -2.7212   23.7249 C   0  0  0  0  0  0  0  0  0  0  0  0
    9.7579   -3.5947   24.3489 H   0  0  0  0  0  0  0  0  0  0  0  0
   11.0026   -2.4923   23.7823 H   0  0  0  0  0  0  0  0  0  0  0  0
    9.5684   -3.0515   22.2550 C   0  0  0  0  0  0  0  0  0  0  0  0
    9.1498   -4.0543   22.1457 H   0  0  0  0  0  0  0  0  0  0  0  0
   10.4033   -2.8953   21.5683 H   0  0  0  0  0  0  0  0  0  0  0  0
    5.4073    0.6303   20.1210 C   0  0  0  0  0  0  0  0  0  0  0  0
    4.9902    0.6482   21.1279 H   0  0  0  0  0  0  0  0  0  0  0  0
    4.7873    1.2990   19.0714 C   0  0  0  0  0  0  0  0  0  0  0  0
    3.8622    1.8464   19.2250 H   0  0  0  0  0  0  0  0  0  0  0  0
  1  2  1  0
  2  3  2  0
  3  4  1  0
  4  5  1  0
  4  6  2  0
  6  7  1  0
  7  8  2  0
  8  9  1  0
  9 10  1  0
 10 11  2  0
 11 12  1  0
 12 13  2  0
 13 14  1  0
 13 15  1  0
 15 16  1  0
 15 17  2  0
 17 18  1  0
 17 19  1  0
 19 20  1  0
 20 21  1  0
 21 22  1  0
 21 23  1  0
 21 24  1  0
 19 25  2  0
 25 26  1  0
 10 27  1  0
 27 28  1  0
 27 29  1  0
 27 30  1  0
 30 31  1  0
 30 32  1  0
 30 33  1  0
 33 34  1  0
 33 35  1  0
  6 36  1  0
 36 37  1  0
 36 38  2  0
 38 39  1  0
 38  2  1  0
 11  7  1  0
 25 12  1  0
 33  9  1  0
M  END
>  <cnnaffinity>  (1) 
-5.49306

>  <filename>  (1) 
COc1cccc(-c2c(-c3cccnc3)nn3c2CCC3)c1

$$$$
