
     RDKit          3D

 41 44  0  0  0  0  0  0  0  0999 V2000
    5.0672    1.7445   16.7116 H   0  0  0  0  0  0  0  0  0  0  0  0
    5.4656    1.2266   17.5809 C   0  0  0  0  0  0  0  0  0  0  0  0
    6.6096    0.5506   17.3908 N   0  0  0  0  0  0  0  0  0  0  0  0
    7.1594   -0.0442   18.4556 C   0  0  0  0  0  0  0  0  0  0  0  0
    8.0775   -0.6003   18.2717 H   0  0  0  0  0  0  0  0  0  0  0  0
    6.6172    0.0306   19.7568 C   0  0  0  0  0  0  0  0  0  0  0  0
    7.3612   -0.4624   20.9283 C   0  0  0  0  0  0  0  0  0  0  0  0
    8.4988   -1.1367   20.7276 N   0  0  0  0  0  0  0  0  0  0  0  0
    8.9260   -1.3868   21.9717 N   0  0  0  0  0  0  0  0  0  0  0  0
    9.9750   -2.1409   22.4635 C   0  0  0  0  0  0  0  0  0  0  0  0
   10.6580   -2.6049   21.7736 H   0  0  0  0  0  0  0  0  0  0  0  0
    9.8728   -2.0694   23.8085 C   0  0  0  0  0  0  0  0  0  0  0  0
   10.4251   -2.5335   24.6077 H   0  0  0  0  0  0  0  0  0  0  0  0
    8.7877   -1.2652   24.1382 N   0  0  0  0  0  0  0  0  0  0  0  0
    8.4965   -0.9878   25.4505 N   0  0  0  0  0  0  0  0  0  0  0  0
    7.1282   -1.2547   25.9169 C   0  0  0  0  0  0  0  0  0  0  0  0
    7.2052   -1.8237   26.8488 H   0  0  0  0  0  0  0  0  0  0  0  0
    6.6237   -1.9019   25.1902 H   0  0  0  0  0  0  0  0  0  0  0  0
    6.2972    0.0150   26.1774 C   0  0  0  0  0  0  0  0  0  0  0  0
    6.0303    0.4864   25.2241 H   0  0  0  0  0  0  0  0  0  0  0  0
    5.3574   -0.2463   26.6732 H   0  0  0  0  0  0  0  0  0  0  0  0
    7.0712    1.0116   27.0441 C   0  0  0  0  0  0  0  0  0  0  0  0
    6.4626    1.9241   27.1852 H   0  0  0  0  0  0  0  0  0  0  0  0
    7.2797    0.3680   28.2956 O   0  0  0  0  0  0  0  0  0  0  0  0
    7.5791    1.2115   29.3824 C   0  0  0  0  0  0  0  0  0  0  0  0
    8.4566    1.8492   29.2024 H   0  0  0  0  0  0  0  0  0  0  0  0
    7.7910    0.5635   30.2359 H   0  0  0  0  0  0  0  0  0  0  0  0
    6.7243    1.8578   29.6341 H   0  0  0  0  0  0  0  0  0  0  0  0
    8.4030    1.3617   26.3489 C   0  0  0  0  0  0  0  0  0  0  0  0
    8.9789    2.0870   26.9314 H   0  0  0  0  0  0  0  0  0  0  0  0
    8.1843    1.8433   25.3888 H   0  0  0  0  0  0  0  0  0  0  0  0
    9.2540    0.1013   26.1010 C   0  0  0  0  0  0  0  0  0  0  0  0
    9.6483   -0.2712   27.0582 H   0  0  0  0  0  0  0  0  0  0  0  0
   10.1217    0.3652   25.4812 H   0  0  0  0  0  0  0  0  0  0  0  0
    8.1536   -0.8825   22.9570 C   0  0  0  0  0  0  0  0  0  0  0  0
    7.0599   -0.2905   22.3091 C   0  0  0  0  0  0  0  0  0  0  0  0
    6.1897    0.1695   22.7439 H   0  0  0  0  0  0  0  0  0  0  0  0
    5.3709    0.6543   19.9085 C   0  0  0  0  0  0  0  0  0  0  0  0
    4.8679    0.6653   20.8756 H   0  0  0  0  0  0  0  0  0  0  0  0
    4.7962    1.2767   18.8058 C   0  0  0  0  0  0  0  0  0  0  0  0
    3.8711    1.8342   18.8910 H   0  0  0  0  0  0  0  0  0  0  0  0
  1  2  1  0
  2  3  2  0
  3  4  1  0
  4  5  1  0
  4  6  2  0
  6  7  1  0
  7  8  2  0
  8  9  1  0
  9 10  1  0
 10 11  1  0
 10 12  2  0
 12 13  1  0
 12 14  1  0
 14 15  1  0
 15 16  1  0
 16 17  1  0
 16 18  1  0
 16 19  1  0
 19 20  1  0
 19 21  1  0
 19 22  1  0
 22 23  1  0
 22 24  1  0
 24 25  1  0
 25 26  1  0
 25 27  1  0
 25 28  1  0
 22 29  1  0
 29 30  1  0
 29 31  1  0
 29 32  1  0
 32 33  1  0
 32 34  1  0
 14 35  1  0
 35 36  2  0
 36 37  1  0
  6 38  1  0
 38 39  1  0
 38 40  2  0
 40 41  1  0
 40  2  1  0
 36  7  1  0
 35  9  1  0
 32 15  1  0
M  END
>  <cnnaffinity>  (1) 
-5.35628

>  <filename>  (1) 
COC1CCN(n2ccn3nc(-c4cccnc4)cc23)CC1

$$$$
