
     RDKit          3D

 34 35  0  0  0  0  0  0  0  0999 V2000
    4.9675    1.8078   16.9849 H   0  0  0  0  0  0  0  0  0  0  0  0
    5.4142    1.2942   17.8326 C   0  0  0  0  0  0  0  0  0  0  0  0
    6.5689    0.6533   17.5992 N   0  0  0  0  0  0  0  0  0  0  0  0
    7.1553    0.0346   18.6298 C   0  0  0  0  0  0  0  0  0  0  0  0
    8.0943   -0.4661   18.3905 H   0  0  0  0  0  0  0  0  0  0  0  0
    6.6221    0.0059   19.9268 C   0  0  0  0  0  0  0  0  0  0  0  0
    7.3287   -0.6962   21.0374 C   0  0  0  0  0  0  0  0  0  0  0  0
    6.5753   -1.2126   21.9733 N   0  0  0  0  0  0  0  0  0  0  0  0
    7.1699   -1.8902   23.0220 N   0  0  0  0  0  0  0  0  0  0  0  0
    6.2937   -2.6283   23.8974 C   0  0  0  0  0  0  0  0  0  0  0  0
    5.3790   -3.3015   23.4798 O   0  0  0  0  0  0  0  0  0  0  0  0
    6.6002   -2.4639   25.2133 N   0  0  0  0  0  0  0  0  0  0  0  0
    7.5318   -2.1207   25.3708 H   0  0  0  0  0  0  0  0  0  0  0  0
    5.8428   -3.1131   26.2757 C   0  0  0  0  0  0  0  0  0  0  0  0
    5.5556   -4.1269   25.9700 H   0  0  0  0  0  0  0  0  0  0  0  0
    6.4696   -3.2120   27.1758 H   0  0  0  0  0  0  0  0  0  0  0  0
    4.5605   -2.3369   26.6094 C   0  0  0  0  0  0  0  0  0  0  0  0
    3.9287   -2.3064   25.7172 H   0  0  0  0  0  0  0  0  0  0  0  0
    4.7997   -1.2936   26.8700 H   0  0  0  0  0  0  0  0  0  0  0  0
    3.8119   -2.9882   27.6138 O   0  0  0  0  0  0  0  0  0  0  0  0
    4.0082   -2.5395   28.9330 C   0  0  0  0  0  0  0  0  0  0  0  0
    3.6675   -1.4997   29.0662 H   0  0  0  0  0  0  0  0  0  0  0  0
    3.3971   -3.1856   29.5687 H   0  0  0  0  0  0  0  0  0  0  0  0
    5.0582   -2.6146   29.2643 H   0  0  0  0  0  0  0  0  0  0  0  0
    8.5653   -2.0860   23.1823 C   0  0  0  0  0  0  0  0  0  0  0  0
    9.0379   -2.6946   24.1310 O   0  0  0  0  0  0  0  0  0  0  0  0
    9.3600   -1.4745   22.1287 C   0  0  0  0  0  0  0  0  0  0  0  0
   10.4285   -1.6220   22.2566 H   0  0  0  0  0  0  0  0  0  0  0  0
    8.7718   -0.8035   21.0968 C   0  0  0  0  0  0  0  0  0  0  0  0
    9.3727   -0.3200   20.3339 H   0  0  0  0  0  0  0  0  0  0  0  0
    5.3942    0.6542   20.1452 C   0  0  0  0  0  0  0  0  0  0  0  0
    4.9421    0.6309   21.1366 H   0  0  0  0  0  0  0  0  0  0  0  0
    4.7888    1.3193   19.0816 C   0  0  0  0  0  0  0  0  0  0  0  0
    3.8598    1.8644   19.2088 H   0  0  0  0  0  0  0  0  0  0  0  0
  1  2  1  0
  2  3  2  0
  3  4  1  0
  4  5  1  0
  4  6  2  0
  6  7  1  0
  7  8  2  0
  8  9  1  0
  9 10  1  0
 10 11  2  0
 10 12  1  0
 12 13  1  0
 12 14  1  0
 14 15  1  0
 14 16  1  0
 14 17  1  0
 17 18  1  0
 17 19  1  0
 17 20  1  0
 20 21  1  0
 21 22  1  0
 21 23  1  0
 21 24  1  0
  9 25  1  0
 25 26  2  0
 25 27  1  0
 27 28  1  0
 27 29  2  0
 29 30  1  0
  6 31  1  0
 31 32  1  0
 31 33  2  0
 33 34  1  0
 33  2  1  0
 29  7  1  0
M  END
>  <cnnaffinity>  (1) 
-4.70822

>  <filename>  (1) 
COCCNC(=O)n1nc(-c2cccnc2)ccc1=O

$$$$
