
     RDKit          3D

 33 35  0  0  0  0  0  0  0  0999 V2000
    4.9545    1.8280   16.9698 H   0  0  0  0  0  0  0  0  0  0  0  0
    5.3993    1.2944   17.8094 C   0  0  0  0  0  0  0  0  0  0  0  0
    6.5471    0.6433   17.5615 N   0  0  0  0  0  0  0  0  0  0  0  0
    7.1343    0.0058   18.5792 C   0  0  0  0  0  0  0  0  0  0  0  0
    8.0727   -0.4991   18.3544 H   0  0  0  0  0  0  0  0  0  0  0  0
    6.6317   -0.0022   19.8866 C   0  0  0  0  0  0  0  0  0  0  0  0
    7.4099   -0.6527   20.9385 C   0  0  0  0  0  0  0  0  0  0  0  0
    7.9817   -1.8973   20.7764 N   0  0  0  0  0  0  0  0  0  0  0  0
    8.5004   -2.1505   21.9417 C   0  0  0  0  0  0  0  0  0  0  0  0
    8.4095   -1.1149   22.8171 N   0  0  0  0  0  0  0  0  0  0  0  0
    7.6788   -0.1381   22.1964 C   0  0  0  0  0  0  0  0  0  0  0  0
    7.2997    1.1140   22.9024 C   0  0  0  0  0  0  0  0  0  0  0  0
    6.9582    1.8674   22.1868 H   0  0  0  0  0  0  0  0  0  0  0  0
    8.1896    1.5398   23.3858 H   0  0  0  0  0  0  0  0  0  0  0  0
    6.2247    0.9151   23.9797 C   0  0  0  0  0  0  0  0  0  0  0  0
    5.2942    0.5740   23.5170 H   0  0  0  0  0  0  0  0  0  0  0  0
    6.5322    0.1365   24.6951 H   0  0  0  0  0  0  0  0  0  0  0  0
    5.9097    2.1332   24.6164 O   0  0  0  0  0  0  0  0  0  0  0  0
    6.6828    2.4666   25.7430 C   0  0  0  0  0  0  0  0  0  0  0  0
    6.4473    1.8241   26.6061 H   0  0  0  0  0  0  0  0  0  0  0  0
    7.7690    2.4229   25.5564 H   0  0  0  0  0  0  0  0  0  0  0  0
    6.4217    3.4957   25.9988 H   0  0  0  0  0  0  0  0  0  0  0  0
    9.0573   -1.2618   24.1042 C   0  0  0  0  0  0  0  0  0  0  0  0
    9.5635   -0.3339   24.3879 H   0  0  0  0  0  0  0  0  0  0  0  0
    8.3221   -1.4995   24.8788 H   0  0  0  0  0  0  0  0  0  0  0  0
   10.0536   -2.4128   23.8904 C   0  0  0  0  0  0  0  0  0  0  0  0
   10.9686   -2.0435   23.4186 H   0  0  0  0  0  0  0  0  0  0  0  0
   10.3055   -2.9576   24.8021 H   0  0  0  0  0  0  0  0  0  0  0  0
    9.2477   -3.5469   22.6987 S   0  0  0  0  0  0  0  0  0  0  0  0
    5.4119    0.6571   20.1228 C   0  0  0  0  0  0  0  0  0  0  0  0
    4.9621    0.6650   21.1155 H   0  0  0  0  0  0  0  0  0  0  0  0
    4.7827    1.3110   19.0640 C   0  0  0  0  0  0  0  0  0  0  0  0
    3.8549    1.8563   19.2068 H   0  0  0  0  0  0  0  0  0  0  0  0
  1  2  1  0
  2  3  2  0
  3  4  1  0
  4  5  1  0
  4  6  2  0
  6  7  1  0
  7  8  1  0
  8  9  2  0
  9 10  1  0
 10 11  1  0
 11 12  1  0
 12 13  1  0
 12 14  1  0
 12 15  1  0
 15 16  1  0
 15 17  1  0
 15 18  1  0
 18 19  1  0
 19 20  1  0
 19 21  1  0
 19 22  1  0
 10 23  1  0
 23 24  1  0
 23 25  1  0
 23 26  1  0
 26 27  1  0
 26 28  1  0
 26 29  1  0
  6 30  1  0
 30 31  1  0
 30 32  2  0
 32 33  1  0
 32  2  1  0
 11  7  2  0
 29  9  1  0
M  END
>  <cnnaffinity>  (1) 
-4.89896

>  <filename>  (1) 
COCCc1c(-c2cccnc2)nc2n1CCS2

$$$$
