
     RDKit          3D

 41 44  0  0  0  0  0  0  0  0999 V2000
    5.0149    1.8324   16.9103 H   0  0  0  0  0  0  0  0  0  0  0  0
    5.3975    1.3058   17.7827 C   0  0  0  0  0  0  0  0  0  0  0  0
    6.5476    0.6333   17.6165 N   0  0  0  0  0  0  0  0  0  0  0  0
    7.0519    0.0156   18.6921 C   0  0  0  0  0  0  0  0  0  0  0  0
    7.9824   -0.5254   18.5243 H   0  0  0  0  0  0  0  0  0  0  0  0
    6.4545    0.0056   19.9683 C   0  0  0  0  0  0  0  0  0  0  0  0
    7.2114   -0.5895   21.0886 C   0  0  0  0  0  0  0  0  0  0  0  0
    8.5684   -0.5457   21.3163 C   0  0  0  0  0  0  0  0  0  0  0  0
    8.7813   -1.1472   22.5486 C   0  0  0  0  0  0  0  0  0  0  0  0
    7.6678   -1.6039   23.0882 N   0  0  0  0  0  0  0  0  0  0  0  0
    6.7163   -1.2379   22.1878 N   0  0  0  0  0  0  0  0  0  0  0  0
    5.7676   -1.5435   22.3504 H   0  0  0  0  0  0  0  0  0  0  0  0
   10.2213   -1.1479   22.9554 C   0  0  0  0  0  0  0  0  0  0  0  0
   10.6229   -2.1647   23.0113 H   0  0  0  0  0  0  0  0  0  0  0  0
   10.3625   -0.6896   23.9404 H   0  0  0  0  0  0  0  0  0  0  0  0
   10.9120   -0.3174   21.8134 C   0  0  2  0  0  0  0  0  0  0  0  0
   11.7304   -0.9148   21.3952 H   0  0  0  0  0  0  0  0  0  0  0  0
   11.4838    0.9857   22.3301 C   0  0  0  0  0  0  0  0  0  0  0  0
   10.6335    1.9783   22.8528 C   0  0  0  0  0  0  0  0  0  0  0  0
    9.5606    1.7962   22.8640 H   0  0  0  0  0  0  0  0  0  0  0  0
   11.1361    3.1839   23.3389 C   0  0  0  0  0  0  0  0  0  0  0  0
   10.4330    3.9189   23.7344 H   0  0  0  0  0  0  0  0  0  0  0  0
   12.5234    3.4085   23.2792 C   0  0  0  0  0  0  0  0  0  0  0  0
   13.2455    4.9383   23.8197 S   0  0  0  0  0  0  0  0  0  0  0  0
   14.6751    4.7184   23.9841 O   0  0  0  0  0  0  0  0  0  0  0  0
   12.4169    5.4830   24.8881 O   0  0  0  0  0  0  0  0  0  0  0  0
   13.0967    5.9839   22.4089 C   0  0  0  0  0  0  0  0  0  0  0  0
   13.8429    5.6421   21.6927 H   0  0  0  0  0  0  0  0  0  0  0  0
   13.3373    6.9831   22.7699 H   0  0  0  0  0  0  0  0  0  0  0  0
   12.0763    5.9193   22.0263 H   0  0  0  0  0  0  0  0  0  0  0  0
   13.3871    2.4300   22.7707 C   0  0  0  0  0  0  0  0  0  0  0  0
   14.4601    2.6035   22.7019 H   0  0  0  0  0  0  0  0  0  0  0  0
   12.8615    1.2304   22.3077 C   0  0  0  0  0  0  0  0  0  0  0  0
   13.5289    0.4690   21.9109 H   0  0  0  0  0  0  0  0  0  0  0  0
    9.8361   -0.0774   20.6966 C   0  0  0  0  0  0  0  0  0  0  0  0
   10.0645   -0.6756   19.8117 H   0  0  0  0  0  0  0  0  0  0  0  0
    9.7932    0.9720   20.3689 H   0  0  0  0  0  0  0  0  0  0  0  0
    5.2248    0.6764   20.1038 C   0  0  0  0  0  0  0  0  0  0  0  0
    4.7108    0.6972   21.0654 H   0  0  0  0  0  0  0  0  0  0  0  0
    4.7015    1.3440   18.9952 C   0  0  0  0  0  0  0  0  0  0  0  0
    3.7805    1.9133   19.0646 H   0  0  0  0  0  0  0  0  0  0  0  0
  1  2  1  0
  2  3  2  0
  3  4  1  0
  4  5  1  0
  4  6  2  0
  6  7  1  0
  7  8  2  0
  8  9  1  0
  9 10  2  0
 10 11  1  0
 11 12  1  0
  9 13  1  0
 13 14  1  0
 13 15  1  0
 13 16  1  0
 16 17  1  6
 16 18  1  0
 18 19  2  0
 19 20  1  0
 19 21  1  0
 21 22  1  0
 21 23  2  0
 23 24  1  0
 24 25  2  0
 24 26  2  0
 24 27  1  0
 27 28  1  0
 27 29  1  0
 27 30  1  0
 23 31  1  0
 31 32  1  0
 31 33  2  0
 33 34  1  0
 16 35  1  0
 35 36  1  0
 35 37  1  0
  6 38  1  0
 38 39  1  0
 38 40  2  0
 40 41  1  0
 40  2  1  0
 11  7  1  0
 33 18  1  0
 35  8  1  0
M  END
>  <cnnaffinity>  (1) 
-6.32139

>  <filename>  (1) 
CS(=O)(=O)c1ccc([C@H]2Cc3n[nH]c(-c4cccnc4)c3C2)cc1

$$$$
