
     RDKit          3D

 35 38  0  0  0  0  0  0  0  0999 V2000
    4.9222    1.7806   16.9975 H   0  0  0  0  0  0  0  0  0  0  0  0
    5.4029    1.2906   17.8396 C   0  0  0  0  0  0  0  0  0  0  0  0
    6.5669    0.6761   17.5755 N   0  0  0  0  0  0  0  0  0  0  0  0
    7.1715    0.0538   18.5891 C   0  0  0  0  0  0  0  0  0  0  0  0
    8.1198   -0.4328   18.3693 H   0  0  0  0  0  0  0  0  0  0  0  0
    6.6462    0.0125   19.8943 C   0  0  0  0  0  0  0  0  0  0  0  0
    7.4035   -0.6928   20.9223 C   0  0  0  0  0  0  0  0  0  0  0  0
    8.3307   -1.5947   20.7045 N   0  0  0  0  0  0  0  0  0  0  0  0
    8.8330   -2.0327   21.9093 N   0  0  0  0  0  0  0  0  0  0  0  0
    8.2011   -1.3541   22.8269 C   0  0  0  0  0  0  0  0  0  0  0  0
    8.2467   -1.1031   24.5435 S   0  0  0  0  0  0  0  0  0  0  0  0
    7.0131    0.1660   24.3347 C   0  0  0  0  0  0  0  0  0  0  0  0
    6.5076    0.9608   25.4755 C   0  0  0  0  0  0  0  0  0  0  0  0
    6.9831    0.7335   26.7821 C   0  0  0  0  0  0  0  0  0  0  0  0
    7.7378   -0.0310   26.9884 H   0  0  0  0  0  0  0  0  0  0  0  0
    6.4887    1.5009   27.8356 C   0  0  0  0  0  0  0  0  0  0  0  0
    6.8603    1.3179   28.8388 H   0  0  0  0  0  0  0  0  0  0  0  0
    5.5278    2.4924   27.6225 C   0  0  0  0  0  0  0  0  0  0  0  0
    5.1503    3.0600   28.4726 H   0  0  0  0  0  0  0  0  0  0  0  0
    5.0570    2.7178   26.3190 C   0  0  0  0  0  0  0  0  0  0  0  0
    3.7795    3.9430   26.0270 S   0  0  0  0  0  0  0  0  0  0  0  0
    3.1462    4.2417   27.3049 O   0  0  0  0  0  0  0  0  0  0  0  0
    3.0155    3.5327   24.8547 O   0  0  0  0  0  0  0  0  0  0  0  0
    4.6530    5.4117   25.5623 C   0  0  0  0  0  0  0  0  0  0  0  0
    5.2134    5.2282   24.6498 H   0  0  0  0  0  0  0  0  0  0  0  0
    5.3020    5.7240   26.3757 H   0  0  0  0  0  0  0  0  0  0  0  0
    3.8910    6.1693   25.3824 H   0  0  0  0  0  0  0  0  0  0  0  0
    5.5398    1.9578   25.2450 C   0  0  0  0  0  0  0  0  0  0  0  0
    5.1838    2.0944   24.2231 H   0  0  0  0  0  0  0  0  0  0  0  0
    6.6124    0.3433   23.1126 N   0  0  0  0  0  0  0  0  0  0  0  0
    7.2730   -0.5132   22.2862 N   0  0  0  0  0  0  0  0  0  0  0  0
    5.4290    0.6531   20.1619 C   0  0  0  0  0  0  0  0  0  0  0  0
    5.0089    0.6391   21.1701 H   0  0  0  0  0  0  0  0  0  0  0  0
    4.8048    1.3074   19.1049 C   0  0  0  0  0  0  0  0  0  0  0  0
    3.8750    1.8427   19.2556 H   0  0  0  0  0  0  0  0  0  0  0  0
  1  2  1  0
  2  3  2  0
  3  4  1  0
  4  5  1  0
  4  6  2  0
  6  7  1  0
  7  8  2  0
  8  9  1  0
  9 10  2  0
 10 11  1  0
 11 12  1  0
 12 13  1  0
 13 14  2  0
 14 15  1  0
 14 16  1  0
 16 17  1  0
 16 18  2  0
 18 19  1  0
 18 20  1  0
 20 21  1  0
 21 22  2  0
 21 23  2  0
 21 24  1  0
 24 25  1  0
 24 26  1  0
 24 27  1  0
 20 28  2  0
 28 29  1  0
 12 30  2  0
 30 31  1  0
  6 32  1  0
 32 33  1  0
 32 34  2  0
 34 35  1  0
 34  2  1  0
 31  7  1  0
 31 10  1  0
 28 13  1  0
M  END
>  <cnnaffinity>  (1) 
-5.50473

>  <filename>  (1) 
CS(=O)(=O)c1cccc(-c2nn3c(-c4cccnc4)nnc3s2)c1

$$$$
