
     RDKit          3D

 36 39  0  0  0  0  0  0  0  0999 V2000
    4.9433    1.7792   16.9768 H   0  0  0  0  0  0  0  0  0  0  0  0
    5.4026    1.2908   17.8337 C   0  0  0  0  0  0  0  0  0  0  0  0
    6.5644    0.6626   17.6003 N   0  0  0  0  0  0  0  0  0  0  0  0
    7.1575    0.0829   18.6479 C   0  0  0  0  0  0  0  0  0  0  0  0
    8.1030   -0.4119   18.4313 H   0  0  0  0  0  0  0  0  0  0  0  0
    6.6518    0.0989   19.9645 C   0  0  0  0  0  0  0  0  0  0  0  0
    7.4239   -0.5899   21.0132 C   0  0  0  0  0  0  0  0  0  0  0  0
    8.2774   -1.6242   20.8540 C   0  0  0  0  0  0  0  0  0  0  0  0
    8.6714   -2.0037   19.9316 H   0  0  0  0  0  0  0  0  0  0  0  0
    8.8586   -2.2916   22.3484 S   0  0  0  0  0  0  0  0  0  0  0  0
    8.0667   -1.0169   23.2084 C   0  0  0  0  0  0  0  0  0  0  0  0
    8.0990   -0.5111   24.4162 N   0  0  0  0  0  0  0  0  0  0  0  0
    7.3453    0.6142   24.2575 C   0  0  0  0  0  0  0  0  0  0  0  0
    7.1083    1.5629   25.3487 C   0  0  0  0  0  0  0  0  0  0  0  0
    7.6452    1.3270   26.6266 C   0  0  0  0  0  0  0  0  0  0  0  0
    8.2571    0.4392   26.7997 H   0  0  0  0  0  0  0  0  0  0  0  0
    7.3811    2.2298   27.6560 C   0  0  0  0  0  0  0  0  0  0  0  0
    7.7836    2.0418   28.6451 H   0  0  0  0  0  0  0  0  0  0  0  0
    6.5857    3.3581   27.4324 C   0  0  0  0  0  0  0  0  0  0  0  0
    6.3536    4.0407   28.2502 H   0  0  0  0  0  0  0  0  0  0  0  0
    6.0571    3.5727   26.1503 C   0  0  0  0  0  0  0  0  0  0  0  0
    5.0099    4.9835   25.8451 S   0  0  0  0  0  0  0  0  0  0  0  0
    4.5323    5.4891   27.1264 O   0  0  0  0  0  0  0  0  0  0  0  0
    4.0947    4.6863   24.7507 O   0  0  0  0  0  0  0  0  0  0  0  0
    6.1172    6.2019   25.2288 C   0  0  0  0  0  0  0  0  0  0  0  0
    5.4726    7.0606   25.0639 H   0  0  0  0  0  0  0  0  0  0  0  0
    6.8756    6.4178   25.9750 H   0  0  0  0  0  0  0  0  0  0  0  0
    6.5565    5.8673   24.2928 H   0  0  0  0  0  0  0  0  0  0  0  0
    6.3196    2.6943   25.0980 C   0  0  0  0  0  0  0  0  0  0  0  0
    5.9081    2.8337   24.0963 H   0  0  0  0  0  0  0  0  0  0  0  0
    6.8551    0.8164   23.0370 N   0  0  0  0  0  0  0  0  0  0  0  0
    7.3239   -0.2661   22.3691 N   0  0  0  0  0  0  0  0  0  0  0  0
    5.4172    0.7408   20.1833 C   0  0  0  0  0  0  0  0  0  0  0  0
    4.9821    0.7760   21.1856 H   0  0  0  0  0  0  0  0  0  0  0  0
    4.7874    1.3364   19.0900 C   0  0  0  0  0  0  0  0  0  0  0  0
    3.8380    1.8473   19.2002 H   0  0  0  0  0  0  0  0  0  0  0  0
  1  2  1  0
  2  3  2  0
  3  4  1  0
  4  5  1  0
  4  6  2  0
  6  7  1  0
  7  8  2  0
  8  9  1  0
  8 10  1  0
 10 11  1  0
 11 12  2  0
 12 13  1  0
 13 14  1  0
 14 15  2  0
 15 16  1  0
 15 17  1  0
 17 18  1  0
 17 19  2  0
 19 20  1  0
 19 21  1  0
 21 22  1  0
 22 23  2  0
 22 24  2  0
 22 25  1  0
 25 26  1  0
 25 27  1  0
 25 28  1  0
 21 29  2  0
 29 30  1  0
 13 31  2  0
 31 32  1  0
  6 33  1  0
 33 34  1  0
 33 35  2  0
 35 36  1  0
 35  2  1  0
 32  7  1  0
 32 11  1  0
 29 14  1  0
M  END
>  <cnnaffinity>  (1) 
-5.43579

>  <filename>  (1) 
CS(=O)(=O)c1cccc(-c2nc3scc(-c4cccnc4)n3n2)c1

$$$$
