
     RDKit          3D

 37 39  0  0  0  0  0  0  0  0999 V2000
    4.9079    1.8068   16.9765 H   0  0  0  0  0  0  0  0  0  0  0  0
    5.3798    1.3063   17.8187 C   0  0  0  0  0  0  0  0  0  0  0  0
    6.5391    0.6859   17.5471 N   0  0  0  0  0  0  0  0  0  0  0  0
    7.1468    0.0679   18.5662 C   0  0  0  0  0  0  0  0  0  0  0  0
    8.1076   -0.4061   18.3611 H   0  0  0  0  0  0  0  0  0  0  0  0
    6.6334    0.0011   19.8801 C   0  0  0  0  0  0  0  0  0  0  0  0
    7.3399   -0.7212   20.9610 C   0  0  0  0  0  0  0  0  0  0  0  0
    6.6939   -1.6254   21.7386 C   0  0  0  0  0  0  0  0  0  0  0  0
    5.6407   -1.8536   21.5953 H   0  0  0  0  0  0  0  0  0  0  0  0
    7.3204   -2.3264   22.7582 N   0  0  0  0  0  0  0  0  0  0  0  0
    6.5756   -3.2822   23.5469 C   0  0  0  0  0  0  0  0  0  0  0  0
    5.9062   -4.3333   22.9108 C   0  0  0  0  0  0  0  0  0  0  0  0
    5.9678   -4.4145   21.8301 H   0  0  0  0  0  0  0  0  0  0  0  0
    5.1934   -5.2628   23.6737 C   0  0  0  0  0  0  0  0  0  0  0  0
    4.6764   -6.0768   23.1778 H   0  0  0  0  0  0  0  0  0  0  0  0
    5.1231   -5.1453   25.0624 C   0  0  0  0  0  0  0  0  0  0  0  0
    4.5405   -5.8684   25.6321 H   0  0  0  0  0  0  0  0  0  0  0  0
    5.7884   -4.0800   25.6922 C   0  0  0  0  0  0  0  0  0  0  0  0
    5.6811   -3.8900   27.4739 S   0  0  0  0  0  0  0  0  0  0  0  0
    4.5462   -4.6706   27.9481 O   0  0  0  0  0  0  0  0  0  0  0  0
    5.8278   -2.4744   27.7860 O   0  0  0  0  0  0  0  0  0  0  0  0
    7.1131   -4.6849   28.1208 C   0  0  0  0  0  0  0  0  0  0  0  0
    7.0208   -4.5826   29.2016 H   0  0  0  0  0  0  0  0  0  0  0  0
    7.9876   -4.1602   27.7444 H   0  0  0  0  0  0  0  0  0  0  0  0
    7.0811   -5.7322   27.8359 H   0  0  0  0  0  0  0  0  0  0  0  0
    6.5165   -3.1444   24.9363 C   0  0  0  0  0  0  0  0  0  0  0  0
    7.0389   -2.2983   25.3760 H   0  0  0  0  0  0  0  0  0  0  0  0
    8.6819   -2.1126   23.0363 C   0  0  0  0  0  0  0  0  0  0  0  0
    9.3294   -2.6743   23.8897 O   0  0  0  0  0  0  0  0  0  0  0  0
    9.2865   -1.1939   22.2531 N   0  0  0  0  0  0  0  0  0  0  0  0
   10.2502   -1.0357   22.4577 H   0  0  0  0  0  0  0  0  0  0  0  0
    8.7699   -0.4458   21.2356 C   0  0  0  0  0  0  0  0  0  0  0  0
    9.5209    0.3366   20.6890 O   0  0  0  0  0  0  0  0  0  0  0  0
    5.4163    0.6474   20.1335 C   0  0  0  0  0  0  0  0  0  0  0  0
    5.0057    0.6419   21.1445 H   0  0  0  0  0  0  0  0  0  0  0  0
    4.7885    1.3221   19.0871 C   0  0  0  0  0  0  0  0  0  0  0  0
    3.8618    1.8586   19.2408 H   0  0  0  0  0  0  0  0  0  0  0  0
  1  2  1  0
  2  3  2  0
  3  4  1  0
  4  5  1  0
  4  6  2  0
  6  7  1  0
  7  8  2  0
  8  9  1  0
  8 10  1  0
 10 11  1  0
 11 12  2  0
 12 13  1  0
 12 14  1  0
 14 15  1  0
 14 16  2  0
 16 17  1  0
 16 18  1  0
 18 19  1  0
 19 20  2  0
 19 21  2  0
 19 22  1  0
 22 23  1  0
 22 24  1  0
 22 25  1  0
 18 26  2  0
 26 27  1  0
 10 28  1  0
 28 29  2  0
 28 30  1  0
 30 31  1  0
 30 32  1  0
 32 33  2  0
  6 34  1  0
 34 35  1  0
 34 36  2  0
 36 37  1  0
 36  2  1  0
 32  7  1  0
 26 11  1  0
M  END
>  <cnnaffinity>  (1) 
-5.4307

>  <filename>  (1) 
CS(=O)(=O)c1cccc(-n2cc(-c3cccnc3)c(=O)[nH]c2=O)c1

$$$$
