
     RDKit          3D

 30 32  0  0  0  0  0  0  0  0999 V2000
    5.0089    1.7928   16.8990 H   0  0  0  0  0  0  0  0  0  0  0  0
    5.4386    1.2767   17.7563 C   0  0  0  0  0  0  0  0  0  0  0  0
    6.5845    0.6162   17.5291 N   0  0  0  0  0  0  0  0  0  0  0  0
    7.1525   -0.0114   18.5637 C   0  0  0  0  0  0  0  0  0  0  0  0
    8.0802   -0.5404   18.3513 H   0  0  0  0  0  0  0  0  0  0  0  0
    6.6213   -0.0085   19.8706 C   0  0  0  0  0  0  0  0  0  0  0  0
    7.3798   -0.5960   20.9884 C   0  0  0  0  0  0  0  0  0  0  0  0
    8.5246   -1.2621   20.7628 N   0  0  0  0  0  0  0  0  0  0  0  0
    8.9358   -1.5608   22.0058 N   0  0  0  0  0  0  0  0  0  0  0  0
   10.0765   -2.1534   22.5143 C   0  0  0  0  0  0  0  0  0  0  0  0
   10.8109   -2.5573   21.8426 H   0  0  0  0  0  0  0  0  0  0  0  0
    9.9774   -2.0520   23.8644 C   0  0  0  0  0  0  0  0  0  0  0  0
   10.6252   -2.3413   24.6752 H   0  0  0  0  0  0  0  0  0  0  0  0
    8.7875   -1.4249   24.1757 N   0  0  0  0  0  0  0  0  0  0  0  0
    8.4667   -1.1207   25.5267 N   0  0  0  0  0  0  0  0  0  0  0  0
    8.6512   -0.1237   25.6400 H   0  0  0  0  0  0  0  0  0  0  0  0
    6.7858   -0.8008   25.7116 S   0  0  0  0  0  0  0  0  0  0  0  0
    6.7467    0.6032   25.3287 O   0  0  0  0  0  0  0  0  0  0  0  0
    5.9634   -1.8253   25.1337 O   0  0  0  0  0  0  0  0  0  0  0  0
    6.6815   -0.9093   27.4423 C   0  0  0  0  0  0  0  0  0  0  0  0
    5.6304   -0.7862   27.6911 H   0  0  0  0  0  0  0  0  0  0  0  0
    7.0473   -1.8943   27.7172 H   0  0  0  0  0  0  0  0  0  0  0  0
    7.2854   -0.1060   27.8578 H   0  0  0  0  0  0  0  0  0  0  0  0
    8.1390   -1.1034   22.9957 C   0  0  0  0  0  0  0  0  0  0  0  0
    7.0717   -0.4719   22.3642 C   0  0  0  0  0  0  0  0  0  0  0  0
    6.2327   -0.0051   22.8477 H   0  0  0  0  0  0  0  0  0  0  0  0
    5.3897    0.6377   20.0744 C   0  0  0  0  0  0  0  0  0  0  0  0
    4.9041    0.6309   21.0539 H   0  0  0  0  0  0  0  0  0  0  0  0
    4.7988    1.3008   19.0009 C   0  0  0  0  0  0  0  0  0  0  0  0
    3.8695    1.8483   19.1146 H   0  0  0  0  0  0  0  0  0  0  0  0
  1  2  1  0
  2  3  2  0
  3  4  1  0
  4  5  1  0
  4  6  2  0
  6  7  1  0
  7  8  2  0
  8  9  1  0
  9 10  1  0
 10 11  1  0
 10 12  2  0
 12 13  1  0
 12 14  1  0
 14 15  1  0
 15 16  1  0
 15 17  1  0
 17 18  2  0
 17 19  2  0
 17 20  1  0
 20 21  1  0
 20 22  1  0
 20 23  1  0
 14 24  1  0
 24 25  2  0
 25 26  1  0
  6 27  1  0
 27 28  1  0
 27 29  2  0
 29 30  1  0
 29  2  1  0
 25  7  1  0
 24  9  1  0
M  END
>  <cnnaffinity>  (1) 
-4.90083

>  <filename>  (1) 
CS(=O)(=O)Nn1ccn2nc(-c3cccnc3)cc12

$$$$
