
     RDKit          3D

 24 25  0  0  0  0  0  0  0  0999 V2000
    4.9256    1.7853   16.9976 H   0  0  0  0  0  0  0  0  0  0  0  0
    5.4052    1.2885   17.8386 C   0  0  0  0  0  0  0  0  0  0  0  0
    6.5673    0.6732   17.5750 N   0  0  0  0  0  0  0  0  0  0  0  0
    7.1827    0.0532   18.5866 C   0  0  0  0  0  0  0  0  0  0  0  0
    8.1294   -0.4266   18.3496 H   0  0  0  0  0  0  0  0  0  0  0  0
    6.6743   -0.0003   19.8972 C   0  0  0  0  0  0  0  0  0  0  0  0
    7.4094   -0.7049   20.9615 C   0  0  0  0  0  0  0  0  0  0  0  0
    8.5428   -1.3659   20.7498 N   0  0  0  0  0  0  0  0  0  0  0  0
    8.9075   -1.8676   21.9327 N   0  0  0  0  0  0  0  0  0  0  0  0
    9.7594   -2.4242   21.9589 H   0  0  0  0  0  0  0  0  0  0  0  0
    8.0257   -1.5422   22.9153 C   0  0  0  0  0  0  0  0  0  0  0  0
    8.1558   -2.0790   24.6154 S   0  0  0  0  0  0  0  0  0  0  0  0
    9.0603   -3.2193   24.6259 O   0  0  0  0  0  0  0  0  0  0  0  0
    6.8173   -2.1145   25.1779 O   0  0  0  0  0  0  0  0  0  0  0  0
    8.9949   -0.7565   25.4195 C   0  0  0  0  0  0  0  0  0  0  0  0
    8.3893    0.1382   25.3120 H   0  0  0  0  0  0  0  0  0  0  0  0
    9.9766   -0.6578   24.9682 H   0  0  0  0  0  0  0  0  0  0  0  0
    9.0642   -1.0580   26.4631 H   0  0  0  0  0  0  0  0  0  0  0  0
    7.0421   -0.7891   22.3184 C   0  0  0  0  0  0  0  0  0  0  0  0
    6.1606   -0.3666   22.7779 H   0  0  0  0  0  0  0  0  0  0  0  0
    5.4526    0.6447   20.1528 C   0  0  0  0  0  0  0  0  0  0  0  0
    5.0102    0.6360   21.1511 H   0  0  0  0  0  0  0  0  0  0  0  0
    4.8151    1.3030   19.1060 C   0  0  0  0  0  0  0  0  0  0  0  0
    3.8849    1.8336   19.2587 H   0  0  0  0  0  0  0  0  0  0  0  0
  1  2  1  0
  2  3  2  0
  3  4  1  0
  4  5  1  0
  4  6  2  0
  6  7  1  0
  7  8  2  0
  8  9  1  0
  9 10  1  0
  9 11  1  0
 11 12  1  0
 12 13  2  0
 12 14  2  0
 12 15  1  0
 15 16  1  0
 15 17  1  0
 15 18  1  0
 11 19  2  0
 19 20  1  0
  6 21  1  0
 21 22  1  0
 21 23  2  0
 23 24  1  0
 23  2  1  0
 19  7  1  0
M  END
>  <cnnaffinity>  (1) 
-4.32432

>  <filename>  (1) 
CS(=O)(=O)c1cc(-c2cccnc2)n[nH]1

$$$$
