
     RDKit          3D

 36 39  0  0  0  0  0  0  0  0999 V2000
    4.9296    1.7728   17.0025 H   0  0  0  0  0  0  0  0  0  0  0  0
    5.4095    1.2852   17.8470 C   0  0  0  0  0  0  0  0  0  0  0  0
    6.5740    0.6667   17.5958 N   0  0  0  0  0  0  0  0  0  0  0  0
    7.1791    0.0529   18.6173 C   0  0  0  0  0  0  0  0  0  0  0  0
    8.1256   -0.4324   18.3860 H   0  0  0  0  0  0  0  0  0  0  0  0
    6.6446    0.0165   19.9135 C   0  0  0  0  0  0  0  0  0  0  0  0
    7.3647   -0.6889   20.9682 C   0  0  0  0  0  0  0  0  0  0  0  0
    8.5477   -1.3280   20.7555 N   0  0  0  0  0  0  0  0  0  0  0  0
    8.8022   -1.8178   21.9482 C   0  0  0  0  0  0  0  0  0  0  0  0
    9.9961   -2.8146   22.7272 S   0  0  0  0  0  0  0  0  0  0  0  0
    9.0783   -2.7641   24.2045 C   0  0  0  0  0  0  0  0  0  0  0  0
    9.4622   -3.2839   25.0701 H   0  0  0  0  0  0  0  0  0  0  0  0
    7.9537   -2.0170   24.1227 C   0  0  0  0  0  0  0  0  0  0  0  0
    6.9655   -1.7571   25.2009 C   0  0  0  0  0  0  0  0  0  0  0  0
    6.2426   -0.5509   25.2955 C   0  0  0  0  0  0  0  0  0  0  0  0
    6.3961    0.2077   24.5334 H   0  0  0  0  0  0  0  0  0  0  0  0
    5.3347   -0.3410   26.3305 C   0  0  0  0  0  0  0  0  0  0  0  0
    4.7785    0.5948   26.3448 H   0  0  0  0  0  0  0  0  0  0  0  0
    5.1352   -1.3343   27.3064 C   0  0  0  0  0  0  0  0  0  0  0  0
    3.9233   -1.0889   28.6046 S   0  0  0  0  0  0  0  0  0  0  0  0
    2.9630   -0.0943   28.1428 O   0  0  0  0  0  0  0  0  0  0  0  0
    3.5132   -2.4007   29.0931 O   0  0  0  0  0  0  0  0  0  0  0  0
    4.8234   -0.3255   29.9280 C   0  0  0  0  0  0  0  0  0  0  0  0
    5.6127   -0.9912   30.2684 H   0  0  0  0  0  0  0  0  0  0  0  0
    4.1037   -0.1673   30.7298 H   0  0  0  0  0  0  0  0  0  0  0  0
    5.2244    0.6289   29.5965 H   0  0  0  0  0  0  0  0  0  0  0  0
    5.8521   -2.5410   27.2355 C   0  0  0  0  0  0  0  0  0  0  0  0
    5.7138   -3.3378   27.9667 H   0  0  0  0  0  0  0  0  0  0  0  0
    6.7562   -2.7371   26.1946 C   0  0  0  0  0  0  0  0  0  0  0  0
    7.3019   -3.6764   26.1404 H   0  0  0  0  0  0  0  0  0  0  0  0
    7.8375   -1.4846   22.8326 N   0  0  0  0  0  0  0  0  0  0  0  0
    6.8877   -0.7515   22.2076 N   0  0  0  0  0  0  0  0  0  0  0  0
    5.4240    0.6594   20.1691 C   0  0  0  0  0  0  0  0  0  0  0  0
    4.9970    0.6358   21.1775 H   0  0  0  0  0  0  0  0  0  0  0  0
    4.8044    1.3101   19.1088 C   0  0  0  0  0  0  0  0  0  0  0  0
    3.8741    1.8431   19.2565 H   0  0  0  0  0  0  0  0  0  0  0  0
  1  2  1  0
  2  3  2  0
  3  4  1  0
  4  5  1  0
  4  6  2  0
  6  7  1  0
  7  8  1  0
  8  9  2  0
  9 10  1  0
 10 11  1  0
 11 12  1  0
 11 13  2  0
 13 14  1  0
 14 15  2  0
 15 16  1  0
 15 17  1  0
 17 18  1  0
 17 19  2  0
 19 20  1  0
 20 21  2  0
 20 22  2  0
 20 23  1  0
 23 24  1  0
 23 25  1  0
 23 26  1  0
 19 27  1  0
 27 28  1  0
 27 29  2  0
 29 30  1  0
 13 31  1  0
 31 32  1  0
  6 33  1  0
 33 34  1  0
 33 35  2  0
 35 36  1  0
 35  2  1  0
 32  7  2  0
 31  9  1  0
 29 14  1  0
M  END
>  <cnnaffinity>  (1) 
-5.67199

>  <filename>  (1) 
CS(=O)(=O)c1ccc(-c2csc3nc(-c4cccnc4)nn23)cc1

$$$$
