
     RDKit          3D

 37 40  0  0  0  0  0  0  0  0999 V2000
    4.9436    1.7980   16.9837 H   0  0  0  0  0  0  0  0  0  0  0  0
    5.4041    1.2891   17.8295 C   0  0  0  0  0  0  0  0  0  0  0  0
    6.5644    0.6611   17.5807 N   0  0  0  0  0  0  0  0  0  0  0  0
    7.1600    0.0309   18.5965 C   0  0  0  0  0  0  0  0  0  0  0  0
    8.1074   -0.4524   18.3649 H   0  0  0  0  0  0  0  0  0  0  0  0
    6.6446   -0.0013   19.9021 C   0  0  0  0  0  0  0  0  0  0  0  0
    7.3816   -0.6790   20.9615 C   0  0  0  0  0  0  0  0  0  0  0  0
    8.0451   -1.8574   20.7334 N   0  0  0  0  0  0  0  0  0  0  0  0
    8.4638   -2.2095   21.9197 C   0  0  0  0  0  0  0  0  0  0  0  0
    9.3635   -3.5315   22.5943 S   0  0  0  0  0  0  0  0  0  0  0  0
    9.4299   -2.7375   24.1447 C   0  0  0  0  0  0  0  0  0  0  0  0
    9.9998   -3.2071   24.9367 H   0  0  0  0  0  0  0  0  0  0  0  0
    8.7383   -1.5869   24.1500 C   0  0  0  0  0  0  0  0  0  0  0  0
    8.5804   -0.8676   24.9466 H   0  0  0  0  0  0  0  0  0  0  0  0
    8.1630   -1.3184   22.9109 N   0  0  0  0  0  0  0  0  0  0  0  0
    7.4765   -0.2911   22.2987 C   0  0  0  0  0  0  0  0  0  0  0  0
    7.0884    0.9277   22.9925 C   0  0  0  0  0  0  0  0  0  0  0  0
    7.3011    2.1735   22.3812 C   0  0  0  0  0  0  0  0  0  0  0  0
    7.7456    2.2015   21.3923 H   0  0  0  0  0  0  0  0  0  0  0  0
    6.9158    3.3485   23.0199 C   0  0  0  0  0  0  0  0  0  0  0  0
    7.0762    4.3001   22.5261 H   0  0  0  0  0  0  0  0  0  0  0  0
    6.3101    3.3091   24.2752 C   0  0  0  0  0  0  0  0  0  0  0  0
    5.9936    4.2381   24.7504 H   0  0  0  0  0  0  0  0  0  0  0  0
    6.0986    2.0633   24.8899 C   0  0  0  0  0  0  0  0  0  0  0  0
    5.2840    1.9815   26.4822 S   0  0  0  0  0  0  0  0  0  0  0  0
    4.7319    3.2949   26.7873 O   0  0  0  0  0  0  0  0  0  0  0  0
    4.4790    0.7683   26.5301 O   0  0  0  0  0  0  0  0  0  0  0  0
    6.5749    1.7301   27.6461 C   0  0  0  0  0  0  0  0  0  0  0  0
    7.0489    0.7790   27.4136 H   0  0  0  0  0  0  0  0  0  0  0  0
    6.0493    1.6886   28.5994 H   0  0  0  0  0  0  0  0  0  0  0  0
    7.2433    2.5851   27.5862 H   0  0  0  0  0  0  0  0  0  0  0  0
    6.4702    0.8744   24.2515 C   0  0  0  0  0  0  0  0  0  0  0  0
    6.2521   -0.1102   24.6631 H   0  0  0  0  0  0  0  0  0  0  0  0
    5.4215    0.6489   20.1437 C   0  0  0  0  0  0  0  0  0  0  0  0
    4.9900    0.6599   21.1458 H   0  0  0  0  0  0  0  0  0  0  0  0
    4.7949    1.3057   19.0893 C   0  0  0  0  0  0  0  0  0  0  0  0
    3.8645    1.8469   19.2308 H   0  0  0  0  0  0  0  0  0  0  0  0
  1  2  1  0
  2  3  2  0
  3  4  1  0
  4  5  1  0
  4  6  2  0
  6  7  1  0
  7  8  1  0
  8  9  2  0
  9 10  1  0
 10 11  1  0
 11 12  1  0
 11 13  2  0
 13 14  1  0
 13 15  1  0
 15 16  1  0
 16 17  1  0
 17 18  2  0
 18 19  1  0
 18 20  1  0
 20 21  1  0
 20 22  2  0
 22 23  1  0
 22 24  1  0
 24 25  1  0
 25 26  2  0
 25 27  2  0
 25 28  1  0
 28 29  1  0
 28 30  1  0
 28 31  1  0
 24 32  2  0
 32 33  1  0
  6 34  1  0
 34 35  1  0
 34 36  2  0
 36 37  1  0
 36  2  1  0
 16  7  2  0
 32 17  1  0
 15  9  1  0
M  END
>  <cnnaffinity>  (1) 
-5.70284

>  <filename>  (1) 
CS(=O)(=O)c1cccc(-c2c(-c3cccnc3)nc3sccn23)c1

$$$$
