
     RDKit          3D

 41 44  0  0  0  0  0  0  0  0999 V2000
    4.9429    1.8134   16.9809 H   0  0  0  0  0  0  0  0  0  0  0  0
    5.4043    1.2937   17.8189 C   0  0  0  0  0  0  0  0  0  0  0  0
    6.5649    0.6684   17.5632 N   0  0  0  0  0  0  0  0  0  0  0  0
    7.1556    0.0251   18.5744 C   0  0  0  0  0  0  0  0  0  0  0  0
    8.1082   -0.4504   18.3409 H   0  0  0  0  0  0  0  0  0  0  0  0
    6.6276   -0.0244   19.8772 C   0  0  0  0  0  0  0  0  0  0  0  0
    7.3597   -0.6875   20.9557 C   0  0  0  0  0  0  0  0  0  0  0  0
    8.0748   -1.7865   20.7321 N   0  0  0  0  0  0  0  0  0  0  0  0
    8.5513   -2.0940   21.9377 N   0  0  0  0  0  0  0  0  0  0  0  0
    8.2260   -1.2597   22.9179 C   0  0  0  0  0  0  0  0  0  0  0  0
    7.4478   -0.2846   22.3266 C   0  0  0  0  0  0  0  0  0  0  0  0
    7.0708    0.9599   22.9700 C   0  0  0  0  0  0  0  0  0  0  0  0
    7.2653    2.1903   22.3267 C   0  0  0  0  0  0  0  0  0  0  0  0
    7.6782    2.2028   21.3236 H   0  0  0  0  0  0  0  0  0  0  0  0
    6.9533    3.3780   22.9669 C   0  0  0  0  0  0  0  0  0  0  0  0
    7.1359    4.3185   22.4501 H   0  0  0  0  0  0  0  0  0  0  0  0
    6.4294    3.3284   24.2705 C   0  0  0  0  0  0  0  0  0  0  0  0
    6.0466    4.8535   25.1082 S   0  0  0  0  0  0  0  0  0  0  0  0
    6.0376    4.6061   26.5480 O   0  0  0  0  0  0  0  0  0  0  0  0
    6.8325    5.9278   24.5137 O   0  0  0  0  0  0  0  0  0  0  0  0
    4.3789    5.2039   24.6882 C   0  0  0  0  0  0  0  0  0  0  0  0
    4.1971    6.1384   25.2184 H   0  0  0  0  0  0  0  0  0  0  0  0
    4.3362    5.3335   23.6070 H   0  0  0  0  0  0  0  0  0  0  0  0
    3.7685    4.3887   25.0733 H   0  0  0  0  0  0  0  0  0  0  0  0
    6.2577    2.1059   24.9406 C   0  0  0  0  0  0  0  0  0  0  0  0
    5.8954    2.0598   25.9666 H   0  0  0  0  0  0  0  0  0  0  0  0
    6.5860    0.9304   24.2815 C   0  0  0  0  0  0  0  0  0  0  0  0
    6.4645   -0.0265   24.7793 H   0  0  0  0  0  0  0  0  0  0  0  0
    9.0686   -1.5048   24.1428 C   0  0  0  0  0  0  0  0  0  0  0  0
    9.6622   -0.6071   24.3464 H   0  0  0  0  0  0  0  0  0  0  0  0
    8.4601   -1.7035   25.0296 H   0  0  0  0  0  0  0  0  0  0  0  0
    9.9416   -2.7195   23.7229 C   0  0  0  0  0  0  0  0  0  0  0  0
    9.7566   -3.5898   24.3499 H   0  0  0  0  0  0  0  0  0  0  0  0
   11.0004   -2.4901   23.7859 H   0  0  0  0  0  0  0  0  0  0  0  0
    9.5742   -3.0516   22.2531 C   0  0  0  0  0  0  0  0  0  0  0  0
    9.1667   -4.0586   22.1468 H   0  0  0  0  0  0  0  0  0  0  0  0
   10.4111   -2.8900   21.5700 H   0  0  0  0  0  0  0  0  0  0  0  0
    5.4121    0.6289   20.1234 C   0  0  0  0  0  0  0  0  0  0  0  0
    4.9937    0.6471   21.1305 H   0  0  0  0  0  0  0  0  0  0  0  0
    4.7900    1.3000   19.0764 C   0  0  0  0  0  0  0  0  0  0  0  0
    3.8646    1.8459   19.2296 H   0  0  0  0  0  0  0  0  0  0  0  0
  1  2  1  0
  2  3  2  0
  3  4  1  0
  4  5  1  0
  4  6  2  0
  6  7  1  0
  7  8  2  0
  8  9  1  0
  9 10  1  0
 10 11  2  0
 11 12  1  0
 12 13  2  0
 13 14  1  0
 13 15  1  0
 15 16  1  0
 15 17  2  0
 17 18  1  0
 18 19  2  0
 18 20  2  0
 18 21  1  0
 21 22  1  0
 21 23  1  0
 21 24  1  0
 17 25  1  0
 25 26  1  0
 25 27  2  0
 27 28  1  0
 10 29  1  0
 29 30  1  0
 29 31  1  0
 29 32  1  0
 32 33  1  0
 32 34  1  0
 32 35  1  0
 35 36  1  0
 35 37  1  0
  6 38  1  0
 38 39  1  0
 38 40  2  0
 40 41  1  0
 40  2  1  0
 11  7  1  0
 27 12  1  0
 35  9  1  0
M  END
>  <cnnaffinity>  (1) 
-5.61731

>  <filename>  (1) 
CS(=O)(=O)c1ccc(-c2c(-c3cccnc3)nn3c2CCC3)cc1

$$$$
