
     RDKit          3D

 29 30  0  0  0  0  0  0  0  0999 V2000
    4.9172    1.8060   16.9900 H   0  0  0  0  0  0  0  0  0  0  0  0
    5.3965    1.3029   17.8313 C   0  0  0  0  0  0  0  0  0  0  0  0
    6.5556    0.6814   17.5688 N   0  0  0  0  0  0  0  0  0  0  0  0
    7.1761    0.0616   18.5796 C   0  0  0  0  0  0  0  0  0  0  0  0
    8.1094   -0.4383   18.3321 H   0  0  0  0  0  0  0  0  0  0  0  0
    6.6773    0.0104   19.9012 C   0  0  0  0  0  0  0  0  0  0  0  0
    7.3398   -0.6867   20.9662 N   0  0  0  0  0  0  0  0  0  0  0  0
    6.8033   -1.6463   21.7919 C   0  0  0  0  0  0  0  0  0  0  0  0
    5.7855   -1.9948   21.7032 H   0  0  0  0  0  0  0  0  0  0  0  0
    7.6846   -2.0976   22.6390 N   0  0  0  0  0  0  0  0  0  0  0  0
    8.8474   -1.4023   22.4035 N   0  0  0  0  0  0  0  0  0  0  0  0
    8.6331   -0.5625   21.4306 C   0  0  0  0  0  0  0  0  0  0  0  0
    9.5630    0.5110   20.9342 C   0  0  0  0  0  0  0  0  0  0  0  0
    9.6425    0.3854   19.8508 H   0  0  0  0  0  0  0  0  0  0  0  0
   10.5487    0.3251   21.3704 H   0  0  0  0  0  0  0  0  0  0  0  0
    9.1113    1.9661   21.2044 C   0  0  0  0  0  0  0  0  0  0  0  0
    9.8692    2.6917   20.9002 H   0  0  0  0  0  0  0  0  0  0  0  0
    8.1588    2.2284   20.7292 H   0  0  0  0  0  0  0  0  0  0  0  0
    8.9473    2.4476   22.9229 S   0  0  0  0  0  0  0  0  0  0  0  0
    9.8915    1.6494   23.6903 O   0  0  0  0  0  0  0  0  0  0  0  0
    8.9657    3.8972   22.9625 O   0  0  0  0  0  0  0  0  0  0  0  0
    7.3317    1.9530   23.3964 C   0  0  0  0  0  0  0  0  0  0  0  0
    7.2257    2.3809   24.3915 H   0  0  0  0  0  0  0  0  0  0  0  0
    6.6212    2.3875   22.6909 H   0  0  0  0  0  0  0  0  0  0  0  0
    7.3132    0.8648   23.4229 H   0  0  0  0  0  0  0  0  0  0  0  0
    5.4617    0.6573   20.1546 C   0  0  0  0  0  0  0  0  0  0  0  0
    5.0429    0.6299   21.1600 H   0  0  0  0  0  0  0  0  0  0  0  0
    4.8136    1.3160   19.1026 C   0  0  0  0  0  0  0  0  0  0  0  0
    3.8751    1.8395   19.2515 H   0  0  0  0  0  0  0  0  0  0  0  0
  1  2  1  0
  2  3  2  0
  3  4  1  0
  4  5  1  0
  4  6  2  0
  6  7  1  0
  7  8  1  0
  8  9  1  0
  8 10  2  0
 10 11  1  0
 11 12  2  0
 12 13  1  0
 13 14  1  0
 13 15  1  0
 13 16  1  0
 16 17  1  0
 16 18  1  0
 16 19  1  0
 19 20  2  0
 19 21  2  0
 19 22  1  0
 22 23  1  0
 22 24  1  0
 22 25  1  0
  6 26  1  0
 26 27  1  0
 26 28  2  0
 28 29  1  0
 28  2  1  0
 12  7  1  0
M  END
>  <cnnaffinity>  (1) 
-4.6649

>  <filename>  (1) 
CS(=O)(=O)CCc1nncn1-c1cccnc1

$$$$
