
     RDKit          3D

 38 40  0  0  0  0  0  0  0  0999 V2000
    9.2797    0.7468   20.2991 H   0  0  0  0  0  0  0  0  0  0  0  0
    9.6041   -0.0594   20.9598 C   0  0  0  0  0  0  0  0  0  0  0  0
    8.6915   -0.9696   21.3351 C   0  0  0  0  0  0  0  0  0  0  0  0
    7.2381   -0.9335   21.0131 C   0  0  0  0  0  0  0  0  0  0  0  0
    6.6528   -0.1215   19.9270 C   0  0  0  0  0  0  0  0  0  0  0  0
    7.3032   -0.0414   18.6909 C   0  0  0  0  0  0  0  0  0  0  0  0
    8.2696   -0.5267   18.5458 H   0  0  0  0  0  0  0  0  0  0  0  0
    6.8192    0.6268   17.6385 N   0  0  0  0  0  0  0  0  0  0  0  0
    5.6602    1.2816   17.8039 C   0  0  0  0  0  0  0  0  0  0  0  0
    5.2808    1.8238   16.9397 H   0  0  0  0  0  0  0  0  0  0  0  0
    4.9437    1.2859   19.0062 C   0  0  0  0  0  0  0  0  0  0  0  0
    4.0188    1.8466   19.0805 H   0  0  0  0  0  0  0  0  0  0  0  0
    5.4392    0.5603   20.0862 C   0  0  0  0  0  0  0  0  0  0  0  0
    4.9171    0.5220   21.0432 H   0  0  0  0  0  0  0  0  0  0  0  0
    6.5198   -1.6741   21.7704 N   0  0  0  0  0  0  0  0  0  0  0  0
    7.3723   -2.3088   22.7798 C   0  0  0  0  0  0  0  0  0  0  0  0
    7.1504   -1.8423   23.7465 H   0  0  0  0  0  0  0  0  0  0  0  0
    7.1068   -3.3665   22.8624 H   0  0  0  0  0  0  0  0  0  0  0  0
    8.8503   -2.0615   22.3718 C   0  0  0  0  0  0  0  0  0  0  0  0
    9.2709   -2.9761   21.9366 H   0  0  0  0  0  0  0  0  0  0  0  0
    9.4857   -1.7447   23.2081 H   0  0  0  0  0  0  0  0  0  0  0  0
   10.9698    0.1613   21.4626 C   0  0  0  0  0  0  0  0  0  0  0  0
   11.8657   -0.8443   21.8624 C   0  0  0  0  0  0  0  0  0  0  0  0
   11.6162   -1.8919   21.6869 H   0  0  0  0  0  0  0  0  0  0  0  0
   13.1136   -0.4884   22.3948 C   0  0  0  0  0  0  0  0  0  0  0  0
   13.7975   -1.2665   22.7141 H   0  0  0  0  0  0  0  0  0  0  0  0
   13.4939    0.8487   22.5329 C   0  0  0  0  0  0  0  0  0  0  0  0
   14.4802    1.0986   22.9266 H   0  0  0  0  0  0  0  0  0  0  0  0
   12.5900    1.8492   22.1345 C   0  0  0  0  0  0  0  0  0  0  0  0
   12.9518    3.5799   22.3934 S   0  0  0  0  0  0  0  0  0  0  0  0
   12.3801    4.3701   21.3110 O   0  0  0  0  0  0  0  0  0  0  0  0
   14.3563    3.7154   22.7409 O   0  0  0  0  0  0  0  0  0  0  0  0
   11.9888    3.9475   23.8432 C   0  0  0  0  0  0  0  0  0  0  0  0
   12.4701    4.8075   24.3053 H   0  0  0  0  0  0  0  0  0  0  0  0
   11.9722    3.0960   24.5239 H   0  0  0  0  0  0  0  0  0  0  0  0
   10.9838    4.1838   23.4938 H   0  0  0  0  0  0  0  0  0  0  0  0
   11.3719    1.5074   21.5536 C   0  0  0  0  0  0  0  0  0  0  0  0
   10.6950    2.2551   21.1457 H   0  0  0  0  0  0  0  0  0  0  0  0
  1  2  1  0
  2  3  2  3
  3  4  1  0
  4  5  1  0
  5  6  2  0
  6  7  1  0
  6  8  1  0
  8  9  2  0
  9 10  1  0
  9 11  1  0
 11 12  1  0
 11 13  2  0
 13 14  1  0
  4 15  2  0
 15 16  1  0
 16 17  1  0
 16 18  1  0
 16 19  1  0
 19 20  1  0
 19 21  1  0
  2 22  1  0
 22 23  2  0
 23 24  1  0
 23 25  1  0
 25 26  1  0
 25 27  2  0
 27 28  1  0
 27 29  1  0
 29 30  1  0
 30 31  2  0
 30 32  2  0
 30 33  1  0
 33 34  1  0
 33 35  1  0
 33 36  1  0
 29 37  2  0
 37 38  1  0
 19  3  1  0
 37 22  1  0
 13  5  1  0
M  END
>  <cnnaffinity>  (1) 
-6.36621

>  <filename>  (1) 
CS(=O)(=O)c1cccc(C=C2CCN=C2c2cccnc2)c1

$$$$
