
     RDKit          3D

 35 37  0  0  0  0  0  0  0  0999 V2000
    4.9349    1.8168   16.9413 H   0  0  0  0  0  0  0  0  0  0  0  0
    5.4065    1.3124   17.7833 C   0  0  0  0  0  0  0  0  0  0  0  0
    6.5584    0.6698   17.5282 N   0  0  0  0  0  0  0  0  0  0  0  0
    7.1746    0.0539   18.5464 C   0  0  0  0  0  0  0  0  0  0  0  0
    8.1074   -0.4620   18.3242 H   0  0  0  0  0  0  0  0  0  0  0  0
    6.6653    0.0357   19.8585 C   0  0  0  0  0  0  0  0  0  0  0  0
    7.3253   -0.6562   20.9216 N   0  0  0  0  0  0  0  0  0  0  0  0
    6.6906   -1.5995   21.7145 C   0  0  0  0  0  0  0  0  0  0  0  0
    5.6591   -1.8687   21.5401 H   0  0  0  0  0  0  0  0  0  0  0  0
    7.5748   -2.0486   22.6317 C   0  0  0  0  0  0  0  0  0  0  0  0
    7.4012   -3.0204   23.7139 C   0  0  0  0  0  0  0  0  0  0  0  0
    6.1365   -3.1832   24.3067 C   0  0  0  0  0  0  0  0  0  0  0  0
    5.3051   -2.5669   23.9712 H   0  0  0  0  0  0  0  0  0  0  0  0
    5.9468   -4.1215   25.3216 C   0  0  0  0  0  0  0  0  0  0  0  0
    4.9680   -4.2103   25.7839 H   0  0  0  0  0  0  0  0  0  0  0  0
    6.9982   -4.9416   25.7445 C   0  0  0  0  0  0  0  0  0  0  0  0
    6.8244   -5.6593   26.5466 H   0  0  0  0  0  0  0  0  0  0  0  0
    8.2549   -4.7966   25.1286 C   0  0  0  0  0  0  0  0  0  0  0  0
    9.6564   -5.7694   25.6700 S   0  0  0  0  0  0  0  0  0  0  0  0
    9.1900   -7.0962   26.0441 O   0  0  0  0  0  0  0  0  0  0  0  0
   10.7485   -5.5504   24.7296 O   0  0  0  0  0  0  0  0  0  0  0  0
   10.1050   -4.9310   27.1475 C   0  0  0  0  0  0  0  0  0  0  0  0
   11.0526   -5.3309   27.4930 H   0  0  0  0  0  0  0  0  0  0  0  0
   10.1942   -3.8798   26.8917 H   0  0  0  0  0  0  0  0  0  0  0  0
    9.3187   -5.0879   27.8802 H   0  0  0  0  0  0  0  0  0  0  0  0
    8.4694   -3.8146   24.1561 C   0  0  0  0  0  0  0  0  0  0  0  0
    9.4560   -3.6540   23.7255 H   0  0  0  0  0  0  0  0  0  0  0  0
    8.7590   -1.3682   22.3750 N   0  0  0  0  0  0  0  0  0  0  0  0
    9.6154   -1.3911   22.9063 H   0  0  0  0  0  0  0  0  0  0  0  0
    8.6108   -0.4458   21.3845 C   0  0  0  0  0  0  0  0  0  0  0  0
    9.7211    0.6931   20.9138 S   0  0  0  0  0  0  0  0  0  0  0  0
    5.4550    0.6892   20.1084 C   0  0  0  0  0  0  0  0  0  0  0  0
    5.0366    0.6809   21.1157 H   0  0  0  0  0  0  0  0  0  0  0  0
    4.8173    1.3437   19.0519 C   0  0  0  0  0  0  0  0  0  0  0  0
    3.8815    1.8704   19.2024 H   0  0  0  0  0  0  0  0  0  0  0  0
  1  2  1  0
  2  3  2  0
  3  4  1  0
  4  5  1  0
  4  6  2  0
  6  7  1  0
  7  8  1  0
  8  9  1  0
  8 10  2  0
 10 11  1  0
 11 12  2  0
 12 13  1  0
 12 14  1  0
 14 15  1  0
 14 16  2  0
 16 17  1  0
 16 18  1  0
 18 19  1  0
 19 20  2  0
 19 21  2  0
 19 22  1  0
 22 23  1  0
 22 24  1  0
 22 25  1  0
 18 26  2  0
 26 27  1  0
 10 28  1  0
 28 29  1  0
 28 30  1  0
 30 31  2  0
  6 32  1  0
 32 33  1  0
 32 34  2  0
 34 35  1  0
 34  2  1  0
 30  7  1  0
 26 11  1  0
M  END
>  <cnnaffinity>  (1) 
-5.76744

>  <filename>  (1) 
CS(=O)(=O)c1cccc(-c2cn(-c3cccnc3)c(=S)[nH]2)c1

$$$$
