
     RDKit          3D

 25 26  0  0  0  0  0  0  0  0999 V2000
    4.9729    1.8417   17.0272 H   0  0  0  0  0  0  0  0  0  0  0  0
    5.4556    1.2943   17.8322 C   0  0  0  0  0  0  0  0  0  0  0  0
    6.6125    0.6843   17.5286 N   0  0  0  0  0  0  0  0  0  0  0  0
    7.2355    0.0163   18.5063 C   0  0  0  0  0  0  0  0  0  0  0  0
    8.1712   -0.4785   18.2505 H   0  0  0  0  0  0  0  0  0  0  0  0
    6.7271   -0.0902   19.8138 C   0  0  0  0  0  0  0  0  0  0  0  0
    7.4451   -0.7994   20.8337 N   0  0  0  0  0  0  0  0  0  0  0  0
    8.6706   -0.3861   21.3305 C   0  0  0  0  0  0  0  0  0  0  0  0
    9.2312    0.4052   20.8449 H   0  0  0  0  0  0  0  0  0  0  0  0
    8.9677   -1.1580   22.3987 C   0  0  0  0  0  0  0  0  0  0  0  0
   10.5433   -1.1272   23.2585 S   0  0  0  0  0  0  0  0  0  0  0  0
   10.3348   -1.5911   24.6222 O   0  0  0  0  0  0  0  0  0  0  0  0
   11.1986    0.1371   22.9669 O   0  0  0  0  0  0  0  0  0  0  0  0
   11.4050   -2.3701   22.3593 C   0  0  0  0  0  0  0  0  0  0  0  0
   11.3878   -2.0650   21.3167 H   0  0  0  0  0  0  0  0  0  0  0  0
   12.4217   -2.4155   22.7279 H   0  0  0  0  0  0  0  0  0  0  0  0
   10.8682   -3.2954   22.5298 H   0  0  0  0  0  0  0  0  0  0  0  0
    7.8854   -2.0482   22.5432 N   0  0  0  0  0  0  0  0  0  0  0  0
    7.6893   -2.7326   23.2660 H   0  0  0  0  0  0  0  0  0  0  0  0
    6.9485   -1.8599   21.5699 C   0  0  0  0  0  0  0  0  0  0  0  0
    5.5879   -2.7842   21.3334 S   0  0  0  0  0  0  0  0  0  0  0  0
    5.5178    0.5432   20.1229 C   0  0  0  0  0  0  0  0  0  0  0  0
    5.1158    0.4868   21.1372 H   0  0  0  0  0  0  0  0  0  0  0  0
    4.8754    1.2561   19.1063 C   0  0  0  0  0  0  0  0  0  0  0  0
    3.9505    1.7901   19.2958 H   0  0  0  0  0  0  0  0  0  0  0  0
  1  2  1  0
  2  3  2  0
  3  4  1  0
  4  5  1  0
  4  6  2  0
  6  7  1  0
  7  8  1  0
  8  9  1  0
  8 10  2  0
 10 11  1  0
 11 12  2  0
 11 13  2  0
 11 14  1  0
 14 15  1  0
 14 16  1  0
 14 17  1  0
 10 18  1  0
 18 19  1  0
 18 20  1  0
 20 21  2  0
  6 22  1  0
 22 23  1  0
 22 24  2  0
 24 25  1  0
 24  2  1  0
 20  7  1  0
M  END
>  <cnnaffinity>  (1) 
-4.70239

>  <filename>  (1) 
CS(=O)(=O)c1cn(-c2cccnc2)c(=S)[nH]1

$$$$
