
     RDKit          3D

 41 44  0  0  0  0  0  0  0  0999 V2000
    4.9662    1.8633   16.9349 H   0  0  0  0  0  0  0  0  0  0  0  0
    5.4102    1.3131   17.7646 C   0  0  0  0  0  0  0  0  0  0  0  0
    6.5565    0.6680   17.5106 N   0  0  0  0  0  0  0  0  0  0  0  0
    7.1376    0.0195   18.5296 C   0  0  0  0  0  0  0  0  0  0  0  0
    8.0731   -0.4763   18.2794 H   0  0  0  0  0  0  0  0  0  0  0  0
    6.6333   -0.0506   19.8447 C   0  0  0  0  0  0  0  0  0  0  0  0
    7.3629   -0.8117   20.9506 C   0  0  1  0  0  0  0  0  0  0  0  0
    7.0039   -1.8500   20.9417 H   0  0  0  0  0  0  0  0  0  0  0  0
    8.9260   -0.8721   20.8057 C   0  0  0  0  0  0  0  0  0  0  0  0
    9.2639   -1.8021   20.3351 H   0  0  0  0  0  0  0  0  0  0  0  0
    9.3039   -0.0306   20.2112 H   0  0  0  0  0  0  0  0  0  0  0  0
    9.4044   -0.7418   22.2252 C   0  0  0  0  0  0  0  0  0  0  0  0
   10.5845   -0.8334   22.8122 N   0  0  0  0  0  0  0  0  0  0  0  0
   10.3130   -0.5570   24.1111 N   0  0  0  0  0  0  0  0  0  0  0  0
   11.0998   -0.4275   24.7346 H   0  0  0  0  0  0  0  0  0  0  0  0
    8.9988   -0.2529   24.3516 C   0  0  0  0  0  0  0  0  0  0  0  0
    8.4187    0.1250   25.6572 C   0  0  0  0  0  0  0  0  0  0  0  0
    9.0561   -0.0782   26.8968 C   0  0  0  0  0  0  0  0  0  0  0  0
   10.0379   -0.5374   26.9636 H   0  0  0  0  0  0  0  0  0  0  0  0
    8.4301    0.3213   28.0808 C   0  0  0  0  0  0  0  0  0  0  0  0
    8.9363    0.1713   29.0267 H   0  0  0  0  0  0  0  0  0  0  0  0
    7.1907    0.9590   28.0732 C   0  0  0  0  0  0  0  0  0  0  0  0
    6.7419    1.3121   29.0030 H   0  0  0  0  0  0  0  0  0  0  0  0
    6.5546    1.1577   26.8432 C   0  0  0  0  0  0  0  0  0  0  0  0
    4.9344    1.9172   26.8117 S   0  0  0  0  0  0  0  0  0  0  0  0
    4.7203    2.5995   28.0846 O   0  0  0  0  0  0  0  0  0  0  0  0
    4.7399    2.6056   25.5415 O   0  0  0  0  0  0  0  0  0  0  0  0
    3.8316    0.5388   26.7934 C   0  0  0  0  0  0  0  0  0  0  0  0
    4.0218   -0.0761   27.6711 H   0  0  0  0  0  0  0  0  0  0  0  0
    3.9965   -0.0131   25.8693 H   0  0  0  0  0  0  0  0  0  0  0  0
    2.8361    0.9812   26.8213 H   0  0  0  0  0  0  0  0  0  0  0  0
    7.1531    0.7395   25.6499 C   0  0  0  0  0  0  0  0  0  0  0  0
    6.6589    0.8889   24.6926 H   0  0  0  0  0  0  0  0  0  0  0  0
    8.3940   -0.3835   23.1087 C   0  0  0  0  0  0  0  0  0  0  0  0
    7.0858   -0.2520   22.3893 C   0  0  0  0  0  0  0  0  0  0  0  0
    6.2778   -0.8028   22.8854 H   0  0  0  0  0  0  0  0  0  0  0  0
    6.7901    0.8051   22.3401 H   0  0  0  0  0  0  0  0  0  0  0  0
    5.4114    0.6113   20.0677 C   0  0  0  0  0  0  0  0  0  0  0  0
    4.9482    0.6130   21.0562 H   0  0  0  0  0  0  0  0  0  0  0  0
    4.7988    1.3004   19.0198 C   0  0  0  0  0  0  0  0  0  0  0  0
    3.8834    1.8579   19.1759 H   0  0  0  0  0  0  0  0  0  0  0  0
  1  2  1  0
  2  3  2  0
  3  4  1  0
  4  5  1  0
  4  6  2  0
  6  7  1  0
  7  8  1  1
  7  9  1  0
  9 10  1  0
  9 11  1  0
  9 12  1  0
 12 13  2  0
 13 14  1  0
 14 15  1  0
 14 16  1  0
 16 17  1  0
 17 18  2  0
 18 19  1  0
 18 20  1  0
 20 21  1  0
 20 22  2  0
 22 23  1  0
 22 24  1  0
 24 25  1  0
 25 26  2  0
 25 27  2  0
 25 28  1  0
 28 29  1  0
 28 30  1  0
 28 31  1  0
 24 32  2  0
 32 33  1  0
 16 34  2  0
 34 35  1  0
 35 36  1  0
 35 37  1  0
  6 38  1  0
 38 39  1  0
 38 40  2  0
 40 41  1  0
 40  2  1  0
 35  7  1  0
 34 12  1  0
 32 17  1  0
M  END
>  <cnnaffinity>  (1) 
-5.3982

>  <filename>  (1) 
CS(=O)(=O)c1cccc(-c2[nH]nc3c2C[C@@H](c2cccnc2)C3)c1

$$$$
