
     RDKit          3D

 41 44  0  0  0  0  0  0  0  0999 V2000
    5.0013    1.8407   16.9257 H   0  0  0  0  0  0  0  0  0  0  0  0
    5.4212    1.2930   17.7691 C   0  0  0  0  0  0  0  0  0  0  0  0
    6.5640    0.6291   17.5376 N   0  0  0  0  0  0  0  0  0  0  0  0
    7.1261   -0.0118   18.5670 C   0  0  0  0  0  0  0  0  0  0  0  0
    8.0429   -0.5494   18.3398 H   0  0  0  0  0  0  0  0  0  0  0  0
    6.6079   -0.0066   19.8770 C   0  0  0  0  0  0  0  0  0  0  0  0
    7.3609   -0.6379   20.9708 C   0  0  0  0  0  0  0  0  0  0  0  0
    8.0590   -1.7539   20.7711 N   0  0  0  0  0  0  0  0  0  0  0  0
    8.5588   -2.0315   21.9746 N   0  0  0  0  0  0  0  0  0  0  0  0
    8.2670   -1.1707   22.9421 C   0  0  0  0  0  0  0  0  0  0  0  0
    7.4752   -0.2058   22.3344 C   0  0  0  0  0  0  0  0  0  0  0  0
    7.0419    1.0264   22.9727 C   0  0  0  0  0  0  0  0  0  0  0  0
    7.1978    2.2655   22.3380 C   0  0  0  0  0  0  0  0  0  0  0  0
    7.5701    2.2884   21.3179 H   0  0  0  0  0  0  0  0  0  0  0  0
    6.8942    3.4420   23.0180 C   0  0  0  0  0  0  0  0  0  0  0  0
    7.0621    4.3953   22.5318 H   0  0  0  0  0  0  0  0  0  0  0  0
    6.4273    3.4065   24.3325 C   0  0  0  0  0  0  0  0  0  0  0  0
    6.2123    4.3373   24.8577 H   0  0  0  0  0  0  0  0  0  0  0  0
    6.2686    2.1634   24.9624 C   0  0  0  0  0  0  0  0  0  0  0  0
    5.6835    2.0737   26.6523 S   0  0  0  0  0  0  0  0  0  0  0  0
    5.8690    3.3798   27.2791 O   0  0  0  0  0  0  0  0  0  0  0  0
    6.1948    0.8574   27.2731 O   0  0  0  0  0  0  0  0  0  0  0  0
    3.9388    1.8383   26.4781 C   0  0  0  0  0  0  0  0  0  0  0  0
    3.7553    0.8920   25.9694 H   0  0  0  0  0  0  0  0  0  0  0  0
    3.5744    1.8102   27.5038 H   0  0  0  0  0  0  0  0  0  0  0  0
    3.5156    2.6757   25.9264 H   0  0  0  0  0  0  0  0  0  0  0  0
    6.5774    0.9766   24.2909 C   0  0  0  0  0  0  0  0  0  0  0  0
    6.4741    0.0061   24.7749 H   0  0  0  0  0  0  0  0  0  0  0  0
    9.0456   -1.5052   24.2002 C   0  0  0  0  0  0  0  0  0  0  0  0
    8.3826   -1.7244   25.0434 H   0  0  0  0  0  0  0  0  0  0  0  0
    9.6894   -0.6774   24.5151 H   0  0  0  0  0  0  0  0  0  0  0  0
    9.8830   -2.7474   23.7770 C   0  0  0  0  0  0  0  0  0  0  0  0
    9.6897   -3.5975   24.4328 H   0  0  0  0  0  0  0  0  0  0  0  0
   10.9481   -2.5308   23.8230 H   0  0  0  0  0  0  0  0  0  0  0  0
    9.5061   -3.0607   22.3033 C   0  0  0  0  0  0  0  0  0  0  0  0
    9.0375   -4.0384   22.1700 H   0  0  0  0  0  0  0  0  0  0  0  0
   10.3645   -2.9458   21.6401 H   0  0  0  0  0  0  0  0  0  0  0  0
    5.3774    0.6400   20.0867 C   0  0  0  0  0  0  0  0  0  0  0  0
    4.9013    0.6437   21.0695 H   0  0  0  0  0  0  0  0  0  0  0  0
    4.7830    1.3026   19.0139 C   0  0  0  0  0  0  0  0  0  0  0  0
    3.8491    1.8397   19.1261 H   0  0  0  0  0  0  0  0  0  0  0  0
  1  2  1  0
  2  3  2  0
  3  4  1  0
  4  5  1  0
  4  6  2  0
  6  7  1  0
  7  8  2  0
  8  9  1  0
  9 10  1  0
 10 11  2  0
 11 12  1  0
 12 13  2  0
 13 14  1  0
 13 15  1  0
 15 16  1  0
 15 17  2  0
 17 18  1  0
 17 19  1  0
 19 20  1  0
 20 21  2  0
 20 22  2  0
 20 23  1  0
 23 24  1  0
 23 25  1  0
 23 26  1  0
 19 27  2  0
 27 28  1  0
 10 29  1  0
 29 30  1  0
 29 31  1  0
 29 32  1  0
 32 33  1  0
 32 34  1  0
 32 35  1  0
 35 36  1  0
 35 37  1  0
  6 38  1  0
 38 39  1  0
 38 40  2  0
 40 41  1  0
 40  2  1  0
 11  7  1  0
 27 12  1  0
 35  9  1  0
M  END
>  <cnnaffinity>  (1) 
-5.76183

>  <filename>  (1) 
CS(=O)(=O)c1cccc(-c2c(-c3cccnc3)nn3c2CCC3)c1

$$$$
