
     RDKit          3D

 36 39  0  0  0  0  0  0  0  0999 V2000
    4.9319    1.7730   17.0023 H   0  0  0  0  0  0  0  0  0  0  0  0
    5.4095    1.2849   17.8471 C   0  0  0  0  0  0  0  0  0  0  0  0
    6.5738    0.6658   17.5962 N   0  0  0  0  0  0  0  0  0  0  0  0
    7.1782    0.0525   18.6184 C   0  0  0  0  0  0  0  0  0  0  0  0
    8.1252   -0.4321   18.3869 H   0  0  0  0  0  0  0  0  0  0  0  0
    6.6432    0.0169   19.9143 C   0  0  0  0  0  0  0  0  0  0  0  0
    7.3642   -0.6870   20.9691 C   0  0  0  0  0  0  0  0  0  0  0  0
    8.5506   -1.3203   20.7607 N   0  0  0  0  0  0  0  0  0  0  0  0
    8.8035   -1.8095   21.9534 C   0  0  0  0  0  0  0  0  0  0  0  0
   10.0014   -2.7973   22.7351 S   0  0  0  0  0  0  0  0  0  0  0  0
    9.0784   -2.7553   24.2092 C   0  0  0  0  0  0  0  0  0  0  0  0
    9.4637   -3.2729   25.0752 H   0  0  0  0  0  0  0  0  0  0  0  0
    7.9504   -2.0136   24.1234 C   0  0  0  0  0  0  0  0  0  0  0  0
    6.9584   -1.7584   25.1939 C   0  0  0  0  0  0  0  0  0  0  0  0
    6.7583   -2.7484   26.1789 C   0  0  0  0  0  0  0  0  0  0  0  0
    7.3133   -3.6877   26.1330 H   0  0  0  0  0  0  0  0  0  0  0  0
    5.8392   -2.5400   27.2079 C   0  0  0  0  0  0  0  0  0  0  0  0
    5.6976   -3.3159   27.9566 H   0  0  0  0  0  0  0  0  0  0  0  0
    5.1069   -1.3526   27.2854 C   0  0  0  0  0  0  0  0  0  0  0  0
    4.3826   -1.2314   28.0909 H   0  0  0  0  0  0  0  0  0  0  0  0
    5.3095   -0.3584   26.3111 C   0  0  0  0  0  0  0  0  0  0  0  0
    4.3310    1.1454   26.3525 S   0  0  0  0  0  0  0  0  0  0  0  0
    3.1766    0.9059   27.2093 O   0  0  0  0  0  0  0  0  0  0  0  0
    4.1994    1.6483   24.9897 O   0  0  0  0  0  0  0  0  0  0  0  0
    5.3410    2.3130   27.2197 C   0  0  0  0  0  0  0  0  0  0  0  0
    5.5368    1.9513   28.2258 H   0  0  0  0  0  0  0  0  0  0  0  0
    6.2625    2.4763   26.6680 H   0  0  0  0  0  0  0  0  0  0  0  0
    4.7643    3.2358   27.2628 H   0  0  0  0  0  0  0  0  0  0  0  0
    6.2281   -0.5535   25.2690 C   0  0  0  0  0  0  0  0  0  0  0  0
    6.3897    0.1824   24.4805 H   0  0  0  0  0  0  0  0  0  0  0  0
    7.8335   -1.4818   22.8355 N   0  0  0  0  0  0  0  0  0  0  0  0
    6.8828   -0.7524   22.2079 N   0  0  0  0  0  0  0  0  0  0  0  0
    5.4226    0.6596   20.1705 C   0  0  0  0  0  0  0  0  0  0  0  0
    4.9959    0.6376   21.1801 H   0  0  0  0  0  0  0  0  0  0  0  0
    4.8044    1.3097   19.1087 C   0  0  0  0  0  0  0  0  0  0  0  0
    3.8743    1.8430   19.2555 H   0  0  0  0  0  0  0  0  0  0  0  0
  1  2  1  0
  2  3  2  0
  3  4  1  0
  4  5  1  0
  4  6  2  0
  6  7  1  0
  7  8  1  0
  8  9  2  0
  9 10  1  0
 10 11  1  0
 11 12  1  0
 11 13  2  0
 13 14  1  0
 14 15  2  0
 15 16  1  0
 15 17  1  0
 17 18  1  0
 17 19  2  0
 19 20  1  0
 19 21  1  0
 21 22  1  0
 22 23  2  0
 22 24  2  0
 22 25  1  0
 25 26  1  0
 25 27  1  0
 25 28  1  0
 21 29  2  0
 29 30  1  0
 13 31  1  0
 31 32  1  0
  6 33  1  0
 33 34  1  0
 33 35  2  0
 35 36  1  0
 35  2  1  0
 32  7  2  0
 31  9  1  0
 29 14  1  0
M  END
>  <cnnaffinity>  (1) 
-5.67868

>  <filename>  (1) 
CS(=O)(=O)c1cccc(-c2csc3nc(-c4cccnc4)nn23)c1

$$$$
