
     RDKit          3D

 28 29  0  0  0  0  0  0  0  0999 V2000
    4.9299    1.7740   17.0124 H   0  0  0  0  0  0  0  0  0  0  0  0
    5.4131    1.2797   17.8560 C   0  0  0  0  0  0  0  0  0  0  0  0
    6.5769    0.6624   17.6042 N   0  0  0  0  0  0  0  0  0  0  0  0
    7.1904    0.0389   18.6206 C   0  0  0  0  0  0  0  0  0  0  0  0
    8.1366   -0.4339   18.3658 H   0  0  0  0  0  0  0  0  0  0  0  0
    6.6969   -0.0353   19.9627 C   0  0  0  0  0  0  0  0  0  0  0  0
    7.3706   -0.6919   20.9673 N   0  0  0  0  0  0  0  0  0  0  0  0
    7.0584   -0.8898   22.3754 C   0  0  0  0  0  0  0  0  0  0  0  0
    6.1224   -1.4334   22.5543 H   0  0  0  0  0  0  0  0  0  0  0  0
    7.0644    0.0371   22.9725 H   0  0  0  0  0  0  0  0  0  0  0  0
    8.3614   -1.7460   22.4794 C   0  0  0  0  0  0  0  0  0  0  0  0
    9.1087   -1.3225   23.1550 H   0  0  0  0  0  0  0  0  0  0  0  0
    8.2749   -3.2018   22.8621 C   0  0  0  0  0  0  0  0  0  0  0  0
    9.0003   -3.6829   23.6879 O   0  0  0  0  0  0  0  0  0  0  0  0
    6.9066   -4.2824   22.0243 S   0  0  0  0  0  0  0  0  0  0  0  0
    7.4514   -5.6113   21.7608 O   0  0  0  0  0  0  0  0  0  0  0  0
    6.2466   -3.5394   20.9513 O   0  0  0  0  0  0  0  0  0  0  0  0
    5.6354   -4.5210   23.2609 C   0  0  0  0  0  0  0  0  0  0  0  0
    5.2057   -3.5588   23.5331 H   0  0  0  0  0  0  0  0  0  0  0  0
    4.8839   -5.1545   22.7910 H   0  0  0  0  0  0  0  0  0  0  0  0
    6.0749   -5.0266   24.1158 H   0  0  0  0  0  0  0  0  0  0  0  0
    8.6308   -1.4173   20.9824 C   0  0  0  0  0  0  0  0  0  0  0  0
    9.5232   -0.8054   20.7813 H   0  0  0  0  0  0  0  0  0  0  0  0
    8.6424   -2.3010   20.3429 H   0  0  0  0  0  0  0  0  0  0  0  0
    5.4640    0.6265   20.1919 C   0  0  0  0  0  0  0  0  0  0  0  0
    5.0172    0.6217   21.1863 H   0  0  0  0  0  0  0  0  0  0  0  0
    4.8361    1.2860   19.1292 C   0  0  0  0  0  0  0  0  0  0  0  0
    3.9056    1.8181   19.2744 H   0  0  0  0  0  0  0  0  0  0  0  0
  1  2  1  0
  2  3  2  0
  3  4  1  0
  4  5  1  0
  4  6  2  0
  6  7  1  0
  7  8  1  0
  8  9  1  0
  8 10  1  0
  8 11  1  0
 11 12  1  0
 11 13  1  0
 13 14  2  0
 13 15  1  0
 15 16  2  0
 15 17  2  0
 15 18  1  0
 18 19  1  0
 18 20  1  0
 18 21  1  0
 11 22  1  0
 22 23  1  0
 22 24  1  0
  6 25  1  0
 25 26  1  0
 25 27  2  0
 27 28  1  0
 27  2  1  0
 22  7  1  0
M  END
>  <cnnaffinity>  (1) 
-4.70124

>  <filename>  (1) 
CS(=O)(=O)C(=O)C1CN(c2cccnc2)C1

$$$$
