
     RDKit          3D

 26 27  0  0  0  0  0  0  0  0999 V2000
    5.0330    1.7505   16.9889 H   0  0  0  0  0  0  0  0  0  0  0  0
    5.4663    1.2816   17.8698 C   0  0  0  0  0  0  0  0  0  0  0  0
    6.6510    0.6771   17.6947 N   0  0  0  0  0  0  0  0  0  0  0  0
    7.2106    0.1080   18.7723 C   0  0  0  0  0  0  0  0  0  0  0  0
    8.1837   -0.3552   18.6080 H   0  0  0  0  0  0  0  0  0  0  0  0
    6.6299    0.0853   20.0587 C   0  0  0  0  0  0  0  0  0  0  0  0
    7.2585   -0.6597   21.1671 C   0  0  0  0  0  0  0  0  0  0  0  0
    7.5997   -1.9844   21.2272 C   0  0  0  0  0  0  0  0  0  0  0  0
    7.4449   -2.7177   20.4485 H   0  0  0  0  0  0  0  0  0  0  0  0
    8.1255   -2.3367   22.4414 N   0  0  0  0  0  0  0  0  0  0  0  0
    8.1038   -1.2304   23.1424 C   0  0  0  0  0  0  0  0  0  0  0  0
    8.4371   -1.0955   24.1612 H   0  0  0  0  0  0  0  0  0  0  0  0
    7.5964   -0.1681   22.4255 N   0  0  0  0  0  0  0  0  0  0  0  0
    7.3626    1.1406   22.9744 N   0  0  0  0  0  0  0  0  0  0  0  0
    6.3692    1.3557   22.9197 H   0  0  0  0  0  0  0  0  0  0  0  0
    7.7340    2.5825   22.0985 S   0  0  0  0  0  0  0  0  0  0  0  0
    6.3941    3.1472   22.0597 O   0  0  0  0  0  0  0  0  0  0  0  0
    8.5646    2.3259   20.9505 O   0  0  0  0  0  0  0  0  0  0  0  0
    8.6430    3.4083   23.3421 C   0  0  0  0  0  0  0  0  0  0  0  0
    8.9908    4.3352   22.8927 H   0  0  0  0  0  0  0  0  0  0  0  0
    9.4624    2.7528   23.6288 H   0  0  0  0  0  0  0  0  0  0  0  0
    7.9490    3.5680   24.1687 H   0  0  0  0  0  0  0  0  0  0  0  0
    5.3888    0.7238   20.2086 C   0  0  0  0  0  0  0  0  0  0  0  0
    4.8872    0.7341   21.1779 H   0  0  0  0  0  0  0  0  0  0  0  0
    4.8037    1.3401   19.1003 C   0  0  0  0  0  0  0  0  0  0  0  0
    3.8631    1.8718   19.1884 H   0  0  0  0  0  0  0  0  0  0  0  0
  1  2  1  0
  2  3  2  0
  3  4  1  0
  4  5  1  0
  4  6  2  0
  6  7  1  0
  7  8  2  0
  8  9  1  0
  8 10  1  0
 10 11  2  0
 11 12  1  0
 11 13  1  0
 13 14  1  0
 14 15  1  0
 14 16  1  0
 16 17  2  0
 16 18  2  0
 16 19  1  0
 19 20  1  0
 19 21  1  0
 19 22  1  0
  6 23  1  0
 23 24  1  0
 23 25  2  0
 25 26  1  0
 25  2  1  0
 13  7  1  0
M  END
>  <cnnaffinity>  (1) 
-4.31958

>  <filename>  (1) 
CS(=O)(=O)Nn1cncc1-c1cccnc1

$$$$
