
     RDKit          3D

 26 27  0  0  0  0  0  0  0  0999 V2000
    4.9760    1.8025   17.0218 H   0  0  0  0  0  0  0  0  0  0  0  0
    5.4893    1.3032   17.8405 C   0  0  0  0  0  0  0  0  0  0  0  0
    6.6551    0.7088   17.5351 N   0  0  0  0  0  0  0  0  0  0  0  0
    7.3017    0.0768   18.5232 C   0  0  0  0  0  0  0  0  0  0  0  0
    8.2311   -0.4283   18.2614 H   0  0  0  0  0  0  0  0  0  0  0  0
    6.8236    0.0084   19.8526 C   0  0  0  0  0  0  0  0  0  0  0  0
    7.5209   -0.6890   20.9032 N   0  0  0  0  0  0  0  0  0  0  0  0
    8.7330   -0.4327   21.4937 C   0  0  0  0  0  0  0  0  0  0  0  0
    9.4479    0.6755   21.1825 N   0  0  0  0  0  0  0  0  0  0  0  0
    9.4239    1.0698   20.2664 H   0  0  0  0  0  0  0  0  0  0  0  0
   11.0609    0.5835   21.4837 S   0  0  0  0  0  0  0  0  0  0  0  0
   11.4818    1.7885   20.7985 O   0  0  0  0  0  0  0  0  0  0  0  0
   11.6024   -0.7130   21.1574 O   0  0  0  0  0  0  0  0  0  0  0  0
   11.1075    0.7900   23.2081 C   0  0  0  0  0  0  0  0  0  0  0  0
   12.1511    0.7606   23.5038 H   0  0  0  0  0  0  0  0  0  0  0  0
   10.5549   -0.0425   23.6244 H   0  0  0  0  0  0  0  0  0  0  0  0
   10.6477    1.7488   23.4278 H   0  0  0  0  0  0  0  0  0  0  0  0
    9.0462   -1.2199   22.4620 N   0  0  0  0  0  0  0  0  0  0  0  0
    7.9160   -2.0159   22.5647 N   0  0  0  0  0  0  0  0  0  0  0  0
    7.7843   -2.7211   23.2619 H   0  0  0  0  0  0  0  0  0  0  0  0
    6.9455   -1.7346   21.6621 C   0  0  0  0  0  0  0  0  0  0  0  0
    5.8696   -2.2825   21.5251 O   0  0  0  0  0  0  0  0  0  0  0  0
    5.5974    0.6072   20.1477 C   0  0  0  0  0  0  0  0  0  0  0  0
    5.1917    0.5336   21.1587 H   0  0  0  0  0  0  0  0  0  0  0  0
    4.9227    1.2760   19.1213 C   0  0  0  0  0  0  0  0  0  0  0  0
    3.9712    1.7659   19.3038 H   0  0  0  0  0  0  0  0  0  0  0  0
  1  2  1  0
  2  3  2  0
  3  4  1  0
  4  5  1  0
  4  6  2  0
  6  7  1  0
  7  8  1  0
  8  9  1  0
  9 10  1  0
  9 11  1  0
 11 12  2  0
 11 13  2  0
 11 14  1  0
 14 15  1  0
 14 16  1  0
 14 17  1  0
  8 18  2  0
 18 19  1  0
 19 20  1  0
 19 21  1  0
 21 22  2  0
  6 23  1  0
 23 24  1  0
 23 25  2  0
 25 26  1  0
 25  2  1  0
 21  7  1  0
M  END
>  <cnnaffinity>  (1) 
-4.97383

>  <filename>  (1) 
CS(=O)(=O)Nc1n[nH]c(=O)n1-c1cccnc1

$$$$
