
     RDKit          3D

 33 35  0  0  0  0  0  0  0  0999 V2000
    4.9296    1.7907   16.9918 H   0  0  0  0  0  0  0  0  0  0  0  0
    5.4038    1.2938   17.8346 C   0  0  0  0  0  0  0  0  0  0  0  0
    6.5683    0.6800   17.5781 N   0  0  0  0  0  0  0  0  0  0  0  0
    7.1682    0.0442   18.5873 C   0  0  0  0  0  0  0  0  0  0  0  0
    8.1182   -0.4354   18.3578 H   0  0  0  0  0  0  0  0  0  0  0  0
    6.6447   -0.0133   19.8860 C   0  0  0  0  0  0  0  0  0  0  0  0
    7.3776   -0.7294   20.9398 C   0  0  0  0  0  0  0  0  0  0  0  0
    7.9567   -1.8800   20.7071 N   0  0  0  0  0  0  0  0  0  0  0  0
    8.4480   -2.3206   21.9121 O   0  0  0  0  0  0  0  0  0  0  0  0
    8.1671   -1.4183   22.8522 C   0  0  0  0  0  0  0  0  0  0  0  0
    8.5245   -1.6374   23.8485 H   0  0  0  0  0  0  0  0  0  0  0  0
    7.5081   -0.3563   22.3241 C   0  0  0  0  0  0  0  0  0  0  0  0
    7.1206    0.8812   23.0177 C   0  0  0  0  0  0  0  0  0  0  0  0
    7.2579    2.1301   22.3914 C   0  0  0  0  0  0  0  0  0  0  0  0
    7.6298    2.1638   21.3703 H   0  0  0  0  0  0  0  0  0  0  0  0
    6.8974    3.2950   23.0673 C   0  0  0  0  0  0  0  0  0  0  0  0
    6.9952    4.2512   22.5621 H   0  0  0  0  0  0  0  0  0  0  0  0
    6.4063    3.2402   24.3738 C   0  0  0  0  0  0  0  0  0  0  0  0
    6.1156    4.1656   24.8695 H   0  0  0  0  0  0  0  0  0  0  0  0
    6.2808    1.9908   25.0053 C   0  0  0  0  0  0  0  0  0  0  0  0
    5.6264    1.8898   26.6689 S   0  0  0  0  0  0  0  0  0  0  0  0
    4.9284    3.1329   26.9555 O   0  0  0  0  0  0  0  0  0  0  0  0
    5.0004    0.5854   26.8389 O   0  0  0  0  0  0  0  0  0  0  0  0
    7.0356    1.8793   27.7256 C   0  0  0  0  0  0  0  0  0  0  0  0
    6.6296    1.8210   28.7356 H   0  0  0  0  0  0  0  0  0  0  0  0
    7.6323    0.9997   27.5025 H   0  0  0  0  0  0  0  0  0  0  0  0
    7.5835    2.8048   27.5795 H   0  0  0  0  0  0  0  0  0  0  0  0
    6.6350    0.8152   24.3296 C   0  0  0  0  0  0  0  0  0  0  0  0
    6.5191   -0.1760   24.7667 H   0  0  0  0  0  0  0  0  0  0  0  0
    5.4249    0.6328   20.1426 C   0  0  0  0  0  0  0  0  0  0  0  0
    5.0019    0.6391   21.1508 H   0  0  0  0  0  0  0  0  0  0  0  0
    4.8016    1.3034   19.0963 C   0  0  0  0  0  0  0  0  0  0  0  0
    3.8760    1.8409   19.2480 H   0  0  0  0  0  0  0  0  0  0  0  0
  1  2  1  0
  2  3  2  0
  3  4  1  0
  4  5  1  0
  4  6  2  0
  6  7  1  0
  7  8  2  0
  8  9  1  0
  9 10  1  0
 10 11  1  0
 10 12  2  0
 12 13  1  0
 13 14  2  0
 14 15  1  0
 14 16  1  0
 16 17  1  0
 16 18  2  0
 18 19  1  0
 18 20  1  0
 20 21  1  0
 21 22  2  0
 21 23  2  0
 21 24  1  0
 24 25  1  0
 24 26  1  0
 24 27  1  0
 20 28  2  0
 28 29  1  0
  6 30  1  0
 30 31  1  0
 30 32  2  0
 32 33  1  0
 32  2  1  0
 12  7  1  0
 28 13  1  0
M  END
>  <cnnaffinity>  (1) 
-5.11086

>  <filename>  (1) 
CS(=O)(=O)c1cccc(-c2conc2-c2cccnc2)c1

$$$$
