
     RDKit          3D

 21 22  0  0  0  0  0  0  0  0999 V2000
    9.1683   -3.0023   22.1791 H   0  0  0  0  0  0  0  0  0  0  0  0
    8.5707   -2.1506   21.8837 C   0  0  0  0  0  0  0  0  0  0  0  0
    8.0964   -1.8506   20.7235 N   0  0  0  0  0  0  0  0  0  0  0  0
    7.3619   -0.6970   20.9533 C   0  0  0  0  0  0  0  0  0  0  0  0
    6.6397   -0.0027   19.8934 C   0  0  0  0  0  0  0  0  0  0  0  0
    7.1622    0.0381   18.5861 C   0  0  0  0  0  0  0  0  0  0  0  0
    8.1122   -0.4366   18.3601 H   0  0  0  0  0  0  0  0  0  0  0  0
    6.5657    0.6697   17.5699 N   0  0  0  0  0  0  0  0  0  0  0  0
    5.4069    1.2917   17.8310 C   0  0  0  0  0  0  0  0  0  0  0  0
    4.9348    1.7892   16.9872 H   0  0  0  0  0  0  0  0  0  0  0  0
    4.8042    1.3096   19.0956 C   0  0  0  0  0  0  0  0  0  0  0  0
    3.8746    1.8416   19.2457 H   0  0  0  0  0  0  0  0  0  0  0  0
    5.4277    0.6529   20.1531 C   0  0  0  0  0  0  0  0  0  0  0  0
    4.9946    0.6421   21.1583 H   0  0  0  0  0  0  0  0  0  0  0  0
    7.4806   -0.3443   22.2703 C   0  0  0  0  0  0  0  0  0  0  0  0
    7.0725    1.1036   23.1453 S   0  0  0  0  0  0  0  0  0  0  0  0
    8.4577    2.1493   22.5970 C   0  0  0  0  0  0  0  0  0  0  0  0
    8.5045    2.1996   21.5058 H   0  0  0  0  0  0  0  0  0  0  0  0
    9.3807    1.7157   22.9810 H   0  0  0  0  0  0  0  0  0  0  0  0
    8.3152    3.1520   23.0099 H   0  0  0  0  0  0  0  0  0  0  0  0
    8.2667   -1.2972   22.8706 O   0  0  0  0  0  0  0  0  0  0  0  0
  1  2  1  0
  2  3  2  0
  3  4  1  0
  4  5  1  0
  5  6  2  0
  6  7  1  0
  6  8  1  0
  8  9  2  0
  9 10  1  0
  9 11  1  0
 11 12  1  0
 11 13  2  0
 13 14  1  0
  4 15  2  0
 15 16  1  0
 16 17  1  0
 17 18  1  0
 17 19  1  0
 17 20  1  0
 15 21  1  0
 21  2  1  0
 13  5  1  0
M  END
>  <cnnaffinity>  (1) 
-4.20714

>  <filename>  (1) 
CSc1ocnc1-c1cccnc1

$$$$
