
     RDKit          3D

 30 31  0  0  0  0  0  0  0  0999 V2000
    4.9746    1.6535   16.8873 H   0  0  0  0  0  0  0  0  0  0  0  0
    5.4242    1.2738   17.8045 C   0  0  0  0  0  0  0  0  0  0  0  0
    6.6163    0.6801   17.6639 N   0  0  0  0  0  0  0  0  0  0  0  0
    7.2186    0.2357   18.7750 C   0  0  0  0  0  0  0  0  0  0  0  0
    8.1838   -0.2467   18.6384 H   0  0  0  0  0  0  0  0  0  0  0  0
    6.6865    0.3554   20.0664 C   0  0  0  0  0  0  0  0  0  0  0  0
    7.4511   -0.2507   21.2212 C   0  0  2  0  0  0  0  0  0  0  0  0
    7.0652    0.1598   22.1652 H   0  0  0  0  0  0  0  0  0  0  0  0
    8.7929    0.1217   21.1286 F   0  0  0  0  0  0  0  0  0  0  0  0
    7.4085   -1.7846   21.2453 C   0  0  0  0  0  0  0  0  0  0  0  0
    8.0470   -2.1313   20.4294 H   0  0  0  0  0  0  0  0  0  0  0  0
    7.8779   -2.1472   22.1686 H   0  0  0  0  0  0  0  0  0  0  0  0
    5.9811   -2.3343   21.1003 C   0  0  0  0  0  0  0  0  0  0  0  0
    5.3998   -2.0666   21.9872 H   0  0  0  0  0  0  0  0  0  0  0  0
    5.4907   -1.8568   20.2375 H   0  0  0  0  0  0  0  0  0  0  0  0
    5.8905   -3.8287   20.9122 C   0  0  0  0  0  0  0  0  0  0  0  0
    5.8217   -4.3646   19.6123 C   0  0  0  0  0  0  0  0  0  0  0  0
    5.9621   -3.6899   18.7661 H   0  0  0  0  0  0  0  0  0  0  0  0
    5.5616   -5.7243   19.4094 C   0  0  0  0  0  0  0  0  0  0  0  0
    5.5012   -6.1477   18.4087 H   0  0  0  0  0  0  0  0  0  0  0  0
    5.3171   -6.5547   20.5104 C   0  0  0  0  0  0  0  0  0  0  0  0
    4.9863   -7.5763   20.3346 H   0  0  0  0  0  0  0  0  0  0  0  0
    5.4375   -6.0628   21.8151 C   0  0  0  0  0  0  0  0  0  0  0  0
    5.2667   -6.6890   22.6911 H   0  0  0  0  0  0  0  0  0  0  0  0
    5.7917   -4.7220   21.9970 C   0  0  0  0  0  0  0  0  0  0  0  0
    6.1493   -4.1811   23.6271 Cl  0  0  0  0  0  0  0  0  0  0  0  0
    5.4224    0.9562   20.1964 C   0  0  0  0  0  0  0  0  0  0  0  0
    4.9377    1.0609   21.1720 H   0  0  0  0  0  0  0  0  0  0  0  0
    4.7826    1.4179   19.0404 C   0  0  0  0  0  0  0  0  0  0  0  0
    3.8164    1.9071   19.0793 H   0  0  0  0  0  0  0  0  0  0  0  0
  1  2  1  0
  2  3  2  0
  3  4  1  0
  4  5  1  0
  4  6  2  0
  6  7  1  0
  7  8  1  1
  7  9  1  0
  7 10  1  0
 10 11  1  0
 10 12  1  0
 10 13  1  0
 13 14  1  0
 13 15  1  0
 13 16  1  0
 16 17  2  0
 17 18  1  0
 17 19  1  0
 19 20  1  0
 19 21  2  0
 21 22  1  0
 21 23  1  0
 23 24  1  0
 23 25  2  0
 25 26  1  0
  6 27  1  0
 27 28  1  0
 27 29  2  0
 29 30  1  0
 29  2  1  0
 25 16  1  0
M  END
>  <cnnaffinity>  (1) 
-5.03504

>  <filename>  (1) 
F[C@H](CCc1ccccc1Cl)c1cccnc1

$$$$
