
     RDKit          3D

 27 28  0  0  0  0  0  0  0  0999 V2000
    4.9674    1.8151   16.9572 H   0  0  0  0  0  0  0  0  0  0  0  0
    5.4080    1.2864   17.8002 C   0  0  0  0  0  0  0  0  0  0  0  0
    6.5686    0.6542   17.5680 N   0  0  0  0  0  0  0  0  0  0  0  0
    7.1575    0.0468   18.6062 C   0  0  0  0  0  0  0  0  0  0  0  0
    8.1003   -0.4556   18.3950 H   0  0  0  0  0  0  0  0  0  0  0  0
    6.6381    0.0365   19.9101 C   0  0  0  0  0  0  0  0  0  0  0  0
    7.3860   -0.6683   21.0279 C   0  0  1  0  0  0  0  0  0  0  0  0
    6.8268   -0.5523   21.9674 H   0  0  0  0  0  0  0  0  0  0  0  0
    7.3710   -2.0363   20.7318 F   0  0  0  0  0  0  0  0  0  0  0  0
    8.8432   -0.2409   21.2833 C   0  0  0  0  0  0  0  0  0  0  0  0
    9.9058   -1.0048   20.7678 C   0  0  0  0  0  0  0  0  0  0  0  0
    9.6908   -1.8940   20.1870 H   0  0  0  0  0  0  0  0  0  0  0  0
   11.2437   -0.6826   21.0278 C   0  0  0  0  0  0  0  0  0  0  0  0
   12.0190   -1.3514   20.6619 H   0  0  0  0  0  0  0  0  0  0  0  0
   11.5553    0.4701   21.7474 C   0  0  0  0  0  0  0  0  0  0  0  0
   12.5941    0.7457   21.9152 H   0  0  0  0  0  0  0  0  0  0  0  0
   10.5174    1.2491   22.2614 C   0  0  0  0  0  0  0  0  0  0  0  0
   10.7566    2.1604   22.8022 H   0  0  0  0  0  0  0  0  0  0  0  0
    9.1758    0.8693   22.0970 C   0  0  0  0  0  0  0  0  0  0  0  0
    8.1177    1.6414   22.8767 C   0  0  0  0  0  0  0  0  0  0  0  0
    7.4732    0.8240   23.7418 F   0  0  0  0  0  0  0  0  0  0  0  0
    8.6134    2.6579   23.6044 F   0  0  0  0  0  0  0  0  0  0  0  0
    7.1803    2.1678   22.0693 F   0  0  0  0  0  0  0  0  0  0  0  0
    5.3899    0.6452   20.1109 C   0  0  0  0  0  0  0  0  0  0  0  0
    4.9235    0.6507   21.0991 H   0  0  0  0  0  0  0  0  0  0  0  0
    4.7710    1.2928   19.0422 C   0  0  0  0  0  0  0  0  0  0  0  0
    3.8329    1.8250   19.1673 H   0  0  0  0  0  0  0  0  0  0  0  0
  1  2  1  0
  2  3  2  0
  3  4  1  0
  4  5  1  0
  4  6  2  0
  6  7  1  0
  7  8  1  1
  7  9  1  0
  7 10  1  0
 10 11  2  0
 11 12  1  0
 11 13  1  0
 13 14  1  0
 13 15  2  0
 15 16  1  0
 15 17  1  0
 17 18  1  0
 17 19  2  0
 19 20  1  0
 20 21  1  0
 20 22  1  0
 20 23  1  0
  6 24  1  0
 24 25  1  0
 24 26  2  0
 26 27  1  0
 26  2  1  0
 19 10  1  0
M  END
>  <cnnaffinity>  (1) 
-4.50699

>  <filename>  (1) 
F[C@H](c1cccnc1)c1ccccc1C(F)(F)F

$$$$
