
     RDKit          3D

 31 33  0  0  0  0  0  0  0  0999 V2000
    7.0899   -3.9144   23.4922 F   0  0  0  0  0  0  0  0  0  0  0  0
    8.0746   -3.9943   24.4038 C   0  0  0  0  0  0  0  0  0  0  0  0
    9.1587   -4.4900   23.7680 F   0  0  0  0  0  0  0  0  0  0  0  0
    7.6898   -4.9353   25.2868 F   0  0  0  0  0  0  0  0  0  0  0  0
    8.3891   -2.6681   25.0644 C   0  0  0  0  0  0  0  0  0  0  0  0
    8.7348   -2.6610   26.4233 C   0  0  0  0  0  0  0  0  0  0  0  0
    8.9842   -1.4607   27.0813 C   0  0  0  0  0  0  0  0  0  0  0  0
    8.9048   -0.2517   26.3931 C   0  0  0  0  0  0  0  0  0  0  0  0
    8.5950   -0.2501   25.0391 C   0  0  0  0  0  0  0  0  0  0  0  0
    8.3578   -1.4518   24.3487 C   0  0  0  0  0  0  0  0  0  0  0  0
    8.0954   -1.3644   22.9031 C   0  0  0  0  0  0  0  0  0  0  0  0
    7.2377   -0.4972   22.2765 C   0  0  0  0  0  0  0  0  0  0  0  0
    7.3653   -0.6879   20.9356 N   0  0  0  0  0  0  0  0  0  0  0  0
    6.6654    0.0010   19.9064 C   0  0  0  0  0  0  0  0  0  0  0  0
    5.4475    0.6486   20.1649 C   0  0  0  0  0  0  0  0  0  0  0  0
    4.8090    1.3083   19.1125 C   0  0  0  0  0  0  0  0  0  0  0  0
    5.4014    1.2904   17.8459 C   0  0  0  0  0  0  0  0  0  0  0  0
    6.5715    0.6786   17.5942 N   0  0  0  0  0  0  0  0  0  0  0  0
    7.1867    0.0540   18.6022 C   0  0  0  0  0  0  0  0  0  0  0  0
    8.1325   -0.4379   18.3809 H   0  0  0  0  0  0  0  0  0  0  0  0
    4.9074    1.7726   17.0048 H   0  0  0  0  0  0  0  0  0  0  0  0
    3.8734    1.8437   19.2694 H   0  0  0  0  0  0  0  0  0  0  0  0
    5.0029    0.6270   21.1568 H   0  0  0  0  0  0  0  0  0  0  0  0
    8.3041   -1.6239   20.6627 N   0  0  0  0  0  0  0  0  0  0  0  0
    8.7426   -2.0271   21.8424 C   0  0  0  0  0  0  0  0  0  0  0  0
    9.5238   -2.7630   21.9503 H   0  0  0  0  0  0  0  0  0  0  0  0
    6.5795    0.2436   22.7189 H   0  0  0  0  0  0  0  0  0  0  0  0
    8.5566    0.6909   24.4983 H   0  0  0  0  0  0  0  0  0  0  0  0
    9.0907    0.6840   26.9114 H   0  0  0  0  0  0  0  0  0  0  0  0
    9.2375   -1.4574   28.1337 H   0  0  0  0  0  0  0  0  0  0  0  0
    8.7995   -3.5909   26.9834 H   0  0  0  0  0  0  0  0  0  0  0  0
  1  2  1  0
  2  3  1  0
  2  4  1  0
  2  5  1  0
  5  6  2  0
  6  7  1  0
  7  8  2  0
  8  9  1  0
  9 10  2  0
 10 11  1  0
 11 12  2  0
 12 13  1  0
 13 14  1  0
 14 15  2  0
 15 16  1  0
 16 17  2  0
 17 18  1  0
 18 19  2  0
 19 20  1  0
 17 21  1  0
 16 22  1  0
 15 23  1  0
 13 24  1  0
 24 25  2  0
 25 26  1  0
 12 27  1  0
  9 28  1  0
  8 29  1  0
  7 30  1  0
  6 31  1  0
 10  5  1  0
 25 11  1  0
 19 14  1  0
M  END
>  <cnnaffinity>  (1) 
-5.35333

>  <filename>  (1) 
FC(F)(F)c1ccccc1-c1cnn(-c2cccnc2)c1

$$$$
