
     RDKit          3D

 30 32  0  0  0  0  0  0  0  0999 V2000
    4.9596    1.7980   16.9815 H   0  0  0  0  0  0  0  0  0  0  0  0
    5.4172    1.2843   17.8255 C   0  0  0  0  0  0  0  0  0  0  0  0
    6.5784    0.6564   17.5805 N   0  0  0  0  0  0  0  0  0  0  0  0
    7.1837    0.0410   18.6007 C   0  0  0  0  0  0  0  0  0  0  0  0
    8.1345   -0.4313   18.3582 H   0  0  0  0  0  0  0  0  0  0  0  0
    6.6647   -0.0043   19.9078 C   0  0  0  0  0  0  0  0  0  0  0  0
    7.3648   -0.7097   20.9916 C   0  0  0  0  0  0  0  0  0  0  0  0
    8.5709   -1.3403   20.8404 N   0  0  0  0  0  0  0  0  0  0  0  0
    8.9276   -1.8665   21.9631 N   0  0  0  0  0  0  0  0  0  0  0  0
    7.9773   -1.5939   22.8748 N   0  0  0  0  0  0  0  0  0  0  0  0
    8.0674   -2.0466   24.2292 C   0  0  0  0  0  0  0  0  0  0  0  0
    7.1476   -1.5733   25.1772 C   0  0  0  0  0  0  0  0  0  0  0  0
    6.3778   -0.8630   24.8897 H   0  0  0  0  0  0  0  0  0  0  0  0
    7.2203   -2.0331   26.4902 C   0  0  0  0  0  0  0  0  0  0  0  0
    6.4942   -1.6672   27.2140 H   0  0  0  0  0  0  0  0  0  0  0  0
    8.1769   -2.9858   26.8497 C   0  0  0  0  0  0  0  0  0  0  0  0
    8.2422   -3.3235   27.8767 H   0  0  0  0  0  0  0  0  0  0  0  0
    9.0616   -3.5059   25.8869 C   0  0  0  0  0  0  0  0  0  0  0  0
   10.0030   -4.6477   26.2569 C   0  0  0  0  0  0  0  0  0  0  0  0
   10.1928   -4.7452   27.5863 F   0  0  0  0  0  0  0  0  0  0  0  0
    9.5284   -5.8447   25.8572 F   0  0  0  0  0  0  0  0  0  0  0  0
   11.2091   -4.4938   25.6821 F   0  0  0  0  0  0  0  0  0  0  0  0
    9.0395   -2.9877   24.5821 C   0  0  0  0  0  0  0  0  0  0  0  0
    9.7566   -3.2675   23.8118 H   0  0  0  0  0  0  0  0  0  0  0  0
    6.9829   -0.8776   22.2961 C   0  0  0  0  0  0  0  0  0  0  0  0
    6.1160   -0.5611   22.8482 H   0  0  0  0  0  0  0  0  0  0  0  0
    5.4427    0.6529   20.1435 C   0  0  0  0  0  0  0  0  0  0  0  0
    4.9852    0.6695   21.1339 H   0  0  0  0  0  0  0  0  0  0  0  0
    4.8158    1.3033   19.0857 C   0  0  0  0  0  0  0  0  0  0  0  0
    3.8821    1.8343   19.2301 H   0  0  0  0  0  0  0  0  0  0  0  0
  1  2  1  0
  2  3  2  0
  3  4  1  0
  4  5  1  0
  4  6  2  0
  6  7  1  0
  7  8  1  0
  8  9  2  0
  9 10  1  0
 10 11  1  0
 11 12  2  0
 12 13  1  0
 12 14  1  0
 14 15  1  0
 14 16  2  0
 16 17  1  0
 16 18  1  0
 18 19  1  0
 19 20  1  0
 19 21  1  0
 19 22  1  0
 18 23  2  0
 23 24  1  0
 10 25  1  0
 25 26  1  0
  6 27  1  0
 27 28  1  0
 27 29  2  0
 29 30  1  0
 29  2  1  0
 25  7  2  0
 23 11  1  0
M  END
>  <cnnaffinity>  (1) 
-5.02906

>  <filename>  (1) 
FC(F)(F)c1cccc(-n2cc(-c3cccnc3)nn2)c1

$$$$
