
     RDKit          3D

 28 30  0  0  0  0  0  0  0  0999 V2000
    5.6594   -3.6401   23.6870 H   0  0  0  0  0  0  0  0  0  0  0  0
    6.7432   -3.5670   23.6748 C   0  0  0  0  0  0  0  0  0  0  0  0
    7.2713   -2.6823   22.8297 N   0  0  0  0  0  0  0  0  0  0  0  0
    8.5925   -2.6015   22.8361 C   0  0  0  0  0  0  0  0  0  0  0  0
    9.1845   -1.6726   21.9705 N   0  0  0  0  0  0  0  0  0  0  0  0
   10.5456   -1.4870   21.8558 N   0  0  0  0  0  0  0  0  0  0  0  0
   10.7025   -0.5762   20.9852 N   0  0  0  0  0  0  0  0  0  0  0  0
    9.5231   -0.1321   20.4894 N   0  0  0  0  0  0  0  0  0  0  0  0
    8.6002   -0.8111   21.1112 C   0  0  0  0  0  0  0  0  0  0  0  0
    7.2799   -0.6887   20.9658 O   0  0  0  0  0  0  0  0  0  0  0  0
    6.6976    0.0233   19.9069 C   0  0  0  0  0  0  0  0  0  0  0  0
    7.1954    0.0580   18.5861 C   0  0  0  0  0  0  0  0  0  0  0  0
    8.1413   -0.4206   18.3536 H   0  0  0  0  0  0  0  0  0  0  0  0
    6.5560    0.6658   17.5782 N   0  0  0  0  0  0  0  0  0  0  0  0
    5.3995    1.2893   17.8431 C   0  0  0  0  0  0  0  0  0  0  0  0
    4.9159    1.7841   17.0024 H   0  0  0  0  0  0  0  0  0  0  0  0
    4.8258    1.2975   19.1197 C   0  0  0  0  0  0  0  0  0  0  0  0
    3.8931    1.8254   19.2711 H   0  0  0  0  0  0  0  0  0  0  0  0
    5.4726    0.6411   20.1737 C   0  0  0  0  0  0  0  0  0  0  0  0
    5.0453    0.6039   21.1770 H   0  0  0  0  0  0  0  0  0  0  0  0
    9.4227   -3.3230   23.5797 N   0  0  0  0  0  0  0  0  0  0  0  0
    8.8871   -4.2123   24.4252 C   0  0  0  0  0  0  0  0  0  0  0  0
    9.8030   -5.1000   25.3440 C   0  0  0  0  0  0  0  0  0  0  0  0
   11.1033   -4.8636   25.1818 F   0  0  0  0  0  0  0  0  0  0  0  0
    9.5852   -6.4119   25.1067 F   0  0  0  0  0  0  0  0  0  0  0  0
    9.5032   -4.9104   26.6475 F   0  0  0  0  0  0  0  0  0  0  0  0
    7.5029   -4.3794   24.5101 C   0  0  0  0  0  0  0  0  0  0  0  0
    7.0438   -5.0920   25.1823 H   0  0  0  0  0  0  0  0  0  0  0  0
  1  2  1  0
  2  3  2  0
  3  4  1  0
  4  5  1  0
  5  6  1  0
  6  7  2  0
  7  8  1  0
  8  9  2  0
  9 10  1  0
 10 11  1  0
 11 12  2  0
 12 13  1  0
 12 14  1  0
 14 15  2  0
 15 16  1  0
 15 17  1  0
 17 18  1  0
 17 19  2  0
 19 20  1  0
  4 21  2  0
 21 22  1  0
 22 23  1  0
 23 24  1  0
 23 25  1  0
 23 26  1  0
 22 27  2  0
 27 28  1  0
 27  2  1  0
  9  5  1  0
 19 11  1  0
M  END
>  <cnnaffinity>  (1) 
-5.37518

>  <filename>  (1) 
FC(F)(F)c1ccnc(-n2nnnc2Oc2cccnc2)n1

$$$$
