
     RDKit          3D

 23 24  0  0  0  0  0  0  0  0999 V2000
    4.9254    1.7753   17.0028 H   0  0  0  0  0  0  0  0  0  0  0  0
    5.4082    1.2853   17.8468 C   0  0  0  0  0  0  0  0  0  0  0  0
    6.5676    0.6634   17.5892 N   0  0  0  0  0  0  0  0  0  0  0  0
    7.1871    0.0669   18.6082 C   0  0  0  0  0  0  0  0  0  0  0  0
    8.1282   -0.4209   18.3724 H   0  0  0  0  0  0  0  0  0  0  0  0
    6.6806    0.0172   19.9127 C   0  0  0  0  0  0  0  0  0  0  0  0
    7.4385   -0.7000   20.9560 C   0  0  0  0  0  0  0  0  0  0  0  0
    8.7787   -0.6722   20.8874 N   0  0  0  0  0  0  0  0  0  0  0  0
    9.4499   -1.2807   21.8708 C   0  0  0  0  0  0  0  0  0  0  0  0
   10.5267   -1.2289   21.8168 H   0  0  0  0  0  0  0  0  0  0  0  0
    8.8552   -1.9876   22.9184 C   0  0  0  0  0  0  0  0  0  0  0  0
    9.4664   -2.4708   23.6701 H   0  0  0  0  0  0  0  0  0  0  0  0
    7.4567   -2.0706   22.9657 C   0  0  0  0  0  0  0  0  0  0  0  0
    6.7301   -2.7873   24.0961 C   0  0  0  0  0  0  0  0  0  0  0  0
    7.4702   -3.7841   24.6150 F   0  0  0  0  0  0  0  0  0  0  0  0
    6.4405   -1.9461   25.1059 F   0  0  0  0  0  0  0  0  0  0  0  0
    5.5651   -3.3275   23.6903 F   0  0  0  0  0  0  0  0  0  0  0  0
    6.7549   -1.3994   21.9629 C   0  0  0  0  0  0  0  0  0  0  0  0
    5.6786   -1.4325   21.9113 H   0  0  0  0  0  0  0  0  0  0  0  0
    5.4488    0.6458   20.1653 C   0  0  0  0  0  0  0  0  0  0  0  0
    5.0051    0.6420   21.1656 H   0  0  0  0  0  0  0  0  0  0  0  0
    4.8150    1.3048   19.1141 C   0  0  0  0  0  0  0  0  0  0  0  0
    3.8788    1.8385   19.2609 H   0  0  0  0  0  0  0  0  0  0  0  0
  1  2  1  0
  2  3  2  0
  3  4  1  0
  4  5  1  0
  4  6  2  0
  6  7  1  0
  7  8  2  0
  8  9  1  0
  9 10  1  0
  9 11  2  0
 11 12  1  0
 11 13  1  0
 13 14  1  0
 14 15  1  0
 14 16  1  0
 14 17  1  0
 13 18  2  0
 18 19  1  0
  6 20  1  0
 20 21  1  0
 20 22  2  0
 22 23  1  0
 22  2  1  0
 18  7  1  0
M  END
>  <cnnaffinity>  (1) 
-4.48484

>  <filename>  (1) 
FC(F)(F)c1ccnc(-c2cccnc2)c1

$$$$
