
     RDKit          3D

 30 32  0  0  0  0  0  0  0  0999 V2000
    4.9389    1.7982   16.9487 H   0  0  0  0  0  0  0  0  0  0  0  0
    5.3920    1.3078   17.8046 C   0  0  0  0  0  0  0  0  0  0  0  0
    6.5609    0.6847   17.5795 N   0  0  0  0  0  0  0  0  0  0  0  0
    7.1455    0.0922   18.6286 C   0  0  0  0  0  0  0  0  0  0  0  0
    8.0962   -0.4004   18.4172 H   0  0  0  0  0  0  0  0  0  0  0  0
    6.6171    0.0860   19.9354 C   0  0  0  0  0  0  0  0  0  0  0  0
    7.3112   -0.6521   21.0084 C   0  0  0  0  0  0  0  0  0  0  0  0
    7.6460   -1.9802   20.9964 C   0  0  0  0  0  0  0  0  0  0  0  0
    7.3661   -2.6574   20.2128 H   0  0  0  0  0  0  0  0  0  0  0  0
    8.2705   -2.2340   22.2323 C   0  0  0  0  0  0  0  0  0  0  0  0
    8.6962   -3.1450   22.6326 H   0  0  0  0  0  0  0  0  0  0  0  0
    8.2973   -1.1550   22.9874 N   0  0  0  0  0  0  0  0  0  0  0  0
    7.7074   -0.1780   22.2437 N   0  0  0  0  0  0  0  0  0  0  0  0
    7.4698    1.0956   22.8042 C   0  0  0  0  0  0  0  0  0  0  0  0
    7.4593    2.1290   21.9569 N   0  0  0  0  0  0  0  0  0  0  0  0
    7.2219    3.3363   22.4532 C   0  0  0  0  0  0  0  0  0  0  0  0
    7.1798    4.1505   21.7372 H   0  0  0  0  0  0  0  0  0  0  0  0
    7.0066    3.5719   23.8072 C   0  0  0  0  0  0  0  0  0  0  0  0
    6.8563    4.9804   24.2538 C   0  0  0  0  0  0  0  0  0  0  0  0
    8.0535    5.5383   24.5249 F   0  0  0  0  0  0  0  0  0  0  0  0
    6.1102    5.0833   25.3696 F   0  0  0  0  0  0  0  0  0  0  0  0
    6.2748    5.7463   23.3097 F   0  0  0  0  0  0  0  0  0  0  0  0
    7.0195    2.4922   24.7083 C   0  0  0  0  0  0  0  0  0  0  0  0
    6.8442    2.6412   25.7760 H   0  0  0  0  0  0  0  0  0  0  0  0
    7.2508    1.2326   24.1942 C   0  0  0  0  0  0  0  0  0  0  0  0
    7.2738    0.3533   24.8261 H   0  0  0  0  0  0  0  0  0  0  0  0
    5.3701    0.7058   20.1304 C   0  0  0  0  0  0  0  0  0  0  0  0
    4.9141    0.6979   21.1222 H   0  0  0  0  0  0  0  0  0  0  0  0
    4.7563    1.3361   19.0500 C   0  0  0  0  0  0  0  0  0  0  0  0
    3.8061    1.8471   19.1657 H   0  0  0  0  0  0  0  0  0  0  0  0
  1  2  1  0
  2  3  2  0
  3  4  1  0
  4  5  1  0
  4  6  2  0
  6  7  1  0
  7  8  2  0
  8  9  1  0
  8 10  1  0
 10 11  1  0
 10 12  2  0
 12 13  1  0
 13 14  1  0
 14 15  2  0
 15 16  1  0
 16 17  1  0
 16 18  2  0
 18 19  1  0
 19 20  1  0
 19 21  1  0
 19 22  1  0
 18 23  1  0
 23 24  1  0
 23 25  2  0
 25 26  1  0
  6 27  1  0
 27 28  1  0
 27 29  2  0
 29 30  1  0
 29  2  1  0
 13  7  1  0
 25 14  1  0
M  END
>  <cnnaffinity>  (1) 
-5.02314

>  <filename>  (1) 
FC(F)(F)c1ccc(-n2nccc2-c2cccnc2)nc1

$$$$
