
     RDKit          3D

 30 32  0  0  0  0  0  0  0  0999 V2000
    4.9340    1.7952   16.9765 H   0  0  0  0  0  0  0  0  0  0  0  0
    5.3963    1.2974   17.8275 C   0  0  0  0  0  0  0  0  0  0  0  0
    6.5584    0.6746   17.5747 N   0  0  0  0  0  0  0  0  0  0  0  0
    7.1629    0.0615   18.5950 C   0  0  0  0  0  0  0  0  0  0  0  0
    8.1053   -0.4217   18.3312 H   0  0  0  0  0  0  0  0  0  0  0  0
    6.6492    0.0164   19.8967 C   0  0  0  0  0  0  0  0  0  0  0  0
    7.3418   -0.6876   20.9743 C   0  0  0  0  0  0  0  0  0  0  0  0
    6.8183   -0.9798   22.1440 N   0  0  0  0  0  0  0  0  0  0  0  0
    7.8208   -1.5856   22.8114 C   0  0  0  0  0  0  0  0  0  0  0  0
    7.6594   -2.0768   24.2025 C   0  0  0  0  0  0  0  0  0  0  0  0
    6.7577   -1.3788   25.0372 C   0  0  0  0  0  0  0  0  0  0  0  0
    6.1691   -0.5587   24.6147 H   0  0  0  0  0  0  0  0  0  0  0  0
    6.6141   -1.7488   26.3729 C   0  0  0  0  0  0  0  0  0  0  0  0
    5.9307   -1.2110   27.0242 H   0  0  0  0  0  0  0  0  0  0  0  0
    7.3488   -2.8308   26.8572 C   0  0  0  0  0  0  0  0  0  0  0  0
    7.2141   -3.2349   27.8403 H   0  0  0  0  0  0  0  0  0  0  0  0
    8.2327   -3.5239   26.0494 C   0  0  0  0  0  0  0  0  0  0  0  0
    8.7894   -4.3490   26.4831 H   0  0  0  0  0  0  0  0  0  0  0  0
    8.3825   -3.1942   24.7013 C   0  0  0  0  0  0  0  0  0  0  0  0
    9.3166   -4.0650   23.8552 C   0  0  0  0  0  0  0  0  0  0  0  0
    8.7424   -4.4292   22.6920 F   0  0  0  0  0  0  0  0  0  0  0  0
    9.6529   -5.2115   24.4847 F   0  0  0  0  0  0  0  0  0  0  0  0
   10.4634   -3.4257   23.5817 F   0  0  0  0  0  0  0  0  0  0  0  0
    8.9560   -1.6877   22.1311 N   0  0  0  0  0  0  0  0  0  0  0  0
    8.6203   -1.1116   20.9566 N   0  0  0  0  0  0  0  0  0  0  0  0
    9.3157   -0.9884   20.2361 H   0  0  0  0  0  0  0  0  0  0  0  0
    5.4264    0.6624   20.1481 C   0  0  0  0  0  0  0  0  0  0  0  0
    4.9994    0.6401   21.1534 H   0  0  0  0  0  0  0  0  0  0  0  0
    4.7986    1.3173   19.0927 C   0  0  0  0  0  0  0  0  0  0  0  0
    3.8666    1.8495   19.2331 H   0  0  0  0  0  0  0  0  0  0  0  0
  1  2  1  0
  2  3  2  0
  3  4  1  0
  4  5  1  0
  4  6  2  0
  6  7  1  0
  7  8  2  0
  8  9  1  0
  9 10  1  0
 10 11  2  0
 11 12  1  0
 11 13  1  0
 13 14  1  0
 13 15  2  0
 15 16  1  0
 15 17  1  0
 17 18  1  0
 17 19  2  0
 19 20  1  0
 20 21  1  0
 20 22  1  0
 20 23  1  0
  9 24  2  0
 24 25  1  0
 25 26  1  0
  6 27  1  0
 27 28  1  0
 27 29  2  0
 29 30  1  0
 29  2  1  0
 25  7  1  0
 19 10  1  0
M  END
>  <cnnaffinity>  (1) 
-5.29367

>  <filename>  (1) 
FC(F)(F)c1ccccc1-c1n[nH]c(-c2cccnc2)n1

$$$$
