
     RDKit          3D

 33 35  0  0  0  0  0  0  0  0999 V2000
    4.9096    1.7716   17.0069 H   0  0  0  0  0  0  0  0  0  0  0  0
    5.4048    1.2883   17.8478 C   0  0  0  0  0  0  0  0  0  0  0  0
    6.5729    0.6799   17.5921 N   0  0  0  0  0  0  0  0  0  0  0  0
    7.1808    0.0510   18.6032 C   0  0  0  0  0  0  0  0  0  0  0  0
    8.1275   -0.4363   18.3790 H   0  0  0  0  0  0  0  0  0  0  0  0
    6.6624   -0.0048   19.9053 C   0  0  0  0  0  0  0  0  0  0  0  0
    7.4061   -0.7313   20.9643 C   0  0  0  0  0  0  0  0  0  0  0  0
    8.0995   -1.8226   20.5968 N   0  0  0  0  0  0  0  0  0  0  0  0
    8.7486   -2.5028   21.5513 C   0  0  0  0  0  0  0  0  0  0  0  0
    9.2955   -3.3857   21.2451 H   0  0  0  0  0  0  0  0  0  0  0  0
    8.7751   -2.1198   22.8880 C   0  0  0  0  0  0  0  0  0  0  0  0
    9.3182   -2.7097   23.6185 H   0  0  0  0  0  0  0  0  0  0  0  0
    8.0752   -0.9697   23.2750 C   0  0  0  0  0  0  0  0  0  0  0  0
    8.0672   -0.5127   24.6849 C   0  0  0  0  0  0  0  0  0  0  0  0
    9.2404   -0.5665   25.4549 C   0  0  0  0  0  0  0  0  0  0  0  0
   10.1660   -0.9273   25.0119 H   0  0  0  0  0  0  0  0  0  0  0  0
    9.2320   -0.1464   26.7825 C   0  0  0  0  0  0  0  0  0  0  0  0
   10.1402   -0.2014   27.3723 H   0  0  0  0  0  0  0  0  0  0  0  0
    8.0597    0.3406   27.3609 C   0  0  0  0  0  0  0  0  0  0  0  0
    8.0692    0.6521   28.4014 H   0  0  0  0  0  0  0  0  0  0  0  0
    6.8892    0.4205   26.5954 C   0  0  0  0  0  0  0  0  0  0  0  0
    5.6079    0.9019   27.2232 C   0  0  0  0  0  0  0  0  0  0  0  0
    4.7973    1.5132   26.3392 F   0  0  0  0  0  0  0  0  0  0  0  0
    4.9101   -0.1259   27.7428 F   0  0  0  0  0  0  0  0  0  0  0  0
    5.8191    1.7762   28.2240 F   0  0  0  0  0  0  0  0  0  0  0  0
    6.8883   -0.0203   25.2673 C   0  0  0  0  0  0  0  0  0  0  0  0
    5.9713   -0.0087   24.6792 H   0  0  0  0  0  0  0  0  0  0  0  0
    7.3807   -0.2692   22.2868 C   0  0  0  0  0  0  0  0  0  0  0  0
    6.8593    0.6499   22.5353 H   0  0  0  0  0  0  0  0  0  0  0  0
    5.4490    0.6507   20.1617 C   0  0  0  0  0  0  0  0  0  0  0  0
    5.0048    0.6291   21.1577 H   0  0  0  0  0  0  0  0  0  0  0  0
    4.8064    1.3076   19.1133 C   0  0  0  0  0  0  0  0  0  0  0  0
    3.8715    1.8455   19.2675 H   0  0  0  0  0  0  0  0  0  0  0  0
  1  2  1  0
  2  3  2  0
  3  4  1  0
  4  5  1  0
  4  6  2  0
  6  7  1  0
  7  8  2  0
  8  9  1  0
  9 10  1  0
  9 11  2  0
 11 12  1  0
 11 13  1  0
 13 14  1  0
 14 15  2  0
 15 16  1  0
 15 17  1  0
 17 18  1  0
 17 19  2  0
 19 20  1  0
 19 21  1  0
 21 22  1  0
 22 23  1  0
 22 24  1  0
 22 25  1  0
 21 26  2  0
 26 27  1  0
 13 28  2  0
 28 29  1  0
  6 30  1  0
 30 31  1  0
 30 32  2  0
 32 33  1  0
 32  2  1  0
 28  7  1  0
 26 14  1  0
M  END
>  <cnnaffinity>  (1) 
-5.18565

>  <filename>  (1) 
FC(F)(F)c1cccc(-c2ccnc(-c3cccnc3)c2)c1

$$$$
