
     RDKit          3D

 34 36  0  0  0  0  0  0  0  0999 V2000
    4.9115    1.8044   16.9748 H   0  0  0  0  0  0  0  0  0  0  0  0
    5.3858    1.3067   17.8185 C   0  0  0  0  0  0  0  0  0  0  0  0
    6.5496    0.6906   17.5500 N   0  0  0  0  0  0  0  0  0  0  0  0
    7.1566    0.0655   18.5667 C   0  0  0  0  0  0  0  0  0  0  0  0
    8.1142   -0.3968   18.3284 H   0  0  0  0  0  0  0  0  0  0  0  0
    6.6524    0.0141   19.8845 C   0  0  0  0  0  0  0  0  0  0  0  0
    7.3732   -0.6526   20.9772 C   0  0  0  0  0  0  0  0  0  0  0  0
    7.5156   -0.3207   22.3252 C   0  0  0  0  0  0  0  0  0  0  0  0
    7.0199    0.8299   22.9475 N   0  0  0  0  0  0  0  0  0  0  0  0
    6.9819    1.6434   22.3554 H   0  0  0  0  0  0  0  0  0  0  0  0
    6.8179    1.0387   24.3140 C   0  0  0  0  0  0  0  0  0  0  0  0
    6.3521   -0.0012   25.1297 C   0  0  0  0  0  0  0  0  0  0  0  0
    6.1756   -0.9569   24.6498 H   0  0  0  0  0  0  0  0  0  0  0  0
    6.1415    0.1992   26.4925 C   0  0  0  0  0  0  0  0  0  0  0  0
    5.7927   -0.6059   27.1288 H   0  0  0  0  0  0  0  0  0  0  0  0
    6.3847    1.4576   27.0491 C   0  0  0  0  0  0  0  0  0  0  0  0
    6.1288    1.5461   28.4194 O   0  0  0  0  0  0  0  0  0  0  0  0
    6.2981    2.6860   29.1195 C   0  0  0  0  0  0  0  0  0  0  0  0
    5.5257    3.6954   28.6775 F   0  0  0  0  0  0  0  0  0  0  0  0
    7.5609    3.1392   29.0880 F   0  0  0  0  0  0  0  0  0  0  0  0
    5.9741    2.4180   30.3788 F   0  0  0  0  0  0  0  0  0  0  0  0
    6.8346    2.5139   26.2553 C   0  0  0  0  0  0  0  0  0  0  0  0
    7.0121    3.4895   26.6930 H   0  0  0  0  0  0  0  0  0  0  0  0
    7.0385    2.2968   24.8862 C   0  0  0  0  0  0  0  0  0  0  0  0
    7.3940    3.1040   24.2524 H   0  0  0  0  0  0  0  0  0  0  0  0
    8.2930   -1.3774   22.8684 C   0  0  0  0  0  0  0  0  0  0  0  0
    8.6309   -1.4755   23.8922 H   0  0  0  0  0  0  0  0  0  0  0  0
    8.6054   -2.2891   21.9542 N   0  0  0  0  0  0  0  0  0  0  0  0
    8.0493   -1.8223   20.8277 N   0  0  0  0  0  0  0  0  0  0  0  0
    8.1296   -2.3665   19.9777 H   0  0  0  0  0  0  0  0  0  0  0  0
    5.4324    0.6618   20.1374 C   0  0  0  0  0  0  0  0  0  0  0  0
    5.0165    0.6279   21.1471 H   0  0  0  0  0  0  0  0  0  0  0  0
    4.7927    1.3196   19.0859 C   0  0  0  0  0  0  0  0  0  0  0  0
    3.8633    1.8494   19.2404 H   0  0  0  0  0  0  0  0  0  0  0  0
  1  2  1  0
  2  3  2  0
  3  4  1  0
  4  5  1  0
  4  6  2  0
  6  7  1  0
  7  8  2  0
  8  9  1  0
  9 10  1  0
  9 11  1  0
 11 12  2  0
 12 13  1  0
 12 14  1  0
 14 15  1  0
 14 16  2  0
 16 17  1  0
 17 18  1  0
 18 19  1  0
 18 20  1  0
 18 21  1  0
 16 22  1  0
 22 23  1  0
 22 24  2  0
 24 25  1  0
  8 26  1  0
 26 27  1  0
 26 28  2  0
 28 29  1  0
 29 30  1  0
  6 31  1  0
 31 32  1  0
 31 33  2  0
 33 34  1  0
 33  2  1  0
 29  7  1  0
 24 11  1  0
M  END
>  <cnnaffinity>  (1) 
-5.55013

>  <filename>  (1) 
FC(F)(F)Oc1ccc(Nc2cn[nH]c2-c2cccnc2)cc1

$$$$
