
     RDKit          3D

 30 32  0  0  0  0  0  0  0  0999 V2000
    9.3468   -4.4310   26.1298 H   0  0  0  0  0  0  0  0  0  0  0  0
    8.4686   -4.1898   25.5336 C   0  0  0  0  0  0  0  0  0  0  0  0
    8.6615   -3.3170   24.5439 N   0  0  0  0  0  0  0  0  0  0  0  0
    7.5812   -3.0216   23.8085 C   0  0  0  0  0  0  0  0  0  0  0  0
    7.7011   -2.0632   22.6874 C   0  0  0  0  0  0  0  0  0  0  0  0
    6.7488   -1.6144   21.8339 C   0  0  0  0  0  0  0  0  0  0  0  0
    5.6943   -1.8644   21.7660 H   0  0  0  0  0  0  0  0  0  0  0  0
    7.3352   -0.7067   20.9632 N   0  0  0  0  0  0  0  0  0  0  0  0
    6.6526   -0.0166   19.9110 C   0  0  0  0  0  0  0  0  0  0  0  0
    7.1720    0.0404   18.6011 C   0  0  0  0  0  0  0  0  0  0  0  0
    8.1243   -0.4284   18.3656 H   0  0  0  0  0  0  0  0  0  0  0  0
    6.5584    0.6636   17.5896 N   0  0  0  0  0  0  0  0  0  0  0  0
    5.3997    1.2903   17.8437 C   0  0  0  0  0  0  0  0  0  0  0  0
    4.9264    1.7869   16.9968 H   0  0  0  0  0  0  0  0  0  0  0  0
    4.8151    1.3056   19.1137 C   0  0  0  0  0  0  0  0  0  0  0  0
    3.8846    1.8381   19.2608 H   0  0  0  0  0  0  0  0  0  0  0  0
    5.4460    0.6366   20.1682 C   0  0  0  0  0  0  0  0  0  0  0  0
    5.0307    0.6280   21.1772 H   0  0  0  0  0  0  0  0  0  0  0  0
    8.6667   -0.5313   21.3008 C   0  0  0  0  0  0  0  0  0  0  0  0
    9.8084    0.5110   20.7142 S   0  0  0  0  0  0  0  0  0  0  0  0
    8.8706   -1.4015   22.3119 N   0  0  0  0  0  0  0  0  0  0  0  0
    9.7880   -1.4441   22.7346 H   0  0  0  0  0  0  0  0  0  0  0  0
    6.3541   -3.5249   23.9810 N   0  0  0  0  0  0  0  0  0  0  0  0
    6.1645   -4.3904   24.9764 C   0  0  0  0  0  0  0  0  0  0  0  0
    4.7414   -4.9889   25.2075 C   0  0  0  0  0  0  0  0  0  0  0  0
    4.3117   -4.7098   26.4560 F   0  0  0  0  0  0  0  0  0  0  0  0
    3.8120   -4.5497   24.3539 F   0  0  0  0  0  0  0  0  0  0  0  0
    4.7802   -6.3350   25.1082 F   0  0  0  0  0  0  0  0  0  0  0  0
    7.2270   -4.7674   25.8017 C   0  0  0  0  0  0  0  0  0  0  0  0
    7.1044   -5.4727   26.6095 H   0  0  0  0  0  0  0  0  0  0  0  0
  1  2  1  0
  2  3  2  0
  3  4  1  0
  4  5  1  0
  5  6  2  0
  6  7  1  0
  6  8  1  0
  8  9  1  0
  9 10  2  0
 10 11  1  0
 10 12  1  0
 12 13  2  0
 13 14  1  0
 13 15  1  0
 15 16  1  0
 15 17  2  0
 17 18  1  0
  8 19  1  0
 19 20  2  0
 19 21  1  0
 21 22  1  0
  4 23  2  0
 23 24  1  0
 24 25  1  0
 25 26  1  0
 25 27  1  0
 25 28  1  0
 24 29  2  0
 29 30  1  0
 29  2  1  0
 21  5  1  0
 17  9  1  0
M  END
>  <cnnaffinity>  (1) 
-5.68476

>  <filename>  (1) 
FC(F)(F)c1ccnc(-c2cn(-c3cccnc3)c(=S)[nH]2)n1

$$$$
