
     RDKit          3D

 29 31  0  0  0  0  0  0  0  0999 V2000
    9.2303   -1.5270   20.0985 H   0  0  0  0  0  0  0  0  0  0  0  0
    8.5704   -1.3796   20.9420 C   0  0  0  0  0  0  0  0  0  0  0  0
    8.8247   -1.8723   22.1954 N   0  0  0  0  0  0  0  0  0  0  0  0
    7.8034   -1.4652   22.9035 C   0  0  0  0  0  0  0  0  0  0  0  0
    7.5742   -1.7229   24.3730 C   0  0  0  0  0  0  0  0  0  0  0  0
    6.6631   -0.9348   24.9677 N   0  0  0  0  0  0  0  0  0  0  0  0
    6.4562   -1.0679   26.2702 C   0  0  0  0  0  0  0  0  0  0  0  0
    5.7140   -0.4147   26.7231 H   0  0  0  0  0  0  0  0  0  0  0  0
    7.1382   -1.9891   27.0577 C   0  0  0  0  0  0  0  0  0  0  0  0
    6.8815   -1.9886   28.0952 H   0  0  0  0  0  0  0  0  0  0  0  0
    8.0735   -2.8346   26.4832 C   0  0  0  0  0  0  0  0  0  0  0  0
    8.6203   -3.5752   27.0792 H   0  0  0  0  0  0  0  0  0  0  0  0
    8.2876   -2.7170   25.0998 C   0  0  0  0  0  0  0  0  0  0  0  0
    9.2827   -3.6537   24.4344 C   0  0  0  0  0  0  0  0  0  0  0  0
   10.3842   -3.0064   24.0296 F   0  0  0  0  0  0  0  0  0  0  0  0
    9.6992   -4.6290   25.2722 F   0  0  0  0  0  0  0  0  0  0  0  0
    8.7495   -4.2788   23.3710 F   0  0  0  0  0  0  0  0  0  0  0  0
    6.8985   -0.7592   22.1917 O   0  0  0  0  0  0  0  0  0  0  0  0
    7.3950   -0.7010   20.9257 C   0  0  0  0  0  0  0  0  0  0  0  0
    6.6483    0.0136   19.9039 C   0  0  0  0  0  0  0  0  0  0  0  0
    7.1588    0.0693   18.5954 C   0  0  0  0  0  0  0  0  0  0  0  0
    8.1043   -0.4145   18.3653 H   0  0  0  0  0  0  0  0  0  0  0  0
    6.5592    0.6803   17.5726 N   0  0  0  0  0  0  0  0  0  0  0  0
    5.3966    1.2953   17.8375 C   0  0  0  0  0  0  0  0  0  0  0  0
    4.9207    1.7835   16.9922 H   0  0  0  0  0  0  0  0  0  0  0  0
    4.7985    1.3143   19.1042 C   0  0  0  0  0  0  0  0  0  0  0  0
    3.8674    1.8478   19.2522 H   0  0  0  0  0  0  0  0  0  0  0  0
    5.4239    0.6596   20.1639 C   0  0  0  0  0  0  0  0  0  0  0  0
    4.9939    0.6407   21.1690 H   0  0  0  0  0  0  0  0  0  0  0  0
  1  2  1  0
  2  3  1  0
  3  4  2  0
  4  5  1  0
  5  6  2  0
  6  7  1  0
  7  8  1  0
  7  9  2  0
  9 10  1  0
  9 11  1  0
 11 12  1  0
 11 13  2  0
 13 14  1  0
 14 15  1  0
 14 16  1  0
 14 17  1  0
  4 18  1  0
 18 19  1  0
 19 20  1  0
 20 21  2  0
 21 22  1  0
 21 23  1  0
 23 24  2  0
 24 25  1  0
 24 26  1  0
 26 27  1  0
 26 28  2  0
 28 29  1  0
 19  2  2  0
 28 20  1  0
 13  5  1  0
M  END
>  <cnnaffinity>  (1) 
-5.28403

>  <filename>  (1) 
FC(F)(F)c1cccnc1-c1ncc(-c2cccnc2)o1

$$$$
