
     RDKit          3D

 27 28  0  0  0  0  0  0  0  0999 V2000
    4.9245    1.7893   16.9867 H   0  0  0  0  0  0  0  0  0  0  0  0
    5.3978    1.2969   17.8322 C   0  0  0  0  0  0  0  0  0  0  0  0
    6.5642    0.6818   17.5736 N   0  0  0  0  0  0  0  0  0  0  0  0
    7.1626    0.0494   18.5898 C   0  0  0  0  0  0  0  0  0  0  0  0
    8.1161   -0.4292   18.3761 H   0  0  0  0  0  0  0  0  0  0  0  0
    6.6308   -0.0166   19.8857 C   0  0  0  0  0  0  0  0  0  0  0  0
    7.6231   -0.7738   21.1740 S   0  0  0  0  0  0  0  0  0  0  0  0
    8.4437    0.5974   21.7351 N   0  0  0  0  0  0  0  0  0  0  0  0
    9.1956    0.8806   21.1305 H   0  0  0  0  0  0  0  0  0  0  0  0
    7.8369    1.6558   22.4413 C   0  0  0  0  0  0  0  0  0  0  0  0
    7.7934    2.9302   21.8614 C   0  0  0  0  0  0  0  0  0  0  0  0
    8.3066    3.0188   20.9134 H   0  0  0  0  0  0  0  0  0  0  0  0
    7.1279    3.9868   22.4922 C   0  0  0  0  0  0  0  0  0  0  0  0
    7.0709    4.9654   22.0201 H   0  0  0  0  0  0  0  0  0  0  0  0
    6.5436    3.7755   23.7458 C   0  0  0  0  0  0  0  0  0  0  0  0
    6.0376    4.5833   24.2686 H   0  0  0  0  0  0  0  0  0  0  0  0
    6.6341    2.5218   24.3466 C   0  0  0  0  0  0  0  0  0  0  0  0
    6.1988    2.3531   25.3284 H   0  0  0  0  0  0  0  0  0  0  0  0
    7.2989    1.4596   23.7138 C   0  0  0  0  0  0  0  0  0  0  0  0
    7.4221    0.1157   24.3878 C   0  0  0  0  0  0  0  0  0  0  0  0
    7.3692    0.2635   25.7310 F   0  0  0  0  0  0  0  0  0  0  0  0
    6.4049   -0.7081   24.0645 F   0  0  0  0  0  0  0  0  0  0  0  0
    8.5667   -0.5292   24.1189 F   0  0  0  0  0  0  0  0  0  0  0  0
    5.4211    0.6326   20.1522 C   0  0  0  0  0  0  0  0  0  0  0  0
    5.0110    0.6342   21.1650 H   0  0  0  0  0  0  0  0  0  0  0  0
    4.7958    1.3067   19.0988 C   0  0  0  0  0  0  0  0  0  0  0  0
    3.8689    1.8495   19.2482 H   0  0  0  0  0  0  0  0  0  0  0  0
  1  2  1  0
  2  3  2  0
  3  4  1  0
  4  5  1  0
  4  6  2  0
  6  7  1  0
  7  8  1  0
  8  9  1  0
  8 10  1  0
 10 11  2  0
 11 12  1  0
 11 13  1  0
 13 14  1  0
 13 15  2  0
 15 16  1  0
 15 17  1  0
 17 18  1  0
 17 19  2  0
 19 20  1  0
 20 21  1  0
 20 22  1  0
 20 23  1  0
  6 24  1  0
 24 25  1  0
 24 26  2  0
 26 27  1  0
 26  2  1  0
 19 10  1  0
M  END
>  <cnnaffinity>  (1) 
-4.70482

>  <filename>  (1) 
FC(F)(F)c1ccccc1NSc1cccnc1

$$$$
