
     RDKit          3D

 33 35  0  0  0  0  0  0  0  0999 V2000
    4.9401    1.8765   16.9811 H   0  0  0  0  0  0  0  0  0  0  0  0
    5.4005    1.3286   17.7987 C   0  0  0  0  0  0  0  0  0  0  0  0
    6.5518    0.6966   17.5145 N   0  0  0  0  0  0  0  0  0  0  0  0
    7.1544    0.0264   18.5099 C   0  0  0  0  0  0  0  0  0  0  0  0
    8.0772   -0.4978   18.2614 H   0  0  0  0  0  0  0  0  0  0  0  0
    6.6476   -0.0522   19.8303 C   0  0  0  0  0  0  0  0  0  0  0  0
    7.2676   -0.7692   20.8624 N   0  0  0  0  0  0  0  0  0  0  0  0
    6.6908   -0.9560   21.6743 H   0  0  0  0  0  0  0  0  0  0  0  0
    8.6421   -0.7694   21.1366 C   0  0  0  0  0  0  0  0  0  0  0  0
    9.6989    0.0906   20.7448 C   0  0  0  0  0  0  0  0  0  0  0  0
    9.6326    0.9756   20.1337 H   0  0  0  0  0  0  0  0  0  0  0  0
   10.8657   -0.3051   21.2402 N   0  0  0  0  0  0  0  0  0  0  0  0
   10.5650   -1.4090   21.9442 N   0  0  0  0  0  0  0  0  0  0  0  0
   11.2786   -1.8653   22.4907 H   0  0  0  0  0  0  0  0  0  0  0  0
    9.2430   -1.7088   21.9451 C   0  0  0  0  0  0  0  0  0  0  0  0
    8.6293   -2.8608   22.6284 C   0  0  0  0  0  0  0  0  0  0  0  0
    7.9852   -3.8330   21.8474 C   0  0  0  0  0  0  0  0  0  0  0  0
    7.7975   -3.6049   20.8039 H   0  0  0  0  0  0  0  0  0  0  0  0
    7.5895   -5.0431   22.4148 C   0  0  0  0  0  0  0  0  0  0  0  0
    7.1289   -5.8099   21.7967 H   0  0  0  0  0  0  0  0  0  0  0  0
    7.7506   -5.2478   23.7883 C   0  0  0  0  0  0  0  0  0  0  0  0
    7.4577   -6.1885   24.2425 H   0  0  0  0  0  0  0  0  0  0  0  0
    8.2616   -4.2335   24.6003 C   0  0  0  0  0  0  0  0  0  0  0  0
    8.3119   -4.3785   25.6789 H   0  0  0  0  0  0  0  0  0  0  0  0
    8.6808   -3.0244   24.0310 C   0  0  0  0  0  0  0  0  0  0  0  0
    9.2634   -1.9158   24.8824 C   0  0  0  0  0  0  0  0  0  0  0  0
    9.0742   -2.1012   26.1987 F   0  0  0  0  0  0  0  0  0  0  0  0
   10.5998   -1.8490   24.6800 F   0  0  0  0  0  0  0  0  0  0  0  0
    8.7818   -0.7020   24.5651 F   0  0  0  0  0  0  0  0  0  0  0  0
    5.4322    0.5884   20.0956 C   0  0  0  0  0  0  0  0  0  0  0  0
    5.0163    0.5347   21.1007 H   0  0  0  0  0  0  0  0  0  0  0  0
    4.8025    1.2956   19.0662 C   0  0  0  0  0  0  0  0  0  0  0  0
    3.8711    1.8236   19.2386 H   0  0  0  0  0  0  0  0  0  0  0  0
  1  2  1  0
  2  3  2  0
  3  4  1  0
  4  5  1  0
  4  6  2  0
  6  7  1  0
  7  8  1  0
  7  9  1  0
  9 10  1  0
 10 11  1  0
 10 12  2  0
 12 13  1  0
 13 14  1  0
 13 15  1  0
 15 16  1  0
 16 17  2  0
 17 18  1  0
 17 19  1  0
 19 20  1  0
 19 21  2  0
 21 22  1  0
 21 23  1  0
 23 24  1  0
 23 25  2  0
 25 26  1  0
 26 27  1  0
 26 28  1  0
 26 29  1  0
  6 30  1  0
 30 31  1  0
 30 32  2  0
 32 33  1  0
 32  2  1  0
 15  9  2  0
 25 16  1  0
M  END
>  <cnnaffinity>  (1) 
-5.79372

>  <filename>  (1) 
FC(F)(F)c1ccccc1-c1[nH]ncc1Nc1cccnc1

$$$$
