
     RDKit          3D

 30 32  0  0  0  0  0  0  0  0999 V2000
    4.9771    1.7814   16.9532 H   0  0  0  0  0  0  0  0  0  0  0  0
    5.4052    1.2764   17.8147 C   0  0  0  0  0  0  0  0  0  0  0  0
    6.5459    0.6021   17.5985 N   0  0  0  0  0  0  0  0  0  0  0  0
    7.1139   -0.0005   18.6455 C   0  0  0  0  0  0  0  0  0  0  0  0
    8.0323   -0.5503   18.4382 H   0  0  0  0  0  0  0  0  0  0  0  0
    6.6142    0.0706   19.9566 C   0  0  0  0  0  0  0  0  0  0  0  0
    7.4154   -0.6234   20.9844 C   0  0  0  0  0  0  0  0  0  0  0  0
    8.0953   -1.7095   20.7273 N   0  0  0  0  0  0  0  0  0  0  0  0
    8.5636   -2.1783   21.9333 C   0  0  0  0  0  0  0  0  0  0  0  0
    9.1000   -3.1177   22.0129 H   0  0  0  0  0  0  0  0  0  0  0  0
    8.2000   -1.3376   22.9416 C   0  0  0  0  0  0  0  0  0  0  0  0
    8.3880   -1.3382   24.0097 H   0  0  0  0  0  0  0  0  0  0  0  0
    7.4781   -0.3208   22.3233 N   0  0  0  0  0  0  0  0  0  0  0  0
    7.0103    0.8676   22.9167 C   0  0  0  0  0  0  0  0  0  0  0  0
    6.0371    0.6998   23.7977 N   0  0  0  0  0  0  0  0  0  0  0  0
    5.5080    1.7959   24.3513 C   0  0  0  0  0  0  0  0  0  0  0  0
    4.7069    1.6246   25.0658 H   0  0  0  0  0  0  0  0  0  0  0  0
    5.9333    3.0944   24.0578 C   0  0  0  0  0  0  0  0  0  0  0  0
    5.4669    3.9465   24.5380 H   0  0  0  0  0  0  0  0  0  0  0  0
    6.9928    3.2643   23.1664 C   0  0  0  0  0  0  0  0  0  0  0  0
    7.3744    4.2551   22.9015 H   0  0  0  0  0  0  0  0  0  0  0  0
    7.5784    2.1208   22.6164 C   0  0  0  0  0  0  0  0  0  0  0  0
    8.7940    2.1943   21.7291 C   0  0  0  0  0  0  0  0  0  0  0  0
    9.6596    1.1888   21.9280 F   0  0  0  0  0  0  0  0  0  0  0  0
    8.4529    2.1439   20.4296 F   0  0  0  0  0  0  0  0  0  0  0  0
    9.4827    3.3305   21.9261 F   0  0  0  0  0  0  0  0  0  0  0  0
    5.3776    0.7169   20.1553 C   0  0  0  0  0  0  0  0  0  0  0  0
    4.8812    0.7150   21.1283 H   0  0  0  0  0  0  0  0  0  0  0  0
    4.7721    1.3322   19.0607 C   0  0  0  0  0  0  0  0  0  0  0  0
    3.8311    1.8626   19.1617 H   0  0  0  0  0  0  0  0  0  0  0  0
  1  2  1  0
  2  3  2  0
  3  4  1  0
  4  5  1  0
  4  6  2  0
  6  7  1  0
  7  8  2  0
  8  9  1  0
  9 10  1  0
  9 11  2  0
 11 12  1  0
 11 13  1  0
 13 14  1  0
 14 15  2  0
 15 16  1  0
 16 17  1  0
 16 18  2  0
 18 19  1  0
 18 20  1  0
 20 21  1  0
 20 22  2  0
 22 23  1  0
 23 24  1  0
 23 25  1  0
 23 26  1  0
  6 27  1  0
 27 28  1  0
 27 29  2  0
 29 30  1  0
 29  2  1  0
 13  7  1  0
 22 14  1  0
M  END
>  <cnnaffinity>  (1) 
-4.8502

>  <filename>  (1) 
FC(F)(F)c1cccnc1-n1ccnc1-c1cccnc1

$$$$
