
     RDKit          3D

 34 36  0  0  0  0  0  0  0  0999 V2000
    6.6039   -1.2511   21.7112 H   0  0  0  0  0  0  0  0  0  0  0  0
    7.2390   -0.6500   21.0539 C   0  0  0  0  0  0  0  0  0  0  0  0
    8.5393   -0.4547   21.3505 C   0  0  0  0  0  0  0  0  0  0  0  0
    9.3866   -1.1172   22.3597 C   0  0  0  0  0  0  0  0  0  0  0  0
    8.9501   -2.2868   23.2081 C   0  0  0  0  0  0  0  0  0  0  0  0
    8.0104   -3.1244   22.7316 N   0  0  0  0  0  0  0  0  0  0  0  0
    7.6107   -4.1327   23.4904 C   0  0  0  0  0  0  0  0  0  0  0  0
    6.8608   -4.7774   23.0443 H   0  0  0  0  0  0  0  0  0  0  0  0
    8.0946   -4.3510   24.7781 C   0  0  0  0  0  0  0  0  0  0  0  0
    7.5968   -5.5531   25.4946 C   0  0  0  0  0  0  0  0  0  0  0  0
    8.4726   -6.5728   25.4357 F   0  0  0  0  0  0  0  0  0  0  0  0
    6.4358   -5.9931   24.9653 F   0  0  0  0  0  0  0  0  0  0  0  0
    7.3789   -5.3080   26.7960 F   0  0  0  0  0  0  0  0  0  0  0  0
    9.0697   -3.4881   25.2994 C   0  0  0  0  0  0  0  0  0  0  0  0
    9.4583   -3.5961   26.3137 H   0  0  0  0  0  0  0  0  0  0  0  0
    9.5230   -2.4655   24.4857 C   0  0  0  0  0  0  0  0  0  0  0  0
   10.3032   -1.7902   24.8096 H   0  0  0  0  0  0  0  0  0  0  0  0
   10.5528   -0.5913   22.4938 N   0  0  0  0  0  0  0  0  0  0  0  0
   10.6659    0.5881   21.6438 C   0  0  0  0  0  0  0  0  0  0  0  0
   10.7235    1.4652   22.3010 H   0  0  0  0  0  0  0  0  0  0  0  0
   11.5962    0.5418   21.0772 H   0  0  0  0  0  0  0  0  0  0  0  0
    9.4161    0.6166   20.7376 C   0  0  0  0  0  0  0  0  0  0  0  0
    8.9206    1.5885   20.7130 H   0  0  0  0  0  0  0  0  0  0  0  0
    9.6448    0.3321   19.7090 H   0  0  0  0  0  0  0  0  0  0  0  0
    6.5399   -0.0303   19.9080 C   0  0  0  0  0  0  0  0  0  0  0  0
    7.0939    0.0118   18.6093 C   0  0  0  0  0  0  0  0  0  0  0  0
    8.0076   -0.5418   18.4147 H   0  0  0  0  0  0  0  0  0  0  0  0
    6.5651    0.6732   17.5720 N   0  0  0  0  0  0  0  0  0  0  0  0
    5.4158    1.3294   17.7890 C   0  0  0  0  0  0  0  0  0  0  0  0
    5.0173    1.8926   16.9477 H   0  0  0  0  0  0  0  0  0  0  0  0
    4.7332    1.3043   19.0129 C   0  0  0  0  0  0  0  0  0  0  0  0
    3.8017    1.8538   19.1173 H   0  0  0  0  0  0  0  0  0  0  0  0
    5.2934    0.5994   20.0796 C   0  0  0  0  0  0  0  0  0  0  0  0
    4.7934    0.5531   21.0473 H   0  0  0  0  0  0  0  0  0  0  0  0
  1  2  1  0
  2  3  2  3
  3  4  1  0
  4  5  1  0
  5  6  2  0
  6  7  1  0
  7  8  1  0
  7  9  2  0
  9 10  1  0
 10 11  1  0
 10 12  1  0
 10 13  1  0
  9 14  1  0
 14 15  1  0
 14 16  2  0
 16 17  1  0
  4 18  2  0
 18 19  1  0
 19 20  1  0
 19 21  1  0
 19 22  1  0
 22 23  1  0
 22 24  1  0
  2 25  1  0
 25 26  2  0
 26 27  1  0
 26 28  1  0
 28 29  2  0
 29 30  1  0
 29 31  1  0
 31 32  1  0
 31 33  2  0
 33 34  1  0
 22  3  1  0
 33 25  1  0
 16  5  1  0
M  END
>  <cnnaffinity>  (1) 
-5.53833

>  <filename>  (1) 
FC(F)(F)c1ccc(C2=NCCC2=Cc2cccnc2)nc1

$$$$
