
     RDKit          3D

 32 34  0  0  0  0  0  0  0  0999 V2000
    4.9236    1.8267   16.9643 H   0  0  0  0  0  0  0  0  0  0  0  0
    5.3898    1.3052   17.8016 C   0  0  0  0  0  0  0  0  0  0  0  0
    6.5424    0.6633   17.5473 N   0  0  0  0  0  0  0  0  0  0  0  0
    7.1684    0.0440   18.5582 C   0  0  0  0  0  0  0  0  0  0  0  0
    8.1093   -0.4567   18.3309 H   0  0  0  0  0  0  0  0  0  0  0  0
    6.6626    0.0172   19.8713 C   0  0  0  0  0  0  0  0  0  0  0  0
    7.3389   -0.6632   20.9323 N   0  0  0  0  0  0  0  0  0  0  0  0
    6.7441   -1.6215   21.7424 C   0  0  0  0  0  0  0  0  0  0  0  0
    5.6976   -1.8514   21.6224 H   0  0  0  0  0  0  0  0  0  0  0  0
    7.6746   -2.0812   22.6177 C   0  0  0  0  0  0  0  0  0  0  0  0
    7.5571   -3.0173   23.7466 C   0  0  0  0  0  0  0  0  0  0  0  0
    6.2810   -3.2505   24.2955 C   0  0  0  0  0  0  0  0  0  0  0  0
    5.4174   -2.7315   23.8846 H   0  0  0  0  0  0  0  0  0  0  0  0
    6.1128   -4.1216   25.3620 C   0  0  0  0  0  0  0  0  0  0  0  0
    5.1146   -4.2968   25.7549 H   0  0  0  0  0  0  0  0  0  0  0  0
    7.2156   -4.7871   25.9243 C   0  0  0  0  0  0  0  0  0  0  0  0
    6.9517   -5.8121   27.0061 C   0  0  0  0  0  0  0  0  0  0  0  0
    8.0415   -6.1245   27.7278 F   0  0  0  0  0  0  0  0  0  0  0  0
    6.0082   -5.3813   27.8691 F   0  0  0  0  0  0  0  0  0  0  0  0
    6.4750   -6.9547   26.4738 F   0  0  0  0  0  0  0  0  0  0  0  0
    8.4984   -4.5534   25.3958 C   0  0  0  0  0  0  0  0  0  0  0  0
    9.3749   -5.0442   25.8191 H   0  0  0  0  0  0  0  0  0  0  0  0
    8.6623   -3.6873   24.3152 C   0  0  0  0  0  0  0  0  0  0  0  0
    9.6582   -3.5515   23.8962 H   0  0  0  0  0  0  0  0  0  0  0  0
    8.8368   -1.3826   22.3093 N   0  0  0  0  0  0  0  0  0  0  0  0
    9.7052   -1.3698   22.8145 H   0  0  0  0  0  0  0  0  0  0  0  0
    8.6388   -0.4479   21.3441 C   0  0  0  0  0  0  0  0  0  0  0  0
    9.7390    0.6937   20.8552 S   0  0  0  0  0  0  0  0  0  0  0  0
    5.4509    0.6669   20.1198 C   0  0  0  0  0  0  0  0  0  0  0  0
    5.0477    0.6641   21.1299 H   0  0  0  0  0  0  0  0  0  0  0  0
    4.8045    1.3251   19.0699 C   0  0  0  0  0  0  0  0  0  0  0  0
    3.8767    1.8630   19.2254 H   0  0  0  0  0  0  0  0  0  0  0  0
  1  2  1  0
  2  3  2  0
  3  4  1  0
  4  5  1  0
  4  6  2  0
  6  7  1  0
  7  8  1  0
  8  9  1  0
  8 10  2  0
 10 11  1  0
 11 12  2  0
 12 13  1  0
 12 14  1  0
 14 15  1  0
 14 16  2  0
 16 17  1  0
 17 18  1  0
 17 19  1  0
 17 20  1  0
 16 21  1  0
 21 22  1  0
 21 23  2  0
 23 24  1  0
 10 25  1  0
 25 26  1  0
 25 27  1  0
 27 28  2  0
  6 29  1  0
 29 30  1  0
 29 31  2  0
 31 32  1  0
 31  2  1  0
 27  7  1  0
 23 11  1  0
M  END
>  <cnnaffinity>  (1) 
-5.47159

>  <filename>  (1) 
FC(F)(F)c1ccc(-c2cn(-c3cccnc3)c(=S)[nH]2)cc1

$$$$
