
     RDKit          3D

 30 33  0  0  0  0  0  0  0  0999 V2000
    4.9079   -4.7202   27.8215 H   0  0  0  0  0  0  0  0  0  0  0  0
    4.5678   -4.2502   26.8998 C   0  0  0  0  0  0  0  0  0  0  0  0
    5.4828   -4.0864   25.9411 N   0  0  0  0  0  0  0  0  0  0  0  0
    5.0787   -3.4847   24.8052 C   0  0  0  0  0  0  0  0  0  0  0  0
    6.1277   -3.2058   23.7727 C   0  0  0  0  0  0  0  0  0  0  0  0
    5.9300   -2.5812   22.6519 N   0  0  0  0  0  0  0  0  0  0  0  0
    7.1262   -2.3940   22.0335 N   0  0  0  0  0  0  0  0  0  0  0  0
    7.6083   -1.7642   20.8964 C   0  0  0  0  0  0  0  0  0  0  0  0
    6.8447   -0.9149   19.9785 C   0  0  0  0  0  0  0  0  0  0  0  0
    7.4726   -0.4876   18.7908 C   0  0  0  0  0  0  0  0  0  0  0  0
    8.4949   -0.7904   18.5705 H   0  0  0  0  0  0  0  0  0  0  0  0
    6.8876    0.3087   17.8951 N   0  0  0  0  0  0  0  0  0  0  0  0
    5.6434    0.7364   18.1623 C   0  0  0  0  0  0  0  0  0  0  0  0
    5.1841    1.3803   17.4113 H   0  0  0  0  0  0  0  0  0  0  0  0
    4.9442    0.3832   19.3223 C   0  0  0  0  0  0  0  0  0  0  0  0
    3.9406    0.7637   19.4764 H   0  0  0  0  0  0  0  0  0  0  0  0
    5.5498   -0.4518   20.2578 C   0  0  0  0  0  0  0  0  0  0  0  0
    5.0583   -0.7312   21.1910 H   0  0  0  0  0  0  0  0  0  0  0  0
    8.8984   -1.9807   20.8181 N   0  0  0  0  0  0  0  0  0  0  0  0
    9.3095   -2.7173   21.9018 N   0  0  0  0  0  0  0  0  0  0  0  0
    8.2374   -2.9325   22.6146 C   0  0  0  0  0  0  0  0  0  0  0  0
    7.7984   -3.6601   24.1244 S   0  0  0  0  0  0  0  0  0  0  0  0
    3.8261   -3.1090   24.5493 N   0  0  0  0  0  0  0  0  0  0  0  0
    2.8968   -3.3264   25.4949 C   0  0  0  0  0  0  0  0  0  0  0  0
    1.4324   -2.9751   25.1118 C   0  0  0  0  0  0  0  0  0  0  0  0
    1.2773   -1.6792   24.8079 F   0  0  0  0  0  0  0  0  0  0  0  0
    1.0189   -3.6827   24.0464 F   0  0  0  0  0  0  0  0  0  0  0  0
    0.5769   -3.2474   26.1199 F   0  0  0  0  0  0  0  0  0  0  0  0
    3.2351   -3.8611   26.7379 C   0  0  0  0  0  0  0  0  0  0  0  0
    2.5213   -3.9842   27.5457 H   0  0  0  0  0  0  0  0  0  0  0  0
  1  2  1  0
  2  3  2  0
  3  4  1  0
  4  5  1  0
  5  6  2  0
  6  7  1  0
  7  8  1  0
  8  9  1  0
  9 10  2  0
 10 11  1  0
 10 12  1  0
 12 13  2  0
 13 14  1  0
 13 15  1  0
 15 16  1  0
 15 17  2  0
 17 18  1  0
  8 19  2  0
 19 20  1  0
 20 21  2  0
 21 22  1  0
  4 23  2  0
 23 24  1  0
 24 25  1  0
 25 26  1  0
 25 27  1  0
 25 28  1  0
 24 29  2  0
 29 30  1  0
 29  2  1  0
 22  5  1  0
 21  7  1  0
 17  9  1  0
M  END
>  <cnnaffinity>  (1) 
-5.10644

>  <filename>  (1) 
FC(F)(F)c1ccnc(-c2nn3c(-c4cccnc4)nnc3s2)n1

$$$$
