
     RDKit          3D

 29 31  0  0  0  0  0  0  0  0999 V2000
    4.9213    1.8155   16.9865 H   0  0  0  0  0  0  0  0  0  0  0  0
    5.3820    1.2962   17.8257 C   0  0  0  0  0  0  0  0  0  0  0  0
    6.5377    0.6712   17.5575 N   0  0  0  0  0  0  0  0  0  0  0  0
    7.1440    0.0276   18.5598 C   0  0  0  0  0  0  0  0  0  0  0  0
    8.1112   -0.4224   18.3380 H   0  0  0  0  0  0  0  0  0  0  0  0
    6.6201   -0.0493   19.8618 C   0  0  0  0  0  0  0  0  0  0  0  0
    7.5573   -0.8722   21.1541 S   0  0  0  0  0  0  0  0  0  0  0  0
    8.4644    0.5434   21.7224 C   0  0  0  0  0  0  0  0  0  0  0  0
    9.5773    0.9222   21.1345 N   0  0  0  0  0  0  0  0  0  0  0  0
    9.9100    2.1101   21.6790 N   0  0  0  0  0  0  0  0  0  0  0  0
    9.0662    2.4732   22.5624 N   0  0  0  0  0  0  0  0  0  0  0  0
    8.1282    1.4902   22.6316 N   0  0  0  0  0  0  0  0  0  0  0  0
    7.0151    1.5962   23.4906 C   0  0  0  0  0  0  0  0  0  0  0  0
    6.2886    0.5014   23.6469 N   0  0  0  0  0  0  0  0  0  0  0  0
    5.2724    0.5486   24.5099 C   0  0  0  0  0  0  0  0  0  0  0  0
    4.7569   -0.3831   24.7213 H   0  0  0  0  0  0  0  0  0  0  0  0
    4.8915    1.7113   25.1614 C   0  0  0  0  0  0  0  0  0  0  0  0
    3.7283    1.6437   26.0799 C   0  0  0  0  0  0  0  0  0  0  0  0
    3.1328    2.8424   26.2131 F   0  0  0  0  0  0  0  0  0  0  0  0
    4.0958    1.2297   27.3078 F   0  0  0  0  0  0  0  0  0  0  0  0
    2.7908    0.7762   25.6463 F   0  0  0  0  0  0  0  0  0  0  0  0
    5.6693    2.8719   25.0016 C   0  0  0  0  0  0  0  0  0  0  0  0
    5.4409    3.7867   25.5506 H   0  0  0  0  0  0  0  0  0  0  0  0
    6.7562    2.8104   24.1493 C   0  0  0  0  0  0  0  0  0  0  0  0
    7.4354    3.6377   23.9744 H   0  0  0  0  0  0  0  0  0  0  0  0
    5.4222    0.6215   20.1379 C   0  0  0  0  0  0  0  0  0  0  0  0
    5.0213    0.6291   21.1515 H   0  0  0  0  0  0  0  0  0  0  0  0
    4.7930    1.3025   19.0914 C   0  0  0  0  0  0  0  0  0  0  0  0
    3.8726    1.8526   19.2401 H   0  0  0  0  0  0  0  0  0  0  0  0
  1  2  1  0
  2  3  2  0
  3  4  1  0
  4  5  1  0
  4  6  2  0
  6  7  1  0
  7  8  1  0
  8  9  2  0
  9 10  1  0
 10 11  2  0
 11 12  1  0
 12 13  1  0
 13 14  2  0
 14 15  1  0
 15 16  1  0
 15 17  2  0
 17 18  1  0
 18 19  1  0
 18 20  1  0
 18 21  1  0
 17 22  1  0
 22 23  1  0
 22 24  2  0
 24 25  1  0
  6 26  1  0
 26 27  1  0
 26 28  2  0
 28 29  1  0
 28  2  1  0
 12  8  1  0
 24 13  1  0
M  END
>  <cnnaffinity>  (1) 
-4.755

>  <filename>  (1) 
FC(F)(F)c1ccc(-n2nnnc2Sc2cccnc2)nc1

$$$$
