
     RDKit          3D

 38 40  0  0  0  0  0  0  0  0999 V2000
    8.5994    1.0824   21.7005 H   0  0  0  0  0  0  0  0  0  0  0  0
    7.9307    0.2859   22.0014 C   0  0  0  0  0  0  0  0  0  0  0  0
    7.3422    0.2521   23.2095 C   0  0  0  0  0  0  0  0  0  0  0  0
    7.3524    1.3771   24.2099 C   0  0  0  0  0  0  0  0  0  0  0  0
    7.1038    0.9854   25.2047 H   0  0  0  0  0  0  0  0  0  0  0  0
    8.3827    1.7368   24.2805 H   0  0  0  0  0  0  0  0  0  0  0  0
    6.4479    2.5404   23.8248 C   0  0  0  0  0  0  0  0  0  0  0  0
    5.1704    2.6668   24.3829 C   0  0  0  0  0  0  0  0  0  0  0  0
    4.8388    1.9415   25.1211 H   0  0  0  0  0  0  0  0  0  0  0  0
    4.3283    3.7198   24.0249 C   0  0  0  0  0  0  0  0  0  0  0  0
    3.3569    3.8107   24.5049 H   0  0  0  0  0  0  0  0  0  0  0  0
    4.7516    4.6677   23.0790 C   0  0  0  0  0  0  0  0  0  0  0  0
    3.8101    5.7734   22.6420 C   0  0  0  0  0  0  0  0  0  0  0  0
    4.4651    6.8949   22.2872 F   0  0  0  0  0  0  0  0  0  0  0  0
    3.0544    5.4114   21.5868 F   0  0  0  0  0  0  0  0  0  0  0  0
    2.9493    6.1234   23.6202 F   0  0  0  0  0  0  0  0  0  0  0  0
    6.0395    4.5633   22.5260 C   0  0  0  0  0  0  0  0  0  0  0  0
    6.4013    5.3076   21.8181 H   0  0  0  0  0  0  0  0  0  0  0  0
    6.8737    3.5095   22.9006 C   0  0  0  0  0  0  0  0  0  0  0  0
    7.8773    3.4583   22.4823 H   0  0  0  0  0  0  0  0  0  0  0  0
    6.6001   -0.8819   23.5356 N   0  0  0  0  0  0  0  0  0  0  0  0
    6.1470   -1.0188   24.4223 H   0  0  0  0  0  0  0  0  0  0  0  0
    6.4315   -1.9642   22.7290 C   0  0  0  0  0  0  0  0  0  0  0  0
    5.6068   -3.3086   23.2453 S   0  0  0  0  0  0  0  0  0  0  0  0
    6.9366   -1.8712   21.4880 N   0  0  0  0  0  0  0  0  0  0  0  0
    6.5699   -2.5735   20.8687 H   0  0  0  0  0  0  0  0  0  0  0  0
    7.5612   -0.6781   20.9270 C   0  0  1  0  0  0  0  0  0  0  0  0
    8.4798   -1.0149   20.4199 H   0  0  0  0  0  0  0  0  0  0  0  0
    6.6826   -0.0355   19.8429 C   0  0  0  0  0  0  0  0  0  0  0  0
    7.1632    0.0154   18.5297 C   0  0  0  0  0  0  0  0  0  0  0  0
    8.1055   -0.4758   18.2897 H   0  0  0  0  0  0  0  0  0  0  0  0
    6.5640    0.6534   17.5175 N   0  0  0  0  0  0  0  0  0  0  0  0
    5.4135    1.2821   17.8014 C   0  0  0  0  0  0  0  0  0  0  0  0
    4.9464    1.8171   16.9768 H   0  0  0  0  0  0  0  0  0  0  0  0
    4.8185    1.2669   19.0706 C   0  0  0  0  0  0  0  0  0  0  0  0
    3.8886    1.8026   19.2289 H   0  0  0  0  0  0  0  0  0  0  0  0
    5.4575    0.5912   20.1134 C   0  0  0  0  0  0  0  0  0  0  0  0
    5.0298    0.5777   21.1211 H   0  0  0  0  0  0  0  0  0  0  0  0
  1  2  1  0
  2  3  2  0
  3  4  1  0
  4  5  1  0
  4  6  1  0
  4  7  1  0
  7  8  2  0
  8  9  1  0
  8 10  1  0
 10 11  1  0
 10 12  2  0
 12 13  1  0
 13 14  1  0
 13 15  1  0
 13 16  1  0
 12 17  1  0
 17 18  1  0
 17 19  2  0
 19 20  1  0
  3 21  1  0
 21 22  1  0
 21 23  1  0
 23 24  2  0
 23 25  1  0
 25 26  1  0
 25 27  1  0
 27 28  1  6
 27 29  1  0
 29 30  2  0
 30 31  1  0
 30 32  1  0
 32 33  2  0
 33 34  1  0
 33 35  1  0
 35 36  1  0
 35 37  2  0
 37 38  1  0
 27  2  1  0
 37 29  1  0
 19  7  1  0
M  END
>  <cnnaffinity>  (1) 
-4.95726

>  <filename>  (1) 
FC(F)(F)c1ccc(CC2=C[C@H](c3cccnc3)NC(=S)N2)cc1

$$$$
