
     RDKit          3D

 34 37  0  0  0  0  0  0  0  0999 V2000
    5.0192    1.8649   17.0001 H   0  0  0  0  0  0  0  0  0  0  0  0
    5.5294    1.3323   17.8001 C   0  0  0  0  0  0  0  0  0  0  0  0
    6.6811    0.7288   17.4628 N   0  0  0  0  0  0  0  0  0  0  0  0
    7.3438    0.0540   18.4130 C   0  0  0  0  0  0  0  0  0  0  0  0
    8.2896   -0.3936   18.0976 H   0  0  0  0  0  0  0  0  0  0  0  0
    6.8625   -0.0929   19.7306 C   0  0  0  0  0  0  0  0  0  0  0  0
    7.5049   -0.9366   20.6787 N   0  0  0  0  0  0  0  0  0  0  0  0
    8.8298   -0.8364   21.0925 C   0  0  0  0  0  0  0  0  0  0  0  0
    9.4589   -0.0727   20.6652 H   0  0  0  0  0  0  0  0  0  0  0  0
    9.0701   -1.7452   22.0742 C   0  0  0  0  0  0  0  0  0  0  0  0
    9.9266   -1.9540   22.6876 H   0  0  0  0  0  0  0  0  0  0  0  0
    7.8756   -2.4260   22.2654 N   0  0  0  0  0  0  0  0  0  0  0  0
    7.4537   -3.3990   23.1061 N   0  0  0  0  0  0  0  0  0  0  0  0
    6.1393   -3.4937   22.8118 C   0  0  0  0  0  0  0  0  0  0  0  0
    5.1559   -4.4351   23.4770 C   0  0  0  0  0  0  0  0  0  0  0  0
    3.8789   -4.3854   23.0124 N   0  0  0  0  0  0  0  0  0  0  0  0
    2.9524   -5.1951   23.5423 C   0  0  0  0  0  0  0  0  0  0  0  0
    1.4602   -5.1323   23.0984 C   0  0  0  0  0  0  0  0  0  0  0  0
    1.0336   -6.3549   22.7131 F   0  0  0  0  0  0  0  0  0  0  0  0
    1.1927   -4.2893   22.1041 F   0  0  0  0  0  0  0  0  0  0  0  0
    0.6718   -4.7906   24.1413 F   0  0  0  0  0  0  0  0  0  0  0  0
    3.2689   -6.1331   24.5350 C   0  0  0  0  0  0  0  0  0  0  0  0
    2.5042   -6.8051   24.9026 H   0  0  0  0  0  0  0  0  0  0  0  0
    4.5786   -6.2006   25.0142 C   0  0  0  0  0  0  0  0  0  0  0  0
    4.8404   -6.9083   25.7995 H   0  0  0  0  0  0  0  0  0  0  0  0
    5.5385   -5.3278   24.5018 C   0  0  0  0  0  0  0  0  0  0  0  0
    6.5658   -5.3065   24.8634 H   0  0  0  0  0  0  0  0  0  0  0  0
    5.7492   -2.5978   21.7933 C   0  0  0  0  0  0  0  0  0  0  0  0
    4.7236   -2.4822   21.5334 H   0  0  0  0  0  0  0  0  0  0  0  0
    6.9171   -1.9338   21.4472 C   0  0  0  0  0  0  0  0  0  0  0  0
    5.6893    0.5893   20.0848 C   0  0  0  0  0  0  0  0  0  0  0  0
    5.3465    0.5712   21.1220 H   0  0  0  0  0  0  0  0  0  0  0  0
    5.0059    1.3014   19.0975 C   0  0  0  0  0  0  0  0  0  0  0  0
    4.0864    1.8327   19.3198 H   0  0  0  0  0  0  0  0  0  0  0  0
  1  2  1  0
  2  3  2  0
  3  4  1  0
  4  5  1  0
  4  6  2  0
  6  7  1  0
  7  8  1  0
  8  9  1  0
  8 10  2  0
 10 11  1  0
 10 12  1  0
 12 13  1  0
 13 14  2  0
 14 15  1  0
 15 16  2  0
 16 17  1  0
 17 18  1  0
 18 19  1  0
 18 20  1  0
 18 21  1  0
 17 22  2  0
 22 23  1  0
 22 24  1  0
 24 25  1  0
 24 26  2  0
 26 27  1  0
 14 28  1  0
 28 29  1  0
 28 30  2  0
  6 31  1  0
 31 32  1  0
 31 33  2  0
 33 34  1  0
 33  2  1  0
 30  7  1  0
 30 12  1  0
 26 15  1  0
M  END
>  <cnnaffinity>  (1) 
-5.70392

>  <filename>  (1) 
FC(F)(F)c1cccc(-c2cc3n(-c4cccnc4)ccn3n2)n1

$$$$
