
     RDKit          3D

 39 42  0  0  0  0  0  0  0  0999 V2000
    4.8813    1.5915   17.0949 H   0  0  0  0  0  0  0  0  0  0  0  0
    5.4180    1.1840   17.9471 C   0  0  0  0  0  0  0  0  0  0  0  0
    6.6054    0.6175   17.6768 N   0  0  0  0  0  0  0  0  0  0  0  0
    7.2940    0.1186   18.7109 C   0  0  0  0  0  0  0  0  0  0  0  0
    8.2492   -0.3395   18.4597 H   0  0  0  0  0  0  0  0  0  0  0  0
    6.8652    0.1335   20.0716 C   0  0  0  0  0  0  0  0  0  0  0  0
    7.6919   -0.3781   21.0785 N   0  0  0  0  0  0  0  0  0  0  0  0
    8.4541   -1.6259   20.8490 C   0  0  0  0  0  0  0  0  0  0  0  0
    7.8390   -2.3258   20.2756 H   0  0  0  0  0  0  0  0  0  0  0  0
    9.3974   -1.4217   20.3283 H   0  0  0  0  0  0  0  0  0  0  0  0
    8.6840   -2.1540   22.2896 C   0  0  2  0  0  0  0  0  0  0  0  0
    9.5425   -2.8205   22.3886 H   0  0  0  0  0  0  0  0  0  0  0  0
    7.4315   -2.7327   22.8349 N   0  0  0  0  0  0  0  0  0  0  0  0
    6.9171   -3.9741   22.4162 C   0  0  0  0  0  0  0  0  0  0  0  0
    7.5404   -4.7374   21.4115 C   0  0  0  0  0  0  0  0  0  0  0  0
    8.4228   -4.3304   20.9358 H   0  0  0  0  0  0  0  0  0  0  0  0
    7.0146   -5.9688   21.0219 C   0  0  0  0  0  0  0  0  0  0  0  0
    7.5010   -6.5223   20.2297 H   0  0  0  0  0  0  0  0  0  0  0  0
    5.8631   -6.4746   21.6229 C   0  0  0  0  0  0  0  0  0  0  0  0
    5.4584   -7.4301   21.2976 H   0  0  0  0  0  0  0  0  0  0  0  0
    5.2263   -5.7372   22.6343 C   0  0  0  0  0  0  0  0  0  0  0  0
    3.9540   -6.2980   23.2527 C   0  0  0  0  0  0  0  0  0  0  0  0
    3.4373   -5.5008   24.2028 F   0  0  0  0  0  0  0  0  0  0  0  0
    2.9891   -6.4710   22.3232 F   0  0  0  0  0  0  0  0  0  0  0  0
    4.1658   -7.5027   23.8239 F   0  0  0  0  0  0  0  0  0  0  0  0
    5.7596   -4.4989   23.0373 C   0  0  0  0  0  0  0  0  0  0  0  0
    5.2900   -3.9246   23.8364 H   0  0  0  0  0  0  0  0  0  0  0  0
    6.5059   -1.5703   22.8963 C   0  0  0  0  0  0  0  0  0  0  0  0
    5.7322   -1.6748   22.1246 H   0  0  0  0  0  0  0  0  0  0  0  0
    6.0643   -1.4671   23.8973 H   0  0  0  0  0  0  0  0  0  0  0  0
    7.4143   -0.3663   22.5304 C   0  0  1  0  0  0  0  0  0  0  0  0
    7.0630    0.6003   22.8994 H   0  0  0  0  0  0  0  0  0  0  0  0
    8.7700   -0.8386   23.0554 C   0  0  0  0  0  0  0  0  0  0  0  0
    9.5856   -0.1956   22.7171 H   0  0  0  0  0  0  0  0  0  0  0  0
    8.8311   -0.9655   24.1377 H   0  0  0  0  0  0  0  0  0  0  0  0
    5.6036    0.7141   20.3158 C   0  0  0  0  0  0  0  0  0  0  0  0
    5.2021    0.7359   21.3283 H   0  0  0  0  0  0  0  0  0  0  0  0
    4.8839    1.2506   19.2388 C   0  0  0  0  0  0  0  0  0  0  0  0
    3.9311    1.7473   19.3941 H   0  0  0  0  0  0  0  0  0  0  0  0
  1  2  1  0
  2  3  2  0
  3  4  1  0
  4  5  1  0
  4  6  2  0
  6  7  1  0
  7  8  1  0
  8  9  1  0
  8 10  1  0
  8 11  1  0
 11 12  1  6
 11 13  1  0
 13 14  1  0
 14 15  2  0
 15 16  1  0
 15 17  1  0
 17 18  1  0
 17 19  2  0
 19 20  1  0
 19 21  1  0
 21 22  1  0
 22 23  1  0
 22 24  1  0
 22 25  1  0
 21 26  2  0
 26 27  1  0
 13 28  1  0
 28 29  1  0
 28 30  1  0
 28 31  1  0
 31 32  1  1
 31 33  1  0
 33 34  1  0
 33 35  1  0
  6 36  1  0
 36 37  1  0
 36 38  2  0
 38 39  1  0
 38  2  1  0
 31  7  1  0
 33 11  1  0
 26 14  1  0
M  END
>  <cnnaffinity>  (1) 
-5.32794

>  <filename>  (1) 
FC(F)(F)c1cccc(N2C[C@H]3C[C@@H]2CN3c2cccnc2)c1

$$$$
