
     RDKit          3D

 42 44  0  0  0  0  0  0  0  0999 V2000
    4.9106    1.8352   16.9704 H   0  0  0  0  0  0  0  0  0  0  0  0
    5.3832    1.3184   17.8080 C   0  0  0  0  0  0  0  0  0  0  0  0
    6.5458    0.7079   17.5326 N   0  0  0  0  0  0  0  0  0  0  0  0
    7.1653    0.0802   18.5401 C   0  0  0  0  0  0  0  0  0  0  0  0
    8.1142   -0.3982   18.2994 H   0  0  0  0  0  0  0  0  0  0  0  0
    6.6721   -0.0095   19.8697 C   0  0  0  0  0  0  0  0  0  0  0  0
    7.3733   -0.7347   20.8603 N   0  0  0  0  0  0  0  0  0  0  0  0
    8.6907   -0.2770   21.2988 C   0  0  0  0  0  0  0  0  0  0  0  0
    8.6104    0.3985   22.1732 H   0  0  0  0  0  0  0  0  0  0  0  0
    9.1316    0.3079   20.4815 H   0  0  0  0  0  0  0  0  0  0  0  0
    9.5817   -1.4845   21.6348 C   0  0  0  0  0  0  0  0  0  0  0  0
    9.7423   -2.0503   20.7080 H   0  0  0  0  0  0  0  0  0  0  0  0
   10.5657   -1.1441   21.9883 H   0  0  0  0  0  0  0  0  0  0  0  0
    8.9260   -2.4172   22.6778 C   0  0  0  0  0  0  0  0  0  0  0  0
    9.5262   -3.3416   22.7486 H   0  0  0  0  0  0  0  0  0  0  0  0
    8.9187   -1.7742   24.0887 C   0  0  0  0  0  0  0  0  0  0  0  0
    8.2886   -0.8742   24.0739 H   0  0  0  0  0  0  0  0  0  0  0  0
    9.9418   -1.4311   24.3053 H   0  0  0  0  0  0  0  0  0  0  0  0
    8.4448   -2.7156   25.1780 C   0  0  0  0  0  0  0  0  0  0  0  0
    7.1396   -2.6511   25.6930 C   0  0  0  0  0  0  0  0  0  0  0  0
    6.4616   -1.8824   25.3298 H   0  0  0  0  0  0  0  0  0  0  0  0
    6.6885   -3.5773   26.6345 C   0  0  0  0  0  0  0  0  0  0  0  0
    5.6716   -3.5140   27.0064 H   0  0  0  0  0  0  0  0  0  0  0  0
    7.5367   -4.6020   27.0854 C   0  0  0  0  0  0  0  0  0  0  0  0
    7.0158   -5.5976   28.1041 C   0  0  0  0  0  0  0  0  0  0  0  0
    7.6979   -6.7544   28.0827 F   0  0  0  0  0  0  0  0  0  0  0  0
    7.0877   -5.1304   29.3648 F   0  0  0  0  0  0  0  0  0  0  0  0
    5.7176   -5.9018   27.8939 F   0  0  0  0  0  0  0  0  0  0  0  0
    8.8467   -4.6778   26.5755 C   0  0  0  0  0  0  0  0  0  0  0  0
    9.5270   -5.4685   26.8834 H   0  0  0  0  0  0  0  0  0  0  0  0
    9.2840   -3.7456   25.6327 C   0  0  0  0  0  0  0  0  0  0  0  0
   10.2824   -3.8164   25.2072 H   0  0  0  0  0  0  0  0  0  0  0  0
    7.5092   -2.7899   22.1842 C   0  0  0  0  0  0  0  0  0  0  0  0
    6.9866   -3.4005   22.9327 H   0  0  0  0  0  0  0  0  0  0  0  0
    7.6029   -3.3864   21.2679 H   0  0  0  0  0  0  0  0  0  0  0  0
    6.6619   -1.5528   21.8356 C   0  0  0  0  0  0  0  0  0  0  0  0
    5.7113   -1.8659   21.3830 H   0  0  0  0  0  0  0  0  0  0  0  0
    6.4198   -0.9854   22.7567 H   0  0  0  0  0  0  0  0  0  0  0  0
    5.4495    0.6404   20.1241 C   0  0  0  0  0  0  0  0  0  0  0  0
    5.0476    0.6086   21.1363 H   0  0  0  0  0  0  0  0  0  0  0  0
    4.8007    1.3152   19.0792 C   0  0  0  0  0  0  0  0  0  0  0  0
    3.8631    1.8380   19.2369 H   0  0  0  0  0  0  0  0  0  0  0  0
  1  2  1  0
  2  3  2  0
  3  4  1  0
  4  5  1  0
  4  6  2  0
  6  7  1  0
  7  8  1  0
  8  9  1  0
  8 10  1  0
  8 11  1  0
 11 12  1  0
 11 13  1  0
 11 14  1  0
 14 15  1  0
 14 16  1  0
 16 17  1  0
 16 18  1  0
 16 19  1  0
 19 20  2  0
 20 21  1  0
 20 22  1  0
 22 23  1  0
 22 24  2  0
 24 25  1  0
 25 26  1  0
 25 27  1  0
 25 28  1  0
 24 29  1  0
 29 30  1  0
 29 31  2  0
 31 32  1  0
 14 33  1  0
 33 34  1  0
 33 35  1  0
 33 36  1  0
 36 37  1  0
 36 38  1  0
  6 39  1  0
 39 40  1  0
 39 41  2  0
 41 42  1  0
 41  2  1  0
 36  7  1  0
 31 19  1  0
M  END
>  <cnnaffinity>  (1) 
-5.21599

>  <filename>  (1) 
FC(F)(F)c1ccc(CC2CCN(c3cccnc3)CC2)cc1

$$$$
