
     RDKit          3D

 37 40  0  0  0  0  0  0  0  0999 V2000
    4.9928    1.8325   16.9247 H   0  0  0  0  0  0  0  0  0  0  0  0
    5.3928    1.3028   17.7894 C   0  0  0  0  0  0  0  0  0  0  0  0
    6.5451    0.6448   17.5968 N   0  0  0  0  0  0  0  0  0  0  0  0
    7.0774    0.0277   18.6616 C   0  0  0  0  0  0  0  0  0  0  0  0
    8.0158   -0.4950   18.4817 H   0  0  0  0  0  0  0  0  0  0  0  0
    6.4956   -0.0018   19.9474 C   0  0  0  0  0  0  0  0  0  0  0  0
    7.2503   -0.6201   21.0594 C   0  0  0  0  0  0  0  0  0  0  0  0
    8.6051   -0.5611   21.2991 C   0  0  0  0  0  0  0  0  0  0  0  0
    8.8087   -1.1729   22.5273 C   0  0  0  0  0  0  0  0  0  0  0  0
    7.6964   -1.6326   23.0603 N   0  0  0  0  0  0  0  0  0  0  0  0
    6.7520   -1.2780   22.1501 N   0  0  0  0  0  0  0  0  0  0  0  0
    5.7906   -1.5239   22.3531 H   0  0  0  0  0  0  0  0  0  0  0  0
   10.2313   -1.0898   22.9881 C   0  0  0  0  0  0  0  0  0  0  0  0
   10.6624   -2.0865   23.1279 H   0  0  0  0  0  0  0  0  0  0  0  0
   10.3065   -0.5587   23.9419 H   0  0  0  0  0  0  0  0  0  0  0  0
   10.9317   -0.2972   21.8271 C   0  0  2  0  0  0  0  0  0  0  0  0
   11.7001   -0.9507   21.4131 H   0  0  0  0  0  0  0  0  0  0  0  0
   11.5945    0.9833   22.3015 C   0  0  0  0  0  0  0  0  0  0  0  0
   10.7729    1.9506   22.7238 N   0  0  0  0  0  0  0  0  0  0  0  0
   11.3095    3.1072   23.1437 C   0  0  0  0  0  0  0  0  0  0  0  0
   10.3767    4.2452   23.5934 C   0  0  0  0  0  0  0  0  0  0  0  0
    9.1081    3.8783   23.7834 F   0  0  0  0  0  0  0  0  0  0  0  0
   10.8216    4.7755   24.7562 F   0  0  0  0  0  0  0  0  0  0  0  0
   10.3843    5.2557   22.6983 F   0  0  0  0  0  0  0  0  0  0  0  0
   12.6910    3.3383   23.1753 C   0  0  0  0  0  0  0  0  0  0  0  0
   13.0746    4.2881   23.5234 H   0  0  0  0  0  0  0  0  0  0  0  0
   13.5460    2.3279   22.7527 C   0  0  0  0  0  0  0  0  0  0  0  0
   14.6214    2.4844   22.7170 H   0  0  0  0  0  0  0  0  0  0  0  0
   12.9927    1.1277   22.3156 C   0  0  0  0  0  0  0  0  0  0  0  0
   13.6245    0.3164   21.9779 H   0  0  0  0  0  0  0  0  0  0  0  0
    9.8666   -0.0431   20.7099 C   0  0  0  0  0  0  0  0  0  0  0  0
   10.1265   -0.6053   19.8089 H   0  0  0  0  0  0  0  0  0  0  0  0
    9.7795    1.0158   20.4371 H   0  0  0  0  0  0  0  0  0  0  0  0
    5.2718    0.6677   20.1163 C   0  0  0  0  0  0  0  0  0  0  0  0
    4.7759    0.7039   21.0920 H   0  0  0  0  0  0  0  0  0  0  0  0
    4.7242    1.3340   19.0187 C   0  0  0  0  0  0  0  0  0  0  0  0
    3.8072    1.9037   19.1043 H   0  0  0  0  0  0  0  0  0  0  0  0
  1  2  1  0
  2  3  2  0
  3  4  1  0
  4  5  1  0
  4  6  2  0
  6  7  1  0
  7  8  2  0
  8  9  1  0
  9 10  2  0
 10 11  1  0
 11 12  1  0
  9 13  1  0
 13 14  1  0
 13 15  1  0
 13 16  1  0
 16 17  1  6
 16 18  1  0
 18 19  2  0
 19 20  1  0
 20 21  1  0
 21 22  1  0
 21 23  1  0
 21 24  1  0
 20 25  2  0
 25 26  1  0
 25 27  1  0
 27 28  1  0
 27 29  2  0
 29 30  1  0
 16 31  1  0
 31 32  1  0
 31 33  1  0
  6 34  1  0
 34 35  1  0
 34 36  2  0
 36 37  1  0
 36  2  1  0
 11  7  1  0
 29 18  1  0
 31  8  1  0
M  END
>  <cnnaffinity>  (1) 
-5.73637

>  <filename>  (1) 
FC(F)(F)c1cccc([C@H]2Cc3n[nH]c(-c4cccnc4)c3C2)n1

$$$$
