
     RDKit          3D

 30 32  0  0  0  0  0  0  0  0999 V2000
    4.9517    1.7847   17.0146 H   0  0  0  0  0  0  0  0  0  0  0  0
    5.4083    1.2781   17.8583 C   0  0  0  0  0  0  0  0  0  0  0  0
    6.5729    0.6613   17.6021 N   0  0  0  0  0  0  0  0  0  0  0  0
    7.1833    0.0458   18.6104 C   0  0  0  0  0  0  0  0  0  0  0  0
    8.1450   -0.4081   18.3698 H   0  0  0  0  0  0  0  0  0  0  0  0
    6.6646   -0.0031   19.9075 C   0  0  0  0  0  0  0  0  0  0  0  0
    7.3653   -0.6882   20.9241 N   0  0  0  0  0  0  0  0  0  0  0  0
    7.0534   -0.4643   22.2023 N   0  0  0  0  0  0  0  0  0  0  0  0
    7.8552   -1.2639   22.9029 C   0  0  0  0  0  0  0  0  0  0  0  0
    7.8785   -1.3176   24.3959 C   0  0  0  0  0  0  0  0  0  0  0  0
    8.4024   -2.4617   24.8651 N   0  0  0  0  0  0  0  0  0  0  0  0
    8.4371   -2.6935   26.1667 C   0  0  0  0  0  0  0  0  0  0  0  0
    8.8474   -3.6496   26.4794 H   0  0  0  0  0  0  0  0  0  0  0  0
    7.9775   -1.7717   27.0969 C   0  0  0  0  0  0  0  0  0  0  0  0
    8.0878   -2.0254   28.1209 H   0  0  0  0  0  0  0  0  0  0  0  0
    7.4608   -0.5662   26.6604 C   0  0  0  0  0  0  0  0  0  0  0  0
    7.1041    0.1761   27.3731 H   0  0  0  0  0  0  0  0  0  0  0  0
    7.4317   -0.3104   25.2858 C   0  0  0  0  0  0  0  0  0  0  0  0
    6.9363    1.0239   24.7974 C   0  0  0  0  0  0  0  0  0  0  0  0
    6.7425    1.9029   25.8011 F   0  0  0  0  0  0  0  0  0  0  0  0
    5.7569    0.9048   24.1634 F   0  0  0  0  0  0  0  0  0  0  0  0
    7.8078    1.6057   23.9575 F   0  0  0  0  0  0  0  0  0  0  0  0
    8.6676   -2.0480   22.0475 C   0  0  0  0  0  0  0  0  0  0  0  0
    9.3740   -2.7913   22.3984 H   0  0  0  0  0  0  0  0  0  0  0  0
    8.3433   -1.6221   20.7911 C   0  0  0  0  0  0  0  0  0  0  0  0
    8.7271   -1.8359   19.8097 H   0  0  0  0  0  0  0  0  0  0  0  0
    5.4517    0.6456   20.1826 C   0  0  0  0  0  0  0  0  0  0  0  0
    5.0628    0.6397   21.2032 H   0  0  0  0  0  0  0  0  0  0  0  0
    4.8132    1.2937   19.1254 C   0  0  0  0  0  0  0  0  0  0  0  0
    3.8789    1.8290   19.2651 H   0  0  0  0  0  0  0  0  0  0  0  0
  1  2  1  0
  2  3  2  0
  3  4  1  0
  4  5  1  0
  4  6  2  0
  6  7  1  0
  7  8  1  0
  8  9  2  0
  9 10  1  0
 10 11  2  0
 11 12  1  0
 12 13  1  0
 12 14  2  0
 14 15  1  0
 14 16  1  0
 16 17  1  0
 16 18  2  0
 18 19  1  0
 19 20  1  0
 19 21  1  0
 19 22  1  0
  9 23  1  0
 23 24  1  0
 23 25  2  0
 25 26  1  0
  6 27  1  0
 27 28  1  0
 27 29  2  0
 29 30  1  0
 29  2  1  0
 25  7  1  0
 18 10  1  0
M  END
>  <cnnaffinity>  (1) 
-5.50705

>  <filename>  (1) 
FC(F)(F)c1cccnc1-c1ccn(-c2cccnc2)n1

$$$$
