
     RDKit          3D

 34 36  0  0  0  0  0  0  0  0999 V2000
    6.6109   -1.2244   21.7278 H   0  0  0  0  0  0  0  0  0  0  0  0
    7.2606   -0.6788   21.0390 C   0  0  0  0  0  0  0  0  0  0  0  0
    8.5561   -0.4952   21.3607 C   0  0  0  0  0  0  0  0  0  0  0  0
    9.3490   -1.1519   22.4136 C   0  0  0  0  0  0  0  0  0  0  0  0
    8.8482   -2.3027   23.1696 C   0  0  0  0  0  0  0  0  0  0  0  0
    9.1147   -2.3250   24.5450 C   0  0  0  0  0  0  0  0  0  0  0  0
    9.7018   -1.5291   25.0044 H   0  0  0  0  0  0  0  0  0  0  0  0
    8.7114   -3.3133   25.3349 N   0  0  0  0  0  0  0  0  0  0  0  0
    8.0603   -4.3559   24.7913 C   0  0  0  0  0  0  0  0  0  0  0  0
    7.6893   -5.5496   25.6952 C   0  0  0  0  0  0  0  0  0  0  0  0
    6.4771   -6.0439   25.3565 F   0  0  0  0  0  0  0  0  0  0  0  0
    8.5716   -6.5540   25.5233 F   0  0  0  0  0  0  0  0  0  0  0  0
    7.6551   -5.2487   26.9962 F   0  0  0  0  0  0  0  0  0  0  0  0
    7.7802   -4.4356   23.4151 C   0  0  0  0  0  0  0  0  0  0  0  0
    7.2536   -5.2867   23.0072 H   0  0  0  0  0  0  0  0  0  0  0  0
    8.1714   -3.3858   22.5935 C   0  0  0  0  0  0  0  0  0  0  0  0
    7.9712   -3.4036   21.5210 H   0  0  0  0  0  0  0  0  0  0  0  0
   10.4887   -0.6136   22.6505 N   0  0  0  0  0  0  0  0  0  0  0  0
   10.6814    0.5132   21.7360 C   0  0  0  0  0  0  0  0  0  0  0  0
   10.7611    1.4314   22.3270 H   0  0  0  0  0  0  0  0  0  0  0  0
   11.6252    0.3872   21.1998 H   0  0  0  0  0  0  0  0  0  0  0  0
    9.4654    0.5502   20.7769 C   0  0  0  0  0  0  0  0  0  0  0  0
    9.7320    0.2091   19.7808 H   0  0  0  0  0  0  0  0  0  0  0  0
    8.9875    1.5299   20.6912 H   0  0  0  0  0  0  0  0  0  0  0  0
    6.5678   -0.0457   19.9006 C   0  0  0  0  0  0  0  0  0  0  0  0
    7.1103    0.0066   18.6015 C   0  0  0  0  0  0  0  0  0  0  0  0
    8.0420   -0.5183   18.3890 H   0  0  0  0  0  0  0  0  0  0  0  0
    6.5543    0.6584   17.5688 N   0  0  0  0  0  0  0  0  0  0  0  0
    5.4071    1.3119   17.8088 C   0  0  0  0  0  0  0  0  0  0  0  0
    4.9899    1.8725   16.9731 H   0  0  0  0  0  0  0  0  0  0  0  0
    4.7549    1.2945   19.0475 C   0  0  0  0  0  0  0  0  0  0  0  0
    3.8335    1.8490   19.1751 H   0  0  0  0  0  0  0  0  0  0  0  0
    5.3299    0.5879   20.1028 C   0  0  0  0  0  0  0  0  0  0  0  0
    4.8618    0.5688   21.0906 H   0  0  0  0  0  0  0  0  0  0  0  0
  1  2  1  0
  2  3  2  3
  3  4  1  0
  4  5  1  0
  5  6  2  0
  6  7  1  0
  6  8  1  0
  8  9  2  0
  9 10  1  0
 10 11  1  0
 10 12  1  0
 10 13  1  0
  9 14  1  0
 14 15  1  0
 14 16  2  0
 16 17  1  0
  4 18  2  0
 18 19  1  0
 19 20  1  0
 19 21  1  0
 19 22  1  0
 22 23  1  0
 22 24  1  0
  2 25  1  0
 25 26  2  0
 26 27  1  0
 26 28  1  0
 28 29  2  0
 29 30  1  0
 29 31  1  0
 31 32  1  0
 31 33  2  0
 33 34  1  0
 22  3  1  0
 33 25  1  0
 16  5  1  0
M  END
>  <cnnaffinity>  (1) 
-5.40273

>  <filename>  (1) 
FC(F)(F)c1ccc(C2=NCCC2=Cc2cccnc2)cn1

$$$$
