
     RDKit          3D

 38 40  0  0  0  0  0  0  0  0999 V2000
    8.3233    1.0909   23.6487 H   0  0  0  0  0  0  0  0  0  0  0  0
    7.9946    0.9198   22.6180 C   0  0  0  0  0  0  0  0  0  0  0  0
    7.8272   -0.3468   22.2210 C   0  0  0  0  0  0  0  0  0  0  0  0
    7.2924   -0.8843   20.9486 C   0  0  0  0  0  0  0  0  0  0  0  0
    6.5932   -0.0844   19.9105 C   0  0  0  0  0  0  0  0  0  0  0  0
    7.1376   -0.0734   18.6246 C   0  0  0  0  0  0  0  0  0  0  0  0
    8.0478   -0.6324   18.4086 H   0  0  0  0  0  0  0  0  0  0  0  0
    6.6103    0.6060   17.6019 N   0  0  0  0  0  0  0  0  0  0  0  0
    5.4801    1.2941   17.8305 C   0  0  0  0  0  0  0  0  0  0  0  0
    5.0692    1.8347   16.9799 H   0  0  0  0  0  0  0  0  0  0  0  0
    4.8359    1.3214   19.0698 C   0  0  0  0  0  0  0  0  0  0  0  0
    3.9184    1.8851   19.1864 H   0  0  0  0  0  0  0  0  0  0  0  0
    5.4021    0.6220   20.1370 C   0  0  0  0  0  0  0  0  0  0  0  0
    4.9407    0.6329   21.1251 H   0  0  0  0  0  0  0  0  0  0  0  0
    7.4789   -2.1451   20.7949 N   0  0  0  0  0  0  0  0  0  0  0  0
    8.0897   -2.7055   22.0094 C   0  0  0  0  0  0  0  0  0  0  0  0
    7.4291   -3.4800   22.4116 H   0  0  0  0  0  0  0  0  0  0  0  0
    9.0361   -3.1802   21.7330 H   0  0  0  0  0  0  0  0  0  0  0  0
    8.2942   -1.5521   23.0169 C   0  0  0  0  0  0  0  0  0  0  0  0
    7.6930   -1.6828   23.9242 H   0  0  0  0  0  0  0  0  0  0  0  0
    9.3417   -1.4443   23.3234 H   0  0  0  0  0  0  0  0  0  0  0  0
    7.8357    2.1597   21.7625 C   0  0  0  0  0  0  0  0  0  0  0  0
    6.7685    2.3713   21.6326 H   0  0  0  0  0  0  0  0  0  0  0  0
    8.2118    1.9651   20.7473 H   0  0  0  0  0  0  0  0  0  0  0  0
    8.5101    3.3618   22.3996 C   0  0  0  0  0  0  0  0  0  0  0  0
    9.9105    3.4619   22.4379 C   0  0  0  0  0  0  0  0  0  0  0  0
   10.5042    2.7272   21.8963 H   0  0  0  0  0  0  0  0  0  0  0  0
   10.5436    4.5029   23.1196 C   0  0  0  0  0  0  0  0  0  0  0  0
   11.6303    4.5550   23.0918 H   0  0  0  0  0  0  0  0  0  0  0  0
    9.7772    5.4608   23.8108 C   0  0  0  0  0  0  0  0  0  0  0  0
   10.3881    6.5695   24.6420 C   0  0  0  0  0  0  0  0  0  0  0  0
    9.6600    7.7066   24.5783 F   0  0  0  0  0  0  0  0  0  0  0  0
   10.4236    6.2237   25.9451 F   0  0  0  0  0  0  0  0  0  0  0  0
   11.6479    6.8835   24.2883 F   0  0  0  0  0  0  0  0  0  0  0  0
    8.3773    5.3543   23.8008 C   0  0  0  0  0  0  0  0  0  0  0  0
    7.7803    6.0615   24.3739 H   0  0  0  0  0  0  0  0  0  0  0  0
    7.7601    4.3314   23.0835 C   0  0  0  0  0  0  0  0  0  0  0  0
    6.6760    4.2691   23.0792 H   0  0  0  0  0  0  0  0  0  0  0  0
  1  2  1  0
  2  3  2  3
  3  4  1  0
  4  5  1  0
  5  6  2  0
  6  7  1  0
  6  8  1  0
  8  9  2  0
  9 10  1  0
  9 11  1  0
 11 12  1  0
 11 13  2  0
 13 14  1  0
  4 15  2  0
 15 16  1  0
 16 17  1  0
 16 18  1  0
 16 19  1  0
 19 20  1  0
 19 21  1  0
  2 22  1  0
 22 23  1  0
 22 24  1  0
 22 25  1  0
 25 26  2  0
 26 27  1  0
 26 28  1  0
 28 29  1  0
 28 30  2  0
 30 31  1  0
 31 32  1  0
 31 33  1  0
 31 34  1  0
 30 35  1  0
 35 36  1  0
 35 37  2  0
 37 38  1  0
 19  3  1  0
 37 25  1  0
 13  5  1  0
M  END
>  <cnnaffinity>  (1) 
-5.38994

>  <filename>  (1) 
FC(F)(F)c1ccc(CC=C2CCN=C2c2cccnc2)cc1

$$$$
