
     RDKit          3D

 31 33  0  0  0  0  0  0  0  0999 V2000
    4.9349    1.7923   16.9894 H   0  0  0  0  0  0  0  0  0  0  0  0
    5.4001    1.2918   17.8359 C   0  0  0  0  0  0  0  0  0  0  0  0
    6.5619    0.6691   17.5864 N   0  0  0  0  0  0  0  0  0  0  0  0
    7.1765    0.0540   18.6014 C   0  0  0  0  0  0  0  0  0  0  0  0
    8.1127   -0.4389   18.3522 H   0  0  0  0  0  0  0  0  0  0  0  0
    6.6690    0.0097   19.9121 C   0  0  0  0  0  0  0  0  0  0  0  0
    7.3768   -0.6782   20.9379 N   0  0  0  0  0  0  0  0  0  0  0  0
    8.7497   -0.8323   21.0530 C   0  0  0  0  0  0  0  0  0  0  0  0
    9.3854   -0.3556   20.3260 H   0  0  0  0  0  0  0  0  0  0  0  0
    9.0355   -1.5702   22.1641 C   0  0  0  0  0  0  0  0  0  0  0  0
   10.0255   -1.8445   22.5090 H   0  0  0  0  0  0  0  0  0  0  0  0
    7.7854   -1.9079   22.7796 C   0  0  0  0  0  0  0  0  0  0  0  0
    7.5286   -2.7435   23.9817 C   0  0  0  0  0  0  0  0  0  0  0  0
    6.5687   -3.6723   23.8378 N   0  0  0  0  0  0  0  0  0  0  0  0
    6.3499   -4.5422   24.8201 C   0  0  0  0  0  0  0  0  0  0  0  0
    5.5739   -5.2812   24.6182 H   0  0  0  0  0  0  0  0  0  0  0  0
    7.0535   -4.5330   26.0294 C   0  0  0  0  0  0  0  0  0  0  0  0
    6.8176   -5.2700   26.7920 H   0  0  0  0  0  0  0  0  0  0  0  0
    8.0079   -3.5469   26.2315 C   0  0  0  0  0  0  0  0  0  0  0  0
    8.5729   -3.4908   27.1678 H   0  0  0  0  0  0  0  0  0  0  0  0
    8.2105   -2.6131   25.2061 C   0  0  0  0  0  0  0  0  0  0  0  0
    9.1995   -1.5124   25.3686 C   0  0  0  0  0  0  0  0  0  0  0  0
    8.7925   -0.3423   24.8508 F   0  0  0  0  0  0  0  0  0  0  0  0
   10.3524   -1.8392   24.7380 F   0  0  0  0  0  0  0  0  0  0  0  0
    9.4948   -1.2904   26.6589 F   0  0  0  0  0  0  0  0  0  0  0  0
    6.8066   -1.3577   21.9839 C   0  0  0  0  0  0  0  0  0  0  0  0
    5.7311   -1.4463   22.0323 H   0  0  0  0  0  0  0  0  0  0  0  0
    5.4468    0.6519   20.1631 C   0  0  0  0  0  0  0  0  0  0  0  0
    5.0178    0.6619   21.1652 H   0  0  0  0  0  0  0  0  0  0  0  0
    4.8111    1.3065   19.1041 C   0  0  0  0  0  0  0  0  0  0  0  0
    3.8786    1.8368   19.2503 H   0  0  0  0  0  0  0  0  0  0  0  0
  1  2  1  0
  2  3  2  0
  3  4  1  0
  4  5  1  0
  4  6  2  0
  6  7  1  0
  7  8  1  0
  8  9  1  0
  8 10  2  0
 10 11  1  0
 10 12  1  0
 12 13  1  0
 13 14  2  0
 14 15  1  0
 15 16  1  0
 15 17  2  0
 17 18  1  0
 17 19  1  0
 19 20  1  0
 19 21  2  0
 21 22  1  0
 22 23  1  0
 22 24  1  0
 22 25  1  0
 12 26  2  0
 26 27  1  0
  6 28  1  0
 28 29  1  0
 28 30  2  0
 30 31  1  0
 30  2  1  0
 26  7  1  0
 21 13  1  0
M  END
>  <cnnaffinity>  (1) 
-5.49309

>  <filename>  (1) 
FC(F)(F)c1cccnc1-c1ccn(-c2cccnc2)c1

$$$$
