
     RDKit          3D

 30 32  0  0  0  0  0  0  0  0999 V2000
    4.9013    2.2905   16.3323 H   0  0  0  0  0  0  0  0  0  0  0  0
    5.1278    1.7699   17.2585 C   0  0  0  0  0  0  0  0  0  0  0  0
    6.2284    1.0051   17.2459 N   0  0  0  0  0  0  0  0  0  0  0  0
    6.5431    0.3794   18.3794 C   0  0  0  0  0  0  0  0  0  0  0  0
    7.4257   -0.2538   18.3345 H   0  0  0  0  0  0  0  0  0  0  0  0
    5.8038    0.4918   19.5676 C   0  0  0  0  0  0  0  0  0  0  0  0
    6.3588   -0.2014   20.7209 C   0  0  0  0  0  0  0  0  0  0  0  0
    7.4220   -0.9373   20.6912 N   0  0  0  0  0  0  0  0  0  0  0  0
    7.5816   -1.4068   21.9860 C   0  0  0  0  0  0  0  0  0  0  0  0
    8.7934   -2.1781   22.3527 C   0  0  0  0  0  0  0  0  0  0  0  0
    9.9926   -1.7707   21.7419 C   0  0  0  0  0  0  0  0  0  0  0  0
    9.9311   -1.0368   20.9402 H   0  0  0  0  0  0  0  0  0  0  0  0
   11.2195   -2.2614   22.1630 C   0  0  0  0  0  0  0  0  0  0  0  0
   12.1180   -1.9358   21.6427 H   0  0  0  0  0  0  0  0  0  0  0  0
   11.2584   -3.2087   23.1901 C   0  0  0  0  0  0  0  0  0  0  0  0
   12.1990   -3.6202   23.5356 H   0  0  0  0  0  0  0  0  0  0  0  0
   10.0768   -3.7108   23.7331 C   0  0  0  0  0  0  0  0  0  0  0  0
   10.1304   -4.5273   24.4480 H   0  0  0  0  0  0  0  0  0  0  0  0
    8.8329   -3.2458   23.2848 C   0  0  0  0  0  0  0  0  0  0  0  0
    7.5627   -3.9415   23.7520 C   0  0  0  0  0  0  0  0  0  0  0  0
    7.7906   -5.0782   24.4356 F   0  0  0  0  0  0  0  0  0  0  0  0
    6.7477   -4.2497   22.7259 F   0  0  0  0  0  0  0  0  0  0  0  0
    6.8544   -3.1381   24.5735 F   0  0  0  0  0  0  0  0  0  0  0  0
    6.5891   -0.8879   22.7490 C   0  0  0  0  0  0  0  0  0  0  0  0
    6.3190   -0.9889   23.7871 H   0  0  0  0  0  0  0  0  0  0  0  0
    5.8095   -0.0947   21.9452 O   0  0  0  0  0  0  0  0  0  0  0  0
    4.6221    1.2497   19.5551 C   0  0  0  0  0  0  0  0  0  0  0  0
    3.9808    1.3279   20.4354 H   0  0  0  0  0  0  0  0  0  0  0  0
    4.2887    1.8997   18.3712 C   0  0  0  0  0  0  0  0  0  0  0  0
    3.4023    2.5193   18.2951 H   0  0  0  0  0  0  0  0  0  0  0  0
  1  2  1  0
  2  3  2  0
  3  4  1  0
  4  5  1  0
  4  6  2  0
  6  7  1  0
  7  8  2  0
  8  9  1  0
  9 10  1  0
 10 11  2  0
 11 12  1  0
 11 13  1  0
 13 14  1  0
 13 15  2  0
 15 16  1  0
 15 17  1  0
 17 18  1  0
 17 19  2  0
 19 20  1  0
 20 21  1  0
 20 22  1  0
 20 23  1  0
  9 24  2  0
 24 25  1  0
 24 26  1  0
  6 27  1  0
 27 28  1  0
 27 29  2  0
 29 30  1  0
 29  2  1  0
 26  7  1  0
 19 10  1  0
M  END
>  <cnnaffinity>  (1) 
-5.33819

>  <filename>  (1) 
FC(F)(F)c1ccccc1-c1coc(-c2cccnc2)n1

$$$$
