
     RDKit          3D

 28 30  0  0  0  0  0  0  0  0999 V2000
    5.0078    1.7902   16.9258 H   0  0  0  0  0  0  0  0  0  0  0  0
    5.4472    1.2969   17.7934 C   0  0  0  0  0  0  0  0  0  0  0  0
    6.6056    0.6518   17.5871 N   0  0  0  0  0  0  0  0  0  0  0  0
    7.1624    0.0265   18.6304 C   0  0  0  0  0  0  0  0  0  0  0  0
    8.0869   -0.5052   18.4102 H   0  0  0  0  0  0  0  0  0  0  0  0
    6.6172    0.0391   19.9283 C   0  0  0  0  0  0  0  0  0  0  0  0
    7.2797   -0.6521   21.0340 C   0  0  0  0  0  0  0  0  0  0  0  0
    7.8024   -1.8642   20.8434 N   0  0  0  0  0  0  0  0  0  0  0  0
    8.2144   -2.2253   22.0554 N   0  0  0  0  0  0  0  0  0  0  0  0
    8.0100   -1.3171   23.0124 C   0  0  0  0  0  0  0  0  0  0  0  0
    7.4184   -0.2357   22.3916 C   0  0  0  0  0  0  0  0  0  0  0  0
    7.0133    1.0610   23.0121 C   0  0  0  0  0  0  0  0  0  0  0  0
    5.9621    1.0885   23.3328 H   0  0  0  0  0  0  0  0  0  0  0  0
    7.2277    2.0854   22.1446 F   0  0  0  0  0  0  0  0  0  0  0  0
    7.7568    1.3002   24.1331 F   0  0  0  0  0  0  0  0  0  0  0  0
    8.6105   -1.7674   24.3076 C   0  0  0  0  0  0  0  0  0  0  0  0
    9.4010   -1.0762   24.6211 H   0  0  0  0  0  0  0  0  0  0  0  0
    7.8665   -1.8065   25.1050 H   0  0  0  0  0  0  0  0  0  0  0  0
    9.1434   -3.1874   23.9736 C   0  0  0  0  0  0  0  0  0  0  0  0
    8.5120   -3.9638   24.4125 H   0  0  0  0  0  0  0  0  0  0  0  0
   10.1543   -3.3317   24.3550 H   0  0  0  0  0  0  0  0  0  0  0  0
    9.0802   -3.3209   22.4305 C   0  0  0  0  0  0  0  0  0  0  0  0
    8.6500   -4.2725   22.1102 H   0  0  0  0  0  0  0  0  0  0  0  0
   10.0577   -3.1665   21.9654 H   0  0  0  0  0  0  0  0  0  0  0  0
    5.3920    0.6934   20.1180 C   0  0  0  0  0  0  0  0  0  0  0  0
    4.9131    0.6971   21.0991 H   0  0  0  0  0  0  0  0  0  0  0  0
    4.8010    1.3309   19.0311 C   0  0  0  0  0  0  0  0  0  0  0  0
    3.8537    1.8447   19.1304 H   0  0  0  0  0  0  0  0  0  0  0  0
  1  2  1  0
  2  3  2  0
  3  4  1  0
  4  5  1  0
  4  6  2  0
  6  7  1  0
  7  8  2  0
  8  9  1  0
  9 10  1  0
 10 11  2  0
 11 12  1  0
 12 13  1  0
 12 14  1  0
 12 15  1  0
 10 16  1  0
 16 17  1  0
 16 18  1  0
 16 19  1  0
 19 20  1  0
 19 21  1  0
 19 22  1  0
 22 23  1  0
 22 24  1  0
  6 25  1  0
 25 26  1  0
 25 27  2  0
 27 28  1  0
 27  2  1  0
 11  7  1  0
 22  9  1  0
M  END
>  <cnnaffinity>  (1) 
-4.86287

>  <filename>  (1) 
FC(F)c1c(-c2cccnc2)nn2c1CCC2

$$$$
