
     RDKit          3D

 34 37  0  0  0  0  0  0  0  0999 V2000
    4.9035    2.1419   16.3162 H   0  0  0  0  0  0  0  0  0  0  0  0
    5.3354    1.5732   17.1415 C   0  0  0  0  0  0  0  0  0  0  0  0
    6.4661    0.9037   16.8837 N   0  0  0  0  0  0  0  0  0  0  0  0
    7.0394    0.2323   17.8892 C   0  0  0  0  0  0  0  0  0  0  0  0
    7.9512   -0.2952   17.6221 H   0  0  0  0  0  0  0  0  0  0  0  0
    6.5277    0.1916   19.2032 C   0  0  0  0  0  0  0  0  0  0  0  0
    7.2784   -0.4856   20.2800 C   0  0  0  0  0  0  0  0  0  0  0  0
    8.4861   -1.0101   20.0127 N   0  0  0  0  0  0  0  0  0  0  0  0
    8.8639   -1.5074   21.1967 N   0  0  0  0  0  0  0  0  0  0  0  0
    9.9722   -2.1938   21.6454 C   0  0  0  0  0  0  0  0  0  0  0  0
   10.8004   -2.3412   20.9769 H   0  0  0  0  0  0  0  0  0  0  0  0
    9.7414   -2.4684   22.9497 C   0  0  0  0  0  0  0  0  0  0  0  0
   10.3496   -3.0605   23.6110 H   0  0  0  0  0  0  0  0  0  0  0  0
    8.4991   -1.9158   23.3302 N   0  0  0  0  0  0  0  0  0  0  0  0
    7.9332   -1.7976   24.6195 C   0  0  0  0  0  0  0  0  0  0  0  0
    6.8097   -1.0790   24.7402 N   0  0  0  0  0  0  0  0  0  0  0  0
    6.2757   -0.9131   25.9618 C   0  0  0  0  0  0  0  0  0  0  0  0
    4.9756   -0.0861   26.1594 C   0  0  0  0  0  0  0  0  0  0  0  0
    4.4714    0.4824   25.0607 F   0  0  0  0  0  0  0  0  0  0  0  0
    5.1938    0.9022   27.0541 F   0  0  0  0  0  0  0  0  0  0  0  0
    4.0054   -0.8572   26.6968 F   0  0  0  0  0  0  0  0  0  0  0  0
    6.8521   -1.4682   27.1102 C   0  0  0  0  0  0  0  0  0  0  0  0
    6.4136   -1.3023   28.0838 H   0  0  0  0  0  0  0  0  0  0  0  0
    7.9991   -2.2504   26.9756 C   0  0  0  0  0  0  0  0  0  0  0  0
    8.4430   -2.7155   27.8489 H   0  0  0  0  0  0  0  0  0  0  0  0
    8.5565   -2.4236   25.7174 C   0  0  0  0  0  0  0  0  0  0  0  0
    9.4428   -3.0312   25.5856 H   0  0  0  0  0  0  0  0  0  0  0  0
    7.9704   -1.3306   22.1804 C   0  0  0  0  0  0  0  0  0  0  0  0
    6.9004   -0.6511   21.6326 C   0  0  0  0  0  0  0  0  0  0  0  0
    6.0257   -0.3335   22.1657 H   0  0  0  0  0  0  0  0  0  0  0  0
    5.3153    0.8564   19.4395 C   0  0  0  0  0  0  0  0  0  0  0  0
    4.8445    0.8360   20.4235 H   0  0  0  0  0  0  0  0  0  0  0  0
    4.7181    1.5602   18.3950 C   0  0  0  0  0  0  0  0  0  0  0  0
    3.8002    2.1112   18.5463 H   0  0  0  0  0  0  0  0  0  0  0  0
  1  2  1  0
  2  3  2  0
  3  4  1  0
  4  5  1  0
  4  6  2  0
  6  7  1  0
  7  8  2  0
  8  9  1  0
  9 10  1  0
 10 11  1  0
 10 12  2  0
 12 13  1  0
 12 14  1  0
 14 15  1  0
 15 16  2  0
 16 17  1  0
 17 18  1  0
 18 19  1  0
 18 20  1  0
 18 21  1  0
 17 22  2  0
 22 23  1  0
 22 24  1  0
 24 25  1  0
 24 26  2  0
 26 27  1  0
 14 28  1  0
 28 29  2  0
 29 30  1  0
  6 31  1  0
 31 32  1  0
 31 33  2  0
 33 34  1  0
 33  2  1  0
 29  7  1  0
 28  9  1  0
 26 15  1  0
M  END
>  <cnnaffinity>  (1) 
-5.36301

>  <filename>  (1) 
FC(F)(F)c1cccc(-n2ccn3nc(-c4cccnc4)cc23)n1

$$$$
