
     RDKit          3D

 32 34  0  0  0  0  0  0  0  0999 V2000
    9.0314   -0.3801   20.2192 H   0  0  0  0  0  0  0  0  0  0  0  0
    8.3575   -0.8463   20.9361 C   0  0  0  0  0  0  0  0  0  0  0  0
    8.9299   -1.5663   21.9021 N   0  0  0  0  0  0  0  0  0  0  0  0
    8.1184   -2.1995   22.7950 C   0  0  0  0  0  0  0  0  0  0  0  0
    8.7890   -3.1205   23.7777 C   0  0  0  0  0  0  0  0  0  0  0  0
   10.1984   -3.1817   23.7838 C   0  0  0  0  0  0  0  0  0  0  0  0
   10.7470   -2.5321   23.1127 H   0  0  0  0  0  0  0  0  0  0  0  0
   10.8871   -4.0640   24.6058 C   0  0  0  0  0  0  0  0  0  0  0  0
   11.9649   -4.1266   24.5316 H   0  0  0  0  0  0  0  0  0  0  0  0
   10.2004   -4.9117   25.4659 C   0  0  0  0  0  0  0  0  0  0  0  0
   10.7369   -5.6233   26.0913 H   0  0  0  0  0  0  0  0  0  0  0  0
    8.7973   -4.8569   25.4957 C   0  0  0  0  0  0  0  0  0  0  0  0
    8.0920   -5.8037   26.4384 C   0  0  0  0  0  0  0  0  0  0  0  0
    8.6098   -7.0347   26.2961 F   0  0  0  0  0  0  0  0  0  0  0  0
    8.2692   -5.4696   27.7316 F   0  0  0  0  0  0  0  0  0  0  0  0
    6.7661   -5.8895   26.2289 F   0  0  0  0  0  0  0  0  0  0  0  0
    8.0946   -3.9859   24.6479 C   0  0  0  0  0  0  0  0  0  0  0  0
    7.0064   -3.9934   24.6936 H   0  0  0  0  0  0  0  0  0  0  0  0
    6.7161   -2.0001   22.6990 C   0  0  0  0  0  0  0  0  0  0  0  0
    6.0463   -2.4282   23.4375 H   0  0  0  0  0  0  0  0  0  0  0  0
    6.1379   -1.2613   21.7329 N   0  0  0  0  0  0  0  0  0  0  0  0
    6.9499   -0.6808   20.8233 C   0  0  0  0  0  0  0  0  0  0  0  0
    6.3329    0.1155   19.7237 C   0  0  0  0  0  0  0  0  0  0  0  0
    6.9576    0.1313   18.4630 C   0  0  0  0  0  0  0  0  0  0  0  0
    7.8873   -0.4134   18.3049 H   0  0  0  0  0  0  0  0  0  0  0  0
    6.4943    0.7762   17.3907 N   0  0  0  0  0  0  0  0  0  0  0  0
    5.3638    1.4820   17.5403 C   0  0  0  0  0  0  0  0  0  0  0  0
    5.0106    2.0123   16.6573 H   0  0  0  0  0  0  0  0  0  0  0  0
    4.6647    1.5568   18.7487 C   0  0  0  0  0  0  0  0  0  0  0  0
    3.7674    2.1659   18.8008 H   0  0  0  0  0  0  0  0  0  0  0  0
    5.1496    0.8666   19.8622 C   0  0  0  0  0  0  0  0  0  0  0  0
    4.6265    0.9221   20.8183 H   0  0  0  0  0  0  0  0  0  0  0  0
  1  2  1  0
  2  3  2  0
  3  4  1  0
  4  5  1  0
  5  6  2  0
  6  7  1  0
  6  8  1  0
  8  9  1  0
  8 10  2  0
 10 11  1  0
 10 12  1  0
 12 13  1  0
 13 14  1  0
 13 15  1  0
 13 16  1  0
 12 17  2  0
 17 18  1  0
  4 19  2  0
 19 20  1  0
 19 21  1  0
 21 22  2  0
 22 23  1  0
 23 24  2  0
 24 25  1  0
 24 26  1  0
 26 27  2  0
 27 28  1  0
 27 29  1  0
 29 30  1  0
 29 31  2  0
 31 32  1  0
 22  2  1  0
 31 23  1  0
 17  5  1  0
M  END
>  <cnnaffinity>  (1) 
-4.98174

>  <filename>  (1) 
FC(F)(F)c1cccc(-c2cnc(-c3cccnc3)cn2)c1

$$$$
