
     RDKit          3D

 30 32  0  0  0  0  0  0  0  0999 V2000
    4.9213    1.7806   16.9982 H   0  0  0  0  0  0  0  0  0  0  0  0
    5.4070    1.2930   17.8391 C   0  0  0  0  0  0  0  0  0  0  0  0
    6.5720    0.6806   17.5757 N   0  0  0  0  0  0  0  0  0  0  0  0
    7.1715    0.0527   18.5891 C   0  0  0  0  0  0  0  0  0  0  0  0
    8.1181   -0.4320   18.3673 H   0  0  0  0  0  0  0  0  0  0  0  0
    6.6488   -0.0082   19.8867 C   0  0  0  0  0  0  0  0  0  0  0  0
    7.3781   -0.7353   20.9358 C   0  0  0  0  0  0  0  0  0  0  0  0
    7.9562   -1.8849   20.7041 N   0  0  0  0  0  0  0  0  0  0  0  0
    8.4457   -2.3211   21.9125 O   0  0  0  0  0  0  0  0  0  0  0  0
    8.1640   -1.4158   22.8458 C   0  0  0  0  0  0  0  0  0  0  0  0
    8.5189   -1.6192   23.8483 H   0  0  0  0  0  0  0  0  0  0  0  0
    7.5104   -0.3559   22.3123 C   0  0  0  0  0  0  0  0  0  0  0  0
    7.1159    0.8813   22.9933 C   0  0  0  0  0  0  0  0  0  0  0  0
    7.2557    2.1305   22.3669 C   0  0  0  0  0  0  0  0  0  0  0  0
    7.6431    2.1655   21.3527 H   0  0  0  0  0  0  0  0  0  0  0  0
    6.8757    3.2951   23.0270 C   0  0  0  0  0  0  0  0  0  0  0  0
    6.9682    4.2534   22.5279 H   0  0  0  0  0  0  0  0  0  0  0  0
    6.3784    3.2332   24.3303 C   0  0  0  0  0  0  0  0  0  0  0  0
    6.0833    4.1454   24.8406 H   0  0  0  0  0  0  0  0  0  0  0  0
    6.2715    1.9902   24.9747 C   0  0  0  0  0  0  0  0  0  0  0  0
    5.7039    1.9050   26.3735 C   0  0  0  0  0  0  0  0  0  0  0  0
    6.2073    0.8764   27.0809 F   0  0  0  0  0  0  0  0  0  0  0  0
    5.9311    3.0181   27.0944 F   0  0  0  0  0  0  0  0  0  0  0  0
    4.3691    1.7302   26.3527 F   0  0  0  0  0  0  0  0  0  0  0  0
    6.6240    0.8152   24.3016 C   0  0  0  0  0  0  0  0  0  0  0  0
    6.5165   -0.1626   24.7703 H   0  0  0  0  0  0  0  0  0  0  0  0
    5.4287    0.6358   20.1493 C   0  0  0  0  0  0  0  0  0  0  0  0
    5.0037    0.6372   21.1587 H   0  0  0  0  0  0  0  0  0  0  0  0
    4.8041    1.3053   19.1037 C   0  0  0  0  0  0  0  0  0  0  0  0
    3.8728    1.8434   19.2579 H   0  0  0  0  0  0  0  0  0  0  0  0
  1  2  1  0
  2  3  2  0
  3  4  1  0
  4  5  1  0
  4  6  2  0
  6  7  1  0
  7  8  2  0
  8  9  1  0
  9 10  1  0
 10 11  1  0
 10 12  2  0
 12 13  1  0
 13 14  2  0
 14 15  1  0
 14 16  1  0
 16 17  1  0
 16 18  2  0
 18 19  1  0
 18 20  1  0
 20 21  1  0
 21 22  1  0
 21 23  1  0
 21 24  1  0
 20 25  2  0
 25 26  1  0
  6 27  1  0
 27 28  1  0
 27 29  2  0
 29 30  1  0
 29  2  1  0
 12  7  1  0
 25 13  1  0
M  END
>  <cnnaffinity>  (1) 
-4.99268

>  <filename>  (1) 
FC(F)(F)c1cccc(-c2conc2-c2cccnc2)c1

$$$$
