
     RDKit          3D

 31 33  0  0  0  0  0  0  0  0999 V2000
    5.1248    1.7345   16.8620 H   0  0  0  0  0  0  0  0  0  0  0  0
    5.5399    1.2636   17.7494 C   0  0  0  0  0  0  0  0  0  0  0  0
    6.6991    0.6121   17.5806 N   0  0  0  0  0  0  0  0  0  0  0  0
    7.2304    0.0156   18.6505 C   0  0  0  0  0  0  0  0  0  0  0  0
    8.1785   -0.4909   18.4877 H   0  0  0  0  0  0  0  0  0  0  0  0
    6.6405    0.0275   19.9238 C   0  0  0  0  0  0  0  0  0  0  0  0
    7.2959   -0.7011   21.0152 C   0  0  0  0  0  0  0  0  0  0  0  0
    8.4230   -1.3655   20.7227 N   0  0  0  0  0  0  0  0  0  0  0  0
    8.9689   -2.0669   21.6914 C   0  0  0  0  0  0  0  0  0  0  0  0
    9.8826   -2.6006   21.4345 H   0  0  0  0  0  0  0  0  0  0  0  0
    8.3956   -2.2023   22.9597 C   0  0  0  0  0  0  0  0  0  0  0  0
    9.0036   -3.1135   23.8813 C   0  0  0  0  0  0  0  0  0  0  0  0
   10.4041   -2.9547   23.9489 N   0  0  0  0  0  0  0  0  0  0  0  0
   11.2107   -3.7166   24.6999 C   0  0  0  0  0  0  0  0  0  0  0  0
   10.8656   -2.1870   23.4259 H   0  0  0  0  0  0  0  0  0  0  0  0
   10.6068   -4.6883   25.5342 C   0  0  0  0  0  0  0  0  0  0  0  0
   11.2152   -5.2194   26.2464 H   0  0  0  0  0  0  0  0  0  0  0  0
    9.2469   -4.9655   25.4303 C   0  0  0  0  0  0  0  0  0  0  0  0
    8.8246   -5.7828   26.0282 H   0  0  0  0  0  0  0  0  0  0  0  0
    8.4597   -4.1886   24.5457 C   0  0  0  0  0  0  0  0  0  0  0  0
    7.0065   -4.4260   24.3374 C   0  0  0  0  0  0  0  0  0  0  0  0
    6.6096   -5.5954   24.8606 F   0  0  0  0  0  0  0  0  0  0  0  0
    6.6694   -4.4332   23.0350 F   0  0  0  0  0  0  0  0  0  0  0  0
    6.2682   -3.4636   24.9396 F   0  0  0  0  0  0  0  0  0  0  0  0
    7.2707   -1.4120   23.1858 C   0  0  0  0  0  0  0  0  0  0  0  0
    6.7836   -1.3549   24.1563 H   0  0  0  0  0  0  0  0  0  0  0  0
    6.7262   -0.6831   22.2237 N   0  0  0  0  0  0  0  0  0  0  0  0
    5.4299    0.7253   20.0895 C   0  0  0  0  0  0  0  0  0  0  0  0
    4.9441    0.7734   21.0661 H   0  0  0  0  0  0  0  0  0  0  0  0
    4.8770    1.3493   18.9778 C   0  0  0  0  0  0  0  0  0  0  0  0
    3.9441    1.8993   19.0438 H   0  0  0  0  0  0  0  0  0  0  0  0
  1  2  1  0
  2  3  2  0
  3  4  1  0
  4  5  1  0
  4  6  2  0
  6  7  1  0
  7  8  2  0
  8  9  1  0
  9 10  1  0
  9 11  2  0
 11 12  1  0
 12 13  2  0
 13 14  1  0
 14 15  1  0
 14 16  2  0
 16 17  1  0
 16 18  1  0
 18 19  1  0
 18 20  2  0
 20 21  1  0
 21 22  1  0
 21 23  1  0
 21 24  1  0
 11 25  1  0
 25 26  1  0
 25 27  2  0
  6 28  1  0
 28 29  1  0
 28 30  2  0
 30 31  1  0
 30  2  1  0
 27  7  1  0
 20 12  1  0
M  END
>  <cnnaffinity>  (1) 
-5.61029

>  <filename>  (1) 
FC(F)(F)c1cccnc1-c1cnc(-c2cccnc2)nc1

$$$$
