
     RDKit          3D

 30 32  0  0  0  0  0  0  0  0999 V2000
    4.9182    1.7753   16.9994 H   0  0  0  0  0  0  0  0  0  0  0  0
    5.4048    1.2897   17.8438 C   0  0  0  0  0  0  0  0  0  0  0  0
    6.5701    0.6713   17.5947 N   0  0  0  0  0  0  0  0  0  0  0  0
    7.1782    0.0568   18.6110 C   0  0  0  0  0  0  0  0  0  0  0  0
    8.1178   -0.4352   18.3728 H   0  0  0  0  0  0  0  0  0  0  0  0
    6.6635    0.0055   19.9127 C   0  0  0  0  0  0  0  0  0  0  0  0
    7.3694   -0.6824   20.9342 N   0  0  0  0  0  0  0  0  0  0  0  0
    6.7236   -1.0841   22.0392 N   0  0  0  0  0  0  0  0  0  0  0  0
    7.6358   -1.6697   22.8174 C   0  0  0  0  0  0  0  0  0  0  0  0
    7.3350   -2.2619   24.1607 C   0  0  0  0  0  0  0  0  0  0  0  0
    6.0726   -2.1957   24.6065 N   0  0  0  0  0  0  0  0  0  0  0  0
    5.7579   -2.7062   25.7961 C   0  0  0  0  0  0  0  0  0  0  0  0
    4.2915   -2.5990   26.2593 C   0  0  0  0  0  0  0  0  0  0  0  0
    3.7735   -3.8234   26.4955 F   0  0  0  0  0  0  0  0  0  0  0  0
    4.2064   -1.9322   27.4300 F   0  0  0  0  0  0  0  0  0  0  0  0
    3.4805   -1.9872   25.3938 F   0  0  0  0  0  0  0  0  0  0  0  0
    6.6988   -3.3334   26.6316 C   0  0  0  0  0  0  0  0  0  0  0  0
    6.4020   -3.7400   27.5911 H   0  0  0  0  0  0  0  0  0  0  0  0
    8.0182   -3.4142   26.1814 C   0  0  0  0  0  0  0  0  0  0  0  0
    8.7753   -3.8939   26.8007 H   0  0  0  0  0  0  0  0  0  0  0  0
    8.3454   -2.8773   24.9394 C   0  0  0  0  0  0  0  0  0  0  0  0
    9.3680   -2.9369   24.5844 H   0  0  0  0  0  0  0  0  0  0  0  0
    8.9072   -1.6332   22.1800 C   0  0  0  0  0  0  0  0  0  0  0  0
    9.8571   -2.0106   22.5382 H   0  0  0  0  0  0  0  0  0  0  0  0
    8.6975   -0.9971   20.9921 C   0  0  0  0  0  0  0  0  0  0  0  0
    9.3776   -0.7185   20.1972 H   0  0  0  0  0  0  0  0  0  0  0  0
    5.4401    0.6505   20.1708 C   0  0  0  0  0  0  0  0  0  0  0  0
    5.0146    0.6181   21.1752 H   0  0  0  0  0  0  0  0  0  0  0  0
    4.8121    1.3082   19.1128 C   0  0  0  0  0  0  0  0  0  0  0  0
    3.8778    1.8406   19.2647 H   0  0  0  0  0  0  0  0  0  0  0  0
  1  2  1  0
  2  3  2  0
  3  4  1  0
  4  5  1  0
  4  6  2  0
  6  7  1  0
  7  8  1  0
  8  9  2  0
  9 10  1  0
 10 11  2  0
 11 12  1  0
 12 13  1  0
 13 14  1  0
 13 15  1  0
 13 16  1  0
 12 17  2  0
 17 18  1  0
 17 19  1  0
 19 20  1  0
 19 21  2  0
 21 22  1  0
  9 23  1  0
 23 24  1  0
 23 25  2  0
 25 26  1  0
  6 27  1  0
 27 28  1  0
 27 29  2  0
 29 30  1  0
 29  2  1  0
 25  7  1  0
 21 10  1  0
M  END
>  <cnnaffinity>  (1) 
-5.27475

>  <filename>  (1) 
FC(F)(F)c1cccc(-c2ccn(-c3cccnc3)n2)n1

$$$$
