
     RDKit          3D

 31 33  0  0  0  0  0  0  0  0999 V2000
    9.6627   -6.1126   25.7832 F   0  0  0  0  0  0  0  0  0  0  0  0
    9.8423   -4.8616   26.2491 C   0  0  0  0  0  0  0  0  0  0  0  0
   11.0419   -4.4601   25.7961 F   0  0  0  0  0  0  0  0  0  0  0  0
    9.9234   -4.9435   27.5903 F   0  0  0  0  0  0  0  0  0  0  0  0
    8.7261   -3.9347   25.8014 C   0  0  0  0  0  0  0  0  0  0  0  0
    7.5736   -3.7734   26.5901 C   0  0  0  0  0  0  0  0  0  0  0  0
    6.5304   -2.9565   26.1380 C   0  0  0  0  0  0  0  0  0  0  0  0
    6.6330   -2.3046   24.9083 C   0  0  0  0  0  0  0  0  0  0  0  0
    7.7726   -2.4643   24.1011 C   0  0  0  0  0  0  0  0  0  0  0  0
    7.8671   -1.7905   22.7928 C   0  0  0  0  0  0  0  0  0  0  0  0
    6.8588   -1.1911   22.0725 C   0  0  0  0  0  0  0  0  0  0  0  0
    7.3788   -0.6865   20.9323 N   0  0  0  0  0  0  0  0  0  0  0  0
    6.6725    0.0064   19.9161 C   0  0  0  0  0  0  0  0  0  0  0  0
    5.4489    0.6473   20.1713 C   0  0  0  0  0  0  0  0  0  0  0  0
    4.8201    1.3009   19.1106 C   0  0  0  0  0  0  0  0  0  0  0  0
    5.4092    1.2833   17.8442 C   0  0  0  0  0  0  0  0  0  0  0  0
    6.5719    0.6580   17.5936 N   0  0  0  0  0  0  0  0  0  0  0  0
    7.1885    0.0495   18.6105 C   0  0  0  0  0  0  0  0  0  0  0  0
    8.1346   -0.4284   18.3723 H   0  0  0  0  0  0  0  0  0  0  0  0
    4.9402    1.7809   16.9977 H   0  0  0  0  0  0  0  0  0  0  0  0
    3.8880    1.8307   19.2595 H   0  0  0  0  0  0  0  0  0  0  0  0
    5.0059    0.6593   21.1697 H   0  0  0  0  0  0  0  0  0  0  0  0
    8.6999   -0.9395   20.8422 N   0  0  0  0  0  0  0  0  0  0  0  0
    8.9994   -1.5896   21.9517 C   0  0  0  0  0  0  0  0  0  0  0  0
   10.0289   -1.8852   22.1150 H   0  0  0  0  0  0  0  0  0  0  0  0
    5.8043   -1.1005   22.2462 H   0  0  0  0  0  0  0  0  0  0  0  0
    8.8122   -3.2883   24.5603 C   0  0  0  0  0  0  0  0  0  0  0  0
    9.6843   -3.4172   23.9233 H   0  0  0  0  0  0  0  0  0  0  0  0
    5.8285   -1.6606   24.5626 H   0  0  0  0  0  0  0  0  0  0  0  0
    5.6370   -2.8319   26.7467 H   0  0  0  0  0  0  0  0  0  0  0  0
    7.4928   -4.2820   27.5485 H   0  0  0  0  0  0  0  0  0  0  0  0
  1  2  1  0
  2  3  1  0
  2  4  1  0
  2  5  1  0
  5  6  2  0
  6  7  1  0
  7  8  2  0
  8  9  1  0
  9 10  1  0
 10 11  2  0
 11 12  1  0
 12 13  1  0
 13 14  2  0
 14 15  1  0
 15 16  2  0
 16 17  1  0
 17 18  2  0
 18 19  1  0
 16 20  1  0
 15 21  1  0
 14 22  1  0
 12 23  1  0
 23 24  2  0
 24 25  1  0
 11 26  1  0
  9 27  2  0
 27 28  1  0
  8 29  1  0
  7 30  1  0
  6 31  1  0
 27  5  1  0
 24 10  1  0
 18 13  1  0
M  END
>  <cnnaffinity>  (1) 
-5.17425

>  <filename>  (1) 
FC(F)(F)c1cccc(-c2cnn(-c3cccnc3)c2)c1

$$$$
