
     RDKit          3D

 30 31  0  0  0  0  0  0  0  0999 V2000
    5.3073    1.9681   17.4129 H   0  0  0  0  0  0  0  0  0  0  0  0
    5.7329    1.2924   18.1508 C   0  0  0  0  0  0  0  0  0  0  0  0
    6.8391    0.5963   17.8368 N   0  0  0  0  0  0  0  0  0  0  0  0
    7.3345   -0.2535   18.7575 C   0  0  0  0  0  0  0  0  0  0  0  0
    8.2262   -0.8147   18.4924 H   0  0  0  0  0  0  0  0  0  0  0  0
    6.7481   -0.4529   20.0238 C   0  0  0  0  0  0  0  0  0  0  0  0
    7.3188   -1.4728   20.9960 C   0  0  2  0  0  0  0  0  0  0  0  0
    8.1793   -1.9751   20.5391 H   0  0  0  0  0  0  0  0  0  0  0  0
    5.9348   -2.8389   21.4147 Br  0  0  0  0  0  0  0  0  0  0  0  0
    7.7811   -0.8408   22.3163 C   0  0  0  0  0  0  0  0  0  0  0  0
    6.9313   -0.4005   22.8514 H   0  0  0  0  0  0  0  0  0  0  0  0
    8.2194   -1.6139   22.9560 H   0  0  0  0  0  0  0  0  0  0  0  0
    8.7991    0.2366   22.0565 C   0  0  0  0  0  0  0  0  0  0  0  0
    8.3262    1.4991   21.7216 C   0  0  0  0  0  0  0  0  0  0  0  0
    7.2545    1.6598   21.6643 H   0  0  0  0  0  0  0  0  0  0  0  0
    9.2043    2.5491   21.4859 C   0  0  0  0  0  0  0  0  0  0  0  0
    8.8023    3.5333   21.2686 H   0  0  0  0  0  0  0  0  0  0  0  0
   10.5821    2.3250   21.5325 C   0  0  0  0  0  0  0  0  0  0  0  0
   11.2687    3.1410   21.3219 H   0  0  0  0  0  0  0  0  0  0  0  0
   11.0806    1.0681   21.8874 C   0  0  0  0  0  0  0  0  0  0  0  0
   12.1622    0.9456   21.9709 H   0  0  0  0  0  0  0  0  0  0  0  0
   10.1837    0.0081   22.1724 C   0  0  0  0  0  0  0  0  0  0  0  0
   10.6486   -1.3482   22.6635 C   0  0  0  0  0  0  0  0  0  0  0  0
   11.9723   -1.5330   22.4171 F   0  0  0  0  0  0  0  0  0  0  0  0
    9.9670   -2.3508   22.0404 F   0  0  0  0  0  0  0  0  0  0  0  0
   10.4104   -1.4292   24.0028 F   0  0  0  0  0  0  0  0  0  0  0  0
    5.6153    0.2977   20.3531 C   0  0  0  0  0  0  0  0  0  0  0  0
    5.1405    0.1992   21.3292 H   0  0  0  0  0  0  0  0  0  0  0  0
    5.1032    1.1702   19.3927 C   0  0  0  0  0  0  0  0  0  0  0  0
    4.2189    1.7627   19.5931 H   0  0  0  0  0  0  0  0  0  0  0  0
  1  2  1  0
  2  3  2  0
  3  4  1  0
  4  5  1  0
  4  6  2  0
  6  7  1  0
  7  8  1  6
  7  9  1  0
  7 10  1  0
 10 11  1  0
 10 12  1  0
 10 13  1  0
 13 14  2  0
 14 15  1  0
 14 16  1  0
 16 17  1  0
 16 18  2  0
 18 19  1  0
 18 20  1  0
 20 21  1  0
 20 22  2  0
 22 23  1  0
 23 24  1  0
 23 25  1  0
 23 26  1  0
  6 27  1  0
 27 28  1  0
 27 29  2  0
 29 30  1  0
 29  2  1  0
 22 13  1  0
M  END
>  <cnnaffinity>  (1) 
-5.06866

>  <filename>  (1) 
FC(F)(F)c1ccccc1C[C@@H](Br)c1cccnc1

$$$$
