
     RDKit          3D

 32 34  0  0  0  0  0  0  0  0999 V2000
    4.9173    1.7779   17.0000 H   0  0  0  0  0  0  0  0  0  0  0  0
    5.4030    1.2939   17.8414 C   0  0  0  0  0  0  0  0  0  0  0  0
    6.5684    0.6783   17.5797 N   0  0  0  0  0  0  0  0  0  0  0  0
    7.1684    0.0559   18.5921 C   0  0  0  0  0  0  0  0  0  0  0  0
    8.1170   -0.4364   18.3774 H   0  0  0  0  0  0  0  0  0  0  0  0
    6.6480    0.0215   19.8938 C   0  0  0  0  0  0  0  0  0  0  0  0
    7.3952   -0.7081   20.9128 C   0  0  0  0  0  0  0  0  0  0  0  0
    7.8291   -1.9443   20.8360 N   0  0  0  0  0  0  0  0  0  0  0  0
    8.4448   -2.1974   22.0068 N   0  0  0  0  0  0  0  0  0  0  0  0
    8.4251   -1.1627   22.7699 N   0  0  0  0  0  0  0  0  0  0  0  0
    7.7712   -0.1947   22.1050 N   0  0  0  0  0  0  0  0  0  0  0  0
    7.5855    1.1395   22.6711 C   0  0  0  0  0  0  0  0  0  0  0  0
    7.5236    1.8463   21.8420 H   0  0  0  0  0  0  0  0  0  0  0  0
    8.4912    1.3846   23.2341 H   0  0  0  0  0  0  0  0  0  0  0  0
    6.3685    1.2789   23.5635 C   0  0  0  0  0  0  0  0  0  0  0  0
    5.3974    2.2598   23.3188 C   0  0  0  0  0  0  0  0  0  0  0  0
    5.5001    2.9267   22.4643 H   0  0  0  0  0  0  0  0  0  0  0  0
    4.2840    2.3866   24.1486 C   0  0  0  0  0  0  0  0  0  0  0  0
    3.5375    3.1471   23.9337 H   0  0  0  0  0  0  0  0  0  0  0  0
    4.1453    1.5316   25.2554 C   0  0  0  0  0  0  0  0  0  0  0  0
    2.9221    1.6283   26.1342 C   0  0  0  0  0  0  0  0  0  0  0  0
    1.9240    0.8476   25.6749 F   0  0  0  0  0  0  0  0  0  0  0  0
    2.4272    2.8800   26.1969 F   0  0  0  0  0  0  0  0  0  0  0  0
    3.1585    1.2408   27.4023 F   0  0  0  0  0  0  0  0  0  0  0  0
    5.1114    0.5444   25.5029 C   0  0  0  0  0  0  0  0  0  0  0  0
    5.0085   -0.1357   26.3462 H   0  0  0  0  0  0  0  0  0  0  0  0
    6.2174    0.4291   24.6688 C   0  0  0  0  0  0  0  0  0  0  0  0
    6.9665   -0.3316   24.8636 H   0  0  0  0  0  0  0  0  0  0  0  0
    5.4315    0.6655   20.1583 C   0  0  0  0  0  0  0  0  0  0  0  0
    4.9981    0.6336   21.1624 H   0  0  0  0  0  0  0  0  0  0  0  0
    4.8005    1.3163   19.1067 C   0  0  0  0  0  0  0  0  0  0  0  0
    3.8655    1.8482   19.2598 H   0  0  0  0  0  0  0  0  0  0  0  0
  1  2  1  0
  2  3  2  0
  3  4  1  0
  4  5  1  0
  4  6  2  0
  6  7  1  0
  7  8  2  0
  8  9  1  0
  9 10  2  0
 10 11  1  0
 11 12  1  0
 12 13  1  0
 12 14  1  0
 12 15  1  0
 15 16  2  0
 16 17  1  0
 16 18  1  0
 18 19  1  0
 18 20  2  0
 20 21  1  0
 21 22  1  0
 21 23  1  0
 21 24  1  0
 20 25  1  0
 25 26  1  0
 25 27  2  0
 27 28  1  0
  6 29  1  0
 29 30  1  0
 29 31  2  0
 31 32  1  0
 31  2  1  0
 11  7  1  0
 27 15  1  0
M  END
>  <cnnaffinity>  (1) 
-4.78978

>  <filename>  (1) 
FC(F)(F)c1ccc(Cn2nnnc2-c2cccnc2)cc1

$$$$
