
     RDKit          3D

 32 34  0  0  0  0  0  0  0  0999 V2000
    4.9219    1.8425   16.9830 H   0  0  0  0  0  0  0  0  0  0  0  0
    5.3907    1.3154   17.8117 C   0  0  0  0  0  0  0  0  0  0  0  0
    6.5491    0.6931   17.5361 N   0  0  0  0  0  0  0  0  0  0  0  0
    7.1510    0.0473   18.5426 C   0  0  0  0  0  0  0  0  0  0  0  0
    8.0913   -0.4419   18.2849 H   0  0  0  0  0  0  0  0  0  0  0  0
    6.6378   -0.0367   19.8537 C   0  0  0  0  0  0  0  0  0  0  0  0
    7.3488   -0.7677   20.9255 C   0  0  0  0  0  0  0  0  0  0  0  0
    6.9382   -1.7520   21.8080 C   0  0  0  0  0  0  0  0  0  0  0  0
    5.6690   -2.3814   21.7947 N   0  0  0  0  0  0  0  0  0  0  0  0
    4.8853   -1.7922   22.0452 H   0  0  0  0  0  0  0  0  0  0  0  0
    5.3757   -3.5438   22.4802 C   0  0  0  0  0  0  0  0  0  0  0  0
    4.1692   -3.4941   23.0445 N   0  0  0  0  0  0  0  0  0  0  0  0
    3.7449   -4.5513   23.7534 C   0  0  0  0  0  0  0  0  0  0  0  0
    2.3646   -4.5615   24.4571 C   0  0  0  0  0  0  0  0  0  0  0  0
    1.5897   -5.5400   23.9363 F   0  0  0  0  0  0  0  0  0  0  0  0
    1.6896   -3.4147   24.3708 F   0  0  0  0  0  0  0  0  0  0  0  0
    2.5050   -4.8604   25.7687 F   0  0  0  0  0  0  0  0  0  0  0  0
    4.5133   -5.7156   23.8738 C   0  0  0  0  0  0  0  0  0  0  0  0
    4.1416   -6.5659   24.4306 H   0  0  0  0  0  0  0  0  0  0  0  0
    5.7595   -5.7702   23.2496 C   0  0  0  0  0  0  0  0  0  0  0  0
    6.3739   -6.6648   23.3133 H   0  0  0  0  0  0  0  0  0  0  0  0
    6.2077   -4.6642   22.5363 C   0  0  0  0  0  0  0  0  0  0  0  0
    7.1705   -4.6090   22.0484 H   0  0  0  0  0  0  0  0  0  0  0  0
    8.0653   -1.9738   22.6537 C   0  0  0  0  0  0  0  0  0  0  0  0
    8.1398   -2.6373   23.5080 H   0  0  0  0  0  0  0  0  0  0  0  0
    9.0944   -1.2124   22.3075 N   0  0  0  0  0  0  0  0  0  0  0  0
    8.6478   -0.5098   21.2559 N   0  0  0  0  0  0  0  0  0  0  0  0
    9.2582    0.1705   20.8320 H   0  0  0  0  0  0  0  0  0  0  0  0
    5.4220    0.6177   20.1156 C   0  0  0  0  0  0  0  0  0  0  0  0
    5.0081    0.6246   21.1250 H   0  0  0  0  0  0  0  0  0  0  0  0
    4.7950    1.3069   19.0752 C   0  0  0  0  0  0  0  0  0  0  0  0
    3.8702    1.8480   19.2292 H   0  0  0  0  0  0  0  0  0  0  0  0
  1  2  1  0
  2  3  2  0
  3  4  1  0
  4  5  1  0
  4  6  2  0
  6  7  1  0
  7  8  2  0
  8  9  1  0
  9 10  1  0
  9 11  1  0
 11 12  2  0
 12 13  1  0
 13 14  1  0
 14 15  1  0
 14 16  1  0
 14 17  1  0
 13 18  2  0
 18 19  1  0
 18 20  1  0
 20 21  1  0
 20 22  2  0
 22 23  1  0
  8 24  1  0
 24 25  1  0
 24 26  2  0
 26 27  1  0
 27 28  1  0
  6 29  1  0
 29 30  1  0
 29 31  2  0
 31 32  1  0
 31  2  1  0
 27  7  1  0
 22 11  1  0
M  END
>  <cnnaffinity>  (1) 
-5.66469

>  <filename>  (1) 
FC(F)(F)c1cccc(Nc2cn[nH]c2-c2cccnc2)n1

$$$$
