
     RDKit          3D

 22 23  0  0  0  0  0  0  0  0999 V2000
    4.9282    1.7848   16.9963 H   0  0  0  0  0  0  0  0  0  0  0  0
    5.4036    1.2909   17.8406 C   0  0  0  0  0  0  0  0  0  0  0  0
    6.5659    0.6734   17.5801 N   0  0  0  0  0  0  0  0  0  0  0  0
    7.1857    0.0662   18.5950 C   0  0  0  0  0  0  0  0  0  0  0  0
    8.1254   -0.4363   18.3618 H   0  0  0  0  0  0  0  0  0  0  0  0
    6.6695    0.0218   19.9032 C   0  0  0  0  0  0  0  0  0  0  0  0
    7.3730   -0.6772   20.9328 N   0  0  0  0  0  0  0  0  0  0  0  0
    8.7222   -0.5005   21.2247 C   0  0  0  0  0  0  0  0  0  0  0  0
    9.3271    0.1830   20.6442 H   0  0  0  0  0  0  0  0  0  0  0  0
    9.0355   -1.2971   22.2743 C   0  0  0  0  0  0  0  0  0  0  0  0
   10.3676   -1.4362   22.9934 C   0  0  0  0  0  0  0  0  0  0  0  0
   10.5416   -2.6581   23.5277 F   0  0  0  0  0  0  0  0  0  0  0  0
   10.4798   -0.5484   23.9938 F   0  0  0  0  0  0  0  0  0  0  0  0
   11.3923   -1.2155   22.1538 F   0  0  0  0  0  0  0  0  0  0  0  0
    7.8398   -1.9462   22.6181 N   0  0  0  0  0  0  0  0  0  0  0  0
    7.6544   -2.6496   23.3154 H   0  0  0  0  0  0  0  0  0  0  0  0
    6.8500   -1.6809   21.7242 C   0  0  0  0  0  0  0  0  0  0  0  0
    5.4574   -2.5766   21.6003 S   0  0  0  0  0  0  0  0  0  0  0  0
    5.4467    0.6475   20.1678 C   0  0  0  0  0  0  0  0  0  0  0  0
    5.0201    0.6111   21.1713 H   0  0  0  0  0  0  0  0  0  0  0  0
    4.8151    1.3079   19.1090 C   0  0  0  0  0  0  0  0  0  0  0  0
    3.8827    1.8351   19.2557 H   0  0  0  0  0  0  0  0  0  0  0  0
  1  2  1  0
  2  3  2  0
  3  4  1  0
  4  5  1  0
  4  6  2  0
  6  7  1  0
  7  8  1  0
  8  9  1  0
  8 10  2  0
 10 11  1  0
 11 12  1  0
 11 13  1  0
 11 14  1  0
 10 15  1  0
 15 16  1  0
 15 17  1  0
 17 18  2  0
  6 19  1  0
 19 20  1  0
 19 21  2  0
 21 22  1  0
 21  2  1  0
 17  7  1  0
M  END
>  <cnnaffinity>  (1) 
-5.12715

>  <filename>  (1) 
FC(F)(F)c1cn(-c2cccnc2)c(=S)[nH]1

$$$$
