
     RDKit          3D

 27 29  0  0  0  0  0  0  0  0999 V2000
    5.0210    1.7898   16.9965 H   0  0  0  0  0  0  0  0  0  0  0  0
    5.4383    1.2636   17.8535 C   0  0  0  0  0  0  0  0  0  0  0  0
    6.5898    0.6064   17.6418 N   0  0  0  0  0  0  0  0  0  0  0  0
    7.1236   -0.0319   18.6902 C   0  0  0  0  0  0  0  0  0  0  0  0
    8.0660   -0.5503   18.5141 H   0  0  0  0  0  0  0  0  0  0  0  0
    6.5652   -0.0691   19.9799 C   0  0  0  0  0  0  0  0  0  0  0  0
    7.2918   -0.7713   21.0985 C   0  0  0  0  0  0  0  0  0  0  0  0
    7.0312   -2.2251   21.3496 C   0  0  0  0  0  0  0  0  0  0  0  0
    7.9023   -3.1774   21.3090 N   0  0  0  0  0  0  0  0  0  0  0  0
    7.2551   -4.3436   21.6879 N   0  0  0  0  0  0  0  0  0  0  0  0
    6.0517   -3.9778   21.9521 C   0  0  0  0  0  0  0  0  0  0  0  0
    5.0303   -4.6893   22.4030 O   0  0  0  0  0  0  0  0  0  0  0  0
    5.2531   -6.0796   22.3222 C   0  0  0  0  0  0  0  0  0  0  0  0
    6.2696   -6.3619   22.6135 H   0  0  0  0  0  0  0  0  0  0  0  0
    5.0192   -6.4735   21.0623 F   0  0  0  0  0  0  0  0  0  0  0  0
    4.3534   -6.6365   23.1292 F   0  0  0  0  0  0  0  0  0  0  0  0
    5.8015   -2.6760   21.7579 O   0  0  0  0  0  0  0  0  0  0  0  0
    7.6998    0.0647   22.3079 C   0  0  0  0  0  0  0  0  0  0  0  0
    7.6880   -0.4228   23.2748 H   0  0  0  0  0  0  0  0  0  0  0  0
    7.4136    1.1142   22.3162 H   0  0  0  0  0  0  0  0  0  0  0  0
    8.7310   -0.3589   21.3230 C   0  0  0  0  0  0  0  0  0  0  0  0
    9.1576    0.3922   20.6645 H   0  0  0  0  0  0  0  0  0  0  0  0
    9.3962   -1.1636   21.6174 H   0  0  0  0  0  0  0  0  0  0  0  0
    5.3623    0.6221   20.1740 C   0  0  0  0  0  0  0  0  0  0  0  0
    4.9005    0.6360   21.1636 H   0  0  0  0  0  0  0  0  0  0  0  0
    4.7881    1.2928   19.0914 C   0  0  0  0  0  0  0  0  0  0  0  0
    3.8602    1.8429   19.1962 H   0  0  0  0  0  0  0  0  0  0  0  0
  1  2  1  0
  2  3  2  0
  3  4  1  0
  4  5  1  0
  4  6  2  0
  6  7  1  0
  7  8  1  0
  8  9  2  0
  9 10  1  0
 10 11  2  0
 11 12  1  0
 12 13  1  0
 13 14  1  0
 13 15  1  0
 13 16  1  0
 11 17  1  0
  7 18  1  0
 18 19  1  0
 18 20  1  0
 18 21  1  0
 21 22  1  0
 21 23  1  0
  6 24  1  0
 24 25  1  0
 24 26  2  0
 26 27  1  0
 26  2  1  0
 21  7  1  0
 17  8  1  0
M  END
>  <cnnaffinity>  (1) 
-4.58396

>  <filename>  (1) 
FC(F)Oc1nnc(C2(c3cccnc3)CC2)o1

$$$$
