
     RDKit          3D

 32 34  0  0  0  0  0  0  0  0999 V2000
    4.9282    1.7991   16.9124 H   0  0  0  0  0  0  0  0  0  0  0  0
    5.3852    1.3397   17.7913 C   0  0  0  0  0  0  0  0  0  0  0  0
    6.5598    0.7189   17.5993 N   0  0  0  0  0  0  0  0  0  0  0  0
    7.1241    0.1322   18.6644 C   0  0  0  0  0  0  0  0  0  0  0  0
    8.0729   -0.3695   18.4799 H   0  0  0  0  0  0  0  0  0  0  0  0
    6.5823    0.1396   19.9646 C   0  0  0  0  0  0  0  0  0  0  0  0
    7.2849   -0.5625   21.0726 C   0  0  0  0  0  0  0  0  0  0  0  0
    7.7025   -1.8767   20.8732 C   0  0  0  0  0  0  0  0  0  0  0  0
    7.3400   -2.4055   20.0162 H   0  0  0  0  0  0  0  0  0  0  0  0
    8.4824   -2.5044   21.8400 C   0  0  0  0  0  0  0  0  0  0  0  0
    8.8721   -3.5011   21.6506 H   0  0  0  0  0  0  0  0  0  0  0  0
    8.7698   -1.9486   23.0200 N   0  0  0  0  0  0  0  0  0  0  0  0
    8.2562   -0.7271   23.2844 C   0  0  0  0  0  0  0  0  0  0  0  0
    8.4062   -0.1707   24.6874 C   0  0  0  0  0  0  0  0  0  0  0  0
    7.8371    1.0278   24.9090 N   0  0  0  0  0  0  0  0  0  0  0  0
    7.8467    1.5459   26.1385 C   0  0  0  0  0  0  0  0  0  0  0  0
    7.2597    2.9559   26.3283 C   0  0  0  0  0  0  0  0  0  0  0  0
    6.3570    2.9703   27.3313 F   0  0  0  0  0  0  0  0  0  0  0  0
    8.2274    3.8302   26.6801 F   0  0  0  0  0  0  0  0  0  0  0  0
    6.6608    3.4301   25.2333 F   0  0  0  0  0  0  0  0  0  0  0  0
    8.4027    0.8697   27.2298 C   0  0  0  0  0  0  0  0  0  0  0  0
    8.3585    1.2821   28.2286 H   0  0  0  0  0  0  0  0  0  0  0  0
    9.0592   -0.3409   26.9992 C   0  0  0  0  0  0  0  0  0  0  0  0
    9.5731   -0.8509   27.8128 H   0  0  0  0  0  0  0  0  0  0  0  0
    9.0634   -0.8782   25.7158 C   0  0  0  0  0  0  0  0  0  0  0  0
    9.5342   -1.8275   25.4883 H   0  0  0  0  0  0  0  0  0  0  0  0
    7.5477    0.0073   22.3147 C   0  0  0  0  0  0  0  0  0  0  0  0
    7.1894    0.9951   22.5693 H   0  0  0  0  0  0  0  0  0  0  0  0
    5.3598    0.7993   20.1392 C   0  0  0  0  0  0  0  0  0  0  0  0
    4.9025    0.8241   21.1286 H   0  0  0  0  0  0  0  0  0  0  0  0
    4.7459    1.3938   19.0336 C   0  0  0  0  0  0  0  0  0  0  0  0
    3.7898    1.8922   19.1211 H   0  0  0  0  0  0  0  0  0  0  0  0
  1  2  1  0
  2  3  2  0
  3  4  1  0
  4  5  1  0
  4  6  2  0
  6  7  1  0
  7  8  2  0
  8  9  1  0
  8 10  1  0
 10 11  1  0
 10 12  2  0
 12 13  1  0
 13 14  1  0
 14 15  2  0
 15 16  1  0
 16 17  1  0
 17 18  1  0
 17 19  1  0
 17 20  1  0
 16 21  2  0
 21 22  1  0
 21 23  1  0
 23 24  1  0
 23 25  2  0
 25 26  1  0
 13 27  2  0
 27 28  1  0
  6 29  1  0
 29 30  1  0
 29 31  2  0
 31 32  1  0
 31  2  1  0
 27  7  1  0
 25 14  1  0
M  END
>  <cnnaffinity>  (1) 
-5.1997

>  <filename>  (1) 
FC(F)(F)c1cccc(-c2cc(-c3cccnc3)ccn2)n1

$$$$
