
     RDKit          3D

 33 35  0  0  0  0  0  0  0  0999 V2000
    4.9143    1.7815   16.9938 H   0  0  0  0  0  0  0  0  0  0  0  0
    5.3997    1.2958   17.8340 C   0  0  0  0  0  0  0  0  0  0  0  0
    6.5626    0.6784   17.5672 N   0  0  0  0  0  0  0  0  0  0  0  0
    7.1694    0.0732   18.5912 C   0  0  0  0  0  0  0  0  0  0  0  0
    8.1123   -0.4265   18.3706 H   0  0  0  0  0  0  0  0  0  0  0  0
    6.6547    0.0156   19.8951 C   0  0  0  0  0  0  0  0  0  0  0  0
    7.3796   -0.6924   20.9576 C   0  0  0  0  0  0  0  0  0  0  0  0
    8.7601   -0.5545   21.1135 C   0  0  0  0  0  0  0  0  0  0  0  0
    9.3250    0.1013   20.4642 H   0  0  0  0  0  0  0  0  0  0  0  0
    9.3790   -1.2338   22.1568 C   0  0  0  0  0  0  0  0  0  0  0  0
   10.4456   -1.1291   22.3113 H   0  0  0  0  0  0  0  0  0  0  0  0
    8.7324   -2.0222   23.0255 N   0  0  0  0  0  0  0  0  0  0  0  0
    7.4104   -2.1843   22.8530 C   0  0  0  0  0  0  0  0  0  0  0  0
    6.6873   -3.0908   23.8177 C   0  0  0  0  0  0  0  0  0  0  0  0
    6.6580   -2.7150   25.1693 C   0  0  0  0  0  0  0  0  0  0  0  0
    7.1907   -1.8199   25.4762 H   0  0  0  0  0  0  0  0  0  0  0  0
    5.9581   -3.4659   26.1124 C   0  0  0  0  0  0  0  0  0  0  0  0
    5.9627   -3.1616   27.1557 H   0  0  0  0  0  0  0  0  0  0  0  0
    5.2626   -4.6097   25.7192 C   0  0  0  0  0  0  0  0  0  0  0  0
    4.7172   -5.1984   26.4500 H   0  0  0  0  0  0  0  0  0  0  0  0
    5.2776   -5.0068   24.3819 C   0  0  0  0  0  0  0  0  0  0  0  0
    4.7350   -5.9043   24.0881 H   0  0  0  0  0  0  0  0  0  0  0  0
    6.0055   -4.2741   23.4299 C   0  0  0  0  0  0  0  0  0  0  0  0
    6.0165   -4.7721   21.9877 C   0  0  0  0  0  0  0  0  0  0  0  0
    5.0955   -4.1149   21.2515 F   0  0  0  0  0  0  0  0  0  0  0  0
    7.1937   -4.5837   21.3661 F   0  0  0  0  0  0  0  0  0  0  0  0
    5.7301   -6.0829   21.8762 F   0  0  0  0  0  0  0  0  0  0  0  0
    6.7018   -1.5219   21.8493 C   0  0  0  0  0  0  0  0  0  0  0  0
    5.6346   -1.6702   21.7483 H   0  0  0  0  0  0  0  0  0  0  0  0
    5.4302    0.6518   20.1501 C   0  0  0  0  0  0  0  0  0  0  0  0
    5.0139    0.6319   21.1620 H   0  0  0  0  0  0  0  0  0  0  0  0
    4.8026    1.3170   19.1016 C   0  0  0  0  0  0  0  0  0  0  0  0
    3.8689    1.8471   19.2576 H   0  0  0  0  0  0  0  0  0  0  0  0
  1  2  1  0
  2  3  2  0
  3  4  1  0
  4  5  1  0
  4  6  2  0
  6  7  1  0
  7  8  2  0
  8  9  1  0
  8 10  1  0
 10 11  1  0
 10 12  2  0
 12 13  1  0
 13 14  1  0
 14 15  2  0
 15 16  1  0
 15 17  1  0
 17 18  1  0
 17 19  2  0
 19 20  1  0
 19 21  1  0
 21 22  1  0
 21 23  2  0
 23 24  1  0
 24 25  1  0
 24 26  1  0
 24 27  1  0
 13 28  2  0
 28 29  1  0
  6 30  1  0
 30 31  1  0
 30 32  2  0
 32 33  1  0
 32  2  1  0
 28  7  1  0
 23 14  1  0
M  END
>  <cnnaffinity>  (1) 
-5.97078

>  <filename>  (1) 
FC(F)(F)c1ccccc1-c1cc(-c2cccnc2)ccn1

$$$$
