
     RDKit          3D

 34 36  0  0  0  0  0  0  0  0999 V2000
    4.9072    1.7740   17.0032 H   0  0  0  0  0  0  0  0  0  0  0  0
    5.4020    1.2921   17.8413 C   0  0  0  0  0  0  0  0  0  0  0  0
    6.5666    0.6804   17.5760 N   0  0  0  0  0  0  0  0  0  0  0  0
    7.1774    0.0689   18.5953 C   0  0  0  0  0  0  0  0  0  0  0  0
    8.1217   -0.4328   18.3776 H   0  0  0  0  0  0  0  0  0  0  0  0
    6.6590    0.0112   19.9000 C   0  0  0  0  0  0  0  0  0  0  0  0
    7.3836   -0.6992   20.9693 C   0  0  0  0  0  0  0  0  0  0  0  0
    8.7687   -0.5422   21.1239 C   0  0  0  0  0  0  0  0  0  0  0  0
    9.3127    0.1221   20.4573 H   0  0  0  0  0  0  0  0  0  0  0  0
    9.4393   -1.2067   22.1483 C   0  0  0  0  0  0  0  0  0  0  0  0
   10.5075   -1.0727   22.2669 H   0  0  0  0  0  0  0  0  0  0  0  0
    8.7325   -2.0421   23.0156 C   0  0  0  0  0  0  0  0  0  0  0  0
    9.2593   -2.5624   23.8118 H   0  0  0  0  0  0  0  0  0  0  0  0
    7.3533   -2.2282   22.8568 C   0  0  0  0  0  0  0  0  0  0  0  0
    6.6061   -3.1170   23.7884 C   0  0  0  0  0  0  0  0  0  0  0  0
    6.4798   -2.7099   25.1253 C   0  0  0  0  0  0  0  0  0  0  0  0
    6.9361   -1.7771   25.4457 H   0  0  0  0  0  0  0  0  0  0  0  0
    5.7545   -3.4741   26.0371 C   0  0  0  0  0  0  0  0  0  0  0  0
    5.6597   -3.1457   27.0681 H   0  0  0  0  0  0  0  0  0  0  0  0
    5.1503   -4.6593   25.6192 C   0  0  0  0  0  0  0  0  0  0  0  0
    4.5798   -5.2541   26.3236 H   0  0  0  0  0  0  0  0  0  0  0  0
    5.2781   -5.0879   24.3005 C   0  0  0  0  0  0  0  0  0  0  0  0
    4.7976   -6.0146   23.9955 H   0  0  0  0  0  0  0  0  0  0  0  0
    6.0242   -4.3374   23.3816 C   0  0  0  0  0  0  0  0  0  0  0  0
    6.1669   -4.8382   21.9584 C   0  0  0  0  0  0  0  0  0  0  0  0
    7.3966   -4.6518   21.4489 F   0  0  0  0  0  0  0  0  0  0  0  0
    5.9056   -6.1524   21.8372 F   0  0  0  0  0  0  0  0  0  0  0  0
    5.3085   -4.2054   21.1298 F   0  0  0  0  0  0  0  0  0  0  0  0
    6.6822   -1.5396   21.8461 C   0  0  0  0  0  0  0  0  0  0  0  0
    5.6098   -1.6703   21.7237 H   0  0  0  0  0  0  0  0  0  0  0  0
    5.4381    0.6492   20.1543 C   0  0  0  0  0  0  0  0  0  0  0  0
    5.0136    0.6288   21.1594 H   0  0  0  0  0  0  0  0  0  0  0  0
    4.8040    1.3159   19.1081 C   0  0  0  0  0  0  0  0  0  0  0  0
    3.8683    1.8472   19.2658 H   0  0  0  0  0  0  0  0  0  0  0  0
  1  2  1  0
  2  3  2  0
  3  4  1  0
  4  5  1  0
  4  6  2  0
  6  7  1  0
  7  8  2  0
  8  9  1  0
  8 10  1  0
 10 11  1  0
 10 12  2  0
 12 13  1  0
 12 14  1  0
 14 15  1  0
 15 16  2  0
 16 17  1  0
 16 18  1  0
 18 19  1  0
 18 20  2  0
 20 21  1  0
 20 22  1  0
 22 23  1  0
 22 24  2  0
 24 25  1  0
 25 26  1  0
 25 27  1  0
 25 28  1  0
 14 29  2  0
 29 30  1  0
  6 31  1  0
 31 32  1  0
 31 33  2  0
 33 34  1  0
 33  2  1  0
 29  7  1  0
 24 15  1  0
M  END
>  <cnnaffinity>  (1) 
-5.35093

>  <filename>  (1) 
FC(F)(F)c1ccccc1-c1cccc(-c2cccnc2)c1

$$$$
