
     RDKit          3D

 35 37  0  0  0  0  0  0  0  0999 V2000
    6.6948   -1.3721   21.6015 H   0  0  0  0  0  0  0  0  0  0  0  0
    7.3246   -0.7160   20.9931 C   0  0  0  0  0  0  0  0  0  0  0  0
    8.6043   -0.5087   21.3546 C   0  0  0  0  0  0  0  0  0  0  0  0
    9.3586   -1.1401   22.4420 C   0  0  0  0  0  0  0  0  0  0  0  0
    8.8029   -2.3031   23.2129 C   0  0  0  0  0  0  0  0  0  0  0  0
    8.3816   -3.4439   22.5028 C   0  0  0  0  0  0  0  0  0  0  0  0
    8.4083   -3.4309   21.4164 H   0  0  0  0  0  0  0  0  0  0  0  0
    7.9566   -4.5876   23.1768 C   0  0  0  0  0  0  0  0  0  0  0  0
    7.6459   -5.4646   22.6161 H   0  0  0  0  0  0  0  0  0  0  0  0
    7.9292   -4.6034   24.5728 C   0  0  0  0  0  0  0  0  0  0  0  0
    7.6036   -5.4918   25.1081 H   0  0  0  0  0  0  0  0  0  0  0  0
    8.3179   -3.4719   25.2919 C   0  0  0  0  0  0  0  0  0  0  0  0
    8.2947   -3.4970   26.3815 H   0  0  0  0  0  0  0  0  0  0  0  0
    8.7399   -2.3067   24.6271 C   0  0  0  0  0  0  0  0  0  0  0  0
    9.1299   -1.0664   25.4500 C   0  0  0  0  0  0  0  0  0  0  0  0
   10.4572   -0.8654   25.4628 F   0  0  0  0  0  0  0  0  0  0  0  0
    8.5988    0.0648   24.9393 F   0  0  0  0  0  0  0  0  0  0  0  0
    8.7280   -1.1578   26.7328 F   0  0  0  0  0  0  0  0  0  0  0  0
   10.5030   -0.6075   22.6786 N   0  0  0  0  0  0  0  0  0  0  0  0
   10.7190    0.4943   21.7424 C   0  0  0  0  0  0  0  0  0  0  0  0
   10.8143    1.4275   22.3106 H   0  0  0  0  0  0  0  0  0  0  0  0
   11.6720    0.3251   21.2343 H   0  0  0  0  0  0  0  0  0  0  0  0
    9.5075    0.5490   20.7712 C   0  0  0  0  0  0  0  0  0  0  0  0
    9.0322    1.5343   20.7155 H   0  0  0  0  0  0  0  0  0  0  0  0
    9.7185    0.2562   19.7423 H   0  0  0  0  0  0  0  0  0  0  0  0
    6.6393   -0.0154   19.8953 C   0  0  0  0  0  0  0  0  0  0  0  0
    7.1601    0.0670   18.5884 C   0  0  0  0  0  0  0  0  0  0  0  0
    8.1051   -0.4259   18.3724 H   0  0  0  0  0  0  0  0  0  0  0  0
    6.5606    0.6872   17.5641 N   0  0  0  0  0  0  0  0  0  0  0  0
    5.3975    1.3015   17.8309 C   0  0  0  0  0  0  0  0  0  0  0  0
    4.9160    1.7897   16.9879 H   0  0  0  0  0  0  0  0  0  0  0  0
    4.7971    1.3136   19.0970 C   0  0  0  0  0  0  0  0  0  0  0  0
    3.8681    1.8496   19.2515 H   0  0  0  0  0  0  0  0  0  0  0  0
    5.4161    0.6325   20.1443 C   0  0  0  0  0  0  0  0  0  0  0  0
    5.0040    0.6239   21.1568 H   0  0  0  0  0  0  0  0  0  0  0  0
  1  2  1  0
  2  3  2  3
  3  4  1  0
  4  5  1  0
  5  6  2  0
  6  7  1  0
  6  8  1  0
  8  9  1  0
  8 10  2  0
 10 11  1  0
 10 12  1  0
 12 13  1  0
 12 14  2  0
 14 15  1  0
 15 16  1  0
 15 17  1  0
 15 18  1  0
  4 19  2  0
 19 20  1  0
 20 21  1  0
 20 22  1  0
 20 23  1  0
 23 24  1  0
 23 25  1  0
  2 26  1  0
 26 27  2  0
 27 28  1  0
 27 29  1  0
 29 30  2  0
 30 31  1  0
 30 32  1  0
 32 33  1  0
 32 34  2  0
 34 35  1  0
 23  3  1  0
 34 26  1  0
 14  5  1  0
M  END
>  <cnnaffinity>  (1) 
-5.56209

>  <filename>  (1) 
FC(F)(F)c1ccccc1C1=NCCC1=Cc1cccnc1

$$$$
