
     RDKit          3D

 41 43  0  0  0  0  0  0  0  0999 V2000
    4.9292    1.8483   16.9889 H   0  0  0  0  0  0  0  0  0  0  0  0
    5.4161    1.3250   17.8078 C   0  0  0  0  0  0  0  0  0  0  0  0
    6.5835    0.7243   17.5237 N   0  0  0  0  0  0  0  0  0  0  0  0
    7.2105    0.0823   18.5221 C   0  0  0  0  0  0  0  0  0  0  0  0
    8.1587   -0.3841   18.2531 H   0  0  0  0  0  0  0  0  0  0  0  0
    6.7130   -0.0355   19.8515 C   0  0  0  0  0  0  0  0  0  0  0  0
    7.3998   -0.7238   20.8802 N   0  0  0  0  0  0  0  0  0  0  0  0
    6.7097   -1.6642   21.7504 C   0  0  0  0  0  0  0  0  0  0  0  0
    7.2395   -2.6259   21.7491 H   0  0  0  0  0  0  0  0  0  0  0  0
    5.7175   -1.8743   21.3354 H   0  0  0  0  0  0  0  0  0  0  0  0
    6.5048   -1.2486   23.2239 C   0  0  0  0  0  0  0  0  0  0  0  0
    6.0226   -0.2577   23.2432 H   0  0  0  0  0  0  0  0  0  0  0  0
    5.8021   -1.9896   23.6159 H   0  0  0  0  0  0  0  0  0  0  0  0
    7.6499   -1.2642   24.1168 N   0  0  0  0  0  0  0  0  0  0  0  0
    7.6657   -2.1986   25.1755 C   0  0  0  0  0  0  0  0  0  0  0  0
    8.7186   -3.1110   25.3317 C   0  0  0  0  0  0  0  0  0  0  0  0
    9.5460   -3.0570   24.6338 H   0  0  0  0  0  0  0  0  0  0  0  0
    8.6736   -4.0912   26.3209 C   0  0  0  0  0  0  0  0  0  0  0  0
    9.5011   -4.7917   26.4158 H   0  0  0  0  0  0  0  0  0  0  0  0
    7.5736   -4.1768   27.1878 C   0  0  0  0  0  0  0  0  0  0  0  0
    7.4653   -5.3378   28.1524 C   0  0  0  0  0  0  0  0  0  0  0  0
    6.6501   -6.3069   27.6861 F   0  0  0  0  0  0  0  0  0  0  0  0
    6.9603   -4.9602   29.3419 F   0  0  0  0  0  0  0  0  0  0  0  0
    8.6548   -5.9184   28.3946 F   0  0  0  0  0  0  0  0  0  0  0  0
    6.5349   -3.2320   27.0758 C   0  0  0  0  0  0  0  0  0  0  0  0
    5.6868   -3.2500   27.7577 H   0  0  0  0  0  0  0  0  0  0  0  0
    6.5717   -2.2749   26.0626 C   0  0  0  0  0  0  0  0  0  0  0  0
    5.7591   -1.5648   25.9328 H   0  0  0  0  0  0  0  0  0  0  0  0
    8.8117   -0.4880   23.7201 C   0  0  0  0  0  0  0  0  0  0  0  0
    9.5582   -0.5518   24.5218 H   0  0  0  0  0  0  0  0  0  0  0  0
    8.5352    0.5814   23.6569 H   0  0  0  0  0  0  0  0  0  0  0  0
    9.4420   -0.9350   22.3916 C   0  0  0  0  0  0  0  0  0  0  0  0
    9.4405   -2.0289   22.3526 H   0  0  0  0  0  0  0  0  0  0  0  0
   10.4978   -0.6348   22.3815 H   0  0  0  0  0  0  0  0  0  0  0  0
    8.7995   -0.3828   21.1140 C   0  0  0  0  0  0  0  0  0  0  0  0
    8.8943    0.7162   21.1124 H   0  0  0  0  0  0  0  0  0  0  0  0
    9.4132   -0.7241   20.2645 H   0  0  0  0  0  0  0  0  0  0  0  0
    5.4771    0.5923   20.1057 C   0  0  0  0  0  0  0  0  0  0  0  0
    5.0667    0.5644   21.1144 H   0  0  0  0  0  0  0  0  0  0  0  0
    4.8314    1.2874   19.0785 C   0  0  0  0  0  0  0  0  0  0  0  0
    3.8938    1.8027   19.2524 H   0  0  0  0  0  0  0  0  0  0  0  0
  1  2  1  0
  2  3  2  0
  3  4  1  0
  4  5  1  0
  4  6  2  0
  6  7  1  0
  7  8  1  0
  8  9  1  0
  8 10  1  0
  8 11  1  0
 11 12  1  0
 11 13  1  0
 11 14  1  0
 14 15  1  0
 15 16  2  0
 16 17  1  0
 16 18  1  0
 18 19  1  0
 18 20  2  0
 20 21  1  0
 21 22  1  0
 21 23  1  0
 21 24  1  0
 20 25  1  0
 25 26  1  0
 25 27  2  0
 27 28  1  0
 14 29  1  0
 29 30  1  0
 29 31  1  0
 29 32  1  0
 32 33  1  0
 32 34  1  0
 32 35  1  0
 35 36  1  0
 35 37  1  0
  6 38  1  0
 38 39  1  0
 38 40  2  0
 40 41  1  0
 40  2  1  0
 35  7  1  0
 27 15  1  0
M  END
>  <cnnaffinity>  (1) 
-5.07442

>  <filename>  (1) 
FC(F)(F)c1ccc(N2CCCN(c3cccnc3)CC2)cc1

$$$$
