
     RDKit          3D

 42 44  0  0  0  0  0  0  0  0999 V2000
    4.9087    1.7851   16.9918 H   0  0  0  0  0  0  0  0  0  0  0  0
    5.3982    1.2978   17.8338 C   0  0  0  0  0  0  0  0  0  0  0  0
    6.5592    0.6836   17.5694 N   0  0  0  0  0  0  0  0  0  0  0  0
    7.1794    0.0791   18.5868 C   0  0  0  0  0  0  0  0  0  0  0  0
    8.1196   -0.4254   18.3642 H   0  0  0  0  0  0  0  0  0  0  0  0
    6.6846    0.0069   19.9140 C   0  0  0  0  0  0  0  0  0  0  0  0
    7.3776   -0.7207   20.9068 N   0  0  0  0  0  0  0  0  0  0  0  0
    6.6121   -1.6161   21.7790 C   0  0  0  0  0  0  0  0  0  0  0  0
    6.2463   -1.1120   22.6900 H   0  0  0  0  0  0  0  0  0  0  0  0
    5.7241   -1.9478   21.2257 H   0  0  0  0  0  0  0  0  0  0  0  0
    7.4559   -2.8245   22.1651 C   0  0  0  0  0  0  0  0  0  0  0  0
    6.8761   -3.4808   22.8225 H   0  0  0  0  0  0  0  0  0  0  0  0
    7.6874   -3.3971   21.2576 H   0  0  0  0  0  0  0  0  0  0  0  0
    8.7437   -2.3644   22.8410 C   0  0  0  0  0  0  0  0  0  0  0  0
    8.4982   -1.8191   23.7631 H   0  0  0  0  0  0  0  0  0  0  0  0
    9.3492   -3.2311   23.1282 H   0  0  0  0  0  0  0  0  0  0  0  0
    9.5431   -1.4681   21.8881 C   0  0  0  0  0  0  0  0  0  0  0  0
    9.9200   -2.0873   21.0646 H   0  0  0  0  0  0  0  0  0  0  0  0
   10.4287   -1.0670   22.3937 H   0  0  0  0  0  0  0  0  0  0  0  0
    8.7439   -0.3046   21.2643 C   0  0  2  0  0  0  0  0  0  0  0  0
    9.2365   -0.0723   20.3069 H   0  0  0  0  0  0  0  0  0  0  0  0
    8.8159    1.0353   22.0525 C   0  0  0  0  0  0  0  0  0  0  0  0
    9.8664    1.3546   22.0691 H   0  0  0  0  0  0  0  0  0  0  0  0
    8.2785    1.7944   21.4713 H   0  0  0  0  0  0  0  0  0  0  0  0
    8.2898    1.0023   23.4617 C   0  0  0  0  0  0  0  0  0  0  0  0
    6.9420    1.2890   23.7254 C   0  0  0  0  0  0  0  0  0  0  0  0
    6.2818    1.5692   22.9097 H   0  0  0  0  0  0  0  0  0  0  0  0
    6.4350    1.2242   25.0212 C   0  0  0  0  0  0  0  0  0  0  0  0
    5.3923    1.4688   25.2061 H   0  0  0  0  0  0  0  0  0  0  0  0
    7.2823    0.8667   26.0825 C   0  0  0  0  0  0  0  0  0  0  0  0
    6.7548    0.8530   27.4958 C   0  0  0  0  0  0  0  0  0  0  0  0
    6.8794    2.0597   28.0860 F   0  0  0  0  0  0  0  0  0  0  0  0
    7.4112   -0.0238   28.2766 F   0  0  0  0  0  0  0  0  0  0  0  0
    5.4465    0.5300   27.5588 F   0  0  0  0  0  0  0  0  0  0  0  0
    8.6398    0.5986   25.8368 C   0  0  0  0  0  0  0  0  0  0  0  0
    9.3146    0.3585   26.6562 H   0  0  0  0  0  0  0  0  0  0  0  0
    9.1306    0.6674   24.5354 C   0  0  0  0  0  0  0  0  0  0  0  0
   10.1802    0.4536   24.3553 H   0  0  0  0  0  0  0  0  0  0  0  0
    5.4533    0.6482   20.1601 C   0  0  0  0  0  0  0  0  0  0  0  0
    5.0166    0.6124   21.1617 H   0  0  0  0  0  0  0  0  0  0  0  0
    4.8135    1.3116   19.1071 C   0  0  0  0  0  0  0  0  0  0  0  0
    3.8751    1.8401   19.2595 H   0  0  0  0  0  0  0  0  0  0  0  0
  1  2  1  0
  2  3  2  0
  3  4  1  0
  4  5  1  0
  4  6  2  0
  6  7  1  0
  7  8  1  0
  8  9  1  0
  8 10  1  0
  8 11  1  0
 11 12  1  0
 11 13  1  0
 11 14  1  0
 14 15  1  0
 14 16  1  0
 14 17  1  0
 17 18  1  0
 17 19  1  0
 17 20  1  0
 20 21  1  6
 20 22  1  0
 22 23  1  0
 22 24  1  0
 22 25  1  0
 25 26  2  0
 26 27  1  0
 26 28  1  0
 28 29  1  0
 28 30  2  0
 30 31  1  0
 31 32  1  0
 31 33  1  0
 31 34  1  0
 30 35  1  0
 35 36  1  0
 35 37  2  0
 37 38  1  0
  6 39  1  0
 39 40  1  0
 39 41  2  0
 41 42  1  0
 41  2  1  0
 20  7  1  0
 37 25  1  0
M  END
>  <cnnaffinity>  (1) 
-5.68277

>  <filename>  (1) 
FC(F)(F)c1ccc(C[C@H]2CCCCN2c2cccnc2)cc1

$$$$
