
     RDKit          3D

 30 32  0  0  0  0  0  0  0  0999 V2000
    4.9165    1.7878   17.0000 H   0  0  0  0  0  0  0  0  0  0  0  0
    5.3977    1.2903   17.8410 C   0  0  0  0  0  0  0  0  0  0  0  0
    6.5537    0.6661   17.5722 N   0  0  0  0  0  0  0  0  0  0  0  0
    7.1905    0.0595   18.5813 C   0  0  0  0  0  0  0  0  0  0  0  0
    8.1378   -0.4173   18.3503 H   0  0  0  0  0  0  0  0  0  0  0  0
    6.6924    0.0228   19.8986 C   0  0  0  0  0  0  0  0  0  0  0  0
    7.2932   -0.6928   20.9465 O   0  0  0  0  0  0  0  0  0  0  0  0
    8.6251   -0.7811   21.0817 C   0  0  0  0  0  0  0  0  0  0  0  0
    9.5500   -0.0942   20.4669 N   0  0  0  0  0  0  0  0  0  0  0  0
   10.7233   -0.5440   20.9731 N   0  0  0  0  0  0  0  0  0  0  0  0
   10.5423   -1.4653   21.8391 N   0  0  0  0  0  0  0  0  0  0  0  0
    9.1978   -1.6556   21.9378 N   0  0  0  0  0  0  0  0  0  0  0  0
    8.6458   -2.6406   22.8175 C   0  0  0  0  0  0  0  0  0  0  0  0
    9.3277   -2.9860   23.9929 C   0  0  0  0  0  0  0  0  0  0  0  0
   10.2895   -2.5284   24.2123 H   0  0  0  0  0  0  0  0  0  0  0  0
    8.7625   -3.9269   24.8559 C   0  0  0  0  0  0  0  0  0  0  0  0
    9.2838   -4.2121   25.7657 H   0  0  0  0  0  0  0  0  0  0  0  0
    7.5289   -4.5192   24.5630 C   0  0  0  0  0  0  0  0  0  0  0  0
    7.0984   -5.2507   25.2469 H   0  0  0  0  0  0  0  0  0  0  0  0
    6.8519   -4.1628   23.3854 C   0  0  0  0  0  0  0  0  0  0  0  0
    5.5330   -4.8309   23.0289 C   0  0  0  0  0  0  0  0  0  0  0  0
    4.8435   -5.2232   24.1166 F   0  0  0  0  0  0  0  0  0  0  0  0
    4.7234   -4.0225   22.3143 F   0  0  0  0  0  0  0  0  0  0  0  0
    5.7343   -5.9318   22.2773 F   0  0  0  0  0  0  0  0  0  0  0  0
    7.4223   -3.2371   22.4974 C   0  0  0  0  0  0  0  0  0  0  0  0
    6.9221   -2.9523   21.5753 H   0  0  0  0  0  0  0  0  0  0  0  0
    5.4709    0.6420   20.1735 C   0  0  0  0  0  0  0  0  0  0  0  0
    5.0464    0.6052   21.1778 H   0  0  0  0  0  0  0  0  0  0  0  0
    4.8265    1.2984   19.1177 C   0  0  0  0  0  0  0  0  0  0  0  0
    3.8934    1.8250   19.2699 H   0  0  0  0  0  0  0  0  0  0  0  0
  1  2  1  0
  2  3  2  0
  3  4  1  0
  4  5  1  0
  4  6  2  0
  6  7  1  0
  7  8  1  0
  8  9  2  0
  9 10  1  0
 10 11  2  0
 11 12  1  0
 12 13  1  0
 13 14  2  0
 14 15  1  0
 14 16  1  0
 16 17  1  0
 16 18  2  0
 18 19  1  0
 18 20  1  0
 20 21  1  0
 21 22  1  0
 21 23  1  0
 21 24  1  0
 20 25  2  0
 25 26  1  0
  6 27  1  0
 27 28  1  0
 27 29  2  0
 29 30  1  0
 29  2  1  0
 12  8  1  0
 25 13  1  0
M  END
>  <cnnaffinity>  (1) 
-5.58868

>  <filename>  (1) 
FC(F)(F)c1cccc(-n2nnnc2Oc2cccnc2)c1

$$$$
