
     RDKit          3D

 34 37  0  0  0  0  0  0  0  0999 V2000
    4.9704    1.8315   16.9470 H   0  0  0  0  0  0  0  0  0  0  0  0
    5.4144    1.2976   17.7817 C   0  0  0  0  0  0  0  0  0  0  0  0
    6.5650    0.6588   17.5266 N   0  0  0  0  0  0  0  0  0  0  0  0
    7.1459    0.0049   18.5377 C   0  0  0  0  0  0  0  0  0  0  0  0
    8.0977   -0.4740   18.3159 H   0  0  0  0  0  0  0  0  0  0  0  0
    6.6083   -0.0488   19.8384 C   0  0  0  0  0  0  0  0  0  0  0  0
    7.3564   -0.6790   20.9371 C   0  0  0  0  0  0  0  0  0  0  0  0
    8.4665   -1.3989   20.7143 N   0  0  0  0  0  0  0  0  0  0  0  0
    8.9026   -1.6639   21.9637 N   0  0  0  0  0  0  0  0  0  0  0  0
   10.0739   -2.1859   22.4970 C   0  0  0  0  0  0  0  0  0  0  0  0
   10.8163   -2.6074   21.8474 H   0  0  0  0  0  0  0  0  0  0  0  0
   10.0152   -1.9823   23.8322 C   0  0  0  0  0  0  0  0  0  0  0  0
   10.7241   -2.1995   24.6192 H   0  0  0  0  0  0  0  0  0  0  0  0
    8.7914   -1.3623   24.1374 N   0  0  0  0  0  0  0  0  0  0  0  0
    8.3236   -0.9438   25.3891 C   0  0  0  0  0  0  0  0  0  0  0  0
    9.2446   -0.7625   26.3411 N   0  0  0  0  0  0  0  0  0  0  0  0
    8.8372   -0.2182   27.4806 C   0  0  0  0  0  0  0  0  0  0  0  0
    9.5804   -0.0904   28.2624 H   0  0  0  0  0  0  0  0  0  0  0  0
    7.5207    0.1573   27.7255 C   0  0  0  0  0  0  0  0  0  0  0  0
    7.2409    0.9022   28.9802 C   0  0  0  0  0  0  0  0  0  0  0  0
    8.2068    0.7267   29.9026 F   0  0  0  0  0  0  0  0  0  0  0  0
    7.1523    2.2318   28.7761 F   0  0  0  0  0  0  0  0  0  0  0  0
    6.0832    0.5075   29.5399 F   0  0  0  0  0  0  0  0  0  0  0  0
    6.5217   -0.1688   26.7871 C   0  0  0  0  0  0  0  0  0  0  0  0
    5.4549   -0.0098   26.9735 H   0  0  0  0  0  0  0  0  0  0  0  0
    6.9423   -0.7444   25.6042 C   0  0  0  0  0  0  0  0  0  0  0  0
    6.2424   -1.0481   24.8333 H   0  0  0  0  0  0  0  0  0  0  0  0
    8.1243   -1.1540   22.9328 C   0  0  0  0  0  0  0  0  0  0  0  0
    7.0660   -0.5112   22.3138 C   0  0  0  0  0  0  0  0  0  0  0  0
    6.2568    0.0490   22.7446 H   0  0  0  0  0  0  0  0  0  0  0  0
    5.3960    0.6185   20.0805 C   0  0  0  0  0  0  0  0  0  0  0  0
    4.9476    0.6410   21.0763 H   0  0  0  0  0  0  0  0  0  0  0  0
    4.7902    1.3018   19.0337 C   0  0  0  0  0  0  0  0  0  0  0  0
    3.8714    1.8564   19.1838 H   0  0  0  0  0  0  0  0  0  0  0  0
  1  2  1  0
  2  3  2  0
  3  4  1  0
  4  5  1  0
  4  6  2  0
  6  7  1  0
  7  8  2  0
  8  9  1  0
  9 10  1  0
 10 11  1  0
 10 12  2  0
 12 13  1  0
 12 14  1  0
 14 15  1  0
 15 16  2  0
 16 17  1  0
 17 18  1  0
 17 19  2  0
 19 20  1  0
 20 21  1  0
 20 22  1  0
 20 23  1  0
 19 24  1  0
 24 25  1  0
 24 26  2  0
 26 27  1  0
 14 28  1  0
 28 29  2  0
 29 30  1  0
  6 31  1  0
 31 32  1  0
 31 33  2  0
 33 34  1  0
 33  2  1  0
 29  7  1  0
 28  9  1  0
 26 15  1  0
M  END
>  <cnnaffinity>  (1) 
-5.39461

>  <filename>  (1) 
FC(F)(F)c1ccc(-n2ccn3nc(-c4cccnc4)cc23)nc1

$$$$
