
     RDKit          3D

 24 25  0  0  0  0  0  0  0  0999 V2000
    4.9202    1.8401   16.9727 H   0  0  0  0  0  0  0  0  0  0  0  0
    5.3669    1.2848   17.7959 C   0  0  0  0  0  0  0  0  0  0  0  0
    6.5112    0.6425   17.5210 N   0  0  0  0  0  0  0  0  0  0  0  0
    7.1331    0.0151   18.5241 C   0  0  0  0  0  0  0  0  0  0  0  0
    8.0865   -0.4564   18.2859 H   0  0  0  0  0  0  0  0  0  0  0  0
    6.6438   -0.0236   19.8428 C   0  0  0  0  0  0  0  0  0  0  0  0
    7.5810   -0.7864   21.1610 S   0  0  0  0  0  0  0  0  0  0  0  0
    8.7170    0.5580   21.6041 C   0  0  0  0  0  0  0  0  0  0  0  0
    9.7373    0.7077   20.7613 N   0  0  0  0  0  0  0  0  0  0  0  0
   10.5983    1.7122   20.9503 C   0  0  0  0  0  0  0  0  0  0  0  0
   11.4000    1.8183   20.2221 H   0  0  0  0  0  0  0  0  0  0  0  0
   10.4931    2.6330   21.9817 C   0  0  0  0  0  0  0  0  0  0  0  0
   11.2126    3.4424   22.0077 H   0  0  0  0  0  0  0  0  0  0  0  0
    9.4563    2.4855   22.8925 C   0  0  0  0  0  0  0  0  0  0  0  0
    9.3153    3.1966   23.7103 H   0  0  0  0  0  0  0  0  0  0  0  0
    8.5764    1.4043   22.7210 C   0  0  0  0  0  0  0  0  0  0  0  0
    7.4348    1.1955   23.6522 C   0  0  0  0  0  0  0  0  0  0  0  0
    7.3016   -0.0894   24.0173 F   0  0  0  0  0  0  0  0  0  0  0  0
    7.5695    1.9088   24.7843 F   0  0  0  0  0  0  0  0  0  0  0  0
    6.2712    1.5754   23.0848 F   0  0  0  0  0  0  0  0  0  0  0  0
    5.4263    0.6187   20.1047 C   0  0  0  0  0  0  0  0  0  0  0  0
    5.0259    0.6316   21.1183 H   0  0  0  0  0  0  0  0  0  0  0  0
    4.7787    1.2895   19.0645 C   0  0  0  0  0  0  0  0  0  0  0  0
    3.8660    1.8484   19.2364 H   0  0  0  0  0  0  0  0  0  0  0  0
  1  2  1  0
  2  3  2  0
  3  4  1  0
  4  5  1  0
  4  6  2  0
  6  7  1  0
  7  8  1  0
  8  9  2  0
  9 10  1  0
 10 11  1  0
 10 12  2  0
 12 13  1  0
 12 14  1  0
 14 15  1  0
 14 16  2  0
 16 17  1  0
 17 18  1  0
 17 19  1  0
 17 20  1  0
  6 21  1  0
 21 22  1  0
 21 23  2  0
 23 24  1  0
 23  2  1  0
 16  8  1  0
M  END
>  <cnnaffinity>  (1) 
-4.72821

>  <filename>  (1) 
FC(F)(F)c1cccnc1Sc1cccnc1

$$$$
