
     RDKit          3D

 34 36  0  0  0  0  0  0  0  0999 V2000
    4.9166    1.8242   16.9729 H   0  0  0  0  0  0  0  0  0  0  0  0
    5.3806    1.3102   17.8111 C   0  0  0  0  0  0  0  0  0  0  0  0
    6.5439    0.6919   17.5543 N   0  0  0  0  0  0  0  0  0  0  0  0
    7.1636    0.0819   18.5748 C   0  0  0  0  0  0  0  0  0  0  0  0
    8.1141   -0.3958   18.3303 H   0  0  0  0  0  0  0  0  0  0  0  0
    6.6678    0.0373   19.8982 C   0  0  0  0  0  0  0  0  0  0  0  0
    7.3928   -0.6726   20.9894 C   0  0  0  0  0  0  0  0  0  0  0  0
    7.7718   -2.0364   21.0510 C   0  0  0  0  0  0  0  0  0  0  0  0
    7.5285   -2.8221   20.3549 H   0  0  0  0  0  0  0  0  0  0  0  0
    8.4266   -2.3372   22.1599 N   0  0  0  0  0  0  0  0  0  0  0  0
    8.4588   -1.1743   22.8362 N   0  0  0  0  0  0  0  0  0  0  0  0
    8.7496   -1.1816   23.8042 H   0  0  0  0  0  0  0  0  0  0  0  0
    7.8215   -0.1545   22.2017 C   0  0  0  0  0  0  0  0  0  0  0  0
    7.5824    1.1891   22.8535 C   0  0  0  0  0  0  0  0  0  0  0  0
    6.9268    1.7674   22.1930 H   0  0  0  0  0  0  0  0  0  0  0  0
    8.5221    1.7540   22.9138 H   0  0  0  0  0  0  0  0  0  0  0  0
    6.9751    1.0803   24.2428 C   0  0  0  0  0  0  0  0  0  0  0  0
    5.6014    0.8854   24.4292 C   0  0  0  0  0  0  0  0  0  0  0  0
    4.9484    0.8373   23.5633 H   0  0  0  0  0  0  0  0  0  0  0  0
    5.0573    0.7358   25.7056 C   0  0  0  0  0  0  0  0  0  0  0  0
    3.9902    0.5627   25.8154 H   0  0  0  0  0  0  0  0  0  0  0  0
    5.8921    0.7778   26.8340 C   0  0  0  0  0  0  0  0  0  0  0  0
    5.3042    0.7003   28.2290 C   0  0  0  0  0  0  0  0  0  0  0  0
    4.1768   -0.0372   28.2721 F   0  0  0  0  0  0  0  0  0  0  0  0
    6.1610    0.1575   29.1161 F   0  0  0  0  0  0  0  0  0  0  0  0
    4.9849    1.9257   28.6957 F   0  0  0  0  0  0  0  0  0  0  0  0
    7.2741    0.9497   26.6585 C   0  0  0  0  0  0  0  0  0  0  0  0
    7.9460    0.9495   27.5131 H   0  0  0  0  0  0  0  0  0  0  0  0
    7.7988    1.0959   25.3745 C   0  0  0  0  0  0  0  0  0  0  0  0
    8.8696    1.2207   25.2476 H   0  0  0  0  0  0  0  0  0  0  0  0
    5.4348    0.6734   20.1215 C   0  0  0  0  0  0  0  0  0  0  0  0
    4.9821    0.6472   21.1123 H   0  0  0  0  0  0  0  0  0  0  0  0
    4.7797    1.3210   19.0713 C   0  0  0  0  0  0  0  0  0  0  0  0
    3.8403    1.8461   19.2181 H   0  0  0  0  0  0  0  0  0  0  0  0
  1  2  1  0
  2  3  2  0
  3  4  1  0
  4  5  1  0
  4  6  2  0
  6  7  1  0
  7  8  1  0
  8  9  1  0
  8 10  2  0
 10 11  1  0
 11 12  1  0
 11 13  1  0
 13 14  1  0
 14 15  1  0
 14 16  1  0
 14 17  1  0
 17 18  2  0
 18 19  1  0
 18 20  1  0
 20 21  1  0
 20 22  2  0
 22 23  1  0
 23 24  1  0
 23 25  1  0
 23 26  1  0
 22 27  1  0
 27 28  1  0
 27 29  2  0
 29 30  1  0
  6 31  1  0
 31 32  1  0
 31 33  2  0
 33 34  1  0
 33  2  1  0
 13  7  2  0
 29 17  1  0
M  END
>  <cnnaffinity>  (1) 
-4.92653

>  <filename>  (1) 
FC(F)(F)c1ccc(Cc2[nH]ncc2-c2cccnc2)cc1

$$$$
