
     RDKit          3D

 29 31  0  0  0  0  0  0  0  0999 V2000
    5.0018    1.7805   17.0110 H   0  0  0  0  0  0  0  0  0  0  0  0
    5.4526    1.2662   17.8553 C   0  0  0  0  0  0  0  0  0  0  0  0
    6.6099    0.6337   17.6137 N   0  0  0  0  0  0  0  0  0  0  0  0
    7.2040    0.0199   18.6383 C   0  0  0  0  0  0  0  0  0  0  0  0
    8.1505   -0.4838   18.4487 H   0  0  0  0  0  0  0  0  0  0  0  0
    6.6696   -0.0013   19.9343 C   0  0  0  0  0  0  0  0  0  0  0  0
    7.4052   -0.7238   20.9808 C   0  0  0  0  0  0  0  0  0  0  0  0
    6.8268   -0.8483   22.1914 N   0  0  0  0  0  0  0  0  0  0  0  0
    7.4440   -1.5126   23.1379 N   0  0  0  0  0  0  0  0  0  0  0  0
    8.6658   -2.0370   22.8790 C   0  0  0  0  0  0  0  0  0  0  0  0
    9.3441   -2.7960   24.0063 C   0  0  0  0  0  0  0  0  0  0  0  0
   10.1675   -3.7844   23.6308 N   0  0  0  0  0  0  0  0  0  0  0  0
   10.7397   -4.5586   24.5575 C   0  0  0  0  0  0  0  0  0  0  0  0
   11.4416   -5.3046   24.1946 H   0  0  0  0  0  0  0  0  0  0  0  0
   10.4523   -4.4619   25.9169 C   0  0  0  0  0  0  0  0  0  0  0  0
   10.9042   -5.1387   26.6357 H   0  0  0  0  0  0  0  0  0  0  0  0
    9.6044   -3.4429   26.3289 C   0  0  0  0  0  0  0  0  0  0  0  0
    9.3728   -3.3147   27.3830 H   0  0  0  0  0  0  0  0  0  0  0  0
    9.1245   -2.5213   25.3853 C   0  0  0  0  0  0  0  0  0  0  0  0
    8.5748   -1.1994   25.9033 C   0  0  0  0  0  0  0  0  0  0  0  0
    7.2419   -1.1894   26.0152 F   0  0  0  0  0  0  0  0  0  0  0  0
    8.9302   -0.1918   25.0867 F   0  0  0  0  0  0  0  0  0  0  0  0
    9.0558   -0.9085   27.1314 F   0  0  0  0  0  0  0  0  0  0  0  0
    9.2490   -1.9269   21.6612 N   0  0  0  0  0  0  0  0  0  0  0  0
    8.6249   -1.2663   20.7100 N   0  0  0  0  0  0  0  0  0  0  0  0
    5.4466    0.6486   20.1782 C   0  0  0  0  0  0  0  0  0  0  0  0
    5.0103    0.6491   21.1787 H   0  0  0  0  0  0  0  0  0  0  0  0
    4.8302    1.2915   19.1095 C   0  0  0  0  0  0  0  0  0  0  0  0
    3.8935    1.8231   19.2313 H   0  0  0  0  0  0  0  0  0  0  0  0
  1  2  1  0
  2  3  2  0
  3  4  1  0
  4  5  1  0
  4  6  2  0
  6  7  1  0
  7  8  2  0
  8  9  1  0
  9 10  2  0
 10 11  1  0
 11 12  2  0
 12 13  1  0
 13 14  1  0
 13 15  2  0
 15 16  1  0
 15 17  1  0
 17 18  1  0
 17 19  2  0
 19 20  1  0
 20 21  1  0
 20 22  1  0
 20 23  1  0
 10 24  1  0
 24 25  2  0
  6 26  1  0
 26 27  1  0
 26 28  2  0
 28 29  1  0
 28  2  1  0
 25  7  1  0
 19 11  1  0
M  END
>  <cnnaffinity>  (1) 
-5.61423

>  <filename>  (1) 
FC(F)(F)c1cccnc1-c1nnc(-c2cccnc2)nn1

$$$$
