
     RDKit          3D

 36 37  0  0  0  0  0  0  0  0999 V2000
    4.9164    1.7847   16.8066 H   0  0  0  0  0  0  0  0  0  0  0  0
    5.3814    1.3583   17.6884 C   0  0  0  0  0  0  0  0  0  0  0  0
    6.5598    0.7509   17.4849 N   0  0  0  0  0  0  0  0  0  0  0  0
    7.1690    0.2312   18.5545 C   0  0  0  0  0  0  0  0  0  0  0  0
    8.1024   -0.2937   18.3775 H   0  0  0  0  0  0  0  0  0  0  0  0
    6.6439    0.2985   19.8489 C   0  0  0  0  0  0  0  0  0  0  0  0
    7.3414   -0.4685   20.9291 C   0  0  0  0  0  0  0  0  0  0  0  0
    8.6829   -0.5739   20.6409 F   0  0  0  0  0  0  0  0  0  0  0  0
    7.2743    0.1934   22.1248 F   0  0  0  0  0  0  0  0  0  0  0  0
    6.7329   -1.8506   21.0635 C   0  0  0  0  0  0  0  0  0  0  0  0
    6.7064   -2.2826   20.0562 H   0  0  0  0  0  0  0  0  0  0  0  0
    5.6889   -1.7027   21.3564 H   0  0  0  0  0  0  0  0  0  0  0  0
    7.4544   -2.7860   22.0240 C   0  0  0  0  0  0  0  0  0  0  0  0
    8.5349   -2.7182   21.8525 H   0  0  0  0  0  0  0  0  0  0  0  0
    7.2975   -2.4549   23.0595 H   0  0  0  0  0  0  0  0  0  0  0  0
    7.0234   -4.2391   21.8505 C   0  0  0  0  0  0  0  0  0  0  0  0
    7.2689   -4.5400   20.8172 H   0  0  0  0  0  0  0  0  0  0  0  0
    7.8026   -5.1519   22.8063 C   0  0  0  0  0  0  0  0  0  0  0  0
    7.5683   -4.8548   23.8407 H   0  0  0  0  0  0  0  0  0  0  0  0
    8.8867   -5.0315   22.6857 H   0  0  0  0  0  0  0  0  0  0  0  0
    7.4133   -6.6101   22.6048 C   0  0  0  0  0  0  0  0  0  0  0  0
    7.5837   -6.8712   21.5560 H   0  0  0  0  0  0  0  0  0  0  0  0
    8.0766   -7.2515   23.1872 H   0  0  0  0  0  0  0  0  0  0  0  0
    5.9185   -6.8251   22.8569 C   0  0  0  0  0  0  0  0  0  0  0  0
    5.6528   -7.8801   22.7386 H   0  0  0  0  0  0  0  0  0  0  0  0
    5.6483   -6.5379   23.8834 H   0  0  0  0  0  0  0  0  0  0  0  0
    5.1416   -5.9501   21.8638 C   0  0  0  0  0  0  0  0  0  0  0  0
    5.4037   -6.2743   20.8468 H   0  0  0  0  0  0  0  0  0  0  0  0
    4.0609   -6.0949   21.9480 H   0  0  0  0  0  0  0  0  0  0  0  0
    5.5080   -4.4657   22.0147 C   0  0  0  0  0  0  0  0  0  0  0  0
    5.2071   -4.0960   23.0068 H   0  0  0  0  0  0  0  0  0  0  0  0
    4.9407   -3.8769   21.2881 H   0  0  0  0  0  0  0  0  0  0  0  0
    5.3971    0.9038   20.0498 C   0  0  0  0  0  0  0  0  0  0  0  0
    4.9416    0.9324   21.0425 H   0  0  0  0  0  0  0  0  0  0  0  0
    4.7570    1.4458   18.9374 C   0  0  0  0  0  0  0  0  0  0  0  0
    3.7899    1.9325   19.0260 H   0  0  0  0  0  0  0  0  0  0  0  0
  1  2  1  0
  2  3  2  0
  3  4  1  0
  4  5  1  0
  4  6  2  0
  6  7  1  0
  7  8  1  0
  7  9  1  0
  7 10  1  0
 10 11  1  0
 10 12  1  0
 10 13  1  0
 13 14  1  0
 13 15  1  0
 13 16  1  0
 16 17  1  0
 16 18  1  0
 18 19  1  0
 18 20  1  0
 18 21  1  0
 21 22  1  0
 21 23  1  0
 21 24  1  0
 24 25  1  0
 24 26  1  0
 24 27  1  0
 27 28  1  0
 27 29  1  0
 27 30  1  0
 30 31  1  0
 30 32  1  0
  6 33  1  0
 33 34  1  0
 33 35  2  0
 35 36  1  0
 35  2  1  0
 30 16  1  0
M  END
>  <cnnaffinity>  (1) 
-5.13588

>  <filename>  (1) 
FC(F)(CCC1CCCCC1)c1cccnc1

$$$$
