
     RDKit          3D

 29 31  0  0  0  0  0  0  0  0999 V2000
    8.9515   -3.2257   21.9686 H   0  0  0  0  0  0  0  0  0  0  0  0
    8.4412   -2.2728   21.9162 C   0  0  0  0  0  0  0  0  0  0  0  0
    8.2277   -1.4719   22.8937 N   0  0  0  0  0  0  0  0  0  0  0  0
    7.5314   -0.4049   22.3186 C   0  0  0  0  0  0  0  0  0  0  0  0
    7.1520    0.8482   23.0068 C   0  0  0  0  0  0  0  0  0  0  0  0
    6.7383    0.7483   24.2776 N   0  0  0  0  0  0  0  0  0  0  0  0
    6.4109    1.8439   24.9605 C   0  0  0  0  0  0  0  0  0  0  0  0
    5.9782    1.6797   26.4377 C   0  0  0  0  0  0  0  0  0  0  0  0
    4.7383    2.1836   26.6232 F   0  0  0  0  0  0  0  0  0  0  0  0
    5.9686    0.4198   26.8782 F   0  0  0  0  0  0  0  0  0  0  0  0
    6.7897    2.3879   27.2539 F   0  0  0  0  0  0  0  0  0  0  0  0
    6.4512    3.1324   24.3963 C   0  0  0  0  0  0  0  0  0  0  0  0
    6.1713    3.9990   24.9841 H   0  0  0  0  0  0  0  0  0  0  0  0
    6.8696    3.2573   23.0704 C   0  0  0  0  0  0  0  0  0  0  0  0
    6.9184    4.2390   22.5961 H   0  0  0  0  0  0  0  0  0  0  0  0
    7.2289    2.1072   22.3658 C   0  0  0  0  0  0  0  0  0  0  0  0
    7.5616    2.1708   21.3370 H   0  0  0  0  0  0  0  0  0  0  0  0
    7.3528   -0.6710   20.9832 C   0  0  0  0  0  0  0  0  0  0  0  0
    6.6502   -0.0015   19.8982 C   0  0  0  0  0  0  0  0  0  0  0  0
    7.1702    0.0441   18.5909 C   0  0  0  0  0  0  0  0  0  0  0  0
    8.1222   -0.4326   18.3658 H   0  0  0  0  0  0  0  0  0  0  0  0
    6.5706    0.6745   17.5793 N   0  0  0  0  0  0  0  0  0  0  0  0
    5.4049    1.2917   17.8393 C   0  0  0  0  0  0  0  0  0  0  0  0
    4.9204    1.7808   16.9981 H   0  0  0  0  0  0  0  0  0  0  0  0
    4.8030    1.3079   19.1000 C   0  0  0  0  0  0  0  0  0  0  0  0
    3.8740    1.8434   19.2568 H   0  0  0  0  0  0  0  0  0  0  0  0
    5.4279    0.6426   20.1479 C   0  0  0  0  0  0  0  0  0  0  0  0
    5.0006    0.6350   21.1535 H   0  0  0  0  0  0  0  0  0  0  0  0
    7.9617   -1.8627   20.7222 O   0  0  0  0  0  0  0  0  0  0  0  0
  1  2  1  0
  2  3  2  0
  3  4  1  0
  4  5  1  0
  5  6  2  0
  6  7  1  0
  7  8  1  0
  8  9  1  0
  8 10  1  0
  8 11  1  0
  7 12  2  0
 12 13  1  0
 12 14  1  0
 14 15  1  0
 14 16  2  0
 16 17  1  0
  4 18  2  0
 18 19  1  0
 19 20  2  0
 20 21  1  0
 20 22  1  0
 22 23  2  0
 23 24  1  0
 23 25  1  0
 25 26  1  0
 25 27  2  0
 27 28  1  0
 18 29  1  0
 29  2  1  0
 16  5  1  0
 27 19  1  0
M  END
>  <cnnaffinity>  (1) 
-5.15749

>  <filename>  (1) 
FC(F)(F)c1cccc(-c2ncoc2-c2cccnc2)n1

$$$$
