
     RDKit          3D

 27 28  0  0  0  0  0  0  0  0999 V2000
    5.0576    1.9163   16.9886 H   0  0  0  0  0  0  0  0  0  0  0  0
    5.4608    1.3336   17.8149 C   0  0  0  0  0  0  0  0  0  0  0  0
    6.5860    0.6438   17.5643 N   0  0  0  0  0  0  0  0  0  0  0  0
    7.1239   -0.0817   18.5621 C   0  0  0  0  0  0  0  0  0  0  0  0
    8.0359   -0.6265   18.3117 H   0  0  0  0  0  0  0  0  0  0  0  0
    6.5632   -0.1722   19.8665 C   0  0  0  0  0  0  0  0  0  0  0  0
    7.0261   -0.9575   20.9450 N   0  0  0  0  0  0  0  0  0  0  0  0
    6.5228   -0.7591   21.8032 H   0  0  0  0  0  0  0  0  0  0  0  0
    8.6071   -1.5145   21.2111 S   0  0  0  0  0  0  0  0  0  0  0  0
    9.4644   -0.0239   21.7152 C   0  0  0  0  0  0  0  0  0  0  0  0
    9.8240    0.8948   20.7287 C   0  0  0  0  0  0  0  0  0  0  0  0
    9.5654    0.6551   19.7050 H   0  0  0  0  0  0  0  0  0  0  0  0
   10.5054    2.0625   21.0679 C   0  0  0  0  0  0  0  0  0  0  0  0
   10.8396    2.7656   20.3150 H   0  0  0  0  0  0  0  0  0  0  0  0
   10.8043    2.3206   22.4008 C   0  0  0  0  0  0  0  0  0  0  0  0
   11.3438    3.2212   22.6703 H   0  0  0  0  0  0  0  0  0  0  0  0
   10.4174    1.4191   23.4011 C   0  0  0  0  0  0  0  0  0  0  0  0
   10.7098    1.7783   24.8349 C   0  0  0  0  0  0  0  0  0  0  0  0
   11.9370    2.3193   24.9650 F   0  0  0  0  0  0  0  0  0  0  0  0
   10.6640    0.7156   25.6547 F   0  0  0  0  0  0  0  0  0  0  0  0
    9.8322    2.6928   25.2984 F   0  0  0  0  0  0  0  0  0  0  0  0
    9.7552    0.2291   23.0599 C   0  0  0  0  0  0  0  0  0  0  0  0
    9.4608   -0.4987   23.8117 H   0  0  0  0  0  0  0  0  0  0  0  0
    5.3822    0.5539   20.0886 C   0  0  0  0  0  0  0  0  0  0  0  0
    4.9320    0.5060   21.0791 H   0  0  0  0  0  0  0  0  0  0  0  0
    4.8243    1.3161   19.0613 C   0  0  0  0  0  0  0  0  0  0  0  0
    3.9216    1.8990   19.2186 H   0  0  0  0  0  0  0  0  0  0  0  0
  1  2  1  0
  2  3  2  0
  3  4  1  0
  4  5  1  0
  4  6  2  0
  6  7  1  0
  7  8  1  0
  7  9  1  0
  9 10  1  0
 10 11  2  0
 11 12  1  0
 11 13  1  0
 13 14  1  0
 13 15  2  0
 15 16  1  0
 15 17  1  0
 17 18  1  0
 18 19  1  0
 18 20  1  0
 18 21  1  0
 17 22  2  0
 22 23  1  0
  6 24  1  0
 24 25  1  0
 24 26  2  0
 26 27  1  0
 26  2  1  0
 22 10  1  0
M  END
>  <cnnaffinity>  (1) 
-4.77598

>  <filename>  (1) 
FC(F)(F)c1cccc(SNc2cccnc2)c1

$$$$
