
     RDKit          3D

 36 38  0  0  0  0  0  0  0  0999 V2000
    4.9439    1.7780   17.0144 H   0  0  0  0  0  0  0  0  0  0  0  0
    5.4245    1.2676   17.8457 C   0  0  0  0  0  0  0  0  0  0  0  0
    6.5883    0.6494   17.5795 N   0  0  0  0  0  0  0  0  0  0  0  0
    7.2098    0.0440   18.6015 C   0  0  0  0  0  0  0  0  0  0  0  0
    8.1568   -0.4423   18.3622 H   0  0  0  0  0  0  0  0  0  0  0  0
    6.7137   -0.0060   19.9283 C   0  0  0  0  0  0  0  0  0  0  0  0
    7.4452   -0.6199   20.9615 N   0  0  0  0  0  0  0  0  0  0  0  0
    8.4483   -0.6596   20.8520 H   0  0  0  0  0  0  0  0  0  0  0  0
    6.9468   -1.5333   21.9057 C   0  0  0  0  0  0  0  0  0  0  0  0
    5.8256   -2.4019   21.8457 C   0  0  0  0  0  0  0  0  0  0  0  0
    5.1599   -2.5861   21.0182 H   0  0  0  0  0  0  0  0  0  0  0  0
    5.6714   -3.0843   22.9771 N   0  0  0  0  0  0  0  0  0  0  0  0
    6.6978   -2.6807   23.7420 N   0  0  0  0  0  0  0  0  0  0  0  0
    6.7129   -2.9731   24.7072 H   0  0  0  0  0  0  0  0  0  0  0  0
    7.5244   -1.7840   23.1410 C   0  0  0  0  0  0  0  0  0  0  0  0
    8.7651   -1.2399   23.7943 C   0  0  0  0  0  0  0  0  0  0  0  0
    9.0797   -1.9020   24.6155 H   0  0  0  0  0  0  0  0  0  0  0  0
    9.5940   -1.2669   23.0714 H   0  0  0  0  0  0  0  0  0  0  0  0
    8.5717    0.1762   24.3111 C   0  0  0  0  0  0  0  0  0  0  0  0
    8.0462    0.4058   25.5911 C   0  0  0  0  0  0  0  0  0  0  0  0
    7.7927   -0.4327   26.2358 H   0  0  0  0  0  0  0  0  0  0  0  0
    7.8632    1.7032   26.0720 C   0  0  0  0  0  0  0  0  0  0  0  0
    7.4299    1.8516   27.0576 H   0  0  0  0  0  0  0  0  0  0  0  0
    8.2032    2.8072   25.2726 C   0  0  0  0  0  0  0  0  0  0  0  0
    8.0566    4.2177   25.8126 C   0  0  0  0  0  0  0  0  0  0  0  0
    7.8131    5.1187   24.8409 F   0  0  0  0  0  0  0  0  0  0  0  0
    9.1754    4.6284   26.4435 F   0  0  0  0  0  0  0  0  0  0  0  0
    7.0524    4.3250   26.7055 F   0  0  0  0  0  0  0  0  0  0  0  0
    8.7080    2.5867   23.9818 C   0  0  0  0  0  0  0  0  0  0  0  0
    8.9347    3.4247   23.3265 H   0  0  0  0  0  0  0  0  0  0  0  0
    8.8850    1.2843   23.5110 C   0  0  0  0  0  0  0  0  0  0  0  0
    9.2889    1.1399   22.5119 H   0  0  0  0  0  0  0  0  0  0  0  0
    5.4850    0.6277   20.1764 C   0  0  0  0  0  0  0  0  0  0  0  0
    5.0709    0.6344   21.1855 H   0  0  0  0  0  0  0  0  0  0  0  0
    4.8392    1.2748   19.1161 C   0  0  0  0  0  0  0  0  0  0  0  0
    3.9027    1.7983   19.2696 H   0  0  0  0  0  0  0  0  0  0  0  0
  1  2  1  0
  2  3  2  0
  3  4  1  0
  4  5  1  0
  4  6  2  0
  6  7  1  0
  7  8  1  0
  7  9  1  0
  9 10  1  0
 10 11  1  0
 10 12  2  0
 12 13  1  0
 13 14  1  0
 13 15  1  0
 15 16  1  0
 16 17  1  0
 16 18  1  0
 16 19  1  0
 19 20  2  0
 20 21  1  0
 20 22  1  0
 22 23  1  0
 22 24  2  0
 24 25  1  0
 25 26  1  0
 25 27  1  0
 25 28  1  0
 24 29  1  0
 29 30  1  0
 29 31  2  0
 31 32  1  0
  6 33  1  0
 33 34  1  0
 33 35  2  0
 35 36  1  0
 35  2  1  0
 15  9  2  0
 31 19  1  0
M  END
>  <cnnaffinity>  (1) 
-5.60944

>  <filename>  (1) 
FC(F)(F)c1ccc(Cc2[nH]ncc2Nc2cccnc2)cc1

$$$$
