
     RDKit          3D

 35 37  0  0  0  0  0  0  0  0999 V2000
    4.9095    1.7722   17.0066 H   0  0  0  0  0  0  0  0  0  0  0  0
    5.4041    1.2889   17.8468 C   0  0  0  0  0  0  0  0  0  0  0  0
    6.5710    0.6824   17.5866 N   0  0  0  0  0  0  0  0  0  0  0  0
    7.1812    0.0550   18.5967 C   0  0  0  0  0  0  0  0  0  0  0  0
    8.1275   -0.4356   18.3783 H   0  0  0  0  0  0  0  0  0  0  0  0
    6.6611   -0.0006   19.8998 C   0  0  0  0  0  0  0  0  0  0  0  0
    7.3976   -0.7245   20.9688 C   0  0  0  0  0  0  0  0  0  0  0  0
    8.1038   -1.8203   20.6277 N   0  0  0  0  0  0  0  0  0  0  0  0
    8.7581   -2.5310   21.5538 N   0  0  0  0  0  0  0  0  0  0  0  0
    8.7508   -2.1311   22.8301 C   0  0  0  0  0  0  0  0  0  0  0  0
    9.3028   -2.7368   23.5420 H   0  0  0  0  0  0  0  0  0  0  0  0
    8.0817   -0.9707   23.2571 C   0  0  0  0  0  0  0  0  0  0  0  0
    8.0373   -0.5660   24.7059 C   0  0  0  0  0  0  0  0  0  0  0  0
    8.9624   -0.8739   25.2048 H   0  0  0  0  0  0  0  0  0  0  0  0
    7.9969    0.5278   24.7701 H   0  0  0  0  0  0  0  0  0  0  0  0
    6.8393   -1.1760   25.3941 C   0  0  0  0  0  0  0  0  0  0  0  0
    5.6037   -0.5176   25.3842 C   0  0  0  0  0  0  0  0  0  0  0  0
    5.5102    0.4530   24.9036 H   0  0  0  0  0  0  0  0  0  0  0  0
    4.4846   -1.0915   25.9804 C   0  0  0  0  0  0  0  0  0  0  0  0
    3.5368   -0.5606   25.9604 H   0  0  0  0  0  0  0  0  0  0  0  0
    4.5957   -2.3462   26.5960 C   0  0  0  0  0  0  0  0  0  0  0  0
    3.3806   -2.9925   27.2050 C   0  0  0  0  0  0  0  0  0  0  0  0
    3.6877   -3.8240   28.2178 F   0  0  0  0  0  0  0  0  0  0  0  0
    2.7112   -3.7250   26.2934 F   0  0  0  0  0  0  0  0  0  0  0  0
    2.5053   -2.0938   27.6939 F   0  0  0  0  0  0  0  0  0  0  0  0
    5.8153   -3.0376   26.5687 C   0  0  0  0  0  0  0  0  0  0  0  0
    5.9063   -4.0264   27.0106 H   0  0  0  0  0  0  0  0  0  0  0  0
    6.9245   -2.4507   25.9666 C   0  0  0  0  0  0  0  0  0  0  0  0
    7.8668   -2.9921   25.9465 H   0  0  0  0  0  0  0  0  0  0  0  0
    7.3719   -0.2718   22.2973 C   0  0  0  0  0  0  0  0  0  0  0  0
    6.8253    0.6331   22.5520 H   0  0  0  0  0  0  0  0  0  0  0  0
    5.4481    0.6508   20.1609 C   0  0  0  0  0  0  0  0  0  0  0  0
    5.0031    0.6297   21.1575 H   0  0  0  0  0  0  0  0  0  0  0  0
    4.8056    1.3079   19.1124 C   0  0  0  0  0  0  0  0  0  0  0  0
    3.8715    1.8453   19.2670 H   0  0  0  0  0  0  0  0  0  0  0  0
  1  2  1  0
  2  3  2  0
  3  4  1  0
  4  5  1  0
  4  6  2  0
  6  7  1  0
  7  8  2  0
  8  9  1  0
  9 10  2  0
 10 11  1  0
 10 12  1  0
 12 13  1  0
 13 14  1  0
 13 15  1  0
 13 16  1  0
 16 17  2  0
 17 18  1  0
 17 19  1  0
 19 20  1  0
 19 21  2  0
 21 22  1  0
 22 23  1  0
 22 24  1  0
 22 25  1  0
 21 26  1  0
 26 27  1  0
 26 28  2  0
 28 29  1  0
 12 30  2  0
 30 31  1  0
  6 32  1  0
 32 33  1  0
 32 34  2  0
 34 35  1  0
 34  2  1  0
 30  7  1  0
 28 16  1  0
M  END
>  <cnnaffinity>  (1) 
-5.1905

>  <filename>  (1) 
FC(F)(F)c1ccc(Cc2cnnc(-c3cccnc3)c2)cc1

$$$$
