
     RDKit          3D

 34 37  0  0  0  0  0  0  0  0999 V2000
    4.9594    1.8312   16.9936 H   0  0  0  0  0  0  0  0  0  0  0  0
    5.4790    1.3251   17.8030 C   0  0  0  0  0  0  0  0  0  0  0  0
    6.6422    0.7349   17.4842 N   0  0  0  0  0  0  0  0  0  0  0  0
    7.3005    0.0838   18.4521 C   0  0  0  0  0  0  0  0  0  0  0  0
    8.2364   -0.3876   18.1547 H   0  0  0  0  0  0  0  0  0  0  0  0
    6.8288   -0.0278   19.7752 C   0  0  0  0  0  0  0  0  0  0  0  0
    7.5129   -0.8172   20.7384 N   0  0  0  0  0  0  0  0  0  0  0  0
    8.8774   -0.8172   21.0362 C   0  0  0  0  0  0  0  0  0  0  0  0
    9.5348   -0.1335   20.5264 H   0  0  0  0  0  0  0  0  0  0  0  0
    9.1256   -1.7094   22.0308 C   0  0  0  0  0  0  0  0  0  0  0  0
   10.0264   -1.9941   22.5451 H   0  0  0  0  0  0  0  0  0  0  0  0
    7.9003   -2.2890   22.3419 N   0  0  0  0  0  0  0  0  0  0  0  0
    7.4861   -3.2604   23.1875 N   0  0  0  0  0  0  0  0  0  0  0  0
    6.1710   -3.3546   22.8728 C   0  0  0  0  0  0  0  0  0  0  0  0
    5.1260   -4.3053   23.4176 C   0  0  0  0  0  0  0  0  0  0  0  0
    4.0405   -4.4130   22.6238 N   0  0  0  0  0  0  0  0  0  0  0  0
    3.0987   -5.3071   22.8924 C   0  0  0  0  0  0  0  0  0  0  0  0
    2.2836   -5.3630   22.1776 H   0  0  0  0  0  0  0  0  0  0  0  0
    3.1368   -6.1400   24.0097 C   0  0  0  0  0  0  0  0  0  0  0  0
    2.3544   -6.8722   24.1701 H   0  0  0  0  0  0  0  0  0  0  0  0
    4.1905   -5.9866   24.8988 C   0  0  0  0  0  0  0  0  0  0  0  0
    4.2336   -6.5852   25.8076 H   0  0  0  0  0  0  0  0  0  0  0  0
    5.1857   -5.0370   24.6288 C   0  0  0  0  0  0  0  0  0  0  0  0
    6.2919   -4.7589   25.6176 C   0  0  0  0  0  0  0  0  0  0  0  0
    6.1539   -5.4679   26.7539 F   0  0  0  0  0  0  0  0  0  0  0  0
    6.3241   -3.4608   25.9690 F   0  0  0  0  0  0  0  0  0  0  0  0
    7.4938   -5.0571   25.1041 F   0  0  0  0  0  0  0  0  0  0  0  0
    5.7855   -2.4538   21.8642 C   0  0  0  0  0  0  0  0  0  0  0  0
    4.7779   -2.3983   21.5218 H   0  0  0  0  0  0  0  0  0  0  0  0
    6.9305   -1.7607   21.5637 C   0  0  0  0  0  0  0  0  0  0  0  0
    5.6308    0.6321   20.1048 C   0  0  0  0  0  0  0  0  0  0  0  0
    5.2709    0.6348   21.1342 H   0  0  0  0  0  0  0  0  0  0  0  0
    4.9418    1.3080   19.0946 C   0  0  0  0  0  0  0  0  0  0  0  0
    4.0098    1.8285   19.2973 H   0  0  0  0  0  0  0  0  0  0  0  0
  1  2  1  0
  2  3  2  0
  3  4  1  0
  4  5  1  0
  4  6  2  0
  6  7  1  0
  7  8  1  0
  8  9  1  0
  8 10  2  0
 10 11  1  0
 10 12  1  0
 12 13  1  0
 13 14  2  0
 14 15  1  0
 15 16  2  0
 16 17  1  0
 17 18  1  0
 17 19  2  0
 19 20  1  0
 19 21  1  0
 21 22  1  0
 21 23  2  0
 23 24  1  0
 24 25  1  0
 24 26  1  0
 24 27  1  0
 14 28  1  0
 28 29  1  0
 28 30  2  0
  6 31  1  0
 31 32  1  0
 31 33  2  0
 33 34  1  0
 33  2  1  0
 30  7  1  0
 30 12  1  0
 23 15  1  0
M  END
>  <cnnaffinity>  (1) 
-5.74085

>  <filename>  (1) 
FC(F)(F)c1cccnc1-c1cc2n(-c3cccnc3)ccn2n1

$$$$
