
     RDKit          3D

 30 32  0  0  0  0  0  0  0  0999 V2000
    4.9674    1.7823   16.9889 H   0  0  0  0  0  0  0  0  0  0  0  0
    5.4192    1.3036   17.8574 C   0  0  0  0  0  0  0  0  0  0  0  0
    6.5810    0.6598   17.6488 N   0  0  0  0  0  0  0  0  0  0  0  0
    7.1522    0.0594   18.6923 C   0  0  0  0  0  0  0  0  0  0  0  0
    8.0773   -0.4805   18.5090 H   0  0  0  0  0  0  0  0  0  0  0  0
    6.6188    0.0894   19.9945 C   0  0  0  0  0  0  0  0  0  0  0  0
    7.3168   -0.5629   21.0521 N   0  0  0  0  0  0  0  0  0  0  0  0
    8.0596   -1.6791   20.8091 N   0  0  0  0  0  0  0  0  0  0  0  0
    8.5462   -2.0548   21.9269 N   0  0  0  0  0  0  0  0  0  0  0  0
    8.1809   -1.2268   22.9342 N   0  0  0  0  0  0  0  0  0  0  0  0
    7.4386   -0.3049   22.3748 C   0  0  0  0  0  0  0  0  0  0  0  0
    6.8555    0.7733   22.9138 O   0  0  0  0  0  0  0  0  0  0  0  0
    7.1904    1.2005   24.1937 C   0  0  0  0  0  0  0  0  0  0  0  0
    8.4791    1.0497   24.7200 C   0  0  0  0  0  0  0  0  0  0  0  0
    9.2447    0.5195   24.1630 H   0  0  0  0  0  0  0  0  0  0  0  0
    8.7527    1.5285   26.0006 C   0  0  0  0  0  0  0  0  0  0  0  0
    9.7479    1.3796   26.4104 H   0  0  0  0  0  0  0  0  0  0  0  0
    7.7516    2.1226   26.7684 C   0  0  0  0  0  0  0  0  0  0  0  0
    7.9613    2.4236   27.7887 H   0  0  0  0  0  0  0  0  0  0  0  0
    6.4746    2.2876   26.2369 C   0  0  0  0  0  0  0  0  0  0  0  0
    5.7034    2.7508   26.8489 H   0  0  0  0  0  0  0  0  0  0  0  0
    6.1884    1.8631   24.9256 C   0  0  0  0  0  0  0  0  0  0  0  0
    4.7867    2.0089   24.3719 C   0  0  0  0  0  0  0  0  0  0  0  0
    4.0733    2.9437   25.0411 F   0  0  0  0  0  0  0  0  0  0  0  0
    4.7316    2.3648   23.0788 F   0  0  0  0  0  0  0  0  0  0  0  0
    4.1068    0.8539   24.4948 F   0  0  0  0  0  0  0  0  0  0  0  0
    5.4097    0.7536   20.2127 C   0  0  0  0  0  0  0  0  0  0  0  0
    4.9580    0.8102   21.2006 H   0  0  0  0  0  0  0  0  0  0  0  0
    4.7970    1.3567   19.1066 C   0  0  0  0  0  0  0  0  0  0  0  0
    3.8495    1.8700   19.2082 H   0  0  0  0  0  0  0  0  0  0  0  0
  1  2  1  0
  2  3  2  0
  3  4  1  0
  4  5  1  0
  4  6  2  0
  6  7  1  0
  7  8  1  0
  8  9  2  0
  9 10  1  0
 10 11  2  0
 11 12  1  0
 12 13  1  0
 13 14  2  0
 14 15  1  0
 14 16  1  0
 16 17  1  0
 16 18  2  0
 18 19  1  0
 18 20  1  0
 20 21  1  0
 20 22  2  0
 22 23  1  0
 23 24  1  0
 23 25  1  0
 23 26  1  0
  6 27  1  0
 27 28  1  0
 27 29  2  0
 29 30  1  0
 29  2  1  0
 11  7  1  0
 22 13  1  0
M  END
>  <cnnaffinity>  (1) 
-5.15218

>  <filename>  (1) 
FC(F)(F)c1ccccc1Oc1nnnn1-c1cccnc1

$$$$
