
     RDKit          3D

 31 33  0  0  0  0  0  0  0  0999 V2000
    4.9376    1.8195   16.9811 H   0  0  0  0  0  0  0  0  0  0  0  0
    5.3980    1.2925   17.8179 C   0  0  0  0  0  0  0  0  0  0  0  0
    6.5485    0.6485   17.5658 N   0  0  0  0  0  0  0  0  0  0  0  0
    7.1750    0.0313   18.5762 C   0  0  0  0  0  0  0  0  0  0  0  0
    8.1179   -0.4608   18.3426 H   0  0  0  0  0  0  0  0  0  0  0  0
    6.6636    0.0039   19.8900 C   0  0  0  0  0  0  0  0  0  0  0  0
    7.3259   -0.6737   20.9594 N   0  0  0  0  0  0  0  0  0  0  0  0
    6.7097   -1.6097   21.7769 C   0  0  0  0  0  0  0  0  0  0  0  0
    5.6571   -1.8081   21.6245 H   0  0  0  0  0  0  0  0  0  0  0  0
    7.6261   -2.0812   22.6657 C   0  0  0  0  0  0  0  0  0  0  0  0
    7.5010   -3.0592   23.7798 C   0  0  0  0  0  0  0  0  0  0  0  0
    8.6165   -3.3762   24.4662 N   0  0  0  0  0  0  0  0  0  0  0  0
    8.5373   -4.2636   25.4653 C   0  0  0  0  0  0  0  0  0  0  0  0
    9.8268   -4.6857   26.2055 C   0  0  0  0  0  0  0  0  0  0  0  0
    9.8690   -6.0304   26.3214 F   0  0  0  0  0  0  0  0  0  0  0  0
   10.9563   -4.3052   25.6038 F   0  0  0  0  0  0  0  0  0  0  0  0
    9.8371   -4.2024   27.4640 F   0  0  0  0  0  0  0  0  0  0  0  0
    7.3194   -4.8512   25.8533 C   0  0  0  0  0  0  0  0  0  0  0  0
    7.2763   -5.5383   26.6906 H   0  0  0  0  0  0  0  0  0  0  0  0
    6.1647   -4.5370   25.1382 C   0  0  0  0  0  0  0  0  0  0  0  0
    5.2127   -4.9974   25.3982 H   0  0  0  0  0  0  0  0  0  0  0  0
    6.2509   -3.6296   24.0832 C   0  0  0  0  0  0  0  0  0  0  0  0
    5.3802   -3.3615   23.4975 H   0  0  0  0  0  0  0  0  0  0  0  0
    8.8003   -1.3902   22.3523 N   0  0  0  0  0  0  0  0  0  0  0  0
    9.7081   -1.4588   22.7883 H   0  0  0  0  0  0  0  0  0  0  0  0
    8.6310   -0.4703   21.3712 C   0  0  0  0  0  0  0  0  0  0  0  0
    9.7595    0.6426   20.8793 S   0  0  0  0  0  0  0  0  0  0  0  0
    5.4531    0.6560   20.1366 C   0  0  0  0  0  0  0  0  0  0  0  0
    5.0532    0.6493   21.1498 H   0  0  0  0  0  0  0  0  0  0  0  0
    4.8098    1.3150   19.0872 C   0  0  0  0  0  0  0  0  0  0  0  0
    3.8820    1.8529   19.2412 H   0  0  0  0  0  0  0  0  0  0  0  0
  1  2  1  0
  2  3  2  0
  3  4  1  0
  4  5  1  0
  4  6  2  0
  6  7  1  0
  7  8  1  0
  8  9  1  0
  8 10  2  0
 10 11  1  0
 11 12  2  0
 12 13  1  0
 13 14  1  0
 14 15  1  0
 14 16  1  0
 14 17  1  0
 13 18  2  0
 18 19  1  0
 18 20  1  0
 20 21  1  0
 20 22  2  0
 22 23  1  0
 10 24  1  0
 24 25  1  0
 24 26  1  0
 26 27  2  0
  6 28  1  0
 28 29  1  0
 28 30  2  0
 30 31  1  0
 30  2  1  0
 26  7  1  0
 22 11  1  0
M  END
>  <cnnaffinity>  (1) 
-5.81224

>  <filename>  (1) 
FC(F)(F)c1cccc(-c2cn(-c3cccnc3)c(=S)[nH]2)n1

$$$$
