
     RDKit          3D

 32 34  0  0  0  0  0  0  0  0999 V2000
    4.9207    1.8096   16.9628 H   0  0  0  0  0  0  0  0  0  0  0  0
    5.3915    1.3084   17.8085 C   0  0  0  0  0  0  0  0  0  0  0  0
    6.5547    0.6877   17.5551 N   0  0  0  0  0  0  0  0  0  0  0  0
    7.1700    0.0736   18.5743 C   0  0  0  0  0  0  0  0  0  0  0  0
    8.1044   -0.4197   18.3121 H   0  0  0  0  0  0  0  0  0  0  0  0
    6.6707    0.0241   19.8912 C   0  0  0  0  0  0  0  0  0  0  0  0
    7.3480   -0.6897   20.9778 C   0  0  0  0  0  0  0  0  0  0  0  0
    6.8286   -1.2217   22.1036 C   0  0  0  0  0  0  0  0  0  0  0  0
    5.8175   -1.3038   22.4329 H   0  0  0  0  0  0  0  0  0  0  0  0
    7.8453   -1.8103   22.8365 N   0  0  0  0  0  0  0  0  0  0  0  0
    7.6824   -2.4270   24.1194 C   0  0  0  0  0  0  0  0  0  0  0  0
    8.2311   -1.7819   25.2344 C   0  0  0  0  0  0  0  0  0  0  0  0
    8.7781   -0.8596   25.0656 H   0  0  0  0  0  0  0  0  0  0  0  0
    8.0651   -2.3174   26.5140 C   0  0  0  0  0  0  0  0  0  0  0  0
    8.5003   -1.8101   27.3722 H   0  0  0  0  0  0  0  0  0  0  0  0
    7.3514   -3.5090   26.6762 C   0  0  0  0  0  0  0  0  0  0  0  0
    7.2248   -3.9427   27.6636 H   0  0  0  0  0  0  0  0  0  0  0  0
    6.8092   -4.1605   25.5677 C   0  0  0  0  0  0  0  0  0  0  0  0
    6.2659   -5.0930   25.7062 H   0  0  0  0  0  0  0  0  0  0  0  0
    6.9730   -3.6372   24.2719 C   0  0  0  0  0  0  0  0  0  0  0  0
    6.3652   -4.3627   23.0795 C   0  0  0  0  0  0  0  0  0  0  0  0
    6.0754   -5.6461   23.3745 F   0  0  0  0  0  0  0  0  0  0  0  0
    7.1671   -4.3987   22.0048 F   0  0  0  0  0  0  0  0  0  0  0  0
    5.2057   -3.7917   22.6799 F   0  0  0  0  0  0  0  0  0  0  0  0
    9.0402   -1.6388   22.1805 C   0  0  0  0  0  0  0  0  0  0  0  0
   10.5823   -2.0705   22.6059 S   0  0  0  0  0  0  0  0  0  0  0  0
    8.7027   -0.9840   21.0361 N   0  0  0  0  0  0  0  0  0  0  0  0
    9.4491   -0.7028   20.4235 H   0  0  0  0  0  0  0  0  0  0  0  0
    5.4433    0.6709   20.1256 C   0  0  0  0  0  0  0  0  0  0  0  0
    5.0101    0.6702   21.1259 H   0  0  0  0  0  0  0  0  0  0  0  0
    4.7981    1.3240   19.0744 C   0  0  0  0  0  0  0  0  0  0  0  0
    3.8625    1.8525   19.2212 H   0  0  0  0  0  0  0  0  0  0  0  0
  1  2  1  0
  2  3  2  0
  3  4  1  0
  4  5  1  0
  4  6  2  0
  6  7  1  0
  7  8  2  0
  8  9  1  0
  8 10  1  0
 10 11  1  0
 11 12  2  0
 12 13  1  0
 12 14  1  0
 14 15  1  0
 14 16  2  0
 16 17  1  0
 16 18  1  0
 18 19  1  0
 18 20  2  0
 20 21  1  0
 21 22  1  0
 21 23  1  0
 21 24  1  0
 10 25  1  0
 25 26  2  0
 25 27  1  0
 27 28  1  0
  6 29  1  0
 29 30  1  0
 29 31  2  0
 31 32  1  0
 31  2  1  0
 27  7  1  0
 20 11  1  0
M  END
>  <cnnaffinity>  (1) 
-5.87977

>  <filename>  (1) 
FC(F)(F)c1ccccc1-n1cc(-c2cccnc2)[nH]c1=S

$$$$
