
     RDKit          3D

 38 41  0  0  0  0  0  0  0  0999 V2000
    5.3212    1.9662   17.0590 H   0  0  0  0  0  0  0  0  0  0  0  0
    5.7308    1.3161   17.8291 C   0  0  0  0  0  0  0  0  0  0  0  0
    6.8292    0.6174   17.4988 N   0  0  0  0  0  0  0  0  0  0  0  0
    7.3787   -0.1660   18.4331 C   0  0  0  0  0  0  0  0  0  0  0  0
    8.2612   -0.7239   18.1221 H   0  0  0  0  0  0  0  0  0  0  0  0
    6.8624   -0.3005   19.7336 C   0  0  0  0  0  0  0  0  0  0  0  0
    7.5224   -1.0933   20.7023 N   0  0  0  0  0  0  0  0  0  0  0  0
    8.8622   -0.9674   21.0889 C   0  0  0  0  0  0  0  0  0  0  0  0
    9.5391   -0.3342   20.5431 H   0  0  0  0  0  0  0  0  0  0  0  0
    9.0761   -1.6849   22.2181 C   0  0  0  0  0  0  0  0  0  0  0  0
    9.9220   -1.8304   22.8691 H   0  0  0  0  0  0  0  0  0  0  0  0
    7.8626   -2.2620   22.5245 N   0  0  0  0  0  0  0  0  0  0  0  0
    7.4271   -3.0338   23.5357 N   0  0  0  0  0  0  0  0  0  0  0  0
    6.1274   -3.1842   23.2653 C   0  0  0  0  0  0  0  0  0  0  0  0
    5.2850   -4.0263   24.1935 C   0  0  0  0  0  0  0  0  0  0  0  0
    5.9455   -4.8042   24.5962 H   0  0  0  0  0  0  0  0  0  0  0  0
    4.5215   -4.5491   23.6030 H   0  0  0  0  0  0  0  0  0  0  0  0
    4.6040   -3.3026   25.3537 C   0  0  0  0  0  0  0  0  0  0  0  0
    3.4054   -2.5930   25.1734 C   0  0  0  0  0  0  0  0  0  0  0  0
    2.9716   -2.5238   24.1854 H   0  0  0  0  0  0  0  0  0  0  0  0
    2.7415   -1.9904   26.2440 C   0  0  0  0  0  0  0  0  0  0  0  0
    1.8314   -1.4234   26.0415 H   0  0  0  0  0  0  0  0  0  0  0  0
    3.2629   -2.1167   27.5448 C   0  0  0  0  0  0  0  0  0  0  0  0
    2.5000   -1.5898   28.7472 C   0  0  0  0  0  0  0  0  0  0  0  0
    1.5810   -2.4766   29.1839 F   0  0  0  0  0  0  0  0  0  0  0  0
    1.8387   -0.4485   28.4657 F   0  0  0  0  0  0  0  0  0  0  0  0
    3.3068   -1.3349   29.7956 F   0  0  0  0  0  0  0  0  0  0  0  0
    4.4841   -2.7919   27.7309 C   0  0  0  0  0  0  0  0  0  0  0  0
    4.9275   -2.8725   28.7215 H   0  0  0  0  0  0  0  0  0  0  0  0
    5.1478   -3.3643   26.6434 C   0  0  0  0  0  0  0  0  0  0  0  0
    6.0991   -3.8759   26.7983 H   0  0  0  0  0  0  0  0  0  0  0  0
    5.7402   -2.5333   22.0688 C   0  0  0  0  0  0  0  0  0  0  0  0
    4.7532   -2.5079   21.6525 H   0  0  0  0  0  0  0  0  0  0  0  0
    6.9105   -1.9177   21.6352 C   0  0  0  0  0  0  0  0  0  0  0  0
    5.6861    0.3942   20.0551 C   0  0  0  0  0  0  0  0  0  0  0  0
    5.2423    0.2717   21.0436 H   0  0  0  0  0  0  0  0  0  0  0  0
    5.1315    1.2361   19.0900 C   0  0  0  0  0  0  0  0  0  0  0  0
    4.2644    1.8467   19.3156 H   0  0  0  0  0  0  0  0  0  0  0  0
  1  2  1  0
  2  3  2  0
  3  4  1  0
  4  5  1  0
  4  6  2  0
  6  7  1  0
  7  8  1  0
  8  9  1  0
  8 10  2  0
 10 11  1  0
 10 12  1  0
 12 13  1  0
 13 14  2  0
 14 15  1  0
 15 16  1  0
 15 17  1  0
 15 18  1  0
 18 19  2  0
 19 20  1  0
 19 21  1  0
 21 22  1  0
 21 23  2  0
 23 24  1  0
 24 25  1  0
 24 26  1  0
 24 27  1  0
 23 28  1  0
 28 29  1  0
 28 30  2  0
 30 31  1  0
 14 32  1  0
 32 33  1  0
 32 34  2  0
  6 35  1  0
 35 36  1  0
 35 37  2  0
 37 38  1  0
 37  2  1  0
 34  7  1  0
 34 12  1  0
 30 18  1  0
M  END
>  <cnnaffinity>  (1) 
-5.02927

>  <filename>  (1) 
FC(F)(F)c1ccc(Cc2cc3n(-c4cccnc4)ccn3n2)cc1

$$$$
