
     RDKit          3D

 36 38  0  0  0  0  0  0  0  0999 V2000
    4.9593    1.7772   17.0335 H   0  0  0  0  0  0  0  0  0  0  0  0
    5.4363    1.2706   17.8686 C   0  0  0  0  0  0  0  0  0  0  0  0
    6.6004    0.6519   17.6060 N   0  0  0  0  0  0  0  0  0  0  0  0
    7.2027    0.0120   18.6192 C   0  0  0  0  0  0  0  0  0  0  0  0
    8.1526   -0.4599   18.3703 H   0  0  0  0  0  0  0  0  0  0  0  0
    6.6840   -0.0798   19.9495 C   0  0  0  0  0  0  0  0  0  0  0  0
    7.3040   -0.7929   20.9551 N   0  0  0  0  0  0  0  0  0  0  0  0
    6.9012   -1.1010   22.3203 C   0  0  0  0  0  0  0  0  0  0  0  0
    6.7801   -0.2153   22.9617 H   0  0  0  0  0  0  0  0  0  0  0  0
    5.9873   -1.7046   22.3944 H   0  0  0  0  0  0  0  0  0  0  0  0
    8.2436   -1.8588   22.4864 C   0  0  0  0  0  0  0  0  0  0  0  0
    8.1552   -2.9441   22.5702 H   0  0  0  0  0  0  0  0  0  0  0  0
    8.8907   -1.4787   23.2815 H   0  0  0  0  0  0  0  0  0  0  0  0
    8.6417   -1.3592   21.0817 C   0  0  2  0  0  0  0  0  0  0  0  0
    8.8236   -2.1545   20.3447 H   0  0  0  0  0  0  0  0  0  0  0  0
    9.8512   -0.4103   20.9818 C   0  0  0  0  0  0  0  0  0  0  0  0
   10.7378   -0.9880   21.2710 H   0  0  0  0  0  0  0  0  0  0  0  0
    9.9514   -0.2054   19.9157 H   0  0  0  0  0  0  0  0  0  0  0  0
    9.7650    0.8711   21.7824 C   0  0  0  0  0  0  0  0  0  0  0  0
   10.2791    0.9691   23.0856 C   0  0  0  0  0  0  0  0  0  0  0  0
   10.7823    0.1169   23.5365 H   0  0  0  0  0  0  0  0  0  0  0  0
   10.1242    2.1358   23.8370 C   0  0  0  0  0  0  0  0  0  0  0  0
   10.5037    2.1697   24.8530 H   0  0  0  0  0  0  0  0  0  0  0  0
    9.4555    3.2413   23.2863 C   0  0  0  0  0  0  0  0  0  0  0  0
    9.3301    4.5345   24.0608 C   0  0  0  0  0  0  0  0  0  0  0  0
    8.2312    5.2359   23.7226 F   0  0  0  0  0  0  0  0  0  0  0  0
   10.3836    5.3479   23.8481 F   0  0  0  0  0  0  0  0  0  0  0  0
    9.2649    4.3340   25.3920 F   0  0  0  0  0  0  0  0  0  0  0  0
    8.9438    3.1545   21.9844 C   0  0  0  0  0  0  0  0  0  0  0  0
    8.4271    3.9962   21.5340 H   0  0  0  0  0  0  0  0  0  0  0  0
    9.0865    1.9787   21.2531 C   0  0  0  0  0  0  0  0  0  0  0  0
    8.6198    1.9039   20.2790 H   0  0  0  0  0  0  0  0  0  0  0  0
    5.4696    0.6044   20.1898 C   0  0  0  0  0  0  0  0  0  0  0  0
    5.0392    0.6048   21.1925 H   0  0  0  0  0  0  0  0  0  0  0  0
    4.8437    1.2780   19.1377 C   0  0  0  0  0  0  0  0  0  0  0  0
    3.9073    1.8148   19.2914 H   0  0  0  0  0  0  0  0  0  0  0  0
  1  2  1  0
  2  3  2  0
  3  4  1  0
  4  5  1  0
  4  6  2  0
  6  7  1  0
  7  8  1  0
  8  9  1  0
  8 10  1  0
  8 11  1  0
 11 12  1  0
 11 13  1  0
 11 14  1  0
 14 15  1  6
 14 16  1  0
 16 17  1  0
 16 18  1  0
 16 19  1  0
 19 20  2  0
 20 21  1  0
 20 22  1  0
 22 23  1  0
 22 24  2  0
 24 25  1  0
 25 26  1  0
 25 27  1  0
 25 28  1  0
 24 29  1  0
 29 30  1  0
 29 31  2  0
 31 32  1  0
  6 33  1  0
 33 34  1  0
 33 35  2  0
 35 36  1  0
 35  2  1  0
 14  7  1  0
 31 19  1  0
M  END
>  <cnnaffinity>  (1) 
-5.01648

>  <filename>  (1) 
FC(F)(F)c1ccc(C[C@H]2CCN2c2cccnc2)cc1

$$$$
