
     RDKit          3D

 32 34  0  0  0  0  0  0  0  0999 V2000
   10.4700   -1.3244   21.8596 H   0  0  0  0  0  0  0  0  0  0  0  0
    9.3879   -1.3269   21.8914 C   0  0  0  0  0  0  0  0  0  0  0  0
    8.7587   -0.6985   20.8999 N   0  0  0  0  0  0  0  0  0  0  0  0
    7.4237   -0.7036   20.9583 C   0  0  0  0  0  0  0  0  0  0  0  0
    6.6757    0.0133   19.9112 C   0  0  0  0  0  0  0  0  0  0  0  0
    7.1862    0.0625   18.6079 C   0  0  0  0  0  0  0  0  0  0  0  0
    8.1278   -0.4274   18.3736 H   0  0  0  0  0  0  0  0  0  0  0  0
    6.5686    0.6685   17.5898 N   0  0  0  0  0  0  0  0  0  0  0  0
    5.4060    1.2868   17.8486 C   0  0  0  0  0  0  0  0  0  0  0  0
    4.9177    1.7729   17.0055 H   0  0  0  0  0  0  0  0  0  0  0  0
    4.8111    1.3080   19.1147 C   0  0  0  0  0  0  0  0  0  0  0  0
    3.8768    1.8406   19.2647 H   0  0  0  0  0  0  0  0  0  0  0  0
    5.4467    0.6469   20.1624 C   0  0  0  0  0  0  0  0  0  0  0  0
    5.0052    0.6386   21.1619 H   0  0  0  0  0  0  0  0  0  0  0  0
    6.7450   -1.3764   21.9696 C   0  0  0  0  0  0  0  0  0  0  0  0
    5.6716   -1.4331   21.9631 H   0  0  0  0  0  0  0  0  0  0  0  0
    7.4962   -2.0157   22.9408 C   0  0  0  0  0  0  0  0  0  0  0  0
    6.8208   -2.7471   24.0727 C   0  0  0  0  0  0  0  0  0  0  0  0
    5.8298   -2.0716   24.8077 C   0  0  0  0  0  0  0  0  0  0  0  0
    5.5662   -1.0506   24.5441 H   0  0  0  0  0  0  0  0  0  0  0  0
    5.1964   -2.6702   25.8955 C   0  0  0  0  0  0  0  0  0  0  0  0
    4.4401   -2.1250   26.4540 H   0  0  0  0  0  0  0  0  0  0  0  0
    5.5403   -3.9687   26.2718 C   0  0  0  0  0  0  0  0  0  0  0  0
    5.0633   -4.4377   27.1270 H   0  0  0  0  0  0  0  0  0  0  0  0
    6.5018   -4.6690   25.5464 C   0  0  0  0  0  0  0  0  0  0  0  0
    6.7639   -5.6801   25.8543 H   0  0  0  0  0  0  0  0  0  0  0  0
    7.1280   -4.0833   24.4335 C   0  0  0  0  0  0  0  0  0  0  0  0
    8.1576   -4.9006   23.6552 C   0  0  0  0  0  0  0  0  0  0  0  0
    8.0308   -4.7385   22.3205 F   0  0  0  0  0  0  0  0  0  0  0  0
    9.4149   -4.5550   23.9753 F   0  0  0  0  0  0  0  0  0  0  0  0
    8.0597   -6.2220   23.8872 F   0  0  0  0  0  0  0  0  0  0  0  0
    8.8344   -1.9876   22.9073 N   0  0  0  0  0  0  0  0  0  0  0  0
  1  2  1  0
  2  3  2  0
  3  4  1  0
  4  5  1  0
  5  6  2  0
  6  7  1  0
  6  8  1  0
  8  9  2  0
  9 10  1  0
  9 11  1  0
 11 12  1  0
 11 13  2  0
 13 14  1  0
  4 15  2  0
 15 16  1  0
 15 17  1  0
 17 18  1  0
 18 19  2  0
 19 20  1  0
 19 21  1  0
 21 22  1  0
 21 23  2  0
 23 24  1  0
 23 25  1  0
 25 26  1  0
 25 27  2  0
 27 28  1  0
 28 29  1  0
 28 30  1  0
 28 31  1  0
 17 32  2  0
 32  2  1  0
 13  5  1  0
 27 18  1  0
M  END
>  <cnnaffinity>  (1) 
-5.34879

>  <filename>  (1) 
FC(F)(F)c1ccccc1-c1cc(-c2cccnc2)ncn1

$$$$
