
     RDKit          3D

 33 36  0  0  0  0  0  0  0  0999 V2000
    4.9129    1.8121   16.9705 H   0  0  0  0  0  0  0  0  0  0  0  0
    5.3779    1.3054   17.8172 C   0  0  0  0  0  0  0  0  0  0  0  0
    6.5405    0.6854   17.5611 N   0  0  0  0  0  0  0  0  0  0  0  0
    7.1503    0.0767   18.5822 C   0  0  0  0  0  0  0  0  0  0  0  0
    8.1013   -0.3907   18.3356 H   0  0  0  0  0  0  0  0  0  0  0  0
    6.6589    0.0292   19.9086 C   0  0  0  0  0  0  0  0  0  0  0  0
    7.4105   -0.6712   20.9669 C   0  0  0  0  0  0  0  0  0  0  0  0
    8.3234   -1.6995   20.9082 C   0  0  0  0  0  0  0  0  0  0  0  0
    8.7311   -2.1103   20.0068 H   0  0  0  0  0  0  0  0  0  0  0  0
    8.7785   -2.1151   22.1287 N   0  0  0  0  0  0  0  0  0  0  0  0
    8.1699   -1.3016   22.9508 C   0  0  0  0  0  0  0  0  0  0  0  0
    8.2462   -0.9569   24.6356 S   0  0  0  0  0  0  0  0  0  0  0  0
    7.1276    0.3785   24.3203 C   0  0  0  0  0  0  0  0  0  0  0  0
    6.6730    1.2675   25.3973 C   0  0  0  0  0  0  0  0  0  0  0  0
    7.1232    1.0822   26.7154 C   0  0  0  0  0  0  0  0  0  0  0  0
    7.8145    0.2742   26.9572 H   0  0  0  0  0  0  0  0  0  0  0  0
    6.6831    1.9358   27.7210 C   0  0  0  0  0  0  0  0  0  0  0  0
    7.0418    1.7799   28.7336 H   0  0  0  0  0  0  0  0  0  0  0  0
    5.7916    2.9729   27.4294 C   0  0  0  0  0  0  0  0  0  0  0  0
    5.4554    3.6244   28.2299 H   0  0  0  0  0  0  0  0  0  0  0  0
    5.3317    3.1612   26.1161 C   0  0  0  0  0  0  0  0  0  0  0  0
    4.4033    4.3122   25.7883 C   0  0  0  0  0  0  0  0  0  0  0  0
    3.5718    4.0102   24.7725 F   0  0  0  0  0  0  0  0  0  0  0  0
    5.0889    5.4137   25.4233 F   0  0  0  0  0  0  0  0  0  0  0  0
    3.6374    4.6592   26.8406 F   0  0  0  0  0  0  0  0  0  0  0  0
    5.7794    2.3117   25.0969 C   0  0  0  0  0  0  0  0  0  0  0  0
    5.4560    2.4325   24.0638 H   0  0  0  0  0  0  0  0  0  0  0  0
    6.7454    0.5272   23.0900 N   0  0  0  0  0  0  0  0  0  0  0  0
    7.3300   -0.4225   22.3335 N   0  0  0  0  0  0  0  0  0  0  0  0
    5.4283    0.6673   20.1462 C   0  0  0  0  0  0  0  0  0  0  0  0
    5.0169    0.6544   21.1538 H   0  0  0  0  0  0  0  0  0  0  0  0
    4.7887    1.3158   19.0854 C   0  0  0  0  0  0  0  0  0  0  0  0
    3.8578    1.8501   19.2302 H   0  0  0  0  0  0  0  0  0  0  0  0
  1  2  1  0
  2  3  2  0
  3  4  1  0
  4  5  1  0
  4  6  2  0
  6  7  1  0
  7  8  2  0
  8  9  1  0
  8 10  1  0
 10 11  2  0
 11 12  1  0
 12 13  1  0
 13 14  1  0
 14 15  2  0
 15 16  1  0
 15 17  1  0
 17 18  1  0
 17 19  2  0
 19 20  1  0
 19 21  1  0
 21 22  1  0
 22 23  1  0
 22 24  1  0
 22 25  1  0
 21 26  2  0
 26 27  1  0
 13 28  2  0
 28 29  1  0
  6 30  1  0
 30 31  1  0
 30 32  2  0
 32 33  1  0
 32  2  1  0
 29  7  1  0
 29 11  1  0
 26 14  1  0
M  END
>  <cnnaffinity>  (1) 
-5.34847

>  <filename>  (1) 
FC(F)(F)c1cccc(-c2nn3c(-c4cccnc4)cnc3s2)c1

$$$$
