
     RDKit          3D

 35 37  0  0  0  0  0  0  0  0999 V2000
    4.9299    1.7953   16.9957 H   0  0  0  0  0  0  0  0  0  0  0  0
    5.3967    1.2904   17.8376 C   0  0  0  0  0  0  0  0  0  0  0  0
    6.5520    0.6616   17.5718 N   0  0  0  0  0  0  0  0  0  0  0  0
    7.1707    0.0453   18.5835 C   0  0  0  0  0  0  0  0  0  0  0  0
    8.1258   -0.4292   18.3626 H   0  0  0  0  0  0  0  0  0  0  0  0
    6.6524    0.0002   19.8935 C   0  0  0  0  0  0  0  0  0  0  0  0
    7.3365   -0.6792   20.9425 N   0  0  0  0  0  0  0  0  0  0  0  0
    6.7391   -1.6063   21.7895 C   0  0  0  0  0  0  0  0  0  0  0  0
    5.6849   -1.8146   21.7205 H   0  0  0  0  0  0  0  0  0  0  0  0
    7.6810   -2.0613   22.6521 C   0  0  0  0  0  0  0  0  0  0  0  0
    7.5413   -2.9195   23.8684 C   0  0  0  0  0  0  0  0  0  0  0  0
    6.7568   -3.6603   23.6831 H   0  0  0  0  0  0  0  0  0  0  0  0
    8.4607   -3.4896   24.0566 H   0  0  0  0  0  0  0  0  0  0  0  0
    7.1719   -2.0890   25.0906 C   0  0  0  0  0  0  0  0  0  0  0  0
    5.8325   -1.7581   25.3491 C   0  0  0  0  0  0  0  0  0  0  0  0
    5.0492   -2.1419   24.6985 H   0  0  0  0  0  0  0  0  0  0  0  0
    5.4889   -0.9299   26.4180 C   0  0  0  0  0  0  0  0  0  0  0  0
    4.4409   -0.6952   26.5968 H   0  0  0  0  0  0  0  0  0  0  0  0
    6.4936   -0.4103   27.2532 C   0  0  0  0  0  0  0  0  0  0  0  0
    6.1214    0.4222   28.4598 C   0  0  0  0  0  0  0  0  0  0  0  0
    4.9888    1.1253   28.2620 F   0  0  0  0  0  0  0  0  0  0  0  0
    5.9128   -0.3459   29.5470 F   0  0  0  0  0  0  0  0  0  0  0  0
    7.0842    1.3058   28.7855 F   0  0  0  0  0  0  0  0  0  0  0  0
    7.8396   -0.7227   26.9954 C   0  0  0  0  0  0  0  0  0  0  0  0
    8.6337   -0.3272   27.6273 H   0  0  0  0  0  0  0  0  0  0  0  0
    8.1666   -1.5491   25.9174 C   0  0  0  0  0  0  0  0  0  0  0  0
    9.2110   -1.7662   25.7014 H   0  0  0  0  0  0  0  0  0  0  0  0
    8.8400   -1.3908   22.3120 N   0  0  0  0  0  0  0  0  0  0  0  0
    9.7526   -1.3910   22.7429 H   0  0  0  0  0  0  0  0  0  0  0  0
    8.6532   -0.5037   21.3071 C   0  0  0  0  0  0  0  0  0  0  0  0
    9.8253    0.5412   20.7689 S   0  0  0  0  0  0  0  0  0  0  0  0
    5.4418    0.6430   20.1595 C   0  0  0  0  0  0  0  0  0  0  0  0
    5.0353    0.6285   21.1719 H   0  0  0  0  0  0  0  0  0  0  0  0
    4.8103    1.3079   19.1069 C   0  0  0  0  0  0  0  0  0  0  0  0
    3.8818    1.8380   19.2620 H   0  0  0  0  0  0  0  0  0  0  0  0
  1  2  1  0
  2  3  2  0
  3  4  1  0
  4  5  1  0
  4  6  2  0
  6  7  1  0
  7  8  1  0
  8  9  1  0
  8 10  2  0
 10 11  1  0
 11 12  1  0
 11 13  1  0
 11 14  1  0
 14 15  2  0
 15 16  1  0
 15 17  1  0
 17 18  1  0
 17 19  2  0
 19 20  1  0
 20 21  1  0
 20 22  1  0
 20 23  1  0
 19 24  1  0
 24 25  1  0
 24 26  2  0
 26 27  1  0
 10 28  1  0
 28 29  1  0
 28 30  1  0
 30 31  2  0
  6 32  1  0
 32 33  1  0
 32 34  2  0
 34 35  1  0
 34  2  1  0
 30  7  1  0
 26 14  1  0
M  END
>  <cnnaffinity>  (1) 
-5.4874

>  <filename>  (1) 
FC(F)(F)c1ccc(Cc2cn(-c3cccnc3)c(=S)[nH]2)cc1

$$$$
