
     RDKit          3D

 32 34  0  0  0  0  0  0  0  0999 V2000
    4.9136    1.7988   16.9781 H   0  0  0  0  0  0  0  0  0  0  0  0
    5.3884    1.3053   17.8203 C   0  0  0  0  0  0  0  0  0  0  0  0
    6.5476    0.6856   17.5462 N   0  0  0  0  0  0  0  0  0  0  0  0
    7.1555    0.0757   18.5697 C   0  0  0  0  0  0  0  0  0  0  0  0
    8.0997   -0.4189   18.3499 H   0  0  0  0  0  0  0  0  0  0  0  0
    6.6503    0.0181   19.8838 C   0  0  0  0  0  0  0  0  0  0  0  0
    7.3672   -0.7002   20.9626 C   0  0  0  0  0  0  0  0  0  0  0  0
    8.7601   -0.6015   21.1633 C   0  0  0  0  0  0  0  0  0  0  0  0
    9.3694    0.0312   20.5301 H   0  0  0  0  0  0  0  0  0  0  0  0
    9.4092   -1.2308   22.1465 N   0  0  0  0  0  0  0  0  0  0  0  0
    8.7288   -2.0016   23.0067 N   0  0  0  0  0  0  0  0  0  0  0  0
    7.4097   -2.1742   22.8538 C   0  0  0  0  0  0  0  0  0  0  0  0
    6.7193   -3.0781   23.8460 C   0  0  0  0  0  0  0  0  0  0  0  0
    6.7280   -2.6911   25.1943 C   0  0  0  0  0  0  0  0  0  0  0  0
    7.2833   -1.7981   25.4718 H   0  0  0  0  0  0  0  0  0  0  0  0
    6.0307   -3.4300   26.1542 C   0  0  0  0  0  0  0  0  0  0  0  0
    6.0588   -3.1229   27.1955 H   0  0  0  0  0  0  0  0  0  0  0  0
    5.3177   -4.5694   25.7768 C   0  0  0  0  0  0  0  0  0  0  0  0
    4.7826   -5.1588   26.5192 H   0  0  0  0  0  0  0  0  0  0  0  0
    5.3096   -4.9732   24.4399 C   0  0  0  0  0  0  0  0  0  0  0  0
    4.7580   -5.8673   24.1515 H   0  0  0  0  0  0  0  0  0  0  0  0
    6.0287   -4.2548   23.4682 C   0  0  0  0  0  0  0  0  0  0  0  0
    6.0010   -4.7516   22.0197 C   0  0  0  0  0  0  0  0  0  0  0  0
    5.6983   -6.0592   21.9245 F   0  0  0  0  0  0  0  0  0  0  0  0
    7.1692   -4.5665   21.3800 F   0  0  0  0  0  0  0  0  0  0  0  0
    5.0658   -4.0834   21.3084 F   0  0  0  0  0  0  0  0  0  0  0  0
    6.6817   -1.5137   21.8490 C   0  0  0  0  0  0  0  0  0  0  0  0
    5.6105   -1.6714   21.7559 H   0  0  0  0  0  0  0  0  0  0  0  0
    5.4288    0.6548   20.1405 C   0  0  0  0  0  0  0  0  0  0  0  0
    5.0228    0.6359   21.1572 H   0  0  0  0  0  0  0  0  0  0  0  0
    4.7973    1.3225   19.0903 C   0  0  0  0  0  0  0  0  0  0  0  0
    3.8670    1.8500   19.2449 H   0  0  0  0  0  0  0  0  0  0  0  0
  1  2  1  0
  2  3  2  0
  3  4  1  0
  4  5  1  0
  4  6  2  0
  6  7  1  0
  7  8  2  0
  8  9  1  0
  8 10  1  0
 10 11  2  0
 11 12  1  0
 12 13  1  0
 13 14  2  0
 14 15  1  0
 14 16  1  0
 16 17  1  0
 16 18  2  0
 18 19  1  0
 18 20  1  0
 20 21  1  0
 20 22  2  0
 22 23  1  0
 23 24  1  0
 23 25  1  0
 23 26  1  0
 12 27  2  0
 27 28  1  0
  6 29  1  0
 29 30  1  0
 29 31  2  0
 31 32  1  0
 31  2  1  0
 27  7  1  0
 22 13  1  0
M  END
>  <cnnaffinity>  (1) 
-5.55348

>  <filename>  (1) 
FC(F)(F)c1ccccc1-c1cc(-c2cccnc2)cnn1

$$$$
