
     RDKit          3D

 31 33  0  0  0  0  0  0  0  0999 V2000
   10.4287    1.2316   26.0481 H   0  0  0  0  0  0  0  0  0  0  0  0
    9.5753    1.6492   25.5116 C   0  0  0  0  0  0  0  0  0  0  0  0
    9.0808    0.9143   24.5226 N   0  0  0  0  0  0  0  0  0  0  0  0
    8.0415    1.4516   23.8942 C   0  0  0  0  0  0  0  0  0  0  0  0
    7.4830    0.8143   22.8369 N   0  0  0  0  0  0  0  0  0  0  0  0
    6.7950    1.4627   22.5043 H   0  0  0  0  0  0  0  0  0  0  0  0
    7.7176   -0.4226   22.1980 C   0  0  0  0  0  0  0  0  0  0  0  0
    8.3302   -1.6079   22.6972 C   0  0  0  0  0  0  0  0  0  0  0  0
    8.7360   -1.7267   23.6888 H   0  0  0  0  0  0  0  0  0  0  0  0
    8.3422   -2.5862   21.7989 N   0  0  0  0  0  0  0  0  0  0  0  0
    7.7521   -2.0348   20.7231 N   0  0  0  0  0  0  0  0  0  0  0  0
    7.5742   -2.5840   19.8924 H   0  0  0  0  0  0  0  0  0  0  0  0
    7.3478   -0.7458   20.8991 C   0  0  0  0  0  0  0  0  0  0  0  0
    6.6676    0.0240   19.8305 C   0  0  0  0  0  0  0  0  0  0  0  0
    7.1725    0.1113   18.5136 C   0  0  0  0  0  0  0  0  0  0  0  0
    8.1201   -0.3625   18.2592 H   0  0  0  0  0  0  0  0  0  0  0  0
    6.5637    0.7552   17.5091 N   0  0  0  0  0  0  0  0  0  0  0  0
    5.3958    1.3624   17.7797 C   0  0  0  0  0  0  0  0  0  0  0  0
    4.9221    1.8737   16.9424 H   0  0  0  0  0  0  0  0  0  0  0  0
    4.8047    1.3569   19.0471 C   0  0  0  0  0  0  0  0  0  0  0  0
    3.8627    1.8722   19.2056 H   0  0  0  0  0  0  0  0  0  0  0  0
    5.4617    0.6939   20.0888 C   0  0  0  0  0  0  0  0  0  0  0  0
    5.0422    0.6696   21.0941 H   0  0  0  0  0  0  0  0  0  0  0  0
    7.4131    2.6030   24.1754 N   0  0  0  0  0  0  0  0  0  0  0  0
    7.8910    3.2940   25.2256 C   0  0  0  0  0  0  0  0  0  0  0  0
    7.1913    4.5609   25.8470 C   0  0  0  0  0  0  0  0  0  0  0  0
    6.1140    4.9663   25.1817 F   0  0  0  0  0  0  0  0  0  0  0  0
    6.8188    4.3185   27.1266 F   0  0  0  0  0  0  0  0  0  0  0  0
    8.0479    5.6045   25.9341 F   0  0  0  0  0  0  0  0  0  0  0  0
    9.0413    2.8726   25.8894 C   0  0  0  0  0  0  0  0  0  0  0  0
    9.4434    3.4861   26.6772 H   0  0  0  0  0  0  0  0  0  0  0  0
  1  2  1  0
  2  3  2  0
  3  4  1  0
  4  5  1  0
  5  6  1  0
  5  7  1  0
  7  8  1  0
  8  9  1  0
  8 10  2  0
 10 11  1  0
 11 12  1  0
 11 13  1  0
 13 14  1  0
 14 15  2  0
 15 16  1  0
 15 17  1  0
 17 18  2  0
 18 19  1  0
 18 20  1  0
 20 21  1  0
 20 22  2  0
 22 23  1  0
  4 24  2  0
 24 25  1  0
 25 26  1  0
 26 27  1  0
 26 28  1  0
 26 29  1  0
 25 30  2  0
 30 31  1  0
 30  2  1  0
 13  7  2  0
 22 14  1  0
M  END
>  <cnnaffinity>  (1) 
-5.68611

>  <filename>  (1) 
FC(F)(F)c1ccnc(Nc2cn[nH]c2-c2cccnc2)n1

$$$$
