
     RDKit          3D

 31 33  0  0  0  0  0  0  0  0999 V2000
    9.4143   -2.4991   23.6764 H   0  0  0  0  0  0  0  0  0  0  0  0
    8.8554   -1.9548   22.9270 C   0  0  0  0  0  0  0  0  0  0  0  0
    7.5249   -2.1482   22.9184 N   0  0  0  0  0  0  0  0  0  0  0  0
    6.8426   -1.4727   21.9803 C   0  0  0  0  0  0  0  0  0  0  0  0
    5.7756   -1.6559   21.9305 H   0  0  0  0  0  0  0  0  0  0  0  0
    7.4780   -0.6179   21.0404 C   0  0  0  0  0  0  0  0  0  0  0  0
    6.7505    0.0641   19.9528 C   0  0  0  0  0  0  0  0  0  0  0  0
    7.2999    0.0908   18.6570 C   0  0  0  0  0  0  0  0  0  0  0  0
    8.2535   -0.3954   18.4508 H   0  0  0  0  0  0  0  0  0  0  0  0
    6.6861    0.6553   17.6132 N   0  0  0  0  0  0  0  0  0  0  0  0
    5.5047    1.2537   17.8385 C   0  0  0  0  0  0  0  0  0  0  0  0
    5.0385    1.7202   16.9753 H   0  0  0  0  0  0  0  0  0  0  0  0
    4.8782    1.2865   19.0889 C   0  0  0  0  0  0  0  0  0  0  0  0
    3.9266    1.7944   19.2039 H   0  0  0  0  0  0  0  0  0  0  0  0
    5.5056    0.6682   20.1688 C   0  0  0  0  0  0  0  0  0  0  0  0
    5.0539    0.6681   21.1627 H   0  0  0  0  0  0  0  0  0  0  0  0
    8.8161   -0.4398   21.0637 N   0  0  0  0  0  0  0  0  0  0  0  0
    9.5011   -1.0963   22.0203 C   0  0  0  0  0  0  0  0  0  0  0  0
   11.0073   -1.0915   22.0286 C   0  0  0  0  0  0  0  0  0  0  0  0
   11.5514   -1.9152   21.1404 N   0  0  0  0  0  0  0  0  0  0  0  0
   12.8794   -1.9352   20.9856 C   0  0  0  0  0  0  0  0  0  0  0  0
   13.2680   -2.5983   20.2146 H   0  0  0  0  0  0  0  0  0  0  0  0
   13.7400   -1.1653   21.7618 C   0  0  0  0  0  0  0  0  0  0  0  0
   14.8037   -1.2573   21.6060 H   0  0  0  0  0  0  0  0  0  0  0  0
   13.2068   -0.3620   22.7601 C   0  0  0  0  0  0  0  0  0  0  0  0
   13.8479    0.2527   23.3963 H   0  0  0  0  0  0  0  0  0  0  0  0
   11.8156   -0.3776   22.9422 C   0  0  0  0  0  0  0  0  0  0  0  0
   11.1875    0.2342   24.1528 C   0  0  0  0  0  0  0  0  0  0  0  0
   10.2223    1.1059   23.8294 F   0  0  0  0  0  0  0  0  0  0  0  0
   10.5949   -0.7138   24.9184 F   0  0  0  0  0  0  0  0  0  0  0  0
   12.0879    0.8597   24.9296 F   0  0  0  0  0  0  0  0  0  0  0  0
  1  2  1  0
  2  3  2  0
  3  4  1  0
  4  5  1  0
  4  6  2  0
  6  7  1  0
  7  8  2  0
  8  9  1  0
  8 10  1  0
 10 11  2  0
 11 12  1  0
 11 13  1  0
 13 14  1  0
 13 15  2  0
 15 16  1  0
  6 17  1  0
 17 18  2  0
 18 19  1  0
 19 20  2  0
 20 21  1  0
 21 22  1  0
 21 23  2  0
 23 24  1  0
 23 25  1  0
 25 26  1  0
 25 27  2  0
 27 28  1  0
 28 29  1  0
 28 30  1  0
 28 31  1  0
 18  2  1  0
 27 19  1  0
 15  7  1  0
M  END
>  <cnnaffinity>  (1) 
-6.31531

>  <filename>  (1) 
FC(F)(F)c1cccnc1-c1cncc(-c2cccnc2)n1

$$$$
