
     RDKit          3D

 31 33  0  0  0  0  0  0  0  0999 V2000
    4.9938    1.8321   16.9240 H   0  0  0  0  0  0  0  0  0  0  0  0
    5.4558    1.3135   17.7628 C   0  0  0  0  0  0  0  0  0  0  0  0
    6.6073    0.6731   17.5058 N   0  0  0  0  0  0  0  0  0  0  0  0
    7.2058    0.0471   18.5262 C   0  0  0  0  0  0  0  0  0  0  0  0
    8.1238   -0.4795   18.2696 H   0  0  0  0  0  0  0  0  0  0  0  0
    6.7079    0.0165   19.8439 C   0  0  0  0  0  0  0  0  0  0  0  0
    7.3926   -0.6884   20.9355 C   0  0  0  0  0  0  0  0  0  0  0  0
    6.8939   -1.2632   22.0515 C   0  0  0  0  0  0  0  0  0  0  0  0
    5.8780   -1.4496   22.3500 H   0  0  0  0  0  0  0  0  0  0  0  0
    7.9500   -1.7665   22.8072 N   0  0  0  0  0  0  0  0  0  0  0  0
    7.7467   -2.4317   24.0582 C   0  0  0  0  0  0  0  0  0  0  0  0
    6.8362   -1.9224   25.0133 C   0  0  0  0  0  0  0  0  0  0  0  0
    6.3756   -0.9428   24.8808 H   0  0  0  0  0  0  0  0  0  0  0  0
    6.4938   -2.5874   26.1212 N   0  0  0  0  0  0  0  0  0  0  0  0
    7.0402   -3.7971   26.3451 C   0  0  0  0  0  0  0  0  0  0  0  0
    6.6842   -4.6169   27.6055 C   0  0  0  0  0  0  0  0  0  0  0  0
    7.7903   -4.8170   28.3561 F   0  0  0  0  0  0  0  0  0  0  0  0
    5.7567   -4.0705   28.3917 F   0  0  0  0  0  0  0  0  0  0  0  0
    6.2559   -5.8549   27.2714 F   0  0  0  0  0  0  0  0  0  0  0  0
    7.9902   -4.3550   25.4704 C   0  0  0  0  0  0  0  0  0  0  0  0
    8.4381   -5.3137   25.7122 H   0  0  0  0  0  0  0  0  0  0  0  0
    8.3615   -3.6610   24.3209 C   0  0  0  0  0  0  0  0  0  0  0  0
    9.1141   -4.0524   23.6365 H   0  0  0  0  0  0  0  0  0  0  0  0
    9.1335   -1.5744   22.1190 C   0  0  0  0  0  0  0  0  0  0  0  0
   10.7000   -2.0243   22.4551 S   0  0  0  0  0  0  0  0  0  0  0  0
    8.7610   -0.8992   21.0003 N   0  0  0  0  0  0  0  0  0  0  0  0
    9.4793   -0.6022   20.3613 H   0  0  0  0  0  0  0  0  0  0  0  0
    5.4872    0.6752   20.0796 C   0  0  0  0  0  0  0  0  0  0  0  0
    5.0590    0.6875   21.0829 H   0  0  0  0  0  0  0  0  0  0  0  0
    4.8529    1.3303   19.0247 C   0  0  0  0  0  0  0  0  0  0  0  0
    3.9168    1.8587   19.1625 H   0  0  0  0  0  0  0  0  0  0  0  0
  1  2  1  0
  2  3  2  0
  3  4  1  0
  4  5  1  0
  4  6  2  0
  6  7  1  0
  7  8  2  0
  8  9  1  0
  8 10  1  0
 10 11  1  0
 11 12  2  0
 12 13  1  0
 12 14  1  0
 14 15  2  0
 15 16  1  0
 16 17  1  0
 16 18  1  0
 16 19  1  0
 15 20  1  0
 20 21  1  0
 20 22  2  0
 22 23  1  0
 10 24  1  0
 24 25  2  0
 24 26  1  0
 26 27  1  0
  6 28  1  0
 28 29  1  0
 28 30  2  0
 30 31  1  0
 30  2  1  0
 26  7  1  0
 22 11  1  0
M  END
>  <cnnaffinity>  (1) 
-5.66112

>  <filename>  (1) 
FC(F)(F)c1ccc(-n2cc(-c3cccnc3)[nH]c2=S)cn1

$$$$
