
     RDKit          3D

 29 31  0  0  0  0  0  0  0  0999 V2000
    4.9081    1.9222   16.7418 H   0  0  0  0  0  0  0  0  0  0  0  0
    5.3539    1.4173   17.5958 C   0  0  0  0  0  0  0  0  0  0  0  0
    6.5137    0.7814   17.3649 N   0  0  0  0  0  0  0  0  0  0  0  0
    7.0957    0.1651   18.3923 C   0  0  0  0  0  0  0  0  0  0  0  0
    8.0378   -0.3268   18.1503 H   0  0  0  0  0  0  0  0  0  0  0  0
    6.5670    0.1403   19.6874 C   0  0  0  0  0  0  0  0  0  0  0  0
    7.2404   -0.5782   20.7679 C   0  0  0  0  0  0  0  0  0  0  0  0
    6.9688   -0.4911   22.0495 N   0  0  0  0  0  0  0  0  0  0  0  0
    7.7848   -1.3997   22.6386 C   0  0  0  0  0  0  0  0  0  0  0  0
    7.8351   -1.6700   24.1381 C   0  0  0  0  0  0  0  0  0  0  0  0
    6.7780   -1.2474   24.8519 N   0  0  0  0  0  0  0  0  0  0  0  0
    6.7880   -1.3112   26.1798 C   0  0  0  0  0  0  0  0  0  0  0  0
    5.8939   -0.9408   26.6756 H   0  0  0  0  0  0  0  0  0  0  0  0
    7.8772   -1.7962   26.8995 C   0  0  0  0  0  0  0  0  0  0  0  0
    7.8516   -1.7902   27.9735 H   0  0  0  0  0  0  0  0  0  0  0  0
    8.9461   -2.3255   26.1990 C   0  0  0  0  0  0  0  0  0  0  0  0
    9.7649   -2.7912   26.7397 H   0  0  0  0  0  0  0  0  0  0  0  0
    8.9116   -2.3223   24.7985 C   0  0  0  0  0  0  0  0  0  0  0  0
    9.9768   -3.0741   24.0459 C   0  0  0  0  0  0  0  0  0  0  0  0
    9.4487   -4.0070   23.2398 F   0  0  0  0  0  0  0  0  0  0  0  0
   10.8268   -3.7205   24.8740 F   0  0  0  0  0  0  0  0  0  0  0  0
   10.7343   -2.2423   23.3197 F   0  0  0  0  0  0  0  0  0  0  0  0
    8.5655   -2.0538   21.7638 N   0  0  0  0  0  0  0  0  0  0  0  0
    8.1961   -1.5044   20.5974 N   0  0  0  0  0  0  0  0  0  0  0  0
    8.5856   -1.8077   19.7218 H   0  0  0  0  0  0  0  0  0  0  0  0
    5.3490    0.8004   19.9187 C   0  0  0  0  0  0  0  0  0  0  0  0
    4.9163    0.7925   20.9218 H   0  0  0  0  0  0  0  0  0  0  0  0
    4.7319    1.4421   18.8492 C   0  0  0  0  0  0  0  0  0  0  0  0
    3.7912    1.9681   18.9690 H   0  0  0  0  0  0  0  0  0  0  0  0
  1  2  1  0
  2  3  2  0
  3  4  1  0
  4  5  1  0
  4  6  2  0
  6  7  1  0
  7  8  2  0
  8  9  1  0
  9 10  1  0
 10 11  2  0
 11 12  1  0
 12 13  1  0
 12 14  2  0
 14 15  1  0
 14 16  1  0
 16 17  1  0
 16 18  2  0
 18 19  1  0
 19 20  1  0
 19 21  1  0
 19 22  1  0
  9 23  2  0
 23 24  1  0
 24 25  1  0
  6 26  1  0
 26 27  1  0
 26 28  2  0
 28 29  1  0
 28  2  1  0
 24  7  1  0
 18 10  1  0
M  END
>  <cnnaffinity>  (1) 
-5.37772

>  <filename>  (1) 
FC(F)(F)c1cccnc1-c1n[nH]c(-c2cccnc2)n1

$$$$
