
     RDKit          3D

 38 40  0  0  0  0  0  0  0  0999 V2000
    9.6740   -3.3644   27.2183 F   0  0  0  0  0  0  0  0  0  0  0  0
    8.6060   -3.8778   26.5807 C   0  0  0  0  0  0  0  0  0  0  0  0
    9.0913   -4.8507   25.7805 F   0  0  0  0  0  0  0  0  0  0  0  0
    7.8321   -4.4614   27.4991 F   0  0  0  0  0  0  0  0  0  0  0  0
    7.9038   -2.7695   25.7447 C   0  0  0  0  0  0  0  0  0  0  0  0
    8.6552   -2.0667   24.7915 C   0  0  0  0  0  0  0  0  0  0  0  0
    8.0333   -1.0649   24.0220 C   0  0  0  0  0  0  0  0  0  0  0  0
    8.7348   -0.3404   23.0854 N   0  0  0  0  0  0  0  0  0  0  0  0
   10.1630   -0.0864   23.1818 C   0  0  0  0  0  0  0  0  0  0  0  0
   10.4204    1.0729   22.2118 C   0  0  0  0  0  0  0  0  0  0  0  0
    9.2718    1.0095   21.2049 C   0  0  0  0  0  0  0  0  0  0  0  0
    8.1128    0.2977   21.9297 C   0  0  0  0  0  0  0  0  0  0  0  0
    7.3728   -0.7039   21.0076 C   0  0  0  0  0  0  0  0  0  0  0  0
    6.6423   -0.0121   19.8865 C   0  0  0  0  0  0  0  0  0  0  0  0
    5.4339    0.6481   20.1421 C   0  0  0  0  0  0  0  0  0  0  0  0
    4.7991    1.3159   19.0946 C   0  0  0  0  0  0  0  0  0  0  0  0
    5.3953    1.3010   17.8275 C   0  0  0  0  0  0  0  0  0  0  0  0
    6.5572    0.6893   17.5597 N   0  0  0  0  0  0  0  0  0  0  0  0
    7.1601    0.0623   18.5799 C   0  0  0  0  0  0  0  0  0  0  0  0
    8.1116   -0.4201   18.3550 H   0  0  0  0  0  0  0  0  0  0  0  0
    4.9125    1.7923   16.9866 H   0  0  0  0  0  0  0  0  0  0  0  0
    3.8703    1.8480   19.2504 H   0  0  0  0  0  0  0  0  0  0  0  0
    5.0167    0.6323   21.1560 H   0  0  0  0  0  0  0  0  0  0  0  0
    6.6655   -1.2880   21.6102 H   0  0  0  0  0  0  0  0  0  0  0  0
    8.1133   -1.4121   20.6152 H   0  0  0  0  0  0  0  0  0  0  0  0
    7.3901    1.0497   22.2823 H   0  0  0  0  0  0  0  0  0  0  0  0
    9.5615    0.4486   20.3098 H   0  0  0  0  0  0  0  0  0  0  0  0
    8.9778    1.9990   20.8502 H   0  0  0  0  0  0  0  0  0  0  0  0
   11.3944    0.9776   21.7292 H   0  0  0  0  0  0  0  0  0  0  0  0
   10.4205    2.0301   22.7405 H   0  0  0  0  0  0  0  0  0  0  0  0
   10.7469   -0.9779   22.9099 H   0  0  0  0  0  0  0  0  0  0  0  0
   10.4283    0.1797   24.2115 H   0  0  0  0  0  0  0  0  0  0  0  0
    6.6689   -0.8327   24.2623 C   0  0  0  0  0  0  0  0  0  0  0  0
    6.0244   -1.5750   25.2403 C   0  0  0  0  0  0  0  0  0  0  0  0
    6.6097   -2.5209   25.9722 N   0  0  0  0  0  0  0  0  0  0  0  0
    4.9747   -1.4212   25.4692 H   0  0  0  0  0  0  0  0  0  0  0  0
    6.1144   -0.0840   23.7186 H   0  0  0  0  0  0  0  0  0  0  0  0
    9.6974   -2.2941   24.6286 H   0  0  0  0  0  0  0  0  0  0  0  0
  1  2  1  0
  2  3  1  0
  2  4  1  0
  2  5  1  0
  5  6  2  0
  6  7  1  0
  7  8  1  0
  8  9  1  0
  9 10  1  0
 10 11  1  0
 11 12  1  0
 12 13  1  0
 13 14  1  0
 14 15  2  0
 15 16  1  0
 16 17  2  0
 17 18  1  0
 18 19  2  0
 19 20  1  0
 17 21  1  0
 16 22  1  0
 15 23  1  0
 13 24  1  0
 13 25  1  0
 12 26  1  0
 11 27  1  0
 11 28  1  0
 10 29  1  0
 10 30  1  0
  9 31  1  0
  9 32  1  0
  7 33  2  0
 33 34  1  0
 34 35  2  0
 34 36  1  0
 33 37  1  0
  6 38  1  0
 35  5  1  0
 12  8  1  0
 19 14  1  0
M  END
>  <cnnaffinity>  (1) 
-5.52315

>  <filename>  (1) 
FC(F)(F)c1cc(N2CCCC2Cc2cccnc2)ccn1

$$$$
