
     RDKit          3D

 32 35  0  0  0  0  0  0  0  0999 V2000
    4.9134    1.8115   16.9750 H   0  0  0  0  0  0  0  0  0  0  0  0
    5.3788    1.3038   17.8209 C   0  0  0  0  0  0  0  0  0  0  0  0
    6.5415    0.6836   17.5668 N   0  0  0  0  0  0  0  0  0  0  0  0
    7.1543    0.0766   18.5867 C   0  0  0  0  0  0  0  0  0  0  0  0
    8.1039   -0.3924   18.3364 H   0  0  0  0  0  0  0  0  0  0  0  0
    6.6649    0.0279   19.9138 C   0  0  0  0  0  0  0  0  0  0  0  0
    7.4203   -0.6747   20.9741 C   0  0  0  0  0  0  0  0  0  0  0  0
    8.3365   -1.6989   20.9192 C   0  0  0  0  0  0  0  0  0  0  0  0
    8.7427   -2.1144   20.0183 H   0  0  0  0  0  0  0  0  0  0  0  0
    8.7870   -2.1142   22.1423 N   0  0  0  0  0  0  0  0  0  0  0  0
    8.1706   -1.3034   22.9653 C   0  0  0  0  0  0  0  0  0  0  0  0
    8.2291   -0.9344   24.6548 S   0  0  0  0  0  0  0  0  0  0  0  0
    7.1180    0.3864   24.3110 C   0  0  0  0  0  0  0  0  0  0  0  0
    6.6617    1.2758   25.3977 C   0  0  0  0  0  0  0  0  0  0  0  0
    7.1461    1.0065   26.6275 N   0  0  0  0  0  0  0  0  0  0  0  0
    6.7632    1.7785   27.6439 C   0  0  0  0  0  0  0  0  0  0  0  0
    7.2909    1.4850   29.0674 C   0  0  0  0  0  0  0  0  0  0  0  0
    7.8669    2.5838   29.5936 F   0  0  0  0  0  0  0  0  0  0  0  0
    6.2689    1.1766   29.8936 F   0  0  0  0  0  0  0  0  0  0  0  0
    8.1828    0.5022   29.1499 F   0  0  0  0  0  0  0  0  0  0  0  0
    5.8750    2.8520   27.4703 C   0  0  0  0  0  0  0  0  0  0  0  0
    5.5965    3.4451   28.3291 H   0  0  0  0  0  0  0  0  0  0  0  0
    5.3726    3.1295   26.1951 C   0  0  0  0  0  0  0  0  0  0  0  0
    4.6827    3.9579   26.0432 H   0  0  0  0  0  0  0  0  0  0  0  0
    5.7711    2.3287   25.1259 C   0  0  0  0  0  0  0  0  0  0  0  0
    5.4296    2.4789   24.1037 H   0  0  0  0  0  0  0  0  0  0  0  0
    6.7399    0.5336   23.0789 N   0  0  0  0  0  0  0  0  0  0  0  0
    7.3300   -0.4277   22.3346 N   0  0  0  0  0  0  0  0  0  0  0  0
    5.4338    0.6687   20.1474 C   0  0  0  0  0  0  0  0  0  0  0  0
    5.0153    0.6604   21.1516 H   0  0  0  0  0  0  0  0  0  0  0  0
    4.7884    1.3150   19.0894 C   0  0  0  0  0  0  0  0  0  0  0  0
    3.8543    1.8498   19.2300 H   0  0  0  0  0  0  0  0  0  0  0  0
  1  2  1  0
  2  3  2  0
  3  4  1  0
  4  5  1  0
  4  6  2  0
  6  7  1  0
  7  8  2  0
  8  9  1  0
  8 10  1  0
 10 11  2  0
 11 12  1  0
 12 13  1  0
 13 14  1  0
 14 15  2  0
 15 16  1  0
 16 17  1  0
 17 18  1  0
 17 19  1  0
 17 20  1  0
 16 21  2  0
 21 22  1  0
 21 23  1  0
 23 24  1  0
 23 25  2  0
 25 26  1  0
 13 27  2  0
 27 28  1  0
  6 29  1  0
 29 30  1  0
 29 31  2  0
 31 32  1  0
 31  2  1  0
 28  7  1  0
 28 11  1  0
 25 14  1  0
M  END
>  <cnnaffinity>  (1) 
-5.22349

>  <filename>  (1) 
FC(F)(F)c1cccc(-c2nn3c(-c4cccnc4)cnc3s2)n1

$$$$
