
     RDKit          3D

 31 33  0  0  0  0  0  0  0  0999 V2000
    4.9704    1.8150   16.9614 H   0  0  0  0  0  0  0  0  0  0  0  0
    5.4286    1.3033   17.8042 C   0  0  0  0  0  0  0  0  0  0  0  0
    6.5893    0.6672   17.5601 N   0  0  0  0  0  0  0  0  0  0  0  0
    7.1755    0.0298   18.5760 C   0  0  0  0  0  0  0  0  0  0  0  0
    8.1101   -0.4905   18.3701 H   0  0  0  0  0  0  0  0  0  0  0  0
    6.6476    0.0087   19.8794 C   0  0  0  0  0  0  0  0  0  0  0  0
    7.3484   -0.6617   20.9189 N   0  0  0  0  0  0  0  0  0  0  0  0
    7.8679   -1.8929   20.7479 N   0  0  0  0  0  0  0  0  0  0  0  0
    8.4116   -2.2235   21.8599 N   0  0  0  0  0  0  0  0  0  0  0  0
    8.2783   -1.2407   22.7770 N   0  0  0  0  0  0  0  0  0  0  0  0
    7.6183   -0.2672   22.1939 C   0  0  0  0  0  0  0  0  0  0  0  0
    7.2204    1.0410   22.8073 C   0  0  0  0  0  0  0  0  0  0  0  0
    7.0521    1.7944   22.0362 H   0  0  0  0  0  0  0  0  0  0  0  0
    6.3019    0.8862   23.3792 H   0  0  0  0  0  0  0  0  0  0  0  0
    8.2967    1.4690   23.7581 C   0  0  0  0  0  0  0  0  0  0  0  0
    8.1212    1.1044   25.0262 N   0  0  0  0  0  0  0  0  0  0  0  0
    9.1474    1.2252   25.8695 C   0  0  0  0  0  0  0  0  0  0  0  0
    9.0007    0.8757   26.8860 H   0  0  0  0  0  0  0  0  0  0  0  0
   10.3649    1.7776   25.4964 C   0  0  0  0  0  0  0  0  0  0  0  0
   11.1357    1.8064   26.2300 H   0  0  0  0  0  0  0  0  0  0  0  0
   10.5365    2.2620   24.2076 C   0  0  0  0  0  0  0  0  0  0  0  0
   11.4612    2.7624   23.9179 H   0  0  0  0  0  0  0  0  0  0  0  0
    9.4727    2.0931   23.3203 C   0  0  0  0  0  0  0  0  0  0  0  0
    9.5739    2.5373   21.9003 C   0  0  0  0  0  0  0  0  0  0  0  0
    8.6584    3.4848   21.5999 F   0  0  0  0  0  0  0  0  0  0  0  0
    9.3548    1.5293   21.0285 F   0  0  0  0  0  0  0  0  0  0  0  0
   10.7956    3.0155   21.6223 F   0  0  0  0  0  0  0  0  0  0  0  0
    5.4295    0.6504   20.1246 C   0  0  0  0  0  0  0  0  0  0  0  0
    4.9844    0.6387   21.1200 H   0  0  0  0  0  0  0  0  0  0  0  0
    4.8128    1.3100   19.0593 C   0  0  0  0  0  0  0  0  0  0  0  0
    3.8783    1.8414   19.2027 H   0  0  0  0  0  0  0  0  0  0  0  0
  1  2  1  0
  2  3  2  0
  3  4  1  0
  4  5  1  0
  4  6  2  0
  6  7  1  0
  7  8  1  0
  8  9  2  0
  9 10  1  0
 10 11  2  0
 11 12  1  0
 12 13  1  0
 12 14  1  0
 12 15  1  0
 15 16  2  0
 16 17  1  0
 17 18  1  0
 17 19  2  0
 19 20  1  0
 19 21  1  0
 21 22  1  0
 21 23  2  0
 23 24  1  0
 24 25  1  0
 24 26  1  0
 24 27  1  0
  6 28  1  0
 28 29  1  0
 28 30  2  0
 30 31  1  0
 30  2  1  0
 11  7  1  0
 23 15  1  0
M  END
>  <cnnaffinity>  (1) 
-5.3252

>  <filename>  (1) 
FC(F)(F)c1cccnc1Cc1nnnn1-c1cccnc1

$$$$
