
     RDKit          3D

 21 22  0  0  0  0  0  0  0  0999 V2000
    4.9940    1.8285   17.0295 H   0  0  0  0  0  0  0  0  0  0  0  0
    5.4149    1.2908   17.8785 C   0  0  0  0  0  0  0  0  0  0  0  0
    6.5474    0.6085   17.6429 N   0  0  0  0  0  0  0  0  0  0  0  0
    7.0925   -0.0650   18.6582 C   0  0  0  0  0  0  0  0  0  0  0  0
    8.0132   -0.5981   18.4472 H   0  0  0  0  0  0  0  0  0  0  0  0
    6.5542   -0.0928   19.9644 C   0  0  0  0  0  0  0  0  0  0  0  0
    7.2061   -0.7933   21.0373 N   0  0  0  0  0  0  0  0  0  0  0  0
    8.3890   -0.4186   21.6591 C   0  0  0  0  0  0  0  0  0  0  0  0
    9.2527    0.6805   21.0809 C   0  0  0  0  0  0  0  0  0  0  0  0
    9.5426    0.3543   19.8024 F   0  0  0  0  0  0  0  0  0  0  0  0
    8.6235    1.8625   21.0316 F   0  0  0  0  0  0  0  0  0  0  0  0
   10.4027    0.8336   21.7296 F   0  0  0  0  0  0  0  0  0  0  0  0
    8.6717   -1.1832   22.6653 N   0  0  0  0  0  0  0  0  0  0  0  0
    7.6514   -2.0794   22.6812 N   0  0  0  0  0  0  0  0  0  0  0  0
    7.6986   -2.9333   23.2168 H   0  0  0  0  0  0  0  0  0  0  0  0
    6.7516   -1.9373   21.6839 C   0  0  0  0  0  0  0  0  0  0  0  0
    5.5128   -2.9656   21.3058 S   0  0  0  0  0  0  0  0  0  0  0  0
    5.3640    0.5942   20.1971 C   0  0  0  0  0  0  0  0  0  0  0  0
    4.9201    0.6028   21.1943 H   0  0  0  0  0  0  0  0  0  0  0  0
    4.7927    1.2967   19.1284 C   0  0  0  0  0  0  0  0  0  0  0  0
    3.8784    1.8585   19.2570 H   0  0  0  0  0  0  0  0  0  0  0  0
  1  2  1  0
  2  3  2  0
  3  4  1  0
  4  5  1  0
  4  6  2  0
  6  7  1  0
  7  8  1  0
  8  9  1  0
  9 10  1  0
  9 11  1  0
  9 12  1  0
  8 13  2  0
 13 14  1  0
 14 15  1  0
 14 16  1  0
 16 17  2  0
  6 18  1  0
 18 19  1  0
 18 20  2  0
 20 21  1  0
 20  2  1  0
 16  7  1  0
M  END
>  <cnnaffinity>  (1) 
-4.54786

>  <filename>  (1) 
FC(F)(F)c1n[nH]c(=S)n1-c1cccnc1

$$$$
