
     RDKit          3D

 32 33  0  0  0  0  0  0  0  0999 V2000
    4.9701    1.8339   16.9626 H   0  0  0  0  0  0  0  0  0  0  0  0
    5.4215    1.3215   17.8101 C   0  0  0  0  0  0  0  0  0  0  0  0
    6.5974    0.7155   17.5848 N   0  0  0  0  0  0  0  0  0  0  0  0
    7.1661    0.0879   18.6224 C   0  0  0  0  0  0  0  0  0  0  0  0
    8.1351   -0.3740   18.4267 H   0  0  0  0  0  0  0  0  0  0  0  0
    6.5937   -0.0065   19.8986 C   0  0  0  0  0  0  0  0  0  0  0  0
    7.3852   -0.7178   20.9622 C   0  0  0  0  0  0  0  0  0  0  0  0
    6.7307   -1.0877   21.7712 H   0  0  0  0  0  0  0  0  0  0  0  0
    7.8592   -1.6040   20.5161 H   0  0  0  0  0  0  0  0  0  0  0  0
    8.4576    0.1646   21.4253 N   0  0  0  0  0  0  0  0  0  0  0  0
    8.0295    1.0243   21.7639 H   0  0  0  0  0  0  0  0  0  0  0  0
    9.3196   -0.3924   22.4768 C   0  0  0  0  0  0  0  0  0  0  0  0
    9.8809   -1.2319   22.0449 H   0  0  0  0  0  0  0  0  0  0  0  0
   10.0827    0.3614   22.7064 H   0  0  0  0  0  0  0  0  0  0  0  0
    8.6187   -0.8446   23.7579 C   0  0  0  0  0  0  0  0  0  0  0  0
    8.2837    0.0672   24.7726 C   0  0  0  0  0  0  0  0  0  0  0  0
    8.6105    1.1023   24.6937 H   0  0  0  0  0  0  0  0  0  0  0  0
    7.5403   -0.3269   25.8874 C   0  0  0  0  0  0  0  0  0  0  0  0
    7.3453    0.3995   26.6744 H   0  0  0  0  0  0  0  0  0  0  0  0
    7.1050   -1.6552   26.0171 C   0  0  0  0  0  0  0  0  0  0  0  0
    6.1857   -2.0832   27.1496 C   0  0  0  0  0  0  0  0  0  0  0  0
    6.4938   -3.3193   27.5923 F   0  0  0  0  0  0  0  0  0  0  0  0
    6.2199   -1.2467   28.2046 F   0  0  0  0  0  0  0  0  0  0  0  0
    4.8984   -2.1375   26.7491 F   0  0  0  0  0  0  0  0  0  0  0  0
    7.4821   -2.5902   25.0363 C   0  0  0  0  0  0  0  0  0  0  0  0
    7.2421   -3.6422   25.1543 H   0  0  0  0  0  0  0  0  0  0  0  0
    8.2254   -2.1856   23.9248 C   0  0  0  0  0  0  0  0  0  0  0  0
    8.4914   -2.9236   23.1725 H   0  0  0  0  0  0  0  0  0  0  0  0
    5.3695    0.6404   20.1131 C   0  0  0  0  0  0  0  0  0  0  0  0
    4.8971    0.6526   21.0976 H   0  0  0  0  0  0  0  0  0  0  0  0
    4.7737    1.3179   19.0471 C   0  0  0  0  0  0  0  0  0  0  0  0
    3.8353    1.8520   19.1665 H   0  0  0  0  0  0  0  0  0  0  0  0
  1  2  1  0
  2  3  2  0
  3  4  1  0
  4  5  1  0
  4  6  2  0
  6  7  1  0
  7  8  1  0
  7  9  1  0
  7 10  1  0
 10 11  1  0
 10 12  1  0
 12 13  1  0
 12 14  1  0
 12 15  1  0
 15 16  2  0
 16 17  1  0
 16 18  1  0
 18 19  1  0
 18 20  2  0
 20 21  1  0
 21 22  1  0
 21 23  1  0
 21 24  1  0
 20 25  1  0
 25 26  1  0
 25 27  2  0
 27 28  1  0
  6 29  1  0
 29 30  1  0
 29 31  2  0
 31 32  1  0
 31  2  1  0
 27 15  1  0
M  END
>  <cnnaffinity>  (1) 
-4.27915

>  <filename>  (1) 
FC(F)(F)c1ccc(CNCc2cccnc2)cc1

$$$$
