
     RDKit          3D

 30 32  0  0  0  0  0  0  0  0999 V2000
    4.9333    1.7984   16.9914 H   0  0  0  0  0  0  0  0  0  0  0  0
    5.4059    1.2895   17.8271 C   0  0  0  0  0  0  0  0  0  0  0  0
    6.5667    0.6729   17.5604 N   0  0  0  0  0  0  0  0  0  0  0  0
    7.1885    0.0582   18.5704 C   0  0  0  0  0  0  0  0  0  0  0  0
    8.1368   -0.4143   18.3273 H   0  0  0  0  0  0  0  0  0  0  0  0
    6.6799    0.0061   19.8803 C   0  0  0  0  0  0  0  0  0  0  0  0
    7.4072   -0.7197   20.9333 C   0  0  0  0  0  0  0  0  0  0  0  0
    8.6308   -1.2141   20.7660 N   0  0  0  0  0  0  0  0  0  0  0  0
    8.9307   -1.8036   21.9319 N   0  0  0  0  0  0  0  0  0  0  0  0
    9.8197   -2.2906   22.0246 H   0  0  0  0  0  0  0  0  0  0  0  0
    7.9377   -1.6857   22.8669 C   0  0  0  0  0  0  0  0  0  0  0  0
    8.0253   -2.2787   24.2331 C   0  0  0  0  0  0  0  0  0  0  0  0
    8.5184   -3.5242   24.2724 N   0  0  0  0  0  0  0  0  0  0  0  0
    8.4705   -4.2060   25.4133 C   0  0  0  0  0  0  0  0  0  0  0  0
    8.8229   -5.2363   25.3513 H   0  0  0  0  0  0  0  0  0  0  0  0
    7.9898   -3.6654   26.6142 C   0  0  0  0  0  0  0  0  0  0  0  0
    7.9996   -4.2720   27.5128 H   0  0  0  0  0  0  0  0  0  0  0  0
    7.5546   -2.3460   26.6170 C   0  0  0  0  0  0  0  0  0  0  0  0
    7.1970   -1.8621   27.5302 H   0  0  0  0  0  0  0  0  0  0  0  0
    7.6056   -1.6349   25.4122 C   0  0  0  0  0  0  0  0  0  0  0  0
    7.1719   -0.2084   25.3587 C   0  0  0  0  0  0  0  0  0  0  0  0
    7.9086    0.5373   24.5204 F   0  0  0  0  0  0  0  0  0  0  0  0
    5.8895   -0.1177   24.9400 F   0  0  0  0  0  0  0  0  0  0  0  0
    7.2370    0.3830   26.5639 F   0  0  0  0  0  0  0  0  0  0  0  0
    6.9301   -0.9955   22.2285 C   0  0  0  0  0  0  0  0  0  0  0  0
    6.0058   -0.6449   22.6562 H   0  0  0  0  0  0  0  0  0  0  0  0
    5.4606    0.6518   20.1437 C   0  0  0  0  0  0  0  0  0  0  0  0
    5.0320    0.6470   21.1485 H   0  0  0  0  0  0  0  0  0  0  0  0
    4.8162    1.3041   19.0972 C   0  0  0  0  0  0  0  0  0  0  0  0
    3.8814    1.8312   19.2508 H   0  0  0  0  0  0  0  0  0  0  0  0
  1  2  1  0
  2  3  2  0
  3  4  1  0
  4  5  1  0
  4  6  2  0
  6  7  1  0
  7  8  2  0
  8  9  1  0
  9 10  1  0
  9 11  1  0
 11 12  1  0
 12 13  2  0
 13 14  1  0
 14 15  1  0
 14 16  2  0
 16 17  1  0
 16 18  1  0
 18 19  1  0
 18 20  2  0
 20 21  1  0
 21 22  1  0
 21 23  1  0
 21 24  1  0
 11 25  2  0
 25 26  1  0
  6 27  1  0
 27 28  1  0
 27 29  2  0
 29 30  1  0
 29  2  1  0
 25  7  1  0
 20 12  1  0
M  END
>  <cnnaffinity>  (1) 
-5.27863

>  <filename>  (1) 
FC(F)(F)c1cccnc1-c1cc(-c2cccnc2)n[nH]1

$$$$
