
     RDKit          3D

 30 31  0  0  0  0  0  0  0  0999 V2000
    5.0067    1.7217   16.9989 H   0  0  0  0  0  0  0  0  0  0  0  0
    5.4701    1.2527   17.8647 C   0  0  0  0  0  0  0  0  0  0  0  0
    6.6130    0.5904   17.6318 N   0  0  0  0  0  0  0  0  0  0  0  0
    7.1870   -0.0142   18.6805 C   0  0  0  0  0  0  0  0  0  0  0  0
    8.0932   -0.5872   18.4639 H   0  0  0  0  0  0  0  0  0  0  0  0
    6.6797    0.0003   19.9915 C   0  0  0  0  0  0  0  0  0  0  0  0
    7.3366   -0.7904   21.1016 C   0  0  0  0  0  0  0  0  0  0  0  0
    6.5605   -1.3565   21.6342 H   0  0  0  0  0  0  0  0  0  0  0  0
    7.9857   -1.5477   20.6497 H   0  0  0  0  0  0  0  0  0  0  0  0
    8.1862   -0.0054   22.1321 C   0  0  0  0  0  0  0  0  0  0  0  0
    9.0541    0.4344   21.6380 H   0  0  0  0  0  0  0  0  0  0  0  0
    8.5921   -0.7483   22.8297 H   0  0  0  0  0  0  0  0  0  0  0  0
    7.4289    1.0236   22.9639 C   0  0  0  0  0  0  0  0  0  0  0  0
    6.5822    0.5554   23.9854 C   0  0  0  0  0  0  0  0  0  0  0  0
    6.5971   -0.5074   24.1959 H   0  0  0  0  0  0  0  0  0  0  0  0
    5.7919    1.4137   24.7554 C   0  0  0  0  0  0  0  0  0  0  0  0
    5.1650    1.0052   25.5489 H   0  0  0  0  0  0  0  0  0  0  0  0
    5.8296    2.7851   24.5009 C   0  0  0  0  0  0  0  0  0  0  0  0
    5.2007    3.4663   25.0644 H   0  0  0  0  0  0  0  0  0  0  0  0
    6.6994    3.2844   23.5323 C   0  0  0  0  0  0  0  0  0  0  0  0
    6.7613    4.3557   23.3629 H   0  0  0  0  0  0  0  0  0  0  0  0
    7.5304    2.4218   22.7969 C   0  0  0  0  0  0  0  0  0  0  0  0
    8.6004    3.0329   21.9226 C   0  0  0  0  0  0  0  0  0  0  0  0
    9.8284    2.8531   22.4555 F   0  0  0  0  0  0  0  0  0  0  0  0
    8.6491    2.4820   20.6934 F   0  0  0  0  0  0  0  0  0  0  0  0
    8.4377    4.3637   21.7732 F   0  0  0  0  0  0  0  0  0  0  0  0
    5.4858    0.7033   20.2027 C   0  0  0  0  0  0  0  0  0  0  0  0
    5.0510    0.7312   21.2060 H   0  0  0  0  0  0  0  0  0  0  0  0
    4.8648    1.3373   19.1237 C   0  0  0  0  0  0  0  0  0  0  0  0
    3.9336    1.8822   19.2400 H   0  0  0  0  0  0  0  0  0  0  0  0
  1  2  1  0
  2  3  2  0
  3  4  1  0
  4  5  1  0
  4  6  2  0
  6  7  1  0
  7  8  1  0
  7  9  1  0
  7 10  1  0
 10 11  1  0
 10 12  1  0
 10 13  1  0
 13 14  2  0
 14 15  1  0
 14 16  1  0
 16 17  1  0
 16 18  2  0
 18 19  1  0
 18 20  1  0
 20 21  1  0
 20 22  2  0
 22 23  1  0
 23 24  1  0
 23 25  1  0
 23 26  1  0
  6 27  1  0
 27 28  1  0
 27 29  2  0
 29 30  1  0
 29  2  1  0
 22 13  1  0
M  END
>  <cnnaffinity>  (1) 
-4.17404

>  <filename>  (1) 
FC(F)(F)c1ccccc1CCc1cccnc1

$$$$
