
     RDKit          3D

 32 34  0  0  0  0  0  0  0  0999 V2000
    4.9278    1.7949   16.9879 H   0  0  0  0  0  0  0  0  0  0  0  0
    5.3980    1.2970   17.8335 C   0  0  0  0  0  0  0  0  0  0  0  0
    6.5621    0.6791   17.5749 N   0  0  0  0  0  0  0  0  0  0  0  0
    7.1586    0.0500   18.5908 C   0  0  0  0  0  0  0  0  0  0  0  0
    8.1071   -0.4360   18.3625 H   0  0  0  0  0  0  0  0  0  0  0  0
    6.6379    0.0155   19.8942 C   0  0  0  0  0  0  0  0  0  0  0  0
    7.3752   -0.7045   20.9284 C   0  0  0  0  0  0  0  0  0  0  0  0
    7.9778   -1.8347   20.7106 N   0  0  0  0  0  0  0  0  0  0  0  0
    8.4764   -2.1791   21.9264 N   0  0  0  0  0  0  0  0  0  0  0  0
    9.0192   -3.0128   22.0782 H   0  0  0  0  0  0  0  0  0  0  0  0
    8.2435   -1.2822   22.9003 C   0  0  0  0  0  0  0  0  0  0  0  0
    8.7977   -1.3871   24.4599 S   0  0  0  0  0  0  0  0  0  0  0  0
    7.4997   -0.3137   22.2522 N   0  0  0  0  0  0  0  0  0  0  0  0
    7.1030    0.9306   22.8384 C   0  0  0  0  0  0  0  0  0  0  0  0
    7.5026    2.1326   22.2499 C   0  0  0  0  0  0  0  0  0  0  0  0
    8.0770    2.1157   21.3295 H   0  0  0  0  0  0  0  0  0  0  0  0
    7.1072    3.3378   22.8346 C   0  0  0  0  0  0  0  0  0  0  0  0
    7.3907    4.2775   22.3700 H   0  0  0  0  0  0  0  0  0  0  0  0
    6.3389    3.3446   24.0013 C   0  0  0  0  0  0  0  0  0  0  0  0
    6.0238    4.2690   24.4774 H   0  0  0  0  0  0  0  0  0  0  0  0
    5.9670    2.1243   24.5721 C   0  0  0  0  0  0  0  0  0  0  0  0
    5.2204    2.2455   25.7379 O   0  0  0  0  0  0  0  0  0  0  0  0
    4.7837    1.1793   26.4359 C   0  0  0  0  0  0  0  0  0  0  0  0
    4.1154    1.6551   27.4793 F   0  0  0  0  0  0  0  0  0  0  0  0
    3.9622    0.3889   25.7258 F   0  0  0  0  0  0  0  0  0  0  0  0
    5.7776    0.3974   26.8859 F   0  0  0  0  0  0  0  0  0  0  0  0
    6.3341    0.9089   24.0028 C   0  0  0  0  0  0  0  0  0  0  0  0
    6.0627   -0.0378   24.4532 H   0  0  0  0  0  0  0  0  0  0  0  0
    5.4183    0.6543   20.1497 C   0  0  0  0  0  0  0  0  0  0  0  0
    5.0100    0.6452   21.1642 H   0  0  0  0  0  0  0  0  0  0  0  0
    4.7927    1.3111   19.0957 C   0  0  0  0  0  0  0  0  0  0  0  0
    3.8646    1.8474   19.2425 H   0  0  0  0  0  0  0  0  0  0  0  0
  1  2  1  0
  2  3  2  0
  3  4  1  0
  4  5  1  0
  4  6  2  0
  6  7  1  0
  7  8  2  0
  8  9  1  0
  9 10  1  0
  9 11  1  0
 11 12  2  0
 11 13  1  0
 13 14  1  0
 14 15  2  0
 15 16  1  0
 15 17  1  0
 17 18  1  0
 17 19  2  0
 19 20  1  0
 19 21  1  0
 21 22  1  0
 22 23  1  0
 23 24  1  0
 23 25  1  0
 23 26  1  0
 21 27  2  0
 27 28  1  0
  6 29  1  0
 29 30  1  0
 29 31  2  0
 31 32  1  0
 31  2  1  0
 13  7  1  0
 27 14  1  0
M  END
>  <cnnaffinity>  (1) 
-5.39532

>  <filename>  (1) 
FC(F)(F)Oc1cccc(-n2c(-c3cccnc3)n[nH]c2=S)c1

$$$$
