
     RDKit          3D

 28 29  0  0  0  0  0  0  0  0999 V2000
   12.2344    4.6224   22.5049 F   0  0  0  0  0  0  0  0  0  0  0  0
   12.0661    3.4042   21.9861 C   0  0  0  0  0  0  0  0  0  0  0  0
   12.4679    3.4595   20.7001 F   0  0  0  0  0  0  0  0  0  0  0  0
   12.9274    2.5804   22.6220 F   0  0  0  0  0  0  0  0  0  0  0  0
   10.6190    2.8469   22.0778 C   0  0  0  0  0  0  0  0  0  0  0  0
   10.3466    1.5741   21.5612 C   0  0  0  0  0  0  0  0  0  0  0  0
    9.0314    1.0832   21.6431 C   0  0  0  0  0  0  0  0  0  0  0  0
    8.7464   -0.1621   21.1716 N   0  0  0  0  0  0  0  0  0  0  0  0
    7.4151   -0.7029   20.9836 C   0  0  0  0  0  0  0  0  0  0  0  0
    6.6415    0.0061   19.9045 C   0  0  0  0  0  0  0  0  0  0  0  0
    5.4276    0.6511   20.1538 C   0  0  0  0  0  0  0  0  0  0  0  0
    4.7973    1.3127   19.0996 C   0  0  0  0  0  0  0  0  0  0  0  0
    5.3994    1.2943   17.8378 C   0  0  0  0  0  0  0  0  0  0  0  0
    6.5639    0.6797   17.5814 N   0  0  0  0  0  0  0  0  0  0  0  0
    7.1681    0.0701   18.6069 C   0  0  0  0  0  0  0  0  0  0  0  0
    8.1123   -0.4179   18.3718 H   0  0  0  0  0  0  0  0  0  0  0  0
    4.9206    1.7830   16.9926 H   0  0  0  0  0  0  0  0  0  0  0  0
    3.8691    1.8480   19.2507 H   0  0  0  0  0  0  0  0  0  0  0  0
    4.9920    0.6398   21.1585 H   0  0  0  0  0  0  0  0  0  0  0  0
    6.8556   -0.6677   21.9298 H   0  0  0  0  0  0  0  0  0  0  0  0
    7.5148   -1.7662   20.7335 H   0  0  0  0  0  0  0  0  0  0  0  0
    9.5355   -0.6864   20.8453 H   0  0  0  0  0  0  0  0  0  0  0  0
    8.0602    1.8949   22.2326 C   0  0  0  0  0  0  0  0  0  0  0  0
    8.4412    3.1386   22.7049 C   0  0  0  0  0  0  0  0  0  0  0  0
    9.6833    3.6106   22.6554 N   0  0  0  0  0  0  0  0  0  0  0  0
    7.7217    3.8037   23.1669 H   0  0  0  0  0  0  0  0  0  0  0  0
    7.0365    1.5769   22.3296 H   0  0  0  0  0  0  0  0  0  0  0  0
   11.1263    0.9694   21.1203 H   0  0  0  0  0  0  0  0  0  0  0  0
  1  2  1  0
  2  3  1  0
  2  4  1  0
  2  5  1  0
  5  6  2  0
  6  7  1  0
  7  8  1  0
  8  9  1  0
  9 10  1  0
 10 11  2  0
 11 12  1  0
 12 13  2  0
 13 14  1  0
 14 15  2  0
 15 16  1  0
 13 17  1  0
 12 18  1  0
 11 19  1  0
  9 20  1  0
  9 21  1  0
  8 22  1  0
  7 23  2  0
 23 24  1  0
 24 25  2  0
 24 26  1  0
 23 27  1  0
  6 28  1  0
 25  5  1  0
 15 10  1  0
M  END
>  <cnnaffinity>  (1) 
-4.90201

>  <filename>  (1) 
FC(F)(F)c1cc(NCc2cccnc2)ccn1

$$$$
