
     RDKit          3D

 38 41  0  0  0  0  0  0  0  0999 V2000
    4.9507    1.8308   16.9340 H   0  0  0  0  0  0  0  0  0  0  0  0
    5.3861    1.2905   17.7737 C   0  0  0  0  0  0  0  0  0  0  0  0
    6.5307    0.6383   17.5196 N   0  0  0  0  0  0  0  0  0  0  0  0
    7.1182    0.0031   18.5381 C   0  0  0  0  0  0  0  0  0  0  0  0
    8.0502   -0.5093   18.3067 H   0  0  0  0  0  0  0  0  0  0  0  0
    6.6148   -0.0072   19.8511 C   0  0  0  0  0  0  0  0  0  0  0  0
    7.3816   -0.6300   20.9339 C   0  0  0  0  0  0  0  0  0  0  0  0
    8.2127   -1.6507   20.7119 N   0  0  0  0  0  0  0  0  0  0  0  0
    8.7034   -1.9094   21.9207 N   0  0  0  0  0  0  0  0  0  0  0  0
    8.2406   -1.1529   22.9077 C   0  0  0  0  0  0  0  0  0  0  0  0
    7.3510   -0.2855   22.3238 C   0  0  0  0  0  0  0  0  0  0  0  0
    6.8737    0.8781   23.0586 C   0  0  0  0  0  0  0  0  0  0  0  0
    5.9122    0.6849   24.0636 C   0  0  0  0  0  0  0  0  0  0  0  0
    5.6325   -0.3309   24.3383 H   0  0  0  0  0  0  0  0  0  0  0  0
    5.3259    1.7812   24.6867 C   0  0  0  0  0  0  0  0  0  0  0  0
    4.5277    1.6322   25.4149 H   0  0  0  0  0  0  0  0  0  0  0  0
    5.7700    3.0715   24.3721 C   0  0  0  0  0  0  0  0  0  0  0  0
    5.3180    3.9328   24.8551 H   0  0  0  0  0  0  0  0  0  0  0  0
    6.8217    3.2574   23.4688 C   0  0  0  0  0  0  0  0  0  0  0  0
    7.2061    4.2620   23.2921 H   0  0  0  0  0  0  0  0  0  0  0  0
    7.4075    2.1611   22.8298 C   0  0  0  0  0  0  0  0  0  0  0  0
    8.6445    2.3114   21.9501 C   0  0  0  0  0  0  0  0  0  0  0  0
    9.2258    3.5086   22.1077 F   0  0  0  0  0  0  0  0  0  0  0  0
    8.3730    2.1653   20.6373 F   0  0  0  0  0  0  0  0  0  0  0  0
    9.5828    1.3785   22.2349 F   0  0  0  0  0  0  0  0  0  0  0  0
    9.0035   -1.3948   24.1743 C   0  0  0  0  0  0  0  0  0  0  0  0
    8.3476   -1.6661   24.9995 H   0  0  0  0  0  0  0  0  0  0  0  0
    9.5375   -0.4903   24.4926 H   0  0  0  0  0  0  0  0  0  0  0  0
    9.9789   -2.5340   23.7631 C   0  0  0  0  0  0  0  0  0  0  0  0
   10.9896   -2.1597   23.7765 H   0  0  0  0  0  0  0  0  0  0  0  0
    9.9181   -3.3966   24.4274 H   0  0  0  0  0  0  0  0  0  0  0  0
    9.6542   -2.9152   22.2965 C   0  0  0  0  0  0  0  0  0  0  0  0
   10.5195   -2.8420   21.6369 H   0  0  0  0  0  0  0  0  0  0  0  0
    9.1727   -3.8890   22.1913 H   0  0  0  0  0  0  0  0  0  0  0  0
    5.3963    0.6450   20.0916 C   0  0  0  0  0  0  0  0  0  0  0  0
    4.9558    0.6527   21.0906 H   0  0  0  0  0  0  0  0  0  0  0  0
    4.7737    1.3015   19.0310 C   0  0  0  0  0  0  0  0  0  0  0  0
    3.8515    1.8510   19.1687 H   0  0  0  0  0  0  0  0  0  0  0  0
  1  2  1  0
  2  3  2  0
  3  4  1  0
  4  5  1  0
  4  6  2  0
  6  7  1  0
  7  8  2  0
  8  9  1  0
  9 10  1  0
 10 11  2  0
 11 12  1  0
 12 13  2  0
 13 14  1  0
 13 15  1  0
 15 16  1  0
 15 17  2  0
 17 18  1  0
 17 19  1  0
 19 20  1  0
 19 21  2  0
 21 22  1  0
 22 23  1  0
 22 24  1  0
 22 25  1  0
 10 26  1  0
 26 27  1  0
 26 28  1  0
 26 29  1  0
 29 30  1  0
 29 31  1  0
 29 32  1  0
 32 33  1  0
 32 34  1  0
  6 35  1  0
 35 36  1  0
 35 37  2  0
 37 38  1  0
 37  2  1  0
 11  7  1  0
 21 12  1  0
 32  9  1  0
M  END
>  <cnnaffinity>  (1) 
-5.45589

>  <filename>  (1) 
FC(F)(F)c1ccccc1-c1c(-c2cccnc2)nn2c1CCC2

$$$$
