
     RDKit          3D

 31 33  0  0  0  0  0  0  0  0999 V2000
   10.4262   -1.4115   21.8942 H   0  0  0  0  0  0  0  0  0  0  0  0
    9.3472   -1.3642   21.9122 C   0  0  0  0  0  0  0  0  0  0  0  0
    8.7591   -0.7365   20.8865 N   0  0  0  0  0  0  0  0  0  0  0  0
    7.4102   -0.7144   20.8949 C   0  0  0  0  0  0  0  0  0  0  0  0
    6.7089    0.0211   19.8358 C   0  0  0  0  0  0  0  0  0  0  0  0
    7.2385    0.0977   18.5391 C   0  0  0  0  0  0  0  0  0  0  0  0
    8.1947   -0.3700   18.3209 H   0  0  0  0  0  0  0  0  0  0  0  0
    6.6192    0.7126   17.5273 N   0  0  0  0  0  0  0  0  0  0  0  0
    5.4451    1.3072   17.7891 C   0  0  0  0  0  0  0  0  0  0  0  0
    4.9539    1.7950   16.9494 H   0  0  0  0  0  0  0  0  0  0  0  0
    4.8516    1.3159   19.0549 C   0  0  0  0  0  0  0  0  0  0  0  0
    3.9056    1.8170   19.2085 H   0  0  0  0  0  0  0  0  0  0  0  0
    5.4940    0.6668   20.1029 C   0  0  0  0  0  0  0  0  0  0  0  0
    5.0873    0.6881   21.1168 H   0  0  0  0  0  0  0  0  0  0  0  0
    6.6793   -1.3880   21.9060 C   0  0  0  0  0  0  0  0  0  0  0  0
    5.6112   -1.5017   21.8042 H   0  0  0  0  0  0  0  0  0  0  0  0
    7.2612   -1.9743   22.9522 N   0  0  0  0  0  0  0  0  0  0  0  0
    8.6157   -1.9560   22.9692 C   0  0  0  0  0  0  0  0  0  0  0  0
    9.3454   -2.6740   24.0509 C   0  0  0  0  0  0  0  0  0  0  0  0
   10.4392   -3.3176   23.6161 N   0  0  0  0  0  0  0  0  0  0  0  0
   11.0306   -4.1900   24.4242 C   0  0  0  0  0  0  0  0  0  0  0  0
   11.8517   -4.7540   24.0063 H   0  0  0  0  0  0  0  0  0  0  0  0
   10.6142   -4.4174   25.7311 C   0  0  0  0  0  0  0  0  0  0  0  0
   11.1031   -5.1887   26.3061 H   0  0  0  0  0  0  0  0  0  0  0  0
    9.5875   -3.6466   26.2510 C   0  0  0  0  0  0  0  0  0  0  0  0
    9.3058   -3.7735   27.2973 H   0  0  0  0  0  0  0  0  0  0  0  0
    8.9519   -2.7240   25.4080 C   0  0  0  0  0  0  0  0  0  0  0  0
    7.8489   -1.8456   25.9484 C   0  0  0  0  0  0  0  0  0  0  0  0
    7.8280   -0.6193   25.3984 F   0  0  0  0  0  0  0  0  0  0  0  0
    7.9851   -1.6745   27.2796 F   0  0  0  0  0  0  0  0  0  0  0  0
    6.6346   -2.3812   25.7490 F   0  0  0  0  0  0  0  0  0  0  0  0
  1  2  1  0
  2  3  2  0
  3  4  1  0
  4  5  1  0
  5  6  2  0
  6  7  1  0
  6  8  1  0
  8  9  2  0
  9 10  1  0
  9 11  1  0
 11 12  1  0
 11 13  2  0
 13 14  1  0
  4 15  2  0
 15 16  1  0
 15 17  1  0
 17 18  2  0
 18 19  1  0
 19 20  2  0
 20 21  1  0
 21 22  1  0
 21 23  2  0
 23 24  1  0
 23 25  1  0
 25 26  1  0
 25 27  2  0
 27 28  1  0
 28 29  1  0
 28 30  1  0
 28 31  1  0
 18  2  1  0
 27 19  1  0
 13  5  1  0
M  END
>  <cnnaffinity>  (1) 
-5.89178

>  <filename>  (1) 
FC(F)(F)c1cccnc1-c1cnc(-c2cccnc2)cn1

$$$$
