
     RDKit          3D

 30 32  0  0  0  0  0  0  0  0999 V2000
    5.0201    1.7493   17.0578 H   0  0  0  0  0  0  0  0  0  0  0  0
    5.4898    1.2903   17.9275 C   0  0  0  0  0  0  0  0  0  0  0  0
    6.6547    0.6575   17.7009 N   0  0  0  0  0  0  0  0  0  0  0  0
    7.2351    0.0540   18.7393 C   0  0  0  0  0  0  0  0  0  0  0  0
    8.1657   -0.4785   18.5520 H   0  0  0  0  0  0  0  0  0  0  0  0
    6.7071    0.0524   20.0463 C   0  0  0  0  0  0  0  0  0  0  0  0
    7.3801   -0.7255   21.0445 N   0  0  0  0  0  0  0  0  0  0  0  0
    7.9817   -1.8694   20.6387 N   0  0  0  0  0  0  0  0  0  0  0  0
    8.5394   -2.3938   21.6558 N   0  0  0  0  0  0  0  0  0  0  0  0
    8.3496   -1.6462   22.7585 N   0  0  0  0  0  0  0  0  0  0  0  0
    7.6350   -0.6080   22.3798 C   0  0  0  0  0  0  0  0  0  0  0  0
    7.1598    0.6188   23.5496 S   0  0  0  0  0  0  0  0  0  0  0  0
    8.7399    1.4669   23.7554 C   0  0  0  0  0  0  0  0  0  0  0  0
    9.7043    0.9271   24.6250 C   0  0  0  0  0  0  0  0  0  0  0  0
    9.4518    0.0667   25.2357 H   0  0  0  0  0  0  0  0  0  0  0  0
   10.9834    1.4927   24.6935 C   0  0  0  0  0  0  0  0  0  0  0  0
   11.7506    1.0251   25.3024 H   0  0  0  0  0  0  0  0  0  0  0  0
   11.2824    2.6310   23.9430 C   0  0  0  0  0  0  0  0  0  0  0  0
   12.2680    3.0792   23.9764 H   0  0  0  0  0  0  0  0  0  0  0  0
   10.3115    3.2132   23.1327 C   0  0  0  0  0  0  0  0  0  0  0  0
   10.5496    4.1267   22.5907 H   0  0  0  0  0  0  0  0  0  0  0  0
    9.0303    2.6354   23.0310 C   0  0  0  0  0  0  0  0  0  0  0  0
    8.0623    3.1788   21.9953 C   0  0  0  0  0  0  0  0  0  0  0  0
    8.1312    2.4127   20.8805 F   0  0  0  0  0  0  0  0  0  0  0  0
    8.3487    4.4401   21.6381 F   0  0  0  0  0  0  0  0  0  0  0  0
    6.7726    3.2173   22.3826 F   0  0  0  0  0  0  0  0  0  0  0  0
    5.5203    0.7430   20.2894 C   0  0  0  0  0  0  0  0  0  0  0  0
    5.1020    0.8175   21.2930 H   0  0  0  0  0  0  0  0  0  0  0  0
    4.8941    1.3555   19.1880 C   0  0  0  0  0  0  0  0  0  0  0  0
    3.9571    1.8859   19.3038 H   0  0  0  0  0  0  0  0  0  0  0  0
  1  2  1  0
  2  3  2  0
  3  4  1  0
  4  5  1  0
  4  6  2  0
  6  7  1  0
  7  8  1  0
  8  9  2  0
  9 10  1  0
 10 11  2  0
 11 12  1  0
 12 13  1  0
 13 14  2  0
 14 15  1  0
 14 16  1  0
 16 17  1  0
 16 18  2  0
 18 19  1  0
 18 20  1  0
 20 21  1  0
 20 22  2  0
 22 23  1  0
 23 24  1  0
 23 25  1  0
 23 26  1  0
  6 27  1  0
 27 28  1  0
 27 29  2  0
 29 30  1  0
 29  2  1  0
 11  7  1  0
 22 13  1  0
M  END
>  <cnnaffinity>  (1) 
-5.65893

>  <filename>  (1) 
FC(F)(F)c1ccccc1Sc1nnnn1-c1cccnc1

$$$$
