
     RDKit          3D

 39 41  0  0  0  0  0  0  0  0999 V2000
    5.0667    1.7761   16.9564 H   0  0  0  0  0  0  0  0  0  0  0  0
    5.5115    1.2902   17.8211 C   0  0  0  0  0  0  0  0  0  0  0  0
    6.6652    0.6483   17.6076 N   0  0  0  0  0  0  0  0  0  0  0  0
    7.2283    0.0308   18.6612 C   0  0  0  0  0  0  0  0  0  0  0  0
    8.1590   -0.4865   18.4401 H   0  0  0  0  0  0  0  0  0  0  0  0
    6.7008    0.0179   19.9676 C   0  0  0  0  0  0  0  0  0  0  0  0
    7.4035   -0.6719   21.1681 C   0  0  2  0  0  0  0  0  0  0  0  0
    6.4972   -1.7691   21.8186 C   0  0  0  0  0  0  0  0  0  0  0  0
    6.8054   -1.9724   22.8456 H   0  0  0  0  0  0  0  0  0  0  0  0
    5.5171   -1.3086   21.8567 H   0  0  0  0  0  0  0  0  0  0  0  0
    6.2983   -3.0511   21.0437 C   0  0  0  0  0  0  0  0  0  0  0  0
    5.6526   -2.9221   19.8097 C   0  0  0  0  0  0  0  0  0  0  0  0
    5.2514   -1.9610   19.5223 H   0  0  0  0  0  0  0  0  0  0  0  0
    5.4957   -3.9842   18.9438 C   0  0  0  0  0  0  0  0  0  0  0  0
    5.1200   -3.7413   17.9585 H   0  0  0  0  0  0  0  0  0  0  0  0
    5.8790   -5.2655   19.3418 C   0  0  0  0  0  0  0  0  0  0  0  0
    5.7336   -6.1205   18.6894 H   0  0  0  0  0  0  0  0  0  0  0  0
    6.4866   -5.4358   20.5834 C   0  0  0  0  0  0  0  0  0  0  0  0
    6.8033   -6.4260   20.8950 H   0  0  0  0  0  0  0  0  0  0  0  0
    6.7070   -4.3410   21.4406 C   0  0  0  0  0  0  0  0  0  0  0  0
    7.3688   -4.5677   22.7903 C   0  0  0  0  0  0  0  0  0  0  0  0
    6.5460   -4.2527   23.8118 F   0  0  0  0  0  0  0  0  0  0  0  0
    7.7524   -5.8434   22.9894 F   0  0  0  0  0  0  0  0  0  0  0  0
    8.4796   -3.8143   22.9543 F   0  0  0  0  0  0  0  0  0  0  0  0
    7.7829    0.3867   22.2553 C   0  0  0  0  0  0  0  0  0  0  0  0
    7.8533   -0.1313   23.2255 H   0  0  0  0  0  0  0  0  0  0  0  0
    7.0189    1.1686   22.3622 H   0  0  0  0  0  0  0  0  0  0  0  0
    9.0936    0.9456   21.8852 N   0  0  0  0  0  0  0  0  0  0  0  0
    9.6845    0.9643   22.7047 H   0  0  0  0  0  0  0  0  0  0  0  0
    9.6793    0.0728   20.8571 C   0  0  0  0  0  0  0  0  0  0  0  0
   10.7314   -0.1488   21.0669 H   0  0  0  0  0  0  0  0  0  0  0  0
    9.6357    0.5862   19.8885 H   0  0  0  0  0  0  0  0  0  0  0  0
    8.8169   -1.1879   20.8378 C   0  0  0  0  0  0  0  0  0  0  0  0
    9.1350   -1.8770   21.6277 H   0  0  0  0  0  0  0  0  0  0  0  0
    8.8687   -1.7296   19.8934 H   0  0  0  0  0  0  0  0  0  0  0  0
    5.4829    0.7006   20.1517 C   0  0  0  0  0  0  0  0  0  0  0  0
    5.0107    0.7428   21.1360 H   0  0  0  0  0  0  0  0  0  0  0  0
    4.8733    1.3359   19.0644 C   0  0  0  0  0  0  0  0  0  0  0  0
    3.9289    1.8591   19.1701 H   0  0  0  0  0  0  0  0  0  0  0  0
  1  2  1  0
  2  3  2  0
  3  4  1  0
  4  5  1  0
  4  6  2  0
  6  7  1  0
  7  8  1  1
  8  9  1  0
  8 10  1  0
  8 11  1  0
 11 12  2  0
 12 13  1  0
 12 14  1  0
 14 15  1  0
 14 16  2  0
 16 17  1  0
 16 18  1  0
 18 19  1  0
 18 20  2  0
 20 21  1  0
 21 22  1  0
 21 23  1  0
 21 24  1  0
  7 25  1  0
 25 26  1  0
 25 27  1  0
 25 28  1  0
 28 29  1  0
 28 30  1  0
 30 31  1  0
 30 32  1  0
 30 33  1  0
 33 34  1  0
 33 35  1  0
  6 36  1  0
 36 37  1  0
 36 38  2  0
 38 39  1  0
 38  2  1  0
 33  7  1  0
 20 11  1  0
M  END
>  <cnnaffinity>  (1) 
-5.28514

>  <filename>  (1) 
FC(F)(F)c1ccccc1C[C@]1(c2cccnc2)CCNC1

$$$$
