
     RDKit          3D

 39 42  0  0  0  0  0  0  0  0999 V2000
    4.9104    1.8410   16.9523 H   0  0  0  0  0  0  0  0  0  0  0  0
    5.3975    1.3255   17.7781 C   0  0  0  0  0  0  0  0  0  0  0  0
    6.5555    0.7090   17.4954 N   0  0  0  0  0  0  0  0  0  0  0  0
    7.1754    0.0875   18.5053 C   0  0  0  0  0  0  0  0  0  0  0  0
    8.1131   -0.4057   18.2452 H   0  0  0  0  0  0  0  0  0  0  0  0
    6.7033    0.0349   19.8309 C   0  0  0  0  0  0  0  0  0  0  0  0
    7.4621   -0.6798   20.9318 C   0  0  1  0  0  0  0  0  0  0  0  0
    8.3963   -1.0646   20.5111 H   0  0  0  0  0  0  0  0  0  0  0  0
    7.8469    0.2520   22.1320 C   0  0  0  0  0  0  0  0  0  0  0  0
    7.3977    1.2480   22.0609 H   0  0  0  0  0  0  0  0  0  0  0  0
    8.9304    0.3964   22.1873 H   0  0  0  0  0  0  0  0  0  0  0  0
    7.3260   -0.4899   23.3237 C   0  0  0  0  0  0  0  0  0  0  0  0
    7.2864   -0.2218   24.6151 N   0  0  0  0  0  0  0  0  0  0  0  0
    6.6584   -1.3033   25.1368 N   0  0  0  0  0  0  0  0  0  0  0  0
    6.4624   -1.3166   26.1321 H   0  0  0  0  0  0  0  0  0  0  0  0
    6.2928   -2.2334   24.2049 C   0  0  0  0  0  0  0  0  0  0  0  0
    5.6441   -3.5264   24.5077 C   0  0  0  0  0  0  0  0  0  0  0  0
    6.0409   -4.3097   25.6085 C   0  0  0  0  0  0  0  0  0  0  0  0
    6.7864   -3.9424   26.3104 H   0  0  0  0  0  0  0  0  0  0  0  0
    5.5211   -5.5908   25.7670 C   0  0  0  0  0  0  0  0  0  0  0  0
    5.8779   -6.2325   26.5650 H   0  0  0  0  0  0  0  0  0  0  0  0
    4.5747   -6.1083   24.8771 C   0  0  0  0  0  0  0  0  0  0  0  0
    4.1761   -7.1053   25.0018 H   0  0  0  0  0  0  0  0  0  0  0  0
    4.1782   -5.3251   23.7955 C   0  0  0  0  0  0  0  0  0  0  0  0
    3.3354   -5.7867   22.7806 O   0  0  0  0  0  0  0  0  0  0  0  0
    2.5295   -6.8654   22.9188 C   0  0  0  0  0  0  0  0  0  0  0  0
    1.9513   -7.0919   21.7446 F   0  0  0  0  0  0  0  0  0  0  0  0
    1.5721   -6.6847   23.8368 F   0  0  0  0  0  0  0  0  0  0  0  0
    3.1876   -7.9864   23.2680 F   0  0  0  0  0  0  0  0  0  0  0  0
    4.6944   -4.0430   23.6096 C   0  0  0  0  0  0  0  0  0  0  0  0
    4.3764   -3.4521   22.7568 H   0  0  0  0  0  0  0  0  0  0  0  0
    6.7328   -1.7045   23.0019 C   0  0  0  0  0  0  0  0  0  0  0  0
    6.6807   -1.9088   21.5196 C   0  0  0  0  0  0  0  0  0  0  0  0
    5.6434   -1.9320   21.1617 H   0  0  0  0  0  0  0  0  0  0  0  0
    7.1311   -2.8546   21.2008 H   0  0  0  0  0  0  0  0  0  0  0  0
    5.4796    0.6724   20.0927 C   0  0  0  0  0  0  0  0  0  0  0  0
    5.0533    0.6665   21.0996 H   0  0  0  0  0  0  0  0  0  0  0  0
    4.8209    1.3239   19.0511 C   0  0  0  0  0  0  0  0  0  0  0  0
    3.8810    1.8374   19.2133 H   0  0  0  0  0  0  0  0  0  0  0  0
  1  2  1  0
  2  3  2  0
  3  4  1  0
  4  5  1  0
  4  6  2  0
  6  7  1  0
  7  8  1  6
  7  9  1  0
  9 10  1  0
  9 11  1  0
  9 12  1  0
 12 13  2  0
 13 14  1  0
 14 15  1  0
 14 16  1  0
 16 17  1  0
 17 18  2  0
 18 19  1  0
 18 20  1  0
 20 21  1  0
 20 22  2  0
 22 23  1  0
 22 24  1  0
 24 25  1  0
 25 26  1  0
 26 27  1  0
 26 28  1  0
 26 29  1  0
 24 30  2  0
 30 31  1  0
 16 32  2  0
 32 33  1  0
 33 34  1  0
 33 35  1  0
  6 36  1  0
 36 37  1  0
 36 38  2  0
 38 39  1  0
 38  2  1  0
 33  7  1  0
 32 12  1  0
 30 17  1  0
M  END
>  <cnnaffinity>  (1) 
-5.61129

>  <filename>  (1) 
FC(F)(F)Oc1cccc(-c2[nH]nc3c2C[C@@H](c2cccnc2)C3)c1

$$$$
