
     RDKit          3D

 32 35  0  0  0  0  0  0  0  0999 V2000
    4.9198    1.7715   17.0048 H   0  0  0  0  0  0  0  0  0  0  0  0
    5.4085    1.2861   17.8478 C   0  0  0  0  0  0  0  0  0  0  0  0
    6.5742    0.6702   17.5954 N   0  0  0  0  0  0  0  0  0  0  0  0
    7.1823    0.0540   18.6143 C   0  0  0  0  0  0  0  0  0  0  0  0
    8.1281   -0.4340   18.3839 H   0  0  0  0  0  0  0  0  0  0  0  0
    6.6492    0.0143   19.9103 C   0  0  0  0  0  0  0  0  0  0  0  0
    7.3625   -0.6895   20.9674 C   0  0  0  0  0  0  0  0  0  0  0  0
    8.5476   -1.3274   20.7588 N   0  0  0  0  0  0  0  0  0  0  0  0
    8.7967   -1.8148   21.9583 C   0  0  0  0  0  0  0  0  0  0  0  0
    9.9881   -2.8191   22.7265 S   0  0  0  0  0  0  0  0  0  0  0  0
    9.0736   -2.7671   24.2074 C   0  0  0  0  0  0  0  0  0  0  0  0
    9.4581   -3.2873   25.0743 H   0  0  0  0  0  0  0  0  0  0  0  0
    7.9573   -2.0187   24.1198 C   0  0  0  0  0  0  0  0  0  0  0  0
    6.9745   -1.7498   25.1844 C   0  0  0  0  0  0  0  0  0  0  0  0
    6.7623   -2.7144   26.1907 C   0  0  0  0  0  0  0  0  0  0  0  0
    7.2986   -3.6597   26.1809 H   0  0  0  0  0  0  0  0  0  0  0  0
    5.9006   -2.5587   27.1914 N   0  0  0  0  0  0  0  0  0  0  0  0
    5.1928   -1.4169   27.2543 C   0  0  0  0  0  0  0  0  0  0  0  0
    4.1969   -1.2242   28.4093 C   0  0  0  0  0  0  0  0  0  0  0  0
    4.1230   -2.2623   29.2410 F   0  0  0  0  0  0  0  0  0  0  0  0
    2.9501   -0.9931   27.9436 F   0  0  0  0  0  0  0  0  0  0  0  0
    4.5124   -0.1374   29.1456 F   0  0  0  0  0  0  0  0  0  0  0  0
    5.3343   -0.3874   26.3046 C   0  0  0  0  0  0  0  0  0  0  0  0
    4.7537    0.5263   26.3760 H   0  0  0  0  0  0  0  0  0  0  0  0
    6.2348   -0.5566   25.2631 C   0  0  0  0  0  0  0  0  0  0  0  0
    6.3706    0.2165   24.5100 H   0  0  0  0  0  0  0  0  0  0  0  0
    7.8315   -1.4792   22.8344 N   0  0  0  0  0  0  0  0  0  0  0  0
    6.8786   -0.7495   22.2041 N   0  0  0  0  0  0  0  0  0  0  0  0
    5.4300    0.6572   20.1662 C   0  0  0  0  0  0  0  0  0  0  0  0
    5.0017    0.6322   21.1720 H   0  0  0  0  0  0  0  0  0  0  0  0
    4.8045    1.3105   19.1108 C   0  0  0  0  0  0  0  0  0  0  0  0
    3.8737    1.8437   19.2620 H   0  0  0  0  0  0  0  0  0  0  0  0
  1  2  1  0
  2  3  2  0
  3  4  1  0
  4  5  1  0
  4  6  2  0
  6  7  1  0
  7  8  1  0
  8  9  2  0
  9 10  1  0
 10 11  1  0
 11 12  1  0
 11 13  2  0
 13 14  1  0
 14 15  2  0
 15 16  1  0
 15 17  1  0
 17 18  2  0
 18 19  1  0
 19 20  1  0
 19 21  1  0
 19 22  1  0
 18 23  1  0
 23 24  1  0
 23 25  2  0
 25 26  1  0
 13 27  1  0
 27 28  1  0
  6 29  1  0
 29 30  1  0
 29 31  2  0
 31 32  1  0
 31  2  1  0
 28  7  2  0
 27  9  1  0
 25 14  1  0
M  END
>  <cnnaffinity>  (1) 
-5.82955

>  <filename>  (1) 
FC(F)(F)c1ccc(-c2csc3nc(-c4cccnc4)nn23)cn1

$$$$
