
     RDKit          3D

 35 38  0  0  0  0  0  0  0  0999 V2000
    4.5063   -7.2700   20.8227 H   0  0  0  0  0  0  0  0  0  0  0  0
    4.5741   -6.6224   21.6898 C   0  0  0  0  0  0  0  0  0  0  0  0
    5.5332   -5.6977   21.6337 N   0  0  0  0  0  0  0  0  0  0  0  0
    5.6943   -4.8649   22.6659 C   0  0  0  0  0  0  0  0  0  0  0  0
    6.6040   -3.6987   22.3576 C   0  0  0  0  0  0  0  0  0  0  0  0
    7.8786   -3.6361   22.5878 N   0  0  0  0  0  0  0  0  0  0  0  0
    8.4357   -2.4636   22.1555 N   0  0  0  0  0  0  0  0  0  0  0  0
    7.5705   -1.6727   21.5836 C   0  0  0  0  0  0  0  0  0  0  0  0
    7.8119   -0.2711   21.0896 C   0  0  0  0  0  0  0  0  0  0  0  0
    6.9687    0.1724   19.9211 C   0  0  0  0  0  0  0  0  0  0  0  0
    7.4040    0.0944   18.5837 C   0  0  0  0  0  0  0  0  0  0  0  0
    8.3549   -0.3828   18.3428 H   0  0  0  0  0  0  0  0  0  0  0  0
    6.7155    0.5653   17.5336 N   0  0  0  0  0  0  0  0  0  0  0  0
    5.5373    1.1544   17.7903 C   0  0  0  0  0  0  0  0  0  0  0  0
    5.0123    1.5740   16.9349 H   0  0  0  0  0  0  0  0  0  0  0  0
    4.9818    1.2419   19.0713 C   0  0  0  0  0  0  0  0  0  0  0  0
    4.0391    1.7575   19.2187 H   0  0  0  0  0  0  0  0  0  0  0  0
    5.7012    0.7251   20.1495 C   0  0  0  0  0  0  0  0  0  0  0  0
    5.3103    0.7619   21.1678 H   0  0  0  0  0  0  0  0  0  0  0  0
    8.0658    0.7782   22.1742 C   0  0  0  0  0  0  0  0  0  0  0  0
    8.1106    0.4299   23.2012 H   0  0  0  0  0  0  0  0  0  0  0  0
    7.5634    1.7357   22.0459 H   0  0  0  0  0  0  0  0  0  0  0  0
    9.1578    0.3982   21.2346 C   0  0  0  0  0  0  0  0  0  0  0  0
    9.9891   -0.1947   21.5966 H   0  0  0  0  0  0  0  0  0  0  0  0
    9.3964    1.1161   20.4562 H   0  0  0  0  0  0  0  0  0  0  0  0
    5.9739   -2.3403   21.4938 S   0  0  0  0  0  0  0  0  0  0  0  0
    4.9338   -5.0073   23.8471 C   0  0  0  0  0  0  0  0  0  0  0  0
    5.2652   -4.1409   25.0249 C   0  0  0  0  0  0  0  0  0  0  0  0
    4.7670   -4.6317   26.1715 F   0  0  0  0  0  0  0  0  0  0  0  0
    6.5903   -4.0044   25.1795 F   0  0  0  0  0  0  0  0  0  0  0  0
    4.7690   -2.9054   24.8495 F   0  0  0  0  0  0  0  0  0  0  0  0
    3.8706   -5.9180   23.8663 C   0  0  0  0  0  0  0  0  0  0  0  0
    3.2207   -6.0089   24.7377 H   0  0  0  0  0  0  0  0  0  0  0  0
    3.6833   -6.7304   22.7585 C   0  0  0  0  0  0  0  0  0  0  0  0
    2.8733   -7.4468   22.6931 H   0  0  0  0  0  0  0  0  0  0  0  0
  1  2  1  0
  2  3  2  0
  3  4  1  0
  4  5  1  0
  5  6  2  0
  6  7  1  0
  7  8  2  0
  8  9  1  0
  9 10  1  0
 10 11  2  0
 11 12  1  0
 11 13  1  0
 13 14  2  0
 14 15  1  0
 14 16  1  0
 16 17  1  0
 16 18  2  0
 18 19  1  0
  9 20  1  0
 20 21  1  0
 20 22  1  0
 20 23  1  0
 23 24  1  0
 23 25  1  0
  8 26  1  0
  4 27  2  0
 27 28  1  0
 28 29  1  0
 28 30  1  0
 28 31  1  0
 27 32  1  0
 32 33  1  0
 32 34  2  0
 34 35  1  0
 34  2  1  0
 26  5  1  0
 23  9  1  0
 18 10  1  0
M  END
>  <cnnaffinity>  (1) 
-5.40993

>  <filename>  (1) 
FC(F)(F)c1cccnc1-c1nnc(C2(c3cccnc3)CC2)s1

$$$$
