
     RDKit          3D

 30 32  0  0  0  0  0  0  0  0999 V2000
    5.0236    1.6695   16.9577 H   0  0  0  0  0  0  0  0  0  0  0  0
    5.4257    1.2354   17.8691 C   0  0  0  0  0  0  0  0  0  0  0  0
    6.5866    0.5747   17.7394 N   0  0  0  0  0  0  0  0  0  0  0  0
    7.0941    0.0221   18.8443 C   0  0  0  0  0  0  0  0  0  0  0  0
    8.0391   -0.5028   18.7125 H   0  0  0  0  0  0  0  0  0  0  0  0
    6.5150    0.1003   20.1247 C   0  0  0  0  0  0  0  0  0  0  0  0
    7.1886   -0.6175   21.2347 C   0  0  0  0  0  0  0  0  0  0  0  0
    7.8281   -1.8212   21.1386 C   0  0  0  0  0  0  0  0  0  0  0  0
    7.8165   -2.4876   20.3043 H   0  0  0  0  0  0  0  0  0  0  0  0
    8.3722   -2.0761   22.4079 C   0  0  0  0  0  0  0  0  0  0  0  0
    9.0110   -2.8982   22.7034 H   0  0  0  0  0  0  0  0  0  0  0  0
    8.0752   -1.1207   23.2626 N   0  0  0  0  0  0  0  0  0  0  0  0
    7.3415   -0.2252   22.5490 N   0  0  0  0  0  0  0  0  0  0  0  0
    6.9766    1.0248   23.1296 C   0  0  0  0  0  0  0  0  0  0  0  0
    5.9557    0.9683   23.9760 N   0  0  0  0  0  0  0  0  0  0  0  0
    5.4642    2.1144   24.4483 C   0  0  0  0  0  0  0  0  0  0  0  0
    4.6391    2.0108   25.1469 H   0  0  0  0  0  0  0  0  0  0  0  0
    5.9541    3.3690   24.0820 C   0  0  0  0  0  0  0  0  0  0  0  0
    5.4707    4.2658   24.4427 H   0  0  0  0  0  0  0  0  0  0  0  0
    7.0791    3.4392   23.2618 C   0  0  0  0  0  0  0  0  0  0  0  0
    7.5062    4.4043   22.9709 H   0  0  0  0  0  0  0  0  0  0  0  0
    7.6493    2.2352   22.8356 C   0  0  0  0  0  0  0  0  0  0  0  0
    8.9023    2.2060   22.0058 C   0  0  0  0  0  0  0  0  0  0  0  0
    9.6844    1.1411   22.2382 F   0  0  0  0  0  0  0  0  0  0  0  0
    8.6030    2.1616   20.6932 F   0  0  0  0  0  0  0  0  0  0  0  0
    9.6536    3.2993   22.2278 F   0  0  0  0  0  0  0  0  0  0  0  0
    5.3092    0.8085   20.2345 C   0  0  0  0  0  0  0  0  0  0  0  0
    4.8330    0.9005   21.2078 H   0  0  0  0  0  0  0  0  0  0  0  0
    4.7476    1.3714   19.0854 C   0  0  0  0  0  0  0  0  0  0  0  0
    3.8098    1.9171   19.1185 H   0  0  0  0  0  0  0  0  0  0  0  0
  1  2  1  0
  2  3  2  0
  3  4  1  0
  4  5  1  0
  4  6  2  0
  6  7  1  0
  7  8  2  0
  8  9  1  0
  8 10  1  0
 10 11  1  0
 10 12  2  0
 12 13  1  0
 13 14  1  0
 14 15  2  0
 15 16  1  0
 16 17  1  0
 16 18  2  0
 18 19  1  0
 18 20  1  0
 20 21  1  0
 20 22  2  0
 22 23  1  0
 23 24  1  0
 23 25  1  0
 23 26  1  0
  6 27  1  0
 27 28  1  0
 27 29  2  0
 29 30  1  0
 29  2  1  0
 13  7  1  0
 22 14  1  0
M  END
>  <cnnaffinity>  (1) 
-4.93908

>  <filename>  (1) 
FC(F)(F)c1cccnc1-n1nccc1-c1cccnc1

$$$$
