
     RDKit          3D

 31 33  0  0  0  0  0  0  0  0999 V2000
    4.9169    1.7873   16.9998 H   0  0  0  0  0  0  0  0  0  0  0  0
    5.3986    1.2906   17.8404 C   0  0  0  0  0  0  0  0  0  0  0  0
    6.5539    0.6657   17.5724 N   0  0  0  0  0  0  0  0  0  0  0  0
    7.1912    0.0589   18.5813 C   0  0  0  0  0  0  0  0  0  0  0  0
    8.1377   -0.4175   18.3500 H   0  0  0  0  0  0  0  0  0  0  0  0
    6.6921    0.0220   19.9002 C   0  0  0  0  0  0  0  0  0  0  0  0
    7.2909   -0.6929   20.9501 O   0  0  0  0  0  0  0  0  0  0  0  0
    8.6218   -0.7996   21.0785 C   0  0  0  0  0  0  0  0  0  0  0  0
    9.5517   -0.1170   20.4652 N   0  0  0  0  0  0  0  0  0  0  0  0
   10.7199   -0.5806   20.9707 N   0  0  0  0  0  0  0  0  0  0  0  0
   10.5317   -1.5029   21.8304 N   0  0  0  0  0  0  0  0  0  0  0  0
    9.1839   -1.6847   21.9281 N   0  0  0  0  0  0  0  0  0  0  0  0
    8.6116   -2.6656   22.7996 C   0  0  0  0  0  0  0  0  0  0  0  0
    9.2867   -3.0179   23.9745 C   0  0  0  0  0  0  0  0  0  0  0  0
   10.2590   -2.5794   24.1980 H   0  0  0  0  0  0  0  0  0  0  0  0
    8.6919   -3.9463   24.8333 C   0  0  0  0  0  0  0  0  0  0  0  0
    9.2070   -4.2299   25.7438 H   0  0  0  0  0  0  0  0  0  0  0  0
    7.4522   -4.5177   24.5348 C   0  0  0  0  0  0  0  0  0  0  0  0
    6.9774   -5.2360   25.1984 H   0  0  0  0  0  0  0  0  0  0  0  0
    6.8144   -4.1522   23.3491 C   0  0  0  0  0  0  0  0  0  0  0  0
    5.5853   -4.7742   23.1424 O   0  0  0  0  0  0  0  0  0  0  0  0
    4.8258   -4.5227   22.0582 C   0  0  0  0  0  0  0  0  0  0  0  0
    4.4676   -3.2340   21.9342 F   0  0  0  0  0  0  0  0  0  0  0  0
    5.4258   -4.8479   20.8981 F   0  0  0  0  0  0  0  0  0  0  0  0
    3.7275   -5.2551   22.1902 F   0  0  0  0  0  0  0  0  0  0  0  0
    7.3770   -3.2364   22.4621 C   0  0  0  0  0  0  0  0  0  0  0  0
    6.8650   -2.9559   21.5490 H   0  0  0  0  0  0  0  0  0  0  0  0
    5.4710    0.6388   20.1744 C   0  0  0  0  0  0  0  0  0  0  0  0
    5.0459    0.5997   21.1803 H   0  0  0  0  0  0  0  0  0  0  0  0
    4.8262    1.2972   19.1192 C   0  0  0  0  0  0  0  0  0  0  0  0
    3.8931    1.8256   19.2690 H   0  0  0  0  0  0  0  0  0  0  0  0
  1  2  1  0
  2  3  2  0
  3  4  1  0
  4  5  1  0
  4  6  2  0
  6  7  1  0
  7  8  1  0
  8  9  2  0
  9 10  1  0
 10 11  2  0
 11 12  1  0
 12 13  1  0
 13 14  2  0
 14 15  1  0
 14 16  1  0
 16 17  1  0
 16 18  2  0
 18 19  1  0
 18 20  1  0
 20 21  1  0
 21 22  1  0
 22 23  1  0
 22 24  1  0
 22 25  1  0
 20 26  2  0
 26 27  1  0
  6 28  1  0
 28 29  1  0
 28 30  2  0
 30 31  1  0
 30  2  1  0
 12  8  1  0
 26 13  1  0
M  END
>  <cnnaffinity>  (1) 
-5.38096

>  <filename>  (1) 
FC(F)(F)Oc1cccc(-n2nnnc2Oc2cccnc2)c1

$$$$
