
     RDKit          3D

 24 25  0  0  0  0  0  0  0  0999 V2000
    4.9429    1.7741   17.0000 H   0  0  0  0  0  0  0  0  0  0  0  0
    5.4121    1.2841   17.8511 C   0  0  0  0  0  0  0  0  0  0  0  0
    6.5721    0.6585   17.6090 N   0  0  0  0  0  0  0  0  0  0  0  0
    7.1673    0.0451   18.6371 C   0  0  0  0  0  0  0  0  0  0  0  0
    8.1102   -0.4344   18.3812 H   0  0  0  0  0  0  0  0  0  0  0  0
    6.6400   -0.0066   19.9370 C   0  0  0  0  0  0  0  0  0  0  0  0
    7.3639   -0.7207   21.0099 C   0  0  0  0  0  0  0  0  0  0  0  0
    6.6020   -1.2913   21.9600 N   0  0  0  0  0  0  0  0  0  0  0  0
    7.2082   -1.9664   22.9276 C   0  0  0  0  0  0  0  0  0  0  0  0
    6.1657   -2.7257   24.1314 S   0  0  0  0  0  0  0  0  0  0  0  0
    6.0429   -1.2549   25.2448 C   0  0  0  0  0  0  0  0  0  0  0  0
    5.2755   -1.6060   26.2807 F   0  0  0  0  0  0  0  0  0  0  0  0
    7.2463   -0.9091   25.7104 F   0  0  0  0  0  0  0  0  0  0  0  0
    5.5108   -0.1971   24.6552 F   0  0  0  0  0  0  0  0  0  0  0  0
    8.6021   -2.0596   23.0559 C   0  0  0  0  0  0  0  0  0  0  0  0
    9.0186   -2.5885   23.9058 H   0  0  0  0  0  0  0  0  0  0  0  0
    9.4036   -1.4322   22.1027 C   0  0  0  0  0  0  0  0  0  0  0  0
   10.4921   -1.4678   22.1734 H   0  0  0  0  0  0  0  0  0  0  0  0
    8.7643   -0.7592   21.0554 C   0  0  0  0  0  0  0  0  0  0  0  0
    9.3304   -0.2301   20.3035 H   0  0  0  0  0  0  0  0  0  0  0  0
    5.4219    0.6470   20.1737 C   0  0  0  0  0  0  0  0  0  0  0  0
    4.9884    0.6273   21.1754 H   0  0  0  0  0  0  0  0  0  0  0  0
    4.8093    1.3098   19.1130 C   0  0  0  0  0  0  0  0  0  0  0  0
    3.8790    1.8428   19.2511 H   0  0  0  0  0  0  0  0  0  0  0  0
  1  2  1  0
  2  3  2  0
  3  4  1  0
  4  5  1  0
  4  6  2  0
  6  7  1  0
  7  8  2  0
  8  9  1  0
  9 10  1  0
 10 11  1  0
 11 12  1  0
 11 13  1  0
 11 14  1  0
  9 15  2  0
 15 16  1  0
 15 17  1  0
 17 18  1  0
 17 19  2  0
 19 20  1  0
  6 21  1  0
 21 22  1  0
 21 23  2  0
 23 24  1  0
 23  2  1  0
 19  7  1  0
M  END
>  <cnnaffinity>  (1) 
-4.54278

>  <filename>  (1) 
FC(F)(F)Sc1cccc(-c2cccnc2)n1

$$$$
