
     RDKit          3D

 30 32  0  0  0  0  0  0  0  0999 V2000
    4.9085    1.7715   17.0066 H   0  0  0  0  0  0  0  0  0  0  0  0
    5.4036    1.2908   17.8469 C   0  0  0  0  0  0  0  0  0  0  0  0
    6.5729    0.6813   17.5853 N   0  0  0  0  0  0  0  0  0  0  0  0
    7.1784    0.0577   18.5981 C   0  0  0  0  0  0  0  0  0  0  0  0
    8.1276   -0.4390   18.3826 H   0  0  0  0  0  0  0  0  0  0  0  0
    6.6530    0.0203   19.8968 C   0  0  0  0  0  0  0  0  0  0  0  0
    7.3700   -0.7219   20.9226 C   0  0  0  0  0  0  0  0  0  0  0  0
    7.9345   -1.8838   20.7336 N   0  0  0  0  0  0  0  0  0  0  0  0
    8.4314   -2.3070   21.9371 N   0  0  0  0  0  0  0  0  0  0  0  0
    8.1650   -1.3769   22.8091 C   0  0  0  0  0  0  0  0  0  0  0  0
    8.4513   -1.3902   23.8481 H   0  0  0  0  0  0  0  0  0  0  0  0
    7.4915   -0.3273   22.2375 N   0  0  0  0  0  0  0  0  0  0  0  0
    7.1453    0.9169   22.8630 C   0  0  0  0  0  0  0  0  0  0  0  0
    7.4034    2.1393   22.2206 C   0  0  0  0  0  0  0  0  0  0  0  0
    7.8603    2.1488   21.2362 H   0  0  0  0  0  0  0  0  0  0  0  0
    7.0483    3.3395   22.8382 C   0  0  0  0  0  0  0  0  0  0  0  0
    7.2310    4.2805   22.3285 H   0  0  0  0  0  0  0  0  0  0  0  0
    6.4651    3.3431   24.1055 C   0  0  0  0  0  0  0  0  0  0  0  0
    6.1895    4.2888   24.5654 H   0  0  0  0  0  0  0  0  0  0  0  0
    6.2460    2.1267   24.7675 C   0  0  0  0  0  0  0  0  0  0  0  0
    5.5826    2.1178   26.1214 C   0  0  0  0  0  0  0  0  0  0  0  0
    5.8372    3.2308   26.8302 F   0  0  0  0  0  0  0  0  0  0  0  0
    4.2456    2.0325   26.0011 F   0  0  0  0  0  0  0  0  0  0  0  0
    5.9713    1.0790   26.8786 F   0  0  0  0  0  0  0  0  0  0  0  0
    6.5694    0.9135   24.1392 C   0  0  0  0  0  0  0  0  0  0  0  0
    6.3693   -0.0369   24.6276 H   0  0  0  0  0  0  0  0  0  0  0  0
    5.4313    0.6524   20.1551 C   0  0  0  0  0  0  0  0  0  0  0  0
    5.0088    0.6306   21.1579 H   0  0  0  0  0  0  0  0  0  0  0  0
    4.8014    1.3122   19.1105 C   0  0  0  0  0  0  0  0  0  0  0  0
    3.8699    1.8460   19.2669 H   0  0  0  0  0  0  0  0  0  0  0  0
  1  2  1  0
  2  3  2  0
  3  4  1  0
  4  5  1  0
  4  6  2  0
  6  7  1  0
  7  8  2  0
  8  9  1  0
  9 10  2  0
 10 11  1  0
 10 12  1  0
 12 13  1  0
 13 14  2  0
 14 15  1  0
 14 16  1  0
 16 17  1  0
 16 18  2  0
 18 19  1  0
 18 20  1  0
 20 21  1  0
 21 22  1  0
 21 23  1  0
 21 24  1  0
 20 25  2  0
 25 26  1  0
  6 27  1  0
 27 28  1  0
 27 29  2  0
 29 30  1  0
 29  2  1  0
 12  7  1  0
 25 13  1  0
M  END
>  <cnnaffinity>  (1) 
-5.08786

>  <filename>  (1) 
FC(F)(F)c1cccc(-n2cnnc2-c2cccnc2)c1

$$$$
