
     RDKit          3D

 35 38  0  0  0  0  0  0  0  0999 V2000
    4.9933    1.8647   16.8841 H   0  0  0  0  0  0  0  0  0  0  0  0
    5.4195    1.3044   17.7149 C   0  0  0  0  0  0  0  0  0  0  0  0
    6.5625    0.6441   17.4697 N   0  0  0  0  0  0  0  0  0  0  0  0
    7.1302   -0.0075   18.4910 C   0  0  0  0  0  0  0  0  0  0  0  0
    8.0601   -0.5286   18.2698 H   0  0  0  0  0  0  0  0  0  0  0  0
    6.5975   -0.0361   19.7941 C   0  0  0  0  0  0  0  0  0  0  0  0
    7.3562   -0.6394   20.9046 C   0  0  0  0  0  0  0  0  0  0  0  0
    8.4942   -1.3147   20.6799 N   0  0  0  0  0  0  0  0  0  0  0  0
    8.9382   -1.5824   21.9262 N   0  0  0  0  0  0  0  0  0  0  0  0
   10.0481   -2.2147   22.4671 C   0  0  0  0  0  0  0  0  0  0  0  0
   10.7887   -2.6833   21.8413 H   0  0  0  0  0  0  0  0  0  0  0  0
    9.9245   -2.0920   23.8121 C   0  0  0  0  0  0  0  0  0  0  0  0
   10.5484   -2.4742   24.6041 H   0  0  0  0  0  0  0  0  0  0  0  0
    8.7626   -1.3800   24.1158 N   0  0  0  0  0  0  0  0  0  0  0  0
    8.2774   -1.0051   25.3969 C   0  0  0  0  0  0  0  0  0  0  0  0
    9.1632   -0.6633   26.4361 C   0  0  0  0  0  0  0  0  0  0  0  0
   10.2386   -0.7064   26.2933 H   0  0  0  0  0  0  0  0  0  0  0  0
    8.6562   -0.2111   27.6561 C   0  0  0  0  0  0  0  0  0  0  0  0
    9.3350    0.0255   28.4707 H   0  0  0  0  0  0  0  0  0  0  0  0
    7.2813   -0.0712   27.8469 C   0  0  0  0  0  0  0  0  0  0  0  0
    6.9132    0.3611   28.7719 H   0  0  0  0  0  0  0  0  0  0  0  0
    6.3921   -0.4614   26.8358 C   0  0  0  0  0  0  0  0  0  0  0  0
    4.9011   -0.3820   27.0859 C   0  0  0  0  0  0  0  0  0  0  0  0
    4.4372   -1.4855   27.7048 F   0  0  0  0  0  0  0  0  0  0  0  0
    4.5769    0.6638   27.8739 F   0  0  0  0  0  0  0  0  0  0  0  0
    4.2046   -0.2478   25.9424 F   0  0  0  0  0  0  0  0  0  0  0  0
    6.8900   -0.9392   25.6141 C   0  0  0  0  0  0  0  0  0  0  0  0
    6.2296   -1.2282   24.7974 H   0  0  0  0  0  0  0  0  0  0  0  0
    8.1502   -1.0896   22.9037 C   0  0  0  0  0  0  0  0  0  0  0  0
    7.0663   -0.4917   22.2823 C   0  0  0  0  0  0  0  0  0  0  0  0
    6.1878   -0.0458   22.7066 H   0  0  0  0  0  0  0  0  0  0  0  0
    5.3757    0.6191   20.0178 C   0  0  0  0  0  0  0  0  0  0  0  0
    4.9056    0.6113   21.0037 H   0  0  0  0  0  0  0  0  0  0  0  0
    4.7849    1.3043   18.9615 C   0  0  0  0  0  0  0  0  0  0  0  0
    3.8700    1.8662   19.1053 H   0  0  0  0  0  0  0  0  0  0  0  0
  1  2  1  0
  2  3  2  0
  3  4  1  0
  4  5  1  0
  4  6  2  0
  6  7  1  0
  7  8  2  0
  8  9  1  0
  9 10  1  0
 10 11  1  0
 10 12  2  0
 12 13  1  0
 12 14  1  0
 14 15  1  0
 15 16  2  0
 16 17  1  0
 16 18  1  0
 18 19  1  0
 18 20  2  0
 20 21  1  0
 20 22  1  0
 22 23  1  0
 23 24  1  0
 23 25  1  0
 23 26  1  0
 22 27  2  0
 27 28  1  0
 14 29  1  0
 29 30  2  0
 30 31  1  0
  6 32  1  0
 32 33  1  0
 32 34  2  0
 34 35  1  0
 34  2  1  0
 30  7  1  0
 29  9  1  0
 27 15  1  0
M  END
>  <cnnaffinity>  (1) 
-5.59894

>  <filename>  (1) 
FC(F)(F)c1cccc(-n2ccn3nc(-c4cccnc4)cc23)c1

$$$$
