
     RDKit          3D

 34 36  0  0  0  0  0  0  0  0999 V2000
    5.0598    1.7944   16.8575 H   0  0  0  0  0  0  0  0  0  0  0  0
    5.4790    1.2945   17.7272 C   0  0  0  0  0  0  0  0  0  0  0  0
    6.6339    0.6401   17.5262 N   0  0  0  0  0  0  0  0  0  0  0  0
    7.1798    0.0291   18.5823 C   0  0  0  0  0  0  0  0  0  0  0  0
    8.1148   -0.5018   18.4150 H   0  0  0  0  0  0  0  0  0  0  0  0
    6.6208    0.0416   19.8752 C   0  0  0  0  0  0  0  0  0  0  0  0
    7.3561   -0.6067   20.9647 C   0  0  0  0  0  0  0  0  0  0  0  0
    8.5608   -1.2280   20.7225 N   0  0  0  0  0  0  0  0  0  0  0  0
    8.9503   -1.7191   21.8690 C   0  0  0  0  0  0  0  0  0  0  0  0
    9.8898   -2.2424   22.0419 H   0  0  0  0  0  0  0  0  0  0  0  0
    8.0626   -1.4554   22.8739 N   0  0  0  0  0  0  0  0  0  0  0  0
    8.0376   -2.0440   24.2201 C   0  0  0  0  0  0  0  0  0  0  0  0
    7.5583   -1.3166   24.8856 H   0  0  0  0  0  0  0  0  0  0  0  0
    9.0686   -2.1651   24.5697 H   0  0  0  0  0  0  0  0  0  0  0  0
    7.2609   -3.3524   24.2597 C   0  0  0  0  0  0  0  0  0  0  0  0
    5.8667   -3.3111   24.4213 C   0  0  0  0  0  0  0  0  0  0  0  0
    5.3851   -2.3525   24.6170 H   0  0  0  0  0  0  0  0  0  0  0  0
    5.0899   -4.4615   24.2923 C   0  0  0  0  0  0  0  0  0  0  0  0
    4.0097   -4.3831   24.3850 H   0  0  0  0  0  0  0  0  0  0  0  0
    5.7018   -5.6917   23.9994 C   0  0  0  0  0  0  0  0  0  0  0  0
    4.8652   -6.9544   23.9533 C   0  0  0  0  0  0  0  0  0  0  0  0
    4.6350   -7.4459   25.1889 F   0  0  0  0  0  0  0  0  0  0  0  0
    5.4506   -7.9309   23.2361 F   0  0  0  0  0  0  0  0  0  0  0  0
    3.6547   -6.7375   23.4017 F   0  0  0  0  0  0  0  0  0  0  0  0
    7.0912   -5.7319   23.7959 C   0  0  0  0  0  0  0  0  0  0  0  0
    7.5745   -6.6395   23.4436 H   0  0  0  0  0  0  0  0  0  0  0  0
    7.8671   -4.5860   23.9800 C   0  0  0  0  0  0  0  0  0  0  0  0
    8.9507   -4.6687   23.8950 H   0  0  0  0  0  0  0  0  0  0  0  0
    7.0394   -0.7315   22.2892 C   0  0  0  0  0  0  0  0  0  0  0  0
    6.2026   -0.3635   22.8693 H   0  0  0  0  0  0  0  0  0  0  0  0
    5.3897    0.6964   20.0567 C   0  0  0  0  0  0  0  0  0  0  0  0
    4.8993    0.7189   21.0327 H   0  0  0  0  0  0  0  0  0  0  0  0
    4.8187    1.3388   18.9603 C   0  0  0  0  0  0  0  0  0  0  0  0
    3.8844    1.8814   19.0471 H   0  0  0  0  0  0  0  0  0  0  0  0
  1  2  1  0
  2  3  2  0
  3  4  1  0
  4  5  1  0
  4  6  2  0
  6  7  1  0
  7  8  1  0
  8  9  2  0
  9 10  1  0
  9 11  1  0
 11 12  1  0
 12 13  1  0
 12 14  1  0
 12 15  1  0
 15 16  2  0
 16 17  1  0
 16 18  1  0
 18 19  1  0
 18 20  2  0
 20 21  1  0
 21 22  1  0
 21 23  1  0
 21 24  1  0
 20 25  1  0
 25 26  1  0
 25 27  2  0
 27 28  1  0
 11 29  1  0
 29 30  1  0
  6 31  1  0
 31 32  1  0
 31 33  2  0
 33 34  1  0
 33  2  1  0
 29  7  2  0
 27 15  1  0
M  END
>  <cnnaffinity>  (1) 
-5.38344

>  <filename>  (1) 
FC(F)(F)c1ccc(Cn2cnc(-c3cccnc3)c2)cc1

$$$$
