
     RDKit          3D

 31 33  0  0  0  0  0  0  0  0999 V2000
    9.3729   -0.3338   20.3383 H   0  0  0  0  0  0  0  0  0  0  0  0
    8.7523   -0.8007   21.0942 C   0  0  0  0  0  0  0  0  0  0  0  0
    9.3785   -1.3879   22.1072 N   0  0  0  0  0  0  0  0  0  0  0  0
    8.6477   -1.9551   23.0822 N   0  0  0  0  0  0  0  0  0  0  0  0
    7.3106   -1.8793   23.0316 C   0  0  0  0  0  0  0  0  0  0  0  0
    6.5556   -2.4974   24.1940 C   0  0  0  0  0  0  0  0  0  0  0  0
    5.5884   -1.6932   24.8294 C   0  0  0  0  0  0  0  0  0  0  0  0
    5.5090   -0.6438   24.5525 H   0  0  0  0  0  0  0  0  0  0  0  0
    4.7138   -2.2297   25.7701 C   0  0  0  0  0  0  0  0  0  0  0  0
    3.9160   -1.6187   26.1848 H   0  0  0  0  0  0  0  0  0  0  0  0
    4.8456   -3.5674   26.1517 C   0  0  0  0  0  0  0  0  0  0  0  0
    4.1167   -4.0248   26.8127 H   0  0  0  0  0  0  0  0  0  0  0  0
    5.8931   -4.3348   25.6490 C   0  0  0  0  0  0  0  0  0  0  0  0
    6.0232   -5.3524   26.0067 H   0  0  0  0  0  0  0  0  0  0  0  0
    6.7685   -3.8218   24.6768 C   0  0  0  0  0  0  0  0  0  0  0  0
    7.8922   -4.7349   24.1725 C   0  0  0  0  0  0  0  0  0  0  0  0
    7.9316   -4.7742   22.8249 F   0  0  0  0  0  0  0  0  0  0  0  0
    9.0931   -4.3243   24.6046 F   0  0  0  0  0  0  0  0  0  0  0  0
    7.7486   -6.0072   24.5923 F   0  0  0  0  0  0  0  0  0  0  0  0
    6.6182   -1.2699   22.0410 N   0  0  0  0  0  0  0  0  0  0  0  0
    7.3322   -0.7453   21.0363 C   0  0  0  0  0  0  0  0  0  0  0  0
    6.6144   -0.0441   19.9313 C   0  0  0  0  0  0  0  0  0  0  0  0
    7.1478    0.0075   18.6276 C   0  0  0  0  0  0  0  0  0  0  0  0
    8.0890   -0.4830   18.3841 H   0  0  0  0  0  0  0  0  0  0  0  0
    6.5733    0.6454   17.6034 N   0  0  0  0  0  0  0  0  0  0  0  0
    5.4224    1.2917   17.8373 C   0  0  0  0  0  0  0  0  0  0  0  0
    4.9748    1.8044   16.9870 H   0  0  0  0  0  0  0  0  0  0  0  0
    4.8057    1.3117   19.0897 C   0  0  0  0  0  0  0  0  0  0  0  0
    3.8819    1.8661   19.2190 H   0  0  0  0  0  0  0  0  0  0  0  0
    5.4033    0.6362   20.1515 C   0  0  0  0  0  0  0  0  0  0  0  0
    4.9571    0.6437   21.1484 H   0  0  0  0  0  0  0  0  0  0  0  0
  1  2  1  0
  2  3  2  0
  3  4  1  0
  4  5  2  0
  5  6  1  0
  6  7  2  0
  7  8  1  0
  7  9  1  0
  9 10  1  0
  9 11  2  0
 11 12  1  0
 11 13  1  0
 13 14  1  0
 13 15  2  0
 15 16  1  0
 16 17  1  0
 16 18  1  0
 16 19  1  0
  5 20  1  0
 20 21  2  0
 21 22  1  0
 22 23  2  0
 23 24  1  0
 23 25  1  0
 25 26  2  0
 26 27  1  0
 26 28  1  0
 28 29  1  0
 28 30  2  0
 30 31  1  0
 21  2  1  0
 30 22  1  0
 15  6  1  0
M  END
>  <cnnaffinity>  (1) 
-5.3353

>  <filename>  (1) 
FC(F)(F)c1ccccc1-c1nncc(-c2cccnc2)n1

$$$$
