
     RDKit          3D

 31 33  0  0  0  0  0  0  0  0999 V2000
    4.9314    1.8017   16.9842 H   0  0  0  0  0  0  0  0  0  0  0  0
    5.3971    1.2984   17.8299 C   0  0  0  0  0  0  0  0  0  0  0  0
    6.5593    0.6782   17.5733 N   0  0  0  0  0  0  0  0  0  0  0  0
    7.1548    0.0467   18.5882 C   0  0  0  0  0  0  0  0  0  0  0  0
    8.1024   -0.4377   18.3578 H   0  0  0  0  0  0  0  0  0  0  0  0
    6.6359    0.0116   19.8928 C   0  0  0  0  0  0  0  0  0  0  0  0
    7.3798   -0.7068   20.9254 C   0  0  0  0  0  0  0  0  0  0  0  0
    7.9806   -1.8387   20.7111 N   0  0  0  0  0  0  0  0  0  0  0  0
    8.4814   -2.1762   21.9262 N   0  0  0  0  0  0  0  0  0  0  0  0
    9.0230   -3.0127   22.0877 H   0  0  0  0  0  0  0  0  0  0  0  0
    8.2509   -1.2801   22.9000 C   0  0  0  0  0  0  0  0  0  0  0  0
    8.7978   -1.3991   24.4621 S   0  0  0  0  0  0  0  0  0  0  0  0
    7.5135   -0.3082   22.2467 N   0  0  0  0  0  0  0  0  0  0  0  0
    7.1168    0.9430   22.8202 C   0  0  0  0  0  0  0  0  0  0  0  0
    7.5160    2.1408   22.2176 C   0  0  0  0  0  0  0  0  0  0  0  0
    8.0962    2.1018   21.2978 H   0  0  0  0  0  0  0  0  0  0  0  0
    7.1165    3.3509   22.7844 C   0  0  0  0  0  0  0  0  0  0  0  0
    7.3946    4.2863   22.3084 H   0  0  0  0  0  0  0  0  0  0  0  0
    6.3461    3.3677   23.9517 C   0  0  0  0  0  0  0  0  0  0  0  0
    6.0489    4.3199   24.3835 H   0  0  0  0  0  0  0  0  0  0  0  0
    5.9658    2.1621   24.5645 C   0  0  0  0  0  0  0  0  0  0  0  0
    5.1086    2.1820   25.8158 C   0  0  0  0  0  0  0  0  0  0  0  0
    3.7953    2.1483   25.5122 F   0  0  0  0  0  0  0  0  0  0  0  0
    5.3515    1.1301   26.6193 F   0  0  0  0  0  0  0  0  0  0  0  0
    5.3039    3.2931   26.5524 F   0  0  0  0  0  0  0  0  0  0  0  0
    6.3451    0.9418   23.9818 C   0  0  0  0  0  0  0  0  0  0  0  0
    6.0893   -0.0204   24.4180 H   0  0  0  0  0  0  0  0  0  0  0  0
    5.4161    0.6533   20.1469 C   0  0  0  0  0  0  0  0  0  0  0  0
    5.0101    0.6508   21.1616 H   0  0  0  0  0  0  0  0  0  0  0  0
    4.7901    1.3109   19.0916 C   0  0  0  0  0  0  0  0  0  0  0  0
    3.8621    1.8485   19.2364 H   0  0  0  0  0  0  0  0  0  0  0  0
  1  2  1  0
  2  3  2  0
  3  4  1  0
  4  5  1  0
  4  6  2  0
  6  7  1  0
  7  8  2  0
  8  9  1  0
  9 10  1  0
  9 11  1  0
 11 12  2  0
 11 13  1  0
 13 14  1  0
 14 15  2  0
 15 16  1  0
 15 17  1  0
 17 18  1  0
 17 19  2  0
 19 20  1  0
 19 21  1  0
 21 22  1  0
 22 23  1  0
 22 24  1  0
 22 25  1  0
 21 26  2  0
 26 27  1  0
  6 28  1  0
 28 29  1  0
 28 30  2  0
 30 31  1  0
 30  2  1  0
 13  7  1  0
 26 14  1  0
M  END
>  <cnnaffinity>  (1) 
-5.19846

>  <filename>  (1) 
FC(F)(F)c1cccc(-n2c(-c3cccnc3)n[nH]c2=S)c1

$$$$
