
     RDKit          3D

 35 37  0  0  0  0  0  0  0  0999 V2000
    6.1155   -2.9723   23.0400 H   0  0  0  0  0  0  0  0  0  0  0  0
    6.7036   -2.1444   22.6507 C   0  0  0  0  0  0  0  0  0  0  0  0
    7.7655   -1.7689   23.3610 N   0  0  0  0  0  0  0  0  0  0  0  0
    8.4830   -0.7666   22.8613 C   0  0  0  0  0  0  0  0  0  0  0  0
    9.3546   -0.4474   23.4419 H   0  0  0  0  0  0  0  0  0  0  0  0
    8.1846   -0.0975   21.6661 C   0  0  0  0  0  0  0  0  0  0  0  0
    9.1103    1.0133   21.0707 C   0  0  0  0  0  0  0  0  0  0  0  0
   10.1117    0.5393   20.9270 H   0  0  0  0  0  0  0  0  0  0  0  0
    8.7813    1.1762   20.0195 H   0  0  0  0  0  0  0  0  0  0  0  0
    9.3429    2.2771   22.0917 C   0  0  0  0  0  0  0  0  0  0  0  0
    9.3307    2.5220   21.8827 C   0  0  0  0  0  0  0  0  0  0  0  0
    8.7981    3.3564   21.3758 H   0  0  0  0  0  0  0  0  0  0  0  0
    7.1185    3.3601   21.6398 C   0  0  0  0  0  0  0  0  0  0  0  0
    6.3764    3.4616   20.8456 H   0  0  0  0  0  0  0  0  0  0  0  0
    6.8458    3.5088   22.9522 C   0  0  0  0  0  0  0  0  0  0  0  0
    5.6374    4.3708   23.3133 C   0  0  0  0  0  0  0  0  0  0  0  0
    4.5125    3.9647   22.6815 F   0  0  0  0  0  0  0  0  0  0  0  0
    5.8384    5.6536   22.9440 F   0  0  0  0  0  0  0  0  0  0  0  0
    5.3655    4.3775   24.6285 F   0  0  0  0  0  0  0  0  0  0  0  0
    7.6989    3.0056   24.0423 C   0  0  0  0  0  0  0  0  0  0  0  0
    7.3944    3.0827   25.0750 H   0  0  0  0  0  0  0  0  0  0  0  0
    8.9412    2.5519   23.6429 C   0  0  0  0  0  0  0  0  0  0  0  0
    9.5129    1.8672   24.3010 H   0  0  0  0  0  0  0  0  0  0  0  0
    7.0114   -0.5625   21.0506 C   0  0  0  0  0  0  0  0  0  0  0  0
    6.4568    0.0404   19.8244 C   0  0  0  0  0  0  0  0  0  0  0  0
    7.0558   -0.2285   18.5914 C   0  0  0  0  0  0  0  0  0  0  0  0
    7.9495   -0.8507   18.5133 H   0  0  0  0  0  0  0  0  0  0  0  0
    6.6047    0.2527   17.4236 N   0  0  0  0  0  0  0  0  0  0  0  0
    5.4784    0.9761   17.4488 C   0  0  0  0  0  0  0  0  0  0  0  0
    5.1286    1.3575   16.4925 H   0  0  0  0  0  0  0  0  0  0  0  0
    4.7543    1.2352   18.6187 C   0  0  0  0  0  0  0  0  0  0  0  0
    3.8240    1.7955   18.5611 H   0  0  0  0  0  0  0  0  0  0  0  0
    5.2483    0.7510   19.8289 C   0  0  0  0  0  0  0  0  0  0  0  0
    4.6996    0.9051   20.7623 H   0  0  0  0  0  0  0  0  0  0  0  0
    6.2958   -1.5987   21.5095 N   0  0  0  0  0  0  0  0  0  0  0  0
  1  2  1  0
  2  3  2  0
  3  4  1  0
  4  5  1  0
  4  6  2  0
  6  7  1  0
  7  8  1  0
  7  9  1  0
  7 10  1  0
 10 11  2  0
 11 12  1  0
 11 13  1  0
 13 14  1  0
 13 15  2  0
 15 16  1  0
 16 17  1  0
 16 18  1  0
 16 19  1  0
 15 20  1  0
 20 21  1  0
 20 22  2  0
 22 23  1  0
  6 24  1  0
 24 25  1  0
 25 26  2  0
 26 27  1  0
 26 28  1  0
 28 29  2  0
 29 30  1  0
 29 31  1  0
 31 32  1  0
 31 33  2  0
 33 34  1  0
 24 35  2  0
 35  2  1  0
 22 10  1  0
 33 25  1  0
M  END
>  <cnnaffinity>  (1) 
-5.29767

>  <filename>  (1) 
FC(F)(F)c1ccc(Cc2cncnc2-c2cccnc2)cc1

$$$$
