
     RDKit          3D

 33 35  0  0  0  0  0  0  0  0999 V2000
    9.7329   -2.4110   22.1951 H   0  0  0  0  0  0  0  0  0  0  0  0
    8.8421   -1.8243   22.0025 C   0  0  0  0  0  0  0  0  0  0  0  0
    8.5373   -1.3405   20.7429 N   0  0  0  0  0  0  0  0  0  0  0  0
    7.4140   -0.7140   20.9109 C   0  0  0  0  0  0  0  0  0  0  0  0
    6.6422    0.0085   19.9133 C   0  0  0  0  0  0  0  0  0  0  0  0
    7.1675    0.0520   18.6143 C   0  0  0  0  0  0  0  0  0  0  0  0
    8.1169   -0.4287   18.3888 H   0  0  0  0  0  0  0  0  0  0  0  0
    6.5661    0.6658   17.5946 N   0  0  0  0  0  0  0  0  0  0  0  0
    5.4047    1.2864   17.8461 C   0  0  0  0  0  0  0  0  0  0  0  0
    4.9439    1.7830   16.9949 H   0  0  0  0  0  0  0  0  0  0  0  0
    4.8020    1.3089   19.1102 C   0  0  0  0  0  0  0  0  0  0  0  0
    3.8707    1.8451   19.2417 H   0  0  0  0  0  0  0  0  0  0  0  0
    5.4217    0.6575   20.1728 C   0  0  0  0  0  0  0  0  0  0  0  0
    4.9819    0.6530   21.1726 H   0  0  0  0  0  0  0  0  0  0  0  0
    6.9443   -0.7580   22.1831 O   0  0  0  0  0  0  0  0  0  0  0  0
    7.8813   -1.4613   22.8829 C   0  0  0  0  0  0  0  0  0  0  0  0
    7.6489   -1.7752   24.3221 C   0  0  0  0  0  0  0  0  0  0  0  0
    8.6306   -1.9018   24.7884 H   0  0  0  0  0  0  0  0  0  0  0  0
    7.1488   -0.9532   24.8474 H   0  0  0  0  0  0  0  0  0  0  0  0
    6.8664   -3.0622   24.4800 C   0  0  0  0  0  0  0  0  0  0  0  0
    5.4718   -3.0595   24.5745 C   0  0  0  0  0  0  0  0  0  0  0  0
    4.9617   -2.1020   24.6012 H   0  0  0  0  0  0  0  0  0  0  0  0
    4.7431   -4.2503   24.6389 C   0  0  0  0  0  0  0  0  0  0  0  0
    3.6560   -4.2005   24.7079 H   0  0  0  0  0  0  0  0  0  0  0  0
    5.4095   -5.4911   24.6226 C   0  0  0  0  0  0  0  0  0  0  0  0
    4.5974   -6.7714   24.7741 C   0  0  0  0  0  0  0  0  0  0  0  0
    3.3474   -6.6371   24.2808 F   0  0  0  0  0  0  0  0  0  0  0  0
    5.1413   -7.8273   24.1420 F   0  0  0  0  0  0  0  0  0  0  0  0
    4.4681   -7.1163   26.0717 F   0  0  0  0  0  0  0  0  0  0  0  0
    6.8193   -5.4863   24.5521 C   0  0  0  0  0  0  0  0  0  0  0  0
    7.4458   -6.3655   24.5717 H   0  0  0  0  0  0  0  0  0  0  0  0
    7.5271   -4.2925   24.4692 C   0  0  0  0  0  0  0  0  0  0  0  0
    8.6136   -4.3474   24.4048 H   0  0  0  0  0  0  0  0  0  0  0  0
  1  2  1  0
  2  3  1  0
  3  4  2  0
  4  5  1  0
  5  6  2  0
  6  7  1  0
  6  8  1  0
  8  9  2  0
  9 10  1  0
  9 11  1  0
 11 12  1  0
 11 13  2  0
 13 14  1  0
  4 15  1  0
 15 16  1  0
 16 17  1  0
 17 18  1  0
 17 19  1  0
 17 20  1  0
 20 21  2  0
 21 22  1  0
 21 23  1  0
 23 24  1  0
 23 25  2  0
 25 26  1  0
 26 27  1  0
 26 28  1  0
 26 29  1  0
 25 30  1  0
 30 31  1  0
 30 32  2  0
 32 33  1  0
 16  2  2  0
 32 20  1  0
 13  5  1  0
M  END
>  <cnnaffinity>  (1) 
-5.37351

>  <filename>  (1) 
FC(F)(F)c1ccc(Cc2cnc(-c3cccnc3)o2)cc1

$$$$
