
     RDKit          3D

 33 36  0  0  0  0  0  0  0  0999 V2000
    4.9310    1.7987   16.9773 H   0  0  0  0  0  0  0  0  0  0  0  0
    5.3912    1.2923   17.8279 C   0  0  0  0  0  0  0  0  0  0  0  0
    6.5522    0.6669   17.5820 N   0  0  0  0  0  0  0  0  0  0  0  0
    7.1569    0.0604   18.6110 C   0  0  0  0  0  0  0  0  0  0  0  0
    8.1088   -0.4024   18.3561 H   0  0  0  0  0  0  0  0  0  0  0  0
    6.6542    0.0341   19.9308 C   0  0  0  0  0  0  0  0  0  0  0  0
    7.3950   -0.6537   21.0101 C   0  0  0  0  0  0  0  0  0  0  0  0
    8.1609   -1.7419   20.8756 C   0  0  0  0  0  0  0  0  0  0  0  0
    8.3918   -2.1231   19.9197 H   0  0  0  0  0  0  0  0  0  0  0  0
    8.8347   -2.3639   22.3437 S   0  0  0  0  0  0  0  0  0  0  0  0
    8.1218   -1.0319   23.1892 C   0  0  0  0  0  0  0  0  0  0  0  0
    8.1455   -0.5286   24.3974 N   0  0  0  0  0  0  0  0  0  0  0  0
    7.3762    0.5860   24.2282 C   0  0  0  0  0  0  0  0  0  0  0  0
    7.1061    1.5207   25.3115 C   0  0  0  0  0  0  0  0  0  0  0  0
    7.6478    1.2628   26.5782 C   0  0  0  0  0  0  0  0  0  0  0  0
    8.2551    0.3679   26.7255 H   0  0  0  0  0  0  0  0  0  0  0  0
    7.3975    2.1517   27.6133 C   0  0  0  0  0  0  0  0  0  0  0  0
    7.8212    1.9481   28.5914 H   0  0  0  0  0  0  0  0  0  0  0  0
    6.6085    3.2858   27.3879 C   0  0  0  0  0  0  0  0  0  0  0  0
    6.4166    3.9666   28.2085 H   0  0  0  0  0  0  0  0  0  0  0  0
    6.0632    3.5372   26.1181 C   0  0  0  0  0  0  0  0  0  0  0  0
    5.2521    4.7860   25.8635 C   0  0  0  0  0  0  0  0  0  0  0  0
    6.0269    5.8043   25.4425 F   0  0  0  0  0  0  0  0  0  0  0  0
    4.6189    5.2107   26.9720 F   0  0  0  0  0  0  0  0  0  0  0  0
    4.3118    4.5957   24.9192 F   0  0  0  0  0  0  0  0  0  0  0  0
    6.3187    2.6553   25.0671 C   0  0  0  0  0  0  0  0  0  0  0  0
    5.9286    2.8124   24.0602 H   0  0  0  0  0  0  0  0  0  0  0  0
    6.8940    0.7891   23.0081 N   0  0  0  0  0  0  0  0  0  0  0  0
    7.3839   -0.2763   22.3486 N   0  0  0  0  0  0  0  0  0  0  0  0
    5.4250    0.6737   20.1589 C   0  0  0  0  0  0  0  0  0  0  0  0
    5.0090    0.6749   21.1666 H   0  0  0  0  0  0  0  0  0  0  0  0
    4.7910    1.3114   19.0909 C   0  0  0  0  0  0  0  0  0  0  0  0
    3.8617    1.8488   19.2314 H   0  0  0  0  0  0  0  0  0  0  0  0
  1  2  1  0
  2  3  2  0
  3  4  1  0
  4  5  1  0
  4  6  2  0
  6  7  1  0
  7  8  2  0
  8  9  1  0
  8 10  1  0
 10 11  1  0
 11 12  2  0
 12 13  1  0
 13 14  1  0
 14 15  2  0
 15 16  1  0
 15 17  1  0
 17 18  1  0
 17 19  2  0
 19 20  1  0
 19 21  1  0
 21 22  1  0
 22 23  1  0
 22 24  1  0
 22 25  1  0
 21 26  2  0
 26 27  1  0
 13 28  2  0
 28 29  1  0
  6 30  1  0
 30 31  1  0
 30 32  2  0
 32 33  1  0
 32  2  1  0
 29  7  1  0
 29 11  1  0
 26 14  1  0
M  END
>  <cnnaffinity>  (1) 
-5.34409

>  <filename>  (1) 
FC(F)(F)c1cccc(-c2nc3scc(-c4cccnc4)n3n2)c1

$$$$
