
     RDKit          3D

 33 36  0  0  0  0  0  0  0  0999 V2000
    4.9463    1.7801   16.9719 H   0  0  0  0  0  0  0  0  0  0  0  0
    5.4045    1.2930   17.8296 C   0  0  0  0  0  0  0  0  0  0  0  0
    6.5656    0.6624   17.5980 N   0  0  0  0  0  0  0  0  0  0  0  0
    7.1556    0.0860   18.6468 C   0  0  0  0  0  0  0  0  0  0  0  0
    8.1001   -0.4089   18.4297 H   0  0  0  0  0  0  0  0  0  0  0  0
    6.6545    0.1038   19.9663 C   0  0  0  0  0  0  0  0  0  0  0  0
    7.4389   -0.5896   21.0100 C   0  0  0  0  0  0  0  0  0  0  0  0
    8.3141   -1.6022   20.8340 C   0  0  0  0  0  0  0  0  0  0  0  0
    8.7442   -1.9401   19.9117 H   0  0  0  0  0  0  0  0  0  0  0  0
    8.8793   -2.3026   22.3249 S   0  0  0  0  0  0  0  0  0  0  0  0
    8.0752   -1.0459   23.2072 C   0  0  0  0  0  0  0  0  0  0  0  0
    8.0935   -0.5488   24.4194 N   0  0  0  0  0  0  0  0  0  0  0  0
    7.3302    0.5747   24.2662 C   0  0  0  0  0  0  0  0  0  0  0  0
    7.0744    1.5274   25.3628 C   0  0  0  0  0  0  0  0  0  0  0  0
    6.2976    2.6818   25.1338 C   0  0  0  0  0  0  0  0  0  0  0  0
    5.9027    2.8755   24.1368 H   0  0  0  0  0  0  0  0  0  0  0  0
    6.0530    3.5743   26.1715 C   0  0  0  0  0  0  0  0  0  0  0  0
    5.4699    4.4706   25.9720 H   0  0  0  0  0  0  0  0  0  0  0  0
    6.5792    3.3318   27.4526 C   0  0  0  0  0  0  0  0  0  0  0  0
    6.2563    4.2636   28.5983 C   0  0  0  0  0  0  0  0  0  0  0  0
    6.0726    5.5340   28.1896 F   0  0  0  0  0  0  0  0  0  0  0  0
    5.1267    3.9014   29.2379 F   0  0  0  0  0  0  0  0  0  0  0  0
    7.2341    4.2852   29.5260 F   0  0  0  0  0  0  0  0  0  0  0  0
    7.3714    2.1922   27.6767 C   0  0  0  0  0  0  0  0  0  0  0  0
    7.8167    2.0135   28.6528 H   0  0  0  0  0  0  0  0  0  0  0  0
    7.6179    1.2962   26.6435 C   0  0  0  0  0  0  0  0  0  0  0  0
    8.2426    0.4217   26.8214 H   0  0  0  0  0  0  0  0  0  0  0  0
    6.8482    0.7788   23.0426 N   0  0  0  0  0  0  0  0  0  0  0  0
    7.3285   -0.2905   22.3713 N   0  0  0  0  0  0  0  0  0  0  0  0
    5.4204    0.7493   20.1857 C   0  0  0  0  0  0  0  0  0  0  0  0
    4.9876    0.7945   21.1896 H   0  0  0  0  0  0  0  0  0  0  0  0
    4.7910    1.3393   19.0883 C   0  0  0  0  0  0  0  0  0  0  0  0
    3.8385    1.8479   19.1921 H   0  0  0  0  0  0  0  0  0  0  0  0
  1  2  1  0
  2  3  2  0
  3  4  1  0
  4  5  1  0
  4  6  2  0
  6  7  1  0
  7  8  2  0
  8  9  1  0
  8 10  1  0
 10 11  1  0
 11 12  2  0
 12 13  1  0
 13 14  1  0
 14 15  2  0
 15 16  1  0
 15 17  1  0
 17 18  1  0
 17 19  2  0
 19 20  1  0
 20 21  1  0
 20 22  1  0
 20 23  1  0
 19 24  1  0
 24 25  1  0
 24 26  2  0
 26 27  1  0
 13 28  2  0
 28 29  1  0
  6 30  1  0
 30 31  1  0
 30 32  2  0
 32 33  1  0
 32  2  1  0
 29  7  1  0
 29 11  1  0
 26 14  1  0
M  END
>  <cnnaffinity>  (1) 
-5.11901

>  <filename>  (1) 
FC(F)(F)c1ccc(-c2nc3scc(-c4cccnc4)n3n2)cc1

$$$$
