
     RDKit          3D

 37 40  0  0  0  0  0  0  0  0999 V2000
    4.9458    1.8047   16.9814 H   0  0  0  0  0  0  0  0  0  0  0  0
    5.4050    1.2940   17.8242 C   0  0  0  0  0  0  0  0  0  0  0  0
    6.5676    0.6724   17.5761 N   0  0  0  0  0  0  0  0  0  0  0  0
    7.1583    0.0341   18.5893 C   0  0  0  0  0  0  0  0  0  0  0  0
    8.1091   -0.4457   18.3578 H   0  0  0  0  0  0  0  0  0  0  0  0
    6.6269   -0.0121   19.8891 C   0  0  0  0  0  0  0  0  0  0  0  0
    7.3510   -0.6946   20.9574 C   0  0  0  0  0  0  0  0  0  0  0  0
    8.0153   -1.8241   20.7359 N   0  0  0  0  0  0  0  0  0  0  0  0
    8.4688   -2.1620   21.9462 N   0  0  0  0  0  0  0  0  0  0  0  0
    8.1915   -1.3059   22.9190 C   0  0  0  0  0  0  0  0  0  0  0  0
    7.4684   -0.2956   22.3208 C   0  0  0  0  0  0  0  0  0  0  0  0
    7.1699    0.9584   22.9806 C   0  0  0  0  0  0  0  0  0  0  0  0
    6.8780    0.8742   24.2915 N   0  0  0  0  0  0  0  0  0  0  0  0
    6.5807    1.9936   24.9496 C   0  0  0  0  0  0  0  0  0  0  0  0
    6.1925    1.9033   26.4484 C   0  0  0  0  0  0  0  0  0  0  0  0
    7.0595    2.6248   27.1936 F   0  0  0  0  0  0  0  0  0  0  0  0
    6.1651    0.6688   26.9584 F   0  0  0  0  0  0  0  0  0  0  0  0
    4.9684    2.4425   26.6465 F   0  0  0  0  0  0  0  0  0  0  0  0
    6.6311    3.2566   24.3365 C   0  0  0  0  0  0  0  0  0  0  0  0
    6.3994    4.1360   24.9188 H   0  0  0  0  0  0  0  0  0  0  0  0
    6.9930    3.3551   22.9889 C   0  0  0  0  0  0  0  0  0  0  0  0
    7.0575    4.3211   22.4868 H   0  0  0  0  0  0  0  0  0  0  0  0
    7.2700    2.1807   22.2937 C   0  0  0  0  0  0  0  0  0  0  0  0
    7.5606    2.1632   21.2474 H   0  0  0  0  0  0  0  0  0  0  0  0
    9.0126   -1.5817   24.1500 C   0  0  0  0  0  0  0  0  0  0  0  0
    9.6451   -0.7106   24.3527 H   0  0  0  0  0  0  0  0  0  0  0  0
    8.3634   -1.7041   25.0197 H   0  0  0  0  0  0  0  0  0  0  0  0
    9.8213   -2.8505   23.7510 C   0  0  0  0  0  0  0  0  0  0  0  0
    9.5660   -3.7169   24.3642 H   0  0  0  0  0  0  0  0  0  0  0  0
   10.8979   -2.7029   23.8391 H   0  0  0  0  0  0  0  0  0  0  0  0
    9.4742   -3.1414   22.2634 C   0  0  0  0  0  0  0  0  0  0  0  0
    9.0538   -4.1379   22.1200 H   0  0  0  0  0  0  0  0  0  0  0  0
   10.3215   -2.9558   21.5994 H   0  0  0  0  0  0  0  0  0  0  0  0
    5.4070    0.6356   20.1318 C   0  0  0  0  0  0  0  0  0  0  0  0
    4.9802    0.6469   21.1364 H   0  0  0  0  0  0  0  0  0  0  0  0
    4.7900    1.3032   19.0811 C   0  0  0  0  0  0  0  0  0  0  0  0
    3.8656    1.8437   19.2301 H   0  0  0  0  0  0  0  0  0  0  0  0
  1  2  1  0
  2  3  2  0
  3  4  1  0
  4  5  1  0
  4  6  2  0
  6  7  1  0
  7  8  2  0
  8  9  1  0
  9 10  1  0
 10 11  2  0
 11 12  1  0
 12 13  2  0
 13 14  1  0
 14 15  1  0
 15 16  1  0
 15 17  1  0
 15 18  1  0
 14 19  2  0
 19 20  1  0
 19 21  1  0
 21 22  1  0
 21 23  2  0
 23 24  1  0
 10 25  1  0
 25 26  1  0
 25 27  1  0
 25 28  1  0
 28 29  1  0
 28 30  1  0
 28 31  1  0
 31 32  1  0
 31 33  1  0
  6 34  1  0
 34 35  1  0
 34 36  2  0
 36 37  1  0
 36  2  1  0
 11  7  1  0
 23 12  1  0
 31  9  1  0
M  END
>  <cnnaffinity>  (1) 
-5.84966

>  <filename>  (1) 
FC(F)(F)c1cccc(-c2c(-c3cccnc3)nn3c2CCC3)n1

$$$$
