
     RDKit          3D

 29 31  0  0  0  0  0  0  0  0999 V2000
    4.9210    1.7793   16.9987 H   0  0  0  0  0  0  0  0  0  0  0  0
    5.4015    1.2909   17.8444 C   0  0  0  0  0  0  0  0  0  0  0  0
    6.5695    0.6710   17.5932 N   0  0  0  0  0  0  0  0  0  0  0  0
    7.1807    0.0531   18.6079 C   0  0  0  0  0  0  0  0  0  0  0  0
    8.1256   -0.4370   18.3783 H   0  0  0  0  0  0  0  0  0  0  0  0
    6.6556    0.0306   19.9208 C   0  0  0  0  0  0  0  0  0  0  0  0
    7.3464   -0.6094   20.9987 N   0  0  0  0  0  0  0  0  0  0  0  0
    8.1001   -1.7058   20.7434 N   0  0  0  0  0  0  0  0  0  0  0  0
    8.6020   -2.0892   21.8476 N   0  0  0  0  0  0  0  0  0  0  0  0
    8.2245   -1.2905   22.8728 N   0  0  0  0  0  0  0  0  0  0  0  0
    7.4533   -0.3808   22.3498 C   0  0  0  0  0  0  0  0  0  0  0  0
    6.8223    0.6692   22.9070 O   0  0  0  0  0  0  0  0  0  0  0  0
    6.9211    0.9781   24.2377 C   0  0  0  0  0  0  0  0  0  0  0  0
    7.6362    0.2137   25.0262 N   0  0  0  0  0  0  0  0  0  0  0  0
    7.6977    0.5301   26.3184 C   0  0  0  0  0  0  0  0  0  0  0  0
    8.2971   -0.1244   26.9426 H   0  0  0  0  0  0  0  0  0  0  0  0
    7.0493    1.6180   26.8912 C   0  0  0  0  0  0  0  0  0  0  0  0
    7.1391    1.8151   27.9506 H   0  0  0  0  0  0  0  0  0  0  0  0
    6.2922    2.4331   26.0628 C   0  0  0  0  0  0  0  0  0  0  0  0
    5.7663    3.2975   26.4746 H   0  0  0  0  0  0  0  0  0  0  0  0
    6.2319    2.1166   24.7026 C   0  0  0  0  0  0  0  0  0  0  0  0
    5.4216    2.9411   23.7571 C   0  0  0  0  0  0  0  0  0  0  0  0
    4.3435    2.2726   23.2973 F   0  0  0  0  0  0  0  0  0  0  0  0
    6.1186    3.3670   22.6962 F   0  0  0  0  0  0  0  0  0  0  0  0
    4.9432    4.0486   24.3700 F   0  0  0  0  0  0  0  0  0  0  0  0
    5.4362    0.6537   20.1697 C   0  0  0  0  0  0  0  0  0  0  0  0
    5.0079    0.6315   21.1711 H   0  0  0  0  0  0  0  0  0  0  0  0
    4.8046    1.3068   19.1082 C   0  0  0  0  0  0  0  0  0  0  0  0
    3.8770    1.8409   19.2657 H   0  0  0  0  0  0  0  0  0  0  0  0
  1  2  1  0
  2  3  2  0
  3  4  1  0
  4  5  1  0
  4  6  2  0
  6  7  1  0
  7  8  1  0
  8  9  2  0
  9 10  1  0
 10 11  2  0
 11 12  1  0
 12 13  1  0
 13 14  2  0
 14 15  1  0
 15 16  1  0
 15 17  2  0
 17 18  1  0
 17 19  1  0
 19 20  1  0
 19 21  2  0
 21 22  1  0
 22 23  1  0
 22 24  1  0
 22 25  1  0
  6 26  1  0
 26 27  1  0
 26 28  2  0
 28 29  1  0
 28  2  1  0
 11  7  1  0
 21 13  1  0
M  END
>  <cnnaffinity>  (1) 
-5.15556

>  <filename>  (1) 
FC(F)(F)c1cccnc1Oc1nnnn1-c1cccnc1

$$$$
