
     RDKit          3D

 35 37  0  0  0  0  0  0  0  0999 V2000
    6.6474   -1.3158   21.6853 H   0  0  0  0  0  0  0  0  0  0  0  0
    7.2862   -0.6974   21.0431 C   0  0  0  0  0  0  0  0  0  0  0  0
    8.5686   -0.4907   21.3887 C   0  0  0  0  0  0  0  0  0  0  0  0
    9.3626   -1.1214   22.4647 C   0  0  0  0  0  0  0  0  0  0  0  0
    8.8813   -2.3007   23.2328 C   0  0  0  0  0  0  0  0  0  0  0  0
    9.0910   -2.3849   24.6159 C   0  0  0  0  0  0  0  0  0  0  0  0
    9.6083   -1.5727   25.1222 H   0  0  0  0  0  0  0  0  0  0  0  0
    8.6189   -3.4887   25.3261 C   0  0  0  0  0  0  0  0  0  0  0  0
    8.7610   -3.5357   26.4016 H   0  0  0  0  0  0  0  0  0  0  0  0
    7.9655   -4.5403   24.6661 C   0  0  0  0  0  0  0  0  0  0  0  0
    7.6419   -5.4053   25.2409 H   0  0  0  0  0  0  0  0  0  0  0  0
    7.7768   -4.4728   23.2739 C   0  0  0  0  0  0  0  0  0  0  0  0
    7.0435   -5.5442   22.4860 C   0  0  0  0  0  0  0  0  0  0  0  0
    7.2362   -6.7815   22.9675 F   0  0  0  0  0  0  0  0  0  0  0  0
    5.7108   -5.3379   22.4653 F   0  0  0  0  0  0  0  0  0  0  0  0
    7.4435   -5.5799   21.1962 F   0  0  0  0  0  0  0  0  0  0  0  0
    8.2341   -3.3506   22.5715 C   0  0  0  0  0  0  0  0  0  0  0  0
    8.0736   -3.2816   21.4987 H   0  0  0  0  0  0  0  0  0  0  0  0
   10.5119   -0.5909   22.6594 N   0  0  0  0  0  0  0  0  0  0  0  0
   10.7024    0.5157   21.7201 C   0  0  0  0  0  0  0  0  0  0  0  0
   10.7683    1.4409   22.2989 H   0  0  0  0  0  0  0  0  0  0  0  0
   11.6613    0.3928   21.2094 H   0  0  0  0  0  0  0  0  0  0  0  0
    9.4845    0.5282   20.7643 C   0  0  0  0  0  0  0  0  0  0  0  0
    8.9839    1.4950   20.6831 H   0  0  0  0  0  0  0  0  0  0  0  0
    9.7347    0.1812   19.7612 H   0  0  0  0  0  0  0  0  0  0  0  0
    6.6002   -0.0477   19.8979 C   0  0  0  0  0  0  0  0  0  0  0  0
    7.1332    0.0237   18.5929 C   0  0  0  0  0  0  0  0  0  0  0  0
    8.0763   -0.4655   18.3515 H   0  0  0  0  0  0  0  0  0  0  0  0
    6.5541    0.6695   17.5695 N   0  0  0  0  0  0  0  0  0  0  0  0
    5.4000    1.3043   17.8219 C   0  0  0  0  0  0  0  0  0  0  0  0
    4.9573    1.8435   16.9869 H   0  0  0  0  0  0  0  0  0  0  0  0
    4.7691    1.2991   19.0696 C   0  0  0  0  0  0  0  0  0  0  0  0
    3.8454    1.8566   19.2126 H   0  0  0  0  0  0  0  0  0  0  0  0
    5.3723    0.6024   20.1167 C   0  0  0  0  0  0  0  0  0  0  0  0
    4.9355    0.5994   21.1158 H   0  0  0  0  0  0  0  0  0  0  0  0
  1  2  1  0
  2  3  2  3
  3  4  1  0
  4  5  1  0
  5  6  2  0
  6  7  1  0
  6  8  1  0
  8  9  1  0
  8 10  2  0
 10 11  1  0
 10 12  1  0
 12 13  1  0
 13 14  1  0
 13 15  1  0
 13 16  1  0
 12 17  2  0
 17 18  1  0
  4 19  2  0
 19 20  1  0
 20 21  1  0
 20 22  1  0
 20 23  1  0
 23 24  1  0
 23 25  1  0
  2 26  1  0
 26 27  2  0
 27 28  1  0
 27 29  1  0
 29 30  2  0
 30 31  1  0
 30 32  1  0
 32 33  1  0
 32 34  2  0
 34 35  1  0
 23  3  1  0
 34 26  1  0
 17  5  1  0
M  END
>  <cnnaffinity>  (1) 
-5.74188

>  <filename>  (1) 
FC(F)(F)c1cccc(C2=NCCC2=Cc2cccnc2)c1

$$$$
