
     RDKit          3D

 33 35  0  0  0  0  0  0  0  0999 V2000
    4.9453    1.8330   16.9607 H   0  0  0  0  0  0  0  0  0  0  0  0
    5.3900    1.3090   17.8051 C   0  0  0  0  0  0  0  0  0  0  0  0
    6.5460    0.6677   17.5736 N   0  0  0  0  0  0  0  0  0  0  0  0
    7.1232    0.0412   18.6087 C   0  0  0  0  0  0  0  0  0  0  0  0
    8.0731   -0.4467   18.3851 H   0  0  0  0  0  0  0  0  0  0  0  0
    6.5856   -0.0151   19.9129 C   0  0  0  0  0  0  0  0  0  0  0  0
    7.3064   -0.7315   21.0004 C   0  0  0  0  0  0  0  0  0  0  0  0
    8.6497   -0.7239   21.3498 C   0  0  0  0  0  0  0  0  0  0  0  0
    9.7905    0.0596   20.7371 C   0  0  0  0  0  0  0  0  0  0  0  0
   10.4196   -0.6306   20.1721 H   0  0  0  0  0  0  0  0  0  0  0  0
    9.4035    0.7981   20.0404 H   0  0  0  0  0  0  0  0  0  0  0  0
   10.7430    0.7300   21.7156 C   0  0  0  0  0  0  0  0  0  0  0  0
   11.8421    0.0165   21.9931 N   0  0  0  0  0  0  0  0  0  0  0  0
   12.7220    0.4770   22.8841 C   0  0  0  0  0  0  0  0  0  0  0  0
   13.5900   -0.1574   23.0714 H   0  0  0  0  0  0  0  0  0  0  0  0
   12.5536    1.6869   23.5545 C   0  0  0  0  0  0  0  0  0  0  0  0
   13.2958    1.9979   24.2754 H   0  0  0  0  0  0  0  0  0  0  0  0
   11.4284    2.4557   23.2705 C   0  0  0  0  0  0  0  0  0  0  0  0
   11.2519    3.4087   23.7691 H   0  0  0  0  0  0  0  0  0  0  0  0
   10.5153    1.9751   22.3244 C   0  0  0  0  0  0  0  0  0  0  0  0
    9.1907    2.6408   22.0959 C   0  0  0  0  0  0  0  0  0  0  0  0
    9.1114    3.8773   22.6139 F   0  0  0  0  0  0  0  0  0  0  0  0
    8.8855    2.7504   20.7848 F   0  0  0  0  0  0  0  0  0  0  0  0
    8.1949    1.9322   22.6669 F   0  0  0  0  0  0  0  0  0  0  0  0
    8.7406   -1.6421   22.4248 C   0  0  0  0  0  0  0  0  0  0  0  0
    9.6365   -1.9129   22.9682 H   0  0  0  0  0  0  0  0  0  0  0  0
    7.5672   -2.1691   22.7417 N   0  0  0  0  0  0  0  0  0  0  0  0
    6.7140   -1.5990   21.8706 N   0  0  0  0  0  0  0  0  0  0  0  0
    5.7268   -1.8034   21.9429 H   0  0  0  0  0  0  0  0  0  0  0  0
    5.3683    0.6631   20.1218 C   0  0  0  0  0  0  0  0  0  0  0  0
    4.9236    0.6978   21.1147 H   0  0  0  0  0  0  0  0  0  0  0  0
    4.7651    1.3322   19.0552 C   0  0  0  0  0  0  0  0  0  0  0  0
    3.8389    1.8876   19.1791 H   0  0  0  0  0  0  0  0  0  0  0  0
  1  2  1  0
  2  3  2  0
  3  4  1  0
  4  5  1  0
  4  6  2  0
  6  7  1  0
  7  8  2  0
  8  9  1  0
  9 10  1  0
  9 11  1  0
  9 12  1  0
 12 13  2  0
 13 14  1  0
 14 15  1  0
 14 16  2  0
 16 17  1  0
 16 18  1  0
 18 19  1  0
 18 20  2  0
 20 21  1  0
 21 22  1  0
 21 23  1  0
 21 24  1  0
  8 25  1  0
 25 26  1  0
 25 27  2  0
 27 28  1  0
 28 29  1  0
  6 30  1  0
 30 31  1  0
 30 32  2  0
 32 33  1  0
 32  2  1  0
 28  7  1  0
 20 12  1  0
M  END
>  <cnnaffinity>  (1) 
-5.29036

>  <filename>  (1) 
FC(F)(F)c1cccnc1Cc1cn[nH]c1-c1cccnc1

$$$$
