
     RDKit          3D

 32 34  0  0  0  0  0  0  0  0999 V2000
    5.0402    1.7294   16.9765 H   0  0  0  0  0  0  0  0  0  0  0  0
    5.5099    1.2512   17.8356 C   0  0  0  0  0  0  0  0  0  0  0  0
    6.6838    0.6422   17.6133 N   0  0  0  0  0  0  0  0  0  0  0  0
    7.2887    0.0605   18.6573 C   0  0  0  0  0  0  0  0  0  0  0  0
    8.2381   -0.4266   18.4457 H   0  0  0  0  0  0  0  0  0  0  0  0
    6.7547    0.0392   19.9549 C   0  0  0  0  0  0  0  0  0  0  0  0
    7.4718   -0.6693   21.0410 C   0  0  0  0  0  0  0  0  0  0  0  0
    8.8122   -0.5655   21.0758 N   0  0  0  0  0  0  0  0  0  0  0  0
    9.4840   -1.2017   22.0548 C   0  0  0  0  0  0  0  0  0  0  0  0
   11.0253   -1.1506   22.0404 C   0  0  0  0  0  0  0  0  0  0  0  0
   11.5734   -1.9137   21.0951 N   0  0  0  0  0  0  0  0  0  0  0  0
   12.8943   -1.9593   20.9354 C   0  0  0  0  0  0  0  0  0  0  0  0
   13.2533   -2.6250   20.1496 H   0  0  0  0  0  0  0  0  0  0  0  0
   13.7720   -1.2316   21.7273 C   0  0  0  0  0  0  0  0  0  0  0  0
   14.8249   -1.3291   21.5348 H   0  0  0  0  0  0  0  0  0  0  0  0
   13.2496   -0.4451   22.7477 C   0  0  0  0  0  0  0  0  0  0  0  0
   13.9239    0.1146   23.3967 H   0  0  0  0  0  0  0  0  0  0  0  0
   11.8574   -0.4495   22.9470 C   0  0  0  0  0  0  0  0  0  0  0  0
   11.2438    0.1956   24.1544 C   0  0  0  0  0  0  0  0  0  0  0  0
   12.1548    0.8467   24.8901 F   0  0  0  0  0  0  0  0  0  0  0  0
   10.2814    1.0674   23.8222 F   0  0  0  0  0  0  0  0  0  0  0  0
   10.6682   -0.7162   24.9720 F   0  0  0  0  0  0  0  0  0  0  0  0
    8.8302   -2.0026   23.0085 C   0  0  0  0  0  0  0  0  0  0  0  0
    9.3919   -2.5327   23.7703 H   0  0  0  0  0  0  0  0  0  0  0  0
    7.4391   -2.1238   22.9606 C   0  0  0  0  0  0  0  0  0  0  0  0
    6.9048   -2.7215   23.6952 H   0  0  0  0  0  0  0  0  0  0  0  0
    6.7554   -1.4562   21.9542 C   0  0  0  0  0  0  0  0  0  0  0  0
    5.6851   -1.5704   21.8293 H   0  0  0  0  0  0  0  0  0  0  0  0
    5.5191    0.6696   20.1668 C   0  0  0  0  0  0  0  0  0  0  0  0
    5.0608    0.6902   21.1578 H   0  0  0  0  0  0  0  0  0  0  0  0
    4.8890    1.2895   19.0898 C   0  0  0  0  0  0  0  0  0  0  0  0
    3.9411    1.8016   19.2057 H   0  0  0  0  0  0  0  0  0  0  0  0
  1  2  1  0
  2  3  2  0
  3  4  1  0
  4  5  1  0
  4  6  2  0
  6  7  1  0
  7  8  2  0
  8  9  1  0
  9 10  1  0
 10 11  2  0
 11 12  1  0
 12 13  1  0
 12 14  2  0
 14 15  1  0
 14 16  1  0
 16 17  1  0
 16 18  2  0
 18 19  1  0
 19 20  1  0
 19 21  1  0
 19 22  1  0
  9 23  2  0
 23 24  1  0
 23 25  1  0
 25 26  1  0
 25 27  2  0
 27 28  1  0
  6 29  1  0
 29 30  1  0
 29 31  2  0
 31 32  1  0
 31  2  1  0
 27  7  1  0
 18 10  1  0
M  END
>  <cnnaffinity>  (1) 
-6.09877

>  <filename>  (1) 
FC(F)(F)c1cccnc1-c1cccc(-c2cccnc2)n1

$$$$
