
     RDKit          3D

 28 30  0  0  0  0  0  0  0  0999 V2000
    5.7152    3.2117   26.1159 H   0  0  0  0  0  0  0  0  0  0  0  0
    6.2736    2.3250   25.8198 C   0  0  0  0  0  0  0  0  0  0  0  0
    6.2215    2.0185   24.5239 N   0  0  0  0  0  0  0  0  0  0  0  0
    6.9044    0.9447   24.1750 C   0  0  0  0  0  0  0  0  0  0  0  0
    6.7783    0.6357   22.8651 O   0  0  0  0  0  0  0  0  0  0  0  0
    7.4373   -0.3907   22.3319 C   0  0  0  0  0  0  0  0  0  0  0  0
    8.1889   -1.3114   22.8655 N   0  0  0  0  0  0  0  0  0  0  0  0
    8.5961   -2.0903   21.8341 N   0  0  0  0  0  0  0  0  0  0  0  0
    8.1242   -1.6843   20.7225 N   0  0  0  0  0  0  0  0  0  0  0  0
    7.3597   -0.5936   20.9862 N   0  0  0  0  0  0  0  0  0  0  0  0
    6.6380    0.0693   19.9452 C   0  0  0  0  0  0  0  0  0  0  0  0
    7.1712    0.0633   18.6416 C   0  0  0  0  0  0  0  0  0  0  0  0
    8.1119   -0.4582   18.4639 H   0  0  0  0  0  0  0  0  0  0  0  0
    6.5774    0.6667   17.6119 N   0  0  0  0  0  0  0  0  0  0  0  0
    5.4103    1.2919   17.8453 C   0  0  0  0  0  0  0  0  0  0  0  0
    4.9560    1.7760   16.9862 H   0  0  0  0  0  0  0  0  0  0  0  0
    4.7934    1.3289   19.1000 C   0  0  0  0  0  0  0  0  0  0  0  0
    3.8435    1.8394   19.2130 H   0  0  0  0  0  0  0  0  0  0  0  0
    5.4168    0.7114   20.1891 C   0  0  0  0  0  0  0  0  0  0  0  0
    4.9725    0.7320   21.1856 H   0  0  0  0  0  0  0  0  0  0  0  0
    7.6355    0.1790   24.9593 N   0  0  0  0  0  0  0  0  0  0  0  0
    7.6067    0.4225   26.2677 C   0  0  0  0  0  0  0  0  0  0  0  0
    8.1946   -0.7038   27.1888 C   0  0  0  0  0  0  0  0  0  0  0  0
    7.1882   -1.3380   27.8244 F   0  0  0  0  0  0  0  0  0  0  0  0
    8.9010   -1.6186   26.5203 F   0  0  0  0  0  0  0  0  0  0  0  0
    8.9971   -0.1997   28.1384 F   0  0  0  0  0  0  0  0  0  0  0  0
    6.9704    1.5644   26.7679 C   0  0  0  0  0  0  0  0  0  0  0  0
    6.9817    1.8345   27.8162 H   0  0  0  0  0  0  0  0  0  0  0  0
  1  2  1  0
  2  3  2  0
  3  4  1  0
  4  5  1  0
  5  6  1  0
  6  7  2  0
  7  8  1  0
  8  9  2  0
  9 10  1  0
 10 11  1  0
 11 12  2  0
 12 13  1  0
 12 14  1  0
 14 15  2  0
 15 16  1  0
 15 17  1  0
 17 18  1  0
 17 19  2  0
 19 20  1  0
  4 21  2  0
 21 22  1  0
 22 23  1  0
 23 24  1  0
 23 25  1  0
 23 26  1  0
 22 27  2  0
 27 28  1  0
 27  2  1  0
 10  6  1  0
 19 11  1  0
M  END
>  <cnnaffinity>  (1) 
-5.31779

>  <filename>  (1) 
FC(F)(F)c1ccnc(Oc2nnnn2-c2cccnc2)n1

$$$$
