
     RDKit          3D

 38 41  0  0  0  0  0  0  0  0999 V2000
    5.0006    1.8401   16.9151 H   0  0  0  0  0  0  0  0  0  0  0  0
    5.3919    1.3065   17.7814 C   0  0  0  0  0  0  0  0  0  0  0  0
    6.5434    0.6415   17.6021 N   0  0  0  0  0  0  0  0  0  0  0  0
    7.0673    0.0237   18.6700 C   0  0  0  0  0  0  0  0  0  0  0  0
    8.0024   -0.5032   18.4859 H   0  0  0  0  0  0  0  0  0  0  0  0
    6.4847    0.0033   19.9555 C   0  0  0  0  0  0  0  0  0  0  0  0
    7.2443   -0.5921   21.0809 C   0  0  0  0  0  0  0  0  0  0  0  0
    8.5976   -0.5192   21.3267 C   0  0  0  0  0  0  0  0  0  0  0  0
    8.8095   -1.1398   22.5513 C   0  0  0  0  0  0  0  0  0  0  0  0
    7.6996   -1.6180   23.0743 N   0  0  0  0  0  0  0  0  0  0  0  0
    6.7485   -1.2658   22.1668 N   0  0  0  0  0  0  0  0  0  0  0  0
    5.7916   -1.5352   22.3582 H   0  0  0  0  0  0  0  0  0  0  0  0
   10.2474   -1.1096   22.9802 C   0  0  0  0  0  0  0  0  0  0  0  0
   10.6578   -2.1245   23.0206 H   0  0  0  0  0  0  0  0  0  0  0  0
   10.3711   -0.6713   23.9757 H   0  0  0  0  0  0  0  0  0  0  0  0
   10.9430   -0.2476   21.8625 C   0  0  2  0  0  0  0  0  0  0  0  0
   11.7704   -0.8345   21.4511 H   0  0  0  0  0  0  0  0  0  0  0  0
   11.4956    1.0725   22.3748 C   0  0  0  0  0  0  0  0  0  0  0  0
   12.8664    1.3710   22.3542 C   0  0  0  0  0  0  0  0  0  0  0  0
   13.5782    0.6240   22.0166 H   0  0  0  0  0  0  0  0  0  0  0  0
   13.3414    2.6160   22.7717 C   0  0  0  0  0  0  0  0  0  0  0  0
   14.4055    2.8287   22.7001 H   0  0  0  0  0  0  0  0  0  0  0  0
   12.4486    3.5983   23.2246 C   0  0  0  0  0  0  0  0  0  0  0  0
   12.9405    4.9889   23.5739 C   0  0  0  0  0  0  0  0  0  0  0  0
   14.1289    5.2746   23.0039 F   0  0  0  0  0  0  0  0  0  0  0  0
   13.0823    5.1525   24.9041 F   0  0  0  0  0  0  0  0  0  0  0  0
   12.0758    5.9418   23.1753 F   0  0  0  0  0  0  0  0  0  0  0  0
   11.0823    3.2807   23.3332 C   0  0  0  0  0  0  0  0  0  0  0  0
   10.3670    3.9975   23.7281 H   0  0  0  0  0  0  0  0  0  0  0  0
   10.6204    2.0389   22.8971 C   0  0  0  0  0  0  0  0  0  0  0  0
    9.5614    1.8076   22.9618 H   0  0  0  0  0  0  0  0  0  0  0  0
    9.8736   -0.0365   20.7325 C   0  0  0  0  0  0  0  0  0  0  0  0
    9.8113    1.0033   20.3891 H   0  0  0  0  0  0  0  0  0  0  0  0
   10.1316   -0.6475   19.8661 H   0  0  0  0  0  0  0  0  0  0  0  0
    5.2542    0.6715   20.1063 C   0  0  0  0  0  0  0  0  0  0  0  0
    4.7499    0.7055   21.0736 H   0  0  0  0  0  0  0  0  0  0  0  0
    4.7128    1.3382   19.0044 C   0  0  0  0  0  0  0  0  0  0  0  0
    3.7958    1.9107   19.0838 H   0  0  0  0  0  0  0  0  0  0  0  0
  1  2  1  0
  2  3  2  0
  3  4  1  0
  4  5  1  0
  4  6  2  0
  6  7  1  0
  7  8  2  0
  8  9  1  0
  9 10  2  0
 10 11  1  0
 11 12  1  0
  9 13  1  0
 13 14  1  0
 13 15  1  0
 13 16  1  0
 16 17  1  6
 16 18  1  0
 18 19  2  0
 19 20  1  0
 19 21  1  0
 21 22  1  0
 21 23  2  0
 23 24  1  0
 24 25  1  0
 24 26  1  0
 24 27  1  0
 23 28  1  0
 28 29  1  0
 28 30  2  0
 30 31  1  0
 16 32  1  0
 32 33  1  0
 32 34  1  0
  6 35  1  0
 35 36  1  0
 35 37  2  0
 37 38  1  0
 37  2  1  0
 11  7  1  0
 30 18  1  0
 32  8  1  0
M  END
>  <cnnaffinity>  (1) 
-5.6486

>  <filename>  (1) 
FC(F)(F)c1ccc([C@H]2Cc3n[nH]c(-c4cccnc4)c3C2)cc1

$$$$
