
     RDKit          3D

 34 37  0  0  0  0  0  0  0  0999 V2000
    4.9786    1.8476   16.9155 H   0  0  0  0  0  0  0  0  0  0  0  0
    5.4170    1.3014   17.7483 C   0  0  0  0  0  0  0  0  0  0  0  0
    6.5650    0.6523   17.4984 N   0  0  0  0  0  0  0  0  0  0  0  0
    7.1421    0.0027   18.5146 C   0  0  0  0  0  0  0  0  0  0  0  0
    8.0802   -0.5030   18.2910 H   0  0  0  0  0  0  0  0  0  0  0  0
    6.6107   -0.0382   19.8182 C   0  0  0  0  0  0  0  0  0  0  0  0
    7.3594   -0.6585   20.9283 C   0  0  0  0  0  0  0  0  0  0  0  0
    8.4880   -1.3519   20.7115 N   0  0  0  0  0  0  0  0  0  0  0  0
    8.9114   -1.6290   21.9618 N   0  0  0  0  0  0  0  0  0  0  0  0
   10.0430   -2.2198   22.5034 C   0  0  0  0  0  0  0  0  0  0  0  0
   10.7934   -2.6530   21.8685 H   0  0  0  0  0  0  0  0  0  0  0  0
    9.9401   -2.0645   23.8455 C   0  0  0  0  0  0  0  0  0  0  0  0
   10.5991   -2.4045   24.6306 H   0  0  0  0  0  0  0  0  0  0  0  0
    8.7618   -1.3794   24.1463 N   0  0  0  0  0  0  0  0  0  0  0  0
    8.2945   -0.9758   25.4116 C   0  0  0  0  0  0  0  0  0  0  0  0
    6.9034   -0.9088   25.6634 C   0  0  0  0  0  0  0  0  0  0  0  0
    6.1862   -1.2482   24.9157 H   0  0  0  0  0  0  0  0  0  0  0  0
    6.3937   -0.3965   26.7808 N   0  0  0  0  0  0  0  0  0  0  0  0
    7.2311    0.0347   27.7411 C   0  0  0  0  0  0  0  0  0  0  0  0
    6.6723    0.8727   28.9066 C   0  0  0  0  0  0  0  0  0  0  0  0
    7.2076    0.5014   30.0884 F   0  0  0  0  0  0  0  0  0  0  0  0
    5.3453    0.8018   29.0263 F   0  0  0  0  0  0  0  0  0  0  0  0
    6.9919    2.1792   28.7569 F   0  0  0  0  0  0  0  0  0  0  0  0
    8.6205   -0.1534   27.6470 C   0  0  0  0  0  0  0  0  0  0  0  0
    9.2521    0.0673   28.4993 H   0  0  0  0  0  0  0  0  0  0  0  0
    9.1693   -0.5940   26.4449 C   0  0  0  0  0  0  0  0  0  0  0  0
   10.2519   -0.5711   26.3143 H   0  0  0  0  0  0  0  0  0  0  0  0
    8.1282   -1.1295   22.9333 C   0  0  0  0  0  0  0  0  0  0  0  0
    7.0618   -0.5100   22.3054 C   0  0  0  0  0  0  0  0  0  0  0  0
    6.2066   -0.0272   22.7412 H   0  0  0  0  0  0  0  0  0  0  0  0
    5.3913    0.6201   20.0504 C   0  0  0  0  0  0  0  0  0  0  0  0
    4.9296    0.6226   21.0407 H   0  0  0  0  0  0  0  0  0  0  0  0
    4.7909    1.3022   18.9988 C   0  0  0  0  0  0  0  0  0  0  0  0
    3.8737    1.8616   19.1453 H   0  0  0  0  0  0  0  0  0  0  0  0
  1  2  1  0
  2  3  2  0
  3  4  1  0
  4  5  1  0
  4  6  2  0
  6  7  1  0
  7  8  2  0
  8  9  1  0
  9 10  1  0
 10 11  1  0
 10 12  2  0
 12 13  1  0
 12 14  1  0
 14 15  1  0
 15 16  2  0
 16 17  1  0
 16 18  1  0
 18 19  2  0
 19 20  1  0
 20 21  1  0
 20 22  1  0
 20 23  1  0
 19 24  1  0
 24 25  1  0
 24 26  2  0
 26 27  1  0
 14 28  1  0
 28 29  2  0
 29 30  1  0
  6 31  1  0
 31 32  1  0
 31 33  2  0
 33 34  1  0
 33  2  1  0
 29  7  1  0
 28  9  1  0
 26 15  1  0
M  END
>  <cnnaffinity>  (1) 
-5.64556

>  <filename>  (1) 
FC(F)(F)c1ccc(-n2ccn3nc(-c4cccnc4)cc23)cn1

$$$$
