
     RDKit          3D

 29 31  0  0  0  0  0  0  0  0999 V2000
    4.8770    1.9220   16.8911 H   0  0  0  0  0  0  0  0  0  0  0  0
    5.3837    1.3788   17.6810 C   0  0  0  0  0  0  0  0  0  0  0  0
    6.5297    0.7670   17.3420 N   0  0  0  0  0  0  0  0  0  0  0  0
    7.1775    0.1065   18.3047 C   0  0  0  0  0  0  0  0  0  0  0  0
    8.0975   -0.3874   17.9983 H   0  0  0  0  0  0  0  0  0  0  0  0
    6.7345    0.0223   19.6338 C   0  0  0  0  0  0  0  0  0  0  0  0
    7.4863   -0.7070   20.6588 C   0  0  0  0  0  0  0  0  0  0  0  0
    6.9564   -0.7501   21.9324 N   0  0  0  0  0  0  0  0  0  0  0  0
    7.7790   -1.4518   22.6459 C   0  0  0  0  0  0  0  0  0  0  0  0
    7.6492   -1.7635   24.1278 C   0  0  0  0  0  0  0  0  0  0  0  0
    6.5486   -1.2405   24.6921 N   0  0  0  0  0  0  0  0  0  0  0  0
    6.3446   -1.3351   25.9987 C   0  0  0  0  0  0  0  0  0  0  0  0
    5.4411   -0.8618   26.3765 H   0  0  0  0  0  0  0  0  0  0  0  0
    7.2336   -1.9847   26.8479 C   0  0  0  0  0  0  0  0  0  0  0  0
    7.0582   -1.9875   27.9112 H   0  0  0  0  0  0  0  0  0  0  0  0
    8.3440   -2.6041   26.2989 C   0  0  0  0  0  0  0  0  0  0  0  0
    9.0118   -3.1631   26.9483 H   0  0  0  0  0  0  0  0  0  0  0  0
    8.5622   -2.5039   24.9182 C   0  0  0  0  0  0  0  0  0  0  0  0
    9.7617   -3.1577   24.2824 C   0  0  0  0  0  0  0  0  0  0  0  0
    9.3896   -3.9987   23.3065 F   0  0  0  0  0  0  0  0  0  0  0  0
   10.4862   -3.8715   25.1646 F   0  0  0  0  0  0  0  0  0  0  0  0
   10.5811   -2.2411   23.7507 F   0  0  0  0  0  0  0  0  0  0  0  0
    8.8405   -1.8946   21.9195 O   0  0  0  0  0  0  0  0  0  0  0  0
    8.6497   -1.4084   20.6654 C   0  0  0  0  0  0  0  0  0  0  0  0
    9.4214   -1.6470   19.9401 H   0  0  0  0  0  0  0  0  0  0  0  0
    5.5233    0.6599   19.9659 C   0  0  0  0  0  0  0  0  0  0  0  0
    5.1537    0.6122   20.9939 H   0  0  0  0  0  0  0  0  0  0  0  0
    4.8354    1.3377   18.9689 C   0  0  0  0  0  0  0  0  0  0  0  0
    3.8962    1.8392   19.1797 H   0  0  0  0  0  0  0  0  0  0  0  0
  1  2  1  0
  2  3  2  0
  3  4  1  0
  4  5  1  0
  4  6  2  0
  6  7  1  0
  7  8  1  0
  8  9  2  0
  9 10  1  0
 10 11  2  0
 11 12  1  0
 12 13  1  0
 12 14  2  0
 14 15  1  0
 14 16  1  0
 16 17  1  0
 16 18  2  0
 18 19  1  0
 19 20  1  0
 19 21  1  0
 19 22  1  0
  9 23  1  0
 23 24  1  0
 24 25  1  0
  6 26  1  0
 26 27  1  0
 26 28  2  0
 28 29  1  0
 28  2  1  0
 24  7  2  0
 18 10  1  0
M  END
>  <cnnaffinity>  (1) 
-5.17692

>  <filename>  (1) 
FC(F)(F)c1cccnc1-c1nc(-c2cccnc2)co1

$$$$
