
     RDKit          3D

 34 36  0  0  0  0  0  0  0  0999 V2000
    9.2628   -3.8627   24.2912 H   0  0  0  0  0  0  0  0  0  0  0  0
    8.5176   -4.0348   23.5091 C   0  0  0  0  0  0  0  0  0  0  0  0
    8.2024   -3.0002   22.7406 N   0  0  0  0  0  0  0  0  0  0  0  0
    7.2954   -3.2305   21.8011 C   0  0  0  0  0  0  0  0  0  0  0  0
    6.9301   -2.2546   20.9613 N   0  0  0  0  0  0  0  0  0  0  0  0
    6.2137   -2.6344   20.3708 H   0  0  0  0  0  0  0  0  0  0  0  0
    7.3578   -0.8790   21.0075 C   0  0  0  0  0  0  0  0  0  0  0  0
    6.6247   -0.1103   19.9342 C   0  0  0  0  0  0  0  0  0  0  0  0
    7.1456   -0.0522   18.6321 C   0  0  0  0  0  0  0  0  0  0  0  0
    8.1068   -0.5138   18.4083 H   0  0  0  0  0  0  0  0  0  0  0  0
    6.5692    0.5934   17.6106 N   0  0  0  0  0  0  0  0  0  0  0  0
    5.4255    1.2463   17.8606 C   0  0  0  0  0  0  0  0  0  0  0  0
    4.9870    1.7899   17.0255 H   0  0  0  0  0  0  0  0  0  0  0  0
    4.8052    1.2578   19.1151 C   0  0  0  0  0  0  0  0  0  0  0  0
    3.8985    1.8395   19.2656 H   0  0  0  0  0  0  0  0  0  0  0  0
    5.4151    0.5727   20.1665 C   0  0  0  0  0  0  0  0  0  0  0  0
    4.9796    0.6017   21.1679 H   0  0  0  0  0  0  0  0  0  0  0  0
    8.9090   -0.7070   21.0030 C   0  0  0  0  0  0  0  0  0  0  0  0
    9.4685   -1.6390   20.9122 H   0  0  0  0  0  0  0  0  0  0  0  0
    9.2609   -0.0211   20.2273 H   0  0  0  0  0  0  0  0  0  0  0  0
    8.8722   -0.0849   22.4199 C   0  0  0  0  0  0  0  0  0  0  0  0
    9.2635    0.9357   22.4851 H   0  0  0  0  0  0  0  0  0  0  0  0
    9.3601   -0.6899   23.1902 H   0  0  0  0  0  0  0  0  0  0  0  0
    7.3274   -0.1957   22.4120 C   0  0  0  0  0  0  0  0  0  0  0  0
    6.8785   -0.7873   23.2117 H   0  0  0  0  0  0  0  0  0  0  0  0
    6.8268    0.7772   22.3836 H   0  0  0  0  0  0  0  0  0  0  0  0
    6.6648   -4.3848   21.5541 N   0  0  0  0  0  0  0  0  0  0  0  0
    6.9858   -5.4159   22.3371 C   0  0  0  0  0  0  0  0  0  0  0  0
    6.3006   -6.8164   22.1389 C   0  0  0  0  0  0  0  0  0  0  0  0
    5.6083   -7.1824   23.2371 F   0  0  0  0  0  0  0  0  0  0  0  0
    7.2357   -7.7741   21.9574 F   0  0  0  0  0  0  0  0  0  0  0  0
    5.4582   -6.8704   21.1063 F   0  0  0  0  0  0  0  0  0  0  0  0
    7.9465   -5.2868   23.3510 C   0  0  0  0  0  0  0  0  0  0  0  0
    8.2286   -6.1159   23.9848 H   0  0  0  0  0  0  0  0  0  0  0  0
  1  2  1  0
  2  3  2  0
  3  4  1  0
  4  5  1  0
  5  6  1  0
  5  7  1  0
  7  8  1  0
  8  9  2  0
  9 10  1  0
  9 11  1  0
 11 12  2  0
 12 13  1  0
 12 14  1  0
 14 15  1  0
 14 16  2  0
 16 17  1  0
  7 18  1  0
 18 19  1  0
 18 20  1  0
 18 21  1  0
 21 22  1  0
 21 23  1  0
 21 24  1  0
 24 25  1  0
 24 26  1  0
  4 27  2  0
 27 28  1  0
 28 29  1  0
 29 30  1  0
 29 31  1  0
 29 32  1  0
 28 33  2  0
 33 34  1  0
 33  2  1  0
 24  7  1  0
 16  8  1  0
M  END
>  <cnnaffinity>  (1) 
-5.22298

>  <filename>  (1) 
FC(F)(F)c1ccnc(NC2(c3cccnc3)CCC2)n1

$$$$
