
     RDKit          3D

 29 31  0  0  0  0  0  0  0  0999 V2000
    4.9337    1.8052   16.9842 H   0  0  0  0  0  0  0  0  0  0  0  0
    5.3895    1.2852   17.8250 C   0  0  0  0  0  0  0  0  0  0  0  0
    6.5457    0.6522   17.5647 N   0  0  0  0  0  0  0  0  0  0  0  0
    7.1566    0.0347   18.5817 C   0  0  0  0  0  0  0  0  0  0  0  0
    8.1045   -0.4538   18.3483 H   0  0  0  0  0  0  0  0  0  0  0  0
    6.6646    0.0079   19.9061 C   0  0  0  0  0  0  0  0  0  0  0  0
    7.4185   -0.6430   21.0039 C   0  0  0  0  0  0  0  0  0  0  0  0
    8.3059   -2.1024   20.8174 S   0  0  0  0  0  0  0  0  0  0  0  0
    8.6569   -2.3092   22.4275 N   0  0  0  0  0  0  0  0  0  0  0  0
    8.1699   -1.3119   23.1075 C   0  0  0  0  0  0  0  0  0  0  0  0
    8.3433   -1.2749   24.1861 H   0  0  0  0  0  0  0  0  0  0  0  0
    7.4913   -0.3220   22.3413 C   0  0  0  0  0  0  0  0  0  0  0  0
    6.9862    0.8685   22.9927 C   0  0  0  0  0  0  0  0  0  0  0  0
    6.0179    0.6411   23.8875 N   0  0  0  0  0  0  0  0  0  0  0  0
    5.4045    1.6804   24.4396 C   0  0  0  0  0  0  0  0  0  0  0  0
    4.5913    1.4255   25.1176 H   0  0  0  0  0  0  0  0  0  0  0  0
    5.7592    3.0114   24.1767 C   0  0  0  0  0  0  0  0  0  0  0  0
    5.2232    3.8074   24.6735 H   0  0  0  0  0  0  0  0  0  0  0  0
    6.8228    3.2587   23.3134 C   0  0  0  0  0  0  0  0  0  0  0  0
    7.1507    4.2754   23.0918 H   0  0  0  0  0  0  0  0  0  0  0  0
    7.4694    2.1566   22.7519 C   0  0  0  0  0  0  0  0  0  0  0  0
    8.6431    2.3090   21.8437 C   0  0  0  0  0  0  0  0  0  0  0  0
    9.5694    1.3456   22.0152 F   0  0  0  0  0  0  0  0  0  0  0  0
    8.2618    2.2573   20.5570 F   0  0  0  0  0  0  0  0  0  0  0  0
    9.2562    3.4808   22.0386 F   0  0  0  0  0  0  0  0  0  0  0  0
    5.4352    0.6485   20.1429 C   0  0  0  0  0  0  0  0  0  0  0  0
    4.9999    0.6312   21.1436 H   0  0  0  0  0  0  0  0  0  0  0  0
    4.7917    1.3012   19.0880 C   0  0  0  0  0  0  0  0  0  0  0  0
    3.8578    1.8357   19.2324 H   0  0  0  0  0  0  0  0  0  0  0  0
  1  2  1  0
  2  3  2  0
  3  4  1  0
  4  5  1  0
  4  6  2  0
  6  7  1  0
  7  8  1  0
  8  9  1  0
  9 10  2  0
 10 11  1  0
 10 12  1  0
 12 13  1  0
 13 14  2  0
 14 15  1  0
 15 16  1  0
 15 17  2  0
 17 18  1  0
 17 19  1  0
 19 20  1  0
 19 21  2  0
 21 22  1  0
 22 23  1  0
 22 24  1  0
 22 25  1  0
  6 26  1  0
 26 27  1  0
 26 28  2  0
 28 29  1  0
 28  2  1  0
 12  7  2  0
 21 13  1  0
M  END
>  <cnnaffinity>  (1) 
-4.58757

>  <filename>  (1) 
FC(F)(F)c1cccnc1-c1cnsc1-c1cccnc1

$$$$
