
     RDKit          3D

 32 34  0  0  0  0  0  0  0  0999 V2000
    5.0639   -0.3332   26.1988 H   0  0  0  0  0  0  0  0  0  0  0  0
    5.1342    0.4037   25.3993 C   0  0  0  0  0  0  0  0  0  0  0  0
    6.2246    0.3304   24.6393 N   0  0  0  0  0  0  0  0  0  0  0  0
    6.2820    1.1935   23.6171 C   0  0  0  0  0  0  0  0  0  0  0  0
    7.5051    1.1424   22.7265 C   0  0  0  0  0  0  0  0  0  0  0  0
    8.3661    1.4661   23.3223 H   0  0  0  0  0  0  0  0  0  0  0  0
    7.3346    1.8424   21.9073 H   0  0  0  0  0  0  0  0  0  0  0  0
    7.8307   -0.1714   22.1676 N   0  0  0  0  0  0  0  0  0  0  0  0
    8.4432   -1.2011   22.8344 C   0  0  0  0  0  0  0  0  0  0  0  0
    8.7909   -1.0676   23.8579 H   0  0  0  0  0  0  0  0  0  0  0  0
    8.4548   -2.3108   22.1414 N   0  0  0  0  0  0  0  0  0  0  0  0
    7.7928   -1.9997   20.9839 C   0  0  0  0  0  0  0  0  0  0  0  0
    7.5002   -2.7332   20.2547 H   0  0  0  0  0  0  0  0  0  0  0  0
    7.4085   -0.6860   20.9542 C   0  0  0  0  0  0  0  0  0  0  0  0
    6.6718    0.0534   19.9063 C   0  0  0  0  0  0  0  0  0  0  0  0
    7.1558    0.0885   18.5811 C   0  0  0  0  0  0  0  0  0  0  0  0
    8.1015   -0.3936   18.3367 H   0  0  0  0  0  0  0  0  0  0  0  0
    6.5379    0.6924   17.5593 N   0  0  0  0  0  0  0  0  0  0  0  0
    5.3756    1.3131   17.8118 C   0  0  0  0  0  0  0  0  0  0  0  0
    4.9085    1.8149   16.9639 H   0  0  0  0  0  0  0  0  0  0  0  0
    4.7849    1.3305   19.0785 C   0  0  0  0  0  0  0  0  0  0  0  0
    3.8494    1.8568   19.2286 H   0  0  0  0  0  0  0  0  0  0  0  0
    5.4378    0.6880   20.1332 C   0  0  0  0  0  0  0  0  0  0  0  0
    5.0002    0.6750   21.1287 H   0  0  0  0  0  0  0  0  0  0  0  0
    5.3860    2.1438   23.3435 N   0  0  0  0  0  0  0  0  0  0  0  0
    4.3083    2.2438   24.1344 C   0  0  0  0  0  0  0  0  0  0  0  0
    3.2366    3.3388   23.8513 C   0  0  0  0  0  0  0  0  0  0  0  0
    2.0255    2.7721   23.6563 F   0  0  0  0  0  0  0  0  0  0  0  0
    3.1003    4.1640   24.9096 F   0  0  0  0  0  0  0  0  0  0  0  0
    3.4845    4.1020   22.7860 F   0  0  0  0  0  0  0  0  0  0  0  0
    4.1330    1.3494   25.1947 C   0  0  0  0  0  0  0  0  0  0  0  0
    3.2688    1.3806   25.8373 H   0  0  0  0  0  0  0  0  0  0  0  0
  1  2  1  0
  2  3  2  0
  3  4  1  0
  4  5  1  0
  5  6  1  0
  5  7  1  0
  5  8  1  0
  8  9  1  0
  9 10  1  0
  9 11  2  0
 11 12  1  0
 12 13  1  0
 12 14  2  0
 14 15  1  0
 15 16  2  0
 16 17  1  0
 16 18  1  0
 18 19  2  0
 19 20  1  0
 19 21  1  0
 21 22  1  0
 21 23  2  0
 23 24  1  0
  4 25  2  0
 25 26  1  0
 26 27  1  0
 27 28  1  0
 27 29  1  0
 27 30  1  0
 26 31  2  0
 31 32  1  0
 31  2  1  0
 14  8  1  0
 23 15  1  0
M  END
>  <cnnaffinity>  (1) 
-4.85995

>  <filename>  (1) 
FC(F)(F)c1ccnc(Cn2cncc2-c2cccnc2)n1

$$$$
