
     RDKit          3D

 32 35  0  0  0  0  0  0  0  0999 V2000
    4.9159    1.7754   17.0024 H   0  0  0  0  0  0  0  0  0  0  0  0
    5.4042    1.2899   17.8432 C   0  0  0  0  0  0  0  0  0  0  0  0
    6.5700    0.6779   17.5783 N   0  0  0  0  0  0  0  0  0  0  0  0
    7.1751    0.0565   18.5913 C   0  0  0  0  0  0  0  0  0  0  0  0
    8.1250   -0.4349   18.3744 H   0  0  0  0  0  0  0  0  0  0  0  0
    6.6481    0.0112   19.8921 C   0  0  0  0  0  0  0  0  0  0  0  0
    7.4028   -0.7003   20.9183 C   0  0  0  0  0  0  0  0  0  0  0  0
    8.3306   -1.5995   20.7006 N   0  0  0  0  0  0  0  0  0  0  0  0
    8.8310   -2.0315   21.9088 N   0  0  0  0  0  0  0  0  0  0  0  0
    8.1946   -1.3511   22.8199 C   0  0  0  0  0  0  0  0  0  0  0  0
    8.2611   -1.0911   24.5345 S   0  0  0  0  0  0  0  0  0  0  0  0
    7.0308    0.1775   24.3229 C   0  0  0  0  0  0  0  0  0  0  0  0
    6.5368    0.9639   25.4718 C   0  0  0  0  0  0  0  0  0  0  0  0
    7.0128    0.7430   26.7810 C   0  0  0  0  0  0  0  0  0  0  0  0
    7.7674   -0.0149   26.9863 H   0  0  0  0  0  0  0  0  0  0  0  0
    6.5154    1.4973   27.8429 C   0  0  0  0  0  0  0  0  0  0  0  0
    6.8774    1.3172   28.8482 H   0  0  0  0  0  0  0  0  0  0  0  0
    5.5519    2.4838   27.6273 C   0  0  0  0  0  0  0  0  0  0  0  0
    5.1648    3.0579   28.4666 H   0  0  0  0  0  0  0  0  0  0  0  0
    5.0911    2.7226   26.3245 C   0  0  0  0  0  0  0  0  0  0  0  0
    4.0145    3.7545   26.0805 C   0  0  0  0  0  0  0  0  0  0  0  0
    2.7870    3.2034   26.1452 F   0  0  0  0  0  0  0  0  0  0  0  0
    4.0394    4.7490   26.9855 F   0  0  0  0  0  0  0  0  0  0  0  0
    4.1163    4.3269   24.8676 F   0  0  0  0  0  0  0  0  0  0  0  0
    5.5665    1.9568   25.2521 C   0  0  0  0  0  0  0  0  0  0  0  0
    5.1960    2.1141   24.2407 H   0  0  0  0  0  0  0  0  0  0  0  0
    6.6185    0.3577   23.1052 N   0  0  0  0  0  0  0  0  0  0  0  0
    7.2674   -0.5176   22.2800 N   0  0  0  0  0  0  0  0  0  0  0  0
    5.4333    0.6524   20.1614 C   0  0  0  0  0  0  0  0  0  0  0  0
    5.0089    0.6348   21.1679 H   0  0  0  0  0  0  0  0  0  0  0  0
    4.8047    1.3086   19.1090 C   0  0  0  0  0  0  0  0  0  0  0  0
    3.8742    1.8435   19.2619 H   0  0  0  0  0  0  0  0  0  0  0  0
  1  2  1  0
  2  3  2  0
  3  4  1  0
  4  5  1  0
  4  6  2  0
  6  7  1  0
  7  8  2  0
  8  9  1  0
  9 10  2  0
 10 11  1  0
 11 12  1  0
 12 13  1  0
 13 14  2  0
 14 15  1  0
 14 16  1  0
 16 17  1  0
 16 18  2  0
 18 19  1  0
 18 20  1  0
 20 21  1  0
 21 22  1  0
 21 23  1  0
 21 24  1  0
 20 25  2  0
 25 26  1  0
 12 27  2  0
 27 28  1  0
  6 29  1  0
 29 30  1  0
 29 31  2  0
 31 32  1  0
 31  2  1  0
 28  7  1  0
 28 10  1  0
 25 13  1  0
M  END
>  <cnnaffinity>  (1) 
-5.46872

>  <filename>  (1) 
FC(F)(F)c1cccc(-c2nn3c(-c4cccnc4)nnc3s2)c1

$$$$
