
     RDKit          3D

 34 36  0  0  0  0  0  0  0  0999 V2000
    4.9155    1.7987   16.9755 H   0  0  0  0  0  0  0  0  0  0  0  0
    5.3904    1.3054   17.8192 C   0  0  0  0  0  0  0  0  0  0  0  0
    6.5491    0.6834   17.5482 N   0  0  0  0  0  0  0  0  0  0  0  0
    7.1527    0.0710   18.5757 C   0  0  0  0  0  0  0  0  0  0  0  0
    8.1005   -0.4160   18.3620 H   0  0  0  0  0  0  0  0  0  0  0  0
    6.6561    0.0438   19.8886 C   0  0  0  0  0  0  0  0  0  0  0  0
    7.3940   -0.7019   20.9260 C   0  0  0  0  0  0  0  0  0  0  0  0
    7.6194   -2.0506   21.0037 C   0  0  0  0  0  0  0  0  0  0  0  0
    7.2387   -2.7695   20.2983 H   0  0  0  0  0  0  0  0  0  0  0  0
    8.3489   -2.2269   22.1969 C   0  0  0  0  0  0  0  0  0  0  0  0
    8.7377   -3.1454   22.6140 H   0  0  0  0  0  0  0  0  0  0  0  0
    8.5577   -1.0667   22.8084 N   0  0  0  0  0  0  0  0  0  0  0  0
    7.9744   -0.1445   22.0220 N   0  0  0  0  0  0  0  0  0  0  0  0
    7.9853    1.2643   22.3871 C   0  0  0  0  0  0  0  0  0  0  0  0
    8.0961    1.8323   21.4644 H   0  0  0  0  0  0  0  0  0  0  0  0
    8.8800    1.4069   22.9913 H   0  0  0  0  0  0  0  0  0  0  0  0
    6.7506    1.7428   23.1252 C   0  0  0  0  0  0  0  0  0  0  0  0
    6.3574    1.0817   24.2921 C   0  0  0  0  0  0  0  0  0  0  0  0
    6.9515    0.2458   24.6503 H   0  0  0  0  0  0  0  0  0  0  0  0
    5.2113    1.4738   24.9808 C   0  0  0  0  0  0  0  0  0  0  0  0
    4.9291    0.9424   25.8873 H   0  0  0  0  0  0  0  0  0  0  0  0
    4.4367    2.5464   24.5062 C   0  0  0  0  0  0  0  0  0  0  0  0
    3.2190    3.0108   25.2861 C   0  0  0  0  0  0  0  0  0  0  0  0
    2.2881    3.5694   24.4883 F   0  0  0  0  0  0  0  0  0  0  0  0
    2.6184    2.0026   25.9480 F   0  0  0  0  0  0  0  0  0  0  0  0
    3.5441    3.9380   26.2081 F   0  0  0  0  0  0  0  0  0  0  0  0
    4.8435    3.2392   23.3516 C   0  0  0  0  0  0  0  0  0  0  0  0
    4.2672    4.0873   22.9814 H   0  0  0  0  0  0  0  0  0  0  0  0
    5.9987    2.8393   22.6758 C   0  0  0  0  0  0  0  0  0  0  0  0
    6.2813    3.3637   21.7624 H   0  0  0  0  0  0  0  0  0  0  0  0
    5.4300    0.6727   20.1434 C   0  0  0  0  0  0  0  0  0  0  0  0
    5.0123    0.6303   21.1534 H   0  0  0  0  0  0  0  0  0  0  0  0
    4.7918    1.3257   19.0871 C   0  0  0  0  0  0  0  0  0  0  0  0
    3.8568    1.8534   19.2372 H   0  0  0  0  0  0  0  0  0  0  0  0
  1  2  1  0
  2  3  2  0
  3  4  1  0
  4  5  1  0
  4  6  2  0
  6  7  1  0
  7  8  2  0
  8  9  1  0
  8 10  1  0
 10 11  1  0
 10 12  2  0
 12 13  1  0
 13 14  1  0
 14 15  1  0
 14 16  1  0
 14 17  1  0
 17 18  2  0
 18 19  1  0
 18 20  1  0
 20 21  1  0
 20 22  2  0
 22 23  1  0
 23 24  1  0
 23 25  1  0
 23 26  1  0
 22 27  1  0
 27 28  1  0
 27 29  2  0
 29 30  1  0
  6 31  1  0
 31 32  1  0
 31 33  2  0
 33 34  1  0
 33  2  1  0
 13  7  1  0
 29 17  1  0
M  END
>  <cnnaffinity>  (1) 
-4.92062

>  <filename>  (1) 
FC(F)(F)c1ccc(Cn2nccc2-c2cccnc2)cc1

$$$$
