
     RDKit          3D

 31 33  0  0  0  0  0  0  0  0999 V2000
    4.9950    1.7659   16.9247 H   0  0  0  0  0  0  0  0  0  0  0  0
    5.4249    1.2604   17.7867 C   0  0  0  0  0  0  0  0  0  0  0  0
    6.5555    0.5710   17.5623 N   0  0  0  0  0  0  0  0  0  0  0  0
    7.1055   -0.0484   18.6110 C   0  0  0  0  0  0  0  0  0  0  0  0
    7.9971   -0.6444   18.4121 H   0  0  0  0  0  0  0  0  0  0  0  0
    6.6088    0.0302   19.9201 C   0  0  0  0  0  0  0  0  0  0  0  0
    7.3922   -0.6619   20.9570 C   0  0  0  0  0  0  0  0  0  0  0  0
    8.1291   -1.7183   20.6940 N   0  0  0  0  0  0  0  0  0  0  0  0
    8.5962   -2.1684   21.9059 C   0  0  0  0  0  0  0  0  0  0  0  0
    9.2041   -3.0612   22.0054 H   0  0  0  0  0  0  0  0  0  0  0  0
    8.1625   -1.3593   22.9072 C   0  0  0  0  0  0  0  0  0  0  0  0
    8.3585   -1.3554   23.9693 H   0  0  0  0  0  0  0  0  0  0  0  0
    7.3933   -0.3787   22.3073 N   0  0  0  0  0  0  0  0  0  0  0  0
    7.0026    0.8261   22.9731 C   0  0  0  0  0  0  0  0  0  0  0  0
    6.0044    0.7523   23.9516 C   0  0  0  0  0  0  0  0  0  0  0  0
    5.6491   -0.2278   24.2683 H   0  0  0  0  0  0  0  0  0  0  0  0
    5.4632    1.9278   24.4777 C   0  0  0  0  0  0  0  0  0  0  0  0
    4.6359    1.8716   25.1812 H   0  0  0  0  0  0  0  0  0  0  0  0
    5.9614    3.1733   24.0694 C   0  0  0  0  0  0  0  0  0  0  0  0
    5.5141    4.0895   24.4450 H   0  0  0  0  0  0  0  0  0  0  0  0
    7.0439    3.2396   23.1870 C   0  0  0  0  0  0  0  0  0  0  0  0
    7.4447    4.2109   22.8954 H   0  0  0  0  0  0  0  0  0  0  0  0
    7.6205    2.0613   22.6830 C   0  0  0  0  0  0  0  0  0  0  0  0
    8.8731    2.1301   21.8251 C   0  0  0  0  0  0  0  0  0  0  0  0
    9.5428    3.2787   22.0414 F   0  0  0  0  0  0  0  0  0  0  0  0
    9.7576    1.1423   22.0485 F   0  0  0  0  0  0  0  0  0  0  0  0
    8.5612    2.0754   20.5165 F   0  0  0  0  0  0  0  0  0  0  0  0
    5.4006    0.7157   20.1355 C   0  0  0  0  0  0  0  0  0  0  0  0
    4.9339    0.7568   21.1260 H   0  0  0  0  0  0  0  0  0  0  0  0
    4.8002    1.3314   19.0380 C   0  0  0  0  0  0  0  0  0  0  0  0
    3.8681    1.8749   19.1354 H   0  0  0  0  0  0  0  0  0  0  0  0
  1  2  1  0
  2  3  2  0
  3  4  1  0
  4  5  1  0
  4  6  2  0
  6  7  1  0
  7  8  2  0
  8  9  1  0
  9 10  1  0
  9 11  2  0
 11 12  1  0
 11 13  1  0
 13 14  1  0
 14 15  2  0
 15 16  1  0
 15 17  1  0
 17 18  1  0
 17 19  2  0
 19 20  1  0
 19 21  1  0
 21 22  1  0
 21 23  2  0
 23 24  1  0
 24 25  1  0
 24 26  1  0
 24 27  1  0
  6 28  1  0
 28 29  1  0
 28 30  2  0
 30 31  1  0
 30  2  1  0
 13  7  1  0
 23 14  1  0
M  END
>  <cnnaffinity>  (1) 
-4.81801

>  <filename>  (1) 
FC(F)(F)c1ccccc1-n1ccnc1-c1cccnc1

$$$$
