
     RDKit          3D

 29 31  0  0  0  0  0  0  0  0999 V2000
    4.9244    1.7916   17.0118 H   0  0  0  0  0  0  0  0  0  0  0  0
    5.4051    1.2827   17.8459 C   0  0  0  0  0  0  0  0  0  0  0  0
    6.5618    0.6635   17.5736 N   0  0  0  0  0  0  0  0  0  0  0  0
    7.2056    0.0511   18.5750 C   0  0  0  0  0  0  0  0  0  0  0  0
    8.1586   -0.4119   18.3276 H   0  0  0  0  0  0  0  0  0  0  0  0
    6.7028    0.0097   19.8918 C   0  0  0  0  0  0  0  0  0  0  0  0
    7.2678   -0.6953   20.9629 O   0  0  0  0  0  0  0  0  0  0  0  0
    8.5867   -0.8229   21.1159 C   0  0  0  0  0  0  0  0  0  0  0  0
    9.5188   -0.1508   20.4896 N   0  0  0  0  0  0  0  0  0  0  0  0
   10.6894   -0.6071   20.9867 N   0  0  0  0  0  0  0  0  0  0  0  0
   10.5102   -1.5125   21.8623 N   0  0  0  0  0  0  0  0  0  0  0  0
    9.1594   -1.6771   21.9808 N   0  0  0  0  0  0  0  0  0  0  0  0
    8.5960   -2.6186   22.8574 C   0  0  0  0  0  0  0  0  0  0  0  0
    7.2685   -2.6964   22.8332 N   0  0  0  0  0  0  0  0  0  0  0  0
    6.6887   -3.6006   23.6306 C   0  0  0  0  0  0  0  0  0  0  0  0
    5.1486   -3.7822   23.5968 C   0  0  0  0  0  0  0  0  0  0  0  0
    4.5344   -3.2393   22.5446 F   0  0  0  0  0  0  0  0  0  0  0  0
    4.5838   -3.2756   24.7130 F   0  0  0  0  0  0  0  0  0  0  0  0
    4.8499   -5.1003   23.5610 F   0  0  0  0  0  0  0  0  0  0  0  0
    7.4145   -4.3971   24.5181 C   0  0  0  0  0  0  0  0  0  0  0  0
    6.8855   -5.0690   25.1808 H   0  0  0  0  0  0  0  0  0  0  0  0
    8.8112   -4.3108   24.5253 C   0  0  0  0  0  0  0  0  0  0  0  0
    9.4035   -4.9539   25.1784 H   0  0  0  0  0  0  0  0  0  0  0  0
    9.4286   -3.4116   23.6647 C   0  0  0  0  0  0  0  0  0  0  0  0
   10.5054   -3.2924   23.5823 H   0  0  0  0  0  0  0  0  0  0  0  0
    5.4857    0.6391   20.1644 C   0  0  0  0  0  0  0  0  0  0  0  0
    5.0869    0.5823   21.1757 H   0  0  0  0  0  0  0  0  0  0  0  0
    4.8294    1.3002   19.1197 C   0  0  0  0  0  0  0  0  0  0  0  0
    3.8888    1.8201   19.2789 H   0  0  0  0  0  0  0  0  0  0  0  0
  1  2  1  0
  2  3  2  0
  3  4  1  0
  4  5  1  0
  4  6  2  0
  6  7  1  0
  7  8  1  0
  8  9  2  0
  9 10  1  0
 10 11  2  0
 11 12  1  0
 12 13  1  0
 13 14  2  0
 14 15  1  0
 15 16  1  0
 16 17  1  0
 16 18  1  0
 16 19  1  0
 15 20  2  0
 20 21  1  0
 20 22  1  0
 22 23  1  0
 22 24  2  0
 24 25  1  0
  6 26  1  0
 26 27  1  0
 26 28  2  0
 28 29  1  0
 28  2  1  0
 12  8  1  0
 24 13  1  0
M  END
>  <cnnaffinity>  (1) 
-5.32696

>  <filename>  (1) 
FC(F)(F)c1cccc(-n2nnnc2Oc2cccnc2)n1

$$$$
