
     RDKit          3D

 33 35  0  0  0  0  0  0  0  0999 V2000
    4.9381    1.7763   16.9979 H   0  0  0  0  0  0  0  0  0  0  0  0
    5.4130    1.2871   17.8466 C   0  0  0  0  0  0  0  0  0  0  0  0
    6.5774    0.6650   17.6066 N   0  0  0  0  0  0  0  0  0  0  0  0
    7.1714    0.0532   18.6331 C   0  0  0  0  0  0  0  0  0  0  0  0
    8.1114   -0.4411   18.3950 H   0  0  0  0  0  0  0  0  0  0  0  0
    6.6483    0.0353   19.9303 C   0  0  0  0  0  0  0  0  0  0  0  0
    7.3830   -0.7059   20.9639 C   0  0  0  0  0  0  0  0  0  0  0  0
    8.0147   -1.7844   20.6975 N   0  0  0  0  0  0  0  0  0  0  0  0
    8.5138   -2.3296   21.9561 C   0  0  0  0  0  0  0  0  0  0  0  0
    8.1436   -3.3496   22.1057 H   0  0  0  0  0  0  0  0  0  0  0  0
    9.6049   -2.4024   21.9112 H   0  0  0  0  0  0  0  0  0  0  0  0
    8.0394   -1.3748   23.0716 C   0  0  0  0  0  0  0  0  0  0  0  0
    8.8692   -0.9648   23.6610 H   0  0  0  0  0  0  0  0  0  0  0  0
    7.3521   -1.8574   23.7823 H   0  0  0  0  0  0  0  0  0  0  0  0
    7.3788   -0.3215   22.3014 N   0  0  0  0  0  0  0  0  0  0  0  0
    7.1591    0.9711   22.8397 C   0  0  0  0  0  0  0  0  0  0  0  0
    7.5633    2.1274   22.1474 C   0  0  0  0  0  0  0  0  0  0  0  0
    8.0302    2.0050   21.1763 H   0  0  0  0  0  0  0  0  0  0  0  0
    7.3312    3.3936   22.6884 C   0  0  0  0  0  0  0  0  0  0  0  0
    7.6281    4.2796   22.1336 H   0  0  0  0  0  0  0  0  0  0  0  0
    6.7164    3.5397   23.9347 C   0  0  0  0  0  0  0  0  0  0  0  0
    6.5392    4.5359   24.3445 H   0  0  0  0  0  0  0  0  0  0  0  0
    6.3395    2.3911   24.6516 C   0  0  0  0  0  0  0  0  0  0  0  0
    5.6397    2.5440   25.9978 C   0  0  0  0  0  0  0  0  0  0  0  0
    6.0010    3.6677   26.6487 F   0  0  0  0  0  0  0  0  0  0  0  0
    5.8891    1.5154   26.8288 F   0  0  0  0  0  0  0  0  0  0  0  0
    4.3013    2.6064   25.8563 F   0  0  0  0  0  0  0  0  0  0  0  0
    6.5505    1.1135   24.0980 C   0  0  0  0  0  0  0  0  0  0  0  0
    6.2464    0.2124   24.6262 H   0  0  0  0  0  0  0  0  0  0  0  0
    5.4158    0.6607   20.1683 C   0  0  0  0  0  0  0  0  0  0  0  0
    4.9832    0.6538   21.1713 H   0  0  0  0  0  0  0  0  0  0  0  0
    4.7986    1.3070   19.1042 C   0  0  0  0  0  0  0  0  0  0  0  0
    3.8685    1.8433   19.2487 H   0  0  0  0  0  0  0  0  0  0  0  0
  1  2  1  0
  2  3  2  0
  3  4  1  0
  4  5  1  0
  4  6  2  0
  6  7  1  0
  7  8  2  0
  8  9  1  0
  9 10  1  0
  9 11  1  0
  9 12  1  0
 12 13  1  0
 12 14  1  0
 12 15  1  0
 15 16  1  0
 16 17  2  0
 17 18  1  0
 17 19  1  0
 19 20  1  0
 19 21  2  0
 21 22  1  0
 21 23  1  0
 23 24  1  0
 24 25  1  0
 24 26  1  0
 24 27  1  0
 23 28  2  0
 28 29  1  0
  6 30  1  0
 30 31  1  0
 30 32  2  0
 32 33  1  0
 32  2  1  0
 15  7  1  0
 28 16  1  0
M  END
>  <cnnaffinity>  (1) 
-4.99529

>  <filename>  (1) 
FC(F)(F)c1cccc(N2CCN=C2c2cccnc2)c1

$$$$
