
     RDKit          3D

 34 36  0  0  0  0  0  0  0  0999 V2000
    4.9126    1.8219   16.9545 H   0  0  0  0  0  0  0  0  0  0  0  0
    5.3791    1.3160   17.8012 C   0  0  0  0  0  0  0  0  0  0  0  0
    6.5398    0.6877   17.5500 N   0  0  0  0  0  0  0  0  0  0  0  0
    7.1504    0.0774   18.5736 C   0  0  0  0  0  0  0  0  0  0  0  0
    8.0928   -0.4115   18.3272 H   0  0  0  0  0  0  0  0  0  0  0  0
    6.6499    0.0293   19.8963 C   0  0  0  0  0  0  0  0  0  0  0  0
    7.2886   -0.7103   21.0036 C   0  0  0  0  0  0  0  0  0  0  0  0
    6.7672   -1.6512   21.8607 C   0  0  0  0  0  0  0  0  0  0  0  0
    5.7461   -2.0056   21.8827 H   0  0  0  0  0  0  0  0  0  0  0  0
    7.7344   -2.1677   22.6829 N   0  0  0  0  0  0  0  0  0  0  0  0
    8.8288   -1.5312   22.3494 C   0  0  0  0  0  0  0  0  0  0  0  0
    9.8145   -1.6332   22.7945 H   0  0  0  0  0  0  0  0  0  0  0  0
    8.6239   -0.6332   21.3468 N   0  0  0  0  0  0  0  0  0  0  0  0
    9.6467    0.2075   20.7380 C   0  0  0  0  0  0  0  0  0  0  0  0
    9.1320    0.9810   20.1723 H   0  0  0  0  0  0  0  0  0  0  0  0
   10.2157   -0.4285   20.0511 H   0  0  0  0  0  0  0  0  0  0  0  0
   10.5850    0.8503   21.7440 C   0  0  0  0  0  0  0  0  0  0  0  0
   11.8176    0.2299   21.9914 C   0  0  0  0  0  0  0  0  0  0  0  0
   12.0641   -0.6701   21.4313 H   0  0  0  0  0  0  0  0  0  0  0  0
   12.7074    0.7253   22.9474 C   0  0  0  0  0  0  0  0  0  0  0  0
   13.6428    0.2055   23.1480 H   0  0  0  0  0  0  0  0  0  0  0  0
   12.3735    1.8794   23.6547 C   0  0  0  0  0  0  0  0  0  0  0  0
   13.0716    2.2460   24.3948 H   0  0  0  0  0  0  0  0  0  0  0  0
   11.1589    2.5296   23.4116 C   0  0  0  0  0  0  0  0  0  0  0  0
   10.9146    3.4371   23.9593 H   0  0  0  0  0  0  0  0  0  0  0  0
   10.2481    2.0107   22.4727 C   0  0  0  0  0  0  0  0  0  0  0  0
    8.9033    2.6912   22.2531 C   0  0  0  0  0  0  0  0  0  0  0  0
    8.7407    3.7809   23.0241 F   0  0  0  0  0  0  0  0  0  0  0  0
    8.7672    3.0959   20.9750 F   0  0  0  0  0  0  0  0  0  0  0  0
    7.8510    1.8864   22.5045 F   0  0  0  0  0  0  0  0  0  0  0  0
    5.4269    0.6769   20.1207 C   0  0  0  0  0  0  0  0  0  0  0  0
    5.0066    0.6616   21.1258 H   0  0  0  0  0  0  0  0  0  0  0  0
    4.7904    1.3358   19.0685 C   0  0  0  0  0  0  0  0  0  0  0  0
    3.8542    1.8627   19.2132 H   0  0  0  0  0  0  0  0  0  0  0  0
  1  2  1  0
  2  3  2  0
  3  4  1  0
  4  5  1  0
  4  6  2  0
  6  7  1  0
  7  8  2  0
  8  9  1  0
  8 10  1  0
 10 11  2  0
 11 12  1  0
 11 13  1  0
 13 14  1  0
 14 15  1  0
 14 16  1  0
 14 17  1  0
 17 18  2  0
 18 19  1  0
 18 20  1  0
 20 21  1  0
 20 22  2  0
 22 23  1  0
 22 24  1  0
 24 25  1  0
 24 26  2  0
 26 27  1  0
 27 28  1  0
 27 29  1  0
 27 30  1  0
  6 31  1  0
 31 32  1  0
 31 33  2  0
 33 34  1  0
 33  2  1  0
 13  7  1  0
 26 17  1  0
M  END
>  <cnnaffinity>  (1) 
-5.68933

>  <filename>  (1) 
FC(F)(F)c1ccccc1Cn1cncc1-c1cccnc1

$$$$
