
     RDKit          3D

 24 25  0  0  0  0  0  0  0  0999 V2000
    4.9211    1.7791   16.9961 H   0  0  0  0  0  0  0  0  0  0  0  0
    5.4058    1.2871   17.8425 C   0  0  0  0  0  0  0  0  0  0  0  0
    6.5727    0.6630   17.6070 N   0  0  0  0  0  0  0  0  0  0  0  0
    7.1869    0.0517   18.6309 C   0  0  0  0  0  0  0  0  0  0  0  0
    8.1268   -0.4419   18.3951 H   0  0  0  0  0  0  0  0  0  0  0  0
    6.6721    0.0335   19.9468 C   0  0  0  0  0  0  0  0  0  0  0  0
    7.3634   -0.6739   20.9354 O   0  0  0  0  0  0  0  0  0  0  0  0
    7.3882   -0.3175   22.2538 C   0  0  0  0  0  0  0  0  0  0  0  0
    7.0763    0.9101   22.6051 N   0  0  0  0  0  0  0  0  0  0  0  0
    7.1645    1.2386   23.9004 C   0  0  0  0  0  0  0  0  0  0  0  0
    6.8868    2.2527   24.1548 H   0  0  0  0  0  0  0  0  0  0  0  0
    7.5547    0.3509   24.8941 C   0  0  0  0  0  0  0  0  0  0  0  0
    7.5903    0.6662   25.9242 H   0  0  0  0  0  0  0  0  0  0  0  0
    7.8936   -0.9436   24.5299 C   0  0  0  0  0  0  0  0  0  0  0  0
    8.2121   -1.6701   25.2798 H   0  0  0  0  0  0  0  0  0  0  0  0
    7.8199   -1.2886   23.1800 C   0  0  0  0  0  0  0  0  0  0  0  0
    8.1773   -2.6555   22.6927 C   0  0  0  0  0  0  0  0  0  0  0  0
    7.1510   -3.2654   22.0774 F   0  0  0  0  0  0  0  0  0  0  0  0
    9.2093   -2.6428   21.8344 F   0  0  0  0  0  0  0  0  0  0  0  0
    8.5407   -3.4580   23.7195 F   0  0  0  0  0  0  0  0  0  0  0  0
    5.4367    0.6444   20.1747 C   0  0  0  0  0  0  0  0  0  0  0  0
    4.9982    0.6327   21.1701 H   0  0  0  0  0  0  0  0  0  0  0  0
    4.8088    1.2957   19.1040 C   0  0  0  0  0  0  0  0  0  0  0  0
    3.8809    1.8351   19.2596 H   0  0  0  0  0  0  0  0  0  0  0  0
  1  2  1  0
  2  3  2  0
  3  4  1  0
  4  5  1  0
  4  6  2  0
  6  7  1  0
  7  8  1  0
  8  9  2  0
  9 10  1  0
 10 11  1  0
 10 12  2  0
 12 13  1  0
 12 14  1  0
 14 15  1  0
 14 16  2  0
 16 17  1  0
 17 18  1  0
 17 19  1  0
 17 20  1  0
  6 21  1  0
 21 22  1  0
 21 23  2  0
 23 24  1  0
 23  2  1  0
 16  8  1  0
M  END
>  <cnnaffinity>  (1) 
-4.61095

>  <filename>  (1) 
FC(F)(F)c1cccnc1Oc1cccnc1

$$$$
