
     RDKit          3D

 32 34  0  0  0  0  0  0  0  0999 V2000
    4.9669    1.8436   16.9132 H   0  0  0  0  0  0  0  0  0  0  0  0
    5.4156    1.3294   17.7576 C   0  0  0  0  0  0  0  0  0  0  0  0
    6.5664    0.6876   17.5005 N   0  0  0  0  0  0  0  0  0  0  0  0
    7.1498    0.0480   18.5155 C   0  0  0  0  0  0  0  0  0  0  0  0
    8.0760   -0.4673   18.2597 H   0  0  0  0  0  0  0  0  0  0  0  0
    6.6372    0.0112   19.8181 C   0  0  0  0  0  0  0  0  0  0  0  0
    7.3915   -0.6834   20.8717 C   0  0  0  0  0  0  0  0  0  0  0  0
    6.9059   -0.7687   22.1012 N   0  0  0  0  0  0  0  0  0  0  0  0
    7.8342   -1.4255   22.8277 N   0  0  0  0  0  0  0  0  0  0  0  0
    7.5872   -1.7100   24.2079 C   0  0  0  0  0  0  0  0  0  0  0  0
    8.3499   -2.6697   24.8984 C   0  0  0  0  0  0  0  0  0  0  0  0
    9.2119   -3.1385   24.4326 H   0  0  0  0  0  0  0  0  0  0  0  0
    7.9729   -3.0314   26.1905 C   0  0  0  0  0  0  0  0  0  0  0  0
    8.5477   -3.7721   26.7375 H   0  0  0  0  0  0  0  0  0  0  0  0
    6.8680   -2.4520   26.8190 C   0  0  0  0  0  0  0  0  0  0  0  0
    6.5143   -2.8133   27.7727 H   0  0  0  0  0  0  0  0  0  0  0  0
    6.2134   -1.4081   26.1685 C   0  0  0  0  0  0  0  0  0  0  0  0
    5.1770   -0.6685   26.7383 O   0  0  0  0  0  0  0  0  0  0  0  0
    4.9031   -0.7138   28.0603 C   0  0  0  0  0  0  0  0  0  0  0  0
    5.9434   -0.3835   28.8392 F   0  0  0  0  0  0  0  0  0  0  0  0
    4.4986   -1.9328   28.4645 F   0  0  0  0  0  0  0  0  0  0  0  0
    3.9208    0.1500   28.2795 F   0  0  0  0  0  0  0  0  0  0  0  0
    6.5447   -1.0421   24.8686 C   0  0  0  0  0  0  0  0  0  0  0  0
    5.9891   -0.2647   24.3568 H   0  0  0  0  0  0  0  0  0  0  0  0
    8.9155   -1.7593   22.0623 C   0  0  0  0  0  0  0  0  0  0  0  0
    9.7724   -2.2640   22.4909 H   0  0  0  0  0  0  0  0  0  0  0  0
    8.6663   -1.3002   20.7949 C   0  0  0  0  0  0  0  0  0  0  0  0
    9.2944   -1.3706   19.9193 H   0  0  0  0  0  0  0  0  0  0  0  0
    5.4168    0.6710   20.0667 C   0  0  0  0  0  0  0  0  0  0  0  0
    4.9914    0.6469   21.0715 H   0  0  0  0  0  0  0  0  0  0  0  0
    4.7972    1.3426   19.0135 C   0  0  0  0  0  0  0  0  0  0  0  0
    3.8616    1.8803   19.1540 H   0  0  0  0  0  0  0  0  0  0  0  0
  1  2  1  0
  2  3  2  0
  3  4  1  0
  4  5  1  0
  4  6  2  0
  6  7  1  0
  7  8  2  0
  8  9  1  0
  9 10  1  0
 10 11  2  0
 11 12  1  0
 11 13  1  0
 13 14  1  0
 13 15  2  0
 15 16  1  0
 15 17  1  0
 17 18  1  0
 18 19  1  0
 19 20  1  0
 19 21  1  0
 19 22  1  0
 17 23  2  0
 23 24  1  0
  9 25  1  0
 25 26  1  0
 25 27  2  0
 27 28  1  0
  6 29  1  0
 29 30  1  0
 29 31  2  0
 31 32  1  0
 31  2  1  0
 27  7  1  0
 23 10  1  0
M  END
>  <cnnaffinity>  (1) 
-5.09843

>  <filename>  (1) 
FC(F)(F)Oc1cccc(-n2ccc(-c3cccnc3)n2)c1

$$$$
