
     RDKit          3D

 26 28  0  0  0  0  0  0  0  0999 V2000
    5.0086    1.8601   17.0182 H   0  0  0  0  0  0  0  0  0  0  0  0
    5.5306    1.3250   17.8088 C   0  0  0  0  0  0  0  0  0  0  0  0
    6.6797    0.7254   17.4569 N   0  0  0  0  0  0  0  0  0  0  0  0
    7.3605    0.0599   18.3984 C   0  0  0  0  0  0  0  0  0  0  0  0
    8.2965   -0.3925   18.0698 H   0  0  0  0  0  0  0  0  0  0  0  0
    6.9059   -0.0765   19.7281 C   0  0  0  0  0  0  0  0  0  0  0  0
    7.6071   -0.8566   20.6815 N   0  0  0  0  0  0  0  0  0  0  0  0
    8.9550   -0.7327   21.0127 C   0  0  0  0  0  0  0  0  0  0  0  0
    9.5623   -0.0123   20.4840 H   0  0  0  0  0  0  0  0  0  0  0  0
    9.2465   -1.5792   22.0341 C   0  0  0  0  0  0  0  0  0  0  0  0
   10.1376   -1.7940   22.5965 H   0  0  0  0  0  0  0  0  0  0  0  0
    8.0630   -2.2328   22.3371 N   0  0  0  0  0  0  0  0  0  0  0  0
    7.7013   -3.2082   23.2001 N   0  0  0  0  0  0  0  0  0  0  0  0
    6.4077   -3.3774   22.9164 C   0  0  0  0  0  0  0  0  0  0  0  0
    5.4331   -4.5556   23.7771 S   0  0  0  0  0  0  0  0  0  0  0  0
    5.4868   -5.9191   22.5384 C   0  0  0  0  0  0  0  0  0  0  0  0
    5.4442   -5.4830   21.2810 F   0  0  0  0  0  0  0  0  0  0  0  0
    4.4209   -6.6881   22.7543 F   0  0  0  0  0  0  0  0  0  0  0  0
    6.5904   -6.6381   22.7056 F   0  0  0  0  0  0  0  0  0  0  0  0
    5.9367   -2.5364   21.8878 C   0  0  0  0  0  0  0  0  0  0  0  0
    4.9233   -2.5003   21.5442 H   0  0  0  0  0  0  0  0  0  0  0  0
    7.0650   -1.8119   21.5292 C   0  0  0  0  0  0  0  0  0  0  0  0
    5.7192    0.5756   20.0909 C   0  0  0  0  0  0  0  0  0  0  0  0
    5.3798    0.5345   21.1288 H   0  0  0  0  0  0  0  0  0  0  0  0
    5.0183    1.2818   19.1128 C   0  0  0  0  0  0  0  0  0  0  0  0
    4.0932    1.7992   19.3442 H   0  0  0  0  0  0  0  0  0  0  0  0
  1  2  1  0
  2  3  2  0
  3  4  1  0
  4  5  1  0
  4  6  2  0
  6  7  1  0
  7  8  1  0
  8  9  1  0
  8 10  2  0
 10 11  1  0
 10 12  1  0
 12 13  1  0
 13 14  2  0
 14 15  1  0
 15 16  1  0
 16 17  1  0
 16 18  1  0
 16 19  1  0
 14 20  1  0
 20 21  1  0
 20 22  2  0
  6 23  1  0
 23 24  1  0
 23 25  2  0
 25 26  1  0
 25  2  1  0
 22  7  1  0
 22 12  1  0
M  END
>  <cnnaffinity>  (1) 
-5.38757

>  <filename>  (1) 
FC(F)(F)Sc1cc2n(-c3cccnc3)ccn2n1

$$$$
