
     RDKit          3D

 33 35  0  0  0  0  0  0  0  0999 V2000
    4.9773    1.8021   17.0041 H   0  0  0  0  0  0  0  0  0  0  0  0
    5.4173    1.2831   17.8584 C   0  0  0  0  0  0  0  0  0  0  0  0
    6.5866    0.6659   17.6392 N   0  0  0  0  0  0  0  0  0  0  0  0
    7.1472    0.0465   18.6832 C   0  0  0  0  0  0  0  0  0  0  0  0
    8.1035   -0.4352   18.4836 H   0  0  0  0  0  0  0  0  0  0  0  0
    6.5896   -0.0292   19.9687 C   0  0  0  0  0  0  0  0  0  0  0  0
    7.4338   -0.6395   21.0785 C   0  0  0  0  0  0  0  0  0  0  0  0
    6.6575   -1.4275   22.1939 C   0  0  0  0  0  0  0  0  0  0  0  0
    6.6265   -0.8993   23.5058 C   0  0  0  0  0  0  0  0  0  0  0  0
    7.1066    0.0516   23.7120 H   0  0  0  0  0  0  0  0  0  0  0  0
    6.0359   -1.5822   24.5719 C   0  0  0  0  0  0  0  0  0  0  0  0
    6.0810   -1.1667   25.5764 H   0  0  0  0  0  0  0  0  0  0  0  0
    5.3687   -2.7870   24.3419 C   0  0  0  0  0  0  0  0  0  0  0  0
    4.8580   -3.3116   25.1429 H   0  0  0  0  0  0  0  0  0  0  0  0
    5.3636   -3.3242   23.0547 C   0  0  0  0  0  0  0  0  0  0  0  0
    4.8178   -4.2457   22.8737 H   0  0  0  0  0  0  0  0  0  0  0  0
    6.0741   -2.7122   22.0063 C   0  0  0  0  0  0  0  0  0  0  0  0
    6.3386   -3.5839   20.7789 C   0  0  0  0  0  0  0  0  0  0  0  0
    6.1598   -2.9330   19.6146 F   0  0  0  0  0  0  0  0  0  0  0  0
    7.5892   -4.0764   20.8340 F   0  0  0  0  0  0  0  0  0  0  0  0
    5.5198   -4.6597   20.7159 F   0  0  0  0  0  0  0  0  0  0  0  0
    8.3805   -1.5135   20.4918 O   0  0  0  0  0  0  0  0  0  0  0  0
    9.6589   -1.2662   21.0465 C   0  0  0  0  0  0  0  0  0  0  0  0
   10.0518   -2.1899   21.4807 H   0  0  0  0  0  0  0  0  0  0  0  0
   10.3367   -0.9024   20.2746 H   0  0  0  0  0  0  0  0  0  0  0  0
    9.4170   -0.1581   22.0643 C   0  0  0  0  0  0  0  0  0  0  0  0
   10.1882    0.6142   22.0532 H   0  0  0  0  0  0  0  0  0  0  0  0
    9.3161   -0.5873   23.0680 H   0  0  0  0  0  0  0  0  0  0  0  0
    8.2052    0.4207   21.6218 O   0  0  0  0  0  0  0  0  0  0  0  0
    5.3623    0.6122   20.1737 C   0  0  0  0  0  0  0  0  0  0  0  0
    4.8804    0.6014   21.1555 H   0  0  0  0  0  0  0  0  0  0  0  0
    4.7706    1.2810   19.0973 C   0  0  0  0  0  0  0  0  0  0  0  0
    3.8361    1.8186   19.2042 H   0  0  0  0  0  0  0  0  0  0  0  0
  1  2  1  0
  2  3  2  0
  3  4  1  0
  4  5  1  0
  4  6  2  0
  6  7  1  0
  7  8  1  0
  8  9  2  0
  9 10  1  0
  9 11  1  0
 11 12  1  0
 11 13  2  0
 13 14  1  0
 13 15  1  0
 15 16  1  0
 15 17  2  0
 17 18  1  0
 18 19  1  0
 18 20  1  0
 18 21  1  0
  7 22  1  0
 22 23  1  0
 23 24  1  0
 23 25  1  0
 23 26  1  0
 26 27  1  0
 26 28  1  0
 26 29  1  0
  6 30  1  0
 30 31  1  0
 30 32  2  0
 32 33  1  0
 32  2  1  0
 29  7  1  0
 17  8  1  0
M  END
>  <cnnaffinity>  (1) 
-4.49479

>  <filename>  (1) 
FC(F)(F)c1ccccc1C1(c2cccnc2)OCCO1

$$$$
