
     RDKit          3D

 32 34  0  0  0  0  0  0  0  0999 V2000
    4.9216    1.8106   16.9752 H   0  0  0  0  0  0  0  0  0  0  0  0
    5.3897    1.3041   17.8183 C   0  0  0  0  0  0  0  0  0  0  0  0
    6.5476    0.6810   17.5543 N   0  0  0  0  0  0  0  0  0  0  0  0
    7.1607    0.0654   18.5741 C   0  0  0  0  0  0  0  0  0  0  0  0
    8.1032   -0.4260   18.3334 H   0  0  0  0  0  0  0  0  0  0  0  0
    6.6605    0.0148   19.8885 C   0  0  0  0  0  0  0  0  0  0  0  0
    7.3730   -0.7120   20.9855 C   0  0  0  0  0  0  0  0  0  0  0  0
    8.7606   -0.6006   21.1983 C   0  0  0  0  0  0  0  0  0  0  0  0
    9.3634    0.0452   20.5577 H   0  0  0  0  0  0  0  0  0  0  0  0
    9.4194   -1.2278   22.1790 N   0  0  0  0  0  0  0  0  0  0  0  0
    8.7293   -2.0130   23.0139 C   0  0  0  0  0  0  0  0  0  0  0  0
    9.3098   -2.4964   23.8012 H   0  0  0  0  0  0  0  0  0  0  0  0
    7.3469   -2.2206   22.8832 C   0  0  0  0  0  0  0  0  0  0  0  0
    6.6549   -3.1353   23.8132 C   0  0  0  0  0  0  0  0  0  0  0  0
    7.2251   -3.2931   25.0182 N   0  0  0  0  0  0  0  0  0  0  0  0
    6.6077   -4.0774   25.9068 C   0  0  0  0  0  0  0  0  0  0  0  0
    7.1621   -4.2302   27.3341 C   0  0  0  0  0  0  0  0  0  0  0  0
    6.1677   -3.9593   28.2100 F   0  0  0  0  0  0  0  0  0  0  0  0
    8.1909   -3.4382   27.6263 F   0  0  0  0  0  0  0  0  0  0  0  0
    7.5460   -5.5016   27.5762 F   0  0  0  0  0  0  0  0  0  0  0  0
    5.4248   -4.7693   25.6215 C   0  0  0  0  0  0  0  0  0  0  0  0
    4.9751   -5.3661   26.4021 H   0  0  0  0  0  0  0  0  0  0  0  0
    4.8547   -4.6481   24.3540 C   0  0  0  0  0  0  0  0  0  0  0  0
    3.9423   -5.1892   24.1109 H   0  0  0  0  0  0  0  0  0  0  0  0
    5.4830   -3.8168   23.4311 C   0  0  0  0  0  0  0  0  0  0  0  0
    5.1097   -3.6932   22.4203 H   0  0  0  0  0  0  0  0  0  0  0  0
    6.6713   -1.5446   21.8580 C   0  0  0  0  0  0  0  0  0  0  0  0
    5.5951   -1.6550   21.7155 H   0  0  0  0  0  0  0  0  0  0  0  0
    5.4387    0.6598   20.1335 C   0  0  0  0  0  0  0  0  0  0  0  0
    5.0212    0.6502   21.1407 H   0  0  0  0  0  0  0  0  0  0  0  0
    4.7969    1.3226   19.0836 C   0  0  0  0  0  0  0  0  0  0  0  0
    3.8638    1.8527   19.2338 H   0  0  0  0  0  0  0  0  0  0  0  0
  1  2  1  0
  2  3  2  0
  3  4  1  0
  4  5  1  0
  4  6  2  0
  6  7  1  0
  7  8  2  0
  8  9  1  0
  8 10  1  0
 10 11  2  0
 11 12  1  0
 11 13  1  0
 13 14  1  0
 14 15  2  0
 15 16  1  0
 16 17  1  0
 17 18  1  0
 17 19  1  0
 17 20  1  0
 16 21  2  0
 21 22  1  0
 21 23  1  0
 23 24  1  0
 23 25  2  0
 25 26  1  0
 13 27  2  0
 27 28  1  0
  6 29  1  0
 29 30  1  0
 29 31  2  0
 31 32  1  0
 31  2  1  0
 27  7  1  0
 25 14  1  0
M  END
>  <cnnaffinity>  (1) 
-5.46744

>  <filename>  (1) 
FC(F)(F)c1cccc(-c2cncc(-c3cccnc3)c2)n1

$$$$
