
     RDKit          3D

 39 42  0  0  0  0  0  0  0  0999 V2000
    4.9436    1.8168   16.9795 H   0  0  0  0  0  0  0  0  0  0  0  0
    5.4024    1.2940   17.8169 C   0  0  0  0  0  0  0  0  0  0  0  0
    6.5630    0.6676   17.5626 N   0  0  0  0  0  0  0  0  0  0  0  0
    7.1542    0.0223   18.5716 C   0  0  0  0  0  0  0  0  0  0  0  0
    8.1076   -0.4536   18.3366 H   0  0  0  0  0  0  0  0  0  0  0  0
    6.6264   -0.0237   19.8738 C   0  0  0  0  0  0  0  0  0  0  0  0
    7.3577   -0.6816   20.9579 C   0  0  0  0  0  0  0  0  0  0  0  0
    8.0726   -1.7826   20.7358 N   0  0  0  0  0  0  0  0  0  0  0  0
    8.5518   -2.0925   21.9380 N   0  0  0  0  0  0  0  0  0  0  0  0
    8.2314   -1.2545   22.9188 C   0  0  0  0  0  0  0  0  0  0  0  0
    7.4517   -0.2778   22.3286 C   0  0  0  0  0  0  0  0  0  0  0  0
    7.0794    0.9626   22.9838 C   0  0  0  0  0  0  0  0  0  0  0  0
    7.2688    2.2059   22.3492 C   0  0  0  0  0  0  0  0  0  0  0  0
    7.6675    2.2339   21.3355 H   0  0  0  0  0  0  0  0  0  0  0  0
    6.9573    3.3806   23.0177 C   0  0  0  0  0  0  0  0  0  0  0  0
    7.0794    4.3606   22.5697 H   0  0  0  0  0  0  0  0  0  0  0  0
    6.4590    3.3062   24.3190 C   0  0  0  0  0  0  0  0  0  0  0  0
    6.1733    4.5471   24.8644 O   0  0  0  0  0  0  0  0  0  0  0  0
    5.6815    4.6768   26.1081 C   0  0  0  0  0  0  0  0  0  0  0  0
    5.5172    5.9736   26.3237 F   0  0  0  0  0  0  0  0  0  0  0  0
    6.5067    4.1879   27.0502 F   0  0  0  0  0  0  0  0  0  0  0  0
    4.4972    4.0621   26.2712 F   0  0  0  0  0  0  0  0  0  0  0  0
    6.2741    2.0902   24.9771 C   0  0  0  0  0  0  0  0  0  0  0  0
    5.8913    2.0628   25.9883 H   0  0  0  0  0  0  0  0  0  0  0  0
    6.6000    0.9194   24.2994 C   0  0  0  0  0  0  0  0  0  0  0  0
    6.4716   -0.0460   24.7875 H   0  0  0  0  0  0  0  0  0  0  0  0
    9.0693   -1.5025   24.1444 C   0  0  0  0  0  0  0  0  0  0  0  0
    9.6681   -0.6077   24.3530 H   0  0  0  0  0  0  0  0  0  0  0  0
    8.4590   -1.7060   25.0310 H   0  0  0  0  0  0  0  0  0  0  0  0
    9.9410   -2.7206   23.7230 C   0  0  0  0  0  0  0  0  0  0  0  0
   11.0010   -2.4908   23.7828 H   0  0  0  0  0  0  0  0  0  0  0  0
    9.7557   -3.5915   24.3497 H   0  0  0  0  0  0  0  0  0  0  0  0
    9.5702   -3.0543   22.2523 C   0  0  0  0  0  0  0  0  0  0  0  0
    9.1587   -4.0602   22.1435 H   0  0  0  0  0  0  0  0  0  0  0  0
   10.4071   -2.8961   21.5693 H   0  0  0  0  0  0  0  0  0  0  0  0
    5.4106    0.6295   20.1189 C   0  0  0  0  0  0  0  0  0  0  0  0
    4.9945    0.6465   21.1276 H   0  0  0  0  0  0  0  0  0  0  0  0
    4.7887    1.2997   19.0724 C   0  0  0  0  0  0  0  0  0  0  0  0
    3.8649    1.8455   19.2272 H   0  0  0  0  0  0  0  0  0  0  0  0
  1  2  1  0
  2  3  2  0
  3  4  1  0
  4  5  1  0
  4  6  2  0
  6  7  1  0
  7  8  2  0
  8  9  1  0
  9 10  1  0
 10 11  2  0
 11 12  1  0
 12 13  2  0
 13 14  1  0
 13 15  1  0
 15 16  1  0
 15 17  2  0
 17 18  1  0
 18 19  1  0
 19 20  1  0
 19 21  1  0
 19 22  1  0
 17 23  1  0
 23 24  1  0
 23 25  2  0
 25 26  1  0
 10 27  1  0
 27 28  1  0
 27 29  1  0
 27 30  1  0
 30 31  1  0
 30 32  1  0
 30 33  1  0
 33 34  1  0
 33 35  1  0
  6 36  1  0
 36 37  1  0
 36 38  2  0
 38 39  1  0
 38  2  1  0
 11  7  1  0
 25 12  1  0
 33  9  1  0
M  END
>  <cnnaffinity>  (1) 
-5.68117

>  <filename>  (1) 
FC(F)(F)Oc1ccc(-c2c(-c3cccnc3)nn3c2CCC3)cc1

$$$$
