
     RDKit          3D

 31 33  0  0  0  0  0  0  0  0999 V2000
    5.0529    1.6517   16.9489 H   0  0  0  0  0  0  0  0  0  0  0  0
    5.4502    1.2218   17.8687 C   0  0  0  0  0  0  0  0  0  0  0  0
    6.6013    0.5442   17.7321 N   0  0  0  0  0  0  0  0  0  0  0  0
    7.1151   -0.0042   18.8382 C   0  0  0  0  0  0  0  0  0  0  0  0
    8.0509   -0.5494   18.7081 H   0  0  0  0  0  0  0  0  0  0  0  0
    6.5466    0.0942   20.1252 C   0  0  0  0  0  0  0  0  0  0  0  0
    7.2015   -0.6302   21.2447 C   0  0  0  0  0  0  0  0  0  0  0  0
    7.8073   -1.8568   21.1728 C   0  0  0  0  0  0  0  0  0  0  0  0
    7.8096   -2.5143   20.3356 H   0  0  0  0  0  0  0  0  0  0  0  0
    8.2976   -2.1189   22.4605 C   0  0  0  0  0  0  0  0  0  0  0  0
    8.9036   -2.9598   22.7892 H   0  0  0  0  0  0  0  0  0  0  0  0
    7.9829   -1.1520   23.3017 N   0  0  0  0  0  0  0  0  0  0  0  0
    7.3084   -0.2423   22.5668 N   0  0  0  0  0  0  0  0  0  0  0  0
    6.9855    1.0116   23.1820 C   0  0  0  0  0  0  0  0  0  0  0  0
    5.9640    1.0169   24.1419 C   0  0  0  0  0  0  0  0  0  0  0  0
    5.6147    0.0579   24.5200 H   0  0  0  0  0  0  0  0  0  0  0  0
    5.4240    2.2293   24.5795 C   0  0  0  0  0  0  0  0  0  0  0  0
    4.6068    2.2202   25.3017 H   0  0  0  0  0  0  0  0  0  0  0  0
    5.9471    3.4383   24.1003 C   0  0  0  0  0  0  0  0  0  0  0  0
    5.5147    4.3872   24.4116 H   0  0  0  0  0  0  0  0  0  0  0  0
    7.0672    3.4238   23.2661 C   0  0  0  0  0  0  0  0  0  0  0  0
    7.5251    4.3667   22.9783 H   0  0  0  0  0  0  0  0  0  0  0  0
    7.6429    2.2165   22.8425 C   0  0  0  0  0  0  0  0  0  0  0  0
    8.9273    2.2340   22.0252 C   0  0  0  0  0  0  0  0  0  0  0  0
    9.7055    1.1596   22.2372 F   0  0  0  0  0  0  0  0  0  0  0  0
    9.6821    3.3150   22.3118 F   0  0  0  0  0  0  0  0  0  0  0  0
    8.6523    2.2572   20.7082 F   0  0  0  0  0  0  0  0  0  0  0  0
    5.3471    0.8200   20.2441 C   0  0  0  0  0  0  0  0  0  0  0  0
    4.8855    0.9395   21.2266 H   0  0  0  0  0  0  0  0  0  0  0  0
    4.7841    1.3782   19.0914 C   0  0  0  0  0  0  0  0  0  0  0  0
    3.8538    1.9375   19.1211 H   0  0  0  0  0  0  0  0  0  0  0  0
  1  2  1  0
  2  3  2  0
  3  4  1  0
  4  5  1  0
  4  6  2  0
  6  7  1  0
  7  8  2  0
  8  9  1  0
  8 10  1  0
 10 11  1  0
 10 12  2  0
 12 13  1  0
 13 14  1  0
 14 15  2  0
 15 16  1  0
 15 17  1  0
 17 18  1  0
 17 19  2  0
 19 20  1  0
 19 21  1  0
 21 22  1  0
 21 23  2  0
 23 24  1  0
 24 25  1  0
 24 26  1  0
 24 27  1  0
  6 28  1  0
 28 29  1  0
 28 30  2  0
 30 31  1  0
 30  2  1  0
 13  7  1  0
 23 14  1  0
M  END
>  <cnnaffinity>  (1) 
-4.90556

>  <filename>  (1) 
FC(F)(F)c1ccccc1-n1nccc1-c1cccnc1

$$$$
