
     RDKit          3D

 38 40  0  0  0  0  0  0  0  0999 V2000
    3.7130    0.2029   25.8205 F   0  0  0  0  0  0  0  0  0  0  0  0
    4.8853    0.6478   25.3184 C   0  0  0  0  0  0  0  0  0  0  0  0
    4.6278    1.1533   24.1067 F   0  0  0  0  0  0  0  0  0  0  0  0
    5.2763    1.6680   26.1067 F   0  0  0  0  0  0  0  0  0  0  0  0
    5.9316   -0.4862   25.3201 C   0  0  0  0  0  0  0  0  0  0  0  0
    6.3265   -1.0767   26.5269 C   0  0  0  0  0  0  0  0  0  0  0  0
    7.1859   -2.1848   26.4672 C   0  0  0  0  0  0  0  0  0  0  0  0
    7.5733   -2.6768   25.2304 C   0  0  0  0  0  0  0  0  0  0  0  0
    7.0973   -2.0238   24.0644 C   0  0  0  0  0  0  0  0  0  0  0  0
    7.3333   -2.5105   22.8133 N   0  0  0  0  0  0  0  0  0  0  0  0
    7.9362   -3.8199   22.5877 C   0  0  0  0  0  0  0  0  0  0  0  0
    7.9067   -3.9141   21.0741 C   0  0  0  0  0  0  0  0  0  0  0  0
    6.6057   -3.1850   20.7045 C   0  0  0  0  0  0  0  0  0  0  0  0
    6.6272   -1.9756   21.6400 C   0  0  0  0  0  0  0  0  0  0  0  0
    7.3302   -0.7055   21.1003 C   0  0  0  0  0  0  0  0  0  0  0  0
    6.6348    0.0057   19.9533 C   0  0  0  0  0  0  0  0  0  0  0  0
    5.4218    0.6823   20.1671 C   0  0  0  0  0  0  0  0  0  0  0  0
    4.8046    1.3238   19.0911 C   0  0  0  0  0  0  0  0  0  0  0  0
    5.4284    1.2953   17.8397 C   0  0  0  0  0  0  0  0  0  0  0  0
    6.5905    0.6696   17.6090 N   0  0  0  0  0  0  0  0  0  0  0  0
    7.1672    0.0495   18.6501 C   0  0  0  0  0  0  0  0  0  0  0  0
    8.1197   -0.4356   18.4350 H   0  0  0  0  0  0  0  0  0  0  0  0
    4.9702    1.7954   16.9873 H   0  0  0  0  0  0  0  0  0  0  0  0
    3.8670    1.8547   19.2106 H   0  0  0  0  0  0  0  0  0  0  0  0
    4.9864    0.7279   21.1714 H   0  0  0  0  0  0  0  0  0  0  0  0
    7.3915   -0.0150   21.9494 H   0  0  0  0  0  0  0  0  0  0  0  0
    8.3647   -0.9608   20.8375 H   0  0  0  0  0  0  0  0  0  0  0  0
    5.6037   -1.6943   21.9073 H   0  0  0  0  0  0  0  0  0  0  0  0
    5.7228   -3.7946   20.9298 H   0  0  0  0  0  0  0  0  0  0  0  0
    6.5068   -2.8943   19.6551 H   0  0  0  0  0  0  0  0  0  0  0  0
    8.7597   -3.3167   20.7260 H   0  0  0  0  0  0  0  0  0  0  0  0
    7.9969   -4.9323   20.6857 H   0  0  0  0  0  0  0  0  0  0  0  0
    7.3576   -4.6277   23.0677 H   0  0  0  0  0  0  0  0  0  0  0  0
    8.9621   -3.8572   22.9783 H   0  0  0  0  0  0  0  0  0  0  0  0
    6.3598   -0.9120   24.1301 N   0  0  0  0  0  0  0  0  0  0  0  0
    8.1791   -3.5658   25.1228 H   0  0  0  0  0  0  0  0  0  0  0  0
    7.5230   -2.6760   27.3795 H   0  0  0  0  0  0  0  0  0  0  0  0
    5.9344   -0.7166   27.4703 H   0  0  0  0  0  0  0  0  0  0  0  0
  1  2  1  0
  2  3  1  0
  2  4  1  0
  2  5  1  0
  5  6  2  0
  6  7  1  0
  7  8  2  0
  8  9  1  0
  9 10  1  0
 10 11  1  0
 11 12  1  0
 12 13  1  0
 13 14  1  0
 14 15  1  0
 15 16  1  0
 16 17  2  0
 17 18  1  0
 18 19  2  0
 19 20  1  0
 20 21  2  0
 21 22  1  0
 19 23  1  0
 18 24  1  0
 17 25  1  0
 15 26  1  0
 15 27  1  0
 14 28  1  0
 13 29  1  0
 13 30  1  0
 12 31  1  0
 12 32  1  0
 11 33  1  0
 11 34  1  0
  9 35  2  0
  8 36  1  0
  7 37  1  0
  6 38  1  0
 35  5  1  0
 14 10  1  0
 21 16  1  0
M  END
>  <cnnaffinity>  (1) 
-5.35976

>  <filename>  (1) 
FC(F)(F)c1cccc(N2CCCC2Cc2cccnc2)n1

$$$$
