
     RDKit          3D

 38 41  0  0  0  0  0  0  0  0999 V2000
    4.9646    1.8610   16.9351 H   0  0  0  0  0  0  0  0  0  0  0  0
    5.4122    1.3109   17.7638 C   0  0  0  0  0  0  0  0  0  0  0  0
    6.5570    0.6688   17.5050 N   0  0  0  0  0  0  0  0  0  0  0  0
    7.1423    0.0206   18.5231 C   0  0  0  0  0  0  0  0  0  0  0  0
    8.0731   -0.4819   18.2712 H   0  0  0  0  0  0  0  0  0  0  0  0
    6.6414   -0.0468   19.8379 C   0  0  0  0  0  0  0  0  0  0  0  0
    7.3702   -0.8159   20.9367 C   0  0  1  0  0  0  0  0  0  0  0  0
    7.0098   -1.8539   20.9194 H   0  0  0  0  0  0  0  0  0  0  0  0
    8.9335   -0.8756   20.7890 C   0  0  0  0  0  0  0  0  0  0  0  0
    9.2713   -1.8050   20.3202 H   0  0  0  0  0  0  0  0  0  0  0  0
    9.3178   -0.0331   20.2022 H   0  0  0  0  0  0  0  0  0  0  0  0
    9.4140   -0.7407   22.2052 C   0  0  0  0  0  0  0  0  0  0  0  0
   10.5978   -0.8018   22.7870 N   0  0  0  0  0  0  0  0  0  0  0  0
   10.3205   -0.5284   24.0878 N   0  0  0  0  0  0  0  0  0  0  0  0
   11.0965   -0.4047   24.7236 H   0  0  0  0  0  0  0  0  0  0  0  0
    8.9987   -0.2484   24.3286 C   0  0  0  0  0  0  0  0  0  0  0  0
    8.4062    0.1282   25.6359 C   0  0  0  0  0  0  0  0  0  0  0  0
    9.0504   -0.0690   26.8753 C   0  0  0  0  0  0  0  0  0  0  0  0
   10.0432   -0.5171   26.9319 H   0  0  0  0  0  0  0  0  0  0  0  0
    8.4413    0.3563   28.0566 C   0  0  0  0  0  0  0  0  0  0  0  0
    8.9595    0.2260   29.0033 H   0  0  0  0  0  0  0  0  0  0  0  0
    7.2073    1.0289   28.0368 C   0  0  0  0  0  0  0  0  0  0  0  0
    6.6605    1.6257   29.3184 C   0  0  0  0  0  0  0  0  0  0  0  0
    6.0780    0.7065   30.1109 F   0  0  0  0  0  0  0  0  0  0  0  0
    5.7407    2.5819   29.0854 F   0  0  0  0  0  0  0  0  0  0  0  0
    7.6317    2.2014   30.0605 F   0  0  0  0  0  0  0  0  0  0  0  0
    6.5379    1.1842   26.8123 C   0  0  0  0  0  0  0  0  0  0  0  0
    5.5805    1.6978   26.7526 H   0  0  0  0  0  0  0  0  0  0  0  0
    7.1298    0.7277   25.6389 C   0  0  0  0  0  0  0  0  0  0  0  0
    6.5907    0.8521   24.7033 H   0  0  0  0  0  0  0  0  0  0  0  0
    8.4014   -0.3970   23.0897 C   0  0  0  0  0  0  0  0  0  0  0  0
    7.0892   -0.2670   22.3775 C   0  0  0  0  0  0  0  0  0  0  0  0
    6.7906    0.7889   22.3323 H   0  0  0  0  0  0  0  0  0  0  0  0
    6.2791   -0.8195   22.8682 H   0  0  0  0  0  0  0  0  0  0  0  0
    5.4190    0.6075   20.0666 C   0  0  0  0  0  0  0  0  0  0  0  0
    4.9538    0.5959   21.0549 H   0  0  0  0  0  0  0  0  0  0  0  0
    4.8031    1.2979   19.0197 C   0  0  0  0  0  0  0  0  0  0  0  0
    3.8883    1.8520   19.1790 H   0  0  0  0  0  0  0  0  0  0  0  0
  1  2  1  0
  2  3  2  0
  3  4  1  0
  4  5  1  0
  4  6  2  0
  6  7  1  0
  7  8  1  1
  7  9  1  0
  9 10  1  0
  9 11  1  0
  9 12  1  0
 12 13  2  0
 13 14  1  0
 14 15  1  0
 14 16  1  0
 16 17  1  0
 17 18  2  0
 18 19  1  0
 18 20  1  0
 20 21  1  0
 20 22  2  0
 22 23  1  0
 23 24  1  0
 23 25  1  0
 23 26  1  0
 22 27  1  0
 27 28  1  0
 27 29  2  0
 29 30  1  0
 16 31  2  0
 31 32  1  0
 32 33  1  0
 32 34  1  0
  6 35  1  0
 35 36  1  0
 35 37  2  0
 37 38  1  0
 37  2  1  0
 32  7  1  0
 31 12  1  0
 29 17  1  0
M  END
>  <cnnaffinity>  (1) 
-5.38941

>  <filename>  (1) 
FC(F)(F)c1ccc(-c2[nH]nc3c2C[C@@H](c2cccnc2)C3)cc1

$$$$
