
     RDKit          3D

 32 34  0  0  0  0  0  0  0  0999 V2000
    4.9292    1.8213   16.9726 H   0  0  0  0  0  0  0  0  0  0  0  0
    5.3956    1.3061   17.8081 C   0  0  0  0  0  0  0  0  0  0  0  0
    6.5553    0.6820   17.5421 N   0  0  0  0  0  0  0  0  0  0  0  0
    7.1662    0.0688   18.5654 C   0  0  0  0  0  0  0  0  0  0  0  0
    8.1079   -0.4273   18.3266 H   0  0  0  0  0  0  0  0  0  0  0  0
    6.6592    0.0103   19.8863 C   0  0  0  0  0  0  0  0  0  0  0  0
    7.4012   -0.6923   20.9807 C   0  0  0  0  0  0  0  0  0  0  0  0
    6.7794   -1.5637   21.9088 C   0  0  0  0  0  0  0  0  0  0  0  0
    5.7104   -1.7468   21.8505 H   0  0  0  0  0  0  0  0  0  0  0  0
    7.4352   -2.2448   22.8583 N   0  0  0  0  0  0  0  0  0  0  0  0
    8.7538   -2.0433   22.9757 C   0  0  0  0  0  0  0  0  0  0  0  0
    9.2608   -2.6122   23.7528 H   0  0  0  0  0  0  0  0  0  0  0  0
    9.4572   -1.1607   22.1584 C   0  0  0  0  0  0  0  0  0  0  0  0
   10.9106   -1.0129   22.3107 C   0  0  0  0  0  0  0  0  0  0  0  0
   11.6052   -1.5469   21.3056 N   0  0  0  0  0  0  0  0  0  0  0  0
   12.9358   -1.4851   21.3551 C   0  0  0  0  0  0  0  0  0  0  0  0
   13.4526   -1.9393   20.5142 H   0  0  0  0  0  0  0  0  0  0  0  0
   13.6360   -0.8296   22.3727 C   0  0  0  0  0  0  0  0  0  0  0  0
   14.7176   -0.8354   22.3666 H   0  0  0  0  0  0  0  0  0  0  0  0
   12.9197   -0.1951   23.3860 C   0  0  0  0  0  0  0  0  0  0  0  0
   13.4243    0.3440   24.1912 H   0  0  0  0  0  0  0  0  0  0  0  0
   11.5273   -0.3273   23.3734 C   0  0  0  0  0  0  0  0  0  0  0  0
   10.6489    0.1206   24.5039 C   0  0  0  0  0  0  0  0  0  0  0  0
   10.2111   -0.9584   25.1967 F   0  0  0  0  0  0  0  0  0  0  0  0
    9.5581    0.7761   24.0750 F   0  0  0  0  0  0  0  0  0  0  0  0
   11.2700    0.9211   25.3819 F   0  0  0  0  0  0  0  0  0  0  0  0
    8.7843   -0.5236   21.1181 C   0  0  0  0  0  0  0  0  0  0  0  0
    9.3342    0.0979   20.4106 H   0  0  0  0  0  0  0  0  0  0  0  0
    5.4331    0.6574   20.1233 C   0  0  0  0  0  0  0  0  0  0  0  0
    5.0085    0.6636   21.1268 H   0  0  0  0  0  0  0  0  0  0  0  0
    4.7942    1.3184   19.0704 C   0  0  0  0  0  0  0  0  0  0  0  0
    3.8563    1.8466   19.2160 H   0  0  0  0  0  0  0  0  0  0  0  0
  1  2  1  0
  2  3  2  0
  3  4  1  0
  4  5  1  0
  4  6  2  0
  6  7  1  0
  7  8  2  0
  8  9  1  0
  8 10  1  0
 10 11  2  0
 11 12  1  0
 11 13  1  0
 13 14  1  0
 14 15  2  0
 15 16  1  0
 16 17  1  0
 16 18  2  0
 18 19  1  0
 18 20  1  0
 20 21  1  0
 20 22  2  0
 22 23  1  0
 23 24  1  0
 23 25  1  0
 23 26  1  0
 13 27  2  0
 27 28  1  0
  6 29  1  0
 29 30  1  0
 29 31  2  0
 31 32  1  0
 31  2  1  0
 27  7  1  0
 22 14  1  0
M  END
>  <cnnaffinity>  (1) 
-6.06481

>  <filename>  (1) 
FC(F)(F)c1cccnc1-c1cncc(-c2cccnc2)c1

$$$$
