
     RDKit          3D

 33 36  0  0  0  0  0  0  0  0999 V2000
    4.9746    1.2550   17.3890 H   0  0  0  0  0  0  0  0  0  0  0  0
    5.5351    0.7209   18.1530 C   0  0  0  0  0  0  0  0  0  0  0  0
    6.6860    0.1545   17.7653 N   0  0  0  0  0  0  0  0  0  0  0  0
    7.3910   -0.4992   18.6974 C   0  0  0  0  0  0  0  0  0  0  0  0
    8.2882   -0.9943   18.3385 H   0  0  0  0  0  0  0  0  0  0  0  0
    7.0257   -0.5980   20.0575 C   0  0  0  0  0  0  0  0  0  0  0  0
    7.9082   -1.2283   21.0567 C   0  0  0  0  0  0  0  0  0  0  0  0
    9.2734   -1.2062   21.2484 C   0  0  0  0  0  0  0  0  0  0  0  0
    9.9862   -0.6309   20.6742 H   0  0  0  0  0  0  0  0  0  0  0  0
    9.6746   -1.9114   22.3565 N   0  0  0  0  0  0  0  0  0  0  0  0
    8.5497   -2.3428   22.8645 C   0  0  0  0  0  0  0  0  0  0  0  0
    8.0380   -3.1877   24.2914 S   0  0  0  0  0  0  0  0  0  0  0  0
    6.3819   -2.7457   23.8535 C   0  0  0  0  0  0  0  0  0  0  0  0
    5.1886   -3.0059   24.7252 C   0  0  0  0  0  0  0  0  0  0  0  0
    4.5669   -1.9106   25.3681 C   0  0  0  0  0  0  0  0  0  0  0  0
    4.9872   -0.9137   25.2526 H   0  0  0  0  0  0  0  0  0  0  0  0
    3.3791   -2.0736   26.0903 C   0  0  0  0  0  0  0  0  0  0  0  0
    2.9003   -1.2240   26.5778 H   0  0  0  0  0  0  0  0  0  0  0  0
    2.7782   -3.3324   26.1611 C   0  0  0  0  0  0  0  0  0  0  0  0
    1.8395   -3.4688   26.6911 H   0  0  0  0  0  0  0  0  0  0  0  0
    3.3844   -4.4284   25.5439 C   0  0  0  0  0  0  0  0  0  0  0  0
    2.8981   -5.3992   25.5670 H   0  0  0  0  0  0  0  0  0  0  0  0
    4.6270   -4.2974   24.9030 C   0  0  0  0  0  0  0  0  0  0  0  0
    5.3536   -5.5504   24.4187 C   0  0  0  0  0  0  0  0  0  0  0  0
    5.5670   -5.5093   23.0919 F   0  0  0  0  0  0  0  0  0  0  0  0
    6.5609   -5.6699   25.0092 F   0  0  0  0  0  0  0  0  0  0  0  0
    4.6670   -6.6789   24.6687 F   0  0  0  0  0  0  0  0  0  0  0  0
    6.2446   -2.1209   22.7256 N   0  0  0  0  0  0  0  0  0  0  0  0
    7.4537   -1.9485   22.1542 N   0  0  0  0  0  0  0  0  0  0  0  0
    5.7992   -0.0206   20.4223 C   0  0  0  0  0  0  0  0  0  0  0  0
    5.4777   -0.0931   21.4564 H   0  0  0  0  0  0  0  0  0  0  0  0
    5.0421    0.6375   19.4573 C   0  0  0  0  0  0  0  0  0  0  0  0
    4.0941    1.0952   19.7087 H   0  0  0  0  0  0  0  0  0  0  0  0
  1  2  1  0
  2  3  2  0
  3  4  1  0
  4  5  1  0
  4  6  2  0
  6  7  1  0
  7  8  2  0
  8  9  1  0
  8 10  1  0
 10 11  2  0
 11 12  1  0
 12 13  1  0
 13 14  1  0
 14 15  2  0
 15 16  1  0
 15 17  1  0
 17 18  1  0
 17 19  2  0
 19 20  1  0
 19 21  1  0
 21 22  1  0
 21 23  2  0
 23 24  1  0
 24 25  1  0
 24 26  1  0
 24 27  1  0
 13 28  2  0
 28 29  1  0
  6 30  1  0
 30 31  1  0
 30 32  2  0
 32 33  1  0
 32  2  1  0
 29  7  1  0
 29 11  1  0
 23 14  1  0
M  END
>  <cnnaffinity>  (1) 
-5.58196

>  <filename>  (1) 
FC(F)(F)c1ccccc1-c1nn2c(-c3cccnc3)cnc2s1

$$$$
