
     RDKit          3D

 35 36  0  0  0  0  0  0  0  0999 V2000
    5.0471    1.8244   16.9603 H   0  0  0  0  0  0  0  0  0  0  0  0
    5.4581    1.2937   17.8190 C   0  0  0  0  0  0  0  0  0  0  0  0
    6.5968    0.6201   17.6034 N   0  0  0  0  0  0  0  0  0  0  0  0
    7.1291   -0.0382   18.6365 C   0  0  0  0  0  0  0  0  0  0  0  0
    8.0499   -0.5828   18.4388 H   0  0  0  0  0  0  0  0  0  0  0  0
    6.5779   -0.0567   19.9190 C   0  0  0  0  0  0  0  0  0  0  0  0
    7.3412   -0.7207   21.0310 C   0  0  0  0  0  0  0  0  0  0  0  0
    8.2262   -1.6375   20.5108 F   0  0  0  0  0  0  0  0  0  0  0  0
    6.4755   -1.4417   21.8061 F   0  0  0  0  0  0  0  0  0  0  0  0
    8.1270    0.2319   21.9118 C   0  0  0  0  0  0  0  0  0  0  0  0
    7.4230    0.9348   22.3666 H   0  0  0  0  0  0  0  0  0  0  0  0
    8.5687   -0.3693   22.7140 H   0  0  0  0  0  0  0  0  0  0  0  0
    9.2216    0.9916   21.1680 C   0  0  0  0  0  0  0  0  0  0  0  0
    9.9068    0.2649   20.6810 H   0  0  0  0  0  0  0  0  0  0  0  0
    8.7704    1.6031   20.3684 H   0  0  0  0  0  0  0  0  0  0  0  0
    9.8895    1.8791   22.1143 N   0  0  0  0  0  0  0  0  0  0  0  0
   10.0861    1.3702   22.9760 H   0  0  0  0  0  0  0  0  0  0  0  0
   11.1652    2.4418   21.6441 C   0  0  0  0  0  0  0  0  0  0  0  0
   11.0291    2.8291   20.6223 H   0  0  0  0  0  0  0  0  0  0  0  0
   11.9507    1.6665   21.5623 H   0  0  0  0  0  0  0  0  0  0  0  0
   11.7114    3.5742   22.5075 C   0  0  0  0  0  0  0  0  0  0  0  0
   13.0469    3.5501   22.9535 C   0  0  0  0  0  0  0  0  0  0  0  0
   13.6812    2.7090   22.6811 H   0  0  0  0  0  0  0  0  0  0  0  0
   13.5791    4.5981   23.7122 C   0  0  0  0  0  0  0  0  0  0  0  0
   14.6108    4.5479   24.0599 H   0  0  0  0  0  0  0  0  0  0  0  0
   12.7925    5.7167   24.0053 C   0  0  0  0  0  0  0  0  0  0  0  0
   13.2177    6.5426   24.5730 H   0  0  0  0  0  0  0  0  0  0  0  0
   11.4701    5.7756   23.5459 C   0  0  0  0  0  0  0  0  0  0  0  0
   10.8592    6.6538   23.7545 H   0  0  0  0  0  0  0  0  0  0  0  0
   10.9374    4.7083   22.8141 C   0  0  0  0  0  0  0  0  0  0  0  0
    9.9181    4.7575   22.4376 H   0  0  0  0  0  0  0  0  0  0  0  0
    5.3786    0.6402   20.1361 C   0  0  0  0  0  0  0  0  0  0  0  0
    4.9017    0.6596   21.1162 H   0  0  0  0  0  0  0  0  0  0  0  0
    4.8113    1.3214   19.0589 C   0  0  0  0  0  0  0  0  0  0  0  0
    3.8891    1.8810   19.1616 H   0  0  0  0  0  0  0  0  0  0  0  0
  1  2  1  0
  2  3  2  0
  3  4  1  0
  4  5  1  0
  4  6  2  0
  6  7  1  0
  7  8  1  0
  7  9  1  0
  7 10  1  0
 10 11  1  0
 10 12  1  0
 10 13  1  0
 13 14  1  0
 13 15  1  0
 13 16  1  0
 16 17  1  0
 16 18  1  0
 18 19  1  0
 18 20  1  0
 18 21  1  0
 21 22  2  0
 22 23  1  0
 22 24  1  0
 24 25  1  0
 24 26  2  0
 26 27  1  0
 26 28  1  0
 28 29  1  0
 28 30  2  0
 30 31  1  0
  6 32  1  0
 32 33  1  0
 32 34  2  0
 34 35  1  0
 34  2  1  0
 30 21  1  0
M  END
>  <cnnaffinity>  (1) 
-4.65135

>  <filename>  (1) 
FC(F)(CCNCc1ccccc1)c1cccnc1

$$$$
