
     RDKit          3D

 24 25  0  0  0  0  0  0  0  0999 V2000
    4.9240    1.8069   16.9933 H   0  0  0  0  0  0  0  0  0  0  0  0
    5.3949    1.2991   17.8307 C   0  0  0  0  0  0  0  0  0  0  0  0
    6.5579    0.6796   17.5690 N   0  0  0  0  0  0  0  0  0  0  0  0
    7.1654    0.0482   18.5844 C   0  0  0  0  0  0  0  0  0  0  0  0
    8.1143   -0.4357   18.3590 H   0  0  0  0  0  0  0  0  0  0  0  0
    6.6473   -0.0211   19.9045 C   0  0  0  0  0  0  0  0  0  0  0  0
    7.2672   -0.7333   20.9410 N   0  0  0  0  0  0  0  0  0  0  0  0
    6.7111   -0.9188   21.7716 H   0  0  0  0  0  0  0  0  0  0  0  0
    8.6714   -0.8347   21.0900 C   0  0  0  0  0  0  0  0  0  0  0  0
    9.6798    0.1113   20.7438 C   0  0  0  0  0  0  0  0  0  0  0  0
    9.5426    1.0703   20.2596 H   0  0  0  0  0  0  0  0  0  0  0  0
   10.9003   -0.3092   21.0399 N   0  0  0  0  0  0  0  0  0  0  0  0
   10.7019   -1.5416   21.5677 N   0  0  0  0  0  0  0  0  0  0  0  0
   11.4627   -2.1237   21.9001 H   0  0  0  0  0  0  0  0  0  0  0  0
    9.4058   -1.8831   21.6207 C   0  0  0  0  0  0  0  0  0  0  0  0
    9.1291   -3.1148   22.1237 O   0  0  0  0  0  0  0  0  0  0  0  0
    7.7966   -3.4935   22.1449 C   0  0  0  0  0  0  0  0  0  0  0  0
    7.2953   -3.3013   21.1916 H   0  0  0  0  0  0  0  0  0  0  0  0
    7.1557   -2.8011   23.1160 F   0  0  0  0  0  0  0  0  0  0  0  0
    7.8015   -4.7899   22.4422 F   0  0  0  0  0  0  0  0  0  0  0  0
    5.4354    0.6344   20.1521 C   0  0  0  0  0  0  0  0  0  0  0  0
    5.0240    0.6202   21.1603 H   0  0  0  0  0  0  0  0  0  0  0  0
    4.8036    1.3065   19.1006 C   0  0  0  0  0  0  0  0  0  0  0  0
    3.8727    1.8410   19.2567 H   0  0  0  0  0  0  0  0  0  0  0  0
  1  2  1  0
  2  3  2  0
  3  4  1  0
  4  5  1  0
  4  6  2  0
  6  7  1  0
  7  8  1  0
  7  9  1  0
  9 10  1  0
 10 11  1  0
 10 12  2  0
 12 13  1  0
 13 14  1  0
 13 15  1  0
 15 16  1  0
 16 17  1  0
 17 18  1  0
 17 19  1  0
 17 20  1  0
  6 21  1  0
 21 22  1  0
 21 23  2  0
 23 24  1  0
 23  2  1  0
 15  9  2  0
M  END
>  <cnnaffinity>  (1) 
-5.04838

>  <filename>  (1) 
FC(F)Oc1[nH]ncc1Nc1cccnc1

$$$$
