
     RDKit          3D

 30 32  0  0  0  0  0  0  0  0999 V2000
    9.1446   -3.0277   22.1513 H   0  0  0  0  0  0  0  0  0  0  0  0
    8.5491   -2.1582   21.8891 C   0  0  0  0  0  0  0  0  0  0  0  0
    8.1781   -1.7783   20.7147 N   0  0  0  0  0  0  0  0  0  0  0  0
    7.4001   -0.6562   20.9513 C   0  0  0  0  0  0  0  0  0  0  0  0
    6.6390   -0.0114   19.8867 C   0  0  0  0  0  0  0  0  0  0  0  0
    7.1471   -0.0009   18.5761 C   0  0  0  0  0  0  0  0  0  0  0  0
    8.0911   -0.4954   18.3467 H   0  0  0  0  0  0  0  0  0  0  0  0
    6.5474    0.6287   17.5618 N   0  0  0  0  0  0  0  0  0  0  0  0
    5.3989    1.2769   17.8100 C   0  0  0  0  0  0  0  0  0  0  0  0
    4.9549    1.8101   16.9710 H   0  0  0  0  0  0  0  0  0  0  0  0
    4.7876    1.2972   19.0690 C   0  0  0  0  0  0  0  0  0  0  0  0
    3.8600    1.8448   19.2059 H   0  0  0  0  0  0  0  0  0  0  0  0
    5.4202    0.6423   20.1244 C   0  0  0  0  0  0  0  0  0  0  0  0
    4.9873    0.6547   21.1258 H   0  0  0  0  0  0  0  0  0  0  0  0
    7.4203   -0.3900   22.3053 C   0  0  0  0  0  0  0  0  0  0  0  0
    6.9415    0.7364   23.1111 C   0  0  0  0  0  0  0  0  0  0  0  0
    5.9642    0.5071   24.0932 C   0  0  0  0  0  0  0  0  0  0  0  0
    5.7156   -0.5160   24.3494 H   0  0  0  0  0  0  0  0  0  0  0  0
    5.2955    1.5722   24.6932 C   0  0  0  0  0  0  0  0  0  0  0  0
    4.4833    1.3772   25.3900 H   0  0  0  0  0  0  0  0  0  0  0  0
    5.6578    2.8833   24.3769 C   0  0  0  0  0  0  0  0  0  0  0  0
    5.1448    3.7202   24.8403 H   0  0  0  0  0  0  0  0  0  0  0  0
    6.6984    3.1216   23.4796 C   0  0  0  0  0  0  0  0  0  0  0  0
    6.9740    4.1483   23.2553 H   0  0  0  0  0  0  0  0  0  0  0  0
    7.3671    2.0601   22.8566 C   0  0  0  0  0  0  0  0  0  0  0  0
    8.5344    2.3410   21.9105 C   0  0  0  0  0  0  0  0  0  0  0  0
    9.0490    3.5692   22.0528 F   0  0  0  0  0  0  0  0  0  0  0  0
    9.5357    1.4554   22.0901 F   0  0  0  0  0  0  0  0  0  0  0  0
    8.1679    2.2353   20.6177 F   0  0  0  0  0  0  0  0  0  0  0  0
    8.1220   -1.3908   22.9015 O   0  0  0  0  0  0  0  0  0  0  0  0
  1  2  1  0
  2  3  2  0
  3  4  1  0
  4  5  1  0
  5  6  2  0
  6  7  1  0
  6  8  1  0
  8  9  2  0
  9 10  1  0
  9 11  1  0
 11 12  1  0
 11 13  2  0
 13 14  1  0
  4 15  2  0
 15 16  1  0
 16 17  2  0
 17 18  1  0
 17 19  1  0
 19 20  1  0
 19 21  2  0
 21 22  1  0
 21 23  1  0
 23 24  1  0
 23 25  2  0
 25 26  1  0
 26 27  1  0
 26 28  1  0
 26 29  1  0
 15 30  1  0
 30  2  1  0
 13  5  1  0
 25 16  1  0
M  END
>  <cnnaffinity>  (1) 
-4.86088

>  <filename>  (1) 
FC(F)(F)c1ccccc1-c1ocnc1-c1cccnc1

$$$$
