
     RDKit          3D

 31 33  0  0  0  0  0  0  0  0999 V2000
    4.8990    1.8324   16.9563 H   0  0  0  0  0  0  0  0  0  0  0  0
    5.3615    1.3218   17.8014 C   0  0  0  0  0  0  0  0  0  0  0  0
    6.5219    0.6981   17.5420 N   0  0  0  0  0  0  0  0  0  0  0  0
    7.1306    0.0769   18.5551 C   0  0  0  0  0  0  0  0  0  0  0  0
    8.0770   -0.4088   18.3133 H   0  0  0  0  0  0  0  0  0  0  0  0
    6.6386    0.0154   19.8748 C   0  0  0  0  0  0  0  0  0  0  0  0
    7.4028   -0.6946   20.9147 C   0  0  0  0  0  0  0  0  0  0  0  0
    8.7424   -0.9969   21.0264 C   0  0  0  0  0  0  0  0  0  0  0  0
    9.5601   -0.7163   20.3710 H   0  0  0  0  0  0  0  0  0  0  0  0
    8.9830   -1.7049   22.1648 N   0  0  0  0  0  0  0  0  0  0  0  0
    7.8288   -1.7969   22.7850 C   0  0  0  0  0  0  0  0  0  0  0  0
    7.6074   -2.4930   24.0849 C   0  0  0  0  0  0  0  0  0  0  0  0
    8.1583   -3.7847   24.1815 C   0  0  0  0  0  0  0  0  0  0  0  0
    8.7539   -4.1503   23.3493 H   0  0  0  0  0  0  0  0  0  0  0  0
    7.9638   -4.5836   25.3061 C   0  0  0  0  0  0  0  0  0  0  0  0
    8.4090   -5.5766   25.3565 H   0  0  0  0  0  0  0  0  0  0  0  0
    7.2079   -4.0855   26.3690 C   0  0  0  0  0  0  0  0  0  0  0  0
    7.0515   -4.6940   27.2563 H   0  0  0  0  0  0  0  0  0  0  0  0
    6.6850   -2.7911   26.3109 C   0  0  0  0  0  0  0  0  0  0  0  0
    6.1103   -2.4142   27.1516 H   0  0  0  0  0  0  0  0  0  0  0  0
    6.9042   -1.9570   25.2009 C   0  0  0  0  0  0  0  0  0  0  0  0
    6.4072   -0.5054   25.3084 C   0  0  0  0  0  0  0  0  0  0  0  0
    6.4359   -0.0562   26.5804 F   0  0  0  0  0  0  0  0  0  0  0  0
    5.1301   -0.3764   24.9047 F   0  0  0  0  0  0  0  0  0  0  0  0
    7.1381    0.3598   24.5860 F   0  0  0  0  0  0  0  0  0  0  0  0
    6.8310   -1.2275   22.0576 N   0  0  0  0  0  0  0  0  0  0  0  0
    5.8639   -1.2134   22.3389 H   0  0  0  0  0  0  0  0  0  0  0  0
    5.4211    0.6737   20.1209 C   0  0  0  0  0  0  0  0  0  0  0  0
    5.0038    0.6847   21.1296 H   0  0  0  0  0  0  0  0  0  0  0  0
    4.7752    1.3322   19.0724 C   0  0  0  0  0  0  0  0  0  0  0  0
    3.8428    1.8675   19.2198 H   0  0  0  0  0  0  0  0  0  0  0  0
  1  2  1  0
  2  3  2  0
  3  4  1  0
  4  5  1  0
  4  6  2  0
  6  7  1  0
  7  8  2  0
  8  9  1  0
  8 10  1  0
 10 11  2  0
 11 12  1  0
 12 13  2  0
 13 14  1  0
 13 15  1  0
 15 16  1  0
 15 17  2  0
 17 18  1  0
 17 19  1  0
 19 20  1  0
 19 21  2  0
 21 22  1  0
 22 23  1  0
 22 24  1  0
 22 25  1  0
 11 26  1  0
 26 27  1  0
  6 28  1  0
 28 29  1  0
 28 30  2  0
 30 31  1  0
 30  2  1  0
 26  7  1  0
 21 12  1  0
M  END
>  <cnnaffinity>  (1) 
-5.29835

>  <filename>  (1) 
FC(F)(F)c1ccccc1-c1ncc(-c2cccnc2)[nH]1

$$$$
