
     RDKit          3D

 33 35  0  0  0  0  0  0  0  0999 V2000
    4.9819    1.7933   16.9645 H   0  0  0  0  0  0  0  0  0  0  0  0
    5.4315    1.2806   17.8155 C   0  0  0  0  0  0  0  0  0  0  0  0
    6.5739    0.6149   17.5838 N   0  0  0  0  0  0  0  0  0  0  0  0
    7.1503   -0.0078   18.6269 C   0  0  0  0  0  0  0  0  0  0  0  0
    8.0662   -0.5498   18.3887 H   0  0  0  0  0  0  0  0  0  0  0  0
    6.6501    0.0027   19.9632 C   0  0  0  0  0  0  0  0  0  0  0  0
    7.2832   -0.6908   21.0297 N   0  0  0  0  0  0  0  0  0  0  0  0
    7.2824   -0.4435   22.4151 C   0  0  0  0  0  0  0  0  0  0  0  0
    6.9891    0.9044   23.0316 C   0  0  0  0  0  0  0  0  0  0  0  0
    5.9741    0.9809   24.0032 C   0  0  0  0  0  0  0  0  0  0  0  0
    5.5174    0.0702   24.3930 H   0  0  0  0  0  0  0  0  0  0  0  0
    5.5421    2.2257   24.4664 C   0  0  0  0  0  0  0  0  0  0  0  0
    4.7065    2.2885   25.1596 H   0  0  0  0  0  0  0  0  0  0  0  0
    6.1541    3.3957   24.0067 C   0  0  0  0  0  0  0  0  0  0  0  0
    5.7924    4.3686   24.3289 H   0  0  0  0  0  0  0  0  0  0  0  0
    7.2332    3.3184   23.1258 C   0  0  0  0  0  0  0  0  0  0  0  0
    7.7156    4.2323   22.7877 H   0  0  0  0  0  0  0  0  0  0  0  0
    7.7001    2.0776   22.6789 C   0  0  0  0  0  0  0  0  0  0  0  0
    8.9200    2.0617   21.7646 C   0  0  0  0  0  0  0  0  0  0  0  0
    9.8253    3.0030   22.0933 F   0  0  0  0  0  0  0  0  0  0  0  0
    9.5710    0.8813   21.7722 F   0  0  0  0  0  0  0  0  0  0  0  0
    8.5396    2.2898   20.5006 F   0  0  0  0  0  0  0  0  0  0  0  0
    7.6579   -1.4163   23.1490 N   0  0  0  0  0  0  0  0  0  0  0  0
    8.0974   -2.4996   22.2695 C   0  0  0  0  0  0  0  0  0  0  0  0
    9.1490   -2.7447   22.4690 H   0  0  0  0  0  0  0  0  0  0  0  0
    7.5117   -3.4031   22.4767 H   0  0  0  0  0  0  0  0  0  0  0  0
    7.8973   -1.9993   20.8246 C   0  0  0  0  0  0  0  0  0  0  0  0
    8.8485   -1.9124   20.2773 H   0  0  0  0  0  0  0  0  0  0  0  0
    7.2160   -2.6507   20.2628 H   0  0  0  0  0  0  0  0  0  0  0  0
    5.4485    0.6958   20.1686 C   0  0  0  0  0  0  0  0  0  0  0  0
    5.0156    0.7301   21.1676 H   0  0  0  0  0  0  0  0  0  0  0  0
    4.8317    1.3259   19.0777 C   0  0  0  0  0  0  0  0  0  0  0  0
    3.8984    1.8592   19.2024 H   0  0  0  0  0  0  0  0  0  0  0  0
  1  2  1  0
  2  3  2  0
  3  4  1  0
  4  5  1  0
  4  6  2  0
  6  7  1  0
  7  8  1  0
  8  9  1  0
  9 10  2  0
 10 11  1  0
 10 12  1  0
 12 13  1  0
 12 14  2  0
 14 15  1  0
 14 16  1  0
 16 17  1  0
 16 18  2  0
 18 19  1  0
 19 20  1  0
 19 21  1  0
 19 22  1  0
  8 23  2  0
 23 24  1  0
 24 25  1  0
 24 26  1  0
 24 27  1  0
 27 28  1  0
 27 29  1  0
  6 30  1  0
 30 31  1  0
 30 32  2  0
 32 33  1  0
 32  2  1  0
 27  7  1  0
 18  9  1  0
M  END
>  <cnnaffinity>  (1) 
-4.41105

>  <filename>  (1) 
FC(F)(F)c1ccccc1C1=NCCN1c1cccnc1

$$$$
