
     RDKit          3D

 31 34  0  0  0  0  0  0  0  0999 V2000
    4.9406    1.7994   16.9877 H   0  0  0  0  0  0  0  0  0  0  0  0
    5.4008    1.2880   17.8336 C   0  0  0  0  0  0  0  0  0  0  0  0
    6.5581    0.6618   17.5830 N   0  0  0  0  0  0  0  0  0  0  0  0
    7.1652    0.0427   18.5977 C   0  0  0  0  0  0  0  0  0  0  0  0
    8.1086   -0.4437   18.3596 H   0  0  0  0  0  0  0  0  0  0  0  0
    6.6521    0.0132   19.9062 C   0  0  0  0  0  0  0  0  0  0  0  0
    7.4224   -0.6924   20.9346 C   0  0  0  0  0  0  0  0  0  0  0  0
    8.3340   -1.6155   20.7285 N   0  0  0  0  0  0  0  0  0  0  0  0
    8.8383   -2.0390   21.9375 N   0  0  0  0  0  0  0  0  0  0  0  0
    8.2174   -1.3400   22.8499 C   0  0  0  0  0  0  0  0  0  0  0  0
    8.2455   -1.0973   24.5718 S   0  0  0  0  0  0  0  0  0  0  0  0
    7.0221    0.1605   24.3347 C   0  0  0  0  0  0  0  0  0  0  0  0
    6.5118    0.9729   25.4703 C   0  0  0  0  0  0  0  0  0  0  0  0
    7.0470    0.7067   26.6779 N   0  0  0  0  0  0  0  0  0  0  0  0
    6.6594    1.4399   27.7267 C   0  0  0  0  0  0  0  0  0  0  0  0
    7.3094    1.1907   29.1118 C   0  0  0  0  0  0  0  0  0  0  0  0
    7.6802    2.3648   29.6766 F   0  0  0  0  0  0  0  0  0  0  0  0
    8.3893    0.4152   29.0899 F   0  0  0  0  0  0  0  0  0  0  0  0
    6.4174    0.6245   29.9531 F   0  0  0  0  0  0  0  0  0  0  0  0
    5.6613    2.4242   27.6289 C   0  0  0  0  0  0  0  0  0  0  0  0
    5.3501    2.9481   28.5241 H   0  0  0  0  0  0  0  0  0  0  0  0
    5.1069    2.7062   26.3753 C   0  0  0  0  0  0  0  0  0  0  0  0
    4.3593    3.4941   26.2730 H   0  0  0  0  0  0  0  0  0  0  0  0
    5.5468    1.9792   25.2655 C   0  0  0  0  0  0  0  0  0  0  0  0
    5.1841    2.1575   24.2562 H   0  0  0  0  0  0  0  0  0  0  0  0
    6.6297    0.3580   23.1114 N   0  0  0  0  0  0  0  0  0  0  0  0
    7.3097   -0.4870   22.2939 N   0  0  0  0  0  0  0  0  0  0  0  0
    5.4323    0.6599   20.1563 C   0  0  0  0  0  0  0  0  0  0  0  0
    5.0072    0.6615   21.1603 H   0  0  0  0  0  0  0  0  0  0  0  0
    4.7974    1.3073   19.0954 C   0  0  0  0  0  0  0  0  0  0  0  0
    3.8671    1.8450   19.2312 H   0  0  0  0  0  0  0  0  0  0  0  0
  1  2  1  0
  2  3  2  0
  3  4  1  0
  4  5  1  0
  4  6  2  0
  6  7  1  0
  7  8  2  0
  8  9  1  0
  9 10  2  0
 10 11  1  0
 11 12  1  0
 12 13  1  0
 13 14  2  0
 14 15  1  0
 15 16  1  0
 16 17  1  0
 16 18  1  0
 16 19  1  0
 15 20  2  0
 20 21  1  0
 20 22  1  0
 22 23  1  0
 22 24  2  0
 24 25  1  0
 12 26  2  0
 26 27  1  0
  6 28  1  0
 28 29  1  0
 28 30  2  0
 30 31  1  0
 30  2  1  0
 27  7  1  0
 27 10  1  0
 24 13  1  0
M  END
>  <cnnaffinity>  (1) 
-5.3857

>  <filename>  (1) 
FC(F)(F)c1cccc(-c2nn3c(-c4cccnc4)nnc3s2)n1

$$$$
