
     RDKit          3D

 36 38  0  0  0  0  0  0  0  0999 V2000
    9.3780    0.9039   20.2627 H   0  0  0  0  0  0  0  0  0  0  0  0
    9.6722    0.0481   20.8763 C   0  0  0  0  0  0  0  0  0  0  0  0
    8.7312   -0.8189   21.2909 C   0  0  0  0  0  0  0  0  0  0  0  0
    7.2725   -0.8254   20.9983 C   0  0  0  0  0  0  0  0  0  0  0  0
    6.6206   -0.0382   19.9250 C   0  0  0  0  0  0  0  0  0  0  0  0
    7.2042    0.0107   18.6557 C   0  0  0  0  0  0  0  0  0  0  0  0
    8.1569   -0.4889   18.4739 H   0  0  0  0  0  0  0  0  0  0  0  0
    6.6674    0.6522   17.6125 N   0  0  0  0  0  0  0  0  0  0  0  0
    5.5112    1.3017   17.8149 C   0  0  0  0  0  0  0  0  0  0  0  0
    5.0969    1.8144   16.9492 H   0  0  0  0  0  0  0  0  0  0  0  0
    4.8410    1.3190   19.0443 C   0  0  0  0  0  0  0  0  0  0  0  0
    3.9095    1.8706   19.1373 H   0  0  0  0  0  0  0  0  0  0  0  0
    5.3959    0.6240   20.1183 C   0  0  0  0  0  0  0  0  0  0  0  0
    4.9034    0.5924   21.0912 H   0  0  0  0  0  0  0  0  0  0  0  0
    6.5972   -1.5930   21.7670 N   0  0  0  0  0  0  0  0  0  0  0  0
    7.4801   -2.1993   22.7681 C   0  0  0  0  0  0  0  0  0  0  0  0
    7.2299   -1.7605   23.7406 H   0  0  0  0  0  0  0  0  0  0  0  0
    7.2727   -3.2702   22.8433 H   0  0  0  0  0  0  0  0  0  0  0  0
    8.9367   -1.8769   22.3565 C   0  0  0  0  0  0  0  0  0  0  0  0
    9.5556   -1.5105   23.1831 H   0  0  0  0  0  0  0  0  0  0  0  0
    9.4269   -2.7596   21.9303 H   0  0  0  0  0  0  0  0  0  0  0  0
   11.0775    0.0766   21.3512 C   0  0  0  0  0  0  0  0  0  0  0  0
   11.9016   -1.0617   21.4217 C   0  0  0  0  0  0  0  0  0  0  0  0
   11.5348   -2.0144   21.0519 H   0  0  0  0  0  0  0  0  0  0  0  0
   13.1952   -0.9761   21.9556 C   0  0  0  0  0  0  0  0  0  0  0  0
   13.8239   -1.8606   21.9925 H   0  0  0  0  0  0  0  0  0  0  0  0
   13.6798    0.2397   22.4459 C   0  0  0  0  0  0  0  0  0  0  0  0
   14.6501    0.3449   22.9229 H   0  0  0  0  0  0  0  0  0  0  0  0
   12.8727    1.3741   22.3333 C   0  0  0  0  0  0  0  0  0  0  0  0
   13.4530    2.5470   22.8137 O   0  0  0  0  0  0  0  0  0  0  0  0
   13.1097    3.7821   22.3922 C   0  0  0  0  0  0  0  0  0  0  0  0
   12.9019    3.8903   21.0719 F   0  0  0  0  0  0  0  0  0  0  0  0
   11.9930    4.2217   22.9975 F   0  0  0  0  0  0  0  0  0  0  0  0
   14.1110    4.5930   22.7216 F   0  0  0  0  0  0  0  0  0  0  0  0
   11.5911    1.3094   21.8019 C   0  0  0  0  0  0  0  0  0  0  0  0
   10.9791    2.2016   21.7977 H   0  0  0  0  0  0  0  0  0  0  0  0
  1  2  1  0
  2  3  2  3
  3  4  1  0
  4  5  1  0
  5  6  2  0
  6  7  1  0
  6  8  1  0
  8  9  2  0
  9 10  1  0
  9 11  1  0
 11 12  1  0
 11 13  2  0
 13 14  1  0
  4 15  2  0
 15 16  1  0
 16 17  1  0
 16 18  1  0
 16 19  1  0
 19 20  1  0
 19 21  1  0
  2 22  1  0
 22 23  2  0
 23 24  1  0
 23 25  1  0
 25 26  1  0
 25 27  2  0
 27 28  1  0
 27 29  1  0
 29 30  1  0
 30 31  1  0
 31 32  1  0
 31 33  1  0
 31 34  1  0
 29 35  2  0
 35 36  1  0
 19  3  1  0
 35 22  1  0
 13  5  1  0
M  END
>  <cnnaffinity>  (1) 
-6.33

>  <filename>  (1) 
FC(F)(F)Oc1cccc(C=C2CCN=C2c2cccnc2)c1

$$$$
