
     RDKit          3D

 36 38  0  0  0  0  0  0  0  0999 V2000
    4.9351    1.8171   16.9591 H   0  0  0  0  0  0  0  0  0  0  0  0
    5.3798    1.3070   17.8072 C   0  0  0  0  0  0  0  0  0  0  0  0
    6.5447    0.6840   17.5619 N   0  0  0  0  0  0  0  0  0  0  0  0
    7.1568    0.1059   18.6010 C   0  0  0  0  0  0  0  0  0  0  0  0
    8.1055   -0.3834   18.3671 H   0  0  0  0  0  0  0  0  0  0  0  0
    6.6549    0.1095   19.9267 C   0  0  0  0  0  0  0  0  0  0  0  0
    7.3600   -0.5621   21.0598 C   0  0  0  0  0  0  0  0  0  0  0  0
    7.8008   -1.8829   20.8949 C   0  0  0  0  0  0  0  0  0  0  0  0
    7.4965   -2.3838   19.9928 H   0  0  0  0  0  0  0  0  0  0  0  0
    8.4811   -2.5908   21.7972 N   0  0  0  0  0  0  0  0  0  0  0  0
    8.7046   -2.0033   22.9778 C   0  0  0  0  0  0  0  0  0  0  0  0
    9.2637   -2.6105   23.6876 H   0  0  0  0  0  0  0  0  0  0  0  0
    8.2491   -0.7198   23.3180 C   0  0  0  0  0  0  0  0  0  0  0  0
    8.3237   -0.1784   24.7387 C   0  0  0  0  0  0  0  0  0  0  0  0
    9.2291   -0.5334   25.2507 H   0  0  0  0  0  0  0  0  0  0  0  0
    8.4164    0.9154   24.7044 H   0  0  0  0  0  0  0  0  0  0  0  0
    7.0802   -0.5670   25.5293 C   0  0  0  0  0  0  0  0  0  0  0  0
    7.0292   -1.7713   26.2427 C   0  0  0  0  0  0  0  0  0  0  0  0
    7.9001   -2.4197   26.2439 H   0  0  0  0  0  0  0  0  0  0  0  0
    5.8793   -2.1660   26.9248 C   0  0  0  0  0  0  0  0  0  0  0  0
    5.8721   -3.1141   27.4593 H   0  0  0  0  0  0  0  0  0  0  0  0
    4.7356   -1.3503   26.9009 C   0  0  0  0  0  0  0  0  0  0  0  0
    3.5069   -1.7300   27.7058 C   0  0  0  0  0  0  0  0  0  0  0  0
    3.5479   -1.2267   28.9558 F   0  0  0  0  0  0  0  0  0  0  0  0
    2.3662   -1.2759   27.1493 F   0  0  0  0  0  0  0  0  0  0  0  0
    3.3693   -3.0642   27.8352 F   0  0  0  0  0  0  0  0  0  0  0  0
    4.7575   -0.1616   26.1522 C   0  0  0  0  0  0  0  0  0  0  0  0
    3.8692    0.4633   26.0851 H   0  0  0  0  0  0  0  0  0  0  0  0
    5.9167    0.2134   25.4730 C   0  0  0  0  0  0  0  0  0  0  0  0
    5.9123    1.1174   24.8703 H   0  0  0  0  0  0  0  0  0  0  0  0
    7.5555   -0.0061   22.3301 C   0  0  0  0  0  0  0  0  0  0  0  0
    7.1367    0.9695   22.5728 H   0  0  0  0  0  0  0  0  0  0  0  0
    5.4119    0.7257   20.1373 C   0  0  0  0  0  0  0  0  0  0  0  0
    4.9713    0.6930   21.1353 H   0  0  0  0  0  0  0  0  0  0  0  0
    4.7654    1.3376   19.0633 C   0  0  0  0  0  0  0  0  0  0  0  0
    3.8202    1.8575   19.1918 H   0  0  0  0  0  0  0  0  0  0  0  0
  1  2  1  0
  2  3  2  0
  3  4  1  0
  4  5  1  0
  4  6  2  0
  6  7  1  0
  7  8  2  0
  8  9  1  0
  8 10  1  0
 10 11  2  0
 11 12  1  0
 11 13  1  0
 13 14  1  0
 14 15  1  0
 14 16  1  0
 14 17  1  0
 17 18  2  0
 18 19  1  0
 18 20  1  0
 20 21  1  0
 20 22  2  0
 22 23  1  0
 23 24  1  0
 23 25  1  0
 23 26  1  0
 22 27  1  0
 27 28  1  0
 27 29  2  0
 29 30  1  0
 13 31  2  0
 31 32  1  0
  6 33  1  0
 33 34  1  0
 33 35  2  0
 35 36  1  0
 35  2  1  0
 31  7  1  0
 29 17  1  0
M  END
>  <cnnaffinity>  (1) 
-5.22363

>  <filename>  (1) 
FC(F)(F)c1ccc(Cc2cncc(-c3cccnc3)c2)cc1

$$$$
