
     RDKit          3D

 29 31  0  0  0  0  0  0  0  0999 V2000
    4.9214    1.7834   16.9942 H   0  0  0  0  0  0  0  0  0  0  0  0
    5.4042    1.2919   17.8333 C   0  0  0  0  0  0  0  0  0  0  0  0
    6.5666    0.6776   17.5645 N   0  0  0  0  0  0  0  0  0  0  0  0
    7.1808    0.0603   18.5805 C   0  0  0  0  0  0  0  0  0  0  0  0
    8.1276   -0.4251   18.3554 H   0  0  0  0  0  0  0  0  0  0  0  0
    6.6598    0.0129   19.8866 C   0  0  0  0  0  0  0  0  0  0  0  0
    7.3453   -0.6807   20.9704 C   0  0  0  0  0  0  0  0  0  0  0  0
    8.5136   -1.3126   20.7373 O   0  0  0  0  0  0  0  0  0  0  0  0
    8.9632   -1.8930   21.9006 N   0  0  0  0  0  0  0  0  0  0  0  0
    8.0690   -1.6041   22.8185 C   0  0  0  0  0  0  0  0  0  0  0  0
    8.2008   -2.0599   24.2364 C   0  0  0  0  0  0  0  0  0  0  0  0
    7.2081   -1.6960   25.0671 N   0  0  0  0  0  0  0  0  0  0  0  0
    7.2618   -2.0729   26.3488 C   0  0  0  0  0  0  0  0  0  0  0  0
    6.1084   -1.6499   27.3037 C   0  0  0  0  0  0  0  0  0  0  0  0
    6.5745   -0.9056   28.3253 F   0  0  0  0  0  0  0  0  0  0  0  0
    5.1343   -0.9401   26.7287 F   0  0  0  0  0  0  0  0  0  0  0  0
    5.5399   -2.7399   27.8661 F   0  0  0  0  0  0  0  0  0  0  0  0
    8.3238   -2.8431   26.8575 C   0  0  0  0  0  0  0  0  0  0  0  0
    8.3295   -3.1512   27.8931 H   0  0  0  0  0  0  0  0  0  0  0  0
    9.3556   -3.2229   25.9952 C   0  0  0  0  0  0  0  0  0  0  0  0
   10.1958   -3.8219   26.3508 H   0  0  0  0  0  0  0  0  0  0  0  0
    9.2971   -2.8240   24.6613 C   0  0  0  0  0  0  0  0  0  0  0  0
   10.0591   -3.0799   23.9372 H   0  0  0  0  0  0  0  0  0  0  0  0
    7.0114   -0.8317   22.2756 C   0  0  0  0  0  0  0  0  0  0  0  0
    6.1523   -0.4592   22.8098 H   0  0  0  0  0  0  0  0  0  0  0  0
    5.4394    0.6553   20.1469 C   0  0  0  0  0  0  0  0  0  0  0  0
    5.0032    0.6402   21.1496 H   0  0  0  0  0  0  0  0  0  0  0  0
    4.8041    1.3123   19.0984 C   0  0  0  0  0  0  0  0  0  0  0  0
    3.8738    1.8430   19.2553 H   0  0  0  0  0  0  0  0  0  0  0  0
  1  2  1  0
  2  3  2  0
  3  4  1  0
  4  5  1  0
  4  6  2  0
  6  7  1  0
  7  8  1  0
  8  9  1  0
  9 10  2  0
 10 11  1  0
 11 12  2  0
 12 13  1  0
 13 14  1  0
 14 15  1  0
 14 16  1  0
 14 17  1  0
 13 18  2  0
 18 19  1  0
 18 20  1  0
 20 21  1  0
 20 22  2  0
 22 23  1  0
 10 24  1  0
 24 25  1  0
  6 26  1  0
 26 27  1  0
 26 28  2  0
 28 29  1  0
 28  2  1  0
 24  7  2  0
 22 11  1  0
M  END
>  <cnnaffinity>  (1) 
-4.88633

>  <filename>  (1) 
FC(F)(F)c1cccc(-c2cc(-c3cccnc3)on2)n1

$$$$
