
     RDKit          3D

 32 34  0  0  0  0  0  0  0  0999 V2000
    4.9241    1.8496   17.0046 H   0  0  0  0  0  0  0  0  0  0  0  0
    5.3948    1.3031   17.8188 C   0  0  0  0  0  0  0  0  0  0  0  0
    6.5469    0.6734   17.5271 N   0  0  0  0  0  0  0  0  0  0  0  0
    7.1597    0.0213   18.5280 C   0  0  0  0  0  0  0  0  0  0  0  0
    8.0804   -0.5065   18.2833 H   0  0  0  0  0  0  0  0  0  0  0  0
    6.6757   -0.0413   19.8619 C   0  0  0  0  0  0  0  0  0  0  0  0
    7.3524   -0.6762   20.9159 N   0  0  0  0  0  0  0  0  0  0  0  0
    6.8153   -1.2527   21.5465 H   0  0  0  0  0  0  0  0  0  0  0  0
    8.7019   -0.5472   21.2239 C   0  0  0  0  0  0  0  0  0  0  0  0
    9.7061    0.3046   20.7087 C   0  0  0  0  0  0  0  0  0  0  0  0
    9.5776    1.1365   20.0437 H   0  0  0  0  0  0  0  0  0  0  0  0
   10.9119   -0.0309   21.1554 N   0  0  0  0  0  0  0  0  0  0  0  0
   10.6949   -1.0595   21.9725 N   0  0  0  0  0  0  0  0  0  0  0  0
   11.4771   -1.5878   22.3432 H   0  0  0  0  0  0  0  0  0  0  0  0
    9.3741   -1.3697   22.1022 C   0  0  0  0  0  0  0  0  0  0  0  0
    8.8897   -2.3529   23.0587 C   0  0  0  0  0  0  0  0  0  0  0  0
    9.7352   -3.3700   23.2975 N   0  0  0  0  0  0  0  0  0  0  0  0
    9.3565   -4.3220   24.1316 C   0  0  0  0  0  0  0  0  0  0  0  0
   10.0467   -5.1538   24.2589 H   0  0  0  0  0  0  0  0  0  0  0  0
    8.1350   -4.2953   24.8124 C   0  0  0  0  0  0  0  0  0  0  0  0
    7.8904   -5.4045   25.7727 C   0  0  0  0  0  0  0  0  0  0  0  0
    6.6103   -5.8181   25.7714 F   0  0  0  0  0  0  0  0  0  0  0  0
    8.6440   -6.4884   25.4964 F   0  0  0  0  0  0  0  0  0  0  0  0
    8.1934   -5.0311   27.0312 F   0  0  0  0  0  0  0  0  0  0  0  0
    7.2750   -3.1964   24.6389 C   0  0  0  0  0  0  0  0  0  0  0  0
    6.3316   -3.0638   25.1686 H   0  0  0  0  0  0  0  0  0  0  0  0
    7.6719   -2.2181   23.7402 C   0  0  0  0  0  0  0  0  0  0  0  0
    7.0888   -1.3170   23.6041 H   0  0  0  0  0  0  0  0  0  0  0  0
    5.4481    0.5790   20.1254 C   0  0  0  0  0  0  0  0  0  0  0  0
    5.0360    0.5354   21.1348 H   0  0  0  0  0  0  0  0  0  0  0  0
    4.8079    1.2718   19.0915 C   0  0  0  0  0  0  0  0  0  0  0  0
    3.8764    1.8012   19.2690 H   0  0  0  0  0  0  0  0  0  0  0  0
  1  2  1  0
  2  3  2  0
  3  4  1  0
  4  5  1  0
  4  6  2  0
  6  7  1  0
  7  8  1  0
  7  9  1  0
  9 10  1  0
 10 11  1  0
 10 12  2  0
 12 13  1  0
 13 14  1  0
 13 15  1  0
 15 16  1  0
 16 17  2  0
 17 18  1  0
 18 19  1  0
 18 20  2  0
 20 21  1  0
 21 22  1  0
 21 23  1  0
 21 24  1  0
 20 25  1  0
 25 26  1  0
 25 27  2  0
 27 28  1  0
  6 29  1  0
 29 30  1  0
 29 31  2  0
 31 32  1  0
 31  2  1  0
 15  9  2  0
 27 16  1  0
M  END
>  <cnnaffinity>  (1) 
-5.92815

>  <filename>  (1) 
FC(F)(F)c1ccc(-c2[nH]ncc2Nc2cccnc2)nc1

$$$$
