
     RDKit          3D

 29 31  0  0  0  0  0  0  0  0999 V2000
    4.9207    1.7863   16.9921 H   0  0  0  0  0  0  0  0  0  0  0  0
    5.4013    1.2962   17.8362 C   0  0  0  0  0  0  0  0  0  0  0  0
    6.5664    0.6790   17.5790 N   0  0  0  0  0  0  0  0  0  0  0  0
    7.1704    0.0635   18.5988 C   0  0  0  0  0  0  0  0  0  0  0  0
    8.1136   -0.4279   18.3747 H   0  0  0  0  0  0  0  0  0  0  0  0
    6.6612    0.0129   19.9127 C   0  0  0  0  0  0  0  0  0  0  0  0
    7.3640   -0.6956   20.9954 C   0  0  0  0  0  0  0  0  0  0  0  0
    8.0617   -2.2495   20.8190 S   0  0  0  0  0  0  0  0  0  0  0  0
    8.4971   -2.4397   22.3995 N   0  0  0  0  0  0  0  0  0  0  0  0
    8.1455   -1.3805   23.0675 C   0  0  0  0  0  0  0  0  0  0  0  0
    8.3811   -1.3515   24.1273 H   0  0  0  0  0  0  0  0  0  0  0  0
    7.5137   -0.3414   22.3187 C   0  0  0  0  0  0  0  0  0  0  0  0
    7.1726    0.9413   22.9277 C   0  0  0  0  0  0  0  0  0  0  0  0
    6.7079    0.8915   24.1832 N   0  0  0  0  0  0  0  0  0  0  0  0
    6.3440    2.0341   24.7748 C   0  0  0  0  0  0  0  0  0  0  0  0
    5.7753    1.9794   26.2182 C   0  0  0  0  0  0  0  0  0  0  0  0
    4.5508    2.5472   26.2699 F   0  0  0  0  0  0  0  0  0  0  0  0
    5.6676    0.7521   26.7314 F   0  0  0  0  0  0  0  0  0  0  0  0
    6.5461    2.7025   27.0591 F   0  0  0  0  0  0  0  0  0  0  0  0
    6.4859    3.2920   24.1558 C   0  0  0  0  0  0  0  0  0  0  0  0
    6.2046    4.1984   24.6798 H   0  0  0  0  0  0  0  0  0  0  0  0
    7.0170    3.3509   22.8650 C   0  0  0  0  0  0  0  0  0  0  0  0
    7.1495    4.3047   22.3503 H   0  0  0  0  0  0  0  0  0  0  0  0
    7.3700    2.1548   22.2438 C   0  0  0  0  0  0  0  0  0  0  0  0
    7.7780    2.1139   21.2432 H   0  0  0  0  0  0  0  0  0  0  0  0
    5.4283    0.6441   20.1510 C   0  0  0  0  0  0  0  0  0  0  0  0
    5.0008    0.6298   21.1538 H   0  0  0  0  0  0  0  0  0  0  0  0
    4.8003    1.3076   19.0987 C   0  0  0  0  0  0  0  0  0  0  0  0
    3.8719    1.8420   19.2524 H   0  0  0  0  0  0  0  0  0  0  0  0
  1  2  1  0
  2  3  2  0
  3  4  1  0
  4  5  1  0
  4  6  2  0
  6  7  1  0
  7  8  1  0
  8  9  1  0
  9 10  2  0
 10 11  1  0
 10 12  1  0
 12 13  1  0
 13 14  2  0
 14 15  1  0
 15 16  1  0
 16 17  1  0
 16 18  1  0
 16 19  1  0
 15 20  2  0
 20 21  1  0
 20 22  1  0
 22 23  1  0
 22 24  2  0
 24 25  1  0
  6 26  1  0
 26 27  1  0
 26 28  2  0
 28 29  1  0
 28  2  1  0
 12  7  2  0
 24 13  1  0
M  END
>  <cnnaffinity>  (1) 
-5.27691

>  <filename>  (1) 
FC(F)(F)c1cccc(-c2cnsc2-c2cccnc2)n1

$$$$
