
     RDKit          3D

 31 33  0  0  0  0  0  0  0  0999 V2000
    4.9168    1.7924   16.9817 H   0  0  0  0  0  0  0  0  0  0  0  0
    5.3931    1.3000   17.8243 C   0  0  0  0  0  0  0  0  0  0  0  0
    6.5547    0.6831   17.5567 N   0  0  0  0  0  0  0  0  0  0  0  0
    7.1653    0.0753   18.5823 C   0  0  0  0  0  0  0  0  0  0  0  0
    8.1041   -0.4219   18.3486 H   0  0  0  0  0  0  0  0  0  0  0  0
    6.6626    0.0187   19.8960 C   0  0  0  0  0  0  0  0  0  0  0  0
    7.3966   -0.6947   20.9583 C   0  0  0  0  0  0  0  0  0  0  0  0
    8.7540   -0.7680   21.0745 C   0  0  0  0  0  0  0  0  0  0  0  0
    9.4709   -0.3065   20.4170 H   0  0  0  0  0  0  0  0  0  0  0  0
    9.2680   -1.6396   22.4594 S   0  0  0  0  0  0  0  0  0  0  0  0
    7.6237   -1.9818   22.9127 C   0  0  0  0  0  0  0  0  0  0  0  0
    7.2126   -2.6910   24.1451 C   0  0  0  0  0  0  0  0  0  0  0  0
    6.2932   -2.0479   24.9996 C   0  0  0  0  0  0  0  0  0  0  0  0
    5.8920   -1.0827   24.7001 H   0  0  0  0  0  0  0  0  0  0  0  0
    5.9149   -2.6191   26.2158 C   0  0  0  0  0  0  0  0  0  0  0  0
    5.2087   -2.1062   26.8642 H   0  0  0  0  0  0  0  0  0  0  0  0
    6.4453   -3.8543   26.5974 C   0  0  0  0  0  0  0  0  0  0  0  0
    6.1651   -4.3103   27.5435 H   0  0  0  0  0  0  0  0  0  0  0  0
    7.3320   -4.5220   25.7520 C   0  0  0  0  0  0  0  0  0  0  0  0
    7.7403   -5.4873   26.0486 H   0  0  0  0  0  0  0  0  0  0  0  0
    7.6887   -3.9717   24.5118 C   0  0  0  0  0  0  0  0  0  0  0  0
    8.6341   -4.7403   23.6033 C   0  0  0  0  0  0  0  0  0  0  0  0
    8.3023   -4.6477   22.2987 F   0  0  0  0  0  0  0  0  0  0  0  0
    8.6723   -6.0547   23.8950 F   0  0  0  0  0  0  0  0  0  0  0  0
    9.8902   -4.2672   23.7305 F   0  0  0  0  0  0  0  0  0  0  0  0
    6.7654   -1.3982   22.0229 C   0  0  0  0  0  0  0  0  0  0  0  0
    5.6931   -1.5041   22.0479 H   0  0  0  0  0  0  0  0  0  0  0  0
    5.4352    0.6554   20.1449 C   0  0  0  0  0  0  0  0  0  0  0  0
    5.0216    0.6428   21.1564 H   0  0  0  0  0  0  0  0  0  0  0  0
    4.8000    1.3165   19.0935 C   0  0  0  0  0  0  0  0  0  0  0  0
    3.8690    1.8462   19.2480 H   0  0  0  0  0  0  0  0  0  0  0  0
  1  2  1  0
  2  3  2  0
  3  4  1  0
  4  5  1  0
  4  6  2  0
  6  7  1  0
  7  8  2  0
  8  9  1  0
  8 10  1  0
 10 11  1  0
 11 12  1  0
 12 13  2  0
 13 14  1  0
 13 15  1  0
 15 16  1  0
 15 17  2  0
 17 18  1  0
 17 19  1  0
 19 20  1  0
 19 21  2  0
 21 22  1  0
 22 23  1  0
 22 24  1  0
 22 25  1  0
 11 26  2  0
 26 27  1  0
  6 28  1  0
 28 29  1  0
 28 30  2  0
 30 31  1  0
 30  2  1  0
 26  7  1  0
 21 12  1  0
M  END
>  <cnnaffinity>  (1) 
-5.39572

>  <filename>  (1) 
FC(F)(F)c1ccccc1-c1cc(-c2cccnc2)cs1

$$$$
