
     RDKit          3D

 29 31  0  0  0  0  0  0  0  0999 V2000
    4.9229    1.7828   16.9942 H   0  0  0  0  0  0  0  0  0  0  0  0
    5.3989    1.2923   17.8397 C   0  0  0  0  0  0  0  0  0  0  0  0
    6.5627    0.6779   17.5839 N   0  0  0  0  0  0  0  0  0  0  0  0
    7.1739    0.0637   18.5985 C   0  0  0  0  0  0  0  0  0  0  0  0
    8.1225   -0.4070   18.3593 H   0  0  0  0  0  0  0  0  0  0  0  0
    6.6598    0.0029   19.9041 C   0  0  0  0  0  0  0  0  0  0  0  0
    7.3552   -0.6927   20.9320 N   0  0  0  0  0  0  0  0  0  0  0  0
    7.0708   -0.4652   22.2299 N   0  0  0  0  0  0  0  0  0  0  0  0
    7.9044   -1.2591   22.8780 C   0  0  0  0  0  0  0  0  0  0  0  0
    7.9682   -1.3290   24.3893 C   0  0  0  0  0  0  0  0  0  0  0  0
    7.4498   -0.2588   25.0162 N   0  0  0  0  0  0  0  0  0  0  0  0
    7.5087   -0.1901   26.3378 C   0  0  0  0  0  0  0  0  0  0  0  0
    7.0782    0.6979   26.7947 H   0  0  0  0  0  0  0  0  0  0  0  0
    8.0859   -1.1847   27.1174 C   0  0  0  0  0  0  0  0  0  0  0  0
    8.1427   -1.0188   28.1665 H   0  0  0  0  0  0  0  0  0  0  0  0
    8.6028   -2.3206   26.5257 C   0  0  0  0  0  0  0  0  0  0  0  0
    9.0457   -3.1161   27.1361 H   0  0  0  0  0  0  0  0  0  0  0  0
    8.5297   -2.4139   25.1299 C   0  0  0  0  0  0  0  0  0  0  0  0
    9.0715   -3.6653   24.4719 C   0  0  0  0  0  0  0  0  0  0  0  0
    9.3485   -4.6357   25.3724 F   0  0  0  0  0  0  0  0  0  0  0  0
   10.2138   -3.4222   23.8149 F   0  0  0  0  0  0  0  0  0  0  0  0
    8.1904   -4.1936   23.6086 F   0  0  0  0  0  0  0  0  0  0  0  0
    8.7062   -2.0106   22.0563 N   0  0  0  0  0  0  0  0  0  0  0  0
    8.3406   -1.6202   20.8660 C   0  0  0  0  0  0  0  0  0  0  0  0
    8.7480   -1.9338   19.9212 H   0  0  0  0  0  0  0  0  0  0  0  0
    5.4411    0.6454   20.1690 C   0  0  0  0  0  0  0  0  0  0  0  0
    5.0306    0.6236   21.1823 H   0  0  0  0  0  0  0  0  0  0  0  0
    4.8098    1.3032   19.1107 C   0  0  0  0  0  0  0  0  0  0  0  0
    3.8807    1.8370   19.2609 H   0  0  0  0  0  0  0  0  0  0  0  0
  1  2  1  0
  2  3  2  0
  3  4  1  0
  4  5  1  0
  4  6  2  0
  6  7  1  0
  7  8  1  0
  8  9  2  0
  9 10  1  0
 10 11  2  0
 11 12  1  0
 12 13  1  0
 12 14  2  0
 14 15  1  0
 14 16  1  0
 16 17  1  0
 16 18  2  0
 18 19  1  0
 19 20  1  0
 19 21  1  0
 19 22  1  0
  9 23  1  0
 23 24  2  0
 24 25  1  0
  6 26  1  0
 26 27  1  0
 26 28  2  0
 28 29  1  0
 28  2  1  0
 24  7  1  0
 18 10  1  0
M  END
>  <cnnaffinity>  (1) 
-5.35837

>  <filename>  (1) 
FC(F)(F)c1cccnc1-c1ncn(-c2cccnc2)n1

$$$$
