
     RDKit          3D

 33 35  0  0  0  0  0  0  0  0999 V2000
    4.9227    1.7743   17.0037 H   0  0  0  0  0  0  0  0  0  0  0  0
    5.4072    1.2856   17.8472 C   0  0  0  0  0  0  0  0  0  0  0  0
    6.5684    0.6664   17.5890 N   0  0  0  0  0  0  0  0  0  0  0  0
    7.1879    0.0658   18.6085 C   0  0  0  0  0  0  0  0  0  0  0  0
    8.1296   -0.4229   18.3731 H   0  0  0  0  0  0  0  0  0  0  0  0
    6.6786    0.0151   19.9133 C   0  0  0  0  0  0  0  0  0  0  0  0
    7.4329   -0.7060   20.9607 C   0  0  0  0  0  0  0  0  0  0  0  0
    8.7746   -0.6889   20.8891 N   0  0  0  0  0  0  0  0  0  0  0  0
    9.4479   -1.3027   21.8697 C   0  0  0  0  0  0  0  0  0  0  0  0
   10.5282   -1.2636   21.8064 H   0  0  0  0  0  0  0  0  0  0  0  0
    8.8466   -2.0000   22.9177 C   0  0  0  0  0  0  0  0  0  0  0  0
    9.4454   -2.4919   23.6746 H   0  0  0  0  0  0  0  0  0  0  0  0
    7.4554   -2.0652   22.9637 C   0  0  0  0  0  0  0  0  0  0  0  0
    6.7406   -2.7819   24.0583 C   0  0  0  0  0  0  0  0  0  0  0  0
    6.0291   -2.0185   24.9972 C   0  0  0  0  0  0  0  0  0  0  0  0
    6.0036   -0.9389   24.8743 H   0  0  0  0  0  0  0  0  0  0  0  0
    5.3862   -2.6290   26.0697 C   0  0  0  0  0  0  0  0  0  0  0  0
    4.8423   -2.0247   26.7896 H   0  0  0  0  0  0  0  0  0  0  0  0
    5.4436   -4.0172   26.2109 C   0  0  0  0  0  0  0  0  0  0  0  0
    4.9507   -4.5021   27.0453 H   0  0  0  0  0  0  0  0  0  0  0  0
    6.1307   -4.7926   25.2772 C   0  0  0  0  0  0  0  0  0  0  0  0
    6.1696   -5.8745   25.3961 H   0  0  0  0  0  0  0  0  0  0  0  0
    6.7643   -4.1881   24.1830 C   0  0  0  0  0  0  0  0  0  0  0  0
    7.4941   -5.0505   23.1608 C   0  0  0  0  0  0  0  0  0  0  0  0
    7.3132   -4.6373   21.8911 F   0  0  0  0  0  0  0  0  0  0  0  0
    7.1050   -6.3381   23.1987 F   0  0  0  0  0  0  0  0  0  0  0  0
    8.8286   -5.0489   23.3730 F   0  0  0  0  0  0  0  0  0  0  0  0
    6.7517   -1.3942   21.9719 C   0  0  0  0  0  0  0  0  0  0  0  0
    5.6749   -1.4332   21.9362 H   0  0  0  0  0  0  0  0  0  0  0  0
    5.4472    0.6462   20.1640 C   0  0  0  0  0  0  0  0  0  0  0  0
    5.0034    0.6429   21.1630 H   0  0  0  0  0  0  0  0  0  0  0  0
    4.8134    1.3062   19.1136 C   0  0  0  0  0  0  0  0  0  0  0  0
    3.8789    1.8388   19.2615 H   0  0  0  0  0  0  0  0  0  0  0  0
  1  2  1  0
  2  3  2  0
  3  4  1  0
  4  5  1  0
  4  6  2  0
  6  7  1  0
  7  8  2  0
  8  9  1  0
  9 10  1  0
  9 11  2  0
 11 12  1  0
 11 13  1  0
 13 14  1  0
 14 15  2  0
 15 16  1  0
 15 17  1  0
 17 18  1  0
 17 19  2  0
 19 20  1  0
 19 21  1  0
 21 22  1  0
 21 23  2  0
 23 24  1  0
 24 25  1  0
 24 26  1  0
 24 27  1  0
 13 28  2  0
 28 29  1  0
  6 30  1  0
 30 31  1  0
 30 32  2  0
 32 33  1  0
 32  2  1  0
 28  7  1  0
 23 14  1  0
M  END
>  <cnnaffinity>  (1) 
-5.48293

>  <filename>  (1) 
FC(F)(F)c1ccccc1-c1ccnc(-c2cccnc2)c1

$$$$
