
     RDKit          3D

 31 33  0  0  0  0  0  0  0  0999 V2000
    4.9514    1.7917   16.9513 H   0  0  0  0  0  0  0  0  0  0  0  0
    5.4118    1.3148   17.8174 C   0  0  0  0  0  0  0  0  0  0  0  0
    6.5807    0.6867   17.6060 N   0  0  0  0  0  0  0  0  0  0  0  0
    7.1440    0.0767   18.6582 C   0  0  0  0  0  0  0  0  0  0  0  0
    8.0965   -0.4176   18.4657 H   0  0  0  0  0  0  0  0  0  0  0  0
    6.6018    0.0624   19.9593 C   0  0  0  0  0  0  0  0  0  0  0  0
    7.2791   -0.6841   21.0470 C   0  0  0  0  0  0  0  0  0  0  0  0
    7.6737   -1.9989   21.0403 C   0  0  0  0  0  0  0  0  0  0  0  0
    7.4360   -2.7140   20.2805 H   0  0  0  0  0  0  0  0  0  0  0  0
    8.2949   -2.2068   22.2852 C   0  0  0  0  0  0  0  0  0  0  0  0
    8.7562   -3.1015   22.6811 H   0  0  0  0  0  0  0  0  0  0  0  0
    8.2586   -1.1196   23.0363 N   0  0  0  0  0  0  0  0  0  0  0  0
    7.6218   -0.1921   22.2918 N   0  0  0  0  0  0  0  0  0  0  0  0
    7.2911    1.0666   22.8730 C   0  0  0  0  0  0  0  0  0  0  0  0
    7.5472    2.2426   22.1575 C   0  0  0  0  0  0  0  0  0  0  0  0
    7.9630    2.1731   21.1530 H   0  0  0  0  0  0  0  0  0  0  0  0
    7.2177    3.4693   22.7297 C   0  0  0  0  0  0  0  0  0  0  0  0
    7.4097    4.3803   22.1695 H   0  0  0  0  0  0  0  0  0  0  0  0
    6.6313    3.5338   23.9979 C   0  0  0  0  0  0  0  0  0  0  0  0
    6.3580    4.5039   24.4033 H   0  0  0  0  0  0  0  0  0  0  0  0
    6.3692    2.3509   24.7130 C   0  0  0  0  0  0  0  0  0  0  0  0
    5.7802    2.3984   26.1122 C   0  0  0  0  0  0  0  0  0  0  0  0
    6.7355    2.4306   27.0614 F   0  0  0  0  0  0  0  0  0  0  0  0
    5.0102    3.4850   26.3019 F   0  0  0  0  0  0  0  0  0  0  0  0
    5.0135    1.3213   26.3709 F   0  0  0  0  0  0  0  0  0  0  0  0
    6.6969    1.1150   24.1431 C   0  0  0  0  0  0  0  0  0  0  0  0
    6.4857    0.1786   24.6567 H   0  0  0  0  0  0  0  0  0  0  0  0
    5.3791    0.7274   20.1538 C   0  0  0  0  0  0  0  0  0  0  0  0
    4.9309    0.7565   21.1480 H   0  0  0  0  0  0  0  0  0  0  0  0
    4.7762    1.3540   19.0634 C   0  0  0  0  0  0  0  0  0  0  0  0
    3.8221    1.8575   19.1640 H   0  0  0  0  0  0  0  0  0  0  0  0
  1  2  1  0
  2  3  2  0
  3  4  1  0
  4  5  1  0
  4  6  2  0
  6  7  1  0
  7  8  2  0
  8  9  1  0
  8 10  1  0
 10 11  1  0
 10 12  2  0
 12 13  1  0
 13 14  1  0
 14 15  2  0
 15 16  1  0
 15 17  1  0
 17 18  1  0
 17 19  2  0
 19 20  1  0
 19 21  1  0
 21 22  1  0
 22 23  1  0
 22 24  1  0
 22 25  1  0
 21 26  2  0
 26 27  1  0
  6 28  1  0
 28 29  1  0
 28 30  2  0
 30 31  1  0
 30  2  1  0
 13  7  1  0
 26 14  1  0
M  END
>  <cnnaffinity>  (1) 
-4.92279

>  <filename>  (1) 
FC(F)(F)c1cccc(-n2nccc2-c2cccnc2)c1

$$$$
