
     RDKit          3D

 33 35  0  0  0  0  0  0  0  0999 V2000
    4.9123    1.7807   16.9945 H   0  0  0  0  0  0  0  0  0  0  0  0
    5.3994    1.2956   17.8346 C   0  0  0  0  0  0  0  0  0  0  0  0
    6.5629    0.6783   17.5692 N   0  0  0  0  0  0  0  0  0  0  0  0
    7.1711    0.0725   18.5936 C   0  0  0  0  0  0  0  0  0  0  0  0
    8.1135   -0.4278   18.3715 H   0  0  0  0  0  0  0  0  0  0  0  0
    6.6598    0.0157   19.9010 C   0  0  0  0  0  0  0  0  0  0  0  0
    7.3826   -0.7015   20.9761 C   0  0  0  0  0  0  0  0  0  0  0  0
    8.7708   -0.5421   21.1262 C   0  0  0  0  0  0  0  0  0  0  0  0
    9.3054    0.1276   20.4565 H   0  0  0  0  0  0  0  0  0  0  0  0
    9.4370   -1.2192   22.1474 C   0  0  0  0  0  0  0  0  0  0  0  0
   10.5101   -1.0896   22.2581 H   0  0  0  0  0  0  0  0  0  0  0  0
    8.7343   -2.0609   23.0118 C   0  0  0  0  0  0  0  0  0  0  0  0
    9.2902   -2.5867   23.7810 H   0  0  0  0  0  0  0  0  0  0  0  0
    7.3414   -2.2414   22.8754 C   0  0  0  0  0  0  0  0  0  0  0  0
    6.5722   -3.1291   23.8030 C   0  0  0  0  0  0  0  0  0  0  0  0
    5.4609   -3.7054   23.3139 N   0  0  0  0  0  0  0  0  0  0  0  0
    4.7489   -4.5232   24.1011 C   0  0  0  0  0  0  0  0  0  0  0  0
    3.4772   -5.1800   23.5225 C   0  0  0  0  0  0  0  0  0  0  0  0
    3.5564   -6.5264   23.5810 F   0  0  0  0  0  0  0  0  0  0  0  0
    2.3852   -4.8490   24.2447 F   0  0  0  0  0  0  0  0  0  0  0  0
    3.2232   -4.8535   22.2548 F   0  0  0  0  0  0  0  0  0  0  0  0
    5.0999   -4.7991   25.4335 C   0  0  0  0  0  0  0  0  0  0  0  0
    4.4966   -5.4611   26.0450 H   0  0  0  0  0  0  0  0  0  0  0  0
    6.2427   -4.1889   25.9519 C   0  0  0  0  0  0  0  0  0  0  0  0
    6.5500   -4.3719   26.9799 H   0  0  0  0  0  0  0  0  0  0  0  0
    6.9852   -3.3461   25.1308 C   0  0  0  0  0  0  0  0  0  0  0  0
    7.8637   -2.8379   25.5065 H   0  0  0  0  0  0  0  0  0  0  0  0
    6.6862   -1.5465   21.8494 C   0  0  0  0  0  0  0  0  0  0  0  0
    5.6151   -1.6845   21.7061 H   0  0  0  0  0  0  0  0  0  0  0  0
    5.4333    0.6528   20.1502 C   0  0  0  0  0  0  0  0  0  0  0  0
    5.0136    0.6307   21.1597 H   0  0  0  0  0  0  0  0  0  0  0  0
    4.8031    1.3174   19.1020 C   0  0  0  0  0  0  0  0  0  0  0  0
    3.8685    1.8471   19.2585 H   0  0  0  0  0  0  0  0  0  0  0  0
  1  2  1  0
  2  3  2  0
  3  4  1  0
  4  5  1  0
  4  6  2  0
  6  7  1  0
  7  8  2  0
  8  9  1  0
  8 10  1  0
 10 11  1  0
 10 12  2  0
 12 13  1  0
 12 14  1  0
 14 15  1  0
 15 16  2  0
 16 17  1  0
 17 18  1  0
 18 19  1  0
 18 20  1  0
 18 21  1  0
 17 22  2  0
 22 23  1  0
 22 24  1  0
 24 25  1  0
 24 26  2  0
 26 27  1  0
 14 28  2  0
 28 29  1  0
  6 30  1  0
 30 31  1  0
 30 32  2  0
 32 33  1  0
 32  2  1  0
 28  7  1  0
 26 15  1  0
M  END
>  <cnnaffinity>  (1) 
-5.2697

>  <filename>  (1) 
FC(F)(F)c1cccc(-c2cccc(-c3cccnc3)c2)n1

$$$$
