
     RDKit          3D

 30 32  0  0  0  0  0  0  0  0999 V2000
    4.9432    1.8139   16.9517 H   0  0  0  0  0  0  0  0  0  0  0  0
    5.4074    1.3195   17.8085 C   0  0  0  0  0  0  0  0  0  0  0  0
    6.5798    0.7043   17.5839 N   0  0  0  0  0  0  0  0  0  0  0  0
    7.1573    0.0865   18.6244 C   0  0  0  0  0  0  0  0  0  0  0  0
    8.1094   -0.3962   18.4163 H   0  0  0  0  0  0  0  0  0  0  0  0
    6.6242    0.0259   19.9352 C   0  0  0  0  0  0  0  0  0  0  0  0
    7.3031   -0.7175   21.0358 C   0  0  0  0  0  0  0  0  0  0  0  0
    7.7729   -2.0115   21.1282 C   0  0  0  0  0  0  0  0  0  0  0  0
    7.7151   -2.8292   20.4327 H   0  0  0  0  0  0  0  0  0  0  0  0
    8.2973   -2.2279   22.3546 N   0  0  0  0  0  0  0  0  0  0  0  0
    8.1668   -1.1552   23.0597 N   0  0  0  0  0  0  0  0  0  0  0  0
    7.5536   -0.2238   22.2995 N   0  0  0  0  0  0  0  0  0  0  0  0
    7.2231    1.0298   22.9046 C   0  0  0  0  0  0  0  0  0  0  0  0
    7.4460    2.2374   22.2287 C   0  0  0  0  0  0  0  0  0  0  0  0
    7.8602    2.2282   21.2208 H   0  0  0  0  0  0  0  0  0  0  0  0
    7.0879    3.4344   22.8515 C   0  0  0  0  0  0  0  0  0  0  0  0
    7.2523    4.3729   22.3296 H   0  0  0  0  0  0  0  0  0  0  0  0
    6.5276    3.4381   24.1341 C   0  0  0  0  0  0  0  0  0  0  0  0
    6.2773    4.3869   24.5995 H   0  0  0  0  0  0  0  0  0  0  0  0
    6.3142    2.2250   24.8125 C   0  0  0  0  0  0  0  0  0  0  0  0
    5.6747    2.2002   26.1898 C   0  0  0  0  0  0  0  0  0  0  0  0
    5.9510    3.3086   26.9016 F   0  0  0  0  0  0  0  0  0  0  0  0
    4.3321    2.1121   26.1126 F   0  0  0  0  0  0  0  0  0  0  0  0
    6.0906    1.1463   26.9182 F   0  0  0  0  0  0  0  0  0  0  0  0
    6.6699    1.0210   24.1937 C   0  0  0  0  0  0  0  0  0  0  0  0
    6.5646    0.0574   24.6910 H   0  0  0  0  0  0  0  0  0  0  0  0
    5.3975    0.6819   20.1372 C   0  0  0  0  0  0  0  0  0  0  0  0
    4.9559    0.7039   21.1364 H   0  0  0  0  0  0  0  0  0  0  0  0
    4.7858    1.3287   19.0605 C   0  0  0  0  0  0  0  0  0  0  0  0
    3.8391    1.8409   19.1781 H   0  0  0  0  0  0  0  0  0  0  0  0
  1  2  1  0
  2  3  2  0
  3  4  1  0
  4  5  1  0
  4  6  2  0
  6  7  1  0
  7  8  2  0
  8  9  1  0
  8 10  1  0
 10 11  2  0
 11 12  1  0
 12 13  1  0
 13 14  2  0
 14 15  1  0
 14 16  1  0
 16 17  1  0
 16 18  2  0
 18 19  1  0
 18 20  1  0
 20 21  1  0
 21 22  1  0
 21 23  1  0
 21 24  1  0
 20 25  2  0
 25 26  1  0
  6 27  1  0
 27 28  1  0
 27 29  2  0
 29 30  1  0
 29  2  1  0
 12  7  1  0
 25 13  1  0
M  END
>  <cnnaffinity>  (1) 
-4.91722

>  <filename>  (1) 
FC(F)(F)c1cccc(-n2nncc2-c2cccnc2)c1

$$$$
