
     RDKit          3D

 30 32  0  0  0  0  0  0  0  0999 V2000
    4.9156    1.7878   16.9882 H   0  0  0  0  0  0  0  0  0  0  0  0
    5.3956    1.2974   17.8302 C   0  0  0  0  0  0  0  0  0  0  0  0
    6.5581    0.6818   17.5621 N   0  0  0  0  0  0  0  0  0  0  0  0
    7.1684    0.0723   18.5868 C   0  0  0  0  0  0  0  0  0  0  0  0
    8.1082   -0.4239   18.3538 H   0  0  0  0  0  0  0  0  0  0  0  0
    6.6647    0.0127   19.9002 C   0  0  0  0  0  0  0  0  0  0  0  0
    7.3954   -0.6954   20.9666 C   0  0  0  0  0  0  0  0  0  0  0  0
    8.7500   -0.7815   21.0859 C   0  0  0  0  0  0  0  0  0  0  0  0
    9.4650   -0.3079   20.4324 H   0  0  0  0  0  0  0  0  0  0  0  0
    9.2431   -1.6447   22.4936 S   0  0  0  0  0  0  0  0  0  0  0  0
    7.5915   -1.9637   22.9240 C   0  0  0  0  0  0  0  0  0  0  0  0
    7.2481   -2.7103   24.1583 C   0  0  0  0  0  0  0  0  0  0  0  0
    7.9095   -2.3162   25.2573 N   0  0  0  0  0  0  0  0  0  0  0  0
    7.5928   -2.8620   26.4290 C   0  0  0  0  0  0  0  0  0  0  0  0
    8.1414   -2.4917   27.2892 H   0  0  0  0  0  0  0  0  0  0  0  0
    6.6231   -3.8562   26.5820 C   0  0  0  0  0  0  0  0  0  0  0  0
    6.4150   -4.2736   27.5603 H   0  0  0  0  0  0  0  0  0  0  0  0
    5.9619   -4.3166   25.4565 C   0  0  0  0  0  0  0  0  0  0  0  0
    5.2076   -5.1053   25.5336 H   0  0  0  0  0  0  0  0  0  0  0  0
    6.3032   -3.7578   24.2144 C   0  0  0  0  0  0  0  0  0  0  0  0
    5.6285   -4.2807   22.9782 C   0  0  0  0  0  0  0  0  0  0  0  0
    6.4270   -4.2878   21.8976 F   0  0  0  0  0  0  0  0  0  0  0  0
    4.5437   -3.5437   22.6563 F   0  0  0  0  0  0  0  0  0  0  0  0
    5.1927   -5.5447   23.1476 F   0  0  0  0  0  0  0  0  0  0  0  0
    6.7439   -1.3772   22.0312 C   0  0  0  0  0  0  0  0  0  0  0  0
    5.6736   -1.4766   22.0398 H   0  0  0  0  0  0  0  0  0  0  0  0
    5.4372    0.6498   20.1500 C   0  0  0  0  0  0  0  0  0  0  0  0
    5.0235    0.6351   21.1614 H   0  0  0  0  0  0  0  0  0  0  0  0
    4.8022    1.3139   19.0991 C   0  0  0  0  0  0  0  0  0  0  0  0
    3.8707    1.8449   19.2534 H   0  0  0  0  0  0  0  0  0  0  0  0
  1  2  1  0
  2  3  2  0
  3  4  1  0
  4  5  1  0
  4  6  2  0
  6  7  1  0
  7  8  2  0
  8  9  1  0
  8 10  1  0
 10 11  1  0
 11 12  1  0
 12 13  2  0
 13 14  1  0
 14 15  1  0
 14 16  2  0
 16 17  1  0
 16 18  1  0
 18 19  1  0
 18 20  2  0
 20 21  1  0
 21 22  1  0
 21 23  1  0
 21 24  1  0
 11 25  2  0
 25 26  1  0
  6 27  1  0
 27 28  1  0
 27 29  2  0
 29 30  1  0
 29  2  1  0
 25  7  1  0
 20 12  1  0
M  END
>  <cnnaffinity>  (1) 
-5.69207

>  <filename>  (1) 
FC(F)(F)c1cccnc1-c1cc(-c2cccnc2)cs1

$$$$
