
     RDKit          3D

 35 37  0  0  0  0  0  0  0  0999 V2000
    5.0927    1.5358   16.9684 H   0  0  0  0  0  0  0  0  0  0  0  0
    5.5116    1.1399   17.8913 C   0  0  0  0  0  0  0  0  0  0  0  0
    6.6917    0.5138   17.7886 N   0  0  0  0  0  0  0  0  0  0  0  0
    7.2391    0.0175   18.9091 C   0  0  0  0  0  0  0  0  0  0  0  0
    8.2170   -0.4481   18.8159 H   0  0  0  0  0  0  0  0  0  0  0  0
    6.6210    0.1009   20.1717 C   0  0  0  0  0  0  0  0  0  0  0  0
    7.2252   -0.3852   21.3152 O   0  0  0  0  0  0  0  0  0  0  0  0
    7.6519   -1.6964   21.3805 C   0  0  0  0  0  0  0  0  0  0  0  0
    7.0899   -2.8872   20.8484 C   0  0  0  0  0  0  0  0  0  0  0  0
    6.2485   -3.0139   20.1799 H   0  0  0  0  0  0  0  0  0  0  0  0
    7.7604   -3.9513   21.2893 N   0  0  0  0  0  0  0  0  0  0  0  0
    8.7093   -3.4462   22.0795 N   0  0  0  0  0  0  0  0  0  0  0  0
    9.3127   -4.0823   22.5788 H   0  0  0  0  0  0  0  0  0  0  0  0
    8.7009   -2.0934   22.1851 C   0  0  0  0  0  0  0  0  0  0  0  0
    9.5494   -1.3402   23.1673 C   0  0  0  0  0  0  0  0  0  0  0  0
   10.2004   -2.0439   23.7051 H   0  0  0  0  0  0  0  0  0  0  0  0
    8.8613   -0.9187   23.9186 H   0  0  0  0  0  0  0  0  0  0  0  0
   10.3872   -0.1833   22.6497 C   0  0  0  0  0  0  0  0  0  0  0  0
    9.7754    1.0519   22.3826 C   0  0  0  0  0  0  0  0  0  0  0  0
    8.6925    1.1171   22.4016 H   0  0  0  0  0  0  0  0  0  0  0  0
   10.5467    2.1921   22.1813 C   0  0  0  0  0  0  0  0  0  0  0  0
   10.0523    3.1475   22.0079 H   0  0  0  0  0  0  0  0  0  0  0  0
   11.9521    2.1274   22.2718 C   0  0  0  0  0  0  0  0  0  0  0  0
   12.7311    3.4275   22.3257 C   0  0  0  0  0  0  0  0  0  0  0  0
   12.2269    4.2445   23.2782 F   0  0  0  0  0  0  0  0  0  0  0  0
   14.0330    3.2657   22.6207 F   0  0  0  0  0  0  0  0  0  0  0  0
   12.6586    4.1102   21.1675 F   0  0  0  0  0  0  0  0  0  0  0  0
   12.5716    0.8760   22.4210 C   0  0  0  0  0  0  0  0  0  0  0  0
   13.6588    0.7858   22.4177 H   0  0  0  0  0  0  0  0  0  0  0  0
   11.7873   -0.2662   22.6002 C   0  0  0  0  0  0  0  0  0  0  0  0
   12.2699   -1.2264   22.7547 H   0  0  0  0  0  0  0  0  0  0  0  0
    5.3948    0.7657   20.2752 C   0  0  0  0  0  0  0  0  0  0  0  0
    4.9130    0.8744   21.2483 H   0  0  0  0  0  0  0  0  0  0  0  0
    4.8295    1.2888   19.1076 C   0  0  0  0  0  0  0  0  0  0  0  0
    3.8821    1.8174   19.1265 H   0  0  0  0  0  0  0  0  0  0  0  0
  1  2  1  0
  2  3  2  0
  3  4  1  0
  4  5  1  0
  4  6  2  0
  6  7  1  0
  7  8  1  0
  8  9  1  0
  9 10  1  0
  9 11  2  0
 11 12  1  0
 12 13  1  0
 12 14  1  0
 14 15  1  0
 15 16  1  0
 15 17  1  0
 15 18  1  0
 18 19  2  0
 19 20  1  0
 19 21  1  0
 21 22  1  0
 21 23  2  0
 23 24  1  0
 24 25  1  0
 24 26  1  0
 24 27  1  0
 23 28  1  0
 28 29  1  0
 28 30  2  0
 30 31  1  0
  6 32  1  0
 32 33  1  0
 32 34  2  0
 34 35  1  0
 34  2  1  0
 14  8  2  0
 30 18  1  0
M  END
>  <cnnaffinity>  (1) 
-5.33846

>  <filename>  (1) 
FC(F)(F)c1ccc(Cc2[nH]ncc2Oc2cccnc2)cc1

$$$$
