
     RDKit          3D

 31 33  0  0  0  0  0  0  0  0999 V2000
    8.6776   -3.5934   21.4310 H   0  0  0  0  0  0  0  0  0  0  0  0
    8.4332   -2.5562   21.6481 C   0  0  0  0  0  0  0  0  0  0  0  0
    8.7719   -2.0851   22.8477 N   0  0  0  0  0  0  0  0  0  0  0  0
    8.4351   -0.8291   23.1119 C   0  0  0  0  0  0  0  0  0  0  0  0
    8.6753   -0.4491   24.1086 H   0  0  0  0  0  0  0  0  0  0  0  0
    7.7344   -0.0483   22.2127 C   0  0  0  0  0  0  0  0  0  0  0  0
    7.4581    1.3488   22.5341 C   0  0  0  0  0  0  0  0  0  0  0  0
    8.0608    2.2196   21.7133 N   0  0  0  0  0  0  0  0  0  0  0  0
    7.8539    3.5215   21.9290 C   0  0  0  0  0  0  0  0  0  0  0  0
    8.3655    4.2157   21.2684 H   0  0  0  0  0  0  0  0  0  0  0  0
    7.0224    4.0178   22.9382 C   0  0  0  0  0  0  0  0  0  0  0  0
    6.8733    5.0875   23.0263 H   0  0  0  0  0  0  0  0  0  0  0  0
    6.3914    3.1162   23.7881 C   0  0  0  0  0  0  0  0  0  0  0  0
    5.7182    3.4637   24.5722 H   0  0  0  0  0  0  0  0  0  0  0  0
    6.6384    1.7466   23.5968 C   0  0  0  0  0  0  0  0  0  0  0  0
    6.0698    0.7452   24.5715 C   0  0  0  0  0  0  0  0  0  0  0  0
    4.8199    1.0861   24.9325 F   0  0  0  0  0  0  0  0  0  0  0  0
    6.8125    0.7021   25.6976 F   0  0  0  0  0  0  0  0  0  0  0  0
    5.9953   -0.5151   24.1294 F   0  0  0  0  0  0  0  0  0  0  0  0
    7.4346   -0.6280   20.9787 C   0  0  0  0  0  0  0  0  0  0  0  0
    6.6449    0.0390   19.9278 C   0  0  0  0  0  0  0  0  0  0  0  0
    7.1594    0.0396   18.6263 C   0  0  0  0  0  0  0  0  0  0  0  0
    8.0947   -0.4748   18.3983 H   0  0  0  0  0  0  0  0  0  0  0  0
    6.5692    0.6529   17.5983 N   0  0  0  0  0  0  0  0  0  0  0  0
    5.4066    1.2844   17.8353 C   0  0  0  0  0  0  0  0  0  0  0  0
    4.9594    1.8001   16.9880 H   0  0  0  0  0  0  0  0  0  0  0  0
    4.7825    1.3012   19.0868 C   0  0  0  0  0  0  0  0  0  0  0  0
    3.8458    1.8350   19.2159 H   0  0  0  0  0  0  0  0  0  0  0  0
    5.4104    0.6647   20.1544 C   0  0  0  0  0  0  0  0  0  0  0  0
    4.9565    0.6561   21.1482 H   0  0  0  0  0  0  0  0  0  0  0  0
    7.8197   -1.8723   20.6899 N   0  0  0  0  0  0  0  0  0  0  0  0
  1  2  1  0
  2  3  2  0
  3  4  1  0
  4  5  1  0
  4  6  2  0
  6  7  1  0
  7  8  2  0
  8  9  1  0
  9 10  1  0
  9 11  2  0
 11 12  1  0
 11 13  1  0
 13 14  1  0
 13 15  2  0
 15 16  1  0
 16 17  1  0
 16 18  1  0
 16 19  1  0
  6 20  1  0
 20 21  1  0
 21 22  2  0
 22 23  1  0
 22 24  1  0
 24 25  2  0
 25 26  1  0
 25 27  1  0
 27 28  1  0
 27 29  2  0
 29 30  1  0
 20 31  2  0
 31  2  1  0
 15  7  1  0
 29 21  1  0
M  END
>  <cnnaffinity>  (1) 
-4.86909

>  <filename>  (1) 
FC(F)(F)c1cccnc1-c1cncnc1-c1cccnc1

$$$$
