
     RDKit          3D

 32 34  0  0  0  0  0  0  0  0999 V2000
    4.9148    1.8160   16.9695 H   0  0  0  0  0  0  0  0  0  0  0  0
    5.3801    1.3076   17.8137 C   0  0  0  0  0  0  0  0  0  0  0  0
    6.5411    0.6859   17.5542 N   0  0  0  0  0  0  0  0  0  0  0  0
    7.1568    0.0743   18.5734 C   0  0  0  0  0  0  0  0  0  0  0  0
    8.1084   -0.3922   18.3211 H   0  0  0  0  0  0  0  0  0  0  0  0
    6.6575    0.0355   19.8967 C   0  0  0  0  0  0  0  0  0  0  0  0
    7.3748   -0.6260   21.0059 C   0  0  0  0  0  0  0  0  0  0  0  0
    7.5429   -0.3018   22.3497 C   0  0  0  0  0  0  0  0  0  0  0  0
    7.0926    0.8821   22.9892 N   0  0  0  0  0  0  0  0  0  0  0  0
    7.0089    1.7118   22.4292 H   0  0  0  0  0  0  0  0  0  0  0  0
    6.8734    1.0494   24.3296 C   0  0  0  0  0  0  0  0  0  0  0  0
    6.6295   -0.0501   25.0246 N   0  0  0  0  0  0  0  0  0  0  0  0
    6.3711    0.0559   26.3257 C   0  0  0  0  0  0  0  0  0  0  0  0
    6.1717   -0.8866   26.8322 H   0  0  0  0  0  0  0  0  0  0  0  0
    6.3728    1.2713   27.0075 C   0  0  0  0  0  0  0  0  0  0  0  0
    6.1730    1.2787   28.0681 H   0  0  0  0  0  0  0  0  0  0  0  0
    6.6516    2.4342   26.2962 C   0  0  0  0  0  0  0  0  0  0  0  0
    6.6850    3.4086   26.7905 H   0  0  0  0  0  0  0  0  0  0  0  0
    6.9083    2.3170   24.9305 C   0  0  0  0  0  0  0  0  0  0  0  0
    7.2260    3.4955   24.0929 C   0  0  0  0  0  0  0  0  0  0  0  0
    6.2411    3.7612   23.2047 F   0  0  0  0  0  0  0  0  0  0  0  0
    8.3491    3.3316   23.3661 F   0  0  0  0  0  0  0  0  0  0  0  0
    7.4043    4.6072   24.8252 F   0  0  0  0  0  0  0  0  0  0  0  0
    8.3116   -1.3867   22.8794 C   0  0  0  0  0  0  0  0  0  0  0  0
    8.6550   -1.5202   23.8976 H   0  0  0  0  0  0  0  0  0  0  0  0
    8.5933   -2.2928   21.9545 N   0  0  0  0  0  0  0  0  0  0  0  0
    8.0269   -1.8105   20.8386 N   0  0  0  0  0  0  0  0  0  0  0  0
    8.0517   -2.3591   19.9869 H   0  0  0  0  0  0  0  0  0  0  0  0
    5.4299    0.6735   20.1320 C   0  0  0  0  0  0  0  0  0  0  0  0
    5.0076    0.6465   21.1370 H   0  0  0  0  0  0  0  0  0  0  0  0
    4.7828    1.3217   19.0776 C   0  0  0  0  0  0  0  0  0  0  0  0
    3.8508    1.8550   19.2253 H   0  0  0  0  0  0  0  0  0  0  0  0
  1  2  1  0
  2  3  2  0
  3  4  1  0
  4  5  1  0
  4  6  2  0
  6  7  1  0
  7  8  2  0
  8  9  1  0
  9 10  1  0
  9 11  1  0
 11 12  2  0
 12 13  1  0
 13 14  1  0
 13 15  2  0
 15 16  1  0
 15 17  1  0
 17 18  1  0
 17 19  2  0
 19 20  1  0
 20 21  1  0
 20 22  1  0
 20 23  1  0
  8 24  1  0
 24 25  1  0
 24 26  2  0
 26 27  1  0
 27 28  1  0
  6 29  1  0
 29 30  1  0
 29 31  2  0
 31 32  1  0
 31  2  1  0
 27  7  1  0
 19 11  1  0
M  END
>  <cnnaffinity>  (1) 
-5.44679

>  <filename>  (1) 
FC(F)(F)c1cccnc1Nc1cn[nH]c1-c1cccnc1

$$$$
