
     RDKit          3D

 30 32  0  0  0  0  0  0  0  0999 V2000
    4.9099    2.2834   16.2706 H   0  0  0  0  0  0  0  0  0  0  0  0
    5.1314    1.7746   17.2095 C   0  0  0  0  0  0  0  0  0  0  0  0
    6.2246    0.9995   17.2187 N   0  0  0  0  0  0  0  0  0  0  0  0
    6.5301    0.3858   18.3641 C   0  0  0  0  0  0  0  0  0  0  0  0
    7.4085   -0.2586   18.3415 H   0  0  0  0  0  0  0  0  0  0  0  0
    5.7810    0.5293   19.5389 C   0  0  0  0  0  0  0  0  0  0  0  0
    6.2954   -0.1315   20.7332 C   0  0  0  0  0  0  0  0  0  0  0  0
    7.3413   -0.9862   20.6230 N   0  0  0  0  0  0  0  0  0  0  0  0
    7.5436   -1.3908   21.8572 C   0  0  0  0  0  0  0  0  0  0  0  0
    8.7275   -2.1790   22.2872 C   0  0  0  0  0  0  0  0  0  0  0  0
    9.9529   -1.8016   21.7106 C   0  0  0  0  0  0  0  0  0  0  0  0
    9.9389   -1.0928   20.8873 H   0  0  0  0  0  0  0  0  0  0  0  0
   11.1589   -2.2992   22.1933 C   0  0  0  0  0  0  0  0  0  0  0  0
   12.0897   -1.9807   21.7267 H   0  0  0  0  0  0  0  0  0  0  0  0
   11.1382   -3.2437   23.2248 C   0  0  0  0  0  0  0  0  0  0  0  0
   12.0645   -3.6480   23.6164 H   0  0  0  0  0  0  0  0  0  0  0  0
    9.9277   -3.7511   23.6990 C   0  0  0  0  0  0  0  0  0  0  0  0
    9.9344   -4.5718   24.4192 H   0  0  0  0  0  0  0  0  0  0  0  0
    8.7089   -3.2388   23.2257 C   0  0  0  0  0  0  0  0  0  0  0  0
    7.3928   -3.8221   23.7197 C   0  0  0  0  0  0  0  0  0  0  0  0
    6.5249   -4.0455   22.7184 F   0  0  0  0  0  0  0  0  0  0  0  0
    7.5381   -4.9735   24.3922 F   0  0  0  0  0  0  0  0  0  0  0  0
    6.7770   -2.9545   24.5653 F   0  0  0  0  0  0  0  0  0  0  0  0
    6.6577   -0.7993   22.6730 N   0  0  0  0  0  0  0  0  0  0  0  0
    6.4608   -1.0402   23.6383 H   0  0  0  0  0  0  0  0  0  0  0  0
    5.8490    0.0293   21.9615 N   0  0  0  0  0  0  0  0  0  0  0  0
    4.6062    1.2897   19.5105 C   0  0  0  0  0  0  0  0  0  0  0  0
    3.9783    1.3718   20.4000 H   0  0  0  0  0  0  0  0  0  0  0  0
    4.2861    1.9278   18.3151 C   0  0  0  0  0  0  0  0  0  0  0  0
    3.3997    2.5431   18.2321 H   0  0  0  0  0  0  0  0  0  0  0  0
  1  2  1  0
  2  3  2  0
  3  4  1  0
  4  5  1  0
  4  6  2  0
  6  7  1  0
  7  8  1  0
  8  9  2  0
  9 10  1  0
 10 11  2  0
 11 12  1  0
 11 13  1  0
 13 14  1  0
 13 15  2  0
 15 16  1  0
 15 17  1  0
 17 18  1  0
 17 19  2  0
 19 20  1  0
 20 21  1  0
 20 22  1  0
 20 23  1  0
  9 24  1  0
 24 25  1  0
 24 26  1  0
  6 27  1  0
 27 28  1  0
 27 29  2  0
 29 30  1  0
 29  2  1  0
 26  7  2  0
 19 10  1  0
M  END
>  <cnnaffinity>  (1) 
-5.32576

>  <filename>  (1) 
FC(F)(F)c1ccccc1-c1nc(-c2cccnc2)n[nH]1

$$$$
