
     RDKit          3D

 29 31  0  0  0  0  0  0  0  0999 V2000
    4.9563    1.7978   17.0018 H   0  0  0  0  0  0  0  0  0  0  0  0
    5.4242    1.2826   17.8383 C   0  0  0  0  0  0  0  0  0  0  0  0
    6.5838    0.6572   17.5804 N   0  0  0  0  0  0  0  0  0  0  0  0
    7.1947    0.0356   18.5934 C   0  0  0  0  0  0  0  0  0  0  0  0
    8.1440   -0.4470   18.3581 H   0  0  0  0  0  0  0  0  0  0  0  0
    6.6702   -0.0050   19.8918 C   0  0  0  0  0  0  0  0  0  0  0  0
    7.3891   -0.7163   20.9453 C   0  0  0  0  0  0  0  0  0  0  0  0
    6.8914   -0.7879   22.2074 N   0  0  0  0  0  0  0  0  0  0  0  0
    7.8068   -1.4654   22.8780 C   0  0  0  0  0  0  0  0  0  0  0  0
    7.8432   -1.8716   24.3335 C   0  0  0  0  0  0  0  0  0  0  0  0
    8.6385   -2.9339   24.5599 N   0  0  0  0  0  0  0  0  0  0  0  0
    8.6512   -3.5024   25.7622 C   0  0  0  0  0  0  0  0  0  0  0  0
    9.2810   -4.3789   25.8653 H   0  0  0  0  0  0  0  0  0  0  0  0
    7.8984   -3.0330   26.8386 C   0  0  0  0  0  0  0  0  0  0  0  0
    7.9366   -3.5513   27.7873 H   0  0  0  0  0  0  0  0  0  0  0  0
    7.1369   -1.8862   26.6532 C   0  0  0  0  0  0  0  0  0  0  0  0
    6.5596   -1.4689   27.4765 H   0  0  0  0  0  0  0  0  0  0  0  0
    7.1621   -1.2423   25.4069 C   0  0  0  0  0  0  0  0  0  0  0  0
    6.5396    0.1306   25.2862 C   0  0  0  0  0  0  0  0  0  0  0  0
    5.3313    0.0928   24.7046 F   0  0  0  0  0  0  0  0  0  0  0  0
    7.3078    0.9616   24.5612 F   0  0  0  0  0  0  0  0  0  0  0  0
    6.3545    0.7108   26.4919 F   0  0  0  0  0  0  0  0  0  0  0  0
    8.7965   -1.8019   22.0229 N   0  0  0  0  0  0  0  0  0  0  0  0
    9.5935   -2.3941   22.2163 H   0  0  0  0  0  0  0  0  0  0  0  0
    8.5504   -1.3276   20.7887 N   0  0  0  0  0  0  0  0  0  0  0  0
    5.4556    0.6485   20.1524 C   0  0  0  0  0  0  0  0  0  0  0  0
    5.0460    0.6351   21.1653 H   0  0  0  0  0  0  0  0  0  0  0  0
    4.8185    1.3007   19.1008 C   0  0  0  0  0  0  0  0  0  0  0  0
    3.8818    1.8299   19.2455 H   0  0  0  0  0  0  0  0  0  0  0  0
  1  2  1  0
  2  3  2  0
  3  4  1  0
  4  5  1  0
  4  6  2  0
  6  7  1  0
  7  8  1  0
  8  9  2  0
  9 10  1  0
 10 11  2  0
 11 12  1  0
 12 13  1  0
 12 14  2  0
 14 15  1  0
 14 16  1  0
 16 17  1  0
 16 18  2  0
 18 19  1  0
 19 20  1  0
 19 21  1  0
 19 22  1  0
  9 23  1  0
 23 24  1  0
 23 25  1  0
  6 26  1  0
 26 27  1  0
 26 28  2  0
 28 29  1  0
 28  2  1  0
 25  7  2  0
 18 10  1  0
M  END
>  <cnnaffinity>  (1) 
-5.18466

>  <filename>  (1) 
FC(F)(F)c1cccnc1-c1nc(-c2cccnc2)n[nH]1

$$$$
