
     RDKit          3D

 33 34  0  0  0  0  0  0  0  0999 V2000
    4.9065    1.7747   17.0029 H   0  0  0  0  0  0  0  0  0  0  0  0
    5.4017    1.2927   17.8414 C   0  0  0  0  0  0  0  0  0  0  0  0
    6.5675    0.6854   17.5770 N   0  0  0  0  0  0  0  0  0  0  0  0
    7.1738    0.0643   18.5941 C   0  0  0  0  0  0  0  0  0  0  0  0
    8.1228   -0.4302   18.3762 H   0  0  0  0  0  0  0  0  0  0  0  0
    6.6499   -0.0049   19.8934 C   0  0  0  0  0  0  0  0  0  0  0  0
    7.4063   -0.6770   20.9979 C   0  0  0  0  0  0  0  0  0  0  0  0
    6.6848   -1.1022   21.7101 H   0  0  0  0  0  0  0  0  0  0  0  0
    7.9832   -1.5154   20.5818 H   0  0  0  0  0  0  0  0  0  0  0  0
    8.3483    0.3031   21.7020 C   0  0  0  0  0  0  0  0  0  0  0  0
    7.7581    1.1277   22.1284 H   0  0  0  0  0  0  0  0  0  0  0  0
    9.0199    0.7542   20.9594 H   0  0  0  0  0  0  0  0  0  0  0  0
    9.1785   -0.3621   22.8009 C   0  0  0  0  0  0  0  0  0  0  0  0
    9.7308   -1.2090   22.3686 H   0  0  0  0  0  0  0  0  0  0  0  0
    9.9285    0.3489   23.1661 H   0  0  0  0  0  0  0  0  0  0  0  0
    8.3261   -0.8349   23.9522 C   0  0  0  0  0  0  0  0  0  0  0  0
    7.8542    0.0865   24.9005 C   0  0  0  0  0  0  0  0  0  0  0  0
    8.1248    1.1359   24.8125 H   0  0  0  0  0  0  0  0  0  0  0  0
    7.0452   -0.3217   25.9563 C   0  0  0  0  0  0  0  0  0  0  0  0
    6.6911    0.4133   26.6755 H   0  0  0  0  0  0  0  0  0  0  0  0
    6.6916   -1.6737   26.0783 C   0  0  0  0  0  0  0  0  0  0  0  0
    5.7777   -2.1148   27.1891 C   0  0  0  0  0  0  0  0  0  0  0  0
    4.4850   -2.0231   26.8208 F   0  0  0  0  0  0  0  0  0  0  0  0
    5.9155   -1.3678   28.3001 F   0  0  0  0  0  0  0  0  0  0  0  0
    5.9853   -3.3945   27.5521 F   0  0  0  0  0  0  0  0  0  0  0  0
    7.1209   -2.5988   25.1163 C   0  0  0  0  0  0  0  0  0  0  0  0
    6.8275   -3.6433   25.1773 H   0  0  0  0  0  0  0  0  0  0  0  0
    7.9319   -2.1762   24.0664 C   0  0  0  0  0  0  0  0  0  0  0  0
    8.2594   -2.8976   23.3227 H   0  0  0  0  0  0  0  0  0  0  0  0
    5.4415    0.6510   20.1532 C   0  0  0  0  0  0  0  0  0  0  0  0
    5.0094    0.6297   21.1556 H   0  0  0  0  0  0  0  0  0  0  0  0
    4.8028    1.3142   19.1067 C   0  0  0  0  0  0  0  0  0  0  0  0
    3.8682    1.8478   19.2653 H   0  0  0  0  0  0  0  0  0  0  0  0
  1  2  1  0
  2  3  2  0
  3  4  1  0
  4  5  1  0
  4  6  2  0
  6  7  1  0
  7  8  1  0
  7  9  1  0
  7 10  1  0
 10 11  1  0
 10 12  1  0
 10 13  1  0
 13 14  1  0
 13 15  1  0
 13 16  1  0
 16 17  2  0
 17 18  1  0
 17 19  1  0
 19 20  1  0
 19 21  2  0
 21 22  1  0
 22 23  1  0
 22 24  1  0
 22 25  1  0
 21 26  1  0
 26 27  1  0
 26 28  2  0
 28 29  1  0
  6 30  1  0
 30 31  1  0
 30 32  2  0
 32 33  1  0
 32  2  1  0
 28 16  1  0
M  END
>  <cnnaffinity>  (1) 
-4.65515

>  <filename>  (1) 
FC(F)(F)c1ccc(CCCc2cccnc2)cc1

$$$$
