
     RDKit          3D

 34 36  0  0  0  0  0  0  0  0999 V2000
    4.9126    1.7991   16.9792 H   0  0  0  0  0  0  0  0  0  0  0  0
    5.3883    1.3046   17.8224 C   0  0  0  0  0  0  0  0  0  0  0  0
    6.5527    0.6894   17.5549 N   0  0  0  0  0  0  0  0  0  0  0  0
    7.1589    0.0643   18.5700 C   0  0  0  0  0  0  0  0  0  0  0  0
    8.1161   -0.4005   18.3334 H   0  0  0  0  0  0  0  0  0  0  0  0
    6.6514    0.0126   19.8851 C   0  0  0  0  0  0  0  0  0  0  0  0
    7.3685   -0.6573   20.9733 C   0  0  0  0  0  0  0  0  0  0  0  0
    7.5101   -0.3254   22.3178 C   0  0  0  0  0  0  0  0  0  0  0  0
    7.0157    0.8216   22.9427 N   0  0  0  0  0  0  0  0  0  0  0  0
    6.9819    1.6482   22.3688 H   0  0  0  0  0  0  0  0  0  0  0  0
    6.8162    1.0119   24.3085 C   0  0  0  0  0  0  0  0  0  0  0  0
    7.0456    2.2698   24.8794 C   0  0  0  0  0  0  0  0  0  0  0  0
    7.4041    3.0906   24.2640 H   0  0  0  0  0  0  0  0  0  0  0  0
    6.8377    2.4414   26.2523 C   0  0  0  0  0  0  0  0  0  0  0  0
    7.0205    3.4106   26.7043 H   0  0  0  0  0  0  0  0  0  0  0  0
    6.3902    1.3811   27.0455 C   0  0  0  0  0  0  0  0  0  0  0  0
    6.2167    1.4909   28.1115 H   0  0  0  0  0  0  0  0  0  0  0  0
    6.1530    0.1439   26.4449 C   0  0  0  0  0  0  0  0  0  0  0  0
    5.7062   -0.8532   27.3040 O   0  0  0  0  0  0  0  0  0  0  0  0
    5.4379   -2.1086   26.8907 C   0  0  0  0  0  0  0  0  0  0  0  0
    5.0477   -2.7806   27.9676 F   0  0  0  0  0  0  0  0  0  0  0  0
    4.4590   -2.1680   25.9698 F   0  0  0  0  0  0  0  0  0  0  0  0
    6.5020   -2.7366   26.3565 F   0  0  0  0  0  0  0  0  0  0  0  0
    6.3513   -0.0552   25.0857 C   0  0  0  0  0  0  0  0  0  0  0  0
    6.1578   -1.0010   24.5947 H   0  0  0  0  0  0  0  0  0  0  0  0
    8.2851   -1.3798   22.8643 C   0  0  0  0  0  0  0  0  0  0  0  0
    8.6149   -1.4670   23.8902 H   0  0  0  0  0  0  0  0  0  0  0  0
    8.6025   -2.2914   21.9528 N   0  0  0  0  0  0  0  0  0  0  0  0
    8.0476   -1.8245   20.8252 N   0  0  0  0  0  0  0  0  0  0  0  0
    8.1283   -2.3630   19.9760 H   0  0  0  0  0  0  0  0  0  0  0  0
    5.4326    0.6620   20.1410 C   0  0  0  0  0  0  0  0  0  0  0  0
    5.0168    0.6271   21.1511 H   0  0  0  0  0  0  0  0  0  0  0  0
    4.7938    1.3190   19.0896 C   0  0  0  0  0  0  0  0  0  0  0  0
    3.8640    1.8494   19.2437 H   0  0  0  0  0  0  0  0  0  0  0  0
  1  2  1  0
  2  3  2  0
  3  4  1  0
  4  5  1  0
  4  6  2  0
  6  7  1  0
  7  8  2  0
  8  9  1  0
  9 10  1  0
  9 11  1  0
 11 12  2  0
 12 13  1  0
 12 14  1  0
 14 15  1  0
 14 16  2  0
 16 17  1  0
 16 18  1  0
 18 19  1  0
 19 20  1  0
 20 21  1  0
 20 22  1  0
 20 23  1  0
 18 24  2  0
 24 25  1  0
  8 26  1  0
 26 27  1  0
 26 28  2  0
 28 29  1  0
 29 30  1  0
  6 31  1  0
 31 32  1  0
 31 33  2  0
 33 34  1  0
 33  2  1  0
 29  7  1  0
 24 11  1  0
M  END
>  <cnnaffinity>  (1) 
-5.61903

>  <filename>  (1) 
FC(F)(F)Oc1cccc(Nc2cn[nH]c2-c2cccnc2)c1

$$$$
