
     RDKit          3D

 28 30  0  0  0  0  0  0  0  0999 V2000
    7.0210    4.0824   21.8350 H   0  0  0  0  0  0  0  0  0  0  0  0
    7.1327    3.2355   22.5120 C   0  0  0  0  0  0  0  0  0  0  0  0
    7.3249    2.0430   21.9480 N   0  0  0  0  0  0  0  0  0  0  0  0
    7.4245    1.0268   22.7888 C   0  0  0  0  0  0  0  0  0  0  0  0
    7.5976   -0.2219   22.2396 N   0  0  0  0  0  0  0  0  0  0  0  0
    8.1900   -1.2850   22.8672 C   0  0  0  0  0  0  0  0  0  0  0  0
    8.4884   -1.2842   23.9092 H   0  0  0  0  0  0  0  0  0  0  0  0
    8.3412   -2.2679   22.0305 N   0  0  0  0  0  0  0  0  0  0  0  0
    7.8384   -1.8622   20.8181 N   0  0  0  0  0  0  0  0  0  0  0  0
    7.3753   -0.6529   20.9503 C   0  0  0  0  0  0  0  0  0  0  0  0
    6.6313    0.0612   19.9111 C   0  0  0  0  0  0  0  0  0  0  0  0
    7.1539    0.0738   18.6124 C   0  0  0  0  0  0  0  0  0  0  0  0
    8.0955   -0.4333   18.3968 H   0  0  0  0  0  0  0  0  0  0  0  0
    6.5584    0.6813   17.5838 N   0  0  0  0  0  0  0  0  0  0  0  0
    5.3889    1.3007   17.8150 C   0  0  0  0  0  0  0  0  0  0  0  0
    4.9386    1.8058   16.9624 H   0  0  0  0  0  0  0  0  0  0  0  0
    4.7643    1.3121   19.0659 C   0  0  0  0  0  0  0  0  0  0  0  0
    3.8368    1.8537   19.2116 H   0  0  0  0  0  0  0  0  0  0  0  0
    5.3839    0.6631   20.1297 C   0  0  0  0  0  0  0  0  0  0  0  0
    4.9244    0.6494   21.1176 H   0  0  0  0  0  0  0  0  0  0  0  0
    7.4117    1.0662   24.1177 N   0  0  0  0  0  0  0  0  0  0  0  0
    7.2177    2.2632   24.6834 C   0  0  0  0  0  0  0  0  0  0  0  0
    7.1794    2.4002   26.2363 C   0  0  0  0  0  0  0  0  0  0  0  0
    8.1659    3.2196   26.6596 F   0  0  0  0  0  0  0  0  0  0  0  0
    6.0199    2.9650   26.6370 F   0  0  0  0  0  0  0  0  0  0  0  0
    7.3074    1.2471   26.8932 F   0  0  0  0  0  0  0  0  0  0  0  0
    7.0691    3.4066   23.8905 C   0  0  0  0  0  0  0  0  0  0  0  0
    6.9301    4.3829   24.3161 H   0  0  0  0  0  0  0  0  0  0  0  0
  1  2  1  0
  2  3  2  0
  3  4  1  0
  4  5  1  0
  5  6  1  0
  6  7  1  0
  6  8  2  0
  8  9  1  0
  9 10  2  0
 10 11  1  0
 11 12  2  0
 12 13  1  0
 12 14  1  0
 14 15  2  0
 15 16  1  0
 15 17  1  0
 17 18  1  0
 17 19  2  0
 19 20  1  0
  4 21  2  0
 21 22  1  0
 22 23  1  0
 23 24  1  0
 23 25  1  0
 23 26  1  0
 22 27  2  0
 27 28  1  0
 27  2  1  0
 10  5  1  0
 19 11  1  0
M  END
>  <cnnaffinity>  (1) 
-5.20748

>  <filename>  (1) 
FC(F)(F)c1ccnc(-n2cnnc2-c2cccnc2)n1

$$$$
