
     RDKit          3D

 33 35  0  0  0  0  0  0  0  0999 V2000
    5.6373    4.2763   21.5315 H   0  0  0  0  0  0  0  0  0  0  0  0
    6.0871    3.6042   22.2629 C   0  0  0  0  0  0  0  0  0  0  0  0
    7.1414    2.9117   21.8294 N   0  0  0  0  0  0  0  0  0  0  0  0
    7.6736    1.9842   22.6343 C   0  0  0  0  0  0  0  0  0  0  0  0
    8.7518    1.1782   22.0382 C   0  0  0  0  0  0  0  0  0  0  0  0
   10.0730    1.5075   22.0054 C   0  0  0  0  0  0  0  0  0  0  0  0
   10.5626    2.3479   22.4880 H   0  0  0  0  0  0  0  0  0  0  0  0
   10.7921    0.5638   21.3262 N   0  0  0  0  0  0  0  0  0  0  0  0
    9.9150   -0.3241   20.9343 C   0  0  0  0  0  0  0  0  0  0  0  0
   10.1258   -1.2186   20.3642 H   0  0  0  0  0  0  0  0  0  0  0  0
    8.6460   -0.0081   21.3215 N   0  0  0  0  0  0  0  0  0  0  0  0
    7.4098   -0.7169   20.9866 C   0  0  0  0  0  0  0  0  0  0  0  0
    6.8152   -0.7893   21.9034 H   0  0  0  0  0  0  0  0  0  0  0  0
    7.6861   -1.7391   20.7003 H   0  0  0  0  0  0  0  0  0  0  0  0
    6.6243   -0.0337   19.8841 C   0  0  0  0  0  0  0  0  0  0  0  0
    7.1481    0.0504   18.5827 C   0  0  0  0  0  0  0  0  0  0  0  0
    8.1084   -0.4109   18.3491 H   0  0  0  0  0  0  0  0  0  0  0  0
    6.5497    0.6825   17.5675 N   0  0  0  0  0  0  0  0  0  0  0  0
    5.3850    1.2967   17.8232 C   0  0  0  0  0  0  0  0  0  0  0  0
    4.9263    1.8124   16.9810 H   0  0  0  0  0  0  0  0  0  0  0  0
    4.7780    1.2970   19.0816 C   0  0  0  0  0  0  0  0  0  0  0  0
    3.8613    1.8555   19.2341 H   0  0  0  0  0  0  0  0  0  0  0  0
    5.4072    0.6133   20.1263 C   0  0  0  0  0  0  0  0  0  0  0  0
    4.9999    0.6384   21.1394 H   0  0  0  0  0  0  0  0  0  0  0  0
    7.2253    1.8178   23.9576 C   0  0  0  0  0  0  0  0  0  0  0  0
    7.9403    0.8245   24.8099 C   0  0  0  0  0  0  0  0  0  0  0  0
    7.3939    0.7204   26.0318 F   0  0  0  0  0  0  0  0  0  0  0  0
    9.2354    1.1598   24.9704 F   0  0  0  0  0  0  0  0  0  0  0  0
    7.9232   -0.4054   24.2555 F   0  0  0  0  0  0  0  0  0  0  0  0
    6.1559    2.5804   24.4328 C   0  0  0  0  0  0  0  0  0  0  0  0
    5.8104    2.4684   25.4621 H   0  0  0  0  0  0  0  0  0  0  0  0
    5.5666    3.4847   23.5557 C   0  0  0  0  0  0  0  0  0  0  0  0
    4.7362    4.1150   23.8554 H   0  0  0  0  0  0  0  0  0  0  0  0
  1  2  1  0
  2  3  2  0
  3  4  1  0
  4  5  1  0
  5  6  2  0
  6  7  1  0
  6  8  1  0
  8  9  2  0
  9 10  1  0
  9 11  1  0
 11 12  1  0
 12 13  1  0
 12 14  1  0
 12 15  1  0
 15 16  2  0
 16 17  1  0
 16 18  1  0
 18 19  2  0
 19 20  1  0
 19 21  1  0
 21 22  1  0
 21 23  2  0
 23 24  1  0
  4 25  2  0
 25 26  1  0
 26 27  1  0
 26 28  1  0
 26 29  1  0
 25 30  1  0
 30 31  1  0
 30 32  2  0
 32 33  1  0
 32  2  1  0
 11  5  1  0
 23 15  1  0
M  END
>  <cnnaffinity>  (1) 
-5.42213

>  <filename>  (1) 
FC(F)(F)c1cccnc1-c1cncn1Cc1cccnc1

$$$$
