
     RDKit          3D

 37 39  0  0  0  0  0  0  0  0999 V2000
    9.7210   -3.2704   24.5735 F   0  0  0  0  0  0  0  0  0  0  0  0
    8.4627   -3.1976   24.0834 C   0  0  0  0  0  0  0  0  0  0  0  0
    7.9001   -4.4033   24.3039 F   0  0  0  0  0  0  0  0  0  0  0  0
    8.5642   -3.0767   22.7534 F   0  0  0  0  0  0  0  0  0  0  0  0
    7.6772   -2.1013   24.7444 C   0  0  0  0  0  0  0  0  0  0  0  0
    6.8593   -2.2981   25.8518 C   0  0  0  0  0  0  0  0  0  0  0  0
    6.1452   -1.1981   26.3545 C   0  0  0  0  0  0  0  0  0  0  0  0
    6.2144    0.0034   25.7891 N   0  0  0  0  0  0  0  0  0  0  0  0
    6.9947    0.1974   24.7147 N   0  0  0  0  0  0  0  0  0  0  0  0
    7.7547   -0.7839   24.2155 C   0  0  0  0  0  0  0  0  0  0  0  0
    8.5879   -0.4906   23.1470 N   0  0  0  0  0  0  0  0  0  0  0  0
   10.0344   -0.3789   23.3056 C   0  0  0  0  0  0  0  0  0  0  0  0
   10.4980    0.2380   21.9759 C   0  0  0  0  0  0  0  0  0  0  0  0
    9.2685    0.9752   21.4224 C   0  0  0  0  0  0  0  0  0  0  0  0
    8.0480    0.2502   22.0109 C   0  0  0  0  0  0  0  0  0  0  0  0
    7.3730   -0.7248   21.0159 C   0  0  0  0  0  0  0  0  0  0  0  0
    6.6430   -0.0312   19.8756 C   0  0  0  0  0  0  0  0  0  0  0  0
    5.4336    0.6433   20.1215 C   0  0  0  0  0  0  0  0  0  0  0  0
    4.7914    1.3120   19.0764 C   0  0  0  0  0  0  0  0  0  0  0  0
    5.3890    1.3039   17.8120 C   0  0  0  0  0  0  0  0  0  0  0  0
    6.5433    0.6776   17.5482 N   0  0  0  0  0  0  0  0  0  0  0  0
    7.1474    0.0415   18.5601 C   0  0  0  0  0  0  0  0  0  0  0  0
    8.0987   -0.4310   18.3069 H   0  0  0  0  0  0  0  0  0  0  0  0
    4.9234    1.8263   16.9777 H   0  0  0  0  0  0  0  0  0  0  0  0
    3.8613    1.8574   19.2279 H   0  0  0  0  0  0  0  0  0  0  0  0
    5.0172    0.6520   21.1296 H   0  0  0  0  0  0  0  0  0  0  0  0
    6.6724   -1.3377   21.5958 H   0  0  0  0  0  0  0  0  0  0  0  0
    8.1448   -1.4085   20.6363 H   0  0  0  0  0  0  0  0  0  0  0  0
    7.2858    0.9676   22.3612 H   0  0  0  0  0  0  0  0  0  0  0  0
    9.2368    0.9538   20.3252 H   0  0  0  0  0  0  0  0  0  0  0  0
    9.2552    2.0275   21.7294 H   0  0  0  0  0  0  0  0  0  0  0  0
   11.3512    0.9122   22.1169 H   0  0  0  0  0  0  0  0  0  0  0  0
   10.8095   -0.5535   21.2841 H   0  0  0  0  0  0  0  0  0  0  0  0
   10.4806   -1.3604   23.5039 H   0  0  0  0  0  0  0  0  0  0  0  0
   10.3010    0.2705   24.1567 H   0  0  0  0  0  0  0  0  0  0  0  0
    5.4997   -1.2756   27.2213 H   0  0  0  0  0  0  0  0  0  0  0  0
    6.7517   -3.2768   26.3121 H   0  0  0  0  0  0  0  0  0  0  0  0
  1  2  1  0
  2  3  1  0
  2  4  1  0
  2  5  1  0
  5  6  2  0
  6  7  1  0
  7  8  2  0
  8  9  1  0
  9 10  2  0
 10 11  1  0
 11 12  1  0
 12 13  1  0
 13 14  1  0
 14 15  1  0
 15 16  1  0
 16 17  1  0
 17 18  2  0
 18 19  1  0
 19 20  2  0
 20 21  1  0
 21 22  2  0
 22 23  1  0
 20 24  1  0
 19 25  1  0
 18 26  1  0
 16 27  1  0
 16 28  1  0
 15 29  1  0
 14 30  1  0
 14 31  1  0
 13 32  1  0
 13 33  1  0
 12 34  1  0
 12 35  1  0
  7 36  1  0
  6 37  1  0
 10  5  1  0
 15 11  1  0
 22 17  1  0
M  END
>  <cnnaffinity>  (1) 
-5.3366

>  <filename>  (1) 
FC(F)(F)c1ccnnc1N1CCCC1Cc1cccnc1

$$$$
