
     RDKit          3D

 35 37  0  0  0  0  0  0  0  0999 V2000
    9.5566    0.8084   20.3761 H   0  0  0  0  0  0  0  0  0  0  0  0
    9.7945   -0.0216   21.0382 C   0  0  0  0  0  0  0  0  0  0  0  0
    8.7976   -0.8585   21.4186 C   0  0  0  0  0  0  0  0  0  0  0  0
    7.3510   -0.8180   21.0489 C   0  0  0  0  0  0  0  0  0  0  0  0
    6.7254   -0.0166   19.9680 C   0  0  0  0  0  0  0  0  0  0  0  0
    7.3119    0.0268   18.7011 C   0  0  0  0  0  0  0  0  0  0  0  0
    8.2594   -0.4816   18.5198 H   0  0  0  0  0  0  0  0  0  0  0  0
    6.7653    0.6476   17.6469 N   0  0  0  0  0  0  0  0  0  0  0  0
    5.5962    1.2757   17.8361 C   0  0  0  0  0  0  0  0  0  0  0  0
    5.1747    1.7785   16.9669 H   0  0  0  0  0  0  0  0  0  0  0  0
    4.9202    1.2955   19.0632 C   0  0  0  0  0  0  0  0  0  0  0  0
    3.9738    1.8219   19.1474 H   0  0  0  0  0  0  0  0  0  0  0  0
    5.4853    0.6221   20.1449 C   0  0  0  0  0  0  0  0  0  0  0  0
    4.9788    0.5745   21.1111 H   0  0  0  0  0  0  0  0  0  0  0  0
    6.6132   -1.5873   21.7636 N   0  0  0  0  0  0  0  0  0  0  0  0
    7.4169   -2.2402   22.7912 C   0  0  0  0  0  0  0  0  0  0  0  0
    7.1783   -3.3073   22.8101 H   0  0  0  0  0  0  0  0  0  0  0  0
    7.1088   -1.8330   23.7612 H   0  0  0  0  0  0  0  0  0  0  0  0
    8.9068   -1.9393   22.4784 C   0  0  0  0  0  0  0  0  0  0  0  0
    9.3995   -2.8282   22.0658 H   0  0  0  0  0  0  0  0  0  0  0  0
    9.4751   -1.6148   23.3582 H   0  0  0  0  0  0  0  0  0  0  0  0
   11.2061   -0.0876   21.5182 C   0  0  0  0  0  0  0  0  0  0  0  0
   11.9489   -1.2835   21.4828 C   0  0  0  0  0  0  0  0  0  0  0  0
   11.4791   -2.1571   21.0474 H   0  0  0  0  0  0  0  0  0  0  0  0
   13.2554   -1.3561   21.9784 C   0  0  0  0  0  0  0  0  0  0  0  0
   13.8040   -2.2960   21.9209 H   0  0  0  0  0  0  0  0  0  0  0  0
   13.8541   -0.2248   22.5370 C   0  0  0  0  0  0  0  0  0  0  0  0
   14.8634   -0.2698   22.9337 H   0  0  0  0  0  0  0  0  0  0  0  0
   13.1452    0.9756   22.5921 C   0  0  0  0  0  0  0  0  0  0  0  0
   13.5922    1.8373   23.0865 H   0  0  0  0  0  0  0  0  0  0  0  0
   11.8637    1.0599   22.0342 C   0  0  0  0  0  0  0  0  0  0  0  0
   11.1943    2.4009   21.9154 C   0  0  0  0  0  0  0  0  0  0  0  0
   11.1384    2.7306   20.6083 F   0  0  0  0  0  0  0  0  0  0  0  0
   11.8473    3.3903   22.5510 F   0  0  0  0  0  0  0  0  0  0  0  0
    9.9329    2.3944   22.3912 F   0  0  0  0  0  0  0  0  0  0  0  0
  1  2  1  0
  2  3  2  3
  3  4  1  0
  4  5  1  0
  5  6  2  0
  6  7  1  0
  6  8  1  0
  8  9  2  0
  9 10  1  0
  9 11  1  0
 11 12  1  0
 11 13  2  0
 13 14  1  0
  4 15  2  0
 15 16  1  0
 16 17  1  0
 16 18  1  0
 16 19  1  0
 19 20  1  0
 19 21  1  0
  2 22  1  0
 22 23  2  0
 23 24  1  0
 23 25  1  0
 25 26  1  0
 25 27  2  0
 27 28  1  0
 27 29  1  0
 29 30  1  0
 29 31  2  0
 31 32  1  0
 32 33  1  0
 32 34  1  0
 32 35  1  0
 19  3  1  0
 31 22  1  0
 13  5  1  0
M  END
>  <cnnaffinity>  (1) 
-6.18169

>  <filename>  (1) 
FC(F)(F)c1ccccc1C=C1CCN=C1c1cccnc1

$$$$
