
     RDKit          3D

 32 35  0  0  0  0  0  0  0  0999 V2000
    4.9375    1.7739   17.0005 H   0  0  0  0  0  0  0  0  0  0  0  0
    5.4114    1.2839   17.8470 C   0  0  0  0  0  0  0  0  0  0  0  0
    6.5748    0.6620   17.6000 N   0  0  0  0  0  0  0  0  0  0  0  0
    7.1767    0.0506   18.6252 C   0  0  0  0  0  0  0  0  0  0  0  0
    8.1230   -0.4311   18.3889 H   0  0  0  0  0  0  0  0  0  0  0  0
    6.6411    0.0162   19.9240 C   0  0  0  0  0  0  0  0  0  0  0  0
    7.3604   -0.6893   20.9862 C   0  0  0  0  0  0  0  0  0  0  0  0
    8.5430   -1.3268   20.7668 N   0  0  0  0  0  0  0  0  0  0  0  0
    8.7985   -1.8255   21.9558 C   0  0  0  0  0  0  0  0  0  0  0  0
    9.9884   -2.8246   22.7357 S   0  0  0  0  0  0  0  0  0  0  0  0
    9.0651   -2.7902   24.2053 C   0  0  0  0  0  0  0  0  0  0  0  0
    9.4328   -3.3446   25.0602 H   0  0  0  0  0  0  0  0  0  0  0  0
    7.9361   -2.0497   24.1317 C   0  0  0  0  0  0  0  0  0  0  0  0
    6.9501   -1.8052   25.2229 C   0  0  0  0  0  0  0  0  0  0  0  0
    6.9723   -2.6983   26.2343 N   0  0  0  0  0  0  0  0  0  0  0  0
    6.1050   -2.5622   27.2325 C   0  0  0  0  0  0  0  0  0  0  0  0
    6.1528   -3.3242   28.0075 H   0  0  0  0  0  0  0  0  0  0  0  0
    5.1886   -1.5117   27.3016 C   0  0  0  0  0  0  0  0  0  0  0  0
    4.2949   -1.3845   28.4925 C   0  0  0  0  0  0  0  0  0  0  0  0
    4.8641   -0.6514   29.4680 F   0  0  0  0  0  0  0  0  0  0  0  0
    3.9798   -2.5755   29.0358 F   0  0  0  0  0  0  0  0  0  0  0  0
    3.1394   -0.7719   28.1715 F   0  0  0  0  0  0  0  0  0  0  0  0
    5.1877   -0.5438   26.2881 C   0  0  0  0  0  0  0  0  0  0  0  0
    4.4958    0.3012   26.3183 H   0  0  0  0  0  0  0  0  0  0  0  0
    6.0809   -0.6959   25.2384 C   0  0  0  0  0  0  0  0  0  0  0  0
    6.1171    0.0017   24.4187 H   0  0  0  0  0  0  0  0  0  0  0  0
    7.8310   -1.5004   22.8480 N   0  0  0  0  0  0  0  0  0  0  0  0
    6.8872   -0.7602   22.2295 N   0  0  0  0  0  0  0  0  0  0  0  0
    5.4198    0.6599   20.1741 C   0  0  0  0  0  0  0  0  0  0  0  0
    4.9918    0.6392   21.1800 H   0  0  0  0  0  0  0  0  0  0  0  0
    4.8042    1.3093   19.1079 C   0  0  0  0  0  0  0  0  0  0  0  0
    3.8735    1.8433   19.2516 H   0  0  0  0  0  0  0  0  0  0  0  0
  1  2  1  0
  2  3  2  0
  3  4  1  0
  4  5  1  0
  4  6  2  0
  6  7  1  0
  7  8  1  0
  8  9  2  0
  9 10  1  0
 10 11  1  0
 11 12  1  0
 11 13  2  0
 13 14  1  0
 14 15  2  0
 15 16  1  0
 16 17  1  0
 16 18  2  0
 18 19  1  0
 19 20  1  0
 19 21  1  0
 19 22  1  0
 18 23  1  0
 23 24  1  0
 23 25  2  0
 25 26  1  0
 13 27  1  0
 27 28  1  0
  6 29  1  0
 29 30  1  0
 29 31  2  0
 31 32  1  0
 31  2  1  0
 28  7  2  0
 27  9  1  0
 25 14  1  0
M  END
>  <cnnaffinity>  (1) 
-5.66293

>  <filename>  (1) 
FC(F)(F)c1ccc(-c2csc3nc(-c4cccnc4)nn23)nc1

$$$$
