
     RDKit          3D

 35 38  0  0  0  0  0  0  0  0999 V2000
    7.8045    3.7333   24.0737 H   0  0  0  0  0  0  0  0  0  0  0  0
    8.5312    3.0422   23.6546 C   0  0  0  0  0  0  0  0  0  0  0  0
    8.2448    1.7410   23.7853 N   0  0  0  0  0  0  0  0  0  0  0  0
    9.1500    0.8908   23.2898 C   0  0  0  0  0  0  0  0  0  0  0  0
    8.9839   -0.5898   23.4820 C   0  0  2  0  0  0  0  0  0  0  0  0
    9.5006   -0.9119   24.3799 H   0  0  0  0  0  0  0  0  0  0  0  0
    9.0794   -1.5585   22.3134 C   0  0  2  0  0  0  0  0  0  0  0  0
    9.8075   -2.3584   22.4002 H   0  0  0  0  0  0  0  0  0  0  0  0
    8.7624   -1.0462   20.9159 C   0  0  0  0  0  0  0  0  0  0  0  0
    8.9435   -1.8164   20.1596 H   0  0  0  0  0  0  0  0  0  0  0  0
    9.3891   -0.1775   20.6659 H   0  0  0  0  0  0  0  0  0  0  0  0
    7.3484   -0.6793   20.9526 N   0  0  0  0  0  0  0  0  0  0  0  0
    6.7192   -0.0185   19.9110 C   0  0  0  0  0  0  0  0  0  0  0  0
    7.2603    0.0500   18.5922 C   0  0  0  0  0  0  0  0  0  0  0  0
    8.2222   -0.4183   18.3804 H   0  0  0  0  0  0  0  0  0  0  0  0
    6.6667    0.6562   17.5542 N   0  0  0  0  0  0  0  0  0  0  0  0
    5.4917    1.2696   17.7770 C   0  0  0  0  0  0  0  0  0  0  0  0
    5.0397    1.7727   16.9259 H   0  0  0  0  0  0  0  0  0  0  0  0
    4.8664    1.2856   19.0258 C   0  0  0  0  0  0  0  0  0  0  0  0
    3.9301    1.8275   19.1594 H   0  0  0  0  0  0  0  0  0  0  0  0
    5.4753    0.6318   20.0990 C   0  0  0  0  0  0  0  0  0  0  0  0
    5.0128    0.6245   21.0816 H   0  0  0  0  0  0  0  0  0  0  0  0
    6.7160   -0.9108   22.2492 C   0  0  0  0  0  0  0  0  0  0  0  0
    6.3402    0.0243   22.6916 H   0  0  0  0  0  0  0  0  0  0  0  0
    5.8829   -1.6174   22.1429 H   0  0  0  0  0  0  0  0  0  0  0  0
    7.8158   -1.4835   23.1189 C   0  0  2  0  0  0  0  0  0  0  0  0
    7.5459   -2.2589   23.8252 H   0  0  0  0  0  0  0  0  0  0  0  0
   10.3009    1.2426   22.6987 N   0  0  0  0  0  0  0  0  0  0  0  0
   10.6006    2.5453   22.6170 C   0  0  0  0  0  0  0  0  0  0  0  0
   11.9673    2.9484   21.9939 C   0  0  0  0  0  0  0  0  0  0  0  0
   12.9486    2.0954   22.3154 F   0  0  0  0  0  0  0  0  0  0  0  0
   11.9171    3.0113   20.6509 F   0  0  0  0  0  0  0  0  0  0  0  0
   12.3469    4.1731   22.4191 F   0  0  0  0  0  0  0  0  0  0  0  0
    9.6942    3.5098   23.0573 C   0  0  0  0  0  0  0  0  0  0  0  0
    9.8780    4.5669   22.9470 H   0  0  0  0  0  0  0  0  0  0  0  0
  1  2  1  0
  2  3  2  0
  3  4  1  0
  4  5  1  0
  5  6  1  1
  5  7  1  0
  7  8  1  6
  7  9  1  0
  9 10  1  0
  9 11  1  0
  9 12  1  0
 12 13  1  0
 13 14  2  0
 14 15  1  0
 14 16  1  0
 16 17  2  0
 17 18  1  0
 17 19  1  0
 19 20  1  0
 19 21  2  0
 21 22  1  0
 12 23  1  0
 23 24  1  0
 23 25  1  0
 23 26  1  0
 26 27  1  1
  4 28  2  0
 28 29  1  0
 29 30  1  0
 30 31  1  0
 30 32  1  0
 30 33  1  0
 29 34  2  0
 34 35  1  0
 34  2  1  0
 26  5  1  0
 26  7  1  0
 21 13  1  0
M  END
>  <cnnaffinity>  (1) 
-5.69994

>  <filename>  (1) 
FC(F)(F)c1ccnc([C@@H]2[C@@H]3CN(c4cccnc4)C[C@@H]32)n1

$$$$
