
     RDKit          3D

 37 40  0  0  0  0  0  0  0  0999 V2000
    4.9402    1.8007   16.9860 H   0  0  0  0  0  0  0  0  0  0  0  0
    5.3995    1.2943   17.8339 C   0  0  0  0  0  0  0  0  0  0  0  0
    6.5530    0.6584   17.5783 N   0  0  0  0  0  0  0  0  0  0  0  0
    7.1518    0.0294   18.5918 C   0  0  0  0  0  0  0  0  0  0  0  0
    8.0964   -0.4582   18.3616 H   0  0  0  0  0  0  0  0  0  0  0  0
    6.6509    0.0043   19.8993 C   0  0  0  0  0  0  0  0  0  0  0  0
    7.4258   -0.6746   20.9352 C   0  0  0  0  0  0  0  0  0  0  0  0
    7.8401   -1.9786   20.8043 N   0  0  0  0  0  0  0  0  0  0  0  0
    8.4228   -2.2317   21.9473 C   0  0  0  0  0  0  0  0  0  0  0  0
    9.2058   -3.5971   22.6941 S   0  0  0  0  0  0  0  0  0  0  0  0
    9.6731   -2.6031   24.0606 C   0  0  0  0  0  0  0  0  0  0  0  0
   10.3006   -3.0316   24.8336 H   0  0  0  0  0  0  0  0  0  0  0  0
    9.1823   -1.3541   23.9687 C   0  0  0  0  0  0  0  0  0  0  0  0
    9.2526   -0.5332   24.6735 H   0  0  0  0  0  0  0  0  0  0  0  0
    8.4739   -1.1524   22.7903 N   0  0  0  0  0  0  0  0  0  0  0  0
    7.8369   -0.1156   22.1370 C   0  0  0  0  0  0  0  0  0  0  0  0
    7.6816    1.2640   22.6936 C   0  0  0  0  0  0  0  0  0  0  0  0
    7.7314    1.9741   21.8619 H   0  0  0  0  0  0  0  0  0  0  0  0
    8.5363    1.4966   23.3476 H   0  0  0  0  0  0  0  0  0  0  0  0
    6.3764    1.5013   23.4483 C   0  0  0  0  0  0  0  0  0  0  0  0
    6.0172    0.6809   24.5236 C   0  0  0  0  0  0  0  0  0  0  0  0
    6.6695   -0.1454   24.7960 H   0  0  0  0  0  0  0  0  0  0  0  0
    4.8321    0.8962   25.2270 C   0  0  0  0  0  0  0  0  0  0  0  0
    4.5887    0.2393   26.0577 H   0  0  0  0  0  0  0  0  0  0  0  0
    3.9776    1.9490   24.8637 C   0  0  0  0  0  0  0  0  0  0  0  0
    2.6718    2.1621   25.5997 C   0  0  0  0  0  0  0  0  0  0  0  0
    2.7385    1.7738   26.8877 F   0  0  0  0  0  0  0  0  0  0  0  0
    1.6638    1.4647   25.0388 F   0  0  0  0  0  0  0  0  0  0  0  0
    2.2927    3.4548   25.5994 F   0  0  0  0  0  0  0  0  0  0  0  0
    4.3261    2.7744   23.7808 C   0  0  0  0  0  0  0  0  0  0  0  0
    3.6838    3.5976   23.4798 H   0  0  0  0  0  0  0  0  0  0  0  0
    5.5157    2.5471   23.0870 C   0  0  0  0  0  0  0  0  0  0  0  0
    5.7679    3.1656   22.2260 H   0  0  0  0  0  0  0  0  0  0  0  0
    5.4365    0.6655   20.1525 C   0  0  0  0  0  0  0  0  0  0  0  0
    4.9951    0.6600   21.1501 H   0  0  0  0  0  0  0  0  0  0  0  0
    4.7999    1.3187   19.0981 C   0  0  0  0  0  0  0  0  0  0  0  0
    3.8639    1.8516   19.2345 H   0  0  0  0  0  0  0  0  0  0  0  0
  1  2  1  0
  2  3  2  0
  3  4  1  0
  4  5  1  0
  4  6  2  0
  6  7  1  0
  7  8  1  0
  8  9  2  0
  9 10  1  0
 10 11  1  0
 11 12  1  0
 11 13  2  0
 13 14  1  0
 13 15  1  0
 15 16  1  0
 16 17  1  0
 17 18  1  0
 17 19  1  0
 17 20  1  0
 20 21  2  0
 21 22  1  0
 21 23  1  0
 23 24  1  0
 23 25  2  0
 25 26  1  0
 26 27  1  0
 26 28  1  0
 26 29  1  0
 25 30  1  0
 30 31  1  0
 30 32  2  0
 32 33  1  0
  6 34  1  0
 34 35  1  0
 34 36  2  0
 36 37  1  0
 36  2  1  0
 16  7  2  0
 32 20  1  0
 15  9  1  0
M  END
>  <cnnaffinity>  (1) 
-5.66486

>  <filename>  (1) 
FC(F)(F)c1ccc(Cc2c(-c3cccnc3)nc3sccn23)cc1

$$$$
