
     RDKit          3D

 29 31  0  0  0  0  0  0  0  0999 V2000
    9.9238   -2.4829   21.8986 H   0  0  0  0  0  0  0  0  0  0  0  0
    8.9920   -1.9258   21.9369 C   0  0  0  0  0  0  0  0  0  0  0  0
    8.5586   -1.3322   20.7897 N   0  0  0  0  0  0  0  0  0  0  0  0
    7.4161   -0.7244   20.9672 C   0  0  0  0  0  0  0  0  0  0  0  0
    6.6721   -0.0049   19.9224 C   0  0  0  0  0  0  0  0  0  0  0  0
    7.1851    0.0488   18.6101 C   0  0  0  0  0  0  0  0  0  0  0  0
    8.1297   -0.4304   18.3726 H   0  0  0  0  0  0  0  0  0  0  0  0
    6.5735    0.6646   17.5929 N   0  0  0  0  0  0  0  0  0  0  0  0
    5.4112    1.2835   17.8472 C   0  0  0  0  0  0  0  0  0  0  0  0
    4.9340    1.7769   17.0013 H   0  0  0  0  0  0  0  0  0  0  0  0
    4.8174    1.3006   19.1125 C   0  0  0  0  0  0  0  0  0  0  0  0
    3.8870    1.8331   19.2597 H   0  0  0  0  0  0  0  0  0  0  0  0
    5.4461    0.6453   20.1702 C   0  0  0  0  0  0  0  0  0  0  0  0
    4.9889    0.6482   21.1615 H   0  0  0  0  0  0  0  0  0  0  0  0
    6.8153   -0.8385   22.5960 S   0  0  0  0  0  0  0  0  0  0  0  0
    8.2116   -1.7630   23.0497 C   0  0  0  0  0  0  0  0  0  0  0  0
    8.4673   -2.3765   24.3578 C   0  0  0  0  0  0  0  0  0  0  0  0
    8.9350   -3.6313   24.2943 N   0  0  0  0  0  0  0  0  0  0  0  0
    9.0921   -4.3068   25.4336 C   0  0  0  0  0  0  0  0  0  0  0  0
    9.4468   -5.3278   25.3344 H   0  0  0  0  0  0  0  0  0  0  0  0
    8.8367   -3.7756   26.7017 C   0  0  0  0  0  0  0  0  0  0  0  0
    9.0001   -4.3716   27.5924 H   0  0  0  0  0  0  0  0  0  0  0  0
    8.4067   -2.4623   26.7906 C   0  0  0  0  0  0  0  0  0  0  0  0
    8.2090   -1.9882   27.7557 H   0  0  0  0  0  0  0  0  0  0  0  0
    8.2530   -1.7422   25.6006 C   0  0  0  0  0  0  0  0  0  0  0  0
    7.8303   -0.3090   25.6583 C   0  0  0  0  0  0  0  0  0  0  0  0
    8.0608    0.2269   26.8732 F   0  0  0  0  0  0  0  0  0  0  0  0
    8.4784    0.4543   24.7605 F   0  0  0  0  0  0  0  0  0  0  0  0
    6.5114   -0.1763   25.4181 F   0  0  0  0  0  0  0  0  0  0  0  0
  1  2  1  0
  2  3  1  0
  3  4  2  0
  4  5  1  0
  5  6  2  0
  6  7  1  0
  6  8  1  0
  8  9  2  0
  9 10  1  0
  9 11  1  0
 11 12  1  0
 11 13  2  0
 13 14  1  0
  4 15  1  0
 15 16  1  0
 16 17  1  0
 17 18  2  0
 18 19  1  0
 19 20  1  0
 19 21  2  0
 21 22  1  0
 21 23  1  0
 23 24  1  0
 23 25  2  0
 25 26  1  0
 26 27  1  0
 26 28  1  0
 26 29  1  0
 16  2  2  0
 25 17  1  0
 13  5  1  0
M  END
>  <cnnaffinity>  (1) 
-5.509

>  <filename>  (1) 
FC(F)(F)c1cccnc1-c1cnc(-c2cccnc2)s1

$$$$
