
     RDKit          3D

 30 32  0  0  0  0  0  0  0  0999 V2000
    4.9074    1.7733   17.0045 H   0  0  0  0  0  0  0  0  0  0  0  0
    5.3995    1.2918   17.8458 C   0  0  0  0  0  0  0  0  0  0  0  0
    6.5697    0.6799   17.5890 N   0  0  0  0  0  0  0  0  0  0  0  0
    7.1836    0.0526   18.5939 C   0  0  0  0  0  0  0  0  0  0  0  0
    8.1318   -0.4402   18.3822 H   0  0  0  0  0  0  0  0  0  0  0  0
    6.6545    0.0062   19.8932 C   0  0  0  0  0  0  0  0  0  0  0  0
    7.3700   -0.6663   20.9245 N   0  0  0  0  0  0  0  0  0  0  0  0
    7.7550   -1.9566   20.8315 N   0  0  0  0  0  0  0  0  0  0  0  0
    8.4327   -2.2158   21.8824 N   0  0  0  0  0  0  0  0  0  0  0  0
    8.5323   -1.1365   22.6904 N   0  0  0  0  0  0  0  0  0  0  0  0
    7.8790   -0.1800   22.0768 C   0  0  0  0  0  0  0  0  0  0  0  0
    7.7794    1.4931   22.6082 S   0  0  0  0  0  0  0  0  0  0  0  0
    6.5999    1.2457   23.9289 C   0  0  0  0  0  0  0  0  0  0  0  0
    5.2757    1.6641   23.7652 C   0  0  0  0  0  0  0  0  0  0  0  0
    4.9732    2.1773   22.8552 H   0  0  0  0  0  0  0  0  0  0  0  0
    4.3556    1.4517   24.7930 C   0  0  0  0  0  0  0  0  0  0  0  0
    3.3347    1.7932   24.6766 H   0  0  0  0  0  0  0  0  0  0  0  0
    4.7451    0.8200   25.9735 C   0  0  0  0  0  0  0  0  0  0  0  0
    4.0193    0.6774   26.7693 H   0  0  0  0  0  0  0  0  0  0  0  0
    6.0694    0.3888   26.1266 C   0  0  0  0  0  0  0  0  0  0  0  0
    6.5165   -0.2421   27.4184 C   0  0  0  0  0  0  0  0  0  0  0  0
    7.5208   -1.1203   27.2465 F   0  0  0  0  0  0  0  0  0  0  0  0
    6.9570    0.6910   28.2839 F   0  0  0  0  0  0  0  0  0  0  0  0
    5.5226   -0.9056   28.0367 F   0  0  0  0  0  0  0  0  0  0  0  0
    7.0074    0.6196   25.1126 C   0  0  0  0  0  0  0  0  0  0  0  0
    8.0467    0.3122   25.2180 H   0  0  0  0  0  0  0  0  0  0  0  0
    5.4479    0.6496   20.1671 C   0  0  0  0  0  0  0  0  0  0  0  0
    5.0134    0.6229   21.1650 H   0  0  0  0  0  0  0  0  0  0  0  0
    4.8068    1.3107   19.1134 C   0  0  0  0  0  0  0  0  0  0  0  0
    3.8724    1.8443   19.2688 H   0  0  0  0  0  0  0  0  0  0  0  0
  1  2  1  0
  2  3  2  0
  3  4  1  0
  4  5  1  0
  4  6  2  0
  6  7  1  0
  7  8  1  0
  8  9  2  0
  9 10  1  0
 10 11  2  0
 11 12  1  0
 12 13  1  0
 13 14  2  0
 14 15  1  0
 14 16  1  0
 16 17  1  0
 16 18  2  0
 18 19  1  0
 18 20  1  0
 20 21  1  0
 21 22  1  0
 21 23  1  0
 21 24  1  0
 20 25  2  0
 25 26  1  0
  6 27  1  0
 27 28  1  0
 27 29  2  0
 29 30  1  0
 29  2  1  0
 11  7  1  0
 25 13  1  0
M  END
>  <cnnaffinity>  (1) 
-5.23178

>  <filename>  (1) 
FC(F)(F)c1cccc(Sc2nnnn2-c2cccnc2)c1

$$$$
