
     RDKit          3D

 33 35  0  0  0  0  0  0  0  0999 V2000
    4.9299    1.7929   16.9975 H   0  0  0  0  0  0  0  0  0  0  0  0
    5.3979    1.2897   17.8380 C   0  0  0  0  0  0  0  0  0  0  0  0
    6.5543    0.6622   17.5749 N   0  0  0  0  0  0  0  0  0  0  0  0
    7.1731    0.0431   18.5865 C   0  0  0  0  0  0  0  0  0  0  0  0
    8.1260   -0.4328   18.3603 H   0  0  0  0  0  0  0  0  0  0  0  0
    6.6533   -0.0038   19.8978 C   0  0  0  0  0  0  0  0  0  0  0  0
    7.3338   -0.6923   20.9511 N   0  0  0  0  0  0  0  0  0  0  0  0
    6.7403   -1.6094   21.8070 C   0  0  0  0  0  0  0  0  0  0  0  0
    5.6924   -1.8434   21.7060 H   0  0  0  0  0  0  0  0  0  0  0  0
    7.6798   -2.0716   22.6686 C   0  0  0  0  0  0  0  0  0  0  0  0
    7.5558   -3.0187   23.7854 C   0  0  0  0  0  0  0  0  0  0  0  0
    8.6548   -3.7022   24.3505 C   0  0  0  0  0  0  0  0  0  0  0  0
    9.6560   -3.5326   23.9629 H   0  0  0  0  0  0  0  0  0  0  0  0
    8.4729   -4.6119   25.3933 C   0  0  0  0  0  0  0  0  0  0  0  0
    9.3054   -5.1497   25.8460 H   0  0  0  0  0  0  0  0  0  0  0  0
    7.1830   -4.8460   25.8793 C   0  0  0  0  0  0  0  0  0  0  0  0
    7.1198   -5.7690   26.9106 O   0  0  0  0  0  0  0  0  0  0  0  0
    5.9537   -6.1133   27.4908 C   0  0  0  0  0  0  0  0  0  0  0  0
    6.2413   -7.0001   28.4297 F   0  0  0  0  0  0  0  0  0  0  0  0
    5.0796   -6.6603   26.6294 F   0  0  0  0  0  0  0  0  0  0  0  0
    5.3230   -5.0723   28.0604 F   0  0  0  0  0  0  0  0  0  0  0  0
    6.0729   -4.1867   25.3485 C   0  0  0  0  0  0  0  0  0  0  0  0
    5.0775   -4.3764   25.7316 H   0  0  0  0  0  0  0  0  0  0  0  0
    6.2780   -3.2783   24.3104 C   0  0  0  0  0  0  0  0  0  0  0  0
    5.4266   -2.7477   23.9002 H   0  0  0  0  0  0  0  0  0  0  0  0
    8.8521   -1.4209   22.3093 N   0  0  0  0  0  0  0  0  0  0  0  0
    9.7587   -1.4148   22.7499 H   0  0  0  0  0  0  0  0  0  0  0  0
    8.6562   -0.5322   21.3073 C   0  0  0  0  0  0  0  0  0  0  0  0
    9.8067    0.5234   20.7610 S   0  0  0  0  0  0  0  0  0  0  0  0
    5.4427    0.6453   20.1583 C   0  0  0  0  0  0  0  0  0  0  0  0
    5.0345    0.6317   21.1707 H   0  0  0  0  0  0  0  0  0  0  0  0
    4.8077    1.3104   19.1064 C   0  0  0  0  0  0  0  0  0  0  0  0
    3.8771    1.8437   19.2590 H   0  0  0  0  0  0  0  0  0  0  0  0
  1  2  1  0
  2  3  2  0
  3  4  1  0
  4  5  1  0
  4  6  2  0
  6  7  1  0
  7  8  1  0
  8  9  1  0
  8 10  2  0
 10 11  1  0
 11 12  2  0
 12 13  1  0
 12 14  1  0
 14 15  1  0
 14 16  2  0
 16 17  1  0
 17 18  1  0
 18 19  1  0
 18 20  1  0
 18 21  1  0
 16 22  1  0
 22 23  1  0
 22 24  2  0
 24 25  1  0
 10 26  1  0
 26 27  1  0
 26 28  1  0
 28 29  2  0
  6 30  1  0
 30 31  1  0
 30 32  2  0
 32 33  1  0
 32  2  1  0
 28  7  1  0
 24 11  1  0
M  END
>  <cnnaffinity>  (1) 
-5.57334

>  <filename>  (1) 
FC(F)(F)Oc1ccc(-c2cn(-c3cccnc3)c(=S)[nH]2)cc1

$$$$
