
     RDKit          3D

 32 34  0  0  0  0  0  0  0  0999 V2000
    4.9984    1.8361   16.9045 H   0  0  0  0  0  0  0  0  0  0  0  0
    5.4592    1.3190   17.7415 C   0  0  0  0  0  0  0  0  0  0  0  0
    6.6105    0.6785   17.4803 N   0  0  0  0  0  0  0  0  0  0  0  0
    7.2118    0.0566   18.5014 C   0  0  0  0  0  0  0  0  0  0  0  0
    8.1261   -0.4771   18.2477 H   0  0  0  0  0  0  0  0  0  0  0  0
    6.7140    0.0347   19.8176 C   0  0  0  0  0  0  0  0  0  0  0  0
    7.3944   -0.6691   20.9096 C   0  0  0  0  0  0  0  0  0  0  0  0
    6.8791   -1.2540   22.0137 C   0  0  0  0  0  0  0  0  0  0  0  0
    5.8496   -1.4259   22.2704 H   0  0  0  0  0  0  0  0  0  0  0  0
    7.9303   -1.7529   22.7788 N   0  0  0  0  0  0  0  0  0  0  0  0
    7.7504   -2.4359   24.0225 C   0  0  0  0  0  0  0  0  0  0  0  0
    8.3429   -3.6865   24.2181 C   0  0  0  0  0  0  0  0  0  0  0  0
    9.0289   -4.0538   23.4656 H   0  0  0  0  0  0  0  0  0  0  0  0
    8.0417   -4.4309   25.3564 C   0  0  0  0  0  0  0  0  0  0  0  0
    8.4587   -5.4312   25.4615 H   0  0  0  0  0  0  0  0  0  0  0  0
    7.1798   -3.9089   26.3379 C   0  0  0  0  0  0  0  0  0  0  0  0
    6.8967   -4.7645   27.5513 C   0  0  0  0  0  0  0  0  0  0  0  0
    8.0160   -5.0067   28.2643 F   0  0  0  0  0  0  0  0  0  0  0  0
    6.4260   -5.9798   27.1971 F   0  0  0  0  0  0  0  0  0  0  0  0
    5.9935   -4.2161   28.3834 F   0  0  0  0  0  0  0  0  0  0  0  0
    6.6094   -2.6363   26.1566 C   0  0  0  0  0  0  0  0  0  0  0  0
    5.9022   -2.2316   26.8822 H   0  0  0  0  0  0  0  0  0  0  0  0
    6.9028   -1.9017   25.0035 C   0  0  0  0  0  0  0  0  0  0  0  0
    6.4534   -0.9238   24.8480 H   0  0  0  0  0  0  0  0  0  0  0  0
    9.1202   -1.5381   22.1191 C   0  0  0  0  0  0  0  0  0  0  0  0
   10.6854   -1.9744   22.4842 S   0  0  0  0  0  0  0  0  0  0  0  0
    8.7588   -0.8669   20.9953 N   0  0  0  0  0  0  0  0  0  0  0  0
    9.4794   -0.5824   20.3536 H   0  0  0  0  0  0  0  0  0  0  0  0
    5.4936    0.6871   20.0560 C   0  0  0  0  0  0  0  0  0  0  0  0
    5.0732    0.6853   21.0619 H   0  0  0  0  0  0  0  0  0  0  0  0
    4.8576    1.3398   19.0034 C   0  0  0  0  0  0  0  0  0  0  0  0
    3.9206    1.8665   19.1483 H   0  0  0  0  0  0  0  0  0  0  0  0
  1  2  1  0
  2  3  2  0
  3  4  1  0
  4  5  1  0
  4  6  2  0
  6  7  1  0
  7  8  2  0
  8  9  1  0
  8 10  1  0
 10 11  1  0
 11 12  2  0
 12 13  1  0
 12 14  1  0
 14 15  1  0
 14 16  2  0
 16 17  1  0
 17 18  1  0
 17 19  1  0
 17 20  1  0
 16 21  1  0
 21 22  1  0
 21 23  2  0
 23 24  1  0
 10 25  1  0
 25 26  2  0
 25 27  1  0
 27 28  1  0
  6 29  1  0
 29 30  1  0
 29 31  2  0
 31 32  1  0
 31  2  1  0
 27  7  1  0
 23 11  1  0
M  END
>  <cnnaffinity>  (1) 
-5.6567

>  <filename>  (1) 
FC(F)(F)c1ccc(-n2cc(-c3cccnc3)[nH]c2=S)cc1

$$$$
