
     RDKit          3D

 32 35  0  0  0  0  0  0  0  0999 V2000
    4.9472    1.7835   16.9713 H   0  0  0  0  0  0  0  0  0  0  0  0
    5.4040    1.2890   17.8253 C   0  0  0  0  0  0  0  0  0  0  0  0
    6.5639    0.6567   17.5900 N   0  0  0  0  0  0  0  0  0  0  0  0
    7.1580    0.0746   18.6349 C   0  0  0  0  0  0  0  0  0  0  0  0
    8.1041   -0.4154   18.4129 H   0  0  0  0  0  0  0  0  0  0  0  0
    6.6569    0.0879   19.9529 C   0  0  0  0  0  0  0  0  0  0  0  0
    7.4321   -0.6025   21.0045 C   0  0  0  0  0  0  0  0  0  0  0  0
    8.3091   -1.6125   20.8498 C   0  0  0  0  0  0  0  0  0  0  0  0
    8.7479   -1.9655   19.9346 H   0  0  0  0  0  0  0  0  0  0  0  0
    8.8754   -2.2817   22.3515 S   0  0  0  0  0  0  0  0  0  0  0  0
    8.0656   -1.0152   23.2120 C   0  0  0  0  0  0  0  0  0  0  0  0
    8.0788   -0.4917   24.4122 N   0  0  0  0  0  0  0  0  0  0  0  0
    7.2938    0.6260   24.2394 C   0  0  0  0  0  0  0  0  0  0  0  0
    7.0464    1.5877   25.3644 C   0  0  0  0  0  0  0  0  0  0  0  0
    6.2963    2.6871   25.1338 N   0  0  0  0  0  0  0  0  0  0  0  0
    6.0966    3.5307   26.1307 C   0  0  0  0  0  0  0  0  0  0  0  0
    5.5093    4.4119   25.9016 H   0  0  0  0  0  0  0  0  0  0  0  0
    6.6058    3.3416   27.4167 C   0  0  0  0  0  0  0  0  0  0  0  0
    6.2009    4.3435   28.4377 C   0  0  0  0  0  0  0  0  0  0  0  0
    5.0333    4.0139   29.0214 F   0  0  0  0  0  0  0  0  0  0  0  0
    6.0164    5.5651   27.8954 F   0  0  0  0  0  0  0  0  0  0  0  0
    7.1171    4.4746   29.4111 F   0  0  0  0  0  0  0  0  0  0  0  0
    7.3914    2.2094   27.6814 C   0  0  0  0  0  0  0  0  0  0  0  0
    7.8339    2.0201   28.6619 H   0  0  0  0  0  0  0  0  0  0  0  0
    7.6123    1.3273   26.6376 C   0  0  0  0  0  0  0  0  0  0  0  0
    8.2209    0.4400   26.7753 H   0  0  0  0  0  0  0  0  0  0  0  0
    6.8101    0.7902   23.0090 N   0  0  0  0  0  0  0  0  0  0  0  0
    7.3109   -0.2833   22.3615 N   0  0  0  0  0  0  0  0  0  0  0  0
    5.4273    0.7381   20.1763 C   0  0  0  0  0  0  0  0  0  0  0  0
    5.0103    0.7896   21.1869 H   0  0  0  0  0  0  0  0  0  0  0  0
    4.7939    1.3328   19.0857 C   0  0  0  0  0  0  0  0  0  0  0  0
    3.8459    1.8471   19.1977 H   0  0  0  0  0  0  0  0  0  0  0  0
  1  2  1  0
  2  3  2  0
  3  4  1  0
  4  5  1  0
  4  6  2  0
  6  7  1  0
  7  8  2  0
  8  9  1  0
  8 10  1  0
 10 11  1  0
 11 12  2  0
 12 13  1  0
 13 14  1  0
 14 15  2  0
 15 16  1  0
 16 17  1  0
 16 18  2  0
 18 19  1  0
 19 20  1  0
 19 21  1  0
 19 22  1  0
 18 23  1  0
 23 24  1  0
 23 25  2  0
 25 26  1  0
 13 27  2  0
 27 28  1  0
  6 29  1  0
 29 30  1  0
 29 31  2  0
 31 32  1  0
 31  2  1  0
 28  7  1  0
 28 11  1  0
 25 14  1  0
M  END
>  <cnnaffinity>  (1) 
-5.31036

>  <filename>  (1) 
FC(F)(F)c1ccc(-c2nc3scc(-c4cccnc4)n3n2)nc1

$$$$
