
     RDKit          3D

 31 33  0  0  0  0  0  0  0  0999 V2000
    4.9139    1.7975   16.9804 H   0  0  0  0  0  0  0  0  0  0  0  0
    5.3863    1.3001   17.8259 C   0  0  0  0  0  0  0  0  0  0  0  0
    6.5501    0.6807   17.5630 N   0  0  0  0  0  0  0  0  0  0  0  0
    7.1578    0.0653   18.5830 C   0  0  0  0  0  0  0  0  0  0  0  0
    8.1137   -0.3994   18.3364 H   0  0  0  0  0  0  0  0  0  0  0  0
    6.6546    0.0314   19.9045 C   0  0  0  0  0  0  0  0  0  0  0  0
    7.3642   -0.6127   21.0104 C   0  0  0  0  0  0  0  0  0  0  0  0
    7.4739   -0.3315   22.3690 C   0  0  0  0  0  0  0  0  0  0  0  0
    6.8262    0.7539   22.9524 O   0  0  0  0  0  0  0  0  0  0  0  0
    7.1494    1.2639   24.1745 C   0  0  0  0  0  0  0  0  0  0  0  0
    8.2553    0.8815   24.7716 N   0  0  0  0  0  0  0  0  0  0  0  0
    8.5466    1.4187   25.9634 C   0  0  0  0  0  0  0  0  0  0  0  0
    9.4709    1.0754   26.4127 H   0  0  0  0  0  0  0  0  0  0  0  0
    7.7374    2.3399   26.6193 C   0  0  0  0  0  0  0  0  0  0  0  0
    8.0275    2.7144   27.5914 H   0  0  0  0  0  0  0  0  0  0  0  0
    6.5634    2.7487   25.9989 C   0  0  0  0  0  0  0  0  0  0  0  0
    5.8888    3.4679   26.4770 H   0  0  0  0  0  0  0  0  0  0  0  0
    6.2762    2.2181   24.7410 C   0  0  0  0  0  0  0  0  0  0  0  0
    5.0449    2.5938   24.0010 C   0  0  0  0  0  0  0  0  0  0  0  0
    5.2994    3.1212   22.7928 F   0  0  0  0  0  0  0  0  0  0  0  0
    4.2545    1.5262   23.8171 F   0  0  0  0  0  0  0  0  0  0  0  0
    4.3227    3.5050   24.6935 F   0  0  0  0  0  0  0  0  0  0  0  0
    8.2582   -1.3771   22.9160 C   0  0  0  0  0  0  0  0  0  0  0  0
    8.5647   -1.5327   23.9404 H   0  0  0  0  0  0  0  0  0  0  0  0
    8.6278   -2.2316   21.9701 N   0  0  0  0  0  0  0  0  0  0  0  0
    8.1029   -1.7454   20.8453 N   0  0  0  0  0  0  0  0  0  0  0  0
    8.2196   -2.2677   19.9885 H   0  0  0  0  0  0  0  0  0  0  0  0
    5.4321    0.6722   20.1493 C   0  0  0  0  0  0  0  0  0  0  0  0
    5.0208    0.6546   21.1593 H   0  0  0  0  0  0  0  0  0  0  0  0
    4.7925    1.3180   19.0925 C   0  0  0  0  0  0  0  0  0  0  0  0
    3.8652    1.8511   19.2488 H   0  0  0  0  0  0  0  0  0  0  0  0
  1  2  1  0
  2  3  2  0
  3  4  1  0
  4  5  1  0
  4  6  2  0
  6  7  1  0
  7  8  2  0
  8  9  1  0
  9 10  1  0
 10 11  2  0
 11 12  1  0
 12 13  1  0
 12 14  2  0
 14 15  1  0
 14 16  1  0
 16 17  1  0
 16 18  2  0
 18 19  1  0
 19 20  1  0
 19 21  1  0
 19 22  1  0
  8 23  1  0
 23 24  1  0
 23 25  2  0
 25 26  1  0
 26 27  1  0
  6 28  1  0
 28 29  1  0
 28 30  2  0
 30 31  1  0
 30  2  1  0
 26  7  1  0
 18 10  1  0
M  END
>  <cnnaffinity>  (1) 
-5.30874

>  <filename>  (1) 
FC(F)(F)c1cccnc1Oc1cn[nH]c1-c1cccnc1

$$$$
