
     RDKit          3D

 37 39  0  0  0  0  0  0  0  0999 V2000
    9.9745   -0.2066   22.6011 H   0  0  0  0  0  0  0  0  0  0  0  0
    9.1056   -0.7759   22.2673 C   0  0  0  0  0  0  0  0  0  0  0  0
    8.4443   -1.5947   23.0939 C   0  0  0  0  0  0  0  0  0  0  0  0
    8.7043   -1.5636   24.5612 C   0  0  0  0  0  0  0  0  0  0  0  0
    8.5463   -0.3327   25.2306 C   0  0  0  0  0  0  0  0  0  0  0  0
    8.2426    0.5337   24.6534 H   0  0  0  0  0  0  0  0  0  0  0  0
    8.7774   -0.2106   26.5959 C   0  0  0  0  0  0  0  0  0  0  0  0
    8.6909    0.7561   27.0798 H   0  0  0  0  0  0  0  0  0  0  0  0
    9.1823   -1.3176   27.3350 C   0  0  0  0  0  0  0  0  0  0  0  0
    9.3663   -1.1943   28.3984 H   0  0  0  0  0  0  0  0  0  0  0  0
    9.3545   -2.5460   26.6962 C   0  0  0  0  0  0  0  0  0  0  0  0
    9.7472   -3.3819   27.2645 H   0  0  0  0  0  0  0  0  0  0  0  0
    9.1381   -2.6823   25.3131 C   0  0  0  0  0  0  0  0  0  0  0  0
    9.5157   -3.9695   24.6003 C   0  0  0  0  0  0  0  0  0  0  0  0
   10.0921   -4.8702   25.4185 F   0  0  0  0  0  0  0  0  0  0  0  0
    8.4472   -4.5788   24.0357 F   0  0  0  0  0  0  0  0  0  0  0  0
   10.3917   -3.7423   23.6033 F   0  0  0  0  0  0  0  0  0  0  0  0
    7.3074   -2.3913   22.4917 C   0  0  0  0  0  0  0  0  0  0  0  0
    6.6848   -2.8646   23.2534 H   0  0  0  0  0  0  0  0  0  0  0  0
    7.7160   -3.1769   21.8409 H   0  0  0  0  0  0  0  0  0  0  0  0
    6.4567   -1.4363   21.6438 C   0  0  0  0  0  0  0  0  0  0  0  0
    6.0273   -0.6590   22.2990 H   0  0  0  0  0  0  0  0  0  0  0  0
    5.6206   -1.9764   21.1828 H   0  0  0  0  0  0  0  0  0  0  0  0
    7.2580   -0.8129   20.5923 N   0  0  0  0  0  0  0  0  0  0  0  0
    6.6117   -0.0710   19.5892 C   0  0  0  0  0  0  0  0  0  0  0  0
    7.1801    0.1252   18.2973 C   0  0  0  0  0  0  0  0  0  0  0  0
    8.1325   -0.3417   18.0574 H   0  0  0  0  0  0  0  0  0  0  0  0
    6.6267    0.8499   17.3128 N   0  0  0  0  0  0  0  0  0  0  0  0
    5.4551    1.4553   17.5672 C   0  0  0  0  0  0  0  0  0  0  0  0
    5.0377    2.0579   16.7627 H   0  0  0  0  0  0  0  0  0  0  0  0
    4.7861    1.3292   18.7886 C   0  0  0  0  0  0  0  0  0  0  0  0
    3.8443    1.8513   18.9441 H   0  0  0  0  0  0  0  0  0  0  0  0
    5.3578    0.5466   19.8007 C   0  0  0  0  0  0  0  0  0  0  0  0
    4.8672    0.4239   20.7629 H   0  0  0  0  0  0  0  0  0  0  0  0
    8.7021   -0.6174   20.8138 C   0  0  0  0  0  0  0  0  0  0  0  0
    8.9762    0.3948   20.4942 H   0  0  0  0  0  0  0  0  0  0  0  0
    9.2885   -1.3039   20.1759 H   0  0  0  0  0  0  0  0  0  0  0  0
  1  2  1  0
  2  3  2  0
  3  4  1  0
  4  5  2  0
  5  6  1  0
  5  7  1  0
  7  8  1  0
  7  9  2  0
  9 10  1  0
  9 11  1  0
 11 12  1  0
 11 13  2  0
 13 14  1  0
 14 15  1  0
 14 16  1  0
 14 17  1  0
  3 18  1  0
 18 19  1  0
 18 20  1  0
 18 21  1  0
 21 22  1  0
 21 23  1  0
 21 24  1  0
 24 25  1  0
 25 26  2  0
 26 27  1  0
 26 28  1  0
 28 29  2  0
 29 30  1  0
 29 31  1  0
 31 32  1  0
 31 33  2  0
 33 34  1  0
 24 35  1  0
 35 36  1  0
 35 37  1  0
 35  2  1  0
 13  4  1  0
 33 25  1  0
M  END
>  <cnnaffinity>  (1) 
-5.41255

>  <filename>  (1) 
FC(F)(F)c1ccccc1C1=CCN(c2cccnc2)CC1

$$$$
