
     RDKit          3D

 30 32  0  0  0  0  0  0  0  0999 V2000
    5.0046    1.7640   16.9902 H   0  0  0  0  0  0  0  0  0  0  0  0
    5.4644    1.2801   17.8500 C   0  0  0  0  0  0  0  0  0  0  0  0
    6.6412    0.6722   17.6208 N   0  0  0  0  0  0  0  0  0  0  0  0
    7.2407    0.0712   18.6531 C   0  0  0  0  0  0  0  0  0  0  0  0
    8.1819   -0.4243   18.4140 H   0  0  0  0  0  0  0  0  0  0  0  0
    6.7230    0.0425   19.9728 C   0  0  0  0  0  0  0  0  0  0  0  0
    7.4210   -0.6212   21.0925 C   0  0  0  0  0  0  0  0  0  0  0  0
    8.6914   -1.7656   20.8092 S   0  0  0  0  0  0  0  0  0  0  0  0
    8.9193   -2.0330   22.4835 C   0  0  0  0  0  0  0  0  0  0  0  0
    9.6893   -2.7172   22.8204 H   0  0  0  0  0  0  0  0  0  0  0  0
    8.0992   -1.2601   23.2640 C   0  0  0  0  0  0  0  0  0  0  0  0
    8.2868   -1.1857   24.7565 C   0  0  0  0  0  0  0  0  0  0  0  0
    9.5431   -0.8992   25.1319 N   0  0  0  0  0  0  0  0  0  0  0  0
    9.8199   -0.6894   26.4165 C   0  0  0  0  0  0  0  0  0  0  0  0
   10.8569   -0.4381   26.6366 H   0  0  0  0  0  0  0  0  0  0  0  0
    8.8700   -0.8091   27.4348 C   0  0  0  0  0  0  0  0  0  0  0  0
    9.1570   -0.5737   28.4543 H   0  0  0  0  0  0  0  0  0  0  0  0
    7.5848   -1.2079   27.0897 C   0  0  0  0  0  0  0  0  0  0  0  0
    6.8075   -1.3910   27.8376 H   0  0  0  0  0  0  0  0  0  0  0  0
    7.2924   -1.4046   25.7345 C   0  0  0  0  0  0  0  0  0  0  0  0
    5.8902   -1.7092   25.3225 C   0  0  0  0  0  0  0  0  0  0  0  0
    5.8054   -2.6167   24.3375 F   0  0  0  0  0  0  0  0  0  0  0  0
    5.3100   -0.5710   24.8829 F   0  0  0  0  0  0  0  0  0  0  0  0
    5.1339   -2.1570   26.3460 F   0  0  0  0  0  0  0  0  0  0  0  0
    7.2241   -0.4671   22.4421 C   0  0  0  0  0  0  0  0  0  0  0  0
    6.4948    0.2159   22.8577 H   0  0  0  0  0  0  0  0  0  0  0  0
    5.4804    0.6687   20.1759 C   0  0  0  0  0  0  0  0  0  0  0  0
    5.0213    0.6506   21.1646 H   0  0  0  0  0  0  0  0  0  0  0  0
    4.8446    1.2918   19.1012 C   0  0  0  0  0  0  0  0  0  0  0  0
    3.8894    1.7927   19.2157 H   0  0  0  0  0  0  0  0  0  0  0  0
  1  2  1  0
  2  3  2  0
  3  4  1  0
  4  5  1  0
  4  6  2  0
  6  7  1  0
  7  8  1  0
  8  9  1  0
  9 10  1  0
  9 11  2  0
 11 12  1  0
 12 13  2  0
 13 14  1  0
 14 15  1  0
 14 16  2  0
 16 17  1  0
 16 18  1  0
 18 19  1  0
 18 20  2  0
 20 21  1  0
 21 22  1  0
 21 23  1  0
 21 24  1  0
 11 25  1  0
 25 26  1  0
  6 27  1  0
 27 28  1  0
 27 29  2  0
 29 30  1  0
 29  2  1  0
 25  7  2  0
 20 12  1  0
M  END
>  <cnnaffinity>  (1) 
-5.65785

>  <filename>  (1) 
FC(F)(F)c1cccnc1-c1csc(-c2cccnc2)c1

$$$$
