
     RDKit          3D

 37 39  0  0  0  0  0  0  0  0999 V2000
    5.0021    2.1672   16.3664 H   0  0  0  0  0  0  0  0  0  0  0  0
    5.3870    1.6937   17.2670 C   0  0  0  0  0  0  0  0  0  0  0  0
    6.5815    1.0870   17.1650 N   0  0  0  0  0  0  0  0  0  0  0  0
    7.0866    0.5116   18.2655 C   0  0  0  0  0  0  0  0  0  0  0  0
    8.0638    0.0432   18.1471 H   0  0  0  0  0  0  0  0  0  0  0  0
    6.4272    0.4704   19.5236 C   0  0  0  0  0  0  0  0  0  0  0  0
    6.9324   -0.1412   20.6816 N   0  0  0  0  0  0  0  0  0  0  0  0
    6.1380   -1.1051   21.4450 C   0  0  0  0  0  0  0  0  0  0  0  0
    6.2216   -0.8614   22.5163 H   0  0  0  0  0  0  0  0  0  0  0  0
    5.0847   -1.0704   21.1494 H   0  0  0  0  0  0  0  0  0  0  0  0
    6.6719   -2.5378   21.2272 C   0  0  0  0  0  0  0  0  0  0  0  0
    6.0438   -3.2619   21.7563 H   0  0  0  0  0  0  0  0  0  0  0  0
    6.6143   -2.7711   20.1565 H   0  0  0  0  0  0  0  0  0  0  0  0
    8.0716   -2.6248   21.6337 N   0  0  0  0  0  0  0  0  0  0  0  0
    8.5165   -3.3793   22.6858 C   0  0  0  0  0  0  0  0  0  0  0  0
    9.5560   -2.8729   23.3624 N   0  0  0  0  0  0  0  0  0  0  0  0
   10.0959   -3.6187   24.3053 C   0  0  0  0  0  0  0  0  0  0  0  0
   10.9622   -3.2129   24.8205 H   0  0  0  0  0  0  0  0  0  0  0  0
    9.6526   -4.8975   24.6199 C   0  0  0  0  0  0  0  0  0  0  0  0
   10.4461   -5.5812   25.6622 C   0  0  0  0  0  0  0  0  0  0  0  0
   11.7513   -5.5086   25.3319 F   0  0  0  0  0  0  0  0  0  0  0  0
   10.1197   -6.8717   25.8160 F   0  0  0  0  0  0  0  0  0  0  0  0
   10.3227   -4.9800   26.8624 F   0  0  0  0  0  0  0  0  0  0  0  0
    8.5745   -5.4518   23.9162 C   0  0  0  0  0  0  0  0  0  0  0  0
    8.2536   -6.4816   24.0842 H   0  0  0  0  0  0  0  0  0  0  0  0
    7.9679   -4.6571   22.9583 C   0  0  0  0  0  0  0  0  0  0  0  0
    7.1361   -5.0066   22.3653 H   0  0  0  0  0  0  0  0  0  0  0  0
    8.9328   -1.6381   20.9581 C   0  0  0  0  0  0  0  0  0  0  0  0
    9.9289   -1.6362   21.4077 H   0  0  0  0  0  0  0  0  0  0  0  0
    9.0526   -1.9260   19.9064 H   0  0  0  0  0  0  0  0  0  0  0  0
    8.3527   -0.2063   21.0136 C   0  0  0  0  0  0  0  0  0  0  0  0
    8.9125    0.4367   20.3243 H   0  0  0  0  0  0  0  0  0  0  0  0
    8.4916    0.1760   22.0390 H   0  0  0  0  0  0  0  0  0  0  0  0
    5.1818    1.1236   19.5963 C   0  0  0  0  0  0  0  0  0  0  0  0
    4.6861    1.1586   20.5654 H   0  0  0  0  0  0  0  0  0  0  0  0
    4.6585    1.7402   18.4606 C   0  0  0  0  0  0  0  0  0  0  0  0
    3.7011    2.2510   18.4891 H   0  0  0  0  0  0  0  0  0  0  0  0
  1  2  1  0
  2  3  2  0
  3  4  1  0
  4  5  1  0
  4  6  2  0
  6  7  1  0
  7  8  1  0
  8  9  1  0
  8 10  1  0
  8 11  1  0
 11 12  1  0
 11 13  1  0
 11 14  1  0
 14 15  1  0
 15 16  2  0
 16 17  1  0
 17 18  1  0
 17 19  2  0
 19 20  1  0
 20 21  1  0
 20 22  1  0
 20 23  1  0
 19 24  1  0
 24 25  1  0
 24 26  2  0
 26 27  1  0
 14 28  1  0
 28 29  1  0
 28 30  1  0
 28 31  1  0
 31 32  1  0
 31 33  1  0
  6 34  1  0
 34 35  1  0
 34 36  2  0
 36 37  1  0
 36  2  1  0
 31  7  1  0
 26 15  1  0
M  END
>  <cnnaffinity>  (1) 
-5.23128

>  <filename>  (1) 
FC(F)(F)c1ccc(N2CCN(c3cccnc3)CC2)nc1

$$$$
