
     RDKit          3D

 29 30  0  0  0  0  0  0  0  0999 V2000
    7.4754    1.0311   22.3681 H   0  0  0  0  0  0  0  0  0  0  0  0
    7.6676   -0.0128   22.1826 C   0  0  0  0  0  0  0  0  0  0  0  0
    7.2996   -0.6014   21.0310 C   0  0  0  0  0  0  0  0  0  0  0  0
    6.6428    0.0769   19.9023 C   0  0  0  0  0  0  0  0  0  0  0  0
    7.1832    0.0277   18.6072 C   0  0  0  0  0  0  0  0  0  0  0  0
    8.1256   -0.4934   18.4228 H   0  0  0  0  0  0  0  0  0  0  0  0
    6.6194    0.6166   17.5469 N   0  0  0  0  0  0  0  0  0  0  0  0
    5.4603    1.2665   17.7366 C   0  0  0  0  0  0  0  0  0  0  0  0
    5.0246    1.7322   16.8528 H   0  0  0  0  0  0  0  0  0  0  0  0
    4.8228    1.3467   18.9757 C   0  0  0  0  0  0  0  0  0  0  0  0
    3.8792    1.8677   19.0612 H   0  0  0  0  0  0  0  0  0  0  0  0
    5.4298    0.7593   20.0832 C   0  0  0  0  0  0  0  0  0  0  0  0
    4.9731    0.8034   21.0720 H   0  0  0  0  0  0  0  0  0  0  0  0
    7.4781   -1.9695   20.8719 N   0  0  0  0  0  0  0  0  0  0  0  0
    7.1283   -2.4699   20.0710 H   0  0  0  0  0  0  0  0  0  0  0  0
    7.9679   -2.7944   21.8353 C   0  0  0  0  0  0  0  0  0  0  0  0
    8.0820   -4.4245   21.6050 S   0  0  0  0  0  0  0  0  0  0  0  0
    8.3559   -2.1899   22.9616 N   0  0  0  0  0  0  0  0  0  0  0  0
    8.8356   -2.7631   23.6312 H   0  0  0  0  0  0  0  0  0  0  0  0
    8.2621   -0.8006   23.2958 C   0  0  1  0  0  0  0  0  0  0  0  0
    7.6407   -0.6952   24.2072 H   0  0  0  0  0  0  0  0  0  0  0  0
    9.6094   -0.4558   23.6428 O   0  0  0  0  0  0  0  0  0  0  0  0
    9.7730    0.8469   24.1819 C   0  0  0  0  0  0  0  0  0  0  0  0
    9.6891    0.8312   25.2770 H   0  0  0  0  0  0  0  0  0  0  0  0
    9.0335    1.5517   23.7817 H   0  0  0  0  0  0  0  0  0  0  0  0
   11.1138    1.5247   23.8762 C   0  0  0  0  0  0  0  0  0  0  0  0
   12.1699    0.8628   24.3602 F   0  0  0  0  0  0  0  0  0  0  0  0
   11.0762    2.7334   24.4796 F   0  0  0  0  0  0  0  0  0  0  0  0
   11.3138    1.7452   22.5709 F   0  0  0  0  0  0  0  0  0  0  0  0
  1  2  1  0
  2  3  2  0
  3  4  1  0
  4  5  2  0
  5  6  1  0
  5  7  1  0
  7  8  2  0
  8  9  1  0
  8 10  1  0
 10 11  1  0
 10 12  2  0
 12 13  1  0
  3 14  1  0
 14 15  1  0
 14 16  1  0
 16 17  2  0
 16 18  1  0
 18 19  1  0
 18 20  1  0
 20 21  1  1
 20 22  1  0
 22 23  1  0
 23 24  1  0
 23 25  1  0
 23 26  1  0
 26 27  1  0
 26 28  1  0
 26 29  1  0
 20  2  1  0
 12  4  1  0
M  END
>  <cnnaffinity>  (1) 
-5.04691

>  <filename>  (1) 
FC(F)(F)CO[C@H]1C=C(c2cccnc2)NC(=S)N1

$$$$
