
     RDKit          3D

 23 24  0  0  0  0  0  0  0  0999 V2000
    4.9380    1.7871   17.0003 H   0  0  0  0  0  0  0  0  0  0  0  0
    5.4088    1.2899   17.8419 C   0  0  0  0  0  0  0  0  0  0  0  0
    6.5705    0.6717   17.5764 N   0  0  0  0  0  0  0  0  0  0  0  0
    7.1898    0.0641   18.5908 C   0  0  0  0  0  0  0  0  0  0  0  0
    8.1270   -0.4407   18.3609 H   0  0  0  0  0  0  0  0  0  0  0  0
    6.6763    0.0155   19.9006 C   0  0  0  0  0  0  0  0  0  0  0  0
    7.3879   -0.6963   20.9146 N   0  0  0  0  0  0  0  0  0  0  0  0
    8.7421   -0.5326   21.1754 C   0  0  0  0  0  0  0  0  0  0  0  0
    9.3474    0.1857   20.6517 H   0  0  0  0  0  0  0  0  0  0  0  0
    9.0661   -1.3412   22.2074 C   0  0  0  0  0  0  0  0  0  0  0  0
   10.5597   -1.5539   23.0550 S   0  0  0  0  0  0  0  0  0  0  0  0
   10.3574   -0.2247   24.3056 C   0  0  0  0  0  0  0  0  0  0  0  0
    9.3154   -0.4772   25.0903 F   0  0  0  0  0  0  0  0  0  0  0  0
   10.1733    0.9530   23.7131 F   0  0  0  0  0  0  0  0  0  0  0  0
   11.4637   -0.1669   25.0444 F   0  0  0  0  0  0  0  0  0  0  0  0
    7.8958   -1.9910   22.5660 N   0  0  0  0  0  0  0  0  0  0  0  0
    7.7390   -2.6668   23.2954 H   0  0  0  0  0  0  0  0  0  0  0  0
    6.8872   -1.7189   21.7057 C   0  0  0  0  0  0  0  0  0  0  0  0
    5.4992   -2.6199   21.5933 S   0  0  0  0  0  0  0  0  0  0  0  0
    5.4532    0.6429   20.1697 C   0  0  0  0  0  0  0  0  0  0  0  0
    5.0240    0.6059   21.1748 H   0  0  0  0  0  0  0  0  0  0  0  0
    4.8187    1.3048   19.1119 C   0  0  0  0  0  0  0  0  0  0  0  0
    3.8820    1.8332   19.2546 H   0  0  0  0  0  0  0  0  0  0  0  0
  1  2  1  0
  2  3  2  0
  3  4  1  0
  4  5  1  0
  4  6  2  0
  6  7  1  0
  7  8  1  0
  8  9  1  0
  8 10  2  0
 10 11  1  0
 11 12  1  0
 12 13  1  0
 12 14  1  0
 12 15  1  0
 10 16  1  0
 16 17  1  0
 16 18  1  0
 18 19  2  0
  6 20  1  0
 20 21  1  0
 20 22  2  0
 22 23  1  0
 22  2  1  0
 18  7  1  0
M  END
>  <cnnaffinity>  (1) 
-5.30537

>  <filename>  (1) 
FC(F)(F)Sc1cn(-c2cccnc2)c(=S)[nH]1

$$$$
