
     RDKit          3D

 33 36  0  0  0  0  0  0  0  0999 V2000
    4.9113    1.7669   16.9850 H   0  0  0  0  0  0  0  0  0  0  0  0
    5.3964    1.2997   17.8378 C   0  0  0  0  0  0  0  0  0  0  0  0
    6.5538    0.6717   17.5793 N   0  0  0  0  0  0  0  0  0  0  0  0
    7.1848    0.0920   18.6049 C   0  0  0  0  0  0  0  0  0  0  0  0
    8.1237   -0.3985   18.3468 H   0  0  0  0  0  0  0  0  0  0  0  0
    6.7168    0.1048   19.9342 C   0  0  0  0  0  0  0  0  0  0  0  0
    7.5115   -0.5727   20.9805 C   0  0  0  0  0  0  0  0  0  0  0  0
    8.4559   -1.5256   20.8393 C   0  0  0  0  0  0  0  0  0  0  0  0
    8.9050   -1.8739   19.9221 H   0  0  0  0  0  0  0  0  0  0  0  0
    9.0381   -2.1603   22.3563 S   0  0  0  0  0  0  0  0  0  0  0  0
    8.1057   -0.9742   23.2066 C   0  0  0  0  0  0  0  0  0  0  0  0
    8.0599   -0.4506   24.4094 N   0  0  0  0  0  0  0  0  0  0  0  0
    7.2519    0.6315   24.2181 C   0  0  0  0  0  0  0  0  0  0  0  0
    6.9614    1.5969   25.3290 C   0  0  0  0  0  0  0  0  0  0  0  0
    7.8517    1.6171   26.4223 C   0  0  0  0  0  0  0  0  0  0  0  0
    8.6881    0.9206   26.4499 H   0  0  0  0  0  0  0  0  0  0  0  0
    7.6711    2.4925   27.4911 C   0  0  0  0  0  0  0  0  0  0  0  0
    8.3439    2.4397   28.3410 H   0  0  0  0  0  0  0  0  0  0  0  0
    6.6149    3.4063   27.4825 C   0  0  0  0  0  0  0  0  0  0  0  0
    6.4676    4.0754   28.3270 H   0  0  0  0  0  0  0  0  0  0  0  0
    5.7230    3.4072   26.4136 C   0  0  0  0  0  0  0  0  0  0  0  0
    4.8957    4.1148   26.3940 H   0  0  0  0  0  0  0  0  0  0  0  0
    5.8320    2.4677   25.3741 C   0  0  0  0  0  0  0  0  0  0  0  0
    4.6613    2.3485   24.4045 C   0  0  0  0  0  0  0  0  0  0  0  0
    4.9907    2.7345   23.1596 F   0  0  0  0  0  0  0  0  0  0  0  0
    3.5976    3.1002   24.7614 F   0  0  0  0  0  0  0  0  0  0  0  0
    4.2159    1.0794   24.3515 F   0  0  0  0  0  0  0  0  0  0  0  0
    6.7867    0.7824   22.9762 N   0  0  0  0  0  0  0  0  0  0  0  0
    7.3464   -0.2728   22.3391 N   0  0  0  0  0  0  0  0  0  0  0  0
    5.4950    0.7662   20.1762 C   0  0  0  0  0  0  0  0  0  0  0  0
    5.1043    0.8153   21.1932 H   0  0  0  0  0  0  0  0  0  0  0  0
    4.8222    1.3667   19.1123 C   0  0  0  0  0  0  0  0  0  0  0  0
    3.8888    1.9037   19.2611 H   0  0  0  0  0  0  0  0  0  0  0  0
  1  2  1  0
  2  3  2  0
  3  4  1  0
  4  5  1  0
  4  6  2  0
  6  7  1  0
  7  8  2  0
  8  9  1  0
  8 10  1  0
 10 11  1  0
 11 12  2  0
 12 13  1  0
 13 14  1  0
 14 15  2  0
 15 16  1  0
 15 17  1  0
 17 18  1  0
 17 19  2  0
 19 20  1  0
 19 21  1  0
 21 22  1  0
 21 23  2  0
 23 24  1  0
 24 25  1  0
 24 26  1  0
 24 27  1  0
 13 28  2  0
 28 29  1  0
  6 30  1  0
 30 31  1  0
 30 32  2  0
 32 33  1  0
 32  2  1  0
 29  7  1  0
 29 11  1  0
 23 14  1  0
M  END
>  <cnnaffinity>  (1) 
-5.42924

>  <filename>  (1) 
FC(F)(F)c1ccccc1-c1nc2scc(-c3cccnc3)n2n1

$$$$
