
     RDKit          3D

 32 35  0  0  0  0  0  0  0  0999 V2000
    5.0427    1.7692   16.9640 H   0  0  0  0  0  0  0  0  0  0  0  0
    5.4736    1.2725   17.8273 C   0  0  0  0  0  0  0  0  0  0  0  0
    6.6305    0.6303   17.6046 N   0  0  0  0  0  0  0  0  0  0  0  0
    7.1948    0.0059   18.6405 C   0  0  0  0  0  0  0  0  0  0  0  0
    8.1314   -0.5102   18.4356 H   0  0  0  0  0  0  0  0  0  0  0  0
    6.6355   -0.0076   19.9222 C   0  0  0  0  0  0  0  0  0  0  0  0
    7.3516   -0.7090   20.9811 C   0  0  0  0  0  0  0  0  0  0  0  0
    8.5556   -1.3196   20.7823 N   0  0  0  0  0  0  0  0  0  0  0  0
    8.8119   -1.7804   21.9850 C   0  0  0  0  0  0  0  0  0  0  0  0
   10.0354   -2.7003   22.8087 S   0  0  0  0  0  0  0  0  0  0  0  0
    9.1269   -2.5822   24.2875 C   0  0  0  0  0  0  0  0  0  0  0  0
    9.5469   -3.0846   25.1503 H   0  0  0  0  0  0  0  0  0  0  0  0
    7.9787   -1.8678   24.1763 C   0  0  0  0  0  0  0  0  0  0  0  0
    6.9631   -1.4942   25.2111 C   0  0  0  0  0  0  0  0  0  0  0  0
    5.9571   -0.6457   24.9073 N   0  0  0  0  0  0  0  0  0  0  0  0
    5.0264   -0.3688   25.8241 C   0  0  0  0  0  0  0  0  0  0  0  0
    3.8538    0.5871   25.4654 C   0  0  0  0  0  0  0  0  0  0  0  0
    2.7523   -0.0904   25.0902 F   0  0  0  0  0  0  0  0  0  0  0  0
    3.4786    1.3124   26.5441 F   0  0  0  0  0  0  0  0  0  0  0  0
    4.1427    1.4630   24.4972 F   0  0  0  0  0  0  0  0  0  0  0  0
    5.0392   -0.9266   27.1076 C   0  0  0  0  0  0  0  0  0  0  0  0
    4.2554   -0.6891   27.8190 H   0  0  0  0  0  0  0  0  0  0  0  0
    6.0774   -1.7877   27.4460 C   0  0  0  0  0  0  0  0  0  0  0  0
    6.0664   -2.2114   28.4429 H   0  0  0  0  0  0  0  0  0  0  0  0
    7.0699   -2.0568   26.5028 C   0  0  0  0  0  0  0  0  0  0  0  0
    7.9088   -2.6963   26.7421 H   0  0  0  0  0  0  0  0  0  0  0  0
    7.8272   -1.4602   22.8524 N   0  0  0  0  0  0  0  0  0  0  0  0
    6.8619   -0.7718   22.2066 N   0  0  0  0  0  0  0  0  0  0  0  0
    5.4175    0.6574   20.1509 C   0  0  0  0  0  0  0  0  0  0  0  0
    4.9676    0.6521   21.1486 H   0  0  0  0  0  0  0  0  0  0  0  0
    4.8300    1.3095   19.0709 C   0  0  0  0  0  0  0  0  0  0  0  0
    3.8962    1.8522   19.1767 H   0  0  0  0  0  0  0  0  0  0  0  0
  1  2  1  0
  2  3  2  0
  3  4  1  0
  4  5  1  0
  4  6  2  0
  6  7  1  0
  7  8  1  0
  8  9  2  0
  9 10  1  0
 10 11  1  0
 11 12  1  0
 11 13  2  0
 13 14  1  0
 14 15  2  0
 15 16  1  0
 16 17  1  0
 17 18  1  0
 17 19  1  0
 17 20  1  0
 16 21  2  0
 21 22  1  0
 21 23  1  0
 23 24  1  0
 23 25  2  0
 25 26  1  0
 13 27  1  0
 27 28  1  0
  6 29  1  0
 29 30  1  0
 29 31  2  0
 31 32  1  0
 31  2  1  0
 28  7  2  0
 27  9  1  0
 25 14  1  0
M  END
>  <cnnaffinity>  (1) 
-5.50002

>  <filename>  (1) 
FC(F)(F)c1cccc(-c2csc3nc(-c4cccnc4)nn23)n1

$$$$
