
     RDKit          3D

 38 40  0  0  0  0  0  0  0  0999 V2000
    4.9486    2.0663   16.5932 H   0  0  0  0  0  0  0  0  0  0  0  0
    5.3372    1.5689   17.4801 C   0  0  0  0  0  0  0  0  0  0  0  0
    6.4631    0.8546   17.3186 N   0  0  0  0  0  0  0  0  0  0  0  0
    6.9675    0.2263   18.3928 C   0  0  0  0  0  0  0  0  0  0  0  0
    7.8839   -0.3411   18.2219 H   0  0  0  0  0  0  0  0  0  0  0  0
    6.3883    0.2653   19.6897 C   0  0  0  0  0  0  0  0  0  0  0  0
    6.8590   -0.4425   20.8293 N   0  0  0  0  0  0  0  0  0  0  0  0
    7.4709    0.3231   21.9288 C   0  0  0  0  0  0  0  0  0  0  0  0
    8.5246    0.5658   21.7017 H   0  0  0  0  0  0  0  0  0  0  0  0
    6.9292    1.2606   22.0707 H   0  0  0  0  0  0  0  0  0  0  0  0
    7.4598   -0.5056   23.2202 C   0  0  0  0  0  0  0  0  0  0  0  0
    7.8904    0.0767   24.0415 H   0  0  0  0  0  0  0  0  0  0  0  0
    6.4171   -0.7561   23.4971 H   0  0  0  0  0  0  0  0  0  0  0  0
    8.2554   -1.7164   22.9900 N   0  0  0  0  0  0  0  0  0  0  0  0
    8.7104   -2.4751   24.0974 C   0  0  0  0  0  0  0  0  0  0  0  0
    9.8623   -3.2507   23.8954 C   0  0  0  0  0  0  0  0  0  0  0  0
   10.4074   -3.1141   22.9674 H   0  0  0  0  0  0  0  0  0  0  0  0
   10.2668   -4.1793   24.8405 C   0  0  0  0  0  0  0  0  0  0  0  0
   11.1218   -4.8236   24.6348 H   0  0  0  0  0  0  0  0  0  0  0  0
    9.5153   -4.3457   26.0132 C   0  0  0  0  0  0  0  0  0  0  0  0
    9.8525   -5.4811   26.9390 C   0  0  0  0  0  0  0  0  0  0  0  0
   10.7522   -5.1411   27.8793 F   0  0  0  0  0  0  0  0  0  0  0  0
   10.3721   -6.5138   26.2398 F   0  0  0  0  0  0  0  0  0  0  0  0
    8.7606   -5.9284   27.5911 F   0  0  0  0  0  0  0  0  0  0  0  0
    8.4420   -3.4850   26.2868 C   0  0  0  0  0  0  0  0  0  0  0  0
    7.8731   -3.5788   27.2103 H   0  0  0  0  0  0  0  0  0  0  0  0
    8.0542   -2.5362   25.3376 C   0  0  0  0  0  0  0  0  0  0  0  0
    7.2349   -1.8573   25.5438 H   0  0  0  0  0  0  0  0  0  0  0  0
    7.6039   -2.5129   21.9316 C   0  0  0  0  0  0  0  0  0  0  0  0
    6.5788   -2.8170   22.2168 H   0  0  0  0  0  0  0  0  0  0  0  0
    8.1653   -3.4366   21.7708 H   0  0  0  0  0  0  0  0  0  0  0  0
    7.5615   -1.7101   20.6324 C   0  0  0  0  0  0  0  0  0  0  0  0
    7.0204   -2.2805   19.8741 H   0  0  0  0  0  0  0  0  0  0  0  0
    8.6035   -1.5536   20.2959 H   0  0  0  0  0  0  0  0  0  0  0  0
    5.2257    1.0487   19.8277 C   0  0  0  0  0  0  0  0  0  0  0  0
    4.7667    1.1149   20.8126 H   0  0  0  0  0  0  0  0  0  0  0  0
    4.6855    1.6935   18.7110 C   0  0  0  0  0  0  0  0  0  0  0  0
    3.7944    2.3107   18.7913 H   0  0  0  0  0  0  0  0  0  0  0  0
  1  2  1  0
  2  3  2  0
  3  4  1  0
  4  5  1  0
  4  6  2  0
  6  7  1  0
  7  8  1  0
  8  9  1  0
  8 10  1  0
  8 11  1  0
 11 12  1  0
 11 13  1  0
 11 14  1  0
 14 15  1  0
 15 16  2  0
 16 17  1  0
 16 18  1  0
 18 19  1  0
 18 20  2  0
 20 21  1  0
 21 22  1  0
 21 23  1  0
 21 24  1  0
 20 25  1  0
 25 26  1  0
 25 27  2  0
 27 28  1  0
 14 29  1  0
 29 30  1  0
 29 31  1  0
 29 32  1  0
 32 33  1  0
 32 34  1  0
  6 35  1  0
 35 36  1  0
 35 37  2  0
 37 38  1  0
 37  2  1  0
 32  7  1  0
 27 15  1  0
M  END
>  <cnnaffinity>  (1) 
-4.80462

>  <filename>  (1) 
FC(F)(F)c1ccc(N2CCN(c3cccnc3)CC2)cc1

$$$$
