
     RDKit          3D

 33 35  0  0  0  0  0  0  0  0999 V2000
    5.0111    1.9782   16.6837 H   0  0  0  0  0  0  0  0  0  0  0  0
    5.3645    1.4619   17.5729 C   0  0  0  0  0  0  0  0  0  0  0  0
    6.5072    0.7693   17.4407 N   0  0  0  0  0  0  0  0  0  0  0  0
    6.9603    0.1331   18.5234 C   0  0  0  0  0  0  0  0  0  0  0  0
    7.9093   -0.3882   18.4018 H   0  0  0  0  0  0  0  0  0  0  0  0
    6.3024    0.1186   19.7608 C   0  0  0  0  0  0  0  0  0  0  0  0
    6.8606   -0.6823   20.8575 C   0  0  0  0  0  0  0  0  0  0  0  0
    6.2745   -0.7151   22.0306 N   0  0  0  0  0  0  0  0  0  0  0  0
    7.0448   -1.5275   22.8249 O   0  0  0  0  0  0  0  0  0  0  0  0
    8.0903   -1.9765   22.1237 C   0  0  0  0  0  0  0  0  0  0  0  0
    9.1517   -2.7492   22.8367 C   0  0  0  0  0  0  0  0  0  0  0  0
    8.7844   -3.0923   23.8095 H   0  0  0  0  0  0  0  0  0  0  0  0
    9.4027   -3.6315   22.2448 H   0  0  0  0  0  0  0  0  0  0  0  0
   10.3654   -1.8566   22.9841 C   0  0  0  0  0  0  0  0  0  0  0  0
   10.3969   -0.9323   24.0316 C   0  0  0  0  0  0  0  0  0  0  0  0
    9.5855   -0.9347   24.7506 H   0  0  0  0  0  0  0  0  0  0  0  0
   11.4530   -0.0342   24.1614 C   0  0  0  0  0  0  0  0  0  0  0  0
   11.4631    0.6682   24.9903 H   0  0  0  0  0  0  0  0  0  0  0  0
   12.5179   -0.0817   23.2411 C   0  0  0  0  0  0  0  0  0  0  0  0
   13.7397    0.7571   23.5015 C   0  0  0  0  0  0  0  0  0  0  0  0
   14.6654    0.6671   22.5317 F   0  0  0  0  0  0  0  0  0  0  0  0
   14.3293    0.3435   24.6395 F   0  0  0  0  0  0  0  0  0  0  0  0
   13.4425    2.0618   23.6591 F   0  0  0  0  0  0  0  0  0  0  0  0
   12.4919   -0.9985   22.1824 C   0  0  0  0  0  0  0  0  0  0  0  0
   13.3170   -1.0740   21.4723 H   0  0  0  0  0  0  0  0  0  0  0  0
   11.3909   -1.8367   22.0352 C   0  0  0  0  0  0  0  0  0  0  0  0
   11.3111   -2.4620   21.1604 H   0  0  0  0  0  0  0  0  0  0  0  0
    8.0305   -1.4923   20.8578 C   0  0  0  0  0  0  0  0  0  0  0  0
    8.7502   -1.6524   20.0747 H   0  0  0  0  0  0  0  0  0  0  0  0
    5.1243    0.8742   19.8934 C   0  0  0  0  0  0  0  0  0  0  0  0
    4.6127    0.9374   20.8550 H   0  0  0  0  0  0  0  0  0  0  0  0
    4.6490    1.5476   18.7720 C   0  0  0  0  0  0  0  0  0  0  0  0
    3.7504    2.1534   18.8207 H   0  0  0  0  0  0  0  0  0  0  0  0
  1  2  1  0
  2  3  2  0
  3  4  1  0
  4  5  1  0
  4  6  2  0
  6  7  1  0
  7  8  2  0
  8  9  1  0
  9 10  1  0
 10 11  1  0
 11 12  1  0
 11 13  1  0
 11 14  1  0
 14 15  2  0
 15 16  1  0
 15 17  1  0
 17 18  1  0
 17 19  2  0
 19 20  1  0
 20 21  1  0
 20 22  1  0
 20 23  1  0
 19 24  1  0
 24 25  1  0
 24 26  2  0
 26 27  1  0
 10 28  2  0
 28 29  1  0
  6 30  1  0
 30 31  1  0
 30 32  2  0
 32 33  1  0
 32  2  1  0
 28  7  1  0
 26 14  1  0
M  END
>  <cnnaffinity>  (1) 
-5.37727

>  <filename>  (1) 
FC(F)(F)c1ccc(Cc2cc(-c3cccnc3)no2)cc1

$$$$
