
     RDKit          3D

 32 34  0  0  0  0  0  0  0  0999 V2000
    5.0444    1.8370   16.9450 H   0  0  0  0  0  0  0  0  0  0  0  0
    5.4865    1.3020   17.7836 C   0  0  0  0  0  0  0  0  0  0  0  0
    6.6160    0.6224   17.5317 N   0  0  0  0  0  0  0  0  0  0  0  0
    7.1939   -0.0503   18.5369 C   0  0  0  0  0  0  0  0  0  0  0  0
    8.1012   -0.6069   18.2938 H   0  0  0  0  0  0  0  0  0  0  0  0
    6.6705   -0.0602   19.8405 C   0  0  0  0  0  0  0  0  0  0  0  0
    7.1896   -0.7957   20.8745 O   0  0  0  0  0  0  0  0  0  0  0  0
    8.5351   -0.8614   21.1069 C   0  0  0  0  0  0  0  0  0  0  0  0
    9.6095   -0.0228   20.7551 C   0  0  0  0  0  0  0  0  0  0  0  0
    9.5846    0.8896   20.1832 H   0  0  0  0  0  0  0  0  0  0  0  0
   10.7545   -0.4992   21.2352 N   0  0  0  0  0  0  0  0  0  0  0  0
   10.4115   -1.6114   21.8955 N   0  0  0  0  0  0  0  0  0  0  0  0
   11.1054   -2.1196   22.4237 H   0  0  0  0  0  0  0  0  0  0  0  0
    9.0763   -1.8531   21.8922 C   0  0  0  0  0  0  0  0  0  0  0  0
    8.4027   -2.9752   22.5574 C   0  0  0  0  0  0  0  0  0  0  0  0
    7.5809   -3.7930   21.7651 C   0  0  0  0  0  0  0  0  0  0  0  0
    7.3271   -3.4585   20.7636 H   0  0  0  0  0  0  0  0  0  0  0  0
    7.0832   -4.9896   22.2761 C   0  0  0  0  0  0  0  0  0  0  0  0
    6.5284   -5.6691   21.6336 H   0  0  0  0  0  0  0  0  0  0  0  0
    7.2793   -5.2977   23.6255 C   0  0  0  0  0  0  0  0  0  0  0  0
    6.8795   -6.2174   24.0360 H   0  0  0  0  0  0  0  0  0  0  0  0
    7.9552   -4.4103   24.4633 C   0  0  0  0  0  0  0  0  0  0  0  0
    8.0031   -4.6048   25.5331 H   0  0  0  0  0  0  0  0  0  0  0  0
    8.5499   -3.2581   23.9349 C   0  0  0  0  0  0  0  0  0  0  0  0
    9.4334   -2.4056   24.8238 C   0  0  0  0  0  0  0  0  0  0  0  0
    9.3274   -1.0885   24.5886 F   0  0  0  0  0  0  0  0  0  0  0  0
   10.7308   -2.7390   24.6065 F   0  0  0  0  0  0  0  0  0  0  0  0
    9.1871   -2.5827   26.1322 F   0  0  0  0  0  0  0  0  0  0  0  0
    5.4867    0.6378   20.0982 C   0  0  0  0  0  0  0  0  0  0  0  0
    5.0767    0.6272   21.1063 H   0  0  0  0  0  0  0  0  0  0  0  0
    4.8836    1.3281   19.0471 C   0  0  0  0  0  0  0  0  0  0  0  0
    3.9629    1.8814   19.1962 H   0  0  0  0  0  0  0  0  0  0  0  0
  1  2  1  0
  2  3  2  0
  3  4  1  0
  4  5  1  0
  4  6  2  0
  6  7  1  0
  7  8  1  0
  8  9  1  0
  9 10  1  0
  9 11  2  0
 11 12  1  0
 12 13  1  0
 12 14  1  0
 14 15  1  0
 15 16  2  0
 16 17  1  0
 16 18  1  0
 18 19  1  0
 18 20  2  0
 20 21  1  0
 20 22  1  0
 22 23  1  0
 22 24  2  0
 24 25  1  0
 25 26  1  0
 25 27  1  0
 25 28  1  0
  6 29  1  0
 29 30  1  0
 29 31  2  0
 31 32  1  0
 31  2  1  0
 14  8  2  0
 24 15  1  0
M  END
>  <cnnaffinity>  (1) 
-5.65944

>  <filename>  (1) 
FC(F)(F)c1ccccc1-c1[nH]ncc1Oc1cccnc1

$$$$
