
     RDKit          3D

 30 32  0  0  0  0  0  0  0  0999 V2000
    4.9137    1.7948   16.9710 H   0  0  0  0  0  0  0  0  0  0  0  0
    5.3880    1.2858   17.8127 C   0  0  0  0  0  0  0  0  0  0  0  0
    6.5429    0.6530   17.5557 N   0  0  0  0  0  0  0  0  0  0  0  0
    7.1460    0.0379   18.5823 C   0  0  0  0  0  0  0  0  0  0  0  0
    8.0858   -0.4534   18.3377 H   0  0  0  0  0  0  0  0  0  0  0  0
    6.6659    0.0076   19.9120 C   0  0  0  0  0  0  0  0  0  0  0  0
    7.4203   -0.6556   21.0143 C   0  0  0  0  0  0  0  0  0  0  0  0
    7.3962   -0.3675   22.4398 C   0  0  0  0  0  0  0  0  0  0  0  0
    6.8875    0.8247   23.1768 C   0  0  0  0  0  0  0  0  0  0  0  0
    5.9120    0.6323   24.1651 C   0  0  0  0  0  0  0  0  0  0  0  0
    5.6742   -0.3837   24.4751 H   0  0  0  0  0  0  0  0  0  0  0  0
    5.2723    1.7286   24.7411 C   0  0  0  0  0  0  0  0  0  0  0  0
    4.4576    1.5667   25.4446 H   0  0  0  0  0  0  0  0  0  0  0  0
    5.6634    3.0257   24.3939 C   0  0  0  0  0  0  0  0  0  0  0  0
    5.1415    3.8789   24.8208 H   0  0  0  0  0  0  0  0  0  0  0  0
    6.7204    3.2238   23.4994 C   0  0  0  0  0  0  0  0  0  0  0  0
    7.0365    4.2425   23.2793 H   0  0  0  0  0  0  0  0  0  0  0  0
    7.3671    2.1279   22.9096 C   0  0  0  0  0  0  0  0  0  0  0  0
    8.5847    2.3506   22.0063 C   0  0  0  0  0  0  0  0  0  0  0  0
    9.5568    1.4392   22.2277 F   0  0  0  0  0  0  0  0  0  0  0  0
    8.2762    2.2468   20.6987 F   0  0  0  0  0  0  0  0  0  0  0  0
    9.1261    3.5626   22.1866 F   0  0  0  0  0  0  0  0  0  0  0  0
    8.0444   -1.2648   23.1274 N   0  0  0  0  0  0  0  0  0  0  0  0
    8.6048   -2.1135   22.2185 O   0  0  0  0  0  0  0  0  0  0  0  0
    8.2671   -1.7262   20.9859 C   0  0  0  0  0  0  0  0  0  0  0  0
    8.7651   -2.3125   20.2376 H   0  0  0  0  0  0  0  0  0  0  0  0
    5.4426    0.6602   20.1467 C   0  0  0  0  0  0  0  0  0  0  0  0
    5.0194    0.6747   21.1537 H   0  0  0  0  0  0  0  0  0  0  0  0
    4.7991    1.3023   19.0816 C   0  0  0  0  0  0  0  0  0  0  0  0
    3.8612    1.8265   19.2188 H   0  0  0  0  0  0  0  0  0  0  0  0
  1  2  1  0
  2  3  2  0
  3  4  1  0
  4  5  1  0
  4  6  2  0
  6  7  1  0
  7  8  1  0
  8  9  1  0
  9 10  2  0
 10 11  1  0
 10 12  1  0
 12 13  1  0
 12 14  2  0
 14 15  1  0
 14 16  1  0
 16 17  1  0
 16 18  2  0
 18 19  1  0
 19 20  1  0
 19 21  1  0
 19 22  1  0
  8 23  2  0
 23 24  1  0
 24 25  1  0
 25 26  1  0
  6 27  1  0
 27 28  1  0
 27 29  2  0
 29 30  1  0
 29  2  1  0
 25  7  2  0
 18  9  1  0
M  END
>  <cnnaffinity>  (1) 
-4.40125

>  <filename>  (1) 
FC(F)(F)c1ccccc1-c1nocc1-c1cccnc1

$$$$
