
     RDKit          3D

 37 40  0  0  0  0  0  0  0  0999 V2000
    5.0127    1.8046   16.9169 H   0  0  0  0  0  0  0  0  0  0  0  0
    5.4085    1.2926   17.7922 C   0  0  0  0  0  0  0  0  0  0  0  0
    6.5661    0.6346   17.6217 N   0  0  0  0  0  0  0  0  0  0  0  0
    7.0910    0.0321   18.6970 C   0  0  0  0  0  0  0  0  0  0  0  0
    8.0213   -0.5092   18.5265 H   0  0  0  0  0  0  0  0  0  0  0  0
    6.5062    0.0317   19.9795 C   0  0  0  0  0  0  0  0  0  0  0  0
    7.2681   -0.5443   21.1050 C   0  0  0  0  0  0  0  0  0  0  0  0
    8.6245   -0.4920   21.3533 C   0  0  0  0  0  0  0  0  0  0  0  0
    8.8202   -1.1315   22.5669 C   0  0  0  0  0  0  0  0  0  0  0  0
    7.7028   -1.6095   23.0828 N   0  0  0  0  0  0  0  0  0  0  0  0
    6.7625   -1.2205   22.1805 N   0  0  0  0  0  0  0  0  0  0  0  0
    5.8052   -1.5224   22.3139 H   0  0  0  0  0  0  0  0  0  0  0  0
   10.2594   -1.1203   22.9993 C   0  0  0  0  0  0  0  0  0  0  0  0
   10.3822   -0.7166   24.0100 H   0  0  0  0  0  0  0  0  0  0  0  0
   10.6677   -2.1349   23.0228 H   0  0  0  0  0  0  0  0  0  0  0  0
   10.9682   -0.2481   21.8886 C   0  0  2  0  0  0  0  0  0  0  0  0
   11.8273   -0.7935   21.4894 H   0  0  0  0  0  0  0  0  0  0  0  0
   11.5207    1.0668   22.4157 C   0  0  0  0  0  0  0  0  0  0  0  0
   12.8463    1.2652   22.3311 N   0  0  0  0  0  0  0  0  0  0  0  0
   13.3387    2.4478   22.6897 C   0  0  0  0  0  0  0  0  0  0  0  0
   14.4188    2.5574   22.6198 H   0  0  0  0  0  0  0  0  0  0  0  0
   12.5462    3.5084   23.1319 C   0  0  0  0  0  0  0  0  0  0  0  0
   13.2015    4.8370   23.3542 C   0  0  0  0  0  0  0  0  0  0  0  0
   12.4344    5.8542   22.9174 F   0  0  0  0  0  0  0  0  0  0  0  0
   13.4543    5.0830   24.6499 F   0  0  0  0  0  0  0  0  0  0  0  0
   14.3800    4.9306   22.7053 F   0  0  0  0  0  0  0  0  0  0  0  0
   11.1717    3.2869   23.3053 C   0  0  0  0  0  0  0  0  0  0  0  0
   10.4942    4.0685   23.6535 H   0  0  0  0  0  0  0  0  0  0  0  0
   10.6657    2.0456   22.9466 C   0  0  0  0  0  0  0  0  0  0  0  0
    9.6065    1.8361   23.0219 H   0  0  0  0  0  0  0  0  0  0  0  0
    9.9035   -0.0264   20.7468 C   0  0  0  0  0  0  0  0  0  0  0  0
   10.1445   -0.6302   19.8646 H   0  0  0  0  0  0  0  0  0  0  0  0
    9.8604    1.0148   20.4026 H   0  0  0  0  0  0  0  0  0  0  0  0
    5.2642    0.6787   20.1158 C   0  0  0  0  0  0  0  0  0  0  0  0
    4.7524    0.6932   21.0794 H   0  0  0  0  0  0  0  0  0  0  0  0
    4.7192    1.3314   19.0100 C   0  0  0  0  0  0  0  0  0  0  0  0
    3.7890    1.8877   19.0817 H   0  0  0  0  0  0  0  0  0  0  0  0
  1  2  1  0
  2  3  2  0
  3  4  1  0
  4  5  1  0
  4  6  2  0
  6  7  1  0
  7  8  2  0
  8  9  1  0
  9 10  2  0
 10 11  1  0
 11 12  1  0
  9 13  1  0
 13 14  1  0
 13 15  1  0
 13 16  1  0
 16 17  1  6
 16 18  1  0
 18 19  2  0
 19 20  1  0
 20 21  1  0
 20 22  2  0
 22 23  1  0
 23 24  1  0
 23 25  1  0
 23 26  1  0
 22 27  1  0
 27 28  1  0
 27 29  2  0
 29 30  1  0
 16 31  1  0
 31 32  1  0
 31 33  1  0
  6 34  1  0
 34 35  1  0
 34 36  2  0
 36 37  1  0
 36  2  1  0
 11  7  1  0
 29 18  1  0
 31  8  1  0
M  END
>  <cnnaffinity>  (1) 
-5.54078

>  <filename>  (1) 
FC(F)(F)c1ccc([C@H]2Cc3n[nH]c(-c4cccnc4)c3C2)nc1

$$$$
