
     RDKit          3D

 36 39  0  0  0  0  0  0  0  0999 V2000
    5.0926    1.8457   16.8871 H   0  0  0  0  0  0  0  0  0  0  0  0
    5.4509    1.3276   17.7741 C   0  0  0  0  0  0  0  0  0  0  0  0
    6.5973    0.6415   17.6263 N   0  0  0  0  0  0  0  0  0  0  0  0
    7.0546   -0.0197   18.6951 C   0  0  0  0  0  0  0  0  0  0  0  0
    7.9987   -0.5507   18.5877 H   0  0  0  0  0  0  0  0  0  0  0  0
    6.3838   -0.0781   19.9342 C   0  0  0  0  0  0  0  0  0  0  0  0
    6.8694   -0.9388   21.0305 C   0  0  0  0  0  0  0  0  0  0  0  0
    6.1486   -1.7945   21.7812 C   0  0  0  0  0  0  0  0  0  0  0  0
    5.1113   -2.0602   21.6428 H   0  0  0  0  0  0  0  0  0  0  0  0
    7.0719   -2.5300   23.0621 S   0  0  0  0  0  0  0  0  0  0  0  0
    8.4967   -1.6989   22.5191 C   0  0  0  0  0  0  0  0  0  0  0  0
    9.7915   -1.6729   22.7802 N   0  0  0  0  0  0  0  0  0  0  0  0
   10.2511   -0.8734   21.7766 C   0  0  0  0  0  0  0  0  0  0  0  0
   11.6950   -0.5654   21.5521 C   0  0  0  0  0  0  0  0  0  0  0  0
   11.8880   -0.7517   20.4897 H   0  0  0  0  0  0  0  0  0  0  0  0
   12.2662   -1.3010   22.1263 H   0  0  0  0  0  0  0  0  0  0  0  0
   12.1177    0.8474   21.9229 C   0  0  0  0  0  0  0  0  0  0  0  0
   12.9087    1.0674   23.0538 C   0  0  0  0  0  0  0  0  0  0  0  0
   13.2408    0.2229   23.6530 H   0  0  0  0  0  0  0  0  0  0  0  0
   13.2678    2.3586   23.4340 C   0  0  0  0  0  0  0  0  0  0  0  0
   13.9283    2.4679   24.2733 H   0  0  0  0  0  0  0  0  0  0  0  0
   12.8230    3.4748   22.7121 C   0  0  0  0  0  0  0  0  0  0  0  0
   13.1315    4.8861   23.1853 C   0  0  0  0  0  0  0  0  0  0  0  0
   12.2342    5.7855   22.7363 F   0  0  0  0  0  0  0  0  0  0  0  0
   14.3380    5.3112   22.7658 F   0  0  0  0  0  0  0  0  0  0  0  0
   13.1355    4.9797   24.5320 F   0  0  0  0  0  0  0  0  0  0  0  0
   12.0987    3.2505   21.5329 C   0  0  0  0  0  0  0  0  0  0  0  0
   11.8659    4.0788   20.8769 H   0  0  0  0  0  0  0  0  0  0  0  0
   11.7249    1.9589   21.1601 C   0  0  0  0  0  0  0  0  0  0  0  0
   11.1122    1.8386   20.2766 H   0  0  0  0  0  0  0  0  0  0  0  0
    9.3381   -0.4257   20.9259 N   0  0  0  0  0  0  0  0  0  0  0  0
    8.2027   -0.9474   21.4408 N   0  0  0  0  0  0  0  0  0  0  0  0
    5.2040    0.6763   20.0764 C   0  0  0  0  0  0  0  0  0  0  0  0
    4.6893    0.7278   21.0398 H   0  0  0  0  0  0  0  0  0  0  0  0
    4.7318    1.3899   18.9743 C   0  0  0  0  0  0  0  0  0  0  0  0
    3.8286    1.9933   19.0282 H   0  0  0  0  0  0  0  0  0  0  0  0
  1  2  1  0
  2  3  2  0
  3  4  1  0
  4  5  1  0
  4  6  2  0
  6  7  1  0
  7  8  2  0
  8  9  1  0
  8 10  1  0
 10 11  1  0
 11 12  2  0
 12 13  1  0
 13 14  1  0
 14 15  1  0
 14 16  1  0
 14 17  1  0
 17 18  2  0
 18 19  1  0
 18 20  1  0
 20 21  1  0
 20 22  2  0
 22 23  1  0
 23 24  1  0
 23 25  1  0
 23 26  1  0
 22 27  1  0
 27 28  1  0
 27 29  2  0
 29 30  1  0
 13 31  2  0
 31 32  1  0
  6 33  1  0
 33 34  1  0
 33 35  2  0
 35 36  1  0
 35  2  1  0
 32  7  1  0
 32 11  1  0
 29 17  1  0
M  END
>  <cnnaffinity>  (1) 
-5.62221

>  <filename>  (1) 
FC(F)(F)c1ccc(Cc2nc3scc(-c4cccnc4)n3n2)cc1

$$$$
