
     RDKit          3D

 33 35  0  0  0  0  0  0  0  0999 V2000
    4.9333    1.7942   16.9893 H   0  0  0  0  0  0  0  0  0  0  0  0
    5.4010    1.2969   17.8343 C   0  0  0  0  0  0  0  0  0  0  0  0
    6.5657    0.6828   17.5733 N   0  0  0  0  0  0  0  0  0  0  0  0
    7.1582    0.0413   18.5840 C   0  0  0  0  0  0  0  0  0  0  0  0
    8.1116   -0.4320   18.3597 H   0  0  0  0  0  0  0  0  0  0  0  0
    6.6393   -0.0270   19.8814 C   0  0  0  0  0  0  0  0  0  0  0  0
    7.4125   -0.7431   20.9085 C   0  0  0  0  0  0  0  0  0  0  0  0
    7.8742   -1.9549   20.7261 N   0  0  0  0  0  0  0  0  0  0  0  0
    8.4709   -2.3188   21.9124 O   0  0  0  0  0  0  0  0  0  0  0  0
    8.3792   -1.2973   22.7706 C   0  0  0  0  0  0  0  0  0  0  0  0
    8.8303   -1.4646   23.7376 H   0  0  0  0  0  0  0  0  0  0  0  0
    7.7366   -0.2443   22.2066 C   0  0  0  0  0  0  0  0  0  0  0  0
    7.5004    1.1090   22.8329 C   0  0  0  0  0  0  0  0  0  0  0  0
    8.4556    1.6468   22.8880 H   0  0  0  0  0  0  0  0  0  0  0  0
    6.8654    1.7264   22.1888 H   0  0  0  0  0  0  0  0  0  0  0  0
    6.9144    1.0020   24.2233 C   0  0  0  0  0  0  0  0  0  0  0  0
    7.7499    0.9648   25.3499 C   0  0  0  0  0  0  0  0  0  0  0  0
    8.8285    1.0392   25.2165 H   0  0  0  0  0  0  0  0  0  0  0  0
    7.2207    0.8339   26.6344 C   0  0  0  0  0  0  0  0  0  0  0  0
    7.8914    0.8238   27.4934 H   0  0  0  0  0  0  0  0  0  0  0  0
    5.8288    0.7307   26.8092 C   0  0  0  0  0  0  0  0  0  0  0  0
    5.2471    0.5521   28.1972 C   0  0  0  0  0  0  0  0  0  0  0  0
    4.0000    1.0557   28.2962 F   0  0  0  0  0  0  0  0  0  0  0  0
    5.9954    1.1546   29.1427 F   0  0  0  0  0  0  0  0  0  0  0  0
    5.1672   -0.7505   28.5343 F   0  0  0  0  0  0  0  0  0  0  0  0
    4.9846    0.7270   25.6840 C   0  0  0  0  0  0  0  0  0  0  0  0
    3.9061    0.6266   25.7983 H   0  0  0  0  0  0  0  0  0  0  0  0
    5.5321    0.8645   24.4086 C   0  0  0  0  0  0  0  0  0  0  0  0
    4.8756    0.8566   23.5402 H   0  0  0  0  0  0  0  0  0  0  0  0
    5.4291    0.6342   20.1449 C   0  0  0  0  0  0  0  0  0  0  0  0
    4.9897    0.6332   21.1499 H   0  0  0  0  0  0  0  0  0  0  0  0
    4.8005    1.3032   19.0989 C   0  0  0  0  0  0  0  0  0  0  0  0
    3.8745    1.8411   19.2494 H   0  0  0  0  0  0  0  0  0  0  0  0
  1  2  1  0
  2  3  2  0
  3  4  1  0
  4  5  1  0
  4  6  2  0
  6  7  1  0
  7  8  2  0
  8  9  1  0
  9 10  1  0
 10 11  1  0
 10 12  2  0
 12 13  1  0
 13 14  1  0
 13 15  1  0
 13 16  1  0
 16 17  2  0
 17 18  1  0
 17 19  1  0
 19 20  1  0
 19 21  2  0
 21 22  1  0
 22 23  1  0
 22 24  1  0
 22 25  1  0
 21 26  1  0
 26 27  1  0
 26 28  2  0
 28 29  1  0
  6 30  1  0
 30 31  1  0
 30 32  2  0
 32 33  1  0
 32  2  1  0
 12  7  1  0
 28 16  1  0
M  END
>  <cnnaffinity>  (1) 
-4.99466

>  <filename>  (1) 
FC(F)(F)c1ccc(Cc2conc2-c2cccnc2)cc1

$$$$
