
     RDKit          3D

 25 26  0  0  0  0  0  0  0  0999 V2000
    4.9263    1.8459   16.9681 H   0  0  0  0  0  0  0  0  0  0  0  0
    5.3686    1.2957   17.7972 C   0  0  0  0  0  0  0  0  0  0  0  0
    6.5247    0.6716   17.5242 N   0  0  0  0  0  0  0  0  0  0  0  0
    7.1246    0.0230   18.5252 C   0  0  0  0  0  0  0  0  0  0  0  0
    8.0939   -0.4271   18.3152 H   0  0  0  0  0  0  0  0  0  0  0  0
    6.6045   -0.0553   19.8267 C   0  0  0  0  0  0  0  0  0  0  0  0
    7.6299   -0.7929   21.0712 S   0  0  0  0  0  0  0  0  0  0  0  0
    8.7764    0.8342   21.6509 S   0  0  0  0  0  0  0  0  0  0  0  0
    7.7996    1.4596   23.0099 C   0  0  0  0  0  0  0  0  0  0  0  0
    6.8724    2.3374   22.6531 N   0  0  0  0  0  0  0  0  0  0  0  0
    5.9895    2.7874   23.5484 C   0  0  0  0  0  0  0  0  0  0  0  0
    5.2164    3.4527   23.1584 H   0  0  0  0  0  0  0  0  0  0  0  0
    6.0286    2.4223   24.8943 C   0  0  0  0  0  0  0  0  0  0  0  0
    5.3033    2.8375   25.5835 H   0  0  0  0  0  0  0  0  0  0  0  0
    7.0273    1.5417   25.3073 C   0  0  0  0  0  0  0  0  0  0  0  0
    7.1188    1.2344   26.3520 H   0  0  0  0  0  0  0  0  0  0  0  0
    7.9304    1.0462   24.3548 C   0  0  0  0  0  0  0  0  0  0  0  0
    9.0130    0.0903   24.7429 C   0  0  0  0  0  0  0  0  0  0  0  0
    9.0521   -0.1159   26.0724 F   0  0  0  0  0  0  0  0  0  0  0  0
    8.8358   -1.1117   24.1711 F   0  0  0  0  0  0  0  0  0  0  0  0
   10.2302    0.5361   24.3867 F   0  0  0  0  0  0  0  0  0  0  0  0
    5.3844    0.5751   20.0994 C   0  0  0  0  0  0  0  0  0  0  0  0
    4.9662    0.5580   21.1059 H   0  0  0  0  0  0  0  0  0  0  0  0
    4.7622    1.2741   19.0563 C   0  0  0  0  0  0  0  0  0  0  0  0
    3.8579    1.8502   19.2168 H   0  0  0  0  0  0  0  0  0  0  0  0
  1  2  1  0
  2  3  2  0
  3  4  1  0
  4  5  1  0
  4  6  2  0
  6  7  1  0
  7  8  1  0
  8  9  1  0
  9 10  2  0
 10 11  1  0
 11 12  1  0
 11 13  2  0
 13 14  1  0
 13 15  1  0
 15 16  1  0
 15 17  2  0
 17 18  1  0
 18 19  1  0
 18 20  1  0
 18 21  1  0
  6 22  1  0
 22 23  1  0
 22 24  2  0
 24 25  1  0
 24  2  1  0
 17  9  1  0
M  END
>  <cnnaffinity>  (1) 
-5.03486

>  <filename>  (1) 
FC(F)(F)c1cccnc1SSc1cccnc1

$$$$
