
     RDKit          3D

 32 34  0  0  0  0  0  0  0  0999 V2000
    4.9216    1.8048   16.9667 H   0  0  0  0  0  0  0  0  0  0  0  0
    5.3935    1.3064   17.8130 C   0  0  0  0  0  0  0  0  0  0  0  0
    6.5572    0.6860   17.5597 N   0  0  0  0  0  0  0  0  0  0  0  0
    7.1709    0.0738   18.5805 C   0  0  0  0  0  0  0  0  0  0  0  0
    8.1060   -0.4205   18.3207 H   0  0  0  0  0  0  0  0  0  0  0  0
    6.6688    0.0245   19.8955 C   0  0  0  0  0  0  0  0  0  0  0  0
    7.3390   -0.6982   20.9821 C   0  0  0  0  0  0  0  0  0  0  0  0
    6.8225   -1.2411   22.1019 C   0  0  0  0  0  0  0  0  0  0  0  0
    5.8077   -1.3104   22.4221 H   0  0  0  0  0  0  0  0  0  0  0  0
    7.8362   -1.8369   22.8334 N   0  0  0  0  0  0  0  0  0  0  0  0
    7.6316   -2.4867   24.0952 C   0  0  0  0  0  0  0  0  0  0  0  0
    8.4714   -2.1943   25.1741 C   0  0  0  0  0  0  0  0  0  0  0  0
    9.2778   -1.4811   25.0258 H   0  0  0  0  0  0  0  0  0  0  0  0
    8.2668   -2.8444   26.3923 C   0  0  0  0  0  0  0  0  0  0  0  0
    8.9279   -2.6352   27.2264 H   0  0  0  0  0  0  0  0  0  0  0  0
    7.2342   -3.7765   26.5361 C   0  0  0  0  0  0  0  0  0  0  0  0
    7.1008   -4.2865   27.4862 H   0  0  0  0  0  0  0  0  0  0  0  0
    6.3830   -4.0626   25.4558 C   0  0  0  0  0  0  0  0  0  0  0  0
    5.2235   -5.0284   25.6293 C   0  0  0  0  0  0  0  0  0  0  0  0
    4.9187   -5.6680   24.4847 F   0  0  0  0  0  0  0  0  0  0  0  0
    4.1045   -4.3930   26.0277 F   0  0  0  0  0  0  0  0  0  0  0  0
    5.4806   -5.9734   26.5521 F   0  0  0  0  0  0  0  0  0  0  0  0
    6.5791   -3.4001   24.2339 C   0  0  0  0  0  0  0  0  0  0  0  0
    5.9416   -3.5826   23.3732 H   0  0  0  0  0  0  0  0  0  0  0  0
    9.0285   -1.6850   22.1599 C   0  0  0  0  0  0  0  0  0  0  0  0
   10.5782   -2.1764   22.5004 S   0  0  0  0  0  0  0  0  0  0  0  0
    8.6899   -1.0014   21.0328 N   0  0  0  0  0  0  0  0  0  0  0  0
    9.4321   -0.7264   20.4139 H   0  0  0  0  0  0  0  0  0  0  0  0
    5.4414    0.6713   20.1297 C   0  0  0  0  0  0  0  0  0  0  0  0
    5.0087    0.6678   21.1315 H   0  0  0  0  0  0  0  0  0  0  0  0
    4.7984    1.3240   19.0782 C   0  0  0  0  0  0  0  0  0  0  0  0
    3.8631    1.8526   19.2249 H   0  0  0  0  0  0  0  0  0  0  0  0
  1  2  1  0
  2  3  2  0
  3  4  1  0
  4  5  1  0
  4  6  2  0
  6  7  1  0
  7  8  2  0
  8  9  1  0
  8 10  1  0
 10 11  1  0
 11 12  2  0
 12 13  1  0
 12 14  1  0
 14 15  1  0
 14 16  2  0
 16 17  1  0
 16 18  1  0
 18 19  1  0
 19 20  1  0
 19 21  1  0
 19 22  1  0
 18 23  2  0
 23 24  1  0
 10 25  1  0
 25 26  2  0
 25 27  1  0
 27 28  1  0
  6 29  1  0
 29 30  1  0
 29 31  2  0
 31 32  1  0
 31  2  1  0
 27  7  1  0
 23 11  1  0
M  END
>  <cnnaffinity>  (1) 
-5.7034

>  <filename>  (1) 
FC(F)(F)c1cccc(-n2cc(-c3cccnc3)[nH]c2=S)c1

$$$$
