
     RDKit          3D

 37 39  0  0  0  0  0  0  0  0999 V2000
    8.1199   -4.9611   26.0215 F   0  0  0  0  0  0  0  0  0  0  0  0
    8.6027   -3.7859   26.4811 C   0  0  0  0  0  0  0  0  0  0  0  0
    8.2215   -3.7161   27.7746 F   0  0  0  0  0  0  0  0  0  0  0  0
    9.9335   -3.8509   26.4637 F   0  0  0  0  0  0  0  0  0  0  0  0
    7.9985   -2.6325   25.6843 C   0  0  0  0  0  0  0  0  0  0  0  0
    6.6243   -2.4310   25.8994 C   0  0  0  0  0  0  0  0  0  0  0  0
    5.9255   -1.5340   25.1825 N   0  0  0  0  0  0  0  0  0  0  0  0
    6.6060   -0.8604   24.2480 C   0  0  0  0  0  0  0  0  0  0  0  0
    8.0151   -1.0428   24.0269 C   0  0  0  0  0  0  0  0  0  0  0  0
    8.7063   -0.3246   23.0901 N   0  0  0  0  0  0  0  0  0  0  0  0
   10.1509   -0.1742   23.1630 C   0  0  0  0  0  0  0  0  0  0  0  0
   10.4388    1.0136   22.2465 C   0  0  0  0  0  0  0  0  0  0  0  0
    9.2946    1.0062   21.2279 C   0  0  0  0  0  0  0  0  0  0  0  0
    8.0983    0.3217   21.9245 C   0  0  0  0  0  0  0  0  0  0  0  0
    7.3623   -0.6827   20.9967 C   0  0  0  0  0  0  0  0  0  0  0  0
    6.6316   -0.0184   19.8537 C   0  0  0  0  0  0  0  0  0  0  0  0
    5.4156    0.6421   20.0909 C   0  0  0  0  0  0  0  0  0  0  0  0
    4.7961    1.3164   19.0417 C   0  0  0  0  0  0  0  0  0  0  0  0
    5.4059    1.3140   17.7823 C   0  0  0  0  0  0  0  0  0  0  0  0
    6.5541    0.6715   17.5210 N   0  0  0  0  0  0  0  0  0  0  0  0
    7.1396    0.0289   18.5407 C   0  0  0  0  0  0  0  0  0  0  0  0
    8.0710   -0.4885   18.3031 H   0  0  0  0  0  0  0  0  0  0  0  0
    4.9523    1.8517   16.9525 H   0  0  0  0  0  0  0  0  0  0  0  0
    3.8684    1.8564   19.1902 H   0  0  0  0  0  0  0  0  0  0  0  0
    4.9708    0.6297   21.0912 H   0  0  0  0  0  0  0  0  0  0  0  0
    6.6380   -1.2532   21.5873 H   0  0  0  0  0  0  0  0  0  0  0  0
    8.1016   -1.4054   20.6294 H   0  0  0  0  0  0  0  0  0  0  0  0
    7.3769    1.0869   22.2571 H   0  0  0  0  0  0  0  0  0  0  0  0
    9.0462    2.0129   20.8800 H   0  0  0  0  0  0  0  0  0  0  0  0
    9.5827    0.4238   20.3437 H   0  0  0  0  0  0  0  0  0  0  0  0
   11.4180    0.9279   21.7680 H   0  0  0  0  0  0  0  0  0  0  0  0
   10.4448    1.9418   22.8308 H   0  0  0  0  0  0  0  0  0  0  0  0
   10.6426   -1.1035   22.8409 H   0  0  0  0  0  0  0  0  0  0  0  0
   10.4722    0.0289   24.1905 H   0  0  0  0  0  0  0  0  0  0  0  0
    8.7133   -1.9170   24.7828 N   0  0  0  0  0  0  0  0  0  0  0  0
    6.0672   -0.1267   23.6560 H   0  0  0  0  0  0  0  0  0  0  0  0
    6.0796   -3.0118   26.6353 H   0  0  0  0  0  0  0  0  0  0  0  0
  1  2  1  0
  2  3  1  0
  2  4  1  0
  2  5  1  0
  5  6  2  0
  6  7  1  0
  7  8  2  0
  8  9  1  0
  9 10  1  0
 10 11  1  0
 11 12  1  0
 12 13  1  0
 13 14  1  0
 14 15  1  0
 15 16  1  0
 16 17  2  0
 17 18  1  0
 18 19  2  0
 19 20  1  0
 20 21  2  0
 21 22  1  0
 19 23  1  0
 18 24  1  0
 17 25  1  0
 15 26  1  0
 15 27  1  0
 14 28  1  0
 13 29  1  0
 13 30  1  0
 12 31  1  0
 12 32  1  0
 11 33  1  0
 11 34  1  0
  9 35  2  0
  8 36  1  0
  6 37  1  0
 35  5  1  0
 14 10  1  0
 21 16  1  0
M  END
>  <cnnaffinity>  (1) 
-5.5814

>  <filename>  (1) 
FC(F)(F)c1cncc(N2CCCC2Cc2cccnc2)n1

$$$$
