
     RDKit          3D

 31 33  0  0  0  0  0  0  0  0999 V2000
    9.5322   -6.0946   25.8600 F   0  0  0  0  0  0  0  0  0  0  0  0
    9.7729   -4.8365   26.2787 C   0  0  0  0  0  0  0  0  0  0  0  0
    9.8807   -4.8816   27.6201 F   0  0  0  0  0  0  0  0  0  0  0  0
   10.9772   -4.4906   25.7890 F   0  0  0  0  0  0  0  0  0  0  0  0
    8.6846   -3.8760   25.8289 C   0  0  0  0  0  0  0  0  0  0  0  0
    7.5605   -3.6502   26.6395 C   0  0  0  0  0  0  0  0  0  0  0  0
    6.5417   -2.7976   26.2025 C   0  0  0  0  0  0  0  0  0  0  0  0
    6.6301   -2.1630   24.9625 C   0  0  0  0  0  0  0  0  0  0  0  0
    7.7514   -2.3920   24.1453 C   0  0  0  0  0  0  0  0  0  0  0  0
    7.8679   -1.7706   22.8631 N   0  0  0  0  0  0  0  0  0  0  0  0
    6.8825   -1.1781   22.1488 C   0  0  0  0  0  0  0  0  0  0  0  0
    7.3948   -0.7090   20.9662 C   0  0  0  0  0  0  0  0  0  0  0  0
    6.6651    0.0103   19.8945 C   0  0  0  0  0  0  0  0  0  0  0  0
    5.4421    0.6584   20.1373 C   0  0  0  0  0  0  0  0  0  0  0  0
    4.7982    1.3178   19.0843 C   0  0  0  0  0  0  0  0  0  0  0  0
    5.3856    1.3059   17.8136 C   0  0  0  0  0  0  0  0  0  0  0  0
    6.5445    0.6871   17.5512 N   0  0  0  0  0  0  0  0  0  0  0  0
    7.1550    0.0713   18.5718 C   0  0  0  0  0  0  0  0  0  0  0  0
    8.0970   -0.4140   18.3308 H   0  0  0  0  0  0  0  0  0  0  0  0
    4.9150    1.8109   16.9687 H   0  0  0  0  0  0  0  0  0  0  0  0
    3.8672    1.8474   19.2356 H   0  0  0  0  0  0  0  0  0  0  0  0
    5.0108    0.6580   21.1384 H   0  0  0  0  0  0  0  0  0  0  0  0
    8.7645   -1.0954   21.0617 C   0  0  0  0  0  0  0  0  0  0  0  0
    9.0377   -1.7313   22.1847 N   0  0  0  0  0  0  0  0  0  0  0  0
    9.5574   -0.9122   20.3500 H   0  0  0  0  0  0  0  0  0  0  0  0
    5.8834   -1.1624   22.5344 H   0  0  0  0  0  0  0  0  0  0  0  0
    8.7743   -3.2470   24.5782 C   0  0  0  0  0  0  0  0  0  0  0  0
    9.6220   -3.3776   23.9101 H   0  0  0  0  0  0  0  0  0  0  0  0
    5.8361   -1.4887   24.6453 H   0  0  0  0  0  0  0  0  0  0  0  0
    5.6681   -2.6241   26.8267 H   0  0  0  0  0  0  0  0  0  0  0  0
    7.4800   -4.1321   27.6103 H   0  0  0  0  0  0  0  0  0  0  0  0
  1  2  1  0
  2  3  1  0
  2  4  1  0
  2  5  1  0
  5  6  2  0
  6  7  1  0
  7  8  2  0
  8  9  1  0
  9 10  1  0
 10 11  1  0
 11 12  2  0
 12 13  1  0
 13 14  2  0
 14 15  1  0
 15 16  2  0
 16 17  1  0
 17 18  2  0
 18 19  1  0
 16 20  1  0
 15 21  1  0
 14 22  1  0
 12 23  1  0
 23 24  2  0
 23 25  1  0
 11 26  1  0
  9 27  2  0
 27 28  1  0
  8 29  1  0
  7 30  1  0
  6 31  1  0
 27  5  1  0
 24 10  1  0
 18 13  1  0
M  END
>  <cnnaffinity>  (1) 
-5.18947

>  <filename>  (1) 
FC(F)(F)c1cccc(-n2cc(-c3cccnc3)cn2)c1

$$$$
