
     RDKit          3D

 32 34  0  0  0  0  0  0  0  0999 V2000
    6.6953    0.8326   22.5265 H   0  0  0  0  0  0  0  0  0  0  0  0
    7.1543   -0.1098   22.2590 C   0  0  0  0  0  0  0  0  0  0  0  0
    7.6804   -0.8231   23.2693 N   0  0  0  0  0  0  0  0  0  0  0  0
    8.3343   -1.9565   22.9270 C   0  0  0  0  0  0  0  0  0  0  0  0
    9.0096   -2.8056   23.9560 C   0  0  0  0  0  0  0  0  0  0  0  0
   10.3274   -3.2042   23.6537 C   0  0  0  0  0  0  0  0  0  0  0  0
   10.8085   -2.8517   22.7461 H   0  0  0  0  0  0  0  0  0  0  0  0
   11.0578   -3.9990   24.5289 C   0  0  0  0  0  0  0  0  0  0  0  0
   12.0839   -4.2212   24.2833 H   0  0  0  0  0  0  0  0  0  0  0  0
   10.4737   -4.4906   25.6923 C   0  0  0  0  0  0  0  0  0  0  0  0
   11.0523   -5.1084   26.3724 H   0  0  0  0  0  0  0  0  0  0  0  0
    9.1499   -4.1646   25.9799 C   0  0  0  0  0  0  0  0  0  0  0  0
    8.6674   -4.5983   26.8524 H   0  0  0  0  0  0  0  0  0  0  0  0
    8.4243   -3.2848   25.1545 C   0  0  0  0  0  0  0  0  0  0  0  0
    7.0184   -2.8807   25.5934 C   0  0  0  0  0  0  0  0  0  0  0  0
    6.5631   -3.6454   26.6095 F   0  0  0  0  0  0  0  0  0  0  0  0
    6.1299   -3.0034   24.5893 F   0  0  0  0  0  0  0  0  0  0  0  0
    6.9577   -1.6090   26.0235 F   0  0  0  0  0  0  0  0  0  0  0  0
    8.4793   -2.2981   21.5604 C   0  0  0  0  0  0  0  0  0  0  0  0
    9.0426   -3.1766   21.2799 H   0  0  0  0  0  0  0  0  0  0  0  0
    7.9608   -1.5961   20.5541 N   0  0  0  0  0  0  0  0  0  0  0  0
    7.2333   -0.5118   20.8981 C   0  0  0  0  0  0  0  0  0  0  0  0
    6.5371    0.1746   19.7952 C   0  0  0  0  0  0  0  0  0  0  0  0
    7.0671    0.1220   18.4906 C   0  0  0  0  0  0  0  0  0  0  0  0
    7.9726   -0.4404   18.2891 H   0  0  0  0  0  0  0  0  0  0  0  0
    6.5126    0.7301   17.4400 N   0  0  0  0  0  0  0  0  0  0  0  0
    5.3675    1.3961   17.6441 C   0  0  0  0  0  0  0  0  0  0  0  0
    4.9338    1.8823   16.7731 H   0  0  0  0  0  0  0  0  0  0  0  0
    4.7278    1.4617   18.8849 C   0  0  0  0  0  0  0  0  0  0  0  0
    3.7912    1.9953   18.9802 H   0  0  0  0  0  0  0  0  0  0  0  0
    5.3224    0.8450   19.9832 C   0  0  0  0  0  0  0  0  0  0  0  0
    4.8359    0.8620   20.9603 H   0  0  0  0  0  0  0  0  0  0  0  0
  1  2  1  0
  2  3  2  0
  3  4  1  0
  4  5  1  0
  5  6  2  0
  6  7  1  0
  6  8  1  0
  8  9  1  0
  8 10  2  0
 10 11  1  0
 10 12  1  0
 12 13  1  0
 12 14  2  0
 14 15  1  0
 15 16  1  0
 15 17  1  0
 15 18  1  0
  4 19  2  0
 19 20  1  0
 19 21  1  0
 21 22  2  0
 22 23  1  0
 23 24  2  0
 24 25  1  0
 24 26  1  0
 26 27  2  0
 27 28  1  0
 27 29  1  0
 29 30  1  0
 29 31  2  0
 31 32  1  0
 22  2  1  0
 31 23  1  0
 14  5  1  0
M  END
>  <cnnaffinity>  (1) 
-5.699

>  <filename>  (1) 
FC(F)(F)c1ccccc1-c1cnc(-c2cccnc2)cn1

$$$$
