
     RDKit          3D

 29 31  0  0  0  0  0  0  0  0999 V2000
    9.1686   -3.2557   21.7346 H   0  0  0  0  0  0  0  0  0  0  0  0
    8.5835   -2.3403   21.7342 C   0  0  0  0  0  0  0  0  0  0  0  0
    8.0815   -1.7876   20.6744 N   0  0  0  0  0  0  0  0  0  0  0  0
    7.3444   -0.6704   20.9981 C   0  0  0  0  0  0  0  0  0  0  0  0
    6.5767   -0.0104   19.9414 C   0  0  0  0  0  0  0  0  0  0  0  0
    7.0810   -0.0708   18.6296 C   0  0  0  0  0  0  0  0  0  0  0  0
    7.9753   -0.6571   18.4364 H   0  0  0  0  0  0  0  0  0  0  0  0
    6.5329    0.5555   17.5880 N   0  0  0  0  0  0  0  0  0  0  0  0
    5.4044    1.2479   17.8055 C   0  0  0  0  0  0  0  0  0  0  0  0
    4.9770    1.7538   16.9412 H   0  0  0  0  0  0  0  0  0  0  0  0
    4.7800    1.3182   19.0558 C   0  0  0  0  0  0  0  0  0  0  0  0
    3.8485    1.8641   19.1537 H   0  0  0  0  0  0  0  0  0  0  0  0
    5.3735    0.6862   20.1474 C   0  0  0  0  0  0  0  0  0  0  0  0
    4.9053    0.7284   21.1336 H   0  0  0  0  0  0  0  0  0  0  0  0
    7.3937   -0.3361   22.3290 C   0  0  0  0  0  0  0  0  0  0  0  0
    6.9509    0.9033   22.9574 C   0  0  0  0  0  0  0  0  0  0  0  0
    5.9669    0.7841   23.8604 N   0  0  0  0  0  0  0  0  0  0  0  0
    5.4566    1.8874   24.3947 C   0  0  0  0  0  0  0  0  0  0  0  0
    4.6638    1.7349   25.1224 H   0  0  0  0  0  0  0  0  0  0  0  0
    5.8857    3.1747   24.0561 C   0  0  0  0  0  0  0  0  0  0  0  0
    5.3936    4.0281   24.5036 H   0  0  0  0  0  0  0  0  0  0  0  0
    6.9448    3.3097   23.1694 C   0  0  0  0  0  0  0  0  0  0  0  0
    7.2963    4.3072   22.8977 H   0  0  0  0  0  0  0  0  0  0  0  0
    7.5422    2.1445   22.6731 C   0  0  0  0  0  0  0  0  0  0  0  0
    8.8215    2.1590   21.8841 C   0  0  0  0  0  0  0  0  0  0  0  0
    8.5825    1.9877   20.5733 F   0  0  0  0  0  0  0  0  0  0  0  0
    9.6660    1.1690   22.2333 F   0  0  0  0  0  0  0  0  0  0  0  0
    9.4755    3.3170   22.0423 F   0  0  0  0  0  0  0  0  0  0  0  0
    8.2330   -1.5406   23.2147 S   0  0  0  0  0  0  0  0  0  0  0  0
  1  2  1  0
  2  3  2  0
  3  4  1  0
  4  5  1  0
  5  6  2  0
  6  7  1  0
  6  8  1  0
  8  9  2  0
  9 10  1  0
  9 11  1  0
 11 12  1  0
 11 13  2  0
 13 14  1  0
  4 15  2  0
 15 16  1  0
 16 17  2  0
 17 18  1  0
 18 19  1  0
 18 20  2  0
 20 21  1  0
 20 22  1  0
 22 23  1  0
 22 24  2  0
 24 25  1  0
 25 26  1  0
 25 27  1  0
 25 28  1  0
 15 29  1  0
 29  2  1  0
 13  5  1  0
 24 16  1  0
M  END
>  <cnnaffinity>  (1) 
-4.98954

>  <filename>  (1) 
FC(F)(F)c1cccnc1-c1scnc1-c1cccnc1

$$$$
