
     RDKit          3D

 37 40  0  0  0  0  0  0  0  0999 V2000
    5.0370    1.8311   16.9009 H   0  0  0  0  0  0  0  0  0  0  0  0
    5.4046    1.3064   17.7824 C   0  0  0  0  0  0  0  0  0  0  0  0
    6.5473    0.6215   17.6317 N   0  0  0  0  0  0  0  0  0  0  0  0
    7.0287    0.0008   18.7152 C   0  0  0  0  0  0  0  0  0  0  0  0
    7.9520   -0.5569   18.5714 H   0  0  0  0  0  0  0  0  0  0  0  0
    6.4182   -0.0005   19.9819 C   0  0  0  0  0  0  0  0  0  0  0  0
    7.1872   -0.6178   21.0880 C   0  0  0  0  0  0  0  0  0  0  0  0
    8.5486   -0.5374   21.3394 C   0  0  0  0  0  0  0  0  0  0  0  0
    8.7490   -1.1961   22.5408 C   0  0  0  0  0  0  0  0  0  0  0  0
    7.6444   -1.7283   23.0289 N   0  0  0  0  0  0  0  0  0  0  0  0
    6.7005   -1.3592   22.1268 N   0  0  0  0  0  0  0  0  0  0  0  0
    5.7503   -1.6604   22.2794 H   0  0  0  0  0  0  0  0  0  0  0  0
   10.1655   -1.1112   23.0340 C   0  0  0  0  0  0  0  0  0  0  0  0
   10.6312   -2.1012   23.1148 H   0  0  0  0  0  0  0  0  0  0  0  0
   10.1722   -0.6535   24.0269 H   0  0  0  0  0  0  0  0  0  0  0  0
   10.8782   -0.2459   21.9094 C   0  0  2  0  0  0  0  0  0  0  0  0
   11.6592   -0.8877   21.4954 H   0  0  0  0  0  0  0  0  0  0  0  0
   11.6706    0.9770   22.3917 C   0  0  0  0  0  0  0  0  0  0  0  0
   12.9902    0.7309   22.4797 N   0  0  0  0  0  0  0  0  0  0  0  0
   13.8280    1.7042   22.8310 C   0  0  0  0  0  0  0  0  0  0  0  0
   14.8760    1.4257   22.8830 H   0  0  0  0  0  0  0  0  0  0  0  0
   13.4159    3.0079   23.0953 C   0  0  0  0  0  0  0  0  0  0  0  0
   14.1472    3.7725   23.3210 H   0  0  0  0  0  0  0  0  0  0  0  0
   12.0609    3.2869   23.0603 C   0  0  0  0  0  0  0  0  0  0  0  0
   11.6992    4.2926   23.2774 H   0  0  0  0  0  0  0  0  0  0  0  0
   11.1707    2.2452   22.7463 C   0  0  0  0  0  0  0  0  0  0  0  0
    9.6934    2.4815   22.8507 C   0  0  0  0  0  0  0  0  0  0  0  0
    9.0942    1.4724   23.5099 F   0  0  0  0  0  0  0  0  0  0  0  0
    9.0858    2.5843   21.6519 F   0  0  0  0  0  0  0  0  0  0  0  0
    9.3889    3.6034   23.5243 F   0  0  0  0  0  0  0  0  0  0  0  0
    9.8246   -0.0189   20.7650 C   0  0  0  0  0  0  0  0  0  0  0  0
   10.1070   -0.6273   19.8984 H   0  0  0  0  0  0  0  0  0  0  0  0
    9.7584    1.0102   20.4072 H   0  0  0  0  0  0  0  0  0  0  0  0
    5.1973    0.6868   20.1041 C   0  0  0  0  0  0  0  0  0  0  0  0
    4.6679    0.7166   21.0581 H   0  0  0  0  0  0  0  0  0  0  0  0
    4.6918    1.3565   18.9859 C   0  0  0  0  0  0  0  0  0  0  0  0
    3.7720    1.9319   19.0352 H   0  0  0  0  0  0  0  0  0  0  0  0
  1  2  1  0
  2  3  2  0
  3  4  1  0
  4  5  1  0
  4  6  2  0
  6  7  1  0
  7  8  2  0
  8  9  1  0
  9 10  2  0
 10 11  1  0
 11 12  1  0
  9 13  1  0
 13 14  1  0
 13 15  1  0
 13 16  1  0
 16 17  1  6
 16 18  1  0
 18 19  2  0
 19 20  1  0
 20 21  1  0
 20 22  2  0
 22 23  1  0
 22 24  1  0
 24 25  1  0
 24 26  2  0
 26 27  1  0
 27 28  1  0
 27 29  1  0
 27 30  1  0
 16 31  1  0
 31 32  1  0
 31 33  1  0
  6 34  1  0
 34 35  1  0
 34 36  2  0
 36 37  1  0
 36  2  1  0
 11  7  1  0
 26 18  1  0
 31  8  1  0
M  END
>  <cnnaffinity>  (1) 
-5.92461

>  <filename>  (1) 
FC(F)(F)c1cccnc1[C@H]1Cc2n[nH]c(-c3cccnc3)c2C1

$$$$
