
     RDKit          3D

 33 35  0  0  0  0  0  0  0  0999 V2000
    4.9302    1.7744   16.9984 H   0  0  0  0  0  0  0  0  0  0  0  0
    5.4098    1.2873   17.8453 C   0  0  0  0  0  0  0  0  0  0  0  0
    6.5712    0.6651   17.5990 N   0  0  0  0  0  0  0  0  0  0  0  0
    7.1699    0.0534   18.6245 C   0  0  0  0  0  0  0  0  0  0  0  0
    8.1125   -0.4305   18.3749 H   0  0  0  0  0  0  0  0  0  0  0  0
    6.6467   -0.0022   19.9222 C   0  0  0  0  0  0  0  0  0  0  0  0
    7.3722   -0.7225   20.9955 C   0  0  0  0  0  0  0  0  0  0  0  0
    6.6053   -1.2891   21.9447 N   0  0  0  0  0  0  0  0  0  0  0  0
    7.2004   -1.9543   22.9367 C   0  0  0  0  0  0  0  0  0  0  0  0
    6.3149   -2.6004   23.9868 C   0  0  0  0  0  0  0  0  0  0  0  0
    5.5284   -1.7630   24.7933 C   0  0  0  0  0  0  0  0  0  0  0  0
    5.5135   -0.6990   24.5676 H   0  0  0  0  0  0  0  0  0  0  0  0
    4.6998   -2.2735   25.7914 C   0  0  0  0  0  0  0  0  0  0  0  0
    4.0542   -1.6023   26.3528 H   0  0  0  0  0  0  0  0  0  0  0  0
    4.6916   -3.6436   26.0502 C   0  0  0  0  0  0  0  0  0  0  0  0
    4.0684   -4.0490   26.8432 H   0  0  0  0  0  0  0  0  0  0  0  0
    5.4915   -4.4965   25.2895 C   0  0  0  0  0  0  0  0  0  0  0  0
    5.4857   -5.5641   25.5081 H   0  0  0  0  0  0  0  0  0  0  0  0
    6.2831   -3.9963   24.2397 C   0  0  0  0  0  0  0  0  0  0  0  0
    7.1135   -4.9840   23.4193 C   0  0  0  0  0  0  0  0  0  0  0  0
    7.1770   -4.6644   22.1136 F   0  0  0  0  0  0  0  0  0  0  0  0
    6.6328   -6.2381   23.4764 F   0  0  0  0  0  0  0  0  0  0  0  0
    8.3896   -5.0366   23.8619 F   0  0  0  0  0  0  0  0  0  0  0  0
    8.5970   -2.0253   23.0673 C   0  0  0  0  0  0  0  0  0  0  0  0
    9.0235   -2.5491   23.9136 H   0  0  0  0  0  0  0  0  0  0  0  0
    9.4061   -1.4107   22.1091 C   0  0  0  0  0  0  0  0  0  0  0  0
   10.4943   -1.4479   22.1809 H   0  0  0  0  0  0  0  0  0  0  0  0
    8.7761   -0.7568   21.0511 C   0  0  0  0  0  0  0  0  0  0  0  0
    9.3493   -0.2314   20.2978 H   0  0  0  0  0  0  0  0  0  0  0  0
    5.4275    0.6510   20.1657 C   0  0  0  0  0  0  0  0  0  0  0  0
    4.9946    0.6280   21.1694 H   0  0  0  0  0  0  0  0  0  0  0  0
    4.8091    1.3127   19.1087 C   0  0  0  0  0  0  0  0  0  0  0  0
    3.8751    1.8448   19.2550 H   0  0  0  0  0  0  0  0  0  0  0  0
  1  2  1  0
  2  3  2  0
  3  4  1  0
  4  5  1  0
  4  6  2  0
  6  7  1  0
  7  8  2  0
  8  9  1  0
  9 10  1  0
 10 11  2  0
 11 12  1  0
 11 13  1  0
 13 14  1  0
 13 15  2  0
 15 16  1  0
 15 17  1  0
 17 18  1  0
 17 19  2  0
 19 20  1  0
 20 21  1  0
 20 22  1  0
 20 23  1  0
  9 24  2  0
 24 25  1  0
 24 26  1  0
 26 27  1  0
 26 28  2  0
 28 29  1  0
  6 30  1  0
 30 31  1  0
 30 32  2  0
 32 33  1  0
 32  2  1  0
 28  7  1  0
 19 10  1  0
M  END
>  <cnnaffinity>  (1) 
-5.31314

>  <filename>  (1) 
FC(F)(F)c1ccccc1-c1cccc(-c2cccnc2)n1

$$$$
