
     RDKit          3D

 35 37  0  0  0  0  0  0  0  0999 V2000
    9.2705   -3.3426   21.3176 H   0  0  0  0  0  0  0  0  0  0  0  0
    8.7206   -2.4536   21.5995 C   0  0  0  0  0  0  0  0  0  0  0  0
    8.0997   -1.8093   20.6130 N   0  0  0  0  0  0  0  0  0  0  0  0
    7.4025   -0.7270   20.9640 C   0  0  0  0  0  0  0  0  0  0  0  0
    6.6632   -0.0075   19.9089 C   0  0  0  0  0  0  0  0  0  0  0  0
    7.1785    0.0488   18.6058 C   0  0  0  0  0  0  0  0  0  0  0  0
    8.1246   -0.4323   18.3719 H   0  0  0  0  0  0  0  0  0  0  0  0
    6.5734    0.6771   17.5937 N   0  0  0  0  0  0  0  0  0  0  0  0
    5.4060    1.2876   17.8490 C   0  0  0  0  0  0  0  0  0  0  0  0
    4.9178    1.7735   17.0056 H   0  0  0  0  0  0  0  0  0  0  0  0
    4.8087    1.3046   19.1138 C   0  0  0  0  0  0  0  0  0  0  0  0
    3.8771    1.8412   19.2645 H   0  0  0  0  0  0  0  0  0  0  0  0
    5.4477    0.6487   20.1629 C   0  0  0  0  0  0  0  0  0  0  0  0
    4.9986    0.6323   21.1596 H   0  0  0  0  0  0  0  0  0  0  0  0
    7.3810   -0.2786   22.2788 C   0  0  0  0  0  0  0  0  0  0  0  0
    6.8431    0.6173   22.5499 H   0  0  0  0  0  0  0  0  0  0  0  0
    8.0850   -1.0079   23.2234 C   0  0  0  0  0  0  0  0  0  0  0  0
    8.0554   -0.6043   24.6732 C   0  0  0  0  0  0  0  0  0  0  0  0
    8.9635   -0.9643   25.1622 H   0  0  0  0  0  0  0  0  0  0  0  0
    8.0679    0.4886   24.7539 H   0  0  0  0  0  0  0  0  0  0  0  0
    6.8233   -1.1506   25.3610 C   0  0  0  0  0  0  0  0  0  0  0  0
    6.8338   -2.4494   25.8833 C   0  0  0  0  0  0  0  0  0  0  0  0
    7.7419   -3.0420   25.8167 H   0  0  0  0  0  0  0  0  0  0  0  0
    5.6950   -2.9912   26.4730 C   0  0  0  0  0  0  0  0  0  0  0  0
    5.7235   -4.0025   26.8736 H   0  0  0  0  0  0  0  0  0  0  0  0
    4.5194   -2.2264   26.5435 C   0  0  0  0  0  0  0  0  0  0  0  0
    3.2663   -2.8228   27.1399 C   0  0  0  0  0  0  0  0  0  0  0  0
    3.5294   -3.7177   28.1113 F   0  0  0  0  0  0  0  0  0  0  0  0
    2.5407   -3.4701   26.2059 F   0  0  0  0  0  0  0  0  0  0  0  0
    2.4549   -1.8910   27.6775 F   0  0  0  0  0  0  0  0  0  0  0  0
    4.4847   -0.9387   25.9850 C   0  0  0  0  0  0  0  0  0  0  0  0
    3.5700   -0.3500   26.0037 H   0  0  0  0  0  0  0  0  0  0  0  0
    5.6335   -0.4122   25.4014 C   0  0  0  0  0  0  0  0  0  0  0  0
    5.5989    0.5834   24.9672 H   0  0  0  0  0  0  0  0  0  0  0  0
    8.7528   -2.1180   22.8872 N   0  0  0  0  0  0  0  0  0  0  0  0
  1  2  1  0
  2  3  2  0
  3  4  1  0
  4  5  1  0
  5  6  2  0
  6  7  1  0
  6  8  1  0
  8  9  2  0
  9 10  1  0
  9 11  1  0
 11 12  1  0
 11 13  2  0
 13 14  1  0
  4 15  2  0
 15 16  1  0
 15 17  1  0
 17 18  1  0
 18 19  1  0
 18 20  1  0
 18 21  1  0
 21 22  2  0
 22 23  1  0
 22 24  1  0
 24 25  1  0
 24 26  2  0
 26 27  1  0
 27 28  1  0
 27 29  1  0
 27 30  1  0
 26 31  1  0
 31 32  1  0
 31 33  2  0
 33 34  1  0
 17 35  2  0
 35  2  1  0
 13  5  1  0
 33 21  1  0
M  END
>  <cnnaffinity>  (1) 
-5.59535

>  <filename>  (1) 
FC(F)(F)c1ccc(Cc2cc(-c3cccnc3)ncn2)cc1

$$$$
