
     RDKit          3D

 31 33  0  0  0  0  0  0  0  0999 V2000
    5.7919    4.3365   21.2614 H   0  0  0  0  0  0  0  0  0  0  0  0
    6.2311    3.6967   22.0249 C   0  0  0  0  0  0  0  0  0  0  0  0
    7.2346    2.9211   21.6064 N   0  0  0  0  0  0  0  0  0  0  0  0
    7.7966    2.0680   22.4734 C   0  0  0  0  0  0  0  0  0  0  0  0
    8.8681    1.1769   21.9032 C   0  0  0  0  0  0  0  0  0  0  0  0
   10.1606    1.4085   21.9149 N   0  0  0  0  0  0  0  0  0  0  0  0
   10.7397    0.3577   21.3107 N   0  0  0  0  0  0  0  0  0  0  0  0
    9.8579   -0.4930   20.9235 N   0  0  0  0  0  0  0  0  0  0  0  0
    8.6644   -0.0142   21.2919 N   0  0  0  0  0  0  0  0  0  0  0  0
    7.4138   -0.7052   20.9798 C   0  0  0  0  0  0  0  0  0  0  0  0
    6.8268   -0.7552   21.9032 H   0  0  0  0  0  0  0  0  0  0  0  0
    7.6851   -1.7280   20.6977 H   0  0  0  0  0  0  0  0  0  0  0  0
    6.6321   -0.0127   19.8920 C   0  0  0  0  0  0  0  0  0  0  0  0
    7.1611    0.0617   18.5948 C   0  0  0  0  0  0  0  0  0  0  0  0
    8.1179   -0.4123   18.3793 H   0  0  0  0  0  0  0  0  0  0  0  0
    6.5601    0.6802   17.5720 N   0  0  0  0  0  0  0  0  0  0  0  0
    5.3965    1.2969   17.8334 C   0  0  0  0  0  0  0  0  0  0  0  0
    4.9241    1.7927   16.9885 H   0  0  0  0  0  0  0  0  0  0  0  0
    4.7884    1.3014   19.0930 C   0  0  0  0  0  0  0  0  0  0  0  0
    3.8685    1.8533   19.2476 H   0  0  0  0  0  0  0  0  0  0  0  0
    5.4055    0.6099   20.1374 C   0  0  0  0  0  0  0  0  0  0  0  0
    5.0094    0.6406   21.1574 H   0  0  0  0  0  0  0  0  0  0  0  0
    7.3824    2.0108   23.8270 C   0  0  0  0  0  0  0  0  0  0  0  0
    8.0689    1.0586   24.7769 C   0  0  0  0  0  0  0  0  0  0  0  0
    7.9718   -0.2189   24.3429 F   0  0  0  0  0  0  0  0  0  0  0  0
    7.5446    1.1027   26.0124 F   0  0  0  0  0  0  0  0  0  0  0  0
    9.3786    1.3273   24.8782 F   0  0  0  0  0  0  0  0  0  0  0  0
    6.3572    2.8554   24.2695 C   0  0  0  0  0  0  0  0  0  0  0  0
    6.0440    2.8409   25.3193 H   0  0  0  0  0  0  0  0  0  0  0  0
    5.7679    3.7091   23.3427 C   0  0  0  0  0  0  0  0  0  0  0  0
    4.9791    4.3933   23.6301 H   0  0  0  0  0  0  0  0  0  0  0  0
  1  2  1  0
  2  3  2  0
  3  4  1  0
  4  5  1  0
  5  6  2  0
  6  7  1  0
  7  8  2  0
  8  9  1  0
  9 10  1  0
 10 11  1  0
 10 12  1  0
 10 13  1  0
 13 14  2  0
 14 15  1  0
 14 16  1  0
 16 17  2  0
 17 18  1  0
 17 19  1  0
 19 20  1  0
 19 21  2  0
 21 22  1  0
  4 23  2  0
 23 24  1  0
 24 25  1  0
 24 26  1  0
 24 27  1  0
 23 28  1  0
 28 29  1  0
 28 30  2  0
 30 31  1  0
 30  2  1  0
  9  5  1  0
 21 13  1  0
M  END
>  <cnnaffinity>  (1) 
-5.3573

>  <filename>  (1) 
FC(F)(F)c1cccnc1-c1nnnn1Cc1cccnc1

$$$$
