
     RDKit          3D

 35 37  0  0  0  0  0  0  0  0999 V2000
    5.6490   -1.6747   21.7103 H   0  0  0  0  0  0  0  0  0  0  0  0
    6.7170   -1.5427   21.7952 C   0  0  0  0  0  0  0  0  0  0  0  0
    7.3804   -0.7200   20.9593 C   0  0  0  0  0  0  0  0  0  0  0  0
    6.7036    0.0430   19.9076 C   0  0  0  0  0  0  0  0  0  0  0  0
    7.2030    0.0836   18.5958 C   0  0  0  0  0  0  0  0  0  0  0  0
    8.1333   -0.4246   18.3406 H   0  0  0  0  0  0  0  0  0  0  0  0
    6.5730    0.6753   17.5766 N   0  0  0  0  0  0  0  0  0  0  0  0
    5.4087    1.2895   17.8404 C   0  0  0  0  0  0  0  0  0  0  0  0
    4.9270    1.7817   16.9979 H   0  0  0  0  0  0  0  0  0  0  0  0
    4.8201    1.3125   19.1093 C   0  0  0  0  0  0  0  0  0  0  0  0
    3.8809    1.8316   19.2565 H   0  0  0  0  0  0  0  0  0  0  0  0
    5.4655    0.6628   20.1588 C   0  0  0  0  0  0  0  0  0  0  0  0
    5.0292    0.6278   21.1606 H   0  0  0  0  0  0  0  0  0  0  0  0
    8.7630   -0.6039   21.0865 N   0  0  0  0  0  0  0  0  0  0  0  0
    9.3268    0.0491   20.5736 H   0  0  0  0  0  0  0  0  0  0  0  0
    9.5039   -1.3028   21.9788 C   0  0  0  0  0  0  0  0  0  0  0  0
   11.1494   -1.1191   22.0747 S   0  0  0  0  0  0  0  0  0  0  0  0
    8.8386   -2.1544   22.7730 N   0  0  0  0  0  0  0  0  0  0  0  0
    9.4526   -2.5790   23.4481 H   0  0  0  0  0  0  0  0  0  0  0  0
    7.3766   -2.2054   22.9474 C   0  0  1  0  0  0  0  0  0  0  0  0
    7.1114   -3.2708   22.9640 H   0  0  0  0  0  0  0  0  0  0  0  0
    6.9180   -1.5814   24.2948 C   0  0  0  0  0  0  0  0  0  0  0  0
    7.3762   -0.2957   24.6123 C   0  0  0  0  0  0  0  0  0  0  0  0
    8.0536    0.2057   23.9245 H   0  0  0  0  0  0  0  0  0  0  0  0
    6.9816    0.3478   25.7878 C   0  0  0  0  0  0  0  0  0  0  0  0
    7.3640    1.3421   26.0099 H   0  0  0  0  0  0  0  0  0  0  0  0
    6.1014   -0.2908   26.6637 C   0  0  0  0  0  0  0  0  0  0  0  0
    5.7909    0.1993   27.5829 H   0  0  0  0  0  0  0  0  0  0  0  0
    5.6162   -1.5632   26.3536 C   0  0  0  0  0  0  0  0  0  0  0  0
    4.9245   -2.0563   27.0315 H   0  0  0  0  0  0  0  0  0  0  0  0
    6.0056   -2.2139   25.1699 C   0  0  0  0  0  0  0  0  0  0  0  0
    5.4379   -3.5876   24.8524 C   0  0  0  0  0  0  0  0  0  0  0  0
    6.4014   -4.5353   24.8151 F   0  0  0  0  0  0  0  0  0  0  0  0
    4.5264   -4.0027   25.7463 F   0  0  0  0  0  0  0  0  0  0  0  0
    4.8343   -3.6194   23.6409 F   0  0  0  0  0  0  0  0  0  0  0  0
  1  2  1  0
  2  3  2  0
  3  4  1  0
  4  5  2  0
  5  6  1  0
  5  7  1  0
  7  8  2  0
  8  9  1  0
  8 10  1  0
 10 11  1  0
 10 12  2  0
 12 13  1  0
  3 14  1  0
 14 15  1  0
 14 16  1  0
 16 17  2  0
 16 18  1  0
 18 19  1  0
 18 20  1  0
 20 21  1  1
 20 22  1  0
 22 23  2  0
 23 24  1  0
 23 25  1  0
 25 26  1  0
 25 27  2  0
 27 28  1  0
 27 29  1  0
 29 30  1  0
 29 31  2  0
 31 32  1  0
 32 33  1  0
 32 34  1  0
 32 35  1  0
 20  2  1  0
 31 22  1  0
 12  4  1  0
M  END
>  <cnnaffinity>  (1) 
-5.11414

>  <filename>  (1) 
FC(F)(F)c1ccccc1[C@H]1C=C(c2cccnc2)NC(=S)N1

$$$$
