
     RDKit          3D

 31 33  0  0  0  0  0  0  0  0999 V2000
    4.9222    1.8142   16.9551 H   0  0  0  0  0  0  0  0  0  0  0  0
    5.3797    1.2827   17.7842 C   0  0  0  0  0  0  0  0  0  0  0  0
    6.5271    0.6395   17.5096 N   0  0  0  0  0  0  0  0  0  0  0  0
    7.1386    0.0169   18.5254 C   0  0  0  0  0  0  0  0  0  0  0  0
    8.0875   -0.4586   18.2690 H   0  0  0  0  0  0  0  0  0  0  0  0
    6.6573   -0.0009   19.8571 C   0  0  0  0  0  0  0  0  0  0  0  0
    7.3853   -0.6498   20.9617 C   0  0  0  0  0  0  0  0  0  0  0  0
    7.4633   -0.4004   22.3307 C   0  0  0  0  0  0  0  0  0  0  0  0
    6.9948    0.7988   23.0629 C   0  0  0  0  0  0  0  0  0  0  0  0
    5.9959    0.6573   24.0464 C   0  0  0  0  0  0  0  0  0  0  0  0
    5.6818   -0.3367   24.3505 H   0  0  0  0  0  0  0  0  0  0  0  0
    5.3913    1.7795   24.6106 C   0  0  0  0  0  0  0  0  0  0  0  0
    4.5790    1.6643   25.3222 H   0  0  0  0  0  0  0  0  0  0  0  0
    5.8147    3.0568   24.2386 C   0  0  0  0  0  0  0  0  0  0  0  0
    5.3504    3.9400   24.6628 H   0  0  0  0  0  0  0  0  0  0  0  0
    6.8559    3.2130   23.3261 C   0  0  0  0  0  0  0  0  0  0  0  0
    7.1976    4.2117   23.0633 H   0  0  0  0  0  0  0  0  0  0  0  0
    7.4804    2.0960   22.7611 C   0  0  0  0  0  0  0  0  0  0  0  0
    8.6795    2.3083   21.8367 C   0  0  0  0  0  0  0  0  0  0  0  0
    9.2333    3.5188   21.9973 F   0  0  0  0  0  0  0  0  0  0  0  0
    8.3411    2.1944   20.5395 F   0  0  0  0  0  0  0  0  0  0  0  0
    9.6466    1.3962   22.0501 F   0  0  0  0  0  0  0  0  0  0  0  0
    8.1377   -1.4168   22.9583 N   0  0  0  0  0  0  0  0  0  0  0  0
    8.5134   -2.2337   22.0163 C   0  0  0  0  0  0  0  0  0  0  0  0
    9.0951   -3.1397   22.1682 H   0  0  0  0  0  0  0  0  0  0  0  0
    8.0998   -1.8143   20.7912 N   0  0  0  0  0  0  0  0  0  0  0  0
    8.1031   -2.3682   19.9517 H   0  0  0  0  0  0  0  0  0  0  0  0
    5.4379    0.6605   20.1042 C   0  0  0  0  0  0  0  0  0  0  0  0
    5.0210    0.6657   21.1125 H   0  0  0  0  0  0  0  0  0  0  0  0
    4.7881    1.3043   19.0506 C   0  0  0  0  0  0  0  0  0  0  0  0
    3.8628    1.8485   19.2043 H   0  0  0  0  0  0  0  0  0  0  0  0
  1  2  1  0
  2  3  2  0
  3  4  1  0
  4  5  1  0
  4  6  2  0
  6  7  1  0
  7  8  2  0
  8  9  1  0
  9 10  2  0
 10 11  1  0
 10 12  1  0
 12 13  1  0
 12 14  2  0
 14 15  1  0
 14 16  1  0
 16 17  1  0
 16 18  2  0
 18 19  1  0
 19 20  1  0
 19 21  1  0
 19 22  1  0
  8 23  1  0
 23 24  2  0
 24 25  1  0
 24 26  1  0
 26 27  1  0
  6 28  1  0
 28 29  1  0
 28 30  2  0
 30 31  1  0
 30  2  1  0
 26  7  1  0
 18  9  1  0
M  END
>  <cnnaffinity>  (1) 
-4.51308

>  <filename>  (1) 
FC(F)(F)c1ccccc1-c1nc[nH]c1-c1cccnc1

$$$$
