
     RDKit          3D

 33 35  0  0  0  0  0  0  0  0999 V2000
    4.9182    1.8086   16.9615 H   0  0  0  0  0  0  0  0  0  0  0  0
    5.3863    1.3025   17.8063 C   0  0  0  0  0  0  0  0  0  0  0  0
    6.5457    0.6804   17.5497 N   0  0  0  0  0  0  0  0  0  0  0  0
    7.1668    0.0785   18.5742 C   0  0  0  0  0  0  0  0  0  0  0  0
    8.1143   -0.4036   18.3255 H   0  0  0  0  0  0  0  0  0  0  0  0
    6.6833    0.0491   19.8915 C   0  0  0  0  0  0  0  0  0  0  0  0
    7.3881   -0.7245   20.9855 C   0  0  0  0  0  0  0  0  0  0  0  0
    7.2966   -0.1968   21.9480 H   0  0  0  0  0  0  0  0  0  0  0  0
    8.4756   -0.7624   20.8078 H   0  0  0  0  0  0  0  0  0  0  0  0
    6.8603   -2.1419   21.1530 C   0  0  0  0  0  0  0  0  0  0  0  0
    6.0598   -2.8974   20.2659 C   0  0  0  0  0  0  0  0  0  0  0  0
    5.6903   -2.6274   19.2786 H   0  0  0  0  0  0  0  0  0  0  0  0
    5.7582   -4.0852   20.7646 N   0  0  0  0  0  0  0  0  0  0  0  0
    6.3495   -4.1187   21.9646 N   0  0  0  0  0  0  0  0  0  0  0  0
    6.2869   -4.9908   22.4865 H   0  0  0  0  0  0  0  0  0  0  0  0
    7.0464   -2.9813   22.2540 C   0  0  0  0  0  0  0  0  0  0  0  0
    7.7959   -2.7350   23.5106 C   0  0  0  0  0  0  0  0  0  0  0  0
    8.6953   -1.7349   23.4900 N   0  0  0  0  0  0  0  0  0  0  0  0
    9.3693   -1.4117   24.6045 C   0  0  0  0  0  0  0  0  0  0  0  0
   10.2940   -0.1495   24.5684 C   0  0  0  0  0  0  0  0  0  0  0  0
    9.8130    0.8032   25.3980 F   0  0  0  0  0  0  0  0  0  0  0  0
   11.5363   -0.4174   25.0174 F   0  0  0  0  0  0  0  0  0  0  0  0
   10.4296    0.4017   23.3537 F   0  0  0  0  0  0  0  0  0  0  0  0
    9.1882   -2.1171   25.8084 C   0  0  0  0  0  0  0  0  0  0  0  0
    9.6900   -1.8000   26.7186 H   0  0  0  0  0  0  0  0  0  0  0  0
    8.2926   -3.1919   25.8230 C   0  0  0  0  0  0  0  0  0  0  0  0
    8.1547   -3.7757   26.7325 H   0  0  0  0  0  0  0  0  0  0  0  0
    7.5662   -3.4970   24.6728 C   0  0  0  0  0  0  0  0  0  0  0  0
    6.7999   -4.2683   24.6718 H   0  0  0  0  0  0  0  0  0  0  0  0
    5.4504    0.6815   20.1257 C   0  0  0  0  0  0  0  0  0  0  0  0
    5.0111    0.6555   21.1229 H   0  0  0  0  0  0  0  0  0  0  0  0
    4.7934    1.3254   19.0714 C   0  0  0  0  0  0  0  0  0  0  0  0
    3.8513    1.8477   19.2155 H   0  0  0  0  0  0  0  0  0  0  0  0
  1  2  1  0
  2  3  2  0
  3  4  1  0
  4  5  1  0
  4  6  2  0
  6  7  1  0
  7  8  1  0
  7  9  1  0
  7 10  1  0
 10 11  1  0
 11 12  1  0
 11 13  2  0
 13 14  1  0
 14 15  1  0
 14 16  1  0
 16 17  1  0
 17 18  2  0
 18 19  1  0
 19 20  1  0
 20 21  1  0
 20 22  1  0
 20 23  1  0
 19 24  2  0
 24 25  1  0
 24 26  1  0
 26 27  1  0
 26 28  2  0
 28 29  1  0
  6 30  1  0
 30 31  1  0
 30 32  2  0
 32 33  1  0
 32  2  1  0
 16 10  2  0
 28 17  1  0
M  END
>  <cnnaffinity>  (1) 
-5.64954

>  <filename>  (1) 
FC(F)(F)c1cccc(-c2[nH]ncc2Cc2cccnc2)n1

$$$$
