
     RDKit          3D

 30 32  0  0  0  0  0  0  0  0999 V2000
    9.2768   -2.4994   23.6797 H   0  0  0  0  0  0  0  0  0  0  0  0
    8.7041   -1.9791   22.9225 C   0  0  0  0  0  0  0  0  0  0  0  0
    9.2291   -1.9632   21.6948 N   0  0  0  0  0  0  0  0  0  0  0  0
    8.5672   -1.3293   20.7169 N   0  0  0  0  0  0  0  0  0  0  0  0
    7.3950   -0.7220   20.9873 C   0  0  0  0  0  0  0  0  0  0  0  0
    6.6661   -0.0014   19.9180 C   0  0  0  0  0  0  0  0  0  0  0  0
    7.1843    0.0500   18.6177 C   0  0  0  0  0  0  0  0  0  0  0  0
    8.1283   -0.4333   18.3821 H   0  0  0  0  0  0  0  0  0  0  0  0
    6.5744    0.6667   17.6010 N   0  0  0  0  0  0  0  0  0  0  0  0
    5.4109    1.2837   17.8509 C   0  0  0  0  0  0  0  0  0  0  0  0
    4.9254    1.7715   17.0059 H   0  0  0  0  0  0  0  0  0  0  0  0
    4.8130    1.3038   19.1146 C   0  0  0  0  0  0  0  0  0  0  0  0
    3.8797    1.8395   19.2617 H   0  0  0  0  0  0  0  0  0  0  0  0
    5.4421    0.6485   20.1682 C   0  0  0  0  0  0  0  0  0  0  0  0
    5.0037    0.6332   21.1688 H   0  0  0  0  0  0  0  0  0  0  0  0
    6.8208   -0.7207   22.2080 N   0  0  0  0  0  0  0  0  0  0  0  0
    7.4660   -1.3536   23.1906 C   0  0  0  0  0  0  0  0  0  0  0  0
    6.8893   -1.3697   24.5967 C   0  0  0  0  0  0  0  0  0  0  0  0
    6.7181   -0.1630   25.1521 N   0  0  0  0  0  0  0  0  0  0  0  0
    6.2315   -0.0744   26.3922 C   0  0  0  0  0  0  0  0  0  0  0  0
    6.0779    0.9308   26.7739 H   0  0  0  0  0  0  0  0  0  0  0  0
    5.9205   -1.1881   27.1703 C   0  0  0  0  0  0  0  0  0  0  0  0
    5.5383   -1.0634   28.1740 H   0  0  0  0  0  0  0  0  0  0  0  0
    6.1052   -2.4507   26.6254 C   0  0  0  0  0  0  0  0  0  0  0  0
    5.8669   -3.3391   27.2106 H   0  0  0  0  0  0  0  0  0  0  0  0
    6.5734   -2.5526   25.3091 C   0  0  0  0  0  0  0  0  0  0  0  0
    6.7268   -3.9274   24.7023 C   0  0  0  0  0  0  0  0  0  0  0  0
    5.9360   -4.8410   25.2938 F   0  0  0  0  0  0  0  0  0  0  0  0
    6.4399   -3.9553   23.3906 F   0  0  0  0  0  0  0  0  0  0  0  0
    7.9951   -4.3725   24.8250 F   0  0  0  0  0  0  0  0  0  0  0  0
  1  2  1  0
  2  3  2  0
  3  4  1  0
  4  5  2  0
  5  6  1  0
  6  7  2  0
  7  8  1  0
  7  9  1  0
  9 10  2  0
 10 11  1  0
 10 12  1  0
 12 13  1  0
 12 14  2  0
 14 15  1  0
  5 16  1  0
 16 17  2  0
 17 18  1  0
 18 19  2  0
 19 20  1  0
 20 21  1  0
 20 22  2  0
 22 23  1  0
 22 24  1  0
 24 25  1  0
 24 26  2  0
 26 27  1  0
 27 28  1  0
 27 29  1  0
 27 30  1  0
 17  2  1  0
 26 18  1  0
 14  6  1  0
M  END
>  <cnnaffinity>  (1) 
-5.55004

>  <filename>  (1) 
FC(F)(F)c1cccnc1-c1cnnc(-c2cccnc2)n1

$$$$
