
     RDKit          3D

 31 33  0  0  0  0  0  0  0  0999 V2000
    4.9282    1.7832   16.9949 H   0  0  0  0  0  0  0  0  0  0  0  0
    5.4073    1.2888   17.8367 C   0  0  0  0  0  0  0  0  0  0  0  0
    6.5690    0.6703   17.5757 N   0  0  0  0  0  0  0  0  0  0  0  0
    7.1802    0.0562   18.5962 C   0  0  0  0  0  0  0  0  0  0  0  0
    8.1259   -0.4264   18.3676 H   0  0  0  0  0  0  0  0  0  0  0  0
    6.6661    0.0044   19.9069 C   0  0  0  0  0  0  0  0  0  0  0  0
    7.3728   -0.7054   20.9829 C   0  0  0  0  0  0  0  0  0  0  0  0
    8.5795   -1.3394   20.8362 N   0  0  0  0  0  0  0  0  0  0  0  0
    8.9296   -1.8652   21.9578 N   0  0  0  0  0  0  0  0  0  0  0  0
    7.9731   -1.5921   22.8693 N   0  0  0  0  0  0  0  0  0  0  0  0
    8.0645   -2.0433   24.2283 C   0  0  0  0  0  0  0  0  0  0  0  0
    9.0308   -2.9927   24.5868 C   0  0  0  0  0  0  0  0  0  0  0  0
    9.7210   -3.3723   23.8340 H   0  0  0  0  0  0  0  0  0  0  0  0
    9.0891   -3.4226   25.9144 C   0  0  0  0  0  0  0  0  0  0  0  0
    9.8402   -4.1514   26.1928 H   0  0  0  0  0  0  0  0  0  0  0  0
    8.2059   -2.9314   26.8766 C   0  0  0  0  0  0  0  0  0  0  0  0
    8.2400   -3.2806   27.9023 H   0  0  0  0  0  0  0  0  0  0  0  0
    7.2536   -1.9866   26.4950 C   0  0  0  0  0  0  0  0  0  0  0  0
    6.4215   -1.5605   27.5311 O   0  0  0  0  0  0  0  0  0  0  0  0
    5.4385   -0.6519   27.3494 C   0  0  0  0  0  0  0  0  0  0  0  0
    5.8843    0.5421   26.9195 F   0  0  0  0  0  0  0  0  0  0  0  0
    4.8522   -0.4843   28.5272 F   0  0  0  0  0  0  0  0  0  0  0  0
    4.5095   -1.0399   26.4574 F   0  0  0  0  0  0  0  0  0  0  0  0
    7.1656   -1.5296   25.1815 C   0  0  0  0  0  0  0  0  0  0  0  0
    6.4145   -0.7893   24.9283 H   0  0  0  0  0  0  0  0  0  0  0  0
    6.9848   -0.8712   22.2844 C   0  0  0  0  0  0  0  0  0  0  0  0
    6.1059   -0.5472   22.8229 H   0  0  0  0  0  0  0  0  0  0  0  0
    5.4417    0.6512   20.1569 C   0  0  0  0  0  0  0  0  0  0  0  0
    4.9918    0.6492   21.1520 H   0  0  0  0  0  0  0  0  0  0  0  0
    4.8101    1.3067   19.1027 C   0  0  0  0  0  0  0  0  0  0  0  0
    3.8787    1.8385   19.2551 H   0  0  0  0  0  0  0  0  0  0  0  0
  1  2  1  0
  2  3  2  0
  3  4  1  0
  4  5  1  0
  4  6  2  0
  6  7  1  0
  7  8  1  0
  8  9  2  0
  9 10  1  0
 10 11  1  0
 11 12  2  0
 12 13  1  0
 12 14  1  0
 14 15  1  0
 14 16  2  0
 16 17  1  0
 16 18  1  0
 18 19  1  0
 19 20  1  0
 20 21  1  0
 20 22  1  0
 20 23  1  0
 18 24  2  0
 24 25  1  0
 10 26  1  0
 26 27  1  0
  6 28  1  0
 28 29  1  0
 28 30  2  0
 30 31  1  0
 30  2  1  0
 26  7  2  0
 24 11  1  0
M  END
>  <cnnaffinity>  (1) 
-5.19203

>  <filename>  (1) 
FC(F)(F)Oc1cccc(-n2cc(-c3cccnc3)nn2)c1

$$$$
