
     RDKit          3D

 32 34  0  0  0  0  0  0  0  0999 V2000
    4.9206    1.8020   16.9718 H   0  0  0  0  0  0  0  0  0  0  0  0
    5.3891    1.3030   17.8181 C   0  0  0  0  0  0  0  0  0  0  0  0
    6.5518    0.6841   17.5587 N   0  0  0  0  0  0  0  0  0  0  0  0
    7.1556    0.0719   18.5828 C   0  0  0  0  0  0  0  0  0  0  0  0
    8.0986   -0.4185   18.3504 H   0  0  0  0  0  0  0  0  0  0  0  0
    6.6568    0.0116   19.8986 C   0  0  0  0  0  0  0  0  0  0  0  0
    7.3940   -0.7054   20.9568 C   0  0  0  0  0  0  0  0  0  0  0  0
    8.7946   -1.0151   21.0184 C   0  0  0  0  0  0  0  0  0  0  0  0
    9.5192   -0.7211   20.2710 H   0  0  0  0  0  0  0  0  0  0  0  0
    9.0304   -1.6792   22.1919 C   0  0  0  0  0  0  0  0  0  0  0  0
    9.9394   -2.0533   22.6471 H   0  0  0  0  0  0  0  0  0  0  0  0
    7.8286   -1.8058   22.8781 N   0  0  0  0  0  0  0  0  0  0  0  0
    7.6177   -2.4310   24.1478 C   0  0  0  0  0  0  0  0  0  0  0  0
    6.5882   -2.0066   25.0102 C   0  0  0  0  0  0  0  0  0  0  0  0
    5.9307   -1.1912   24.7171 H   0  0  0  0  0  0  0  0  0  0  0  0
    6.4233   -2.6252   26.2542 C   0  0  0  0  0  0  0  0  0  0  0  0
    5.6278   -2.2935   26.9199 H   0  0  0  0  0  0  0  0  0  0  0  0
    7.2643   -3.6708   26.6493 C   0  0  0  0  0  0  0  0  0  0  0  0
    7.1260   -4.1481   27.6175 H   0  0  0  0  0  0  0  0  0  0  0  0
    8.2818   -4.1102   25.7857 C   0  0  0  0  0  0  0  0  0  0  0  0
    9.2351   -5.2140   26.2168 C   0  0  0  0  0  0  0  0  0  0  0  0
    8.6547   -6.0617   27.0879 F   0  0  0  0  0  0  0  0  0  0  0  0
    9.6659   -5.9446   25.1681 F   0  0  0  0  0  0  0  0  0  0  0  0
   10.3319   -4.7175   26.8224 F   0  0  0  0  0  0  0  0  0  0  0  0
    8.4535   -3.4863   24.5413 C   0  0  0  0  0  0  0  0  0  0  0  0
    9.2296   -3.8126   23.8545 H   0  0  0  0  0  0  0  0  0  0  0  0
    6.8604   -1.2186   22.1048 C   0  0  0  0  0  0  0  0  0  0  0  0
    5.8378   -1.2555   22.4190 H   0  0  0  0  0  0  0  0  0  0  0  0
    5.4308    0.6590   20.1415 C   0  0  0  0  0  0  0  0  0  0  0  0
    4.9992    0.6624   21.1440 H   0  0  0  0  0  0  0  0  0  0  0  0
    4.7971    1.3171   19.0864 C   0  0  0  0  0  0  0  0  0  0  0  0
    3.8660    1.8490   19.2360 H   0  0  0  0  0  0  0  0  0  0  0  0
  1  2  1  0
  2  3  2  0
  3  4  1  0
  4  5  1  0
  4  6  2  0
  6  7  1  0
  7  8  1  0
  8  9  1  0
  8 10  2  0
 10 11  1  0
 10 12  1  0
 12 13  1  0
 13 14  2  0
 14 15  1  0
 14 16  1  0
 16 17  1  0
 16 18  2  0
 18 19  1  0
 18 20  1  0
 20 21  1  0
 21 22  1  0
 21 23  1  0
 21 24  1  0
 20 25  2  0
 25 26  1  0
 12 27  1  0
 27 28  1  0
  6 29  1  0
 29 30  1  0
 29 31  2  0
 31 32  1  0
 31  2  1  0
 27  7  2  0
 25 13  1  0
M  END
>  <cnnaffinity>  (1) 
-5.10059

>  <filename>  (1) 
FC(F)(F)c1cccc(-n2ccc(-c3cccnc3)c2)c1

$$$$
