
     RDKit          3D

 33 35  0  0  0  0  0  0  0  0999 V2000
    4.9099    1.7823   16.9964 H   0  0  0  0  0  0  0  0  0  0  0  0
    5.3976    1.2970   17.8379 C   0  0  0  0  0  0  0  0  0  0  0  0
    6.5628    0.6827   17.5734 N   0  0  0  0  0  0  0  0  0  0  0  0
    7.1728    0.0622   18.5907 C   0  0  0  0  0  0  0  0  0  0  0  0
    8.1203   -0.4309   18.3780 H   0  0  0  0  0  0  0  0  0  0  0  0
    6.6648   -0.0094   19.9131 C   0  0  0  0  0  0  0  0  0  0  0  0
    7.3261   -0.7156   20.9251 N   0  0  0  0  0  0  0  0  0  0  0  0
    6.7670   -1.0722   21.6962 H   0  0  0  0  0  0  0  0  0  0  0  0
    8.7127   -0.7754   21.0994 C   0  0  0  0  0  0  0  0  0  0  0  0
    9.7029    0.1324   20.6651 C   0  0  0  0  0  0  0  0  0  0  0  0
    9.5316    1.0142   20.0734 H   0  0  0  0  0  0  0  0  0  0  0  0
   10.9137   -0.1973   21.0977 N   0  0  0  0  0  0  0  0  0  0  0  0
   10.7068   -1.3157   21.8022 N   0  0  0  0  0  0  0  0  0  0  0  0
   11.4943   -1.7766   22.2294 H   0  0  0  0  0  0  0  0  0  0  0  0
    9.4097   -1.7243   21.8270 C   0  0  0  0  0  0  0  0  0  0  0  0
    8.9314   -2.9156   22.5261 C   0  0  0  0  0  0  0  0  0  0  0  0
    9.4927   -3.3099   23.7531 C   0  0  0  0  0  0  0  0  0  0  0  0
   10.3032   -2.7275   24.1862 H   0  0  0  0  0  0  0  0  0  0  0  0
    8.9946   -4.4220   24.4221 C   0  0  0  0  0  0  0  0  0  0  0  0
    9.4278   -4.7162   25.3721 H   0  0  0  0  0  0  0  0  0  0  0  0
    7.9439   -5.1636   23.8761 C   0  0  0  0  0  0  0  0  0  0  0  0
    7.5604   -6.0232   24.4163 H   0  0  0  0  0  0  0  0  0  0  0  0
    7.3942   -4.7920   22.6387 C   0  0  0  0  0  0  0  0  0  0  0  0
    6.2300   -5.5609   22.0602 C   0  0  0  0  0  0  0  0  0  0  0  0
    6.2179   -6.8479   22.4537 F   0  0  0  0  0  0  0  0  0  0  0  0
    6.2364   -5.5636   20.7121 F   0  0  0  0  0  0  0  0  0  0  0  0
    5.0510   -5.0258   22.4348 F   0  0  0  0  0  0  0  0  0  0  0  0
    7.8747   -3.6585   21.9737 C   0  0  0  0  0  0  0  0  0  0  0  0
    7.4588   -3.3402   21.0188 H   0  0  0  0  0  0  0  0  0  0  0  0
    5.4443    0.6357   20.1630 C   0  0  0  0  0  0  0  0  0  0  0  0
    5.0161    0.6230   21.1680 H   0  0  0  0  0  0  0  0  0  0  0  0
    4.8119    1.3067   19.1115 C   0  0  0  0  0  0  0  0  0  0  0  0
    3.8779    1.8404   19.2654 H   0  0  0  0  0  0  0  0  0  0  0  0
  1  2  1  0
  2  3  2  0
  3  4  1  0
  4  5  1  0
  4  6  2  0
  6  7  1  0
  7  8  1  0
  7  9  1  0
  9 10  1  0
 10 11  1  0
 10 12  2  0
 12 13  1  0
 13 14  1  0
 13 15  1  0
 15 16  1  0
 16 17  2  0
 17 18  1  0
 17 19  1  0
 19 20  1  0
 19 21  2  0
 21 22  1  0
 21 23  1  0
 23 24  1  0
 24 25  1  0
 24 26  1  0
 24 27  1  0
 23 28  2  0
 28 29  1  0
  6 30  1  0
 30 31  1  0
 30 32  2  0
 32 33  1  0
 32  2  1  0
 15  9  2  0
 28 16  1  0
M  END
>  <cnnaffinity>  (1) 
-6.08256

>  <filename>  (1) 
FC(F)(F)c1cccc(-c2[nH]ncc2Nc2cccnc2)c1

$$$$
