
     RDKit          3D

 31 33  0  0  0  0  0  0  0  0999 V2000
    4.9622    1.8103   16.9942 H   0  0  0  0  0  0  0  0  0  0  0  0
    5.4055    1.2882   17.8364 C   0  0  0  0  0  0  0  0  0  0  0  0
    6.5760    0.6763   17.6014 N   0  0  0  0  0  0  0  0  0  0  0  0
    7.1882    0.0731   18.6266 C   0  0  0  0  0  0  0  0  0  0  0  0
    8.1467   -0.3920   18.3912 H   0  0  0  0  0  0  0  0  0  0  0  0
    6.6557    0.0372   19.9337 C   0  0  0  0  0  0  0  0  0  0  0  0
    7.3324   -0.6542   20.9936 N   0  0  0  0  0  0  0  0  0  0  0  0
    7.6888   -1.9761   20.9510 C   0  0  0  0  0  0  0  0  0  0  0  0
    7.3858   -2.5918   20.1236 H   0  0  0  0  0  0  0  0  0  0  0  0
    8.2489   -2.3981   22.0505 N   0  0  0  0  0  0  0  0  0  0  0  0
    8.2151   -1.3217   22.8911 C   0  0  0  0  0  0  0  0  0  0  0  0
    8.5648   -1.3945   23.9107 H   0  0  0  0  0  0  0  0  0  0  0  0
    7.6458   -0.2283   22.2873 C   0  0  0  0  0  0  0  0  0  0  0  0
    7.3377    1.0919   22.8388 C   0  0  0  0  0  0  0  0  0  0  0  0
    7.5708    2.2619   22.0981 C   0  0  0  0  0  0  0  0  0  0  0  0
    7.9314    2.1522   21.0813 H   0  0  0  0  0  0  0  0  0  0  0  0
    7.3035    3.5081   22.6570 C   0  0  0  0  0  0  0  0  0  0  0  0
    7.5012    4.4016   22.0768 H   0  0  0  0  0  0  0  0  0  0  0  0
    6.7885    3.6092   23.9530 C   0  0  0  0  0  0  0  0  0  0  0  0
    6.5742    4.5930   24.3623 H   0  0  0  0  0  0  0  0  0  0  0  0
    6.5354    2.4454   24.6989 C   0  0  0  0  0  0  0  0  0  0  0  0
    6.0300    2.5104   26.1278 C   0  0  0  0  0  0  0  0  0  0  0  0
    7.0477    2.5097   27.0116 F   0  0  0  0  0  0  0  0  0  0  0  0
    5.3004    3.6141   26.3750 F   0  0  0  0  0  0  0  0  0  0  0  0
    5.2520    1.4535   26.4353 F   0  0  0  0  0  0  0  0  0  0  0  0
    6.8090    1.1926   24.1333 C   0  0  0  0  0  0  0  0  0  0  0  0
    6.5690    0.2716   24.6604 H   0  0  0  0  0  0  0  0  0  0  0  0
    5.4159    0.6564   20.1516 C   0  0  0  0  0  0  0  0  0  0  0  0
    4.9842    0.6512   21.1518 H   0  0  0  0  0  0  0  0  0  0  0  0
    4.7825    1.2980   19.0868 C   0  0  0  0  0  0  0  0  0  0  0  0
    3.8450    1.8318   19.2217 H   0  0  0  0  0  0  0  0  0  0  0  0
  1  2  1  0
  2  3  2  0
  3  4  1  0
  4  5  1  0
  4  6  2  0
  6  7  1  0
  7  8  1  0
  8  9  1  0
  8 10  2  0
 10 11  1  0
 11 12  1  0
 11 13  2  0
 13 14  1  0
 14 15  2  0
 15 16  1  0
 15 17  1  0
 17 18  1  0
 17 19  2  0
 19 20  1  0
 19 21  1  0
 21 22  1  0
 22 23  1  0
 22 24  1  0
 22 25  1  0
 21 26  2  0
 26 27  1  0
  6 28  1  0
 28 29  1  0
 28 30  2  0
 30 31  1  0
 30  2  1  0
 13  7  1  0
 26 14  1  0
M  END
>  <cnnaffinity>  (1) 
-5.10085

>  <filename>  (1) 
FC(F)(F)c1cccc(-c2cncn2-c2cccnc2)c1

$$$$
