
     RDKit          3D

 34 36  0  0  0  0  0  0  0  0999 V2000
    5.1349    1.7154   16.8386 H   0  0  0  0  0  0  0  0  0  0  0  0
    5.5259    1.2416   17.7381 C   0  0  0  0  0  0  0  0  0  0  0  0
    6.6752    0.5615   17.5979 N   0  0  0  0  0  0  0  0  0  0  0  0
    7.1901   -0.0057   18.6971 C   0  0  0  0  0  0  0  0  0  0  0  0
    8.1312   -0.5474   18.5669 H   0  0  0  0  0  0  0  0  0  0  0  0
    6.6100    0.0545   19.9779 C   0  0  0  0  0  0  0  0  0  0  0  0
    7.2837   -0.6087   21.1550 C   0  0  0  0  0  0  0  0  0  0  0  0
    7.9015   -1.4255   20.7712 H   0  0  0  0  0  0  0  0  0  0  0  0
    6.5281   -1.0873   21.7920 H   0  0  0  0  0  0  0  0  0  0  0  0
    8.1662    0.2666   22.0794 C   0  0  0  0  0  0  0  0  0  0  0  0
    9.0141   -0.6187   22.9782 C   0  0  0  0  0  0  0  0  0  0  0  0
    8.5216   -1.0073   24.2375 C   0  0  0  0  0  0  0  0  0  0  0  0
    7.7108   -0.4367   24.6759 H   0  0  0  0  0  0  0  0  0  0  0  0
    9.0106   -2.1349   24.9038 C   0  0  0  0  0  0  0  0  0  0  0  0
    8.5780   -2.4341   25.8567 H   0  0  0  0  0  0  0  0  0  0  0  0
   10.0563   -2.8689   24.3375 C   0  0  0  0  0  0  0  0  0  0  0  0
   10.4074   -3.7850   24.8081 H   0  0  0  0  0  0  0  0  0  0  0  0
   10.6525   -2.4306   23.1557 C   0  0  0  0  0  0  0  0  0  0  0  0
   11.5220   -2.9623   22.7687 H   0  0  0  0  0  0  0  0  0  0  0  0
   10.1626   -1.2859   22.4959 C   0  0  0  0  0  0  0  0  0  0  0  0
   10.8777   -0.7301   21.2847 C   0  0  0  0  0  0  0  0  0  0  0  0
   11.3814    0.5032   21.5124 F   0  0  0  0  0  0  0  0  0  0  0  0
   10.0407   -0.6087   20.2272 F   0  0  0  0  0  0  0  0  0  0  0  0
   11.9070   -1.4964   20.8914 F   0  0  0  0  0  0  0  0  0  0  0  0
    8.6186    1.6370   21.6431 C   0  0  0  0  0  0  0  0  0  0  0  0
    8.3099    1.9488   20.6460 H   0  0  0  0  0  0  0  0  0  0  0  0
    9.5907    2.0022   21.9617 H   0  0  0  0  0  0  0  0  0  0  0  0
    7.5392    1.5071   22.6731 C   0  0  0  0  0  0  0  0  0  0  0  0
    6.5296    1.7678   22.3682 H   0  0  0  0  0  0  0  0  0  0  0  0
    7.7703    1.7658   23.7051 H   0  0  0  0  0  0  0  0  0  0  0  0
    5.3893    0.7411   20.0882 C   0  0  0  0  0  0  0  0  0  0  0  0
    4.8737    0.7947   21.0503 H   0  0  0  0  0  0  0  0  0  0  0  0
    4.8434    1.3469   18.9539 C   0  0  0  0  0  0  0  0  0  0  0  0
    3.9193    1.9144   19.0022 H   0  0  0  0  0  0  0  0  0  0  0  0
  1  2  1  0
  2  3  2  0
  3  4  1  0
  4  5  1  0
  4  6  2  0
  6  7  1  0
  7  8  1  0
  7  9  1  0
  7 10  1  0
 10 11  1  0
 11 12  2  0
 12 13  1  0
 12 14  1  0
 14 15  1  0
 14 16  2  0
 16 17  1  0
 16 18  1  0
 18 19  1  0
 18 20  2  0
 20 21  1  0
 21 22  1  0
 21 23  1  0
 21 24  1  0
 10 25  1  0
 25 26  1  0
 25 27  1  0
 25 28  1  0
 28 29  1  0
 28 30  1  0
  6 31  1  0
 31 32  1  0
 31 33  2  0
 33 34  1  0
 33  2  1  0
 28 10  1  0
 20 11  1  0
M  END
>  <cnnaffinity>  (1) 
-5.12885

>  <filename>  (1) 
FC(F)(F)c1ccccc1C1(Cc2cccnc2)CC1

$$$$
