
     RDKit          3D

 38 40  0  0  0  0  0  0  0  0999 V2000
    4.2616    4.0700   26.1147 F   0  0  0  0  0  0  0  0  0  0  0  0
    4.1258    3.5876   24.8436 C   0  0  0  0  0  0  0  0  0  0  0  0
    2.7874    3.4081   24.6341 F   0  0  0  0  0  0  0  0  0  0  0  0
    4.8802    2.2784   24.6951 C   0  0  0  0  0  0  0  0  0  0  0  0
    4.5862    1.1519   25.4664 C   0  0  0  0  0  0  0  0  0  0  0  0
    5.3308   -0.0124   25.2445 C   0  0  0  0  0  0  0  0  0  0  0  0
    6.3309   -0.0128   24.2835 C   0  0  0  0  0  0  0  0  0  0  0  0
    6.5654    1.1917   23.5764 C   0  0  0  0  0  0  0  0  0  0  0  0
    7.5572    1.2851   22.6484 N   0  0  0  0  0  0  0  0  0  0  0  0
    7.8817    2.5692   22.0397 C   0  0  0  0  0  0  0  0  0  0  0  0
    8.7798    2.1904   20.8726 C   0  0  0  0  0  0  0  0  0  0  0  0
    9.3573    0.8260   21.2556 C   0  0  0  0  0  0  0  0  0  0  0  0
    8.2091    0.1500   22.0082 C   0  0  0  0  0  0  0  0  0  0  0  0
    7.3018   -0.7074   21.0768 C   0  0  0  0  0  0  0  0  0  0  0  0
    6.6119   -0.0125   19.9124 C   0  0  0  0  0  0  0  0  0  0  0  0
    5.4148    0.6929   20.1239 C   0  0  0  0  0  0  0  0  0  0  0  0
    4.8082    1.3525   19.0511 C   0  0  0  0  0  0  0  0  0  0  0  0
    5.4276    1.3113   17.8002 C   0  0  0  0  0  0  0  0  0  0  0  0
    6.5613    0.6343   17.5626 N   0  0  0  0  0  0  0  0  0  0  0  0
    7.1199   -0.0155   18.5977 C   0  0  0  0  0  0  0  0  0  0  0  0
    8.0339   -0.5627   18.3621 H   0  0  0  0  0  0  0  0  0  0  0  0
    4.9911    1.8409   16.9520 H   0  0  0  0  0  0  0  0  0  0  0  0
    3.8703    1.8904   19.1722 H   0  0  0  0  0  0  0  0  0  0  0  0
    4.9685    0.7222   21.1209 H   0  0  0  0  0  0  0  0  0  0  0  0
    6.5253   -1.1857   21.6876 H   0  0  0  0  0  0  0  0  0  0  0  0
    7.9411   -1.5106   20.6908 H   0  0  0  0  0  0  0  0  0  0  0  0
    8.6043   -0.5368   22.7710 H   0  0  0  0  0  0  0  0  0  0  0  0
    9.6792    0.2312   20.3920 H   0  0  0  0  0  0  0  0  0  0  0  0
   10.2164    0.9341   21.9299 H   0  0  0  0  0  0  0  0  0  0  0  0
    9.5714    2.9157   20.7201 H   0  0  0  0  0  0  0  0  0  0  0  0
    8.1713    2.1169   19.9646 H   0  0  0  0  0  0  0  0  0  0  0  0
    8.3867    3.2292   22.7612 H   0  0  0  0  0  0  0  0  0  0  0  0
    6.9527    3.0667   21.7365 H   0  0  0  0  0  0  0  0  0  0  0  0
    5.8473    2.3098   23.7793 N   0  0  0  0  0  0  0  0  0  0  0  0
    6.9145   -0.8915   24.0416 H   0  0  0  0  0  0  0  0  0  0  0  0
    5.1318   -0.9197   25.8148 H   0  0  0  0  0  0  0  0  0  0  0  0
    3.8100    1.2032   26.2158 H   0  0  0  0  0  0  0  0  0  0  0  0
    4.5071    4.3248   24.1323 H   0  0  0  0  0  0  0  0  0  0  0  0
  1  2  1  0
  2  3  1  0
  2  4  1  0
  4  5  2  0
  5  6  1  0
  6  7  2  0
  7  8  1  0
  8  9  1  0
  9 10  1  0
 10 11  1  0
 11 12  1  0
 12 13  1  0
 13 14  1  0
 14 15  1  0
 15 16  2  0
 16 17  1  0
 17 18  2  0
 18 19  1  0
 19 20  2  0
 20 21  1  0
 18 22  1  0
 17 23  1  0
 16 24  1  0
 14 25  1  0
 14 26  1  0
 13 27  1  0
 12 28  1  0
 12 29  1  0
 11 30  1  0
 11 31  1  0
 10 32  1  0
 10 33  1  0
  8 34  2  0
  7 35  1  0
  6 36  1  0
  5 37  1  0
  2 38  1  0
 34  4  1  0
 13  9  1  0
 20 15  1  0
M  END
>  <cnnaffinity>  (1) 
-4.49485

>  <filename>  (1) 
FC(F)c1cccc(N2CCCC2Cc2cccnc2)n1

$$$$
