
     RDKit          3D

 29 30  0  0  0  0  0  0  0  0999 V2000
    5.0939    1.8140   16.8772 H   0  0  0  0  0  0  0  0  0  0  0  0
    5.4790    1.3120   17.7614 C   0  0  0  0  0  0  0  0  0  0  0  0
    6.6332    0.6327   17.6013 N   0  0  0  0  0  0  0  0  0  0  0  0
    7.1019   -0.0143   18.6676 C   0  0  0  0  0  0  0  0  0  0  0  0
    8.0307   -0.5686   18.5397 H   0  0  0  0  0  0  0  0  0  0  0  0
    6.4703   -0.0307   19.9295 C   0  0  0  0  0  0  0  0  0  0  0  0
    7.1176   -0.8411   20.8943 N   0  0  0  0  0  0  0  0  0  0  0  0
    6.7078   -0.7913   22.0762 N   0  0  0  0  0  0  0  0  0  0  0  0
    7.5570   -1.6377   22.9400 C   0  0  0  0  0  0  0  0  0  0  0  0
    7.0227   -1.7763   23.8863 H   0  0  0  0  0  0  0  0  0  0  0  0
    7.6674   -2.6203   22.4672 H   0  0  0  0  0  0  0  0  0  0  0  0
    8.8935   -0.9936   23.2039 C   0  0  0  0  0  0  0  0  0  0  0  0
   10.0560   -1.3931   22.5244 C   0  0  0  0  0  0  0  0  0  0  0  0
   10.0368   -2.2575   21.8700 H   0  0  0  0  0  0  0  0  0  0  0  0
   11.2508   -0.6763   22.6470 C   0  0  0  0  0  0  0  0  0  0  0  0
   12.1352   -1.0063   22.0990 H   0  0  0  0  0  0  0  0  0  0  0  0
   11.2912    0.4556   23.4768 C   0  0  0  0  0  0  0  0  0  0  0  0
   12.5469    1.3010   23.6047 C   0  0  0  0  0  0  0  0  0  0  0  0
   12.5820    1.9172   24.7969 F   0  0  0  0  0  0  0  0  0  0  0  0
   13.6855    0.5870   23.5063 F   0  0  0  0  0  0  0  0  0  0  0  0
   12.6130    2.2670   22.6652 F   0  0  0  0  0  0  0  0  0  0  0  0
   10.1334    0.8461   24.1773 C   0  0  0  0  0  0  0  0  0  0  0  0
   10.1615    1.7062   24.8457 H   0  0  0  0  0  0  0  0  0  0  0  0
    8.9472    0.1332   24.0307 C   0  0  0  0  0  0  0  0  0  0  0  0
    8.0445    0.4635   24.5408 H   0  0  0  0  0  0  0  0  0  0  0  0
    5.2915    0.7082   20.0970 C   0  0  0  0  0  0  0  0  0  0  0  0
    4.8176    0.7384   21.0794 H   0  0  0  0  0  0  0  0  0  0  0  0
    4.7821    1.3740   18.9763 C   0  0  0  0  0  0  0  0  0  0  0  0
    3.8582    1.9368   19.0368 H   0  0  0  0  0  0  0  0  0  0  0  0
  1  2  1  0
  2  3  2  0
  3  4  1  0
  4  5  1  0
  4  6  2  0
  6  7  1  0
  7  8  2  3
  8  9  1  0
  9 10  1  0
  9 11  1  0
  9 12  1  0
 12 13  2  0
 13 14  1  0
 13 15  1  0
 15 16  1  0
 15 17  2  0
 17 18  1  0
 18 19  1  0
 18 20  1  0
 18 21  1  0
 17 22  1  0
 22 23  1  0
 22 24  2  0
 24 25  1  0
  6 26  1  0
 26 27  1  0
 26 28  2  0
 28 29  1  0
 28  2  1  0
 24 12  1  0
M  END
>  <cnnaffinity>  (1) 
-5.00432

>  <filename>  (1) 
FC(F)(F)c1ccc(CN=Nc2cccnc2)cc1

$$$$
