
     RDKit          3D

 22 23  0  0  0  0  0  0  0  0999 V2000
    4.9269    1.7840   16.9981 H   0  0  0  0  0  0  0  0  0  0  0  0
    5.4050    1.2893   17.8386 C   0  0  0  0  0  0  0  0  0  0  0  0
    6.5666    0.6733   17.5697 N   0  0  0  0  0  0  0  0  0  0  0  0
    7.1809    0.0587   18.5839 C   0  0  0  0  0  0  0  0  0  0  0  0
    8.1262   -0.4235   18.3543 H   0  0  0  0  0  0  0  0  0  0  0  0
    6.6721    0.0083   19.8935 C   0  0  0  0  0  0  0  0  0  0  0  0
    7.4055   -0.7113   20.9407 C   0  0  0  0  0  0  0  0  0  0  0  0
    8.5566   -1.3295   20.7121 N   0  0  0  0  0  0  0  0  0  0  0  0
    8.8761   -1.8978   21.8855 N   0  0  0  0  0  0  0  0  0  0  0  0
    9.7668   -2.3671   21.9945 H   0  0  0  0  0  0  0  0  0  0  0  0
    7.9678   -1.6556   22.8668 C   0  0  0  0  0  0  0  0  0  0  0  0
    8.1761   -2.1159   24.5535 S   0  0  0  0  0  0  0  0  0  0  0  0
    9.0730   -0.6006   25.1421 C   0  0  0  0  0  0  0  0  0  0  0  0
    8.3686    0.5116   24.9412 F   0  0  0  0  0  0  0  0  0  0  0  0
    9.3005   -0.7391   26.4436 F   0  0  0  0  0  0  0  0  0  0  0  0
   10.2339   -0.4863   24.4977 F   0  0  0  0  0  0  0  0  0  0  0  0
    7.0027   -0.8756   22.2791 C   0  0  0  0  0  0  0  0  0  0  0  0
    6.1594   -0.4338   22.7780 H   0  0  0  0  0  0  0  0  0  0  0  0
    5.4494    0.6472   20.1562 C   0  0  0  0  0  0  0  0  0  0  0  0
    5.0085    0.6364   21.1556 H   0  0  0  0  0  0  0  0  0  0  0  0
    4.8144    1.3029   19.1074 C   0  0  0  0  0  0  0  0  0  0  0  0
    3.8847    1.8336   19.2593 H   0  0  0  0  0  0  0  0  0  0  0  0
  1  2  1  0
  2  3  2  0
  3  4  1  0
  4  5  1  0
  4  6  2  0
  6  7  1  0
  7  8  2  0
  8  9  1  0
  9 10  1  0
  9 11  1  0
 11 12  1  0
 12 13  1  0
 13 14  1  0
 13 15  1  0
 13 16  1  0
 11 17  2  0
 17 18  1  0
  6 19  1  0
 19 20  1  0
 19 21  2  0
 21 22  1  0
 21  2  1  0
 17  7  1  0
M  END
>  <cnnaffinity>  (1) 
-4.71936

>  <filename>  (1) 
FC(F)(F)Sc1cc(-c2cccnc2)n[nH]1

$$$$
