
     RDKit          3D

 33 36  0  0  0  0  0  0  0  0999 V2000
    9.2128   -0.9056   28.4536 H   0  0  0  0  0  0  0  0  0  0  0  0
    8.5530   -0.7802   27.5951 C   0  0  0  0  0  0  0  0  0  0  0  0
    9.0037   -1.2680   26.4453 N   0  0  0  0  0  0  0  0  0  0  0  0
    8.2042   -1.1016   25.3907 C   0  0  0  0  0  0  0  0  0  0  0  0
    8.6763   -1.5864   24.1689 N   0  0  0  0  0  0  0  0  0  0  0  0
    9.9090   -2.2114   23.8694 C   0  0  0  0  0  0  0  0  0  0  0  0
   10.6137   -2.4646   24.6481 H   0  0  0  0  0  0  0  0  0  0  0  0
   10.0065   -2.3445   22.5267 C   0  0  0  0  0  0  0  0  0  0  0  0
   10.7667   -2.7189   21.8693 H   0  0  0  0  0  0  0  0  0  0  0  0
    8.8484   -1.8048   21.9854 N   0  0  0  0  0  0  0  0  0  0  0  0
    8.4640   -1.4497   20.7435 N   0  0  0  0  0  0  0  0  0  0  0  0
    7.3694   -0.7070   20.9769 C   0  0  0  0  0  0  0  0  0  0  0  0
    6.6533   -0.0177   19.8867 C   0  0  0  0  0  0  0  0  0  0  0  0
    7.1736    0.0430   18.5791 C   0  0  0  0  0  0  0  0  0  0  0  0
    8.1233   -0.4304   18.3368 H   0  0  0  0  0  0  0  0  0  0  0  0
    6.5640    0.6732   17.5677 N   0  0  0  0  0  0  0  0  0  0  0  0
    5.4019    1.2935   17.8237 C   0  0  0  0  0  0  0  0  0  0  0  0
    4.9286    1.7985   16.9831 H   0  0  0  0  0  0  0  0  0  0  0  0
    4.8055    1.3080   19.0881 C   0  0  0  0  0  0  0  0  0  0  0  0
    3.8755    1.8418   19.2442 H   0  0  0  0  0  0  0  0  0  0  0  0
    5.4389    0.6433   20.1332 C   0  0  0  0  0  0  0  0  0  0  0  0
    4.9978    0.6388   21.1309 H   0  0  0  0  0  0  0  0  0  0  0  0
    7.0556   -0.5966   22.3498 C   0  0  0  0  0  0  0  0  0  0  0  0
    6.3060   -0.0076   22.8415 H   0  0  0  0  0  0  0  0  0  0  0  0
    8.0525   -1.3286   22.9514 C   0  0  0  0  0  0  0  0  0  0  0  0
    7.0044   -0.5067   25.4003 N   0  0  0  0  0  0  0  0  0  0  0  0
    6.5447   -0.0340   26.5656 C   0  0  0  0  0  0  0  0  0  0  0  0
    5.1404    0.6661   26.6437 C   0  0  0  0  0  0  0  0  0  0  0  0
    4.5013    0.7501   25.4732 F   0  0  0  0  0  0  0  0  0  0  0  0
    5.2600    1.9228   27.1266 F   0  0  0  0  0  0  0  0  0  0  0  0
    4.3267    0.0118   27.5010 F   0  0  0  0  0  0  0  0  0  0  0  0
    7.3126   -0.1561   27.7247 C   0  0  0  0  0  0  0  0  0  0  0  0
    6.9696    0.2058   28.6794 H   0  0  0  0  0  0  0  0  0  0  0  0
  1  2  1  0
  2  3  2  0
  3  4  1  0
  4  5  1  0
  5  6  1  0
  6  7  1  0
  6  8  2  0
  8  9  1  0
  8 10  1  0
 10 11  1  0
 11 12  2  0
 12 13  1  0
 13 14  2  0
 14 15  1  0
 14 16  1  0
 16 17  2  0
 17 18  1  0
 17 19  1  0
 19 20  1  0
 19 21  2  0
 21 22  1  0
 12 23  1  0
 23 24  1  0
 23 25  2  0
  4 26  2  0
 26 27  1  0
 27 28  1  0
 28 29  1  0
 28 30  1  0
 28 31  1  0
 27 32  2  0
 32 33  1  0
 32  2  1  0
 25  5  1  0
 25 10  1  0
 21 13  1  0
M  END
>  <cnnaffinity>  (1) 
-5.72696

>  <filename>  (1) 
FC(F)(F)c1ccnc(-n2ccn3nc(-c4cccnc4)cc23)n1

$$$$
