
     RDKit          3D

 31 33  0  0  0  0  0  0  0  0999 V2000
   10.0549   -5.2094   24.4208 H   0  0  0  0  0  0  0  0  0  0  0  0
    9.3197   -4.6864   23.8168 C   0  0  0  0  0  0  0  0  0  0  0  0
    9.7609   -3.5754   23.2426 N   0  0  0  0  0  0  0  0  0  0  0  0
    8.8807   -2.9107   22.4884 C   0  0  0  0  0  0  0  0  0  0  0  0
    9.3961   -1.7395   21.8151 C   0  0  0  0  0  0  0  0  0  0  0  0
    8.7120   -0.7639   21.1302 C   0  0  0  0  0  0  0  0  0  0  0  0
    7.3332   -0.7555   20.9522 N   0  0  0  0  0  0  0  0  0  0  0  0
    6.8311   -1.4476   21.5046 H   0  0  0  0  0  0  0  0  0  0  0  0
    6.6730   -0.0831   19.9095 C   0  0  0  0  0  0  0  0  0  0  0  0
    7.1766    0.0023   18.5839 C   0  0  0  0  0  0  0  0  0  0  0  0
    8.1225   -0.4825   18.3403 H   0  0  0  0  0  0  0  0  0  0  0  0
    6.5701    0.6600   17.5851 N   0  0  0  0  0  0  0  0  0  0  0  0
    5.4168    1.2900   17.8627 C   0  0  0  0  0  0  0  0  0  0  0  0
    4.9563    1.8234   17.0352 H   0  0  0  0  0  0  0  0  0  0  0  0
    4.8236    1.2703   19.1307 C   0  0  0  0  0  0  0  0  0  0  0  0
    3.8950    1.8124   19.2881 H   0  0  0  0  0  0  0  0  0  0  0  0
    5.4573    0.5691   20.1652 C   0  0  0  0  0  0  0  0  0  0  0  0
    5.0493    0.5715   21.1766 H   0  0  0  0  0  0  0  0  0  0  0  0
    9.7263    0.1404   20.7286 C   0  0  0  0  0  0  0  0  0  0  0  0
    9.5904    1.0606   20.1887 H   0  0  0  0  0  0  0  0  0  0  0  0
   10.9331   -0.2613   21.1241 N   0  0  0  0  0  0  0  0  0  0  0  0
   10.7135   -1.3989   21.7760 N   0  0  0  0  0  0  0  0  0  0  0  0
   11.4833   -1.9349   22.1620 H   0  0  0  0  0  0  0  0  0  0  0  0
    7.5993   -3.2534   22.3114 N   0  0  0  0  0  0  0  0  0  0  0  0
    7.1749   -4.4058   22.8485 C   0  0  0  0  0  0  0  0  0  0  0  0
    5.7034   -4.8601   22.5936 C   0  0  0  0  0  0  0  0  0  0  0  0
    5.6647   -6.0680   21.9936 F   0  0  0  0  0  0  0  0  0  0  0  0
    5.0105   -4.0097   21.8241 F   0  0  0  0  0  0  0  0  0  0  0  0
    5.0315   -5.0004   23.7539 F   0  0  0  0  0  0  0  0  0  0  0  0
    8.0351   -5.1854   23.6292 C   0  0  0  0  0  0  0  0  0  0  0  0
    7.7435   -6.1229   24.0822 H   0  0  0  0  0  0  0  0  0  0  0  0
  1  2  1  0
  2  3  2  0
  3  4  1  0
  4  5  1  0
  5  6  2  0
  6  7  1  0
  7  8  1  0
  7  9  1  0
  9 10  2  0
 10 11  1  0
 10 12  1  0
 12 13  2  0
 13 14  1  0
 13 15  1  0
 15 16  1  0
 15 17  2  0
 17 18  1  0
  6 19  1  0
 19 20  1  0
 19 21  2  0
 21 22  1  0
 22 23  1  0
  4 24  2  0
 24 25  1  0
 25 26  1  0
 26 27  1  0
 26 28  1  0
 26 29  1  0
 25 30  2  0
 30 31  1  0
 30  2  1  0
 22  5  1  0
 17  9  1  0
M  END
>  <cnnaffinity>  (1) 
-6.20549

>  <filename>  (1) 
FC(F)(F)c1ccnc(-c2[nH]ncc2Nc2cccnc2)n1

$$$$
