
     RDKit          3D

 35 37  0  0  0  0  0  0  0  0999 V2000
    5.0561    1.8031   16.9858 H   0  0  0  0  0  0  0  0  0  0  0  0
    5.4485    1.2686   17.8470 C   0  0  0  0  0  0  0  0  0  0  0  0
    6.5426    0.5218   17.6275 N   0  0  0  0  0  0  0  0  0  0  0  0
    7.0420   -0.1707   18.6563 C   0  0  0  0  0  0  0  0  0  0  0  0
    7.9370   -0.7623   18.4599 H   0  0  0  0  0  0  0  0  0  0  0  0
    6.4910   -0.1519   19.9518 C   0  0  0  0  0  0  0  0  0  0  0  0
    7.1022   -0.9046   21.0013 N   0  0  0  0  0  0  0  0  0  0  0  0
    6.4701   -1.8848   21.7383 C   0  0  0  0  0  0  0  0  0  0  0  0
    5.4277   -2.0945   21.5531 H   0  0  0  0  0  0  0  0  0  0  0  0
    7.3479   -2.3785   22.6737 C   0  0  0  0  0  0  0  0  0  0  0  0
    7.1377   -3.1432   23.4153 H   0  0  0  0  0  0  0  0  0  0  0  0
    8.5622   -1.6556   22.5095 C   0  0  0  0  0  0  0  0  0  0  0  0
    9.4546   -1.7234   23.1235 H   0  0  0  0  0  0  0  0  0  0  0  0
    8.4086   -0.7690   21.4701 C   0  0  0  0  0  0  0  0  0  0  0  0
    9.4376    0.1446   20.8427 C   0  0  0  0  0  0  0  0  0  0  0  0
   10.0182   -0.4362   20.1124 H   0  0  0  0  0  0  0  0  0  0  0  0
    8.9558    0.9441   20.2806 H   0  0  0  0  0  0  0  0  0  0  0  0
   10.3792    0.8002   21.8402 C   0  0  0  0  0  0  0  0  0  0  0  0
   11.6832    0.3069   21.9930 C   0  0  0  0  0  0  0  0  0  0  0  0
   12.0327   -0.4768   21.3267 H   0  0  0  0  0  0  0  0  0  0  0  0
   12.5442    0.8057   22.9748 C   0  0  0  0  0  0  0  0  0  0  0  0
   13.5505    0.4050   23.0821 H   0  0  0  0  0  0  0  0  0  0  0  0
   12.1048    1.8293   23.8091 C   0  0  0  0  0  0  0  0  0  0  0  0
   12.7542    2.1998   24.5904 H   0  0  0  0  0  0  0  0  0  0  0  0
   10.8360    2.3848   23.6315 C   0  0  0  0  0  0  0  0  0  0  0  0
   10.5427    3.2400   24.2354 H   0  0  0  0  0  0  0  0  0  0  0  0
    9.9646    1.8781   22.6509 C   0  0  0  0  0  0  0  0  0  0  0  0
    8.5597    2.4588   22.5227 C   0  0  0  0  0  0  0  0  0  0  0  0
    7.6141    1.5958   22.9444 F   0  0  0  0  0  0  0  0  0  0  0  0
    8.2316    2.7781   21.2519 F   0  0  0  0  0  0  0  0  0  0  0  0
    8.4038    3.5879   23.2402 F   0  0  0  0  0  0  0  0  0  0  0  0
    5.3458    0.6317   20.1676 C   0  0  0  0  0  0  0  0  0  0  0  0
    4.9192    0.7065   21.1702 H   0  0  0  0  0  0  0  0  0  0  0  0
    4.8148    1.3498   19.0917 C   0  0  0  0  0  0  0  0  0  0  0  0
    3.9291    1.9676   19.2044 H   0  0  0  0  0  0  0  0  0  0  0  0
  1  2  1  0
  2  3  2  0
  3  4  1  0
  4  5  1  0
  4  6  2  0
  6  7  1  0
  7  8  1  0
  8  9  1  0
  8 10  2  0
 10 11  1  0
 10 12  1  0
 12 13  1  0
 12 14  2  0
 14 15  1  0
 15 16  1  0
 15 17  1  0
 15 18  1  0
 18 19  2  0
 19 20  1  0
 19 21  1  0
 21 22  1  0
 21 23  2  0
 23 24  1  0
 23 25  1  0
 25 26  1  0
 25 27  2  0
 27 28  1  0
 28 29  1  0
 28 30  1  0
 28 31  1  0
  6 32  1  0
 32 33  1  0
 32 34  2  0
 34 35  1  0
 34  2  1  0
 14  7  1  0
 27 18  1  0
M  END
>  <cnnaffinity>  (1) 
-5.63247

>  <filename>  (1) 
FC(F)(F)c1ccccc1Cc1cccn1-c1cccnc1

$$$$
