
     RDKit          3D

 31 33  0  0  0  0  0  0  0  0999 V2000
    4.9865    1.8117   16.9881 H   0  0  0  0  0  0  0  0  0  0  0  0
    5.4340    1.2833   17.8308 C   0  0  0  0  0  0  0  0  0  0  0  0
    6.5892    0.6466   17.5869 N   0  0  0  0  0  0  0  0  0  0  0  0
    7.1790    0.0140   18.6075 C   0  0  0  0  0  0  0  0  0  0  0  0
    8.1073   -0.5038   18.3783 H   0  0  0  0  0  0  0  0  0  0  0  0
    6.6660    0.0032   19.9171 C   0  0  0  0  0  0  0  0  0  0  0  0
    7.4086   -0.6621   21.0173 C   0  0  0  0  0  0  0  0  0  0  0  0
    8.1108   -1.7633   20.7097 N   0  0  0  0  0  0  0  0  0  0  0  0
    8.7656   -2.4390   21.6581 N   0  0  0  0  0  0  0  0  0  0  0  0
    8.7626   -2.0154   22.9267 C   0  0  0  0  0  0  0  0  0  0  0  0
    9.3505   -2.6193   23.6131 H   0  0  0  0  0  0  0  0  0  0  0  0
    8.0542   -0.8792   23.3457 C   0  0  0  0  0  0  0  0  0  0  0  0
    8.1317   -0.5633   24.8151 C   0  0  0  0  0  0  0  0  0  0  0  0
    9.3690   -0.3685   25.2858 N   0  0  0  0  0  0  0  0  0  0  0  0
    9.5039    0.1159   26.5266 C   0  0  0  0  0  0  0  0  0  0  0  0
   10.5204    0.3493   26.8467 H   0  0  0  0  0  0  0  0  0  0  0  0
    8.4247    0.3543   27.3834 C   0  0  0  0  0  0  0  0  0  0  0  0
    8.5837    0.7995   28.3569 H   0  0  0  0  0  0  0  0  0  0  0  0
    7.1456    0.0220   26.9580 C   0  0  0  0  0  0  0  0  0  0  0  0
    6.2891    0.1796   27.6198 H   0  0  0  0  0  0  0  0  0  0  0  0
    7.0154   -0.5049   25.6759 C   0  0  0  0  0  0  0  0  0  0  0  0
    5.6909   -0.8522   25.1022 C   0  0  0  0  0  0  0  0  0  0  0  0
    5.2828    0.2030   24.3526 F   0  0  0  0  0  0  0  0  0  0  0  0
    4.7206   -1.0813   26.0010 F   0  0  0  0  0  0  0  0  0  0  0  0
    5.7730   -1.9490   24.3296 F   0  0  0  0  0  0  0  0  0  0  0  0
    7.3748   -0.1752   22.3428 C   0  0  0  0  0  0  0  0  0  0  0  0
    6.8519    0.7569   22.5398 H   0  0  0  0  0  0  0  0  0  0  0  0
    5.4402    0.6382   20.1474 C   0  0  0  0  0  0  0  0  0  0  0  0
    4.9833    0.6118   21.1385 H   0  0  0  0  0  0  0  0  0  0  0  0
    4.8154    1.2878   19.0831 C   0  0  0  0  0  0  0  0  0  0  0  0
    3.8794    1.8139   19.2135 H   0  0  0  0  0  0  0  0  0  0  0  0
  1  2  1  0
  2  3  2  0
  3  4  1  0
  4  5  1  0
  4  6  2  0
  6  7  1  0
  7  8  2  0
  8  9  1  0
  9 10  2  0
 10 11  1  0
 10 12  1  0
 12 13  1  0
 13 14  2  0
 14 15  1  0
 15 16  1  0
 15 17  2  0
 17 18  1  0
 17 19  1  0
 19 20  1  0
 19 21  2  0
 21 22  1  0
 22 23  1  0
 22 24  1  0
 22 25  1  0
 12 26  2  0
 26 27  1  0
  6 28  1  0
 28 29  1  0
 28 30  2  0
 30 31  1  0
 30  2  1  0
 26  7  1  0
 21 13  1  0
M  END
>  <cnnaffinity>  (1) 
-6.08331

>  <filename>  (1) 
FC(F)(F)c1cccnc1-c1cnnc(-c2cccnc2)c1

$$$$
