
     RDKit          3D

 29 31  0  0  0  0  0  0  0  0999 V2000
    4.9038    1.7707   17.0076 H   0  0  0  0  0  0  0  0  0  0  0  0
    5.3978    1.2916   17.8488 C   0  0  0  0  0  0  0  0  0  0  0  0
    6.5700    0.6837   17.5940 N   0  0  0  0  0  0  0  0  0  0  0  0
    7.1868    0.0539   18.5971 C   0  0  0  0  0  0  0  0  0  0  0  0
    8.1355   -0.4421   18.3853 H   0  0  0  0  0  0  0  0  0  0  0  0
    6.6575    0.0064   19.8976 C   0  0  0  0  0  0  0  0  0  0  0  0
    7.3502   -0.6919   20.9320 N   0  0  0  0  0  0  0  0  0  0  0  0
    7.8674   -1.9292   20.7435 N   0  0  0  0  0  0  0  0  0  0  0  0
    8.3205   -2.3159   21.8794 N   0  0  0  0  0  0  0  0  0  0  0  0
    8.1254   -1.3826   22.8314 N   0  0  0  0  0  0  0  0  0  0  0  0
    7.5333   -0.3699   22.2410 C   0  0  0  0  0  0  0  0  0  0  0  0
    7.2050    0.9157   22.8703 C   0  0  0  0  0  0  0  0  0  0  0  0
    7.4049    2.1336   22.1974 C   0  0  0  0  0  0  0  0  0  0  0  0
    7.8001    2.1482   21.1844 H   0  0  0  0  0  0  0  0  0  0  0  0
    7.0934    3.3328   22.8274 C   0  0  0  0  0  0  0  0  0  0  0  0
    7.2310    4.2701   22.2991 H   0  0  0  0  0  0  0  0  0  0  0  0
    6.6090    3.3400   24.1371 C   0  0  0  0  0  0  0  0  0  0  0  0
    6.3613    4.2874   24.6055 H   0  0  0  0  0  0  0  0  0  0  0  0
    6.4539    2.1307   24.8292 C   0  0  0  0  0  0  0  0  0  0  0  0
    5.8992    2.1279   26.2312 C   0  0  0  0  0  0  0  0  0  0  0  0
    6.2019    3.2604   26.8979 F   0  0  0  0  0  0  0  0  0  0  0  0
    6.3713    1.0974   26.9597 F   0  0  0  0  0  0  0  0  0  0  0  0
    4.5531    2.0230   26.2030 F   0  0  0  0  0  0  0  0  0  0  0  0
    6.7365    0.9194   24.1907 C   0  0  0  0  0  0  0  0  0  0  0  0
    6.5911   -0.0279   24.7059 H   0  0  0  0  0  0  0  0  0  0  0  0
    5.4415    0.6462   20.1580 C   0  0  0  0  0  0  0  0  0  0  0  0
    5.0120    0.6278   21.1568 H   0  0  0  0  0  0  0  0  0  0  0  0
    4.8055    1.3123   19.1123 C   0  0  0  0  0  0  0  0  0  0  0  0
    3.8738    1.8443   19.2690 H   0  0  0  0  0  0  0  0  0  0  0  0
  1  2  1  0
  2  3  2  0
  3  4  1  0
  4  5  1  0
  4  6  2  0
  6  7  1  0
  7  8  1  0
  8  9  2  0
  9 10  1  0
 10 11  2  0
 11 12  1  0
 12 13  2  0
 13 14  1  0
 13 15  1  0
 15 16  1  0
 15 17  2  0
 17 18  1  0
 17 19  1  0
 19 20  1  0
 20 21  1  0
 20 22  1  0
 20 23  1  0
 19 24  2  0
 24 25  1  0
  6 26  1  0
 26 27  1  0
 26 28  2  0
 28 29  1  0
 28  2  1  0
 11  7  1  0
 24 12  1  0
M  END
>  <cnnaffinity>  (1) 
-4.95518

>  <filename>  (1) 
FC(F)(F)c1cccc(-c2nnnn2-c2cccnc2)c1

$$$$
