
     RDKit          3D

 28 29  0  0  0  0  0  0  0  0999 V2000
    4.9463    1.8417   16.9935 H   0  0  0  0  0  0  0  0  0  0  0  0
    5.3996    1.2849   17.8112 C   0  0  0  0  0  0  0  0  0  0  0  0
    6.5493    0.6453   17.5328 N   0  0  0  0  0  0  0  0  0  0  0  0
    7.1538    0.0019   18.5399 C   0  0  0  0  0  0  0  0  0  0  0  0
    8.0902   -0.5021   18.2932 H   0  0  0  0  0  0  0  0  0  0  0  0
    6.6567   -0.0500   19.8582 C   0  0  0  0  0  0  0  0  0  0  0  0
    7.5639   -0.8966   21.1461 S   0  0  0  0  0  0  0  0  0  0  0  0
    8.6263    0.4714   21.7669 C   0  0  0  0  0  0  0  0  0  0  0  0
    9.1769    0.8798   20.9128 H   0  0  0  0  0  0  0  0  0  0  0  0
    9.3719   -0.0131   22.4071 H   0  0  0  0  0  0  0  0  0  0  0  0
    7.8571    1.5659   22.4682 C   0  0  0  0  0  0  0  0  0  0  0  0
    7.6200    2.7499   21.7606 C   0  0  0  0  0  0  0  0  0  0  0  0
    8.1100    2.8698   20.8077 H   0  0  0  0  0  0  0  0  0  0  0  0
    6.8064    3.7624   22.2589 C   0  0  0  0  0  0  0  0  0  0  0  0
    6.5878    4.6189   21.6228 H   0  0  0  0  0  0  0  0  0  0  0  0
    6.2588    3.6358   23.5432 C   0  0  0  0  0  0  0  0  0  0  0  0
    5.4379    4.7535   24.1662 C   0  0  0  0  0  0  0  0  0  0  0  0
    4.5364    4.2895   25.0555 F   0  0  0  0  0  0  0  0  0  0  0  0
    4.7532    5.4604   23.2500 F   0  0  0  0  0  0  0  0  0  0  0  0
    6.2129    5.6325   24.8322 F   0  0  0  0  0  0  0  0  0  0  0  0
    6.5087    2.4645   24.2826 C   0  0  0  0  0  0  0  0  0  0  0  0
    6.0586    2.3320   25.2609 H   0  0  0  0  0  0  0  0  0  0  0  0
    7.2924    1.4361   23.7489 C   0  0  0  0  0  0  0  0  0  0  0  0
    7.4487    0.5326   24.3332 H   0  0  0  0  0  0  0  0  0  0  0  0
    5.4350    0.5942   20.1160 C   0  0  0  0  0  0  0  0  0  0  0  0
    5.0157    0.5785   21.1240 H   0  0  0  0  0  0  0  0  0  0  0  0
    4.7965    1.2754   19.0742 C   0  0  0  0  0  0  0  0  0  0  0  0
    3.8618    1.8065   19.2301 H   0  0  0  0  0  0  0  0  0  0  0  0
  1  2  1  0
  2  3  2  0
  3  4  1  0
  4  5  1  0
  4  6  2  0
  6  7  1  0
  7  8  1  0
  8  9  1  0
  8 10  1  0
  8 11  1  0
 11 12  2  0
 12 13  1  0
 12 14  1  0
 14 15  1  0
 14 16  2  0
 16 17  1  0
 17 18  1  0
 17 19  1  0
 17 20  1  0
 16 21  1  0
 21 22  1  0
 21 23  2  0
 23 24  1  0
  6 25  1  0
 25 26  1  0
 25 27  2  0
 27 28  1  0
 27  2  1  0
 23 11  1  0
M  END
>  <cnnaffinity>  (1) 
-4.50363

>  <filename>  (1) 
FC(F)(F)c1ccc(CSc2cccnc2)cc1

$$$$
