
     RDKit          3D

 30 32  0  0  0  0  0  0  0  0999 V2000
    9.4891    1.1092   26.4536 H   0  0  0  0  0  0  0  0  0  0  0  0
    8.5683    1.4174   25.9651 C   0  0  0  0  0  0  0  0  0  0  0  0
    8.3245    0.8573   24.7860 N   0  0  0  0  0  0  0  0  0  0  0  0
    7.1951    1.2373   24.2012 C   0  0  0  0  0  0  0  0  0  0  0  0
    6.8661    0.7327   22.9834 O   0  0  0  0  0  0  0  0  0  0  0  0
    7.4742   -0.3461   22.3638 C   0  0  0  0  0  0  0  0  0  0  0  0
    8.2531   -1.3954   22.8982 C   0  0  0  0  0  0  0  0  0  0  0  0
    8.5418   -1.5321   23.9237 H   0  0  0  0  0  0  0  0  0  0  0  0
    8.6252   -2.2459   21.9514 N   0  0  0  0  0  0  0  0  0  0  0  0
    8.0981   -1.7502   20.8343 N   0  0  0  0  0  0  0  0  0  0  0  0
    8.2209   -2.2666   19.9774 H   0  0  0  0  0  0  0  0  0  0  0  0
    7.3582   -0.6195   21.0057 C   0  0  0  0  0  0  0  0  0  0  0  0
    6.6495    0.0237   19.8972 C   0  0  0  0  0  0  0  0  0  0  0  0
    7.1613    0.0625   18.5786 C   0  0  0  0  0  0  0  0  0  0  0  0
    8.1178   -0.4050   18.3410 H   0  0  0  0  0  0  0  0  0  0  0  0
    6.5570    0.6826   17.5589 N   0  0  0  0  0  0  0  0  0  0  0  0
    5.3917    1.2983   17.8257 C   0  0  0  0  0  0  0  0  0  0  0  0
    4.9134    1.7917   16.9844 H   0  0  0  0  0  0  0  0  0  0  0  0
    4.7938    1.3146   19.0917 C   0  0  0  0  0  0  0  0  0  0  0  0
    3.8653    1.8493   19.2459 H   0  0  0  0  0  0  0  0  0  0  0  0
    5.4293    0.6636   20.1494 C   0  0  0  0  0  0  0  0  0  0  0  0
    5.0263    0.6431   21.1630 H   0  0  0  0  0  0  0  0  0  0  0  0
    6.3091    2.1048   24.6755 N   0  0  0  0  0  0  0  0  0  0  0  0
    6.5579    2.6534   25.8742 C   0  0  0  0  0  0  0  0  0  0  0  0
    5.5682    3.6826   26.5242 C   0  0  0  0  0  0  0  0  0  0  0  0
    5.1494    3.2515   27.7350 F   0  0  0  0  0  0  0  0  0  0  0  0
    6.1855    4.8623   26.7572 F   0  0  0  0  0  0  0  0  0  0  0  0
    4.4895    3.9233   25.7802 F   0  0  0  0  0  0  0  0  0  0  0  0
    7.7192    2.3248   26.5767 C   0  0  0  0  0  0  0  0  0  0  0  0
    7.9585    2.7379   27.5470 H   0  0  0  0  0  0  0  0  0  0  0  0
  1  2  1  0
  2  3  2  0
  3  4  1  0
  4  5  1  0
  5  6  1  0
  6  7  1  0
  7  8  1  0
  7  9  2  0
  9 10  1  0
 10 11  1  0
 10 12  1  0
 12 13  1  0
 13 14  2  0
 14 15  1  0
 14 16  1  0
 16 17  2  0
 17 18  1  0
 17 19  1  0
 19 20  1  0
 19 21  2  0
 21 22  1  0
  4 23  2  0
 23 24  1  0
 24 25  1  0
 25 26  1  0
 25 27  1  0
 25 28  1  0
 24 29  2  0
 29 30  1  0
 29  2  1  0
 12  6  2  0
 21 13  1  0
M  END
>  <cnnaffinity>  (1) 
-5.51676

>  <filename>  (1) 
FC(F)(F)c1ccnc(Oc2cn[nH]c2-c2cccnc2)n1

$$$$
