
     RDKit          3D

 30 31  0  0  0  0  0  0  0  0999 V2000
    5.0540    1.9657   16.6001 H   0  0  0  0  0  0  0  0  0  0  0  0
    5.3889    1.4191   17.4796 C   0  0  0  0  0  0  0  0  0  0  0  0
    6.5610    0.7770   17.3630 N   0  0  0  0  0  0  0  0  0  0  0  0
    7.0139    0.1358   18.4475 C   0  0  0  0  0  0  0  0  0  0  0  0
    7.9634   -0.3918   18.3314 H   0  0  0  0  0  0  0  0  0  0  0  0
    6.3488    0.1017   19.6826 C   0  0  0  0  0  0  0  0  0  0  0  0
    7.0195   -0.5246   20.8816 C   0  0  2  0  0  0  0  0  0  0  0  0
    7.9807   -0.9456   20.5737 H   0  0  0  0  0  0  0  0  0  0  0  0
    6.0690   -1.9526   21.4318 Cl  0  0  0  0  0  0  0  0  0  0  0  0
    7.2477    0.4674   22.0525 C   0  0  0  0  0  0  0  0  0  0  0  0
    6.2985    0.6298   22.5751 H   0  0  0  0  0  0  0  0  0  0  0  0
    7.5577    1.4256   21.6291 H   0  0  0  0  0  0  0  0  0  0  0  0
    8.3004   -0.0421   23.0177 C   0  0  0  0  0  0  0  0  0  0  0  0
    7.9164   -0.7913   24.1367 C   0  0  0  0  0  0  0  0  0  0  0  0
    6.8835   -0.7758   24.4670 H   0  0  0  0  0  0  0  0  0  0  0  0
    8.8213   -1.6345   24.7823 C   0  0  0  0  0  0  0  0  0  0  0  0
    8.4657   -2.2695   25.5874 H   0  0  0  0  0  0  0  0  0  0  0  0
   10.1445   -1.7073   24.3398 C   0  0  0  0  0  0  0  0  0  0  0  0
   10.8167   -2.4342   24.7810 H   0  0  0  0  0  0  0  0  0  0  0  0
   10.5808   -0.8675   23.3117 C   0  0  0  0  0  0  0  0  0  0  0  0
   11.6148   -0.9284   22.9687 H   0  0  0  0  0  0  0  0  0  0  0  0
    9.6762    0.0232   22.7026 C   0  0  0  0  0  0  0  0  0  0  0  0
   10.1591    1.0323   21.6768 C   0  0  0  0  0  0  0  0  0  0  0  0
    9.6533    0.7711   20.4453 F   0  0  0  0  0  0  0  0  0  0  0  0
    9.7856    2.2945   21.9793 F   0  0  0  0  0  0  0  0  0  0  0  0
   11.4938    1.0492   21.5369 F   0  0  0  0  0  0  0  0  0  0  0  0
    5.0933    0.7216   19.7628 C   0  0  0  0  0  0  0  0  0  0  0  0
    4.5121    0.6685   20.6843 H   0  0  0  0  0  0  0  0  0  0  0  0
    4.6088    1.3991   18.6414 C   0  0  0  0  0  0  0  0  0  0  0  0
    3.6647    1.9340   18.6619 H   0  0  0  0  0  0  0  0  0  0  0  0
  1  2  1  0
  2  3  2  0
  3  4  1  0
  4  5  1  0
  4  6  2  0
  6  7  1  0
  7  8  1  6
  7  9  1  0
  7 10  1  0
 10 11  1  0
 10 12  1  0
 10 13  1  0
 13 14  2  0
 14 15  1  0
 14 16  1  0
 16 17  1  0
 16 18  2  0
 18 19  1  0
 18 20  1  0
 20 21  1  0
 20 22  2  0
 22 23  1  0
 23 24  1  0
 23 25  1  0
 23 26  1  0
  6 27  1  0
 27 28  1  0
 27 29  2  0
 29 30  1  0
 29  2  1  0
 22 13  1  0
M  END
>  <cnnaffinity>  (1) 
-5.20296

>  <filename>  (1) 
FC(F)(F)c1ccccc1C[C@@H](Cl)c1cccnc1

$$$$
