
     RDKit          3D

 34 36  0  0  0  0  0  0  0  0999 V2000
    4.9469    1.8126   16.9797 H   0  0  0  0  0  0  0  0  0  0  0  0
    5.3995    1.2998   17.8217 C   0  0  0  0  0  0  0  0  0  0  0  0
    6.5598    0.6736   17.5714 N   0  0  0  0  0  0  0  0  0  0  0  0
    7.1606    0.0644   18.5976 C   0  0  0  0  0  0  0  0  0  0  0  0
    8.1144   -0.4092   18.3634 H   0  0  0  0  0  0  0  0  0  0  0  0
    6.6538    0.0296   19.9162 C   0  0  0  0  0  0  0  0  0  0  0  0
    7.4185   -0.6477   20.9816 C   0  0  0  0  0  0  0  0  0  0  0  0
    7.0865   -0.3948   22.6729 S   0  0  0  0  0  0  0  0  0  0  0  0
    8.2909   -1.5452   23.1544 C   0  0  0  0  0  0  0  0  0  0  0  0
    8.5238   -1.9021   24.6023 C   0  0  0  0  0  0  0  0  0  0  0  0
    8.4192   -1.0117   25.2331 H   0  0  0  0  0  0  0  0  0  0  0  0
    9.5627   -2.2376   24.7317 H   0  0  0  0  0  0  0  0  0  0  0  0
    7.5717   -2.9979   25.0512 C   0  0  0  0  0  0  0  0  0  0  0  0
    6.3035   -2.6973   25.5609 C   0  0  0  0  0  0  0  0  0  0  0  0
    6.0074   -1.6610   25.6840 H   0  0  0  0  0  0  0  0  0  0  0  0
    5.4079   -3.7124   25.9042 C   0  0  0  0  0  0  0  0  0  0  0  0
    4.4419   -3.4451   26.3273 H   0  0  0  0  0  0  0  0  0  0  0  0
    5.7735   -5.0593   25.7406 C   0  0  0  0  0  0  0  0  0  0  0  0
    4.7949   -6.1687   26.0795 C   0  0  0  0  0  0  0  0  0  0  0  0
    4.0085   -6.4994   25.0343 F   0  0  0  0  0  0  0  0  0  0  0  0
    3.9640   -5.8290   27.0847 F   0  0  0  0  0  0  0  0  0  0  0  0
    5.4227   -7.2987   26.4554 F   0  0  0  0  0  0  0  0  0  0  0  0
    7.0491   -5.3688   25.2407 C   0  0  0  0  0  0  0  0  0  0  0  0
    7.4021   -6.3931   25.1732 H   0  0  0  0  0  0  0  0  0  0  0  0
    7.9178   -4.3417   24.8817 C   0  0  0  0  0  0  0  0  0  0  0  0
    8.8822   -4.5951   24.4577 H   0  0  0  0  0  0  0  0  0  0  0  0
    8.8882   -2.0977   22.0592 C   0  0  0  0  0  0  0  0  0  0  0  0
    9.6227   -2.8951   22.1357 H   0  0  0  0  0  0  0  0  0  0  0  0
    8.4374   -1.5493   20.8280 C   0  0  0  0  0  0  0  0  0  0  0  0
    8.8688   -1.7734   19.8584 H   0  0  0  0  0  0  0  0  0  0  0  0
    5.4170    0.6721   20.1421 C   0  0  0  0  0  0  0  0  0  0  0  0
    4.9728    0.6691   21.1355 H   0  0  0  0  0  0  0  0  0  0  0  0
    4.7844    1.3185   19.0792 C   0  0  0  0  0  0  0  0  0  0  0  0
    3.8470    1.8542   19.2162 H   0  0  0  0  0  0  0  0  0  0  0  0
  1  2  1  0
  2  3  2  0
  3  4  1  0
  4  5  1  0
  4  6  2  0
  6  7  1  0
  7  8  1  0
  8  9  1  0
  9 10  1  0
 10 11  1  0
 10 12  1  0
 10 13  1  0
 13 14  2  0
 14 15  1  0
 14 16  1  0
 16 17  1  0
 16 18  2  0
 18 19  1  0
 19 20  1  0
 19 21  1  0
 19 22  1  0
 18 23  1  0
 23 24  1  0
 23 25  2  0
 25 26  1  0
  9 27  2  0
 27 28  1  0
 27 29  1  0
 29 30  1  0
  6 31  1  0
 31 32  1  0
 31 33  2  0
 33 34  1  0
 33  2  1  0
 29  7  2  0
 25 13  1  0
M  END
>  <cnnaffinity>  (1) 
-5.17617

>  <filename>  (1) 
FC(F)(F)c1ccc(Cc2ccc(-c3cccnc3)s2)cc1

$$$$
