
     RDKit          3D

 34 36  0  0  0  0  0  0  0  0999 V2000
    4.9221    1.8104   16.9960 H   0  0  0  0  0  0  0  0  0  0  0  0
    5.3938    1.2996   17.8309 C   0  0  0  0  0  0  0  0  0  0  0  0
    6.5567    0.6837   17.5627 N   0  0  0  0  0  0  0  0  0  0  0  0
    7.1670    0.0506   18.5745 C   0  0  0  0  0  0  0  0  0  0  0  0
    8.1175   -0.4310   18.3507 H   0  0  0  0  0  0  0  0  0  0  0  0
    6.6555   -0.0270   19.8972 C   0  0  0  0  0  0  0  0  0  0  0  0
    7.3084   -0.7446   20.9120 N   0  0  0  0  0  0  0  0  0  0  0  0
    6.7670   -1.0481   21.7123 H   0  0  0  0  0  0  0  0  0  0  0  0
    8.6974   -0.7705   21.1079 C   0  0  0  0  0  0  0  0  0  0  0  0
    9.6888    0.1543   20.6899 C   0  0  0  0  0  0  0  0  0  0  0  0
    9.5600    1.0375   20.0792 H   0  0  0  0  0  0  0  0  0  0  0  0
   10.8967   -0.1912   21.1220 N   0  0  0  0  0  0  0  0  0  0  0  0
   10.6970   -1.3228   21.8158 N   0  0  0  0  0  0  0  0  0  0  0  0
   11.5024   -1.8014   22.2135 H   0  0  0  0  0  0  0  0  0  0  0  0
    9.3938   -1.7219   21.8442 C   0  0  0  0  0  0  0  0  0  0  0  0
    8.9213   -2.9269   22.5372 C   0  0  0  0  0  0  0  0  0  0  0  0
    9.4896   -3.3366   23.7595 C   0  0  0  0  0  0  0  0  0  0  0  0
   10.2881   -2.7411   24.1846 H   0  0  0  0  0  0  0  0  0  0  0  0
    9.0144   -4.4600   24.4331 C   0  0  0  0  0  0  0  0  0  0  0  0
    9.4572   -4.7493   25.3834 H   0  0  0  0  0  0  0  0  0  0  0  0
    7.9614   -5.2133   23.9021 C   0  0  0  0  0  0  0  0  0  0  0  0
    7.5705   -6.0806   24.4186 H   0  0  0  0  0  0  0  0  0  0  0  0
    7.4182   -4.7999   22.6857 C   0  0  0  0  0  0  0  0  0  0  0  0
    6.3592   -5.4172   22.0440 O   0  0  0  0  0  0  0  0  0  0  0  0
    5.7706   -6.5263   22.5209 C   0  0  0  0  0  0  0  0  0  0  0  0
    4.7710   -6.7940   21.6952 F   0  0  0  0  0  0  0  0  0  0  0  0
    5.2770   -6.3725   23.7611 F   0  0  0  0  0  0  0  0  0  0  0  0
    6.5994   -7.5797   22.5599 F   0  0  0  0  0  0  0  0  0  0  0  0
    7.8781   -3.6846   21.9980 C   0  0  0  0  0  0  0  0  0  0  0  0
    7.4040   -3.4245   21.0569 H   0  0  0  0  0  0  0  0  0  0  0  0
    5.4418    0.6257   20.1508 C   0  0  0  0  0  0  0  0  0  0  0  0
    5.0298    0.6113   21.1587 H   0  0  0  0  0  0  0  0  0  0  0  0
    4.8065    1.3014   19.1026 C   0  0  0  0  0  0  0  0  0  0  0  0
    3.8764    1.8366   19.2613 H   0  0  0  0  0  0  0  0  0  0  0  0
  1  2  1  0
  2  3  2  0
  3  4  1  0
  4  5  1  0
  4  6  2  0
  6  7  1  0
  7  8  1  0
  7  9  1  0
  9 10  1  0
 10 11  1  0
 10 12  2  0
 12 13  1  0
 13 14  1  0
 13 15  1  0
 15 16  1  0
 16 17  2  0
 17 18  1  0
 17 19  1  0
 19 20  1  0
 19 21  2  0
 21 22  1  0
 21 23  1  0
 23 24  1  0
 24 25  1  0
 25 26  1  0
 25 27  1  0
 25 28  1  0
 23 29  2  0
 29 30  1  0
  6 31  1  0
 31 32  1  0
 31 33  2  0
 33 34  1  0
 33  2  1  0
 15  9  2  0
 29 16  1  0
M  END
>  <cnnaffinity>  (1) 
-5.79443

>  <filename>  (1) 
FC(F)(F)Oc1cccc(-c2[nH]ncc2Nc2cccnc2)c1

$$$$
