
     RDKit          3D

 31 33  0  0  0  0  0  0  0  0999 V2000
    9.2107   -3.1204   21.7997 H   0  0  0  0  0  0  0  0  0  0  0  0
    8.6184   -2.2189   21.9168 C   0  0  0  0  0  0  0  0  0  0  0  0
    8.2494   -1.8828   23.1581 N   0  0  0  0  0  0  0  0  0  0  0  0
    7.6240   -0.6984   23.2958 C   0  0  0  0  0  0  0  0  0  0  0  0
    7.4853   -0.1190   24.7277 C   0  0  0  0  0  0  0  0  0  0  0  0
    6.3071    0.4482   25.0415 N   0  0  0  0  0  0  0  0  0  0  0  0
    6.0838    0.8937   26.2744 C   0  0  0  0  0  0  0  0  0  0  0  0
    5.0999    1.3236   26.4537 H   0  0  0  0  0  0  0  0  0  0  0  0
    7.0348    0.8099   27.2928 C   0  0  0  0  0  0  0  0  0  0  0  0
    6.7818    1.1547   28.2851 H   0  0  0  0  0  0  0  0  0  0  0  0
    8.2823    0.2772   26.9946 C   0  0  0  0  0  0  0  0  0  0  0  0
    9.0330    0.2046   27.7840 H   0  0  0  0  0  0  0  0  0  0  0  0
    8.5349   -0.1461   25.6813 C   0  0  0  0  0  0  0  0  0  0  0  0
    9.8865   -0.7068   25.3252 C   0  0  0  0  0  0  0  0  0  0  0  0
    9.8429   -2.0460   25.3474 F   0  0  0  0  0  0  0  0  0  0  0  0
   10.3059   -0.3312   24.1009 F   0  0  0  0  0  0  0  0  0  0  0  0
   10.8380   -0.3147   26.1899 F   0  0  0  0  0  0  0  0  0  0  0  0
    7.1057   -0.0112   22.2776 N   0  0  0  0  0  0  0  0  0  0  0  0
    7.3623   -0.4416   21.0391 C   0  0  0  0  0  0  0  0  0  0  0  0
    6.6074    0.1997   19.9549 C   0  0  0  0  0  0  0  0  0  0  0  0
    7.1476    0.1789   18.6702 C   0  0  0  0  0  0  0  0  0  0  0  0
    8.1099   -0.2990   18.4981 H   0  0  0  0  0  0  0  0  0  0  0  0
    6.5694    0.7291   17.6022 N   0  0  0  0  0  0  0  0  0  0  0  0
    5.3840    1.3306   17.7876 C   0  0  0  0  0  0  0  0  0  0  0  0
    4.9344    1.7853   16.9057 H   0  0  0  0  0  0  0  0  0  0  0  0
    4.7360    1.3803   19.0276 C   0  0  0  0  0  0  0  0  0  0  0  0
    3.7710    1.8677   19.1078 H   0  0  0  0  0  0  0  0  0  0  0  0
    5.3561    0.8141   20.1380 C   0  0  0  0  0  0  0  0  0  0  0  0
    4.9016    0.8481   21.1308 H   0  0  0  0  0  0  0  0  0  0  0  0
    8.2673   -1.4815   20.8066 C   0  0  0  0  0  0  0  0  0  0  0  0
    8.6669   -1.7386   19.8402 H   0  0  0  0  0  0  0  0  0  0  0  0
  1  2  1  0
  2  3  2  0
  3  4  1  0
  4  5  1  0
  5  6  2  0
  6  7  1  0
  7  8  1  0
  7  9  2  0
  9 10  1  0
  9 11  1  0
 11 12  1  0
 11 13  2  0
 13 14  1  0
 14 15  1  0
 14 16  1  0
 14 17  1  0
  4 18  2  0
 18 19  1  0
 19 20  1  0
 20 21  2  0
 21 22  1  0
 21 23  1  0
 23 24  2  0
 24 25  1  0
 24 26  1  0
 26 27  1  0
 26 28  2  0
 28 29  1  0
 19 30  2  0
 30 31  1  0
 30  2  1  0
 13  5  1  0
 28 20  1  0
M  END
>  <cnnaffinity>  (1) 
-5.4113

>  <filename>  (1) 
FC(F)(F)c1cccnc1-c1nccc(-c2cccnc2)n1

$$$$
