
     RDKit          3D

 38 41  0  0  0  0  0  0  0  0999 V2000
    5.0704    1.7923   16.8417 H   0  0  0  0  0  0  0  0  0  0  0  0
    5.5247    1.3197   17.7102 C   0  0  0  0  0  0  0  0  0  0  0  0
    6.6948    0.6997   17.4988 N   0  0  0  0  0  0  0  0  0  0  0  0
    7.2784    0.1135   18.5497 C   0  0  0  0  0  0  0  0  0  0  0  0
    8.2337   -0.3671   18.3506 H   0  0  0  0  0  0  0  0  0  0  0  0
    6.7208    0.0899   19.8461 C   0  0  0  0  0  0  0  0  0  0  0  0
    7.3723   -0.6802   20.9239 C   0  0  0  0  0  0  0  0  0  0  0  0
    8.5788   -1.2291   20.7150 N   0  0  0  0  0  0  0  0  0  0  0  0
    8.7991   -1.9068   21.8572 N   0  0  0  0  0  0  0  0  0  0  0  0
    9.8496   -2.6530   22.3641 C   0  0  0  0  0  0  0  0  0  0  0  0
   10.7673   -2.7316   21.8172 H   0  0  0  0  0  0  0  0  0  0  0  0
    9.4179   -3.1297   23.5621 C   0  0  0  0  0  0  0  0  0  0  0  0
    9.9142   -3.7391   24.3041 H   0  0  0  0  0  0  0  0  0  0  0  0
    8.1230   -2.6782   23.7957 N   0  0  0  0  0  0  0  0  0  0  0  0
    7.2123   -3.1795   24.8157 C   0  0  0  0  0  0  0  0  0  0  0  0
    7.8105   -3.6936   25.5755 H   0  0  0  0  0  0  0  0  0  0  0  0
    6.7561   -2.3123   25.3084 H   0  0  0  0  0  0  0  0  0  0  0  0
    6.1200   -4.1266   24.3148 C   0  0  0  0  0  0  0  0  0  0  0  0
    6.3886   -5.4464   23.9051 C   0  0  0  0  0  0  0  0  0  0  0  0
    7.4023   -5.8384   23.9819 H   0  0  0  0  0  0  0  0  0  0  0  0
    5.3557   -6.2887   23.4718 C   0  0  0  0  0  0  0  0  0  0  0  0
    5.5902   -7.3035   23.1525 H   0  0  0  0  0  0  0  0  0  0  0  0
    4.0178   -5.8414   23.4896 C   0  0  0  0  0  0  0  0  0  0  0  0
    2.8825   -6.7514   23.0509 C   0  0  0  0  0  0  0  0  0  0  0  0
    3.0305   -7.1583   21.7771 F   0  0  0  0  0  0  0  0  0  0  0  0
    2.8194   -7.8654   23.8071 F   0  0  0  0  0  0  0  0  0  0  0  0
    1.6682   -6.1667   23.1261 F   0  0  0  0  0  0  0  0  0  0  0  0
    3.7471   -4.5384   23.9296 C   0  0  0  0  0  0  0  0  0  0  0  0
    2.7184   -4.1918   23.9990 H   0  0  0  0  0  0  0  0  0  0  0  0
    4.7890   -3.6913   24.3051 C   0  0  0  0  0  0  0  0  0  0  0  0
    4.5528   -2.6782   24.6190 H   0  0  0  0  0  0  0  0  0  0  0  0
    7.7780   -1.8631   22.7374 C   0  0  0  0  0  0  0  0  0  0  0  0
    6.8356   -0.9973   22.2003 C   0  0  0  0  0  0  0  0  0  0  0  0
    5.9789   -0.5758   22.6853 H   0  0  0  0  0  0  0  0  0  0  0  0
    5.5011    0.7573   20.0490 C   0  0  0  0  0  0  0  0  0  0  0  0
    5.0283    0.7869   21.0347 H   0  0  0  0  0  0  0  0  0  0  0  0
    4.8961    1.3792   18.9589 C   0  0  0  0  0  0  0  0  0  0  0  0
    3.9575    1.9114   19.0638 H   0  0  0  0  0  0  0  0  0  0  0  0
  1  2  1  0
  2  3  2  0
  3  4  1  0
  4  5  1  0
  4  6  2  0
  6  7  1  0
  7  8  2  0
  8  9  1  0
  9 10  1  0
 10 11  1  0
 10 12  2  0
 12 13  1  0
 12 14  1  0
 14 15  1  0
 15 16  1  0
 15 17  1  0
 15 18  1  0
 18 19  2  0
 19 20  1  0
 19 21  1  0
 21 22  1  0
 21 23  2  0
 23 24  1  0
 24 25  1  0
 24 26  1  0
 24 27  1  0
 23 28  1  0
 28 29  1  0
 28 30  2  0
 30 31  1  0
 14 32  1  0
 32 33  2  0
 33 34  1  0
  6 35  1  0
 35 36  1  0
 35 37  2  0
 37 38  1  0
 37  2  1  0
 33  7  1  0
 32  9  1  0
 30 18  1  0
M  END
>  <cnnaffinity>  (1) 
-5.94156

>  <filename>  (1) 
FC(F)(F)c1ccc(Cn2ccn3nc(-c4cccnc4)cc23)cc1

$$$$
