
     RDKit          3D

 40 42  0  0  0  0  0  0  0  0999 V2000
    5.0990    2.1598   16.6900 H   0  0  0  0  0  0  0  0  0  0  0  0
    5.5718    1.5693   17.4692 C   0  0  0  0  0  0  0  0  0  0  0  0
    6.7820    1.0623   17.1775 N   0  0  0  0  0  0  0  0  0  0  0  0
    7.4049    0.3718   18.1409 C   0  0  0  0  0  0  0  0  0  0  0  0
    8.3739   -0.0466   17.8714 H   0  0  0  0  0  0  0  0  0  0  0  0
    6.8762    0.1135   19.4374 C   0  0  0  0  0  0  0  0  0  0  0  0
    7.5930   -0.6305   20.3992 N   0  0  0  0  0  0  0  0  0  0  0  0
    6.9240   -1.5368   21.3265 C   0  0  0  0  0  0  0  0  0  0  0  0
    5.9571   -1.8307   20.8987 H   0  0  0  0  0  0  0  0  0  0  0  0
    7.5094   -2.4659   21.3978 H   0  0  0  0  0  0  0  0  0  0  0  0
    6.6729   -1.0122   22.7611 C   0  0  0  0  0  0  0  0  0  0  0  0
    5.9918   -0.1518   22.6698 H   0  0  0  0  0  0  0  0  0  0  0  0
    6.1316   -1.7932   23.3055 H   0  0  0  0  0  0  0  0  0  0  0  0
    7.8548   -0.5923   23.5418 N   0  0  0  0  0  0  0  0  0  0  0  0
    8.3560   -1.3761   24.5868 C   0  0  0  0  0  0  0  0  0  0  0  0
    8.1875   -2.6834   24.2846 N   0  0  0  0  0  0  0  0  0  0  0  0
    8.6492   -3.4958   25.3347 C   0  0  0  0  0  0  0  0  0  0  0  0
    8.4967   -5.0324   25.2253 C   0  0  0  0  0  0  0  0  0  0  0  0
    9.5037   -5.5773   24.5200 F   0  0  0  0  0  0  0  0  0  0  0  0
    7.3541   -5.4166   24.6384 F   0  0  0  0  0  0  0  0  0  0  0  0
    8.5239   -5.6225   26.4444 F   0  0  0  0  0  0  0  0  0  0  0  0
    9.2065   -2.9175   26.4250 C   0  0  0  0  0  0  0  0  0  0  0  0
    9.5988   -3.4521   27.2820 H   0  0  0  0  0  0  0  0  0  0  0  0
    8.8694   -1.0851   25.9140 C   0  0  0  0  0  0  0  0  0  0  0  0
   10.1619   -0.8847   26.3325 H   0  0  0  0  0  0  0  0  0  0  0  0
    9.0818   -0.7000   25.9695 C   0  0  0  0  0  0  0  0  0  0  0  0
    9.1357    0.4258   25.8021 H   0  0  0  0  0  0  0  0  0  0  0  0
    8.3887    0.7096   23.1047 C   0  0  0  0  0  0  0  0  0  0  0  0
    8.9407    1.1967   23.9224 H   0  0  0  0  0  0  0  0  0  0  0  0
    7.5298    1.3677   22.9053 H   0  0  0  0  0  0  0  0  0  0  0  0
    9.2858    0.6836   21.8444 C   0  0  0  0  0  0  0  0  0  0  0  0
   10.3340    0.5262   22.1338 H   0  0  0  0  0  0  0  0  0  0  0  0
    9.2408    1.6914   21.4137 H   0  0  0  0  0  0  0  0  0  0  0  0
    8.9873   -0.3414   20.7133 C   0  0  0  0  0  0  0  0  0  0  0  0
    9.4896    0.0095   19.8003 H   0  0  0  0  0  0  0  0  0  0  0  0
    9.4568   -1.3022   20.9594 H   0  0  0  0  0  0  0  0  0  0  0  0
    5.5811    0.6158   19.6870 C   0  0  0  0  0  0  0  0  0  0  0  0
    5.1056    0.4176   20.6463 H   0  0  0  0  0  0  0  0  0  0  0  0
    4.9366    1.3702   18.6988 C   0  0  0  0  0  0  0  0  0  0  0  0
    3.9521    1.7961   18.8732 H   0  0  0  0  0  0  0  0  0  0  0  0
  1  2  1  0
  2  3  2  0
  3  4  1  0
  4  5  1  0
  4  6  2  0
  6  7  1  0
  7  8  1  0
  8  9  1  0
  8 10  1  0
  8 11  1  0
 11 12  1  0
 11 13  1  0
 11 14  1  0
 14 15  1  0
 15 16  2  0
 16 17  1  0
 17 18  1  0
 18 19  1  0
 18 20  1  0
 18 21  1  0
 17 22  2  0
 22 23  1  0
 22 24  1  0
 24 25  1  0
 24 26  2  0
 26 27  1  0
 14 28  1  0
 28 29  1  0
 28 30  1  0
 28 31  1  0
 31 32  1  0
 31 33  1  0
 31 34  1  0
 34 35  1  0
 34 36  1  0
  6 37  1  0
 37 38  1  0
 37 39  2  0
 39 40  1  0
 39  2  1  0
 34  7  1  0
 26 15  1  0
M  END
>  <cnnaffinity>  (1) 
-5.52614

>  <filename>  (1) 
FC(F)(F)c1cccc(N2CCCN(c3cccnc3)CC2)n1

$$$$
