
     RDKit          3D

 29 31  0  0  0  0  0  0  0  0999 V2000
    6.8039    4.1058   22.0502 H   0  0  0  0  0  0  0  0  0  0  0  0
    6.9950    3.2714   22.7215 C   0  0  0  0  0  0  0  0  0  0  0  0
    7.1991    2.0993   22.1331 N   0  0  0  0  0  0  0  0  0  0  0  0
    7.4501    1.0684   22.9344 C   0  0  0  0  0  0  0  0  0  0  0  0
    7.6835   -0.2164   22.2835 C   0  0  0  0  0  0  0  0  0  0  0  0
    7.3570   -0.6682   21.0073 C   0  0  0  0  0  0  0  0  0  0  0  0
    6.6498    0.0497   19.9069 C   0  0  0  0  0  0  0  0  0  0  0  0
    7.1545    0.0859   18.5880 C   0  0  0  0  0  0  0  0  0  0  0  0
    8.1078   -0.3862   18.3538 H   0  0  0  0  0  0  0  0  0  0  0  0
    6.5474    0.6893   17.5582 N   0  0  0  0  0  0  0  0  0  0  0  0
    5.3805    1.3057   17.8008 C   0  0  0  0  0  0  0  0  0  0  0  0
    4.9282    1.8221   16.9563 H   0  0  0  0  0  0  0  0  0  0  0  0
    4.7663    1.3126   19.0555 C   0  0  0  0  0  0  0  0  0  0  0  0
    3.8279    1.8419   19.2002 H   0  0  0  0  0  0  0  0  0  0  0  0
    5.4074    0.6690   20.1175 C   0  0  0  0  0  0  0  0  0  0  0  0
    4.9669    0.6798   21.1144 H   0  0  0  0  0  0  0  0  0  0  0  0
    7.7533   -2.0262   21.0525 C   0  0  0  0  0  0  0  0  0  0  0  0
    7.5545   -2.7753   20.3087 H   0  0  0  0  0  0  0  0  0  0  0  0
    8.2958   -2.3644   22.2097 N   0  0  0  0  0  0  0  0  0  0  0  0
    8.2524   -1.2511   22.9384 N   0  0  0  0  0  0  0  0  0  0  0  0
    8.5014   -1.2662   23.9202 H   0  0  0  0  0  0  0  0  0  0  0  0
    7.5134    1.1080   24.2739 N   0  0  0  0  0  0  0  0  0  0  0  0
    7.2808    2.2823   24.8690 C   0  0  0  0  0  0  0  0  0  0  0  0
    7.3381    2.3613   26.4276 C   0  0  0  0  0  0  0  0  0  0  0  0
    6.1837    2.8488   26.9288 F   0  0  0  0  0  0  0  0  0  0  0  0
    8.3116    3.2093   26.8204 F   0  0  0  0  0  0  0  0  0  0  0  0
    7.5635    1.1931   27.0345 F   0  0  0  0  0  0  0  0  0  0  0  0
    7.0201    3.4313   24.1065 C   0  0  0  0  0  0  0  0  0  0  0  0
    6.8577    4.4011   24.5499 H   0  0  0  0  0  0  0  0  0  0  0  0
  1  2  1  0
  2  3  2  0
  3  4  1  0
  4  5  1  0
  5  6  2  0
  6  7  1  0
  7  8  2  0
  8  9  1  0
  8 10  1  0
 10 11  2  0
 11 12  1  0
 11 13  1  0
 13 14  1  0
 13 15  2  0
 15 16  1  0
  6 17  1  0
 17 18  1  0
 17 19  2  0
 19 20  1  0
 20 21  1  0
  4 22  2  0
 22 23  1  0
 23 24  1  0
 24 25  1  0
 24 26  1  0
 24 27  1  0
 23 28  2  0
 28 29  1  0
 28  2  1  0
 20  5  1  0
 15  7  1  0
M  END
>  <cnnaffinity>  (1) 
-5.09032

>  <filename>  (1) 
FC(F)(F)c1ccnc(-c2[nH]ncc2-c2cccnc2)n1

$$$$
