
     RDKit          3D

 31 34  0  0  0  0  0  0  0  0999 V2000
    6.2710   -2.3867   28.1720 H   0  0  0  0  0  0  0  0  0  0  0  0
    6.1555   -1.8516   27.2425 C   0  0  0  0  0  0  0  0  0  0  0  0
    7.0678   -2.0829   26.3078 N   0  0  0  0  0  0  0  0  0  0  0  0
    6.9103   -1.4526   25.1310 C   0  0  0  0  0  0  0  0  0  0  0  0
    7.9309   -1.8087   24.1109 C   0  0  0  0  0  0  0  0  0  0  0  0
    9.0729   -2.5295   24.2532 C   0  0  0  0  0  0  0  0  0  0  0  0
    9.4447   -3.0165   25.1447 H   0  0  0  0  0  0  0  0  0  0  0  0
   10.0031   -2.6707   22.7941 S   0  0  0  0  0  0  0  0  0  0  0  0
    8.8023   -1.7512   21.9385 C   0  0  0  0  0  0  0  0  0  0  0  0
    8.5603   -1.3050   20.7271 N   0  0  0  0  0  0  0  0  0  0  0  0
    7.3568   -0.6930   20.9065 C   0  0  0  0  0  0  0  0  0  0  0  0
    6.6486    0.0012   19.8532 C   0  0  0  0  0  0  0  0  0  0  0  0
    7.1988    0.0193   18.5665 C   0  0  0  0  0  0  0  0  0  0  0  0
    8.1322   -0.5034   18.3542 H   0  0  0  0  0  0  0  0  0  0  0  0
    6.6150    0.6553   17.5479 N   0  0  0  0  0  0  0  0  0  0  0  0
    5.4596    1.2927   17.7960 C   0  0  0  0  0  0  0  0  0  0  0  0
    5.0069    1.7891   16.9450 H   0  0  0  0  0  0  0  0  0  0  0  0
    4.8316    1.3241   19.0474 C   0  0  0  0  0  0  0  0  0  0  0  0
    3.8990    1.8633   19.1817 H   0  0  0  0  0  0  0  0  0  0  0  0
    5.4347    0.6608   20.1069 C   0  0  0  0  0  0  0  0  0  0  0  0
    5.0125    0.6320   21.1172 H   0  0  0  0  0  0  0  0  0  0  0  0
    6.8506   -0.7406   22.1332 N   0  0  0  0  0  0  0  0  0  0  0  0
    7.8070   -1.4150   22.7909 N   0  0  0  0  0  0  0  0  0  0  0  0
    5.9281   -0.5761   24.8741 N   0  0  0  0  0  0  0  0  0  0  0  0
    5.0060   -0.3578   25.8176 C   0  0  0  0  0  0  0  0  0  0  0  0
    3.8004    0.5824   25.5085 C   0  0  0  0  0  0  0  0  0  0  0  0
    4.0478    1.4597   24.5305 F   0  0  0  0  0  0  0  0  0  0  0  0
    3.4641    1.2890   26.6095 F   0  0  0  0  0  0  0  0  0  0  0  0
    2.6970   -0.1111   25.1661 F   0  0  0  0  0  0  0  0  0  0  0  0
    5.0856   -0.9835   27.0621 C   0  0  0  0  0  0  0  0  0  0  0  0
    4.3702   -0.8121   27.8540 H   0  0  0  0  0  0  0  0  0  0  0  0
  1  2  1  0
  2  3  2  0
  3  4  1  0
  4  5  1  0
  5  6  2  0
  6  7  1  0
  6  8  1  0
  8  9  1  0
  9 10  2  0
 10 11  1  0
 11 12  1  0
 12 13  2  0
 13 14  1  0
 13 15  1  0
 15 16  2  0
 16 17  1  0
 16 18  1  0
 18 19  1  0
 18 20  2  0
 20 21  1  0
 11 22  2  0
 22 23  1  0
  4 24  2  0
 24 25  1  0
 25 26  1  0
 26 27  1  0
 26 28  1  0
 26 29  1  0
 25 30  2  0
 30 31  1  0
 30  2  1  0
 23  5  1  0
 23  9  1  0
 20 12  1  0
M  END
>  <cnnaffinity>  (1) 
-5.38622

>  <filename>  (1) 
FC(F)(F)c1ccnc(-c2csc3nc(-c4cccnc4)nn23)n1

$$$$
