
     RDKit          3D

 31 33  0  0  0  0  0  0  0  0999 V2000
    4.9118    1.7824   16.9948 H   0  0  0  0  0  0  0  0  0  0  0  0
    5.3980    1.2956   17.8364 C   0  0  0  0  0  0  0  0  0  0  0  0
    6.5608    0.6788   17.5751 N   0  0  0  0  0  0  0  0  0  0  0  0
    7.1739    0.0628   18.5866 C   0  0  0  0  0  0  0  0  0  0  0  0
    8.1127   -0.4333   18.3621 H   0  0  0  0  0  0  0  0  0  0  0  0
    6.6658    0.0115   19.8963 C   0  0  0  0  0  0  0  0  0  0  0  0
    7.3711   -0.6673   20.9250 N   0  0  0  0  0  0  0  0  0  0  0  0
    8.7319   -0.8429   21.0723 C   0  0  0  0  0  0  0  0  0  0  0  0
    9.4327   -0.4258   20.3572 H   0  0  0  0  0  0  0  0  0  0  0  0
    9.0345   -1.4964   22.1595 N   0  0  0  0  0  0  0  0  0  0  0  0
    7.8311   -1.8032   22.7561 C   0  0  0  0  0  0  0  0  0  0  0  0
    7.7356   -2.5241   24.0491 C   0  0  0  0  0  0  0  0  0  0  0  0
    8.5149   -2.0541   25.1190 C   0  0  0  0  0  0  0  0  0  0  0  0
    9.1978   -1.2306   24.9361 H   0  0  0  0  0  0  0  0  0  0  0  0
    8.4095   -2.6170   26.3862 C   0  0  0  0  0  0  0  0  0  0  0  0
    9.0261   -2.2386   27.1957 H   0  0  0  0  0  0  0  0  0  0  0  0
    7.5127   -3.6620   26.6109 C   0  0  0  0  0  0  0  0  0  0  0  0
    7.4218   -4.1028   27.5971 H   0  0  0  0  0  0  0  0  0  0  0  0
    6.7388   -4.1553   25.5628 C   0  0  0  0  0  0  0  0  0  0  0  0
    6.0490   -4.9760   25.7486 H   0  0  0  0  0  0  0  0  0  0  0  0
    6.8617   -3.6195   24.2723 C   0  0  0  0  0  0  0  0  0  0  0  0
    6.0222   -4.2371   23.1516 C   0  0  0  0  0  0  0  0  0  0  0  0
    5.6653   -5.5099   23.4077 F   0  0  0  0  0  0  0  0  0  0  0  0
    6.6558   -4.2537   21.9636 F   0  0  0  0  0  0  0  0  0  0  0  0
    4.8732   -3.5495   22.9584 F   0  0  0  0  0  0  0  0  0  0  0  0
    6.8054   -1.2832   22.0228 C   0  0  0  0  0  0  0  0  0  0  0  0
    5.7486   -1.3438   22.1867 H   0  0  0  0  0  0  0  0  0  0  0  0
    5.4446    0.6467   20.1619 C   0  0  0  0  0  0  0  0  0  0  0  0
    5.0162    0.6367   21.1688 H   0  0  0  0  0  0  0  0  0  0  0  0
    4.8099    1.3088   19.1071 C   0  0  0  0  0  0  0  0  0  0  0  0
    3.8768    1.8403   19.2642 H   0  0  0  0  0  0  0  0  0  0  0  0
  1  2  1  0
  2  3  2  0
  3  4  1  0
  4  5  1  0
  4  6  2  0
  6  7  1  0
  7  8  1  0
  8  9  1  0
  8 10  2  0
 10 11  1  0
 11 12  1  0
 12 13  2  0
 13 14  1  0
 13 15  1  0
 15 16  1  0
 15 17  2  0
 17 18  1  0
 17 19  1  0
 19 20  1  0
 19 21  2  0
 21 22  1  0
 22 23  1  0
 22 24  1  0
 22 25  1  0
 11 26  2  0
 26 27  1  0
  6 28  1  0
 28 29  1  0
 28 30  2  0
 30 31  1  0
 30  2  1  0
 26  7  1  0
 21 12  1  0
M  END
>  <cnnaffinity>  (1) 
-5.36474

>  <filename>  (1) 
FC(F)(F)c1ccccc1-c1cn(-c2cccnc2)cn1

$$$$
