
     RDKit          3D

 29 31  0  0  0  0  0  0  0  0999 V2000
    4.9400    1.7997   16.9683 H   0  0  0  0  0  0  0  0  0  0  0  0
    5.3892    1.2921   17.8198 C   0  0  0  0  0  0  0  0  0  0  0  0
    6.5445    0.6479   17.5870 N   0  0  0  0  0  0  0  0  0  0  0  0
    7.1433    0.0411   18.6129 C   0  0  0  0  0  0  0  0  0  0  0  0
    8.0819   -0.4696   18.3894 H   0  0  0  0  0  0  0  0  0  0  0  0
    6.6381    0.0578   19.9203 C   0  0  0  0  0  0  0  0  0  0  0  0
    7.4105   -0.6433   20.9565 C   0  0  0  0  0  0  0  0  0  0  0  0
    8.0637   -1.7552   20.7611 N   0  0  0  0  0  0  0  0  0  0  0  0
    8.5344   -2.1944   21.9767 N   0  0  0  0  0  0  0  0  0  0  0  0
    8.1693   -1.3213   22.8689 C   0  0  0  0  0  0  0  0  0  0  0  0
    8.4103   -1.3568   23.9255 H   0  0  0  0  0  0  0  0  0  0  0  0
    7.4725   -0.3045   22.2837 N   0  0  0  0  0  0  0  0  0  0  0  0
    6.9999    0.8354   22.9396 C   0  0  0  0  0  0  0  0  0  0  0  0
    6.0580    0.6015   23.8305 N   0  0  0  0  0  0  0  0  0  0  0  0
    5.4892    1.6543   24.4305 C   0  0  0  0  0  0  0  0  0  0  0  0
    4.7036    1.4080   25.1439 H   0  0  0  0  0  0  0  0  0  0  0  0
    5.8673    2.9723   24.1782 C   0  0  0  0  0  0  0  0  0  0  0  0
    5.3691    3.7741   24.7039 H   0  0  0  0  0  0  0  0  0  0  0  0
    6.9009    3.2161   23.2787 C   0  0  0  0  0  0  0  0  0  0  0  0
    7.2348    4.2317   23.0567 H   0  0  0  0  0  0  0  0  0  0  0  0
    7.5087    2.1084   22.6793 C   0  0  0  0  0  0  0  0  0  0  0  0
    8.6600    2.2528   21.7405 C   0  0  0  0  0  0  0  0  0  0  0  0
    8.2472    2.2521   20.4602 F   0  0  0  0  0  0  0  0  0  0  0  0
    9.2954    3.4149   21.9509 F   0  0  0  0  0  0  0  0  0  0  0  0
    9.5773    1.2831   21.8576 F   0  0  0  0  0  0  0  0  0  0  0  0
    5.4074    0.6861   20.1462 C   0  0  0  0  0  0  0  0  0  0  0  0
    4.9377    0.6614   21.1304 H   0  0  0  0  0  0  0  0  0  0  0  0
    4.7789    1.3228   19.0786 C   0  0  0  0  0  0  0  0  0  0  0  0
    3.8411    1.8532   19.2077 H   0  0  0  0  0  0  0  0  0  0  0  0
  1  2  1  0
  2  3  2  0
  3  4  1  0
  4  5  1  0
  4  6  2  0
  6  7  1  0
  7  8  2  0
  8  9  1  0
  9 10  2  0
 10 11  1  0
 10 12  1  0
 12 13  1  0
 13 14  2  0
 14 15  1  0
 15 16  1  0
 15 17  2  0
 17 18  1  0
 17 19  1  0
 19 20  1  0
 19 21  2  0
 21 22  1  0
 22 23  1  0
 22 24  1  0
 22 25  1  0
  6 26  1  0
 26 27  1  0
 26 28  2  0
 28 29  1  0
 28  2  1  0
 12  7  1  0
 21 13  1  0
M  END
>  <cnnaffinity>  (1) 
-4.62564

>  <filename>  (1) 
FC(F)(F)c1cccnc1-n1cnnc1-c1cccnc1

$$$$
