
     RDKit          3D

 32 34  0  0  0  0  0  0  0  0999 V2000
    5.0064    1.9300   16.9813 H   0  0  0  0  0  0  0  0  0  0  0  0
    5.4488    1.3336   17.7769 C   0  0  0  0  0  0  0  0  0  0  0  0
    6.5834    0.6822   17.4721 N   0  0  0  0  0  0  0  0  0  0  0  0
    7.1709   -0.0358   18.4441 C   0  0  0  0  0  0  0  0  0  0  0  0
    8.0699   -0.5860   18.1647 H   0  0  0  0  0  0  0  0  0  0  0  0
    6.6718   -0.1513   19.7635 C   0  0  0  0  0  0  0  0  0  0  0  0
    7.2823   -0.9107   20.7895 N   0  0  0  0  0  0  0  0  0  0  0  0
    6.8346   -1.7902   21.0313 H   0  0  0  0  0  0  0  0  0  0  0  0
    8.6377   -0.9457   21.1159 C   0  0  0  0  0  0  0  0  0  0  0  0
    9.7309   -0.0963   20.8081 C   0  0  0  0  0  0  0  0  0  0  0  0
    9.7439    0.8208   20.2376 H   0  0  0  0  0  0  0  0  0  0  0  0
   10.8586   -0.5662   21.3311 N   0  0  0  0  0  0  0  0  0  0  0  0
   10.5087   -1.6716   21.9983 N   0  0  0  0  0  0  0  0  0  0  0  0
   11.2482   -2.2102   22.4332 H   0  0  0  0  0  0  0  0  0  0  0  0
    9.1695   -1.9313   21.9325 C   0  0  0  0  0  0  0  0  0  0  0  0
    8.3951   -3.0438   22.5242 C   0  0  0  0  0  0  0  0  0  0  0  0
    7.5464   -3.6475   21.6682 N   0  0  0  0  0  0  0  0  0  0  0  0
    6.9924   -4.8069   22.0215 C   0  0  0  0  0  0  0  0  0  0  0  0
    6.3983   -5.3255   21.2763 H   0  0  0  0  0  0  0  0  0  0  0  0
    7.1069   -5.3508   23.3040 C   0  0  0  0  0  0  0  0  0  0  0  0
    6.6375   -6.2975   23.5312 H   0  0  0  0  0  0  0  0  0  0  0  0
    7.8441   -4.6622   24.2558 C   0  0  0  0  0  0  0  0  0  0  0  0
    7.9340   -5.0378   25.2769 H   0  0  0  0  0  0  0  0  0  0  0  0
    8.4892   -3.4873   23.8607 C   0  0  0  0  0  0  0  0  0  0  0  0
    9.3199   -2.6928   24.8054 C   0  0  0  0  0  0  0  0  0  0  0  0
    9.0190   -1.3867   24.7884 F   0  0  0  0  0  0  0  0  0  0  0  0
    9.2374   -3.1137   26.0817 F   0  0  0  0  0  0  0  0  0  0  0  0
   10.6230   -2.7899   24.4470 F   0  0  0  0  0  0  0  0  0  0  0  0
    5.4540    0.4931   20.0375 C   0  0  0  0  0  0  0  0  0  0  0  0
    5.0127    0.4055   21.0288 H   0  0  0  0  0  0  0  0  0  0  0  0
    4.8458    1.2594   19.0360 C   0  0  0  0  0  0  0  0  0  0  0  0
    3.9255    1.8069   19.2183 H   0  0  0  0  0  0  0  0  0  0  0  0
  1  2  1  0
  2  3  2  0
  3  4  1  0
  4  5  1  0
  4  6  2  0
  6  7  1  0
  7  8  1  0
  7  9  1  0
  9 10  1  0
 10 11  1  0
 10 12  2  0
 12 13  1  0
 13 14  1  0
 13 15  1  0
 15 16  1  0
 16 17  2  0
 17 18  1  0
 18 19  1  0
 18 20  2  0
 20 21  1  0
 20 22  1  0
 22 23  1  0
 22 24  2  0
 24 25  1  0
 25 26  1  0
 25 27  1  0
 25 28  1  0
  6 29  1  0
 29 30  1  0
 29 31  2  0
 31 32  1  0
 31  2  1  0
 15  9  2  0
 24 16  1  0
M  END
>  <cnnaffinity>  (1) 
-6.05848

>  <filename>  (1) 
FC(F)(F)c1cccnc1-c1[nH]ncc1Nc1cccnc1

$$$$
