
     RDKit          3D

 34 36  0  0  0  0  0  0  0  0999 V2000
    4.9505    1.8247   16.9394 H   0  0  0  0  0  0  0  0  0  0  0  0
    5.4577    1.3109   17.7532 C   0  0  0  0  0  0  0  0  0  0  0  0
    6.6095    0.7004   17.4349 N   0  0  0  0  0  0  0  0  0  0  0  0
    7.2617    0.0633   18.4162 C   0  0  0  0  0  0  0  0  0  0  0  0
    8.1795   -0.4345   18.1117 H   0  0  0  0  0  0  0  0  0  0  0  0
    6.8181   -0.0016   19.7583 C   0  0  0  0  0  0  0  0  0  0  0  0
    7.5453   -0.7314   20.8247 C   0  0  0  0  0  0  0  0  0  0  0  0
    9.2438   -1.0745   20.7686 S   0  0  0  0  0  0  0  0  0  0  0  0
    9.1928   -1.8704   22.2984 C   0  0  0  0  0  0  0  0  0  0  0  0
   10.0778   -2.3518   22.6938 H   0  0  0  0  0  0  0  0  0  0  0  0
    7.9494   -1.8588   22.8547 C   0  0  0  0  0  0  0  0  0  0  0  0
    7.5596   -2.3952   24.2253 C   0  0  0  0  0  0  0  0  0  0  0  0
    6.5608   -2.8417   24.1327 H   0  0  0  0  0  0  0  0  0  0  0  0
    8.2094   -3.2359   24.5026 H   0  0  0  0  0  0  0  0  0  0  0  0
    7.5170   -1.3446   25.3369 C   0  0  0  0  0  0  0  0  0  0  0  0
    6.3348   -0.6305   25.5819 C   0  0  0  0  0  0  0  0  0  0  0  0
    5.4413   -0.8763   25.0154 H   0  0  0  0  0  0  0  0  0  0  0  0
    6.2745    0.3874   26.5311 C   0  0  0  0  0  0  0  0  0  0  0  0
    5.3307    0.9051   26.6911 H   0  0  0  0  0  0  0  0  0  0  0  0
    7.4100    0.7118   27.2904 C   0  0  0  0  0  0  0  0  0  0  0  0
    7.3625    1.9151   28.2179 C   0  0  0  0  0  0  0  0  0  0  0  0
    8.0686    1.7331   29.3489 F   0  0  0  0  0  0  0  0  0  0  0  0
    7.8451    3.0228   27.6208 F   0  0  0  0  0  0  0  0  0  0  0  0
    6.1046    2.2306   28.5911 F   0  0  0  0  0  0  0  0  0  0  0  0
    8.5777   -0.0569   27.1235 C   0  0  0  0  0  0  0  0  0  0  0  0
    9.4394    0.0693   27.7738 H   0  0  0  0  0  0  0  0  0  0  0  0
    8.6288   -1.0529   26.1415 C   0  0  0  0  0  0  0  0  0  0  0  0
    9.5571   -1.5983   25.9981 H   0  0  0  0  0  0  0  0  0  0  0  0
    7.0086   -1.2318   21.9792 C   0  0  0  0  0  0  0  0  0  0  0  0
    5.9453   -1.2212   22.1800 H   0  0  0  0  0  0  0  0  0  0  0  0
    5.6104    0.6499   20.0597 C   0  0  0  0  0  0  0  0  0  0  0  0
    5.2349    0.6604   21.0853 H   0  0  0  0  0  0  0  0  0  0  0  0
    4.9131    1.3013   19.0412 C   0  0  0  0  0  0  0  0  0  0  0  0
    3.9674    1.7960   19.2304 H   0  0  0  0  0  0  0  0  0  0  0  0
  1  2  1  0
  2  3  2  0
  3  4  1  0
  4  5  1  0
  4  6  2  0
  6  7  1  0
  7  8  1  0
  8  9  1  0
  9 10  1  0
  9 11  2  0
 11 12  1  0
 12 13  1  0
 12 14  1  0
 12 15  1  0
 15 16  2  0
 16 17  1  0
 16 18  1  0
 18 19  1  0
 18 20  2  0
 20 21  1  0
 21 22  1  0
 21 23  1  0
 21 24  1  0
 20 25  1  0
 25 26  1  0
 25 27  2  0
 27 28  1  0
 11 29  1  0
 29 30  1  0
  6 31  1  0
 31 32  1  0
 31 33  2  0
 33 34  1  0
 33  2  1  0
 29  7  2  0
 27 15  1  0
M  END
>  <cnnaffinity>  (1) 
-4.95018

>  <filename>  (1) 
FC(F)(F)c1ccc(Cc2csc(-c3cccnc3)c2)cc1

$$$$
