
     RDKit          3D

 32 34  0  0  0  0  0  0  0  0999 V2000
    4.9157    1.7833   16.9908 H   0  0  0  0  0  0  0  0  0  0  0  0
    5.3998    1.2965   17.8314 C   0  0  0  0  0  0  0  0  0  0  0  0
    6.5609    0.6777   17.5651 N   0  0  0  0  0  0  0  0  0  0  0  0
    7.1693    0.0749   18.5911 C   0  0  0  0  0  0  0  0  0  0  0  0
    8.1103   -0.4256   18.3700 H   0  0  0  0  0  0  0  0  0  0  0  0
    6.6555    0.0184   19.8953 C   0  0  0  0  0  0  0  0  0  0  0  0
    7.3792   -0.7035   20.9583 C   0  0  0  0  0  0  0  0  0  0  0  0
    8.7602   -0.5524   21.1124 C   0  0  0  0  0  0  0  0  0  0  0  0
    9.3262    0.1005   20.4586 H   0  0  0  0  0  0  0  0  0  0  0  0
    9.3732   -1.2303   22.1579 C   0  0  0  0  0  0  0  0  0  0  0  0
   10.4418   -1.1418   22.3073 H   0  0  0  0  0  0  0  0  0  0  0  0
    8.7274   -2.0303   23.0160 N   0  0  0  0  0  0  0  0  0  0  0  0
    7.3911   -2.1758   22.8792 C   0  0  0  0  0  0  0  0  0  0  0  0
    6.6422   -3.0700   23.8657 C   0  0  0  0  0  0  0  0  0  0  0  0
    5.4363   -2.6306   24.2562 N   0  0  0  0  0  0  0  0  0  0  0  0
    4.7378   -3.2961   25.1730 C   0  0  0  0  0  0  0  0  0  0  0  0
    3.7845   -2.8627   25.4612 H   0  0  0  0  0  0  0  0  0  0  0  0
    5.1768   -4.4963   25.7304 C   0  0  0  0  0  0  0  0  0  0  0  0
    4.5750   -5.0120   26.4664 H   0  0  0  0  0  0  0  0  0  0  0  0
    6.3882   -5.0157   25.3014 C   0  0  0  0  0  0  0  0  0  0  0  0
    6.7629   -5.9538   25.7134 H   0  0  0  0  0  0  0  0  0  0  0  0
    7.1211   -4.3153   24.3347 C   0  0  0  0  0  0  0  0  0  0  0  0
    8.4231   -4.8933   23.8337 C   0  0  0  0  0  0  0  0  0  0  0  0
    9.4893   -4.3050   24.3948 F   0  0  0  0  0  0  0  0  0  0  0  0
    8.5323   -6.2083   24.1102 F   0  0  0  0  0  0  0  0  0  0  0  0
    8.5541   -4.7766   22.4973 F   0  0  0  0  0  0  0  0  0  0  0  0
    6.6970   -1.5318   21.8502 C   0  0  0  0  0  0  0  0  0  0  0  0
    5.6279   -1.6660   21.7407 H   0  0  0  0  0  0  0  0  0  0  0  0
    5.4309    0.6542   20.1488 C   0  0  0  0  0  0  0  0  0  0  0  0
    5.0148    0.6323   21.1612 H   0  0  0  0  0  0  0  0  0  0  0  0
    4.8020    1.3185   19.0991 C   0  0  0  0  0  0  0  0  0  0  0  0
    3.8681    1.8477   19.2553 H   0  0  0  0  0  0  0  0  0  0  0  0
  1  2  1  0
  2  3  2  0
  3  4  1  0
  4  5  1  0
  4  6  2  0
  6  7  1  0
  7  8  2  0
  8  9  1  0
  8 10  1  0
 10 11  1  0
 10 12  2  0
 12 13  1  0
 13 14  1  0
 14 15  2  0
 15 16  1  0
 16 17  1  0
 16 18  2  0
 18 19  1  0
 18 20  1  0
 20 21  1  0
 20 22  2  0
 22 23  1  0
 23 24  1  0
 23 25  1  0
 23 26  1  0
 13 27  2  0
 27 28  1  0
  6 29  1  0
 29 30  1  0
 29 31  2  0
 31 32  1  0
 31  2  1  0
 27  7  1  0
 22 14  1  0
M  END
>  <cnnaffinity>  (1) 
-5.60691

>  <filename>  (1) 
FC(F)(F)c1cccnc1-c1cc(-c2cccnc2)ccn1

$$$$
