
     RDKit          3D

 30 32  0  0  0  0  0  0  0  0999 V2000
    4.9135    1.9327   16.7292 H   0  0  0  0  0  0  0  0  0  0  0  0
    5.3441    1.4344   17.5932 C   0  0  0  0  0  0  0  0  0  0  0  0
    6.5210    0.8244   17.3788 N   0  0  0  0  0  0  0  0  0  0  0  0
    7.0886    0.2083   18.4218 C   0  0  0  0  0  0  0  0  0  0  0  0
    8.0500   -0.2589   18.2104 H   0  0  0  0  0  0  0  0  0  0  0  0
    6.5315    0.1497   19.7165 C   0  0  0  0  0  0  0  0  0  0  0  0
    7.1948   -0.5674   20.8295 C   0  0  0  0  0  0  0  0  0  0  0  0
    7.0996   -0.4304   22.1926 C   0  0  0  0  0  0  0  0  0  0  0  0
    6.5692    0.3169   22.7627 H   0  0  0  0  0  0  0  0  0  0  0  0
    7.9042   -1.4434   22.7541 C   0  0  0  0  0  0  0  0  0  0  0  0
    8.0983   -1.6591   24.2293 C   0  0  0  0  0  0  0  0  0  0  0  0
    7.2835   -0.9060   24.9944 N   0  0  0  0  0  0  0  0  0  0  0  0
    7.3054   -1.0162   26.3161 C   0  0  0  0  0  0  0  0  0  0  0  0
    6.6312   -0.3541   26.8600 H   0  0  0  0  0  0  0  0  0  0  0  0
    8.1602   -1.8976   26.9757 C   0  0  0  0  0  0  0  0  0  0  0  0
    8.1651   -1.9710   28.0449 H   0  0  0  0  0  0  0  0  0  0  0  0
    9.0151   -2.6842   26.2249 C   0  0  0  0  0  0  0  0  0  0  0  0
    9.6622   -3.4122   26.7160 H   0  0  0  0  0  0  0  0  0  0  0  0
    9.0324   -2.5393   24.8349 C   0  0  0  0  0  0  0  0  0  0  0  0
   10.0194   -3.3572   24.0348 C   0  0  0  0  0  0  0  0  0  0  0  0
   10.7776   -2.5996   23.2308 F   0  0  0  0  0  0  0  0  0  0  0  0
    9.3819   -4.2685   23.2864 F   0  0  0  0  0  0  0  0  0  0  0  0
   10.8835   -4.0390   24.8176 F   0  0  0  0  0  0  0  0  0  0  0  0
    8.4696   -2.1848   21.7910 N   0  0  0  0  0  0  0  0  0  0  0  0
    8.0465   -1.6166   20.6607 N   0  0  0  0  0  0  0  0  0  0  0  0
    8.2831   -2.0585   19.7872 H   0  0  0  0  0  0  0  0  0  0  0  0
    5.2950    0.7965   19.9114 C   0  0  0  0  0  0  0  0  0  0  0  0
    4.8147    0.7747   20.8917 H   0  0  0  0  0  0  0  0  0  0  0  0
    4.6911    1.4431   18.8310 C   0  0  0  0  0  0  0  0  0  0  0  0
    3.7384    1.9544   18.9309 H   0  0  0  0  0  0  0  0  0  0  0  0
  1  2  1  0
  2  3  2  0
  3  4  1  0
  4  5  1  0
  4  6  2  0
  6  7  1  0
  7  8  2  0
  8  9  1  0
  8 10  1  0
 10 11  1  0
 11 12  2  0
 12 13  1  0
 13 14  1  0
 13 15  2  0
 15 16  1  0
 15 17  1  0
 17 18  1  0
 17 19  2  0
 19 20  1  0
 20 21  1  0
 20 22  1  0
 20 23  1  0
 10 24  2  0
 24 25  1  0
 25 26  1  0
  6 27  1  0
 27 28  1  0
 27 29  2  0
 29 30  1  0
 29  2  1  0
 25  7  1  0
 19 11  1  0
M  END
>  <cnnaffinity>  (1) 
-5.38162

>  <filename>  (1) 
FC(F)(F)c1cccnc1-c1cc(-c2cccnc2)[nH]n1

$$$$
