
     RDKit          3D

 23 24  0  0  0  0  0  0  0  0999 V2000
    4.9208    1.7819   16.9986 H   0  0  0  0  0  0  0  0  0  0  0  0
    5.4044    1.2900   17.8398 C   0  0  0  0  0  0  0  0  0  0  0  0
    6.5646    0.6679   17.5829 N   0  0  0  0  0  0  0  0  0  0  0  0
    7.1874    0.0516   18.5979 C   0  0  0  0  0  0  0  0  0  0  0  0
    8.1282   -0.4391   18.3632 H   0  0  0  0  0  0  0  0  0  0  0  0
    6.6792    0.0206   19.9108 C   0  0  0  0  0  0  0  0  0  0  0  0
    7.2542   -0.6524   20.9570 O   0  0  0  0  0  0  0  0  0  0  0  0
    8.6177   -0.7718   21.0894 C   0  0  0  0  0  0  0  0  0  0  0  0
    9.6573    0.0635   20.6341 C   0  0  0  0  0  0  0  0  0  0  0  0
    9.5787    0.9314   19.9994 H   0  0  0  0  0  0  0  0  0  0  0  0
   10.8354   -0.3337   21.0822 N   0  0  0  0  0  0  0  0  0  0  0  0
   10.5613   -1.4248   21.8246 N   0  0  0  0  0  0  0  0  0  0  0  0
   11.3132   -1.9157   22.2777 H   0  0  0  0  0  0  0  0  0  0  0  0
    9.2475   -1.7233   21.8653 C   0  0  0  0  0  0  0  0  0  0  0  0
    8.8456   -2.7819   22.6168 O   0  0  0  0  0  0  0  0  0  0  0  0
    7.4653   -3.0444   22.6472 C   0  0  0  0  0  0  0  0  0  0  0  0
    6.8575   -2.1862   22.9783 H   0  0  0  0  0  0  0  0  0  0  0  0
    7.3284   -4.0662   23.4941 F   0  0  0  0  0  0  0  0  0  0  0  0
    7.0579   -3.4405   21.4270 F   0  0  0  0  0  0  0  0  0  0  0  0
    5.4540    0.6470   20.1693 C   0  0  0  0  0  0  0  0  0  0  0  0
    5.0335    0.6108   21.1739 H   0  0  0  0  0  0  0  0  0  0  0  0
    4.8190    1.3027   19.1120 C   0  0  0  0  0  0  0  0  0  0  0  0
    3.8868    1.8311   19.2642 H   0  0  0  0  0  0  0  0  0  0  0  0
  1  2  1  0
  2  3  2  0
  3  4  1  0
  4  5  1  0
  4  6  2  0
  6  7  1  0
  7  8  1  0
  8  9  1  0
  9 10  1  0
  9 11  2  0
 11 12  1  0
 12 13  1  0
 12 14  1  0
 14 15  1  0
 15 16  1  0
 16 17  1  0
 16 18  1  0
 16 19  1  0
  6 20  1  0
 20 21  1  0
 20 22  2  0
 22 23  1  0
 22  2  1  0
 14  8  2  0
M  END
>  <cnnaffinity>  (1) 
-4.67205

>  <filename>  (1) 
FC(F)Oc1[nH]ncc1Oc1cccnc1

$$$$
