
     RDKit          3D

 30 32  0  0  0  0  0  0  0  0999 V2000
    9.2335   -3.0294   21.8943 H   0  0  0  0  0  0  0  0  0  0  0  0
    8.6108   -2.1414   21.8906 C   0  0  0  0  0  0  0  0  0  0  0  0
    8.1890   -1.4698   22.9049 N   0  0  0  0  0  0  0  0  0  0  0  0
    7.4530   -0.4410   22.3480 C   0  0  0  0  0  0  0  0  0  0  0  0
    6.9119    0.6817   23.1400 C   0  0  0  0  0  0  0  0  0  0  0  0
    5.9286    0.4137   24.1044 C   0  0  0  0  0  0  0  0  0  0  0  0
    5.7310   -0.6211   24.3623 H   0  0  0  0  0  0  0  0  0  0  0  0
    5.2075    1.4495   24.6949 C   0  0  0  0  0  0  0  0  0  0  0  0
    4.3813    1.2166   25.3626 H   0  0  0  0  0  0  0  0  0  0  0  0
    5.5456    2.7752   24.4135 C   0  0  0  0  0  0  0  0  0  0  0  0
    5.0181    3.5865   24.9045 H   0  0  0  0  0  0  0  0  0  0  0  0
    6.5988    3.0591   23.5424 C   0  0  0  0  0  0  0  0  0  0  0  0
    6.8812    4.0977   23.3810 H   0  0  0  0  0  0  0  0  0  0  0  0
    7.2948    2.0235   22.9047 C   0  0  0  0  0  0  0  0  0  0  0  0
    8.4728    2.3448   21.9851 C   0  0  0  0  0  0  0  0  0  0  0  0
    8.1178    2.3224   20.6869 F   0  0  0  0  0  0  0  0  0  0  0  0
    9.0052    3.5532   22.2135 F   0  0  0  0  0  0  0  0  0  0  0  0
    9.4682    1.4419   22.1071 F   0  0  0  0  0  0  0  0  0  0  0  0
    7.4132   -0.6136   20.9777 C   0  0  0  0  0  0  0  0  0  0  0  0
    6.6671    0.0043   19.8908 C   0  0  0  0  0  0  0  0  0  0  0  0
    7.1679    0.0202   18.5728 C   0  0  0  0  0  0  0  0  0  0  0  0
    8.1105   -0.4647   18.3236 H   0  0  0  0  0  0  0  0  0  0  0  0
    6.5529    0.6390   17.5633 N   0  0  0  0  0  0  0  0  0  0  0  0
    5.4007    1.2765   17.8183 C   0  0  0  0  0  0  0  0  0  0  0  0
    4.9432    1.8060   16.9833 H   0  0  0  0  0  0  0  0  0  0  0  0
    4.7967    1.2907   19.0808 C   0  0  0  0  0  0  0  0  0  0  0  0
    3.8691    1.8347   19.2253 H   0  0  0  0  0  0  0  0  0  0  0  0
    5.4419    0.6415   20.1324 C   0  0  0  0  0  0  0  0  0  0  0  0
    5.0168    0.6415   21.1348 H   0  0  0  0  0  0  0  0  0  0  0  0
    8.2018   -1.6880   20.6909 O   0  0  0  0  0  0  0  0  0  0  0  0
  1  2  1  0
  2  3  2  0
  3  4  1  0
  4  5  1  0
  5  6  2  0
  6  7  1  0
  6  8  1  0
  8  9  1  0
  8 10  2  0
 10 11  1  0
 10 12  1  0
 12 13  1  0
 12 14  2  0
 14 15  1  0
 15 16  1  0
 15 17  1  0
 15 18  1  0
  4 19  2  0
 19 20  1  0
 20 21  2  0
 21 22  1  0
 21 23  1  0
 23 24  2  0
 24 25  1  0
 24 26  1  0
 26 27  1  0
 26 28  2  0
 28 29  1  0
 19 30  1  0
 30  2  1  0
 14  5  1  0
 28 20  1  0
M  END
>  <cnnaffinity>  (1) 
-4.43586

>  <filename>  (1) 
FC(F)(F)c1ccccc1-c1ncoc1-c1cccnc1

$$$$
