
     RDKit          3D

 33 35  0  0  0  0  0  0  0  0999 V2000
    4.9126    1.8067   16.9727 H   0  0  0  0  0  0  0  0  0  0  0  0
    5.3843    1.3068   17.8174 C   0  0  0  0  0  0  0  0  0  0  0  0
    6.5476    0.6892   17.5513 N   0  0  0  0  0  0  0  0  0  0  0  0
    7.1553    0.0649   18.5662 C   0  0  0  0  0  0  0  0  0  0  0  0
    8.1131   -0.3949   18.3252 H   0  0  0  0  0  0  0  0  0  0  0  0
    6.6513    0.0151   19.8844 C   0  0  0  0  0  0  0  0  0  0  0  0
    7.3731   -0.6416   20.9806 C   0  0  0  0  0  0  0  0  0  0  0  0
    7.5431   -0.2993   22.3207 C   0  0  0  0  0  0  0  0  0  0  0  0
    7.0814    0.8720   22.9441 N   0  0  0  0  0  0  0  0  0  0  0  0
    7.0069    1.6884   22.3634 H   0  0  0  0  0  0  0  0  0  0  0  0
    6.9657    1.0746   24.3147 C   0  0  0  0  0  0  0  0  0  0  0  0
    6.3799    0.0746   25.0982 C   0  0  0  0  0  0  0  0  0  0  0  0
    6.0764   -0.8224   24.5650 H   0  0  0  0  0  0  0  0  0  0  0  0
    6.2356    0.2406   26.4740 C   0  0  0  0  0  0  0  0  0  0  0  0
    5.7953   -0.5591   27.0621 H   0  0  0  0  0  0  0  0  0  0  0  0
    6.6649    1.4271   27.0785 C   0  0  0  0  0  0  0  0  0  0  0  0
    6.5474    1.5656   28.1495 H   0  0  0  0  0  0  0  0  0  0  0  0
    7.2461    2.4325   26.3035 C   0  0  0  0  0  0  0  0  0  0  0  0
    7.5765    3.3550   26.7780 H   0  0  0  0  0  0  0  0  0  0  0  0
    7.4115    2.2641   24.9176 C   0  0  0  0  0  0  0  0  0  0  0  0
    8.0472    3.3460   24.0820 C   0  0  0  0  0  0  0  0  0  0  0  0
    9.0141    2.8955   23.2572 F   0  0  0  0  0  0  0  0  0  0  0  0
    7.1321    3.9594   23.2936 F   0  0  0  0  0  0  0  0  0  0  0  0
    8.6113    4.3005   24.8521 F   0  0  0  0  0  0  0  0  0  0  0  0
    8.3026   -1.3735   22.8659 C   0  0  0  0  0  0  0  0  0  0  0  0
    8.6444   -1.4859   23.8883 H   0  0  0  0  0  0  0  0  0  0  0  0
    8.5790   -2.2996   21.9562 N   0  0  0  0  0  0  0  0  0  0  0  0
    8.0198   -1.8296   20.8319 N   0  0  0  0  0  0  0  0  0  0  0  0
    8.0769   -2.3808   19.9869 H   0  0  0  0  0  0  0  0  0  0  0  0
    5.4287    0.6602   20.1345 C   0  0  0  0  0  0  0  0  0  0  0  0
    5.0207    0.6289   21.1487 H   0  0  0  0  0  0  0  0  0  0  0  0
    4.7897    1.3185   19.0846 C   0  0  0  0  0  0  0  0  0  0  0  0
    3.8622    1.8510   19.2374 H   0  0  0  0  0  0  0  0  0  0  0  0
  1  2  1  0
  2  3  2  0
  3  4  1  0
  4  5  1  0
  4  6  2  0
  6  7  1  0
  7  8  2  0
  8  9  1  0
  9 10  1  0
  9 11  1  0
 11 12  2  0
 12 13  1  0
 12 14  1  0
 14 15  1  0
 14 16  2  0
 16 17  1  0
 16 18  1  0
 18 19  1  0
 18 20  2  0
 20 21  1  0
 21 22  1  0
 21 23  1  0
 21 24  1  0
  8 25  1  0
 25 26  1  0
 25 27  2  0
 27 28  1  0
 28 29  1  0
  6 30  1  0
 30 31  1  0
 30 32  2  0
 32 33  1  0
 32  2  1  0
 28  7  1  0
 20 11  1  0
M  END
>  <cnnaffinity>  (1) 
-5.45918

>  <filename>  (1) 
FC(F)(F)c1ccccc1Nc1cn[nH]c1-c1cccnc1

$$$$
