
     RDKit          3D

 21 22  0  0  0  0  0  0  0  0999 V2000
    4.9433    1.7958   16.9817 H   0  0  0  0  0  0  0  0  0  0  0  0
    5.4004    1.2920   17.8302 C   0  0  0  0  0  0  0  0  0  0  0  0
    6.5625    0.6700   17.5771 N   0  0  0  0  0  0  0  0  0  0  0  0
    7.1615    0.0585   18.6054 C   0  0  0  0  0  0  0  0  0  0  0  0
    8.1041   -0.4301   18.3564 H   0  0  0  0  0  0  0  0  0  0  0  0
    6.6506    0.0056   19.9159 C   0  0  0  0  0  0  0  0  0  0  0  0
    7.3859   -0.7069   20.9697 C   0  0  0  0  0  0  0  0  0  0  0  0
    6.5995   -1.2514   22.4114 S   0  0  0  0  0  0  0  0  0  0  0  0
    8.0623   -1.8899   23.0443 C   0  0  0  0  0  0  0  0  0  0  0  0
    8.0420   -2.3689   24.0171 H   0  0  0  0  0  0  0  0  0  0  0  0
    9.1239   -1.6794   22.2103 C   0  0  0  0  0  0  0  0  0  0  0  0
   10.5678   -2.0190   22.5192 C   0  0  0  0  0  0  0  0  0  0  0  0
   11.2141   -1.0339   23.1740 F   0  0  0  0  0  0  0  0  0  0  0  0
   10.6813   -3.1236   23.2786 F   0  0  0  0  0  0  0  0  0  0  0  0
   11.2486   -2.2182   21.3820 F   0  0  0  0  0  0  0  0  0  0  0  0
    8.7156   -1.0144   21.0071 C   0  0  0  0  0  0  0  0  0  0  0  0
    9.3921   -0.7409   20.2086 H   0  0  0  0  0  0  0  0  0  0  0  0
    5.4240    0.6572   20.1565 C   0  0  0  0  0  0  0  0  0  0  0  0
    4.9845    0.6631   21.1550 H   0  0  0  0  0  0  0  0  0  0  0  0
    4.8024    1.3086   19.0927 C   0  0  0  0  0  0  0  0  0  0  0  0
    3.8745    1.8404   19.2379 H   0  0  0  0  0  0  0  0  0  0  0  0
  1  2  1  0
  2  3  2  0
  3  4  1  0
  4  5  1  0
  4  6  2  0
  6  7  1  0
  7  8  1  0
  8  9  1  0
  9 10  1  0
  9 11  2  0
 11 12  1  0
 12 13  1  0
 12 14  1  0
 12 15  1  0
 11 16  1  0
 16 17  1  0
  6 18  1  0
 18 19  1  0
 18 20  2  0
 20 21  1  0
 20  2  1  0
 16  7  2  0
M  END
>  <cnnaffinity>  (1) 
-4.36896

>  <filename>  (1) 
FC(F)(F)c1csc(-c2cccnc2)c1

$$$$
