
     RDKit          3D

 39 41  0  0  0  0  0  0  0  0999 V2000
   10.6197   -4.0077   26.4109 H   0  0  0  0  0  0  0  0  0  0  0  0
    9.6752   -3.7331   25.9383 C   0  0  0  0  0  0  0  0  0  0  0  0
    9.7334   -3.4141   24.6570 N   0  0  0  0  0  0  0  0  0  0  0  0
    8.5671   -3.1433   24.0633 C   0  0  0  0  0  0  0  0  0  0  0  0
    8.6107   -2.8514   22.7313 N   0  0  0  0  0  0  0  0  0  0  0  0
    7.3615   -2.8704   21.9441 C   0  0  0  0  0  0  0  0  0  0  0  0
    7.5620   -3.2448   20.9289 H   0  0  0  0  0  0  0  0  0  0  0  0
    6.6719   -3.5802   22.4115 H   0  0  0  0  0  0  0  0  0  0  0  0
    6.6385   -1.5061   21.8479 C   0  0  0  0  0  0  0  0  0  0  0  0
    6.5552   -1.1256   22.8826 H   0  0  0  0  0  0  0  0  0  0  0  0
    5.6213   -1.6961   21.4767 H   0  0  0  0  0  0  0  0  0  0  0  0
    7.2856   -0.5475   20.9532 N   0  0  0  0  0  0  0  0  0  0  0  0
    6.5998    0.0492   19.8733 C   0  0  0  0  0  0  0  0  0  0  0  0
    7.1255    0.1028   18.5516 C   0  0  0  0  0  0  0  0  0  0  0  0
    8.0761   -0.3794   18.3338 H   0  0  0  0  0  0  0  0  0  0  0  0
    6.5267    0.7132   17.5166 N   0  0  0  0  0  0  0  0  0  0  0  0
    5.3590    1.3311   17.7534 C   0  0  0  0  0  0  0  0  0  0  0  0
    4.9088    1.8501   16.9106 H   0  0  0  0  0  0  0  0  0  0  0  0
    4.7376    1.3339   19.0088 C   0  0  0  0  0  0  0  0  0  0  0  0
    3.8007    1.8621   19.1450 H   0  0  0  0  0  0  0  0  0  0  0  0
    5.3563    0.6743   20.0749 C   0  0  0  0  0  0  0  0  0  0  0  0
    4.9255    0.6556   21.0761 H   0  0  0  0  0  0  0  0  0  0  0  0
    8.6615   -0.1736   21.2620 C   0  0  0  0  0  0  0  0  0  0  0  0
    8.9282    0.6884   20.6340 H   0  0  0  0  0  0  0  0  0  0  0  0
    8.7174    0.1750   22.3112 H   0  0  0  0  0  0  0  0  0  0  0  0
    9.6575   -1.3199   21.0240 C   0  0  0  0  0  0  0  0  0  0  0  0
   10.6340   -0.8966   20.7607 H   0  0  0  0  0  0  0  0  0  0  0  0
    9.3168   -1.8967   20.1571 H   0  0  0  0  0  0  0  0  0  0  0  0
    9.8491   -2.2319   22.2304 C   0  0  0  0  0  0  0  0  0  0  0  0
   10.5902   -3.0168   22.0255 H   0  0  0  0  0  0  0  0  0  0  0  0
   10.3115   -1.6303   23.0306 H   0  0  0  0  0  0  0  0  0  0  0  0
    7.3661   -3.1486   24.6503 N   0  0  0  0  0  0  0  0  0  0  0  0
    7.3266   -3.4227   25.9583 C   0  0  0  0  0  0  0  0  0  0  0  0
    5.9541   -3.4414   26.6996 C   0  0  0  0  0  0  0  0  0  0  0  0
    5.9039   -2.4894   27.6543 F   0  0  0  0  0  0  0  0  0  0  0  0
    4.9075   -3.2558   25.8917 F   0  0  0  0  0  0  0  0  0  0  0  0
    5.7692   -4.6201   27.3337 F   0  0  0  0  0  0  0  0  0  0  0  0
    8.4928   -3.7166   26.6668 C   0  0  0  0  0  0  0  0  0  0  0  0
    8.4950   -3.9285   27.7217 H   0  0  0  0  0  0  0  0  0  0  0  0
  1  2  1  0
  2  3  2  0
  3  4  1  0
  4  5  1  0
  5  6  1  0
  6  7  1  0
  6  8  1  0
  6  9  1  0
  9 10  1  0
  9 11  1  0
  9 12  1  0
 12 13  1  0
 13 14  2  0
 14 15  1  0
 14 16  1  0
 16 17  2  0
 17 18  1  0
 17 19  1  0
 19 20  1  0
 19 21  2  0
 21 22  1  0
 12 23  1  0
 23 24  1  0
 23 25  1  0
 23 26  1  0
 26 27  1  0
 26 28  1  0
 26 29  1  0
 29 30  1  0
 29 31  1  0
  4 32  2  0
 32 33  1  0
 33 34  1  0
 34 35  1  0
 34 36  1  0
 34 37  1  0
 33 38  2  0
 38 39  1  0
 38  2  1  0
 29  5  1  0
 21 13  1  0
M  END
>  <cnnaffinity>  (1) 
-5.49519

>  <filename>  (1) 
FC(F)(F)c1ccnc(N2CCCN(c3cccnc3)CC2)n1

$$$$
