
     RDKit          3D

 32 35  0  0  0  0  0  0  0  0999 V2000
    4.9175    1.7764   17.0013 H   0  0  0  0  0  0  0  0  0  0  0  0
    5.4046    1.2899   17.8422 C   0  0  0  0  0  0  0  0  0  0  0  0
    6.5697    0.6777   17.5760 N   0  0  0  0  0  0  0  0  0  0  0  0
    7.1730    0.0559   18.5894 C   0  0  0  0  0  0  0  0  0  0  0  0
    8.1235   -0.4342   18.3735 H   0  0  0  0  0  0  0  0  0  0  0  0
    6.6456    0.0090   19.8903 C   0  0  0  0  0  0  0  0  0  0  0  0
    7.4042   -0.7016   20.9153 C   0  0  0  0  0  0  0  0  0  0  0  0
    8.3325   -1.6012   20.7022 N   0  0  0  0  0  0  0  0  0  0  0  0
    8.8443   -2.0153   21.9122 N   0  0  0  0  0  0  0  0  0  0  0  0
    8.2221   -1.3157   22.8227 C   0  0  0  0  0  0  0  0  0  0  0  0
    8.3518   -0.9970   24.5233 S   0  0  0  0  0  0  0  0  0  0  0  0
    7.1262    0.2631   24.2885 C   0  0  0  0  0  0  0  0  0  0  0  0
    6.7360    1.1854   25.3919 C   0  0  0  0  0  0  0  0  0  0  0  0
    6.7724    2.5660   25.1204 C   0  0  0  0  0  0  0  0  0  0  0  0
    7.0250    2.8969   24.1177 H   0  0  0  0  0  0  0  0  0  0  0  0
    6.4857    3.5010   26.1123 C   0  0  0  0  0  0  0  0  0  0  0  0
    6.5034    4.5595   25.8729 H   0  0  0  0  0  0  0  0  0  0  0  0
    6.1731    3.0764   27.4036 C   0  0  0  0  0  0  0  0  0  0  0  0
    5.9552    3.8023   28.1794 H   0  0  0  0  0  0  0  0  0  0  0  0
    6.1303    1.7149   27.6985 C   0  0  0  0  0  0  0  0  0  0  0  0
    5.8807    1.3989   28.7086 H   0  0  0  0  0  0  0  0  0  0  0  0
    6.3802    0.7592   26.7008 C   0  0  0  0  0  0  0  0  0  0  0  0
    6.2748   -0.7172   27.0757 C   0  0  0  0  0  0  0  0  0  0  0  0
    5.7431   -1.4551   26.0840 F   0  0  0  0  0  0  0  0  0  0  0  0
    5.5080   -0.9266   28.1595 F   0  0  0  0  0  0  0  0  0  0  0  0
    7.4842   -1.2419   27.3436 F   0  0  0  0  0  0  0  0  0  0  0  0
    6.6818    0.4213   23.0786 N   0  0  0  0  0  0  0  0  0  0  0  0
    7.2750   -0.5093   22.2743 N   0  0  0  0  0  0  0  0  0  0  0  0
    5.4317    0.6518   20.1629 C   0  0  0  0  0  0  0  0  0  0  0  0
    5.0099    0.6371   21.1725 H   0  0  0  0  0  0  0  0  0  0  0  0
    4.8045    1.3080   19.1087 C   0  0  0  0  0  0  0  0  0  0  0  0
    3.8739    1.8436   19.2606 H   0  0  0  0  0  0  0  0  0  0  0  0
  1  2  1  0
  2  3  2  0
  3  4  1  0
  4  5  1  0
  4  6  2  0
  6  7  1  0
  7  8  2  0
  8  9  1  0
  9 10  2  0
 10 11  1  0
 11 12  1  0
 12 13  1  0
 13 14  2  0
 14 15  1  0
 14 16  1  0
 16 17  1  0
 16 18  2  0
 18 19  1  0
 18 20  1  0
 20 21  1  0
 20 22  2  0
 22 23  1  0
 23 24  1  0
 23 25  1  0
 23 26  1  0
 12 27  2  0
 27 28  1  0
  6 29  1  0
 29 30  1  0
 29 31  2  0
 31 32  1  0
 31  2  1  0
 28  7  1  0
 28 10  1  0
 22 13  1  0
M  END
>  <cnnaffinity>  (1) 
-5.52267

>  <filename>  (1) 
FC(F)(F)c1ccccc1-c1nn2c(-c3cccnc3)nnc2s1

$$$$
