
     RDKit          3D

 39 42  0  0  0  0  0  0  0  0999 V2000
    4.9510    1.8499   16.9530 H   0  0  0  0  0  0  0  0  0  0  0  0
    5.4060    1.3137   17.7836 C   0  0  0  0  0  0  0  0  0  0  0  0
    6.5571    0.6762   17.5256 N   0  0  0  0  0  0  0  0  0  0  0  0
    7.1401    0.0248   18.5432 C   0  0  0  0  0  0  0  0  0  0  0  0
    8.0883   -0.4501   18.2962 H   0  0  0  0  0  0  0  0  0  0  0  0
    6.6338   -0.0525   19.8562 C   0  0  0  0  0  0  0  0  0  0  0  0
    7.3649   -0.8195   20.9588 C   0  0  1  0  0  0  0  0  0  0  0  0
    7.0115   -1.8576   20.9441 H   0  0  0  0  0  0  0  0  0  0  0  0
    8.9240   -0.8819   20.8200 C   0  0  0  0  0  0  0  0  0  0  0  0
    9.2727   -1.7985   20.3446 H   0  0  0  0  0  0  0  0  0  0  0  0
    9.2949   -0.0358   20.2388 H   0  0  0  0  0  0  0  0  0  0  0  0
    9.4159   -0.7636   22.2307 C   0  0  0  0  0  0  0  0  0  0  0  0
   10.5936   -0.8400   22.8165 N   0  0  0  0  0  0  0  0  0  0  0  0
   10.3161   -0.5310   24.1078 N   0  0  0  0  0  0  0  0  0  0  0  0
   11.0911   -0.3640   24.7298 H   0  0  0  0  0  0  0  0  0  0  0  0
    8.9953   -0.2495   24.3438 C   0  0  0  0  0  0  0  0  0  0  0  0
    8.4079    0.1456   25.6362 C   0  0  0  0  0  0  0  0  0  0  0  0
    9.0615   -0.0077   26.8798 C   0  0  0  0  0  0  0  0  0  0  0  0
   10.0685   -0.4158   26.9560 H   0  0  0  0  0  0  0  0  0  0  0  0
    8.4343    0.4000   28.0528 C   0  0  0  0  0  0  0  0  0  0  0  0
    8.9234    0.3074   29.0184 H   0  0  0  0  0  0  0  0  0  0  0  0
    7.1975    1.0414   28.0063 C   0  0  0  0  0  0  0  0  0  0  0  0
    6.8001    1.5547   29.2362 O   0  0  0  0  0  0  0  0  0  0  0  0
    5.6006    2.1266   29.4348 C   0  0  0  0  0  0  0  0  0  0  0  0
    5.4212    3.2312   28.6894 F   0  0  0  0  0  0  0  0  0  0  0  0
    4.5829    1.2991   29.1548 F   0  0  0  0  0  0  0  0  0  0  0  0
    5.5362    2.4701   30.7166 F   0  0  0  0  0  0  0  0  0  0  0  0
    6.5069    1.1786   26.8020 C   0  0  0  0  0  0  0  0  0  0  0  0
    5.5411    1.6620   26.7531 H   0  0  0  0  0  0  0  0  0  0  0  0
    7.1181    0.7075   25.6379 C   0  0  0  0  0  0  0  0  0  0  0  0
    6.5900    0.8283   24.6963 H   0  0  0  0  0  0  0  0  0  0  0  0
    8.3978   -0.4074   23.1064 C   0  0  0  0  0  0  0  0  0  0  0  0
    7.0926   -0.2667   22.3921 C   0  0  0  0  0  0  0  0  0  0  0  0
    6.8064    0.7908   22.3412 H   0  0  0  0  0  0  0  0  0  0  0  0
    6.2801   -0.8139   22.8793 H   0  0  0  0  0  0  0  0  0  0  0  0
    5.4135    0.6117   20.0826 C   0  0  0  0  0  0  0  0  0  0  0  0
    4.9632    0.6324   21.0767 H   0  0  0  0  0  0  0  0  0  0  0  0
    4.7975    1.3023   19.0389 C   0  0  0  0  0  0  0  0  0  0  0  0
    3.8785    1.8561   19.1987 H   0  0  0  0  0  0  0  0  0  0  0  0
  1  2  1  0
  2  3  2  0
  3  4  1  0
  4  5  1  0
  4  6  2  0
  6  7  1  0
  7  8  1  1
  7  9  1  0
  9 10  1  0
  9 11  1  0
  9 12  1  0
 12 13  2  0
 13 14  1  0
 14 15  1  0
 14 16  1  0
 16 17  1  0
 17 18  2  0
 18 19  1  0
 18 20  1  0
 20 21  1  0
 20 22  2  0
 22 23  1  0
 23 24  1  0
 24 25  1  0
 24 26  1  0
 24 27  1  0
 22 28  1  0
 28 29  1  0
 28 30  2  0
 30 31  1  0
 16 32  2  0
 32 33  1  0
 33 34  1  0
 33 35  1  0
  6 36  1  0
 36 37  1  0
 36 38  2  0
 38 39  1  0
 38  2  1  0
 33  7  1  0
 32 12  1  0
 30 17  1  0
M  END
>  <cnnaffinity>  (1) 
-5.35322

>  <filename>  (1) 
FC(F)(F)Oc1ccc(-c2[nH]nc3c2C[C@@H](c2cccnc2)C3)cc1

$$$$
