
     RDKit          3D

 30 32  0  0  0  0  0  0  0  0999 V2000
    4.9076    1.8210   16.9534 H   0  0  0  0  0  0  0  0  0  0  0  0
    5.3798    1.3150   17.7964 C   0  0  0  0  0  0  0  0  0  0  0  0
    6.5423    0.6943   17.5353 N   0  0  0  0  0  0  0  0  0  0  0  0
    7.1637    0.0809   18.5501 C   0  0  0  0  0  0  0  0  0  0  0  0
    8.0983   -0.4097   18.2833 H   0  0  0  0  0  0  0  0  0  0  0  0
    6.6809    0.0309   19.8696 C   0  0  0  0  0  0  0  0  0  0  0  0
    7.3769   -0.6924   20.9578 C   0  0  0  0  0  0  0  0  0  0  0  0
    6.8671   -1.2520   22.1004 C   0  0  0  0  0  0  0  0  0  0  0  0
    5.8428   -1.3367   22.4004 H   0  0  0  0  0  0  0  0  0  0  0  0
    7.9491   -1.8075   22.8032 C   0  0  0  0  0  0  0  0  0  0  0  0
    7.8694   -2.5173   24.1199 C   0  0  0  0  0  0  0  0  0  0  0  0
    6.6442   -2.6303   24.6768 N   0  0  0  0  0  0  0  0  0  0  0  0
    6.5209   -3.2532   25.8531 C   0  0  0  0  0  0  0  0  0  0  0  0
    5.1168   -3.3830   26.5060 C   0  0  0  0  0  0  0  0  0  0  0  0
    4.1115   -2.8376   25.8183 F   0  0  0  0  0  0  0  0  0  0  0  0
    4.8040   -4.6839   26.6933 F   0  0  0  0  0  0  0  0  0  0  0  0
    5.1125   -2.8121   27.7300 F   0  0  0  0  0  0  0  0  0  0  0  0
    7.6290   -3.8021   26.5207 C   0  0  0  0  0  0  0  0  0  0  0  0
    7.4833   -4.3037   27.4664 H   0  0  0  0  0  0  0  0  0  0  0  0
    8.9011   -3.6944   25.9467 C   0  0  0  0  0  0  0  0  0  0  0  0
    9.7803   -4.1142   26.4379 H   0  0  0  0  0  0  0  0  0  0  0  0
    9.0295   -3.0392   24.7232 C   0  0  0  0  0  0  0  0  0  0  0  0
    9.9758   -2.9078   24.2013 H   0  0  0  0  0  0  0  0  0  0  0  0
    9.0845   -1.6197   22.1203 N   0  0  0  0  0  0  0  0  0  0  0  0
    8.7157   -0.9580   21.0132 N   0  0  0  0  0  0  0  0  0  0  0  0
    9.4313   -0.6582   20.3703 H   0  0  0  0  0  0  0  0  0  0  0  0
    5.4530    0.6747   20.1142 C   0  0  0  0  0  0  0  0  0  0  0  0
    5.0321    0.6654   21.1196 H   0  0  0  0  0  0  0  0  0  0  0  0
    4.7971    1.3272   19.0682 C   0  0  0  0  0  0  0  0  0  0  0  0
    3.8606    1.8519   19.2218 H   0  0  0  0  0  0  0  0  0  0  0  0
  1  2  1  0
  2  3  2  0
  3  4  1  0
  4  5  1  0
  4  6  2  0
  6  7  1  0
  7  8  2  0
  8  9  1  0
  8 10  1  0
 10 11  1  0
 11 12  2  0
 12 13  1  0
 13 14  1  0
 14 15  1  0
 14 16  1  0
 14 17  1  0
 13 18  2  0
 18 19  1  0
 18 20  1  0
 20 21  1  0
 20 22  2  0
 22 23  1  0
 10 24  2  0
 24 25  1  0
 25 26  1  0
  6 27  1  0
 27 28  1  0
 27 29  2  0
 29 30  1  0
 29  2  1  0
 25  7  1  0
 22 11  1  0
M  END
>  <cnnaffinity>  (1) 
-5.2518

>  <filename>  (1) 
FC(F)(F)c1cccc(-c2cc(-c3cccnc3)[nH]n2)n1

$$$$
