
     RDKit          3D

 35 38  0  0  0  0  0  0  0  0999 V2000
    4.9781    1.8614   16.9017 H   0  0  0  0  0  0  0  0  0  0  0  0
    5.4137    1.3076   17.7302 C   0  0  0  0  0  0  0  0  0  0  0  0
    6.5599    0.6568   17.4721 N   0  0  0  0  0  0  0  0  0  0  0  0
    7.1353    0.0020   18.4858 C   0  0  0  0  0  0  0  0  0  0  0  0
    8.0745   -0.5031   18.2623 H   0  0  0  0  0  0  0  0  0  0  0  0
    6.6063   -0.0423   19.7894 C   0  0  0  0  0  0  0  0  0  0  0  0
    7.3601   -0.6603   20.8939 C   0  0  0  0  0  0  0  0  0  0  0  0
    8.4919   -1.3482   20.6721 N   0  0  0  0  0  0  0  0  0  0  0  0
    8.9278   -1.6162   21.9237 N   0  0  0  0  0  0  0  0  0  0  0  0
   10.0544   -2.2172   22.4725 C   0  0  0  0  0  0  0  0  0  0  0  0
   10.8032   -2.6683   21.8462 H   0  0  0  0  0  0  0  0  0  0  0  0
    9.9346   -2.0705   23.8177 C   0  0  0  0  0  0  0  0  0  0  0  0
   10.5685   -2.4164   24.6196 H   0  0  0  0  0  0  0  0  0  0  0  0
    8.7533   -1.3857   24.1096 N   0  0  0  0  0  0  0  0  0  0  0  0
    8.2698   -0.9887   25.3811 C   0  0  0  0  0  0  0  0  0  0  0  0
    6.8811   -0.9356   25.6173 C   0  0  0  0  0  0  0  0  0  0  0  0
    6.1954   -1.2671   24.8366 H   0  0  0  0  0  0  0  0  0  0  0  0
    6.4022   -0.4127   26.8168 C   0  0  0  0  0  0  0  0  0  0  0  0
    5.3306   -0.2905   26.9368 H   0  0  0  0  0  0  0  0  0  0  0  0
    7.2978   -0.0130   27.8251 C   0  0  0  0  0  0  0  0  0  0  0  0
    6.8077    0.7670   29.0257 C   0  0  0  0  0  0  0  0  0  0  0  0
    7.6839    0.7789   30.0477 F   0  0  0  0  0  0  0  0  0  0  0  0
    6.5886    2.0593   28.6966 F   0  0  0  0  0  0  0  0  0  0  0  0
    5.6464    0.2893   29.5089 F   0  0  0  0  0  0  0  0  0  0  0  0
    8.6783   -0.1916   27.6291 C   0  0  0  0  0  0  0  0  0  0  0  0
    9.3809    0.0002   28.4398 H   0  0  0  0  0  0  0  0  0  0  0  0
    9.1698   -0.6181   26.3958 C   0  0  0  0  0  0  0  0  0  0  0  0
   10.2445   -0.6034   26.2062 H   0  0  0  0  0  0  0  0  0  0  0  0
    8.1376   -1.1207   22.8954 C   0  0  0  0  0  0  0  0  0  0  0  0
    7.0668   -0.5096   22.2688 C   0  0  0  0  0  0  0  0  0  0  0  0
    6.2051   -0.0250   22.6912 H   0  0  0  0  0  0  0  0  0  0  0  0
    5.3871    0.6159   20.0298 C   0  0  0  0  0  0  0  0  0  0  0  0
    4.9303    0.6183   21.0217 H   0  0  0  0  0  0  0  0  0  0  0  0
    4.7887    1.3028   18.9808 C   0  0  0  0  0  0  0  0  0  0  0  0
    3.8730    1.8629   19.1335 H   0  0  0  0  0  0  0  0  0  0  0  0
  1  2  1  0
  2  3  2  0
  3  4  1  0
  4  5  1  0
  4  6  2  0
  6  7  1  0
  7  8  2  0
  8  9  1  0
  9 10  1  0
 10 11  1  0
 10 12  2  0
 12 13  1  0
 12 14  1  0
 14 15  1  0
 15 16  2  0
 16 17  1  0
 16 18  1  0
 18 19  1  0
 18 20  2  0
 20 21  1  0
 21 22  1  0
 21 23  1  0
 21 24  1  0
 20 25  1  0
 25 26  1  0
 25 27  2  0
 27 28  1  0
 14 29  1  0
 29 30  2  0
 30 31  1  0
  6 32  1  0
 32 33  1  0
 32 34  2  0
 34 35  1  0
 34  2  1  0
 30  7  1  0
 29  9  1  0
 27 15  1  0
M  END
>  <cnnaffinity>  (1) 
-5.38241

>  <filename>  (1) 
FC(F)(F)c1ccc(-n2ccn3nc(-c4cccnc4)cc23)cc1

$$$$
