
     RDKit          3D

 37 39  0  0  0  0  0  0  0  0999 V2000
    4.9256    2.1731   16.6984 H   0  0  0  0  0  0  0  0  0  0  0  0
    5.3416    1.5878   17.5167 C   0  0  0  0  0  0  0  0  0  0  0  0
    6.4980    0.9482   17.2712 N   0  0  0  0  0  0  0  0  0  0  0  0
    7.0390    0.2408   18.2744 C   0  0  0  0  0  0  0  0  0  0  0  0
    7.9808   -0.2628   18.0542 H   0  0  0  0  0  0  0  0  0  0  0  0
    6.4643    0.0868   19.5676 C   0  0  0  0  0  0  0  0  0  0  0  0
    7.0983   -0.7350   20.5394 N   0  0  0  0  0  0  0  0  0  0  0  0
    6.3356   -1.3548   21.6353 C   0  0  0  0  0  0  0  0  0  0  0  0
    5.3432   -1.6567   21.2859 H   0  0  0  0  0  0  0  0  0  0  0  0
    6.1904   -0.6458   22.4725 H   0  0  0  0  0  0  0  0  0  0  0  0
    7.0702   -2.6097   22.1526 C   0  0  0  0  0  0  0  0  0  0  0  0
    7.1058   -3.3500   21.3331 H   0  0  0  0  0  0  0  0  0  0  0  0
    6.5066   -3.0517   22.9809 H   0  0  0  0  0  0  0  0  0  0  0  0
    8.4375   -2.2951   22.6037 N   0  0  0  0  0  0  0  0  0  0  0  0
    9.0501   -3.1062   23.5422 C   0  0  0  0  0  0  0  0  0  0  0  0
    8.2450   -3.6866   24.4472 N   0  0  0  0  0  0  0  0  0  0  0  0
    8.7953   -4.3868   25.4551 C   0  0  0  0  0  0  0  0  0  0  0  0
    7.8547   -5.0841   26.4689 C   0  0  0  0  0  0  0  0  0  0  0  0
    6.8715   -4.2846   26.9056 F   0  0  0  0  0  0  0  0  0  0  0  0
    7.2931   -6.1703   25.9091 F   0  0  0  0  0  0  0  0  0  0  0  0
    8.5131   -5.5324   27.5609 F   0  0  0  0  0  0  0  0  0  0  0  0
   10.1695   -4.5989   25.5695 C   0  0  0  0  0  0  0  0  0  0  0  0
   10.5863   -5.1740   26.3882 H   0  0  0  0  0  0  0  0  0  0  0  0
   10.9903   -4.0675   24.5788 C   0  0  0  0  0  0  0  0  0  0  0  0
   12.0550   -4.2570   24.5826 H   0  0  0  0  0  0  0  0  0  0  0  0
   10.4460   -3.3123   23.5578 C   0  0  0  0  0  0  0  0  0  0  0  0
   11.0485   -2.9143   22.7558 H   0  0  0  0  0  0  0  0  0  0  0  0
    9.2071   -1.5440   21.5981 C   0  0  0  0  0  0  0  0  0  0  0  0
   10.1196   -1.1411   22.0493 H   0  0  0  0  0  0  0  0  0  0  0  0
    9.5070   -2.1966   20.7616 H   0  0  0  0  0  0  0  0  0  0  0  0
    8.4202   -0.3362   21.0563 C   0  0  0  0  0  0  0  0  0  0  0  0
    9.0116    0.1431   20.2689 H   0  0  0  0  0  0  0  0  0  0  0  0
    8.3290    0.4024   21.8729 H   0  0  0  0  0  0  0  0  0  0  0  0
    5.2428    0.7578   19.7846 C   0  0  0  0  0  0  0  0  0  0  0  0
    4.7661    0.7077   20.7616 H   0  0  0  0  0  0  0  0  0  0  0  0
    4.6837    1.5178   18.7477 C   0  0  0  0  0  0  0  0  0  0  0  0
    3.7590    2.0668   18.8907 H   0  0  0  0  0  0  0  0  0  0  0  0
  1  2  1  0
  2  3  2  0
  3  4  1  0
  4  5  1  0
  4  6  2  0
  6  7  1  0
  7  8  1  0
  8  9  1  0
  8 10  1  0
  8 11  1  0
 11 12  1  0
 11 13  1  0
 11 14  1  0
 14 15  1  0
 15 16  2  0
 16 17  1  0
 17 18  1  0
 18 19  1  0
 18 20  1  0
 18 21  1  0
 17 22  2  0
 22 23  1  0
 22 24  1  0
 24 25  1  0
 24 26  2  0
 26 27  1  0
 14 28  1  0
 28 29  1  0
 28 30  1  0
 28 31  1  0
 31 32  1  0
 31 33  1  0
  6 34  1  0
 34 35  1  0
 34 36  2  0
 36 37  1  0
 36  2  1  0
 31  7  1  0
 26 15  1  0
M  END
>  <cnnaffinity>  (1) 
-5.20026

>  <filename>  (1) 
FC(F)(F)c1cccc(N2CCN(c3cccnc3)CC2)n1

$$$$
