
     RDKit          3D

 30 32  0  0  0  0  0  0  0  0999 V2000
    4.9893    1.7943   16.9661 H   0  0  0  0  0  0  0  0  0  0  0  0
    5.4185    1.2552   17.8099 C   0  0  0  0  0  0  0  0  0  0  0  0
    6.5607    0.5847   17.5769 N   0  0  0  0  0  0  0  0  0  0  0  0
    7.1427   -0.0453   18.5998 C   0  0  0  0  0  0  0  0  0  0  0  0
    8.0648   -0.5851   18.3790 H   0  0  0  0  0  0  0  0  0  0  0  0
    6.6275   -0.0269   19.9112 C   0  0  0  0  0  0  0  0  0  0  0  0
    7.3319   -0.7063   20.9524 N   0  0  0  0  0  0  0  0  0  0  0  0
    7.9832   -1.8501   20.6626 N   0  0  0  0  0  0  0  0  0  0  0  0
    8.4893   -2.3208   21.7537 N   0  0  0  0  0  0  0  0  0  0  0  0
    8.1797   -1.4843   22.7752 C   0  0  0  0  0  0  0  0  0  0  0  0
    8.5564   -1.6800   23.7673 H   0  0  0  0  0  0  0  0  0  0  0  0
    7.4521   -0.4248   22.2927 C   0  0  0  0  0  0  0  0  0  0  0  0
    6.9900    0.8007   22.9878 C   0  0  0  0  0  0  0  0  0  0  0  0
    6.0167    0.7102   23.9998 C   0  0  0  0  0  0  0  0  0  0  0  0
    5.6764   -0.2679   24.3201 H   0  0  0  0  0  0  0  0  0  0  0  0
    5.4817    1.8612   24.5819 C   0  0  0  0  0  0  0  0  0  0  0  0
    4.7043    1.7824   25.3378 H   0  0  0  0  0  0  0  0  0  0  0  0
    5.9340    3.1187   24.1733 C   0  0  0  0  0  0  0  0  0  0  0  0
    5.5125    4.0183   24.6092 H   0  0  0  0  0  0  0  0  0  0  0  0
    6.9570    3.2267   23.2346 C   0  0  0  0  0  0  0  0  0  0  0  0
    7.3259    4.2175   22.9601 H   0  0  0  0  0  0  0  0  0  0  0  0
    7.5244    2.0697   22.6799 C   0  0  0  0  0  0  0  0  0  0  0  0
    8.7552    2.1855   21.7940 C   0  0  0  0  0  0  0  0  0  0  0  0
    8.4687    1.9985   20.4922 F   0  0  0  0  0  0  0  0  0  0  0  0
    9.3246    3.3909   21.8980 F   0  0  0  0  0  0  0  0  0  0  0  0
    9.7096    1.2961   22.1244 F   0  0  0  0  0  0  0  0  0  0  0  0
    5.4206    0.6405   20.1441 C   0  0  0  0  0  0  0  0  0  0  0  0
    4.9751    0.6553   21.1392 H   0  0  0  0  0  0  0  0  0  0  0  0
    4.8048    1.2855   19.0649 C   0  0  0  0  0  0  0  0  0  0  0  0
    3.8759    1.8289   19.1973 H   0  0  0  0  0  0  0  0  0  0  0  0
  1  2  1  0
  2  3  2  0
  3  4  1  0
  4  5  1  0
  4  6  2  0
  6  7  1  0
  7  8  1  0
  8  9  2  0
  9 10  1  0
 10 11  1  0
 10 12  2  0
 12 13  1  0
 13 14  2  0
 14 15  1  0
 14 16  1  0
 16 17  1  0
 16 18  2  0
 18 19  1  0
 18 20  1  0
 20 21  1  0
 20 22  2  0
 22 23  1  0
 23 24  1  0
 23 25  1  0
 23 26  1  0
  6 27  1  0
 27 28  1  0
 27 29  2  0
 29 30  1  0
 29  2  1  0
 12  7  1  0
 22 13  1  0
M  END
>  <cnnaffinity>  (1) 
-4.57559

>  <filename>  (1) 
FC(F)(F)c1ccccc1-c1cnnn1-c1cccnc1

$$$$
