
     RDKit          3D

 35 37  0  0  0  0  0  0  0  0999 V2000
    4.9361    1.8336   16.9268 H   0  0  0  0  0  0  0  0  0  0  0  0
    5.3878    1.3133   17.7668 C   0  0  0  0  0  0  0  0  0  0  0  0
    6.5487    0.6825   17.5234 N   0  0  0  0  0  0  0  0  0  0  0  0
    7.1449    0.0619   18.5511 C   0  0  0  0  0  0  0  0  0  0  0  0
    8.1037   -0.3957   18.3052 H   0  0  0  0  0  0  0  0  0  0  0  0
    6.6234    0.0205   19.8632 C   0  0  0  0  0  0  0  0  0  0  0  0
    7.3073   -0.6025   21.0108 C   0  0  0  0  0  0  0  0  0  0  0  0
    7.1925   -0.3294   22.3385 C   0  0  0  0  0  0  0  0  0  0  0  0
    6.6182    0.4175   22.8639 H   0  0  0  0  0  0  0  0  0  0  0  0
    8.0408   -1.1749   23.0350 N   0  0  0  0  0  0  0  0  0  0  0  0
    8.1535   -1.3734   24.4842 C   0  0  0  0  0  0  0  0  0  0  0  0
    9.1854   -1.6828   24.6693 H   0  0  0  0  0  0  0  0  0  0  0  0
    8.0089   -0.4100   24.9894 H   0  0  0  0  0  0  0  0  0  0  0  0
    7.1808   -2.4274   24.9914 C   0  0  0  0  0  0  0  0  0  0  0  0
    5.8281   -2.0925   25.1224 C   0  0  0  0  0  0  0  0  0  0  0  0
    5.5068   -1.0837   24.8802 H   0  0  0  0  0  0  0  0  0  0  0  0
    4.8827   -3.0254   25.5397 C   0  0  0  0  0  0  0  0  0  0  0  0
    3.8421   -2.7212   25.6291 H   0  0  0  0  0  0  0  0  0  0  0  0
    5.2799   -4.3405   25.8341 C   0  0  0  0  0  0  0  0  0  0  0  0
    4.2631   -5.3420   26.3507 C   0  0  0  0  0  0  0  0  0  0  0  0
    4.5678   -6.6085   26.0041 F   0  0  0  0  0  0  0  0  0  0  0  0
    3.0241   -5.0953   25.8775 F   0  0  0  0  0  0  0  0  0  0  0  0
    4.1712   -5.3198   27.6957 F   0  0  0  0  0  0  0  0  0  0  0  0
    6.6288   -4.7026   25.6777 C   0  0  0  0  0  0  0  0  0  0  0  0
    6.9545   -5.7222   25.8843 H   0  0  0  0  0  0  0  0  0  0  0  0
    7.5645   -3.7534   25.2578 C   0  0  0  0  0  0  0  0  0  0  0  0
    8.5967   -4.0660   25.1274 H   0  0  0  0  0  0  0  0  0  0  0  0
    8.6752   -2.0018   22.1628 C   0  0  0  0  0  0  0  0  0  0  0  0
    9.7785   -3.1802   22.5281 S   0  0  0  0  0  0  0  0  0  0  0  0
    8.2442   -1.6266   20.9326 N   0  0  0  0  0  0  0  0  0  0  0  0
    8.5207   -2.2032   20.1568 H   0  0  0  0  0  0  0  0  0  0  0  0
    5.3939    0.6751   20.0774 C   0  0  0  0  0  0  0  0  0  0  0  0
    4.9443    0.6730   21.0699 H   0  0  0  0  0  0  0  0  0  0  0  0
    4.7696    1.3299   19.0190 C   0  0  0  0  0  0  0  0  0  0  0  0
    3.8415    1.8731   19.1612 H   0  0  0  0  0  0  0  0  0  0  0  0
  1  2  1  0
  2  3  2  0
  3  4  1  0
  4  5  1  0
  4  6  2  0
  6  7  1  0
  7  8  2  0
  8  9  1  0
  8 10  1  0
 10 11  1  0
 11 12  1  0
 11 13  1  0
 11 14  1  0
 14 15  2  0
 15 16  1  0
 15 17  1  0
 17 18  1  0
 17 19  2  0
 19 20  1  0
 20 21  1  0
 20 22  1  0
 20 23  1  0
 19 24  1  0
 24 25  1  0
 24 26  2  0
 26 27  1  0
 10 28  1  0
 28 29  2  0
 28 30  1  0
 30 31  1  0
  6 32  1  0
 32 33  1  0
 32 34  2  0
 34 35  1  0
 34  2  1  0
 30  7  1  0
 26 14  1  0
M  END
>  <cnnaffinity>  (1) 
-5.41419

>  <filename>  (1) 
FC(F)(F)c1ccc(Cn2cc(-c3cccnc3)[nH]c2=S)cc1

$$$$
