
     RDKit          3D

 33 35  0  0  0  0  0  0  0  0999 V2000
    4.9117    1.7972   16.9809 H   0  0  0  0  0  0  0  0  0  0  0  0
    5.3892    1.3047   17.8216 C   0  0  0  0  0  0  0  0  0  0  0  0
    6.5545    0.6901   17.5522 N   0  0  0  0  0  0  0  0  0  0  0  0
    7.1584    0.0651   18.5676 C   0  0  0  0  0  0  0  0  0  0  0  0
    8.1157   -0.4011   18.3362 H   0  0  0  0  0  0  0  0  0  0  0  0
    6.6501    0.0127   19.8826 C   0  0  0  0  0  0  0  0  0  0  0  0
    7.3679   -0.6567   20.9741 C   0  0  0  0  0  0  0  0  0  0  0  0
    7.5154   -0.3225   22.3153 C   0  0  0  0  0  0  0  0  0  0  0  0
    7.0296    0.8338   22.9328 N   0  0  0  0  0  0  0  0  0  0  0  0
    6.9822    1.6504   22.3480 H   0  0  0  0  0  0  0  0  0  0  0  0
    6.8188    1.0338   24.2926 C   0  0  0  0  0  0  0  0  0  0  0  0
    7.0360    2.2970   24.8635 C   0  0  0  0  0  0  0  0  0  0  0  0
    7.3840    3.1187   24.2431 H   0  0  0  0  0  0  0  0  0  0  0  0
    6.8323    2.4869   26.2301 C   0  0  0  0  0  0  0  0  0  0  0  0
    7.0007    3.4682   26.6698 H   0  0  0  0  0  0  0  0  0  0  0  0
    6.3995    1.4212   27.0402 C   0  0  0  0  0  0  0  0  0  0  0  0
    6.1184    1.6356   28.5128 C   0  0  0  0  0  0  0  0  0  0  0  0
    4.8420    2.0237   28.7198 F   0  0  0  0  0  0  0  0  0  0  0  0
    6.3002    0.5142   29.2401 F   0  0  0  0  0  0  0  0  0  0  0  0
    6.9032    2.5907   29.0537 F   0  0  0  0  0  0  0  0  0  0  0  0
    6.1495    0.1715   26.4542 C   0  0  0  0  0  0  0  0  0  0  0  0
    5.7942   -0.6639   27.0527 H   0  0  0  0  0  0  0  0  0  0  0  0
    6.3550   -0.0180   25.0943 C   0  0  0  0  0  0  0  0  0  0  0  0
    6.1734   -0.9730   24.6143 H   0  0  0  0  0  0  0  0  0  0  0  0
    8.2885   -1.3778   22.8605 C   0  0  0  0  0  0  0  0  0  0  0  0
    8.6220   -1.4641   23.8815 H   0  0  0  0  0  0  0  0  0  0  0  0
    8.6037   -2.2912   21.9502 N   0  0  0  0  0  0  0  0  0  0  0  0
    8.0474   -1.8242   20.8232 N   0  0  0  0  0  0  0  0  0  0  0  0
    8.1307   -2.3595   19.9773 H   0  0  0  0  0  0  0  0  0  0  0  0
    5.4322    0.6619   20.1427 C   0  0  0  0  0  0  0  0  0  0  0  0
    5.0172    0.6255   21.1523 H   0  0  0  0  0  0  0  0  0  0  0  0
    4.7950    1.3184   19.0902 C   0  0  0  0  0  0  0  0  0  0  0  0
    3.8643    1.8491   19.2463 H   0  0  0  0  0  0  0  0  0  0  0  0
  1  2  1  0
  2  3  2  0
  3  4  1  0
  4  5  1  0
  4  6  2  0
  6  7  1  0
  7  8  2  0
  8  9  1  0
  9 10  1  0
  9 11  1  0
 11 12  2  0
 12 13  1  0
 12 14  1  0
 14 15  1  0
 14 16  2  0
 16 17  1  0
 17 18  1  0
 17 19  1  0
 17 20  1  0
 16 21  1  0
 21 22  1  0
 21 23  2  0
 23 24  1  0
  8 25  1  0
 25 26  1  0
 25 27  2  0
 27 28  1  0
 28 29  1  0
  6 30  1  0
 30 31  1  0
 30 32  2  0
 32 33  1  0
 32  2  1  0
 28  7  1  0
 23 11  1  0
M  END
>  <cnnaffinity>  (1) 
-5.46219

>  <filename>  (1) 
FC(F)(F)c1ccc(Nc2cn[nH]c2-c2cccnc2)cc1

$$$$
