
     RDKit          3D

 36 39  0  0  0  0  0  0  0  0999 V2000
    5.0080    1.8459   16.8791 H   0  0  0  0  0  0  0  0  0  0  0  0
    5.4322    1.2954   17.7176 C   0  0  0  0  0  0  0  0  0  0  0  0
    6.5747    0.6320   17.4836 N   0  0  0  0  0  0  0  0  0  0  0  0
    7.1405   -0.0132   18.5082 C   0  0  0  0  0  0  0  0  0  0  0  0
    8.0666   -0.5376   18.2852 H   0  0  0  0  0  0  0  0  0  0  0  0
    6.6080   -0.0317   19.8084 C   0  0  0  0  0  0  0  0  0  0  0  0
    7.3681   -0.6263   20.9224 C   0  0  0  0  0  0  0  0  0  0  0  0
    8.5136   -1.2928   20.7093 N   0  0  0  0  0  0  0  0  0  0  0  0
    8.9360   -1.5654   21.9595 N   0  0  0  0  0  0  0  0  0  0  0  0
   10.0435   -2.2038   22.5019 C   0  0  0  0  0  0  0  0  0  0  0  0
   10.7972   -2.6547   21.8800 H   0  0  0  0  0  0  0  0  0  0  0  0
    9.8974   -2.0913   23.8475 C   0  0  0  0  0  0  0  0  0  0  0  0
   10.4976   -2.4735   24.6567 H   0  0  0  0  0  0  0  0  0  0  0  0
    8.7219   -1.4029   24.1416 N   0  0  0  0  0  0  0  0  0  0  0  0
    8.2422   -1.0281   25.4234 C   0  0  0  0  0  0  0  0  0  0  0  0
    6.8574   -1.0141   25.6691 C   0  0  0  0  0  0  0  0  0  0  0  0
    6.1913   -1.3543   24.8782 H   0  0  0  0  0  0  0  0  0  0  0  0
    6.3681   -0.5459   26.8864 C   0  0  0  0  0  0  0  0  0  0  0  0
    5.3002   -0.4577   27.0684 H   0  0  0  0  0  0  0  0  0  0  0  0
    7.2598   -0.1393   27.8780 C   0  0  0  0  0  0  0  0  0  0  0  0
    6.6542    0.3210   29.0493 O   0  0  0  0  0  0  0  0  0  0  0  0
    7.3114    1.0961   29.9388 C   0  0  0  0  0  0  0  0  0  0  0  0
    6.4312    1.4645   30.8592 F   0  0  0  0  0  0  0  0  0  0  0  0
    8.3161    0.4504   30.5592 F   0  0  0  0  0  0  0  0  0  0  0  0
    7.8394    2.2050   29.4011 F   0  0  0  0  0  0  0  0  0  0  0  0
    8.6391   -0.2271   27.6893 C   0  0  0  0  0  0  0  0  0  0  0  0
    9.3166   -0.0027   28.5069 H   0  0  0  0  0  0  0  0  0  0  0  0
    9.1278   -0.6377   26.4429 C   0  0  0  0  0  0  0  0  0  0  0  0
   10.1997   -0.6185   26.2621 H   0  0  0  0  0  0  0  0  0  0  0  0
    8.1221   -1.1014   22.9290 C   0  0  0  0  0  0  0  0  0  0  0  0
    7.0439   -0.5057   22.2956 C   0  0  0  0  0  0  0  0  0  0  0  0
    6.1541   -0.0771   22.7206 H   0  0  0  0  0  0  0  0  0  0  0  0
    5.3847    0.6263   20.0201 C   0  0  0  0  0  0  0  0  0  0  0  0
    4.9066    0.6071   20.9995 H   0  0  0  0  0  0  0  0  0  0  0  0
    4.7930    1.3070   18.9607 C   0  0  0  0  0  0  0  0  0  0  0  0
    3.8705    1.8622   19.0960 H   0  0  0  0  0  0  0  0  0  0  0  0
  1  2  1  0
  2  3  2  0
  3  4  1  0
  4  5  1  0
  4  6  2  0
  6  7  1  0
  7  8  2  0
  8  9  1  0
  9 10  1  0
 10 11  1  0
 10 12  2  0
 12 13  1  0
 12 14  1  0
 14 15  1  0
 15 16  2  0
 16 17  1  0
 16 18  1  0
 18 19  1  0
 18 20  2  0
 20 21  1  0
 21 22  1  0
 22 23  1  0
 22 24  1  0
 22 25  1  0
 20 26  1  0
 26 27  1  0
 26 28  2  0
 28 29  1  0
 14 30  1  0
 30 31  2  0
 31 32  1  0
  6 33  1  0
 33 34  1  0
 33 35  2  0
 35 36  1  0
 35  2  1  0
 31  7  1  0
 30  9  1  0
 28 15  1  0
M  END
>  <cnnaffinity>  (1) 
-5.4055

>  <filename>  (1) 
FC(F)(F)Oc1ccc(-n2ccn3nc(-c4cccnc4)cc23)cc1

$$$$
