
     RDKit          3D

 34 36  0  0  0  0  0  0  0  0999 V2000
    4.9115    1.8102   16.9748 H   0  0  0  0  0  0  0  0  0  0  0  0
    5.3835    1.3077   17.8180 C   0  0  0  0  0  0  0  0  0  0  0  0
    6.5435    0.6878   17.5474 N   0  0  0  0  0  0  0  0  0  0  0  0
    7.1514    0.0598   18.5592 C   0  0  0  0  0  0  0  0  0  0  0  0
    8.1107   -0.3980   18.3212 H   0  0  0  0  0  0  0  0  0  0  0  0
    6.6528   -0.0014   19.8734 C   0  0  0  0  0  0  0  0  0  0  0  0
    7.4048   -0.6770   20.9473 C   0  0  0  0  0  0  0  0  0  0  0  0
    7.8079   -0.2075   22.1820 C   0  0  0  0  0  0  0  0  0  0  0  0
    7.5806    1.1702   22.7604 C   0  0  0  0  0  0  0  0  0  0  0  0
    7.5263    1.9074   21.9511 H   0  0  0  0  0  0  0  0  0  0  0  0
    8.4626    1.4417   23.3550 H   0  0  0  0  0  0  0  0  0  0  0  0
    6.3421    1.3077   23.6311 C   0  0  0  0  0  0  0  0  0  0  0  0
    6.1872    0.4995   24.7665 C   0  0  0  0  0  0  0  0  0  0  0  0
    6.9631   -0.2215   25.0136 H   0  0  0  0  0  0  0  0  0  0  0  0
    5.0544    0.5987   25.5710 C   0  0  0  0  0  0  0  0  0  0  0  0
    4.9672   -0.0480   26.4409 H   0  0  0  0  0  0  0  0  0  0  0  0
    4.0465    1.5245   25.2553 C   0  0  0  0  0  0  0  0  0  0  0  0
    2.8435    1.6760   26.1601 C   0  0  0  0  0  0  0  0  0  0  0  0
    1.7533    2.0926   25.4855 F   0  0  0  0  0  0  0  0  0  0  0  0
    3.0668    2.5814   27.1341 F   0  0  0  0  0  0  0  0  0  0  0  0
    2.5120    0.5227   26.7736 F   0  0  0  0  0  0  0  0  0  0  0  0
    4.2031    2.3623   24.1371 C   0  0  0  0  0  0  0  0  0  0  0  0
    3.4447    3.0996   23.8845 H   0  0  0  0  0  0  0  0  0  0  0  0
    5.3434    2.2484   23.3380 C   0  0  0  0  0  0  0  0  0  0  0  0
    5.4516    2.8769   22.4538 H   0  0  0  0  0  0  0  0  0  0  0  0
    8.4786   -1.3062   22.7673 C   0  0  0  0  0  0  0  0  0  0  0  0
    8.9551   -1.3641   23.7421 H   0  0  0  0  0  0  0  0  0  0  0  0
    8.5041   -2.3674   21.9701 N   0  0  0  0  0  0  0  0  0  0  0  0
    7.8573   -1.9541   20.8694 N   0  0  0  0  0  0  0  0  0  0  0  0
    7.7339   -2.5797   20.0848 H   0  0  0  0  0  0  0  0  0  0  0  0
    5.4406    0.6541   20.1343 C   0  0  0  0  0  0  0  0  0  0  0  0
    5.0297    0.6350   21.1441 H   0  0  0  0  0  0  0  0  0  0  0  0
    4.7953    1.3193   19.0876 C   0  0  0  0  0  0  0  0  0  0  0  0
    3.8638    1.8509   19.2422 H   0  0  0  0  0  0  0  0  0  0  0  0
  1  2  1  0
  2  3  2  0
  3  4  1  0
  4  5  1  0
  4  6  2  0
  6  7  1  0
  7  8  2  0
  8  9  1  0
  9 10  1  0
  9 11  1  0
  9 12  1  0
 12 13  2  0
 13 14  1  0
 13 15  1  0
 15 16  1  0
 15 17  2  0
 17 18  1  0
 18 19  1  0
 18 20  1  0
 18 21  1  0
 17 22  1  0
 22 23  1  0
 22 24  2  0
 24 25  1  0
  8 26  1  0
 26 27  1  0
 26 28  2  0
 28 29  1  0
 29 30  1  0
  6 31  1  0
 31 32  1  0
 31 33  2  0
 33 34  1  0
 33  2  1  0
 29  7  1  0
 24 12  1  0
M  END
>  <cnnaffinity>  (1) 
-5.13269

>  <filename>  (1) 
FC(F)(F)c1ccc(Cc2cn[nH]c2-c2cccnc2)cc1

$$$$
