
     RDKit          3D

 31 33  0  0  0  0  0  0  0  0999 V2000
    4.9779    1.8109   16.9999 H   0  0  0  0  0  0  0  0  0  0  0  0
    5.4442    1.2859   17.8313 C   0  0  0  0  0  0  0  0  0  0  0  0
    6.5983    0.6514   17.5735 N   0  0  0  0  0  0  0  0  0  0  0  0
    7.1965    0.0079   18.5861 C   0  0  0  0  0  0  0  0  0  0  0  0
    8.1242   -0.5125   18.3540 H   0  0  0  0  0  0  0  0  0  0  0  0
    6.6768   -0.0243   19.8922 C   0  0  0  0  0  0  0  0  0  0  0  0
    7.2137   -0.7378   20.9353 O   0  0  0  0  0  0  0  0  0  0  0  0
    8.5484   -0.7146   21.1946 C   0  0  0  0  0  0  0  0  0  0  0  0
    9.6085    0.1044   20.7401 C   0  0  0  0  0  0  0  0  0  0  0  0
    9.5545    0.9917   20.1233 H   0  0  0  0  0  0  0  0  0  0  0  0
   10.7755   -0.3845   21.1509 N   0  0  0  0  0  0  0  0  0  0  0  0
   10.4757   -1.4699   21.8744 N   0  0  0  0  0  0  0  0  0  0  0  0
   11.2221   -2.0829   22.1909 H   0  0  0  0  0  0  0  0  0  0  0  0
    9.1315   -1.6747   21.9821 C   0  0  0  0  0  0  0  0  0  0  0  0
    8.5080   -2.7740   22.7260 C   0  0  0  0  0  0  0  0  0  0  0  0
    8.8871   -3.9879   22.3081 N   0  0  0  0  0  0  0  0  0  0  0  0
    8.4052   -5.0645   22.9150 C   0  0  0  0  0  0  0  0  0  0  0  0
    8.7677   -6.0237   22.5485 H   0  0  0  0  0  0  0  0  0  0  0  0
    7.5024   -4.9932   23.9766 C   0  0  0  0  0  0  0  0  0  0  0  0
    7.1503   -5.9065   24.4325 H   0  0  0  0  0  0  0  0  0  0  0  0
    7.1036   -3.7411   24.4350 C   0  0  0  0  0  0  0  0  0  0  0  0
    6.4048   -3.6844   25.2681 H   0  0  0  0  0  0  0  0  0  0  0  0
    7.6306   -2.6011   23.8092 C   0  0  0  0  0  0  0  0  0  0  0  0
    7.3342   -1.1881   24.2497 C   0  0  0  0  0  0  0  0  0  0  0  0
    6.7411   -1.1515   25.4532 F   0  0  0  0  0  0  0  0  0  0  0  0
    6.5350   -0.5479   23.3854 F   0  0  0  0  0  0  0  0  0  0  0  0
    8.4560   -0.4426   24.3345 F   0  0  0  0  0  0  0  0  0  0  0  0
    5.4718    0.6221   20.1517 C   0  0  0  0  0  0  0  0  0  0  0  0
    5.0784    0.5936   21.1681 H   0  0  0  0  0  0  0  0  0  0  0  0
    4.8487    1.2905   19.0990 C   0  0  0  0  0  0  0  0  0  0  0  0
    3.9201    1.8180   19.2586 H   0  0  0  0  0  0  0  0  0  0  0  0
  1  2  1  0
  2  3  2  0
  3  4  1  0
  4  5  1  0
  4  6  2  0
  6  7  1  0
  7  8  1  0
  8  9  1  0
  9 10  1  0
  9 11  2  0
 11 12  1  0
 12 13  1  0
 12 14  1  0
 14 15  1  0
 15 16  2  0
 16 17  1  0
 17 18  1  0
 17 19  2  0
 19 20  1  0
 19 21  1  0
 21 22  1  0
 21 23  2  0
 23 24  1  0
 24 25  1  0
 24 26  1  0
 24 27  1  0
  6 28  1  0
 28 29  1  0
 28 30  2  0
 30 31  1  0
 30  2  1  0
 14  8  2  0
 23 15  1  0
M  END
>  <cnnaffinity>  (1) 
-5.82686

>  <filename>  (1) 
FC(F)(F)c1cccnc1-c1[nH]ncc1Oc1cccnc1

$$$$
