
     RDKit          3D

 30 31  0  0  0  0  0  0  0  0999 V2000
    4.9163    1.7965   16.9849 H   0  0  0  0  0  0  0  0  0  0  0  0
    5.3912    1.2998   17.8270 C   0  0  0  0  0  0  0  0  0  0  0  0
    6.5533    0.6847   17.5566 N   0  0  0  0  0  0  0  0  0  0  0  0
    7.1489    0.0525   18.5750 C   0  0  0  0  0  0  0  0  0  0  0  0
    8.1126   -0.4089   18.3600 H   0  0  0  0  0  0  0  0  0  0  0  0
    6.6305   -0.0275   19.8830 C   0  0  0  0  0  0  0  0  0  0  0  0
    7.4146   -0.7023   20.9910 C   0  0  0  0  0  0  0  0  0  0  0  0
    7.9533   -1.5857   20.6308 H   0  0  0  0  0  0  0  0  0  0  0  0
    6.7431   -1.0263   21.7940 H   0  0  0  0  0  0  0  0  0  0  0  0
    8.4545    0.2176   21.6575 C   0  0  0  0  0  0  0  0  0  0  0  0
    9.3891    0.5645   20.7138 F   0  0  0  0  0  0  0  0  0  0  0  0
    9.1368   -0.5195   22.5898 F   0  0  0  0  0  0  0  0  0  0  0  0
    7.8591    1.4658   22.2918 C   0  0  0  0  0  0  0  0  0  0  0  0
    7.8381    2.6861   21.5985 C   0  0  0  0  0  0  0  0  0  0  0  0
    8.3468    2.7261   20.6415 H   0  0  0  0  0  0  0  0  0  0  0  0
    7.1691    3.7953   22.1299 C   0  0  0  0  0  0  0  0  0  0  0  0
    7.1408    4.7382   21.5859 H   0  0  0  0  0  0  0  0  0  0  0  0
    6.5343    3.6973   23.3717 C   0  0  0  0  0  0  0  0  0  0  0  0
    6.0312    4.5650   23.7984 H   0  0  0  0  0  0  0  0  0  0  0  0
    6.5580    2.4791   24.0722 C   0  0  0  0  0  0  0  0  0  0  0  0
    5.8336    2.3414   25.3945 C   0  0  0  0  0  0  0  0  0  0  0  0
    4.5600    1.9345   25.2136 F   0  0  0  0  0  0  0  0  0  0  0  0
    5.7784    3.5059   26.0696 F   0  0  0  0  0  0  0  0  0  0  0  0
    6.4162    1.4390   26.2081 F   0  0  0  0  0  0  0  0  0  0  0  0
    7.1942    1.3581   23.5170 C   0  0  0  0  0  0  0  0  0  0  0  0
    7.1823    0.4003   24.0352 H   0  0  0  0  0  0  0  0  0  0  0  0
    5.4243    0.6342   20.1422 C   0  0  0  0  0  0  0  0  0  0  0  0
    5.0159    0.6372   21.1597 H   0  0  0  0  0  0  0  0  0  0  0  0
    4.7955    1.3111   19.0937 C   0  0  0  0  0  0  0  0  0  0  0  0
    3.8688    1.8493   19.2446 H   0  0  0  0  0  0  0  0  0  0  0  0
  1  2  1  0
  2  3  2  0
  3  4  1  0
  4  5  1  0
  4  6  2  0
  6  7  1  0
  7  8  1  0
  7  9  1  0
  7 10  1  0
 10 11  1  0
 10 12  1  0
 10 13  1  0
 13 14  2  0
 14 15  1  0
 14 16  1  0
 16 17  1  0
 16 18  2  0
 18 19  1  0
 18 20  1  0
 20 21  1  0
 21 22  1  0
 21 23  1  0
 21 24  1  0
 20 25  2  0
 25 26  1  0
  6 27  1  0
 27 28  1  0
 27 29  2  0
 29 30  1  0
 29  2  1  0
 25 13  1  0
M  END
>  <cnnaffinity>  (1) 
-4.66399

>  <filename>  (1) 
FC(F)(F)c1cccc(C(F)(F)Cc2cccnc2)c1

$$$$
