
     RDKit          3D

 32 35  0  0  0  0  0  0  0  0999 V2000
    4.9208    1.7734   17.0028 H   0  0  0  0  0  0  0  0  0  0  0  0
    5.4065    1.2879   17.8469 C   0  0  0  0  0  0  0  0  0  0  0  0
    6.5716    0.6714   17.5927 N   0  0  0  0  0  0  0  0  0  0  0  0
    7.1769    0.0574   18.6115 C   0  0  0  0  0  0  0  0  0  0  0  0
    8.1241   -0.4288   18.3733 H   0  0  0  0  0  0  0  0  0  0  0  0
    6.6501    0.0120   19.9132 C   0  0  0  0  0  0  0  0  0  0  0  0
    7.3473   -0.6895   20.9932 C   0  0  0  0  0  0  0  0  0  0  0  0
    6.8729   -0.7441   22.1983 N   0  0  0  0  0  0  0  0  0  0  0  0
    7.7343   -1.4523   22.9781 N   0  0  0  0  0  0  0  0  0  0  0  0
    7.7590   -1.9158   24.2723 C   0  0  0  0  0  0  0  0  0  0  0  0
    6.7424   -1.6040   25.3066 C   0  0  0  0  0  0  0  0  0  0  0  0
    6.1872   -0.3123   25.3444 C   0  0  0  0  0  0  0  0  0  0  0  0
    6.4784    0.4141   24.5922 H   0  0  0  0  0  0  0  0  0  0  0  0
    5.2759    0.0396   26.3349 C   0  0  0  0  0  0  0  0  0  0  0  0
    4.8594    1.0418   26.3484 H   0  0  0  0  0  0  0  0  0  0  0  0
    4.9055   -0.8874   27.3100 C   0  0  0  0  0  0  0  0  0  0  0  0
    4.2035   -0.6116   28.0890 H   0  0  0  0  0  0  0  0  0  0  0  0
    5.4358   -2.1751   27.2847 C   0  0  0  0  0  0  0  0  0  0  0  0
    5.1385   -2.8877   28.0525 H   0  0  0  0  0  0  0  0  0  0  0  0
    6.3379   -2.5563   26.2770 C   0  0  0  0  0  0  0  0  0  0  0  0
    6.8686   -3.9933   26.2729 C   0  0  0  0  0  0  0  0  0  0  0  0
    6.1500   -4.8157   27.0610 F   0  0  0  0  0  0  0  0  0  0  0  0
    6.8409   -4.5425   25.0448 F   0  0  0  0  0  0  0  0  0  0  0  0
    8.1346   -4.0512   26.7096 F   0  0  0  0  0  0  0  0  0  0  0  0
    8.8412   -2.6432   24.4407 N   0  0  0  0  0  0  0  0  0  0  0  0
    9.5403   -2.6720   23.2615 N   0  0  0  0  0  0  0  0  0  0  0  0
    8.8519   -1.9675   22.4054 C   0  0  0  0  0  0  0  0  0  0  0  0
    8.9006   -1.5179   20.7311 S   0  0  0  0  0  0  0  0  0  0  0  0
    5.4290    0.6574   20.1658 C   0  0  0  0  0  0  0  0  0  0  0  0
    5.0019    0.6324   21.1712 H   0  0  0  0  0  0  0  0  0  0  0  0
    4.8035    1.3112   19.1095 C   0  0  0  0  0  0  0  0  0  0  0  0
    3.8718    1.8451   19.2603 H   0  0  0  0  0  0  0  0  0  0  0  0
  1  2  1  0
  2  3  2  0
  3  4  1  0
  4  5  1  0
  4  6  2  0
  6  7  1  0
  7  8  2  0
  8  9  1  0
  9 10  1  0
 10 11  1  0
 11 12  2  0
 12 13  1  0
 12 14  1  0
 14 15  1  0
 14 16  2  0
 16 17  1  0
 16 18  1  0
 18 19  1  0
 18 20  2  0
 20 21  1  0
 21 22  1  0
 21 23  1  0
 21 24  1  0
 10 25  2  0
 25 26  1  0
 26 27  2  0
 27 28  1  0
  6 29  1  0
 29 30  1  0
 29 31  2  0
 31 32  1  0
 31  2  1  0
 28  7  1  0
 27  9  1  0
 20 11  1  0
M  END
>  <cnnaffinity>  (1) 
-5.45817

>  <filename>  (1) 
FC(F)(F)c1ccccc1-c1nnc2sc(-c3cccnc3)nn12

$$$$
