
     RDKit          3D

 34 36  0  0  0  0  0  0  0  0999 V2000
   12.5116    1.1496   21.8406 F   0  0  0  0  0  0  0  0  0  0  0  0
   11.7895    1.0295   22.9760 C   0  0  0  0  0  0  0  0  0  0  0  0
   11.4929   -0.2769   23.0874 F   0  0  0  0  0  0  0  0  0  0  0  0
   12.6127    1.3327   23.9966 F   0  0  0  0  0  0  0  0  0  0  0  0
   10.5462    1.9160   22.9311 C   0  0  0  0  0  0  0  0  0  0  0  0
   10.4244    2.9790   23.8423 C   0  0  0  0  0  0  0  0  0  0  0  0
    9.3059    3.8133   23.8138 C   0  0  0  0  0  0  0  0  0  0  0  0
    8.3018    3.5959   22.8672 C   0  0  0  0  0  0  0  0  0  0  0  0
    8.4243    2.5458   21.9531 C   0  0  0  0  0  0  0  0  0  0  0  0
    9.5338    1.6878   21.9784 C   0  0  0  0  0  0  0  0  0  0  0  0
    9.5477    0.5195   21.0010 C   0  0  0  0  0  0  0  0  0  0  0  0
    8.6152   -0.5475   21.3590 N   0  0  0  0  0  0  0  0  0  0  0  0
    8.9340   -1.3751   22.3707 N   0  0  0  0  0  0  0  0  0  0  0  0
    7.8365   -2.0838   22.5928 C   0  0  0  0  0  0  0  0  0  0  0  0
    6.7858   -1.7097   21.7309 C   0  0  0  0  0  0  0  0  0  0  0  0
    7.3222   -0.7166   20.9563 C   0  0  0  0  0  0  0  0  0  0  0  0
    6.6580    0.0394   19.8836 C   0  0  0  0  0  0  0  0  0  0  0  0
    5.4318    0.6622   20.1401 C   0  0  0  0  0  0  0  0  0  0  0  0
    4.7978    1.3242   19.0877 C   0  0  0  0  0  0  0  0  0  0  0  0
    5.3923    1.3048   17.8171 C   0  0  0  0  0  0  0  0  0  0  0  0
    6.5477    0.6795   17.5419 N   0  0  0  0  0  0  0  0  0  0  0  0
    7.1616    0.0770   18.5692 C   0  0  0  0  0  0  0  0  0  0  0  0
    8.1004   -0.4271   18.3526 H   0  0  0  0  0  0  0  0  0  0  0  0
    4.9122    1.7986   16.9776 H   0  0  0  0  0  0  0  0  0  0  0  0
    3.8654    1.8496   19.2442 H   0  0  0  0  0  0  0  0  0  0  0  0
    5.0129    0.6318   21.1513 H   0  0  0  0  0  0  0  0  0  0  0  0
    5.7772   -2.0930   21.6452 H   0  0  0  0  0  0  0  0  0  0  0  0
    7.8300   -2.8329   23.3722 H   0  0  0  0  0  0  0  0  0  0  0  0
    9.2317    0.8853   20.0272 H   0  0  0  0  0  0  0  0  0  0  0  0
   10.5287    0.0615   20.9007 H   0  0  0  0  0  0  0  0  0  0  0  0
    7.6397    2.3660   21.2176 H   0  0  0  0  0  0  0  0  0  0  0  0
    7.4282    4.2424   22.8356 H   0  0  0  0  0  0  0  0  0  0  0  0
    9.2297    4.6300   24.5262 H   0  0  0  0  0  0  0  0  0  0  0  0
   11.2197    3.1390   24.5678 H   0  0  0  0  0  0  0  0  0  0  0  0
  1  2  1  0
  2  3  1  0
  2  4  1  0
  2  5  1  0
  5  6  2  0
  6  7  1  0
  7  8  2  0
  8  9  1  0
  9 10  2  0
 10 11  1  0
 11 12  1  0
 12 13  1  0
 13 14  2  0
 14 15  1  0
 15 16  2  0
 16 17  1  0
 17 18  2  0
 18 19  1  0
 19 20  2  0
 20 21  1  0
 21 22  2  0
 22 23  1  0
 20 24  1  0
 19 25  1  0
 18 26  1  0
 15 27  1  0
 14 28  1  0
 11 29  1  0
 11 30  1  0
  9 31  1  0
  8 32  1  0
  7 33  1  0
  6 34  1  0
 10  5  1  0
 16 12  1  0
 22 17  1  0
M  END
>  <cnnaffinity>  (1) 
-5.51379

>  <filename>  (1) 
FC(F)(F)c1ccccc1Cn1nccc1-c1cccnc1

$$$$
