
     RDKit          3D

 38 40  0  0  0  0  0  0  0  0999 V2000
    3.9219   -0.1602   25.1783 F   0  0  0  0  0  0  0  0  0  0  0  0
    4.3679   -1.3831   25.5201 C   0  0  0  0  0  0  0  0  0  0  0  0
    4.0639   -1.5564   26.8225 F   0  0  0  0  0  0  0  0  0  0  0  0
    3.6280   -2.2841   24.8436 F   0  0  0  0  0  0  0  0  0  0  0  0
    5.8862   -1.5397   25.2509 C   0  0  0  0  0  0  0  0  0  0  0  0
    6.6579   -2.4343   26.0168 C   0  0  0  0  0  0  0  0  0  0  0  0
    8.0257   -2.5618   25.7741 C   0  0  0  0  0  0  0  0  0  0  0  0
    8.6939   -1.8737   24.8494 N   0  0  0  0  0  0  0  0  0  0  0  0
    7.9892   -1.0311   24.0822 C   0  0  0  0  0  0  0  0  0  0  0  0
    8.7020   -0.3425   23.1310 N   0  0  0  0  0  0  0  0  0  0  0  0
   10.1530   -0.1666   23.2241 C   0  0  0  0  0  0  0  0  0  0  0  0
   10.4561    0.9679   22.2324 C   0  0  0  0  0  0  0  0  0  0  0  0
    9.2875    0.9601   21.2355 C   0  0  0  0  0  0  0  0  0  0  0  0
    8.1007    0.2853   21.9577 C   0  0  0  0  0  0  0  0  0  0  0  0
    7.3675   -0.7179   21.0260 C   0  0  0  0  0  0  0  0  0  0  0  0
    6.6370   -0.0275   19.8898 C   0  0  0  0  0  0  0  0  0  0  0  0
    5.4298    0.6442   20.1287 C   0  0  0  0  0  0  0  0  0  0  0  0
    4.7924    1.3153   19.0831 C   0  0  0  0  0  0  0  0  0  0  0  0
    5.3905    1.3050   17.8192 C   0  0  0  0  0  0  0  0  0  0  0  0
    6.5508    0.6843   17.5643 N   0  0  0  0  0  0  0  0  0  0  0  0
    7.1529    0.0510   18.5814 C   0  0  0  0  0  0  0  0  0  0  0  0
    8.1060   -0.4212   18.3336 H   0  0  0  0  0  0  0  0  0  0  0  0
    4.9219    1.8131   16.9762 H   0  0  0  0  0  0  0  0  0  0  0  0
    3.8641    1.8538   19.2318 H   0  0  0  0  0  0  0  0  0  0  0  0
    5.0031    0.6420   21.1361 H   0  0  0  0  0  0  0  0  0  0  0  0
    8.1111   -1.4295   20.6447 H   0  0  0  0  0  0  0  0  0  0  0  0
    6.6637   -1.3061   21.6253 H   0  0  0  0  0  0  0  0  0  0  0  0
    7.3779    1.0519   22.2869 H   0  0  0  0  0  0  0  0  0  0  0  0
    9.0129    1.9650   20.9019 H   0  0  0  0  0  0  0  0  0  0  0  0
    9.5413    0.3849   20.3346 H   0  0  0  0  0  0  0  0  0  0  0  0
   10.5026    1.9273   22.7602 H   0  0  0  0  0  0  0  0  0  0  0  0
   11.4199    0.8157   21.7349 H   0  0  0  0  0  0  0  0  0  0  0  0
   10.4568    0.0859   24.2506 H   0  0  0  0  0  0  0  0  0  0  0  0
   10.6725   -1.1018   22.9658 H   0  0  0  0  0  0  0  0  0  0  0  0
    6.5870   -0.8362   24.2565 C   0  0  0  0  0  0  0  0  0  0  0  0
    6.1202   -0.1121   23.6017 H   0  0  0  0  0  0  0  0  0  0  0  0
    8.6138   -3.2559   26.3766 H   0  0  0  0  0  0  0  0  0  0  0  0
    6.2170   -3.0095   26.8170 H   0  0  0  0  0  0  0  0  0  0  0  0
  1  2  1  0
  2  3  1  0
  2  4  1  0
  2  5  1  0
  5  6  2  0
  6  7  1  0
  7  8  2  0
  8  9  1  0
  9 10  1  0
 10 11  1  0
 11 12  1  0
 12 13  1  0
 13 14  1  0
 14 15  1  0
 15 16  1  0
 16 17  2  0
 17 18  1  0
 18 19  2  0
 19 20  1  0
 20 21  2  0
 21 22  1  0
 19 23  1  0
 18 24  1  0
 17 25  1  0
 15 26  1  0
 15 27  1  0
 14 28  1  0
 13 29  1  0
 13 30  1  0
 12 31  1  0
 12 32  1  0
 11 33  1  0
 11 34  1  0
  9 35  2  0
 35 36  1  0
  7 37  1  0
  6 38  1  0
 35  5  1  0
 14 10  1  0
 21 16  1  0
M  END
>  <cnnaffinity>  (1) 
-5.50948

>  <filename>  (1) 
FC(F)(F)c1ccnc(N2CCCC2Cc2cccnc2)c1

$$$$
