
     RDKit          3D

 30 33  0  0  0  0  0  0  0  0999 V2000
    4.9096    1.7702   17.0072 H   0  0  0  0  0  0  0  0  0  0  0  0
    5.4056    1.2877   17.8486 C   0  0  0  0  0  0  0  0  0  0  0  0
    6.5748    0.6744   17.5946 N   0  0  0  0  0  0  0  0  0  0  0  0
    7.1847    0.0550   18.6128 C   0  0  0  0  0  0  0  0  0  0  0  0
    8.1320   -0.4368   18.3825 H   0  0  0  0  0  0  0  0  0  0  0  0
    6.6535    0.0118   19.9091 C   0  0  0  0  0  0  0  0  0  0  0  0
    7.3621   -0.6911   20.9683 C   0  0  0  0  0  0  0  0  0  0  0  0
    8.5469   -1.3282   20.7617 N   0  0  0  0  0  0  0  0  0  0  0  0
    8.7912   -1.8083   21.9602 C   0  0  0  0  0  0  0  0  0  0  0  0
    9.9845   -2.8236   22.7157 S   0  0  0  0  0  0  0  0  0  0  0  0
    9.0799   -2.7649   24.2055 C   0  0  0  0  0  0  0  0  0  0  0  0
    9.4538   -3.2886   25.0716 H   0  0  0  0  0  0  0  0  0  0  0  0
    7.9578   -2.0145   24.1267 C   0  0  0  0  0  0  0  0  0  0  0  0
    6.9654   -1.7629   25.1988 C   0  0  0  0  0  0  0  0  0  0  0  0
    6.7671   -2.7543   26.1798 C   0  0  0  0  0  0  0  0  0  0  0  0
    7.3125   -3.6942   26.1337 H   0  0  0  0  0  0  0  0  0  0  0  0
    5.8521   -2.5438   27.2092 C   0  0  0  0  0  0  0  0  0  0  0  0
    5.7021   -3.3130   27.9603 H   0  0  0  0  0  0  0  0  0  0  0  0
    5.1264   -1.3530   27.2854 C   0  0  0  0  0  0  0  0  0  0  0  0
    4.4146   -1.1838   28.0837 H   0  0  0  0  0  0  0  0  0  0  0  0
    5.3377   -0.3772   26.3121 C   0  0  0  0  0  0  0  0  0  0  0  0
    4.6476    0.7729   26.3810 F   0  0  0  0  0  0  0  0  0  0  0  0
    6.2433   -0.5549   25.2742 C   0  0  0  0  0  0  0  0  0  0  0  0
    6.3911    0.2281   24.5388 H   0  0  0  0  0  0  0  0  0  0  0  0
    7.8263   -1.4743   22.8407 N   0  0  0  0  0  0  0  0  0  0  0  0
    6.8711   -0.7487   22.2044 N   0  0  0  0  0  0  0  0  0  0  0  0
    5.4369    0.6545   20.1635 C   0  0  0  0  0  0  0  0  0  0  0  0
    5.0069    0.6289   21.1638 H   0  0  0  0  0  0  0  0  0  0  0  0
    4.8059    1.3102   19.1137 C   0  0  0  0  0  0  0  0  0  0  0  0
    3.8716    1.8453   19.2675 H   0  0  0  0  0  0  0  0  0  0  0  0
  1  2  1  0
  2  3  2  0
  3  4  1  0
  4  5  1  0
  4  6  2  0
  6  7  1  0
  7  8  1  0
  8  9  2  0
  9 10  1  0
 10 11  1  0
 11 12  1  0
 11 13  2  0
 13 14  1  0
 14 15  2  0
 15 16  1  0
 15 17  1  0
 17 18  1  0
 17 19  2  0
 19 20  1  0
 19 21  1  0
 21 22  1  0
 21 23  2  0
 23 24  1  0
 13 25  1  0
 25 26  1  0
  6 27  1  0
 27 28  1  0
 27 29  2  0
 29 30  1  0
 29  2  1  0
 26  7  2  0
 25  9  1  0
 23 14  1  0
M  END
>  <cnnaffinity>  (1) 
-5.51771

>  <filename>  (1) 
Fc1cccc(-c2csc3nc(-c4cccnc4)nn23)c1

$$$$
