
     RDKit          3D

 35 37  0  0  0  0  0  0  0  0999 V2000
    4.8619    1.9376   16.8815 H   0  0  0  0  0  0  0  0  0  0  0  0
    5.3385    1.4083   17.7019 C   0  0  0  0  0  0  0  0  0  0  0  0
    6.5046    0.8004   17.4191 N   0  0  0  0  0  0  0  0  0  0  0  0
    7.1180    0.1515   18.4187 C   0  0  0  0  0  0  0  0  0  0  0  0
    8.0597   -0.3384   18.1708 H   0  0  0  0  0  0  0  0  0  0  0  0
    6.6180    0.0481   19.7428 C   0  0  0  0  0  0  0  0  0  0  0  0
    7.3027   -0.6968   20.7253 N   0  0  0  0  0  0  0  0  0  0  0  0
    6.5652   -1.4307   21.7587 C   0  0  0  0  0  0  0  0  0  0  0  0
    6.3920   -0.8028   22.6511 H   0  0  0  0  0  0  0  0  0  0  0  0
    5.5900   -1.7486   21.3684 H   0  0  0  0  0  0  0  0  0  0  0  0
    7.3986   -2.6540   22.1693 C   0  0  0  0  0  0  0  0  0  0  0  0
    6.8635   -3.2714   22.9007 H   0  0  0  0  0  0  0  0  0  0  0  0
    7.5448   -3.2708   21.2653 H   0  0  0  0  0  0  0  0  0  0  0  0
    8.7032   -2.2187   22.6837 N   0  0  0  0  0  0  0  0  0  0  0  0
    9.3009   -2.8930   23.7645 C   0  0  0  0  0  0  0  0  0  0  0  0
   10.5393   -3.5549   23.6842 C   0  0  0  0  0  0  0  0  0  0  0  0
   11.1268   -3.4630   22.7755 H   0  0  0  0  0  0  0  0  0  0  0  0
   10.9844   -4.3558   24.7430 C   0  0  0  0  0  0  0  0  0  0  0  0
   11.8803   -4.9588   24.6790 H   0  0  0  0  0  0  0  0  0  0  0  0
   10.2404   -4.4067   25.9188 C   0  0  0  0  0  0  0  0  0  0  0  0
   10.6313   -5.2117   26.9188 F   0  0  0  0  0  0  0  0  0  0  0  0
    9.0835   -3.6446   26.0800 C   0  0  0  0  0  0  0  0  0  0  0  0
    8.5828   -3.6240   27.0403 H   0  0  0  0  0  0  0  0  0  0  0  0
    8.6022   -2.9308   24.9825 C   0  0  0  0  0  0  0  0  0  0  0  0
    7.6691   -2.3822   25.0511 H   0  0  0  0  0  0  0  0  0  0  0  0
    9.4441   -1.4803   21.6633 C   0  0  0  0  0  0  0  0  0  0  0  0
    9.6076   -2.1134   20.7729 H   0  0  0  0  0  0  0  0  0  0  0  0
   10.4236   -1.1604   22.0411 H   0  0  0  0  0  0  0  0  0  0  0  0
    8.6187   -0.2548   21.2172 C   0  0  0  0  0  0  0  0  0  0  0  0
    9.1437    0.2946   20.4261 H   0  0  0  0  0  0  0  0  0  0  0  0
    8.4956    0.4244   22.0793 H   0  0  0  0  0  0  0  0  0  0  0  0
    5.3944    0.6905   20.0051 C   0  0  0  0  0  0  0  0  0  0  0  0
    4.9887    0.6461   21.0150 H   0  0  0  0  0  0  0  0  0  0  0  0
    4.7505    1.3775   18.9712 C   0  0  0  0  0  0  0  0  0  0  0  0
    3.8090    1.8899   19.1448 H   0  0  0  0  0  0  0  0  0  0  0  0
  1  2  1  0
  2  3  2  0
  3  4  1  0
  4  5  1  0
  4  6  2  0
  6  7  1  0
  7  8  1  0
  8  9  1  0
  8 10  1  0
  8 11  1  0
 11 12  1  0
 11 13  1  0
 11 14  1  0
 14 15  1  0
 15 16  2  0
 16 17  1  0
 16 18  1  0
 18 19  1  0
 18 20  2  0
 20 21  1  0
 20 22  1  0
 22 23  1  0
 22 24  2  0
 24 25  1  0
 14 26  1  0
 26 27  1  0
 26 28  1  0
 26 29  1  0
 29 30  1  0
 29 31  1  0
  6 32  1  0
 32 33  1  0
 32 34  2  0
 34 35  1  0
 34  2  1  0
 29  7  1  0
 24 15  1  0
M  END
>  <cnnaffinity>  (1) 
-4.81154

>  <filename>  (1) 
Fc1ccc(N2CCN(c3cccnc3)CC2)cc1

$$$$
