
     RDKit          3D

 26 28  0  0  0  0  0  0  0  0999 V2000
    4.9230    1.7816   16.9938 H   0  0  0  0  0  0  0  0  0  0  0  0
    5.3999    1.2929   17.8382 C   0  0  0  0  0  0  0  0  0  0  0  0
    6.5629    0.6760   17.5796 N   0  0  0  0  0  0  0  0  0  0  0  0
    7.1631    0.0658   18.6004 C   0  0  0  0  0  0  0  0  0  0  0  0
    8.1079   -0.4138   18.3584 H   0  0  0  0  0  0  0  0  0  0  0  0
    6.6485    0.0146   19.9078 C   0  0  0  0  0  0  0  0  0  0  0  0
    7.3743   -0.6944   20.9622 C   0  0  0  0  0  0  0  0  0  0  0  0
    6.8969   -0.7512   22.2659 N   0  0  0  0  0  0  0  0  0  0  0  0
    7.7786   -1.4471   22.8997 C   0  0  0  0  0  0  0  0  0  0  0  0
    7.7856   -1.8182   24.2998 C   0  0  0  0  0  0  0  0  0  0  0  0
    6.7126   -1.3834   25.0960 C   0  0  0  0  0  0  0  0  0  0  0  0
    5.8970   -0.7886   24.6972 H   0  0  0  0  0  0  0  0  0  0  0  0
    6.6232   -1.6681   26.3970 N   0  0  0  0  0  0  0  0  0  0  0  0
    7.6082   -2.3938   26.9239 C   0  0  0  0  0  0  0  0  0  0  0  0
    7.5755   -2.6325   27.9559 H   0  0  0  0  0  0  0  0  0  0  0  0
    8.7055   -2.8711   26.2097 C   0  0  0  0  0  0  0  0  0  0  0  0
    9.6213   -3.6015   26.8562 F   0  0  0  0  0  0  0  0  0  0  0  0
    8.8253   -2.5903   24.8653 C   0  0  0  0  0  0  0  0  0  0  0  0
    9.6901   -2.9659   24.3192 H   0  0  0  0  0  0  0  0  0  0  0  0
    8.8122   -1.8717   22.1384 O   0  0  0  0  0  0  0  0  0  0  0  0
    8.5415   -1.3789   20.8987 C   0  0  0  0  0  0  0  0  0  0  0  0
    9.2387   -1.5877   20.1011 H   0  0  0  0  0  0  0  0  0  0  0  0
    5.4259    0.6585   20.1640 C   0  0  0  0  0  0  0  0  0  0  0  0
    5.0062    0.6320   21.1741 H   0  0  0  0  0  0  0  0  0  0  0  0
    4.8026    1.3114   19.1048 C   0  0  0  0  0  0  0  0  0  0  0  0
    3.8720    1.8444   19.2537 H   0  0  0  0  0  0  0  0  0  0  0  0
  1  2  1  0
  2  3  2  0
  3  4  1  0
  4  5  1  0
  4  6  2  0
  6  7  1  0
  7  8  1  0
  8  9  2  0
  9 10  1  0
 10 11  2  0
 11 12  1  0
 11 13  1  0
 13 14  2  0
 14 15  1  0
 14 16  1  0
 16 17  1  0
 16 18  2  0
 18 19  1  0
  9 20  1  0
 20 21  1  0
 21 22  1  0
  6 23  1  0
 23 24  1  0
 23 25  2  0
 25 26  1  0
 25  2  1  0
 21  7  2  0
 18 10  1  0
M  END
>  <cnnaffinity>  (1) 
-5.01986

>  <filename>  (1) 
Fc1cncc(-c2nc(-c3cccnc3)co2)c1

$$$$
