
     RDKit          3D

 30 33  0  0  0  0  0  0  0  0999 V2000
    4.9094    1.7702   17.0073 H   0  0  0  0  0  0  0  0  0  0  0  0
    5.4054    1.2878   17.8487 C   0  0  0  0  0  0  0  0  0  0  0  0
    6.5746    0.6747   17.5949 N   0  0  0  0  0  0  0  0  0  0  0  0
    7.1848    0.0549   18.6128 C   0  0  0  0  0  0  0  0  0  0  0  0
    8.1321   -0.4370   18.3825 H   0  0  0  0  0  0  0  0  0  0  0  0
    6.6537    0.0117   19.9090 C   0  0  0  0  0  0  0  0  0  0  0  0
    7.3622   -0.6911   20.9683 C   0  0  0  0  0  0  0  0  0  0  0  0
    8.5469   -1.3284   20.7620 N   0  0  0  0  0  0  0  0  0  0  0  0
    8.7909   -1.8081   21.9608 C   0  0  0  0  0  0  0  0  0  0  0  0
    9.9838   -2.8233   22.7154 S   0  0  0  0  0  0  0  0  0  0  0  0
    9.0799   -2.7647   24.2055 C   0  0  0  0  0  0  0  0  0  0  0  0
    9.4534   -3.2885   25.0718 H   0  0  0  0  0  0  0  0  0  0  0  0
    7.9580   -2.0146   24.1270 C   0  0  0  0  0  0  0  0  0  0  0  0
    6.9666   -1.7643   25.1984 C   0  0  0  0  0  0  0  0  0  0  0  0
    6.7641   -2.7501   26.1803 C   0  0  0  0  0  0  0  0  0  0  0  0
    7.3086   -3.6906   26.1352 H   0  0  0  0  0  0  0  0  0  0  0  0
    5.8508   -2.5477   27.2133 C   0  0  0  0  0  0  0  0  0  0  0  0
    5.6938   -3.3092   27.9672 H   0  0  0  0  0  0  0  0  0  0  0  0
    5.1340   -1.3576   27.2790 C   0  0  0  0  0  0  0  0  0  0  0  0
    4.2563   -1.1589   28.2692 F   0  0  0  0  0  0  0  0  0  0  0  0
    5.3334   -0.3654   26.3096 C   0  0  0  0  0  0  0  0  0  0  0  0
    4.6446    0.7814   26.3800 F   0  0  0  0  0  0  0  0  0  0  0  0
    6.2413   -0.5577   25.2794 C   0  0  0  0  0  0  0  0  0  0  0  0
    6.3892    0.2258   24.5443 H   0  0  0  0  0  0  0  0  0  0  0  0
    7.8261   -1.4741   22.8410 N   0  0  0  0  0  0  0  0  0  0  0  0
    6.8711   -0.7486   22.2042 N   0  0  0  0  0  0  0  0  0  0  0  0
    5.4370    0.6545   20.1632 C   0  0  0  0  0  0  0  0  0  0  0  0
    5.0070    0.6289   21.1635 H   0  0  0  0  0  0  0  0  0  0  0  0
    4.8058    1.3103   19.1138 C   0  0  0  0  0  0  0  0  0  0  0  0
    3.8718    1.8453   19.2675 H   0  0  0  0  0  0  0  0  0  0  0  0
  1  2  1  0
  2  3  2  0
  3  4  1  0
  4  5  1  0
  4  6  2  0
  6  7  1  0
  7  8  1  0
  8  9  2  0
  9 10  1  0
 10 11  1  0
 11 12  1  0
 11 13  2  0
 13 14  1  0
 14 15  2  0
 15 16  1  0
 15 17  1  0
 17 18  1  0
 17 19  2  0
 19 20  1  0
 19 21  1  0
 21 22  1  0
 21 23  2  0
 23 24  1  0
 13 25  1  0
 25 26  1  0
  6 27  1  0
 27 28  1  0
 27 29  2  0
 29 30  1  0
 29  2  1  0
 26  7  2  0
 25  9  1  0
 23 14  1  0
M  END
>  <cnnaffinity>  (1) 
-5.75839

>  <filename>  (1) 
Fc1ccc(-c2csc3nc(-c4cccnc4)nn23)cc1F

$$$$
