
     RDKit          3D

 28 30  0  0  0  0  0  0  0  0999 V2000
    4.9201    1.7810   16.9979 H   0  0  0  0  0  0  0  0  0  0  0  0
    5.4018    1.2941   17.8401 C   0  0  0  0  0  0  0  0  0  0  0  0
    6.5672    0.6815   17.5771 N   0  0  0  0  0  0  0  0  0  0  0  0
    7.1678    0.0542   18.5894 C   0  0  0  0  0  0  0  0  0  0  0  0
    8.1159   -0.4341   18.3714 H   0  0  0  0  0  0  0  0  0  0  0  0
    6.6455    0.0107   19.8897 C   0  0  0  0  0  0  0  0  0  0  0  0
    7.3781   -0.7246   20.9082 C   0  0  0  0  0  0  0  0  0  0  0  0
    7.9763   -1.8573   20.6897 N   0  0  0  0  0  0  0  0  0  0  0  0
    8.4724   -2.2002   21.9073 N   0  0  0  0  0  0  0  0  0  0  0  0
    9.0170   -3.0311   22.0547 H   0  0  0  0  0  0  0  0  0  0  0  0
    8.2546   -1.2971   22.8819 C   0  0  0  0  0  0  0  0  0  0  0  0
    8.8064   -1.3777   24.4442 S   0  0  0  0  0  0  0  0  0  0  0  0
    7.5072   -0.3276   22.2321 N   0  0  0  0  0  0  0  0  0  0  0  0
    7.1145    0.9304   22.8174 C   0  0  0  0  0  0  0  0  0  0  0  0
    6.3516    0.9515   23.9899 C   0  0  0  0  0  0  0  0  0  0  0  0
    6.0676    0.0168   24.4617 H   0  0  0  0  0  0  0  0  0  0  0  0
    5.9744    2.1682   24.5745 C   0  0  0  0  0  0  0  0  0  0  0  0
    5.3938    2.2090   25.4919 H   0  0  0  0  0  0  0  0  0  0  0  0
    6.3632    3.3597   23.9649 C   0  0  0  0  0  0  0  0  0  0  0  0
    5.9992    4.5308   24.5193 F   0  0  0  0  0  0  0  0  0  0  0  0
    7.1227    3.3654   22.7972 C   0  0  0  0  0  0  0  0  0  0  0  0
    7.3956    4.3161   22.3461 H   0  0  0  0  0  0  0  0  0  0  0  0
    7.5066    2.1425   22.2329 C   0  0  0  0  0  0  0  0  0  0  0  0
    8.0796    2.1328   21.3118 H   0  0  0  0  0  0  0  0  0  0  0  0
    5.4252    0.6520   20.1541 C   0  0  0  0  0  0  0  0  0  0  0  0
    5.0120    0.6372   21.1675 H   0  0  0  0  0  0  0  0  0  0  0  0
    4.7994    1.3105   19.1033 C   0  0  0  0  0  0  0  0  0  0  0  0
    3.8711    1.8449   19.2559 H   0  0  0  0  0  0  0  0  0  0  0  0
  1  2  1  0
  2  3  2  0
  3  4  1  0
  4  5  1  0
  4  6  2  0
  6  7  1  0
  7  8  2  0
  8  9  1  0
  9 10  1  0
  9 11  1  0
 11 12  2  0
 11 13  1  0
 13 14  1  0
 14 15  2  0
 15 16  1  0
 15 17  1  0
 17 18  1  0
 17 19  2  0
 19 20  1  0
 19 21  1  0
 21 22  1  0
 21 23  2  0
 23 24  1  0
  6 25  1  0
 25 26  1  0
 25 27  2  0
 27 28  1  0
 27  2  1  0
 13  7  1  0
 23 14  1  0
M  END
>  <cnnaffinity>  (1) 
-5.14711

>  <filename>  (1) 
Fc1ccc(-n2c(-c3cccnc3)n[nH]c2=S)cc1

$$$$
