
     RDKit          3D

 31 33  0  0  0  0  0  0  0  0999 V2000
    4.9221    1.7896   16.9853 H   0  0  0  0  0  0  0  0  0  0  0  0
    5.3993    1.2965   17.8303 C   0  0  0  0  0  0  0  0  0  0  0  0
    6.5603    0.6793   17.5682 N   0  0  0  0  0  0  0  0  0  0  0  0
    7.1688    0.0729   18.5982 C   0  0  0  0  0  0  0  0  0  0  0  0
    8.1081   -0.4214   18.3611 H   0  0  0  0  0  0  0  0  0  0  0  0
    6.6712    0.0220   19.9147 C   0  0  0  0  0  0  0  0  0  0  0  0
    7.4264   -0.6784   21.0211 C   0  0  0  0  0  0  0  0  0  0  0  0
    8.5107    0.1465   21.7190 C   0  0  0  0  0  0  0  0  0  0  0  0
    9.2844    0.4061   20.9887 H   0  0  0  0  0  0  0  0  0  0  0  0
    8.9957   -0.4823   22.4737 H   0  0  0  0  0  0  0  0  0  0  0  0
    7.9564    1.3979   22.3574 C   0  0  0  0  0  0  0  0  0  0  0  0
    7.9440    2.6127   21.6600 C   0  0  0  0  0  0  0  0  0  0  0  0
    8.3883    2.6453   20.6700 H   0  0  0  0  0  0  0  0  0  0  0  0
    7.3589    3.7600   22.2061 C   0  0  0  0  0  0  0  0  0  0  0  0
    7.3360    4.7137   21.6847 H   0  0  0  0  0  0  0  0  0  0  0  0
    6.7828    3.6792   23.4674 C   0  0  0  0  0  0  0  0  0  0  0  0
    6.2282    4.7660   24.0226 F   0  0  0  0  0  0  0  0  0  0  0  0
    6.7784    2.4699   24.1690 C   0  0  0  0  0  0  0  0  0  0  0  0
    6.2156    2.4126   25.3843 F   0  0  0  0  0  0  0  0  0  0  0  0
    7.3534    1.3319   23.6204 C   0  0  0  0  0  0  0  0  0  0  0  0
    7.3134    0.4100   24.1975 H   0  0  0  0  0  0  0  0  0  0  0  0
    7.6841   -2.1444   20.8392 C   0  0  0  0  0  0  0  0  0  0  0  0
    7.1829   -2.5522   19.9764 H   0  0  0  0  0  0  0  0  0  0  0  0
    8.6458   -2.5824   21.1203 H   0  0  0  0  0  0  0  0  0  0  0  0
    6.6750   -1.6924   21.8513 C   0  0  0  0  0  0  0  0  0  0  0  0
    5.6345   -1.8794   21.5924 H   0  0  0  0  0  0  0  0  0  0  0  0
    6.8879   -1.8005   22.9103 H   0  0  0  0  0  0  0  0  0  0  0  0
    5.4491    0.6636   20.1556 C   0  0  0  0  0  0  0  0  0  0  0  0
    5.0269    0.6276   21.1637 H   0  0  0  0  0  0  0  0  0  0  0  0
    4.8081    1.3160   19.1000 C   0  0  0  0  0  0  0  0  0  0  0  0
    3.8747    1.8412   19.2480 H   0  0  0  0  0  0  0  0  0  0  0  0
  1  2  1  0
  2  3  2  0
  3  4  1  0
  4  5  1  0
  4  6  2  0
  6  7  1  0
  7  8  1  0
  8  9  1  0
  8 10  1  0
  8 11  1  0
 11 12  2  0
 12 13  1  0
 12 14  1  0
 14 15  1  0
 14 16  2  0
 16 17  1  0
 16 18  1  0
 18 19  1  0
 18 20  2  0
 20 21  1  0
  7 22  1  0
 22 23  1  0
 22 24  1  0
 22 25  1  0
 25 26  1  0
 25 27  1  0
  6 28  1  0
 28 29  1  0
 28 30  2  0
 30 31  1  0
 30  2  1  0
 25  7  1  0
 20 11  1  0
M  END
>  <cnnaffinity>  (1) 
-4.7498

>  <filename>  (1) 
Fc1ccc(CC2(c3cccnc3)CC2)cc1F

$$$$
