
     RDKit          3D

 33 36  0  0  0  0  0  0  0  0999 V2000
    4.9763    1.7998   16.9490 H   0  0  0  0  0  0  0  0  0  0  0  0
    5.4189    1.3052   17.8118 C   0  0  0  0  0  0  0  0  0  0  0  0
    6.5646    0.6430   17.5875 N   0  0  0  0  0  0  0  0  0  0  0  0
    7.1345    0.0355   18.6382 C   0  0  0  0  0  0  0  0  0  0  0  0
    8.0595   -0.5038   18.4303 H   0  0  0  0  0  0  0  0  0  0  0  0
    6.6128    0.0459   19.9461 C   0  0  0  0  0  0  0  0  0  0  0  0
    7.3055   -0.6562   21.0918 C   0  0  0  0  0  0  0  0  0  0  0  0
    8.2656    0.1953   21.8824 C   0  0  0  0  0  0  0  0  0  0  0  0
    7.9011    0.7509   23.0020 N   0  0  0  0  0  0  0  0  0  0  0  0
    8.8548    1.5525   23.5395 N   0  0  0  0  0  0  0  0  0  0  0  0
    9.9460    1.5857   22.8303 C   0  0  0  0  0  0  0  0  0  0  0  0
   11.0950    2.4553   23.1693 C   0  0  0  0  0  0  0  0  0  0  0  0
   10.9646    3.5885   24.0062 C   0  0  0  0  0  0  0  0  0  0  0  0
   10.0094    3.7756   24.4894 H   0  0  0  0  0  0  0  0  0  0  0  0
   12.0300    4.4631   24.2142 C   0  0  0  0  0  0  0  0  0  0  0  0
   11.8992    5.3359   24.8529 H   0  0  0  0  0  0  0  0  0  0  0  0
   13.2668    4.2141   23.6090 C   0  0  0  0  0  0  0  0  0  0  0  0
   14.0990    4.9024   23.7445 H   0  0  0  0  0  0  0  0  0  0  0  0
   13.4512    3.0556   22.8505 C   0  0  0  0  0  0  0  0  0  0  0  0
   14.4304    2.8251   22.4476 H   0  0  0  0  0  0  0  0  0  0  0  0
   12.3703    2.1960   22.6370 C   0  0  0  0  0  0  0  0  0  0  0  0
   12.5392    1.1069   21.8868 F   0  0  0  0  0  0  0  0  0  0  0  0
    9.8836    0.5694   21.4067 S   0  0  0  0  0  0  0  0  0  0  0  0
    7.5247   -2.1515   20.9357 C   0  0  0  0  0  0  0  0  0  0  0  0
    7.0457   -2.5854   20.0613 H   0  0  0  0  0  0  0  0  0  0  0  0
    8.4655   -2.6010   21.2440 H   0  0  0  0  0  0  0  0  0  0  0  0
    6.5410   -1.6531   21.9393 C   0  0  0  0  0  0  0  0  0  0  0  0
    5.4860   -1.7984   21.7261 H   0  0  0  0  0  0  0  0  0  0  0  0
    6.8166   -1.6890   22.9916 H   0  0  0  0  0  0  0  0  0  0  0  0
    5.4189    0.7475   20.1523 C   0  0  0  0  0  0  0  0  0  0  0  0
    4.9811    0.7725   21.1517 H   0  0  0  0  0  0  0  0  0  0  0  0
    4.8051    1.3784   19.0670 C   0  0  0  0  0  0  0  0  0  0  0  0
    3.8745    1.9239   19.1786 H   0  0  0  0  0  0  0  0  0  0  0  0
  1  2  1  0
  2  3  2  0
  3  4  1  0
  4  5  1  0
  4  6  2  0
  6  7  1  0
  7  8  1  0
  8  9  2  0
  9 10  1  0
 10 11  2  0
 11 12  1  0
 12 13  2  0
 13 14  1  0
 13 15  1  0
 15 16  1  0
 15 17  2  0
 17 18  1  0
 17 19  1  0
 19 20  1  0
 19 21  2  0
 21 22  1  0
 11 23  1  0
  7 24  1  0
 24 25  1  0
 24 26  1  0
 24 27  1  0
 27 28  1  0
 27 29  1  0
  6 30  1  0
 30 31  1  0
 30 32  2  0
 32 33  1  0
 32  2  1  0
 27  7  1  0
 23  8  1  0
 21 12  1  0
M  END
>  <cnnaffinity>  (1) 
-5.40987

>  <filename>  (1) 
Fc1ccccc1-c1nnc(C2(c3cccnc3)CC2)s1

$$$$
