
     RDKit          3D

 31 34  0  0  0  0  0  0  0  0999 V2000
    4.9477    1.7993   16.9241 H   0  0  0  0  0  0  0  0  0  0  0  0
    5.4298    1.3137   17.7692 C   0  0  0  0  0  0  0  0  0  0  0  0
    6.5980    0.7063   17.5132 N   0  0  0  0  0  0  0  0  0  0  0  0
    7.2203    0.1074   18.5346 C   0  0  0  0  0  0  0  0  0  0  0  0
    8.1609   -0.3895   18.3027 H   0  0  0  0  0  0  0  0  0  0  0  0
    6.7176    0.0824   19.8493 C   0  0  0  0  0  0  0  0  0  0  0  0
    7.4170   -0.6610   20.9158 C   0  0  0  0  0  0  0  0  0  0  0  0
    8.6338   -1.2054   20.7471 N   0  0  0  0  0  0  0  0  0  0  0  0
    8.8064   -1.9002   21.8946 N   0  0  0  0  0  0  0  0  0  0  0  0
    9.7711   -2.7718   22.3808 C   0  0  0  0  0  0  0  0  0  0  0  0
   10.7259   -2.8498   21.8945 H   0  0  0  0  0  0  0  0  0  0  0  0
    9.2436   -3.3254   23.5016 C   0  0  0  0  0  0  0  0  0  0  0  0
    9.6508   -4.0870   24.1463 H   0  0  0  0  0  0  0  0  0  0  0  0
    7.9797   -2.7810   23.7360 N   0  0  0  0  0  0  0  0  0  0  0  0
    7.0722   -3.1093   24.7610 C   0  0  0  0  0  0  0  0  0  0  0  0
    6.2758   -2.1005   25.3447 C   0  0  0  0  0  0  0  0  0  0  0  0
    6.4100   -1.0701   25.0251 H   0  0  0  0  0  0  0  0  0  0  0  0
    5.3448   -2.3442   26.2746 N   0  0  0  0  0  0  0  0  0  0  0  0
    5.1487   -3.6100   26.6676 C   0  0  0  0  0  0  0  0  0  0  0  0
    4.3642   -3.8045   27.3992 H   0  0  0  0  0  0  0  0  0  0  0  0
    5.9076   -4.6634   26.1408 C   0  0  0  0  0  0  0  0  0  0  0  0
    5.6648   -5.9148   26.5484 F   0  0  0  0  0  0  0  0  0  0  0  0
    6.8954   -4.4361   25.1868 C   0  0  0  0  0  0  0  0  0  0  0  0
    7.4576   -5.2735   24.7746 H   0  0  0  0  0  0  0  0  0  0  0  0
    7.7452   -1.8628   22.7216 C   0  0  0  0  0  0  0  0  0  0  0  0
    6.8338   -0.9867   22.1615 C   0  0  0  0  0  0  0  0  0  0  0  0
    5.9565   -0.5307   22.5757 H   0  0  0  0  0  0  0  0  0  0  0  0
    5.4872    0.7204   20.0954 C   0  0  0  0  0  0  0  0  0  0  0  0
    5.0341    0.7309   21.0904 H   0  0  0  0  0  0  0  0  0  0  0  0
    4.8370    1.3427   19.0362 C   0  0  0  0  0  0  0  0  0  0  0  0
    3.8832    1.8380   19.1783 H   0  0  0  0  0  0  0  0  0  0  0  0
  1  2  1  0
  2  3  2  0
  3  4  1  0
  4  5  1  0
  4  6  2  0
  6  7  1  0
  7  8  2  0
  8  9  1  0
  9 10  1  0
 10 11  1  0
 10 12  2  0
 12 13  1  0
 12 14  1  0
 14 15  1  0
 15 16  2  0
 16 17  1  0
 16 18  1  0
 18 19  2  0
 19 20  1  0
 19 21  1  0
 21 22  1  0
 21 23  2  0
 23 24  1  0
 14 25  1  0
 25 26  2  0
 26 27  1  0
  6 28  1  0
 28 29  1  0
 28 30  2  0
 30 31  1  0
 30  2  1  0
 26  7  1  0
 25  9  1  0
 23 15  1  0
M  END
>  <cnnaffinity>  (1) 
-5.81099

>  <filename>  (1) 
Fc1cncc(-n2ccn3nc(-c4cccnc4)cc23)c1

$$$$
