
     RDKit          3D

 29 31  0  0  0  0  0  0  0  0999 V2000
    4.9150    1.8036   16.9733 H   0  0  0  0  0  0  0  0  0  0  0  0
    5.3854    1.3013   17.8174 C   0  0  0  0  0  0  0  0  0  0  0  0
    6.5489    0.6835   17.5543 N   0  0  0  0  0  0  0  0  0  0  0  0
    7.1566    0.0626   18.5714 C   0  0  0  0  0  0  0  0  0  0  0  0
    8.1146   -0.3966   18.3256 H   0  0  0  0  0  0  0  0  0  0  0  0
    6.6462    0.0139   19.8880 C   0  0  0  0  0  0  0  0  0  0  0  0
    7.3518   -0.6455   20.9952 C   0  0  0  0  0  0  0  0  0  0  0  0
    7.4190   -0.3667   22.3522 C   0  0  0  0  0  0  0  0  0  0  0  0
    6.8192    0.7303   22.9158 O   0  0  0  0  0  0  0  0  0  0  0  0
    6.5711    0.8263   24.2714 C   0  0  0  0  0  0  0  0  0  0  0  0
    6.1924   -0.2686   25.0588 C   0  0  0  0  0  0  0  0  0  0  0  0
    6.1203   -1.2481   24.5966 H   0  0  0  0  0  0  0  0  0  0  0  0
    5.9141   -0.0893   26.4174 C   0  0  0  0  0  0  0  0  0  0  0  0
    5.6457   -0.9214   27.0582 H   0  0  0  0  0  0  0  0  0  0  0  0
    5.9919    1.1865   26.9632 C   0  0  0  0  0  0  0  0  0  0  0  0
    5.7267    1.3568   28.2695 F   0  0  0  0  0  0  0  0  0  0  0  0
    6.3324    2.2940   26.1888 C   0  0  0  0  0  0  0  0  0  0  0  0
    6.3602    3.2712   26.6617 H   0  0  0  0  0  0  0  0  0  0  0  0
    6.6184    2.1114   24.8310 C   0  0  0  0  0  0  0  0  0  0  0  0
    6.8680    2.9574   24.1959 H   0  0  0  0  0  0  0  0  0  0  0  0
    8.2589   -1.3585   22.9087 C   0  0  0  0  0  0  0  0  0  0  0  0
    8.5857   -1.4863   23.9341 H   0  0  0  0  0  0  0  0  0  0  0  0
    8.6754   -2.2037   21.9716 N   0  0  0  0  0  0  0  0  0  0  0  0
    8.1304   -1.7523   20.8403 N   0  0  0  0  0  0  0  0  0  0  0  0
    8.2625   -2.2716   19.9834 H   0  0  0  0  0  0  0  0  0  0  0  0
    5.4292    0.6642   20.1374 C   0  0  0  0  0  0  0  0  0  0  0  0
    5.0287    0.6511   21.1505 H   0  0  0  0  0  0  0  0  0  0  0  0
    4.7901    1.3156   19.0842 C   0  0  0  0  0  0  0  0  0  0  0  0
    3.8613    1.8512   19.2353 H   0  0  0  0  0  0  0  0  0  0  0  0
  1  2  1  0
  2  3  2  0
  3  4  1  0
  4  5  1  0
  4  6  2  0
  6  7  1  0
  7  8  2  0
  8  9  1  0
  9 10  1  0
 10 11  2  0
 11 12  1  0
 11 13  1  0
 13 14  1  0
 13 15  2  0
 15 16  1  0
 15 17  1  0
 17 18  1  0
 17 19  2  0
 19 20  1  0
  8 21  1  0
 21 22  1  0
 21 23  2  0
 23 24  1  0
 24 25  1  0
  6 26  1  0
 26 27  1  0
 26 28  2  0
 28 29  1  0
 28  2  1  0
 24  7  1  0
 19 10  1  0
M  END
>  <cnnaffinity>  (1) 
-5.15775

>  <filename>  (1) 
Fc1ccc(Oc2cn[nH]c2-c2cccnc2)cc1

$$$$
