
     RDKit          3D

 30 32  0  0  0  0  0  0  0  0999 V2000
    4.9108    1.7932   16.9847 H   0  0  0  0  0  0  0  0  0  0  0  0
    5.3901    1.3026   17.8256 C   0  0  0  0  0  0  0  0  0  0  0  0
    6.5564    0.6894   17.5573 N   0  0  0  0  0  0  0  0  0  0  0  0
    7.1606    0.0641   18.5727 C   0  0  0  0  0  0  0  0  0  0  0  0
    8.1184   -0.4056   18.3429 H   0  0  0  0  0  0  0  0  0  0  0  0
    6.6515    0.0133   19.8864 C   0  0  0  0  0  0  0  0  0  0  0  0
    7.3638   -0.6556   20.9745 C   0  0  0  0  0  0  0  0  0  0  0  0
    7.5059   -0.3238   22.3167 C   0  0  0  0  0  0  0  0  0  0  0  0
    7.0327    0.8325   22.9404 N   0  0  0  0  0  0  0  0  0  0  0  0
    6.9787    1.6570   22.3664 H   0  0  0  0  0  0  0  0  0  0  0  0
    6.8221    1.0296   24.2963 C   0  0  0  0  0  0  0  0  0  0  0  0
    6.3601   -0.0240   25.0874 C   0  0  0  0  0  0  0  0  0  0  0  0
    6.1672   -0.9885   24.6400 H   0  0  0  0  0  0  0  0  0  0  0  0
    6.1562    0.2000   26.4388 C   0  0  0  0  0  0  0  0  0  0  0  0
    5.7202   -0.8169   27.1900 F   0  0  0  0  0  0  0  0  0  0  0  0
    6.3781    1.4251   27.0505 C   0  0  0  0  0  0  0  0  0  0  0  0
    6.2056    1.5678   28.1105 H   0  0  0  0  0  0  0  0  0  0  0  0
    6.8230    2.4509   26.2232 C   0  0  0  0  0  0  0  0  0  0  0  0
    7.0370    3.6510   26.7783 F   0  0  0  0  0  0  0  0  0  0  0  0
    7.0417    2.2947   24.8575 C   0  0  0  0  0  0  0  0  0  0  0  0
    7.3975    3.1334   24.2730 H   0  0  0  0  0  0  0  0  0  0  0  0
    8.2832   -1.3765   22.8608 C   0  0  0  0  0  0  0  0  0  0  0  0
    8.6195   -1.4565   23.8830 H   0  0  0  0  0  0  0  0  0  0  0  0
    8.6022   -2.2860   21.9487 N   0  0  0  0  0  0  0  0  0  0  0  0
    8.0459   -1.8208   20.8212 N   0  0  0  0  0  0  0  0  0  0  0  0
    8.1324   -2.3570   19.9722 H   0  0  0  0  0  0  0  0  0  0  0  0
    5.4328    0.6618   20.1444 C   0  0  0  0  0  0  0  0  0  0  0  0
    5.0154    0.6259   21.1539 H   0  0  0  0  0  0  0  0  0  0  0  0
    4.7963    1.3182   19.0919 C   0  0  0  0  0  0  0  0  0  0  0  0
    3.8663    1.8478   19.2495 H   0  0  0  0  0  0  0  0  0  0  0  0
  1  2  1  0
  2  3  2  0
  3  4  1  0
  4  5  1  0
  4  6  2  0
  6  7  1  0
  7  8  2  0
  8  9  1  0
  9 10  1  0
  9 11  1  0
 11 12  2  0
 12 13  1  0
 12 14  1  0
 14 15  1  0
 14 16  2  0
 16 17  1  0
 16 18  1  0
 18 19  1  0
 18 20  2  0
 20 21  1  0
  8 22  1  0
 22 23  1  0
 22 24  2  0
 24 25  1  0
 25 26  1  0
  6 27  1  0
 27 28  1  0
 27 29  2  0
 29 30  1  0
 29  2  1  0
 25  7  1  0
 20 11  1  0
M  END
>  <cnnaffinity>  (1) 
-5.56993

>  <filename>  (1) 
Fc1cc(F)cc(Nc2cn[nH]c2-c2cccnc2)c1

$$$$
