
     RDKit          3D

 35 37  0  0  0  0  0  0  0  0999 V2000
    8.3379    1.1007   23.7327 H   0  0  0  0  0  0  0  0  0  0  0  0
    8.0400    0.9639   22.6886 C   0  0  0  0  0  0  0  0  0  0  0  0
    7.8662   -0.2937   22.2552 C   0  0  0  0  0  0  0  0  0  0  0  0
    7.3262   -0.8166   20.9767 C   0  0  0  0  0  0  0  0  0  0  0  0
    6.6251   -0.0246   19.9329 C   0  0  0  0  0  0  0  0  0  0  0  0
    7.1545   -0.0504   18.6403 C   0  0  0  0  0  0  0  0  0  0  0  0
    8.0503   -0.6316   18.4247 H   0  0  0  0  0  0  0  0  0  0  0  0
    6.6215    0.6095   17.6088 N   0  0  0  0  0  0  0  0  0  0  0  0
    5.4944    1.3043   17.8345 C   0  0  0  0  0  0  0  0  0  0  0  0
    5.0827    1.8305   16.9758 H   0  0  0  0  0  0  0  0  0  0  0  0
    4.8519    1.3484   19.0760 C   0  0  0  0  0  0  0  0  0  0  0  0
    3.9284    1.9063   19.1868 H   0  0  0  0  0  0  0  0  0  0  0  0
    5.4271    0.6676   20.1513 C   0  0  0  0  0  0  0  0  0  0  0  0
    4.9524    0.6612   21.1347 H   0  0  0  0  0  0  0  0  0  0  0  0
    7.4884   -2.0764   20.8079 N   0  0  0  0  0  0  0  0  0  0  0  0
    8.0929   -2.6620   22.0073 C   0  0  0  0  0  0  0  0  0  0  0  0
    9.0313   -3.1403   21.7119 H   0  0  0  0  0  0  0  0  0  0  0  0
    7.4285   -3.4438   22.3890 H   0  0  0  0  0  0  0  0  0  0  0  0
    8.3082   -1.5246   23.0334 C   0  0  0  0  0  0  0  0  0  0  0  0
    9.3541   -1.4358   23.3498 H   0  0  0  0  0  0  0  0  0  0  0  0
    7.6995   -1.6612   23.9349 H   0  0  0  0  0  0  0  0  0  0  0  0
    7.8944    2.2302   21.8700 C   0  0  0  0  0  0  0  0  0  0  0  0
    6.8268    2.4533   21.7540 H   0  0  0  0  0  0  0  0  0  0  0  0
    8.2484    2.0404   20.8457 H   0  0  0  0  0  0  0  0  0  0  0  0
    8.5914    3.4406   22.4991 C   0  0  0  0  0  0  0  0  0  0  0  0
    9.9915    3.5554   22.5128 C   0  0  0  0  0  0  0  0  0  0  0  0
   10.5853    2.7616   22.0668 H   0  0  0  0  0  0  0  0  0  0  0  0
   10.6323    4.6780   23.0540 C   0  0  0  0  0  0  0  0  0  0  0  0
   11.7120    4.7903   23.0521 H   0  0  0  0  0  0  0  0  0  0  0  0
    9.8507    5.7025   23.5865 C   0  0  0  0  0  0  0  0  0  0  0  0
   10.4536    6.8055   24.0592 F   0  0  0  0  0  0  0  0  0  0  0  0
    8.4634    5.6102   23.6470 C   0  0  0  0  0  0  0  0  0  0  0  0
    7.8983    6.4104   24.1185 H   0  0  0  0  0  0  0  0  0  0  0  0
    7.8531    4.4629   23.1204 C   0  0  0  0  0  0  0  0  0  0  0  0
    6.7750    4.3584   23.2029 H   0  0  0  0  0  0  0  0  0  0  0  0
  1  2  1  0
  2  3  2  3
  3  4  1  0
  4  5  1  0
  5  6  2  0
  6  7  1  0
  6  8  1  0
  8  9  2  0
  9 10  1  0
  9 11  1  0
 11 12  1  0
 11 13  2  0
 13 14  1  0
  4 15  2  0
 15 16  1  0
 16 17  1  0
 16 18  1  0
 16 19  1  0
 19 20  1  0
 19 21  1  0
  2 22  1  0
 22 23  1  0
 22 24  1  0
 22 25  1  0
 25 26  2  0
 26 27  1  0
 26 28  1  0
 28 29  1  0
 28 30  2  0
 30 31  1  0
 30 32  1  0
 32 33  1  0
 32 34  2  0
 34 35  1  0
 19  3  1  0
 34 25  1  0
 13  5  1  0
M  END
>  <cnnaffinity>  (1) 
-5.11254

>  <filename>  (1) 
Fc1ccc(CC=C2CCN=C2c2cccnc2)cc1

$$$$
