
     RDKit          3D

 28 30  0  0  0  0  0  0  0  0999 V2000
    4.9079    1.8257   16.9485 H   0  0  0  0  0  0  0  0  0  0  0  0
    5.3776    1.3173   17.7905 C   0  0  0  0  0  0  0  0  0  0  0  0
    6.5381    0.6961   17.5256 N   0  0  0  0  0  0  0  0  0  0  0  0
    7.1604    0.0854   18.5409 C   0  0  0  0  0  0  0  0  0  0  0  0
    8.0942   -0.4066   18.2771 H   0  0  0  0  0  0  0  0  0  0  0  0
    6.6808    0.0347   19.8631 C   0  0  0  0  0  0  0  0  0  0  0  0
    7.3789   -0.6893   20.9480 C   0  0  0  0  0  0  0  0  0  0  0  0
    6.8709   -1.2525   22.0912 C   0  0  0  0  0  0  0  0  0  0  0  0
    5.8580   -1.3330   22.3997 H   0  0  0  0  0  0  0  0  0  0  0  0
    7.9579   -1.8005   22.7901 C   0  0  0  0  0  0  0  0  0  0  0  0
    7.8970   -2.4963   24.0942 C   0  0  0  0  0  0  0  0  0  0  0  0
    8.9712   -2.4708   24.9962 C   0  0  0  0  0  0  0  0  0  0  0  0
   10.0827   -1.8109   24.6657 F   0  0  0  0  0  0  0  0  0  0  0  0
    8.9305   -3.1010   26.2365 C   0  0  0  0  0  0  0  0  0  0  0  0
    9.8185   -3.0397   26.8536 H   0  0  0  0  0  0  0  0  0  0  0  0
    7.7794   -3.7909   26.6232 C   0  0  0  0  0  0  0  0  0  0  0  0
    7.7523   -4.2960   27.5891 H   0  0  0  0  0  0  0  0  0  0  0  0
    6.6735   -3.8357   25.7637 C   0  0  0  0  0  0  0  0  0  0  0  0
    5.7462   -4.3423   26.0057 H   0  0  0  0  0  0  0  0  0  0  0  0
    6.7583   -3.1912   24.5342 C   0  0  0  0  0  0  0  0  0  0  0  0
    5.6753   -3.2475   23.7306 F   0  0  0  0  0  0  0  0  0  0  0  0
    9.0949   -1.6013   22.1245 N   0  0  0  0  0  0  0  0  0  0  0  0
    8.7195   -0.9565   21.0096 N   0  0  0  0  0  0  0  0  0  0  0  0
    9.4371   -0.6420   20.3744 H   0  0  0  0  0  0  0  0  0  0  0  0
    5.4515    0.6761   20.1095 C   0  0  0  0  0  0  0  0  0  0  0  0
    5.0320    0.6646   21.1190 H   0  0  0  0  0  0  0  0  0  0  0  0
    4.7950    1.3275   19.0640 C   0  0  0  0  0  0  0  0  0  0  0  0
    3.8582    1.8528   19.2191 H   0  0  0  0  0  0  0  0  0  0  0  0
  1  2  1  0
  2  3  2  0
  3  4  1  0
  4  5  1  0
  4  6  2  0
  6  7  1  0
  7  8  2  0
  8  9  1  0
  8 10  1  0
 10 11  1  0
 11 12  2  0
 12 13  1  0
 12 14  1  0
 14 15  1  0
 14 16  2  0
 16 17  1  0
 16 18  1  0
 18 19  1  0
 18 20  2  0
 20 21  1  0
 10 22  2  0
 22 23  1  0
 23 24  1  0
  6 25  1  0
 25 26  1  0
 25 27  2  0
 27 28  1  0
 27  2  1  0
 23  7  1  0
 20 11  1  0
M  END
>  <cnnaffinity>  (1) 
-5.17625

>  <filename>  (1) 
Fc1cccc(F)c1-c1cc(-c2cccnc2)[nH]n1

$$$$
