
     RDKit          3D

 18 19  0  0  0  0  0  0  0  0999 V2000
    4.9198    1.7780   16.9980 H   0  0  0  0  0  0  0  0  0  0  0  0
    5.4053    1.2890   17.8424 C   0  0  0  0  0  0  0  0  0  0  0  0
    6.5727    0.6718   17.5894 N   0  0  0  0  0  0  0  0  0  0  0  0
    7.1811    0.0501   18.6028 C   0  0  0  0  0  0  0  0  0  0  0  0
    8.1256   -0.4358   18.3766 H   0  0  0  0  0  0  0  0  0  0  0  0
    6.6596    0.0068   19.9084 C   0  0  0  0  0  0  0  0  0  0  0  0
    7.3642   -0.6763   20.9412 N   0  0  0  0  0  0  0  0  0  0  0  0
    8.1297   -1.7663   20.6814 N   0  0  0  0  0  0  0  0  0  0  0  0
    8.6208   -2.1259   21.8529 C   0  0  0  0  0  0  0  0  0  0  0  0
    9.2745   -2.9810   21.9247 H   0  0  0  0  0  0  0  0  0  0  0  0
    8.2117   -1.2864   22.9091 C   0  0  0  0  0  0  0  0  0  0  0  0
    8.4610   -1.3158   23.9561 H   0  0  0  0  0  0  0  0  0  0  0  0
    7.4225   -0.3754   22.2686 C   0  0  0  0  0  0  0  0  0  0  0  0
    6.7922    0.6865   22.7572 F   0  0  0  0  0  0  0  0  0  0  0  0
    5.4416    0.6497   20.1717 C   0  0  0  0  0  0  0  0  0  0  0  0
    5.0012    0.6336   21.1694 H   0  0  0  0  0  0  0  0  0  0  0  0
    4.8105    1.3024   19.1092 C   0  0  0  0  0  0  0  0  0  0  0  0
    3.8784    1.8398   19.2626 H   0  0  0  0  0  0  0  0  0  0  0  0
  1  2  1  0
  2  3  2  0
  3  4  1  0
  4  5  1  0
  4  6  2  0
  6  7  1  0
  7  8  1  0
  8  9  2  0
  9 10  1  0
  9 11  1  0
 11 12  1  0
 11 13  2  0
 13 14  1  0
  6 15  1  0
 15 16  1  0
 15 17  2  0
 17 18  1  0
 17  2  1  0
 13  7  1  0
M  END
>  <cnnaffinity>  (1) 
-3.93979

>  <filename>  (1) 
Fc1ccnn1-c1cccnc1

$$$$
