
     RDKit          3D

 29 31  0  0  0  0  0  0  0  0999 V2000
    4.9222    1.7786   17.0017 H   0  0  0  0  0  0  0  0  0  0  0  0
    5.4059    1.2888   17.8443 C   0  0  0  0  0  0  0  0  0  0  0  0
    6.5716    0.6779   17.5844 N   0  0  0  0  0  0  0  0  0  0  0  0
    7.1747    0.0499   18.5960 C   0  0  0  0  0  0  0  0  0  0  0  0
    8.1224   -0.4335   18.3719 H   0  0  0  0  0  0  0  0  0  0  0  0
    6.6585   -0.0068   19.8979 C   0  0  0  0  0  0  0  0  0  0  0  0
    7.3982   -0.7267   20.9629 C   0  0  0  0  0  0  0  0  0  0  0  0
    8.1092   -1.8160   20.6157 N   0  0  0  0  0  0  0  0  0  0  0  0
    8.7760   -2.5263   21.5339 N   0  0  0  0  0  0  0  0  0  0  0  0
    8.7624   -2.1326   22.8080 C   0  0  0  0  0  0  0  0  0  0  0  0
    9.3310   -2.7319   23.5057 H   0  0  0  0  0  0  0  0  0  0  0  0
    8.0676   -0.9850   23.2461 C   0  0  0  0  0  0  0  0  0  0  0  0
    8.0795   -0.5492   24.6654 C   0  0  0  0  0  0  0  0  0  0  0  0
    8.4076    0.7615   25.0413 C   0  0  0  0  0  0  0  0  0  0  0  0
    8.7435    1.6441   24.0836 F   0  0  0  0  0  0  0  0  0  0  0  0
    8.4227    1.1984   26.3576 C   0  0  0  0  0  0  0  0  0  0  0  0
    8.6856    2.2288   26.5647 H   0  0  0  0  0  0  0  0  0  0  0  0
    8.0918    0.2888   27.3630 C   0  0  0  0  0  0  0  0  0  0  0  0
    8.1015    0.6099   28.3947 H   0  0  0  0  0  0  0  0  0  0  0  0
    7.7541   -1.0287   27.0510 C   0  0  0  0  0  0  0  0  0  0  0  0
    7.4942   -1.7643   27.8001 H   0  0  0  0  0  0  0  0  0  0  0  0
    7.7551   -1.4141   25.7196 C   0  0  0  0  0  0  0  0  0  0  0  0
    7.4238   -2.6840   25.4276 F   0  0  0  0  0  0  0  0  0  0  0  0
    7.3681   -0.2682   22.2876 C   0  0  0  0  0  0  0  0  0  0  0  0
    6.8343    0.6419   22.5521 H   0  0  0  0  0  0  0  0  0  0  0  0
    5.4431    0.6476   20.1609 C   0  0  0  0  0  0  0  0  0  0  0  0
    4.9981    0.6294   21.1600 H   0  0  0  0  0  0  0  0  0  0  0  0
    4.8089    1.3030   19.1088 C   0  0  0  0  0  0  0  0  0  0  0  0
    3.8783    1.8396   19.2602 H   0  0  0  0  0  0  0  0  0  0  0  0
  1  2  1  0
  2  3  2  0
  3  4  1  0
  4  5  1  0
  4  6  2  0
  6  7  1  0
  7  8  2  0
  8  9  1  0
  9 10  2  0
 10 11  1  0
 10 12  1  0
 12 13  1  0
 13 14  2  0
 14 15  1  0
 14 16  1  0
 16 17  1  0
 16 18  2  0
 18 19  1  0
 18 20  1  0
 20 21  1  0
 20 22  2  0
 22 23  1  0
 12 24  2  0
 24 25  1  0
  6 26  1  0
 26 27  1  0
 26 28  2  0
 28 29  1  0
 28  2  1  0
 24  7  1  0
 22 13  1  0
M  END
>  <cnnaffinity>  (1) 
-5.37169

>  <filename>  (1) 
Fc1cccc(F)c1-c1cnnc(-c2cccnc2)c1

$$$$
