
     RDKit          3D

 27 29  0  0  0  0  0  0  0  0999 V2000
    4.9314    1.8051   16.9806 H   0  0  0  0  0  0  0  0  0  0  0  0
    5.4098    1.3041   17.8198 C   0  0  0  0  0  0  0  0  0  0  0  0
    6.5787    0.6971   17.5582 N   0  0  0  0  0  0  0  0  0  0  0  0
    7.2012    0.0827   18.5728 C   0  0  0  0  0  0  0  0  0  0  0  0
    8.1583   -0.3926   18.3606 H   0  0  0  0  0  0  0  0  0  0  0  0
    6.6743    0.0115   19.8757 C   0  0  0  0  0  0  0  0  0  0  0  0
    7.3978   -0.6496   20.9393 N   0  0  0  0  0  0  0  0  0  0  0  0
    7.3135   -1.9544   21.4306 C   0  0  0  0  0  0  0  0  0  0  0  0
    6.5444   -3.0848   20.8835 C   0  0  0  0  0  0  0  0  0  0  0  0
    5.8415   -3.0135   19.6682 C   0  0  0  0  0  0  0  0  0  0  0  0
    5.6269   -2.0678   19.1931 H   0  0  0  0  0  0  0  0  0  0  0  0
    5.3535   -4.0884   19.0355 N   0  0  0  0  0  0  0  0  0  0  0  0
    5.4996   -5.2843   19.6121 C   0  0  0  0  0  0  0  0  0  0  0  0
    5.0960   -6.1584   19.1069 H   0  0  0  0  0  0  0  0  0  0  0  0
    6.0857   -5.4307   20.8740 C   0  0  0  0  0  0  0  0  0  0  0  0
    6.1389   -6.6452   21.4327 F   0  0  0  0  0  0  0  0  0  0  0  0
    6.6080   -4.3347   21.5379 C   0  0  0  0  0  0  0  0  0  0  0  0
    7.0197   -4.4471   22.5454 H   0  0  0  0  0  0  0  0  0  0  0  0
    8.1003   -2.1102   22.4612 N   0  0  0  0  0  0  0  0  0  0  0  0
    8.6780   -0.8982   22.6332 N   0  0  0  0  0  0  0  0  0  0  0  0
    9.4190   -0.7206   23.2970 H   0  0  0  0  0  0  0  0  0  0  0  0
    8.3094    0.0335   21.7386 C   0  0  0  0  0  0  0  0  0  0  0  0
    8.8863    1.5877   21.6568 S   0  0  0  0  0  0  0  0  0  0  0  0
    5.4695    0.6631   20.1465 C   0  0  0  0  0  0  0  0  0  0  0  0
    5.0689    0.6623   21.1615 H   0  0  0  0  0  0  0  0  0  0  0  0
    4.8204    1.3139   19.0885 C   0  0  0  0  0  0  0  0  0  0  0  0
    3.8828    1.8369   19.2406 H   0  0  0  0  0  0  0  0  0  0  0  0
  1  2  1  0
  2  3  2  0
  3  4  1  0
  4  5  1  0
  4  6  2  0
  6  7  1  0
  7  8  1  0
  8  9  1  0
  9 10  2  0
 10 11  1  0
 10 12  1  0
 12 13  2  0
 13 14  1  0
 13 15  1  0
 15 16  1  0
 15 17  2  0
 17 18  1  0
  8 19  2  0
 19 20  1  0
 20 21  1  0
 20 22  1  0
 22 23  2  0
  6 24  1  0
 24 25  1  0
 24 26  2  0
 26 27  1  0
 26  2  1  0
 22  7  1  0
 17  9  1  0
M  END
>  <cnnaffinity>  (1) 
-5.39212

>  <filename>  (1) 
Fc1cncc(-c2n[nH]c(=S)n2-c2cccnc2)c1

$$$$
