
     RDKit          3D

 29 31  0  0  0  0  0  0  0  0999 V2000
    4.9167    1.7806   16.9991 H   0  0  0  0  0  0  0  0  0  0  0  0
    5.4047    1.2899   17.8421 C   0  0  0  0  0  0  0  0  0  0  0  0
    6.5644    0.6698   17.5850 N   0  0  0  0  0  0  0  0  0  0  0  0
    7.1866    0.0558   18.5994 C   0  0  0  0  0  0  0  0  0  0  0  0
    8.1274   -0.4372   18.3658 H   0  0  0  0  0  0  0  0  0  0  0  0
    6.6870    0.0161   19.9140 C   0  0  0  0  0  0  0  0  0  0  0  0
    7.2857   -0.6859   20.9384 O   0  0  0  0  0  0  0  0  0  0  0  0
    8.6503   -0.7592   21.0825 C   0  0  0  0  0  0  0  0  0  0  0  0
    9.6725    0.0831   20.6159 C   0  0  0  0  0  0  0  0  0  0  0  0
    9.5716    0.9503   19.9870 H   0  0  0  0  0  0  0  0  0  0  0  0
   10.8609   -0.3113   21.0571 N   0  0  0  0  0  0  0  0  0  0  0  0
   10.6028   -1.3850   21.8025 N   0  0  0  0  0  0  0  0  0  0  0  0
   11.3598   -1.8805   22.2469 H   0  0  0  0  0  0  0  0  0  0  0  0
    9.2823   -1.7056   21.8675 C   0  0  0  0  0  0  0  0  0  0  0  0
    8.7342   -2.8320   22.6177 C   0  0  0  0  0  0  0  0  0  0  0  0
    7.6337   -3.5314   22.0955 C   0  0  0  0  0  0  0  0  0  0  0  0
    7.2341   -3.2104   21.1409 H   0  0  0  0  0  0  0  0  0  0  0  0
    7.0580   -4.5981   22.7766 C   0  0  0  0  0  0  0  0  0  0  0  0
    6.2051   -5.1380   22.3827 H   0  0  0  0  0  0  0  0  0  0  0  0
    7.5994   -4.9527   24.0087 C   0  0  0  0  0  0  0  0  0  0  0  0
    7.0448   -5.9571   24.6899 F   0  0  0  0  0  0  0  0  0  0  0  0
    8.6871   -4.3024   24.5803 C   0  0  0  0  0  0  0  0  0  0  0  0
    9.0951   -4.5992   25.5413 H   0  0  0  0  0  0  0  0  0  0  0  0
    9.2306   -3.2449   23.8677 C   0  0  0  0  0  0  0  0  0  0  0  0
   10.2693   -2.5955   24.4203 F   0  0  0  0  0  0  0  0  0  0  0  0
    5.4608    0.6434   20.1724 C   0  0  0  0  0  0  0  0  0  0  0  0
    5.0308    0.6135   21.1747 H   0  0  0  0  0  0  0  0  0  0  0  0
    4.8213    1.3013   19.1147 C   0  0  0  0  0  0  0  0  0  0  0  0
    3.8873    1.8316   19.2664 H   0  0  0  0  0  0  0  0  0  0  0  0
  1  2  1  0
  2  3  2  0
  3  4  1  0
  4  5  1  0
  4  6  2  0
  6  7  1  0
  7  8  1  0
  8  9  1  0
  9 10  1  0
  9 11  2  0
 11 12  1  0
 12 13  1  0
 12 14  1  0
 14 15  1  0
 15 16  2  0
 16 17  1  0
 16 18  1  0
 18 19  1  0
 18 20  2  0
 20 21  1  0
 20 22  1  0
 22 23  1  0
 22 24  2  0
 24 25  1  0
  6 26  1  0
 26 27  1  0
 26 28  2  0
 28 29  1  0
 28  2  1  0
 14  8  2  0
 24 15  1  0
M  END
>  <cnnaffinity>  (1) 
-5.63724

>  <filename>  (1) 
Fc1ccc(-c2[nH]ncc2Oc2cccnc2)c(F)c1

$$$$
