
     RDKit          3D

 39 41  0  0  0  0  0  0  0  0999 V2000
    6.8424   -2.2986   26.4049 F   0  0  0  0  0  0  0  0  0  0  0  0
    7.6499   -3.3549   26.1561 C   0  0  0  0  0  0  0  0  0  0  0  0
    7.3436   -4.5789   26.7406 C   0  0  0  0  0  0  0  0  0  0  0  0
    8.1501   -5.6893   26.4471 C   0  0  0  0  0  0  0  0  0  0  0  0
    9.2369   -5.5520   25.5705 C   0  0  0  0  0  0  0  0  0  0  0  0
    9.5206   -4.3062   24.9970 C   0  0  0  0  0  0  0  0  0  0  0  0
    8.7467   -3.1770   25.3080 C   0  0  0  0  0  0  0  0  0  0  0  0
    9.0625   -1.8236   24.7286 C   0  0  0  0  0  0  0  0  0  0  0  0
    8.6475   -1.7888   23.2839 N   0  0  0  0  0  4  0  0  0  0  0  0
    7.0956   -1.8104   23.1076 C   0  0  0  0  0  0  0  0  0  0  0  0
    6.7117   -1.7548   21.6250 C   0  0  0  0  0  0  0  0  0  0  0  0
    7.3133   -0.5822   20.9857 N   0  0  0  0  0  0  0  0  0  0  0  0
    6.6592    0.0201   19.8910 C   0  0  0  0  0  0  0  0  0  0  0  0
    5.4260    0.6534   20.1150 C   0  0  0  0  0  0  0  0  0  0  0  0
    4.7838    1.3179   19.0671 C   0  0  0  0  0  0  0  0  0  0  0  0
    5.3800    1.3083   17.8024 C   0  0  0  0  0  0  0  0  0  0  0  0
    6.5435    0.6858   17.5506 N   0  0  0  0  0  0  0  0  0  0  0  0
    7.1646    0.0739   18.5704 C   0  0  0  0  0  0  0  0  0  0  0  0
    8.1168   -0.4034   18.3376 H   0  0  0  0  0  0  0  0  0  0  0  0
    4.9187    1.8227   16.9593 H   0  0  0  0  0  0  0  0  0  0  0  0
    3.8517    1.8539   19.2240 H   0  0  0  0  0  0  0  0  0  0  0  0
    5.0312    0.6228   21.1290 H   0  0  0  0  0  0  0  0  0  0  0  0
    8.7684   -0.5399   21.0793 C   0  0  0  0  0  0  0  0  0  0  0  0
    9.1945   -0.5716   22.5499 C   0  0  0  0  0  0  0  0  0  0  0  0
   10.2862   -0.5280   22.6302 H   0  0  0  0  0  0  0  0  0  0  0  0
    8.7826    0.3261   23.0304 H   0  0  0  0  0  0  0  0  0  0  0  0
    9.1112    0.4011   20.6342 H   0  0  0  0  0  0  0  0  0  0  0  0
    9.2525   -1.3772   20.5429 H   0  0  0  0  0  0  0  0  0  0  0  0
    5.6227   -1.6978   21.5296 H   0  0  0  0  0  0  0  0  0  0  0  0
    7.0334   -2.6864   21.1255 H   0  0  0  0  0  0  0  0  0  0  0  0
    6.6817   -0.9289   23.6124 H   0  0  0  0  0  0  0  0  0  0  0  0
    6.6910   -2.6984   23.5971 H   0  0  0  0  0  0  0  0  0  0  0  0
    9.0260   -2.6907   22.8965 H   0  0  0  0  0  0  0  0  0  0  0  0
   10.1385   -1.6214   24.7937 H   0  0  0  0  0  0  0  0  0  0  0  0
    8.5411   -1.0366   25.2796 H   0  0  0  0  0  0  0  0  0  0  0  0
   10.3533   -4.1852   24.3013 H   0  0  0  0  0  0  0  0  0  0  0  0
    9.8696   -6.4058   25.3398 H   0  0  0  0  0  0  0  0  0  0  0  0
    7.9332   -6.6540   26.9049 H   0  0  0  0  0  0  0  0  0  0  0  0
    6.4921   -4.6291   27.4100 H   0  0  0  0  0  0  0  0  0  0  0  0
  1  2  1  0
  2  3  2  0
  3  4  1  0
  4  5  2  0
  5  6  1  0
  6  7  2  0
  7  8  1  0
  8  9  1  0
  9 10  1  0
 10 11  1  0
 11 12  1  0
 12 13  1  0
 13 14  2  0
 14 15  1  0
 15 16  2  0
 16 17  1  0
 17 18  2  0
 18 19  1  0
 16 20  1  0
 15 21  1  0
 14 22  1  0
 12 23  1  0
 23 24  1  0
 24 25  1  0
 24 26  1  0
 23 27  1  0
 23 28  1  0
 11 29  1  0
 11 30  1  0
 10 31  1  0
 10 32  1  0
  9 33  1  0
  8 34  1  0
  8 35  1  0
  6 36  1  0
  5 37  1  0
  4 38  1  0
  3 39  1  0
  7  2  1  0
 24  9  1  0
 18 13  1  0
M  CHG  1   9   1
M  END
>  <cnnaffinity>  (1) 
-4.99648

>  <filename>  (1) 
Fc1ccccc1C[NH+]1CCN(c2cccnc2)CC1

$$$$
