
     RDKit          3D

 25 27  0  0  0  0  0  0  0  0999 V2000
    4.9225    1.7972   16.9904 H   0  0  0  0  0  0  0  0  0  0  0  0
    5.3948    1.2981   17.8340 C   0  0  0  0  0  0  0  0  0  0  0  0
    6.5600    0.6822   17.5714 N   0  0  0  0  0  0  0  0  0  0  0  0
    7.1679    0.0612   18.5840 C   0  0  0  0  0  0  0  0  0  0  0  0
    8.1211   -0.4112   18.3479 H   0  0  0  0  0  0  0  0  0  0  0  0
    6.6598    0.0012   19.9040 C   0  0  0  0  0  0  0  0  0  0  0  0
    7.3614   -0.7100   20.9965 C   0  0  0  0  0  0  0  0  0  0  0  0
    8.0615   -2.2501   20.8465 S   0  0  0  0  0  0  0  0  0  0  0  0
    8.4723   -2.3630   22.4681 N   0  0  0  0  0  0  0  0  0  0  0  0
    8.1238   -1.3175   23.1038 N   0  0  0  0  0  0  0  0  0  0  0  0
    7.5230   -0.3597   22.3336 C   0  0  0  0  0  0  0  0  0  0  0  0
    7.1820    0.9298   22.9295 C   0  0  0  0  0  0  0  0  0  0  0  0
    6.6235    0.9683   24.2202 C   0  0  0  0  0  0  0  0  0  0  0  0
    6.4583    0.0521   24.7776 H   0  0  0  0  0  0  0  0  0  0  0  0
    6.2558    2.1044   24.8155 N   0  0  0  0  0  0  0  0  0  0  0  0
    6.4544    3.2532   24.1558 C   0  0  0  0  0  0  0  0  0  0  0  0
    6.1691    4.1753   24.6545 H   0  0  0  0  0  0  0  0  0  0  0  0
    7.0155    3.2979   22.8745 C   0  0  0  0  0  0  0  0  0  0  0  0
    7.1746    4.4809   22.2668 F   0  0  0  0  0  0  0  0  0  0  0  0
    7.3954    2.1324   22.2304 C   0  0  0  0  0  0  0  0  0  0  0  0
    7.8028    2.1626   21.2190 H   0  0  0  0  0  0  0  0  0  0  0  0
    5.4336    0.6429   20.1474 C   0  0  0  0  0  0  0  0  0  0  0  0
    5.0193    0.6303   21.1576 H   0  0  0  0  0  0  0  0  0  0  0  0
    4.8027    1.3057   19.0981 C   0  0  0  0  0  0  0  0  0  0  0  0
    3.8745    1.8399   19.2481 H   0  0  0  0  0  0  0  0  0  0  0  0
  1  2  1  0
  2  3  2  0
  3  4  1  0
  4  5  1  0
  4  6  2  0
  6  7  1  0
  7  8  1  0
  8  9  1  0
  9 10  2  0
 10 11  1  0
 11 12  1  0
 12 13  2  0
 13 14  1  0
 13 15  1  0
 15 16  2  0
 16 17  1  0
 16 18  1  0
 18 19  1  0
 18 20  2  0
 20 21  1  0
  6 22  1  0
 22 23  1  0
 22 24  2  0
 24 25  1  0
 24  2  1  0
 11  7  2  0
 20 12  1  0
M  END
>  <cnnaffinity>  (1) 
-4.93273

>  <filename>  (1) 
Fc1cncc(-c2nnsc2-c2cccnc2)c1

$$$$
