
     RDKit          3D

 30 32  0  0  0  0  0  0  0  0999 V2000
    4.9094    1.7817   16.9966 H   0  0  0  0  0  0  0  0  0  0  0  0
    5.3974    1.2969   17.8382 C   0  0  0  0  0  0  0  0  0  0  0  0
    6.5628    0.6827   17.5741 N   0  0  0  0  0  0  0  0  0  0  0  0
    7.1737    0.0621   18.5908 C   0  0  0  0  0  0  0  0  0  0  0  0
    8.1211   -0.4305   18.3768 H   0  0  0  0  0  0  0  0  0  0  0  0
    6.6654   -0.0092   19.9133 C   0  0  0  0  0  0  0  0  0  0  0  0
    7.3254   -0.7145   20.9270 N   0  0  0  0  0  0  0  0  0  0  0  0
    6.7656   -1.0706   21.6966 H   0  0  0  0  0  0  0  0  0  0  0  0
    8.7128   -0.7719   21.1029 C   0  0  0  0  0  0  0  0  0  0  0  0
    9.6990    0.1395   20.6666 C   0  0  0  0  0  0  0  0  0  0  0  0
    9.5245    1.0193   20.0723 H   0  0  0  0  0  0  0  0  0  0  0  0
   10.9109   -0.1826   21.1034 N   0  0  0  0  0  0  0  0  0  0  0  0
   10.7077   -1.2998   21.8124 N   0  0  0  0  0  0  0  0  0  0  0  0
   11.4984   -1.7540   22.2421 H   0  0  0  0  0  0  0  0  0  0  0  0
    9.4123   -1.7139   21.8362 C   0  0  0  0  0  0  0  0  0  0  0  0
    8.9339   -2.9075   22.5369 C   0  0  0  0  0  0  0  0  0  0  0  0
    9.5063   -3.3036   23.7581 C   0  0  0  0  0  0  0  0  0  0  0  0
   10.3156   -2.7192   24.1914 H   0  0  0  0  0  0  0  0  0  0  0  0
    9.0222   -4.4282   24.4186 C   0  0  0  0  0  0  0  0  0  0  0  0
    9.4701   -4.7299   25.3610 H   0  0  0  0  0  0  0  0  0  0  0  0
    7.9705   -5.1756   23.8765 C   0  0  0  0  0  0  0  0  0  0  0  0
    7.5840   -6.0519   24.3790 H   0  0  0  0  0  0  0  0  0  0  0  0
    7.4191   -4.7683   22.6621 C   0  0  0  0  0  0  0  0  0  0  0  0
    6.4132   -5.4824   22.1318 F   0  0  0  0  0  0  0  0  0  0  0  0
    7.8754   -3.6480   21.9823 C   0  0  0  0  0  0  0  0  0  0  0  0
    7.4371   -3.3665   21.0284 H   0  0  0  0  0  0  0  0  0  0  0  0
    5.4447    0.6365   20.1621 C   0  0  0  0  0  0  0  0  0  0  0  0
    5.0175    0.6226   21.1678 H   0  0  0  0  0  0  0  0  0  0  0  0
    4.8113    1.3073   19.1116 C   0  0  0  0  0  0  0  0  0  0  0  0
    3.8773    1.8411   19.2652 H   0  0  0  0  0  0  0  0  0  0  0  0
  1  2  1  0
  2  3  2  0
  3  4  1  0
  4  5  1  0
  4  6  2  0
  6  7  1  0
  7  8  1  0
  7  9  1  0
  9 10  1  0
 10 11  1  0
 10 12  2  0
 12 13  1  0
 13 14  1  0
 13 15  1  0
 15 16  1  0
 16 17  2  0
 17 18  1  0
 17 19  1  0
 19 20  1  0
 19 21  2  0
 21 22  1  0
 21 23  1  0
 23 24  1  0
 23 25  2  0
 25 26  1  0
  6 27  1  0
 27 28  1  0
 27 29  2  0
 29 30  1  0
 29  2  1  0
 15  9  2  0
 25 16  1  0
M  END
>  <cnnaffinity>  (1) 
-5.60279

>  <filename>  (1) 
Fc1cccc(-c2[nH]ncc2Nc2cccnc2)c1

$$$$
