
     RDKit          3D

 29 32  0  0  0  0  0  0  0  0999 V2000
    4.9268    1.7931   16.9827 H   0  0  0  0  0  0  0  0  0  0  0  0
    5.3938    1.2915   17.8318 C   0  0  0  0  0  0  0  0  0  0  0  0
    6.5561    0.6686   17.5849 N   0  0  0  0  0  0  0  0  0  0  0  0
    7.1604    0.0592   18.6127 C   0  0  0  0  0  0  0  0  0  0  0  0
    8.1126   -0.4076   18.3607 H   0  0  0  0  0  0  0  0  0  0  0  0
    6.6551    0.0324   19.9314 C   0  0  0  0  0  0  0  0  0  0  0  0
    7.3931   -0.6573   21.0118 C   0  0  0  0  0  0  0  0  0  0  0  0
    8.1527   -1.7500   20.8792 C   0  0  0  0  0  0  0  0  0  0  0  0
    8.3651   -2.1527   19.9277 H   0  0  0  0  0  0  0  0  0  0  0  0
    8.8361   -2.3631   22.3453 S   0  0  0  0  0  0  0  0  0  0  0  0
    8.1270   -1.0311   23.1947 C   0  0  0  0  0  0  0  0  0  0  0  0
    8.1481   -0.5235   24.4066 N   0  0  0  0  0  0  0  0  0  0  0  0
    7.3815    0.5853   24.2244 C   0  0  0  0  0  0  0  0  0  0  0  0
    7.0916    1.5319   25.2767 C   0  0  0  0  0  0  0  0  0  0  0  0
    7.6177    1.2899   26.5509 C   0  0  0  0  0  0  0  0  0  0  0  0
    8.2323    0.4159   26.7563 H   0  0  0  0  0  0  0  0  0  0  0  0
    7.3897    2.1150   27.5762 N   0  0  0  0  0  0  0  0  0  0  0  0
    6.6375    3.1998   27.3609 C   0  0  0  0  0  0  0  0  0  0  0  0
    6.4612    3.8588   28.2036 H   0  0  0  0  0  0  0  0  0  0  0  0
    6.0840    3.5021   26.1090 C   0  0  0  0  0  0  0  0  0  0  0  0
    5.3408    4.6050   25.9624 F   0  0  0  0  0  0  0  0  0  0  0  0
    6.3007    2.6692   25.0275 C   0  0  0  0  0  0  0  0  0  0  0  0
    5.8773    2.8948   24.0443 H   0  0  0  0  0  0  0  0  0  0  0  0
    6.9013    0.7880   23.0049 N   0  0  0  0  0  0  0  0  0  0  0  0
    7.3907   -0.2785   22.3496 N   0  0  0  0  0  0  0  0  0  0  0  0
    5.4264    0.6701   20.1609 C   0  0  0  0  0  0  0  0  0  0  0  0
    5.0095    0.6660   21.1674 H   0  0  0  0  0  0  0  0  0  0  0  0
    4.7938    1.3110   19.0945 C   0  0  0  0  0  0  0  0  0  0  0  0
    3.8644    1.8475   19.2379 H   0  0  0  0  0  0  0  0  0  0  0  0
  1  2  1  0
  2  3  2  0
  3  4  1  0
  4  5  1  0
  4  6  2  0
  6  7  1  0
  7  8  2  0
  8  9  1  0
  8 10  1  0
 10 11  1  0
 11 12  2  0
 12 13  1  0
 13 14  1  0
 14 15  2  0
 15 16  1  0
 15 17  1  0
 17 18  2  0
 18 19  1  0
 18 20  1  0
 20 21  1  0
 20 22  2  0
 22 23  1  0
 13 24  2  0
 24 25  1  0
  6 26  1  0
 26 27  1  0
 26 28  2  0
 28 29  1  0
 28  2  1  0
 25  7  1  0
 25 11  1  0
 22 14  1  0
M  END
>  <cnnaffinity>  (1) 
-5.38743

>  <filename>  (1) 
Fc1cncc(-c2nc3scc(-c4cccnc4)n3n2)c1

$$$$
