
     RDKit          3D

 38 41  0  0  0  0  0  0  0  0999 V2000
    5.4415    1.7119   17.0146 H   0  0  0  0  0  0  0  0  0  0  0  0
    5.9953    1.3045   17.8579 C   0  0  0  0  0  0  0  0  0  0  0  0
    7.1870    0.7567   17.5766 N   0  0  0  0  0  0  0  0  0  0  0  0
    7.8854    0.2302   18.5882 C   0  0  0  0  0  0  0  0  0  0  0  0
    8.8655   -0.1739   18.3348 H   0  0  0  0  0  0  0  0  0  0  0  0
    7.4210    0.1743   19.9131 C   0  0  0  0  0  0  0  0  0  0  0  0
    8.1829   -0.5785   20.9222 C   0  0  0  0  0  0  0  0  0  0  0  0
    9.5195   -0.5648   20.9376 N   0  0  0  0  0  0  0  0  0  0  0  0
    9.8155   -1.3715   21.9568 N   0  0  0  0  0  0  0  0  0  0  0  0
    8.7589   -1.9287   22.5638 C   0  0  0  0  0  0  0  0  0  0  0  0
    7.6408   -1.4426   21.9294 C   0  0  0  0  0  0  0  0  0  0  0  0
    6.2206   -1.9295   22.0842 C   0  0  0  0  0  0  0  0  0  0  0  0
    5.5655   -1.1152   21.7663 H   0  0  0  0  0  0  0  0  0  0  0  0
    5.9891   -2.1564   23.1325 H   0  0  0  0  0  0  0  0  0  0  0  0
    5.8993   -3.1263   21.2102 C   0  0  0  0  0  0  0  0  0  0  0  0
    5.8248   -2.9112   19.8287 C   0  0  0  0  0  0  0  0  0  0  0  0
    5.9602   -1.9049   19.4306 H   0  0  0  0  0  0  0  0  0  0  0  0
    5.5926   -3.9747   18.9647 C   0  0  0  0  0  0  0  0  0  0  0  0
    5.4747   -3.7256   17.9139 H   0  0  0  0  0  0  0  0  0  0  0  0
    5.4778   -5.2835   19.4608 C   0  0  0  0  0  0  0  0  0  0  0  0
    5.3440   -6.1535   18.8235 H   0  0  0  0  0  0  0  0  0  0  0  0
    5.5002   -5.4746   20.8397 C   0  0  0  0  0  0  0  0  0  0  0  0
    5.2718   -6.7064   21.3314 F   0  0  0  0  0  0  0  0  0  0  0  0
    5.7096   -4.4156   21.7259 C   0  0  0  0  0  0  0  0  0  0  0  0
    5.7204   -4.6138   22.7950 H   0  0  0  0  0  0  0  0  0  0  0  0
    9.2167   -2.9134   23.5937 C   0  0  0  0  0  0  0  0  0  0  0  0
    9.0672   -3.9381   23.2394 H   0  0  0  0  0  0  0  0  0  0  0  0
    8.6744   -2.8119   24.5361 H   0  0  0  0  0  0  0  0  0  0  0  0
   10.7124   -2.5574   23.7368 C   0  0  0  0  0  0  0  0  0  0  0  0
   10.8177   -1.9100   24.6111 H   0  0  0  0  0  0  0  0  0  0  0  0
   11.3497   -3.4319   23.8763 H   0  0  0  0  0  0  0  0  0  0  0  0
   11.1095   -1.7678   22.4550 C   0  0  0  0  0  0  0  0  0  0  0  0
   11.6335   -2.3745   21.7100 H   0  0  0  0  0  0  0  0  0  0  0  0
   11.7127   -0.8791   22.6505 H   0  0  0  0  0  0  0  0  0  0  0  0
    6.2007    0.8134   20.1956 C   0  0  0  0  0  0  0  0  0  0  0  0
    5.8332    0.8966   21.2176 H   0  0  0  0  0  0  0  0  0  0  0  0
    5.4725    1.3728   19.1500 C   0  0  0  0  0  0  0  0  0  0  0  0
    4.5180    1.8543   19.3245 H   0  0  0  0  0  0  0  0  0  0  0  0
  1  2  1  0
  2  3  2  0
  3  4  1  0
  4  5  1  0
  4  6  2  0
  6  7  1  0
  7  8  2  0
  8  9  1  0
  9 10  1  0
 10 11  2  0
 11 12  1  0
 12 13  1  0
 12 14  1  0
 12 15  1  0
 15 16  2  0
 16 17  1  0
 16 18  1  0
 18 19  1  0
 18 20  2  0
 20 21  1  0
 20 22  1  0
 22 23  1  0
 22 24  2  0
 24 25  1  0
 10 26  1  0
 26 27  1  0
 26 28  1  0
 26 29  1  0
 29 30  1  0
 29 31  1  0
 29 32  1  0
 32 33  1  0
 32 34  1  0
  6 35  1  0
 35 36  1  0
 35 37  2  0
 37 38  1  0
 37  2  1  0
 11  7  1  0
 24 15  1  0
 32  9  1  0
M  END
>  <cnnaffinity>  (1) 
-5.80941

>  <filename>  (1) 
Fc1cccc(Cc2c(-c3cccnc3)nn3c2CCC3)c1

$$$$
