
     RDKit          3D

 26 28  0  0  0  0  0  0  0  0999 V2000
    4.9260    1.8133   16.9637 H   0  0  0  0  0  0  0  0  0  0  0  0
    5.3876    1.3202   17.8125 C   0  0  0  0  0  0  0  0  0  0  0  0
    6.5552    0.7050   17.5621 N   0  0  0  0  0  0  0  0  0  0  0  0
    7.1549    0.1132   18.6031 C   0  0  0  0  0  0  0  0  0  0  0  0
    8.1042   -0.3799   18.3902 H   0  0  0  0  0  0  0  0  0  0  0  0
    6.6476    0.0930   19.9252 C   0  0  0  0  0  0  0  0  0  0  0  0
    7.3446   -0.6310   21.0332 C   0  0  0  0  0  0  0  0  0  0  0  0
    7.6758   -2.0275   20.9789 C   0  0  0  0  0  0  0  0  0  0  0  0
    7.3783   -2.6717   20.1669 H   0  0  0  0  0  0  0  0  0  0  0  0
    8.2615   -2.5685   22.0067 N   0  0  0  0  0  0  0  0  0  0  0  0
    8.4369   -1.4105   23.1866 S   0  0  0  0  0  0  0  0  0  0  0  0
    7.6629   -0.1546   22.2890 C   0  0  0  0  0  0  0  0  0  0  0  0
    7.3665    1.1548   22.8875 C   0  0  0  0  0  0  0  0  0  0  0  0
    7.5055    2.3194   22.1120 C   0  0  0  0  0  0  0  0  0  0  0  0
    7.8186    2.2187   21.0769 H   0  0  0  0  0  0  0  0  0  0  0  0
    7.2623    3.5514   22.5730 N   0  0  0  0  0  0  0  0  0  0  0  0
    6.8516    3.6757   23.8415 C   0  0  0  0  0  0  0  0  0  0  0  0
    6.6638    4.6787   24.2098 H   0  0  0  0  0  0  0  0  0  0  0  0
    6.6719    2.5706   24.6827 C   0  0  0  0  0  0  0  0  0  0  0  0
    6.2415    2.7600   25.9374 F   0  0  0  0  0  0  0  0  0  0  0  0
    6.9273    1.2891   24.2220 C   0  0  0  0  0  0  0  0  0  0  0  0
    6.7619    0.4309   24.8682 H   0  0  0  0  0  0  0  0  0  0  0  0
    5.4123    0.7297   20.1445 C   0  0  0  0  0  0  0  0  0  0  0  0
    4.9788    0.7264   21.1481 H   0  0  0  0  0  0  0  0  0  0  0  0
    4.7734    1.3504   19.0684 C   0  0  0  0  0  0  0  0  0  0  0  0
    3.8197    1.8544   19.1897 H   0  0  0  0  0  0  0  0  0  0  0  0
  1  2  1  0
  2  3  2  0
  3  4  1  0
  4  5  1  0
  4  6  2  0
  6  7  1  0
  7  8  1  0
  8  9  1  0
  8 10  2  0
 10 11  1  0
 11 12  1  0
 12 13  1  0
 13 14  2  0
 14 15  1  0
 14 16  1  0
 16 17  2  0
 17 18  1  0
 17 19  1  0
 19 20  1  0
 19 21  2  0
 21 22  1  0
  6 23  1  0
 23 24  1  0
 23 25  2  0
 25 26  1  0
 25  2  1  0
 12  7  2  0
 21 13  1  0
M  END
>  <cnnaffinity>  (1) 
-5.06793

>  <filename>  (1) 
Fc1cncc(-c2sncc2-c2cccnc2)c1

$$$$
