
     RDKit          3D

 27 29  0  0  0  0  0  0  0  0999 V2000
    9.9084   -3.8971   26.6640 F   0  0  0  0  0  0  0  0  0  0  0  0
    8.8226   -3.4948   25.9937 C   0  0  0  0  0  0  0  0  0  0  0  0
    7.5549   -3.7325   26.5369 C   0  0  0  0  0  0  0  0  0  0  0  0
    6.4277   -3.3640   25.9115 N   0  0  0  0  0  0  0  0  0  0  0  0
    6.5540   -2.7453   24.7291 C   0  0  0  0  0  0  0  0  0  0  0  0
    7.7929   -2.4644   24.1055 C   0  0  0  0  0  0  0  0  0  0  0  0
    7.8717   -1.7854   22.8004 C   0  0  0  0  0  0  0  0  0  0  0  0
    6.8567   -1.1932   22.0872 C   0  0  0  0  0  0  0  0  0  0  0  0
    7.3738   -0.6862   20.9395 N   0  0  0  0  0  0  0  0  0  0  0  0
    6.6717    0.0055   19.9139 C   0  0  0  0  0  0  0  0  0  0  0  0
    5.4471    0.6457   20.1685 C   0  0  0  0  0  0  0  0  0  0  0  0
    4.8147    1.3050   19.1119 C   0  0  0  0  0  0  0  0  0  0  0  0
    5.4056    1.2883   17.8449 C   0  0  0  0  0  0  0  0  0  0  0  0
    6.5702    0.6664   17.5952 N   0  0  0  0  0  0  0  0  0  0  0  0
    7.1880    0.0544   18.6084 C   0  0  0  0  0  0  0  0  0  0  0  0
    8.1311   -0.4309   18.3769 H   0  0  0  0  0  0  0  0  0  0  0  0
    4.9203    1.7769   16.9998 H   0  0  0  0  0  0  0  0  0  0  0  0
    3.8805    1.8376   19.2653 H   0  0  0  0  0  0  0  0  0  0  0  0
    5.0044    0.6450   21.1665 H   0  0  0  0  0  0  0  0  0  0  0  0
    8.6968   -0.9388   20.8492 N   0  0  0  0  0  0  0  0  0  0  0  0
    8.9969   -1.5820   21.9608 C   0  0  0  0  0  0  0  0  0  0  0  0
   10.0105   -1.9119   22.1411 H   0  0  0  0  0  0  0  0  0  0  0  0
    5.8105   -1.0941   22.2938 H   0  0  0  0  0  0  0  0  0  0  0  0
    8.9651   -2.8574   24.7729 C   0  0  0  0  0  0  0  0  0  0  0  0
    9.9566   -2.6726   24.3665 H   0  0  0  0  0  0  0  0  0  0  0  0
    5.6274   -2.4630   24.2422 H   0  0  0  0  0  0  0  0  0  0  0  0
    7.4630   -4.2313   27.4941 H   0  0  0  0  0  0  0  0  0  0  0  0
  1  2  1  0
  2  3  2  0
  3  4  1  0
  4  5  2  0
  5  6  1  0
  6  7  1  0
  7  8  2  0
  8  9  1  0
  9 10  1  0
 10 11  2  0
 11 12  1  0
 12 13  2  0
 13 14  1  0
 14 15  2  0
 15 16  1  0
 13 17  1  0
 12 18  1  0
 11 19  1  0
  9 20  1  0
 20 21  2  0
 21 22  1  0
  8 23  1  0
  6 24  2  0
 24 25  1  0
  5 26  1  0
  3 27  1  0
 24  2  1  0
 21  7  1  0
 15 10  1  0
M  END
>  <cnnaffinity>  (1) 
-5.26509

>  <filename>  (1) 
Fc1cncc(-c2cnn(-c3cccnc3)c2)c1

$$$$
