
     RDKit          3D

 35 38  0  0  0  0  0  0  0  0999 V2000
    4.9113    1.8370   16.9582 H   0  0  0  0  0  0  0  0  0  0  0  0
    5.3942    1.3209   17.7863 C   0  0  0  0  0  0  0  0  0  0  0  0
    6.5498    0.7043   17.5057 N   0  0  0  0  0  0  0  0  0  0  0  0
    7.1723    0.0838   18.5173 C   0  0  0  0  0  0  0  0  0  0  0  0
    8.1104   -0.4051   18.2608 H   0  0  0  0  0  0  0  0  0  0  0  0
    6.6971    0.0302   19.8429 C   0  0  0  0  0  0  0  0  0  0  0  0
    7.4611   -0.6857   20.9423 C   0  0  1  0  0  0  0  0  0  0  0  0
    8.3951   -1.0725   20.5195 H   0  0  0  0  0  0  0  0  0  0  0  0
    7.8495    0.2479   22.1413 C   0  0  0  0  0  0  0  0  0  0  0  0
    8.9332    0.3810   22.1970 H   0  0  0  0  0  0  0  0  0  0  0  0
    7.4204    1.2505   22.0638 H   0  0  0  0  0  0  0  0  0  0  0  0
    7.3160   -0.4726   23.3391 C   0  0  0  0  0  0  0  0  0  0  0  0
    7.2820   -0.2129   24.6321 N   0  0  0  0  0  0  0  0  0  0  0  0
    6.6590   -1.2989   25.1522 N   0  0  0  0  0  0  0  0  0  0  0  0
    6.5323   -1.3351   26.1554 H   0  0  0  0  0  0  0  0  0  0  0  0
    6.2777   -2.2197   24.2126 C   0  0  0  0  0  0  0  0  0  0  0  0
    5.6346   -3.5278   24.4801 C   0  0  0  0  0  0  0  0  0  0  0  0
    4.7177   -4.0294   23.5391 C   0  0  0  0  0  0  0  0  0  0  0  0
    4.3891   -3.4312   22.6993 H   0  0  0  0  0  0  0  0  0  0  0  0
    4.2203   -5.3197   23.6932 C   0  0  0  0  0  0  0  0  0  0  0  0
    3.3703   -5.7989   22.7746 F   0  0  0  0  0  0  0  0  0  0  0  0
    4.5840   -6.1440   24.7510 C   0  0  0  0  0  0  0  0  0  0  0  0
    4.2061   -7.1570   24.8403 H   0  0  0  0  0  0  0  0  0  0  0  0
    5.4846   -5.6185   25.6714 C   0  0  0  0  0  0  0  0  0  0  0  0
    5.8771   -6.4033   26.6841 F   0  0  0  0  0  0  0  0  0  0  0  0
    6.0089   -4.3318   25.5756 C   0  0  0  0  0  0  0  0  0  0  0  0
    6.7249   -4.0021   26.3180 H   0  0  0  0  0  0  0  0  0  0  0  0
    6.7123   -1.6806   23.0159 C   0  0  0  0  0  0  0  0  0  0  0  0
    6.6769   -1.9063   21.5374 C   0  0  0  0  0  0  0  0  0  0  0  0
    5.6406   -1.9347   21.1779 H   0  0  0  0  0  0  0  0  0  0  0  0
    7.1315   -2.8562   21.2354 H   0  0  0  0  0  0  0  0  0  0  0  0
    5.4734    0.6677   20.1014 C   0  0  0  0  0  0  0  0  0  0  0  0
    5.0419    0.6677   21.1041 H   0  0  0  0  0  0  0  0  0  0  0  0
    4.8138    1.3219   19.0579 C   0  0  0  0  0  0  0  0  0  0  0  0
    3.8751    1.8388   19.2155 H   0  0  0  0  0  0  0  0  0  0  0  0
  1  2  1  0
  2  3  2  0
  3  4  1  0
  4  5  1  0
  4  6  2  0
  6  7  1  0
  7  8  1  6
  7  9  1  0
  9 10  1  0
  9 11  1  0
  9 12  1  0
 12 13  2  0
 13 14  1  0
 14 15  1  0
 14 16  1  0
 16 17  1  0
 17 18  2  0
 18 19  1  0
 18 20  1  0
 20 21  1  0
 20 22  2  0
 22 23  1  0
 22 24  1  0
 24 25  1  0
 24 26  2  0
 26 27  1  0
 16 28  2  0
 28 29  1  0
 29 30  1  0
 29 31  1  0
  6 32  1  0
 32 33  1  0
 32 34  2  0
 34 35  1  0
 34  2  1  0
 29  7  1  0
 28 12  1  0
 26 17  1  0
M  END
>  <cnnaffinity>  (1) 
-5.56095

>  <filename>  (1) 
Fc1cc(F)cc(-c2[nH]nc3c2C[C@@H](c2cccnc2)C3)c1

$$$$
