
     RDKit          3D

 35 38  0  0  0  0  0  0  0  0999 V2000
    4.9938    1.8451   16.9167 H   0  0  0  0  0  0  0  0  0  0  0  0
    5.3893    1.3081   17.7828 C   0  0  0  0  0  0  0  0  0  0  0  0
    6.5416    0.6484   17.5931 N   0  0  0  0  0  0  0  0  0  0  0  0
    7.0676    0.0269   18.6578 C   0  0  0  0  0  0  0  0  0  0  0  0
    8.0087   -0.4906   18.4710 H   0  0  0  0  0  0  0  0  0  0  0  0
    6.4866   -0.0087   19.9464 C   0  0  0  0  0  0  0  0  0  0  0  0
    7.2389   -0.6212   21.0656 C   0  0  0  0  0  0  0  0  0  0  0  0
    8.5920   -0.5555   21.3021 C   0  0  0  0  0  0  0  0  0  0  0  0
    8.8075   -1.1591   22.5363 C   0  0  0  0  0  0  0  0  0  0  0  0
    7.6975   -1.6252   23.0719 N   0  0  0  0  0  0  0  0  0  0  0  0
    6.7463   -1.2770   22.1651 N   0  0  0  0  0  0  0  0  0  0  0  0
    5.7867   -1.5213   22.3755 H   0  0  0  0  0  0  0  0  0  0  0  0
   10.2434   -1.1168   22.9611 C   0  0  0  0  0  0  0  0  0  0  0  0
   10.6608   -2.1238   23.0381 H   0  0  0  0  0  0  0  0  0  0  0  0
   10.3821   -0.6467   23.9405 H   0  0  0  0  0  0  0  0  0  0  0  0
   10.9332   -0.2830   21.8221 C   0  0  2  0  0  0  0  0  0  0  0  0
   11.7464   -0.8861   21.4104 H   0  0  0  0  0  0  0  0  0  0  0  0
   11.5093    1.0259   22.3274 C   0  0  0  0  0  0  0  0  0  0  0  0
   12.8841    1.2974   22.3017 C   0  0  0  0  0  0  0  0  0  0  0  0
   13.5774    0.5499   21.9276 H   0  0  0  0  0  0  0  0  0  0  0  0
   13.3882    2.5234   22.7507 C   0  0  0  0  0  0  0  0  0  0  0  0
   14.4437    2.7643   22.6894 H   0  0  0  0  0  0  0  0  0  0  0  0
   12.5176    3.4762   23.2594 C   0  0  0  0  0  0  0  0  0  0  0  0
   12.9877    4.6513   23.7017 F   0  0  0  0  0  0  0  0  0  0  0  0
   11.1458    3.2070   23.3214 C   0  0  0  0  0  0  0  0  0  0  0  0
   10.3153    4.1199   23.8404 F   0  0  0  0  0  0  0  0  0  0  0  0
   10.6422    1.9988   22.8537 C   0  0  0  0  0  0  0  0  0  0  0  0
    9.5718    1.8252   22.9033 H   0  0  0  0  0  0  0  0  0  0  0  0
    9.8608   -0.0648   20.7009 C   0  0  0  0  0  0  0  0  0  0  0  0
   10.1188   -0.6449   19.8152 H   0  0  0  0  0  0  0  0  0  0  0  0
    9.7932    0.9782   20.3720 H   0  0  0  0  0  0  0  0  0  0  0  0
    5.2611    0.6655   20.1070 C   0  0  0  0  0  0  0  0  0  0  0  0
    4.7653    0.7089   21.0816 H   0  0  0  0  0  0  0  0  0  0  0  0
    4.7166    1.3367   19.0098 C   0  0  0  0  0  0  0  0  0  0  0  0
    3.8025    1.9098   19.0951 H   0  0  0  0  0  0  0  0  0  0  0  0
  1  2  1  0
  2  3  2  0
  3  4  1  0
  4  5  1  0
  4  6  2  0
  6  7  1  0
  7  8  2  0
  8  9  1  0
  9 10  2  0
 10 11  1  0
 11 12  1  0
  9 13  1  0
 13 14  1  0
 13 15  1  0
 13 16  1  0
 16 17  1  6
 16 18  1  0
 18 19  2  0
 19 20  1  0
 19 21  1  0
 21 22  1  0
 21 23  2  0
 23 24  1  0
 23 25  1  0
 25 26  1  0
 25 27  2  0
 27 28  1  0
 16 29  1  0
 29 30  1  0
 29 31  1  0
  6 32  1  0
 32 33  1  0
 32 34  2  0
 34 35  1  0
 34  2  1  0
 11  7  1  0
 27 18  1  0
 29  8  1  0
M  END
>  <cnnaffinity>  (1) 
-5.83626

>  <filename>  (1) 
Fc1ccc([C@H]2Cc3n[nH]c(-c4cccnc4)c3C2)cc1F

$$$$
