
     RDKit          3D

 32 35  0  0  0  0  0  0  0  0999 V2000
    4.9531    1.8384   16.9542 H   0  0  0  0  0  0  0  0  0  0  0  0
    5.3996    1.2896   17.7795 C   0  0  0  0  0  0  0  0  0  0  0  0
    6.5522    0.6521   17.5169 N   0  0  0  0  0  0  0  0  0  0  0  0
    7.1523    0.0140   18.5243 C   0  0  0  0  0  0  0  0  0  0  0  0
    8.1048   -0.4591   18.2937 H   0  0  0  0  0  0  0  0  0  0  0  0
    6.6436   -0.0293   19.8334 C   0  0  0  0  0  0  0  0  0  0  0  0
    7.3859   -0.6272   20.8704 N   0  0  0  0  0  0  0  0  0  0  0  0
    8.3162   -1.6630   20.7814 C   0  0  0  0  0  0  0  0  0  0  0  0
    8.6839   -1.9433   19.8167 H   0  0  0  0  0  0  0  0  0  0  0  0
    8.8130   -1.9338   22.0104 C   0  0  0  0  0  0  0  0  0  0  0  0
    9.4863   -2.6729   22.4077 H   0  0  0  0  0  0  0  0  0  0  0  0
    8.2730   -0.9759   22.8565 N   0  0  0  0  0  0  0  0  0  0  0  0
    8.6513   -0.4814   24.0617 N   0  0  0  0  0  0  0  0  0  0  0  0
    8.0329    0.7009   24.0828 C   0  0  0  0  0  0  0  0  0  0  0  0
    8.2191    1.6929   25.1581 C   0  0  0  0  0  0  0  0  0  0  0  0
    8.2485    1.3555   26.5186 C   0  0  0  0  0  0  0  0  0  0  0  0
    8.4202    0.0762   26.8576 F   0  0  0  0  0  0  0  0  0  0  0  0
    8.1185    2.3007   27.5311 C   0  0  0  0  0  0  0  0  0  0  0  0
    8.1780    1.9640   28.5582 H   0  0  0  0  0  0  0  0  0  0  0  0
    8.0176    3.6508   27.1869 C   0  0  0  0  0  0  0  0  0  0  0  0
    7.8870    4.4117   27.9491 H   0  0  0  0  0  0  0  0  0  0  0  0
    8.1321    4.0429   25.8560 C   0  0  0  0  0  0  0  0  0  0  0  0
    8.1093    5.0845   25.5685 H   0  0  0  0  0  0  0  0  0  0  0  0
    8.2693    3.0686   24.8783 C   0  0  0  0  0  0  0  0  0  0  0  0
    8.4222    3.4882   23.6096 F   0  0  0  0  0  0  0  0  0  0  0  0
    7.2292    0.9516   22.9520 C   0  0  0  0  0  0  0  0  0  0  0  0
    6.6719    1.8552   22.7962 H   0  0  0  0  0  0  0  0  0  0  0  0
    7.4374   -0.1658   22.1706 C   0  0  0  0  0  0  0  0  0  0  0  0
    5.4130    0.5989   20.0905 C   0  0  0  0  0  0  0  0  0  0  0  0
    4.9844    0.5719   21.0943 H   0  0  0  0  0  0  0  0  0  0  0  0
    4.7915    1.2763   19.0402 C   0  0  0  0  0  0  0  0  0  0  0  0
    3.8666    1.8203   19.1966 H   0  0  0  0  0  0  0  0  0  0  0  0
  1  2  1  0
  2  3  2  0
  3  4  1  0
  4  5  1  0
  4  6  2  0
  6  7  1  0
  7  8  1  0
  8  9  1  0
  8 10  2  0
 10 11  1  0
 10 12  1  0
 12 13  1  0
 13 14  2  0
 14 15  1  0
 15 16  2  0
 16 17  1  0
 16 18  1  0
 18 19  1  0
 18 20  2  0
 20 21  1  0
 20 22  1  0
 22 23  1  0
 22 24  2  0
 24 25  1  0
 14 26  1  0
 26 27  1  0
 26 28  2  0
  6 29  1  0
 29 30  1  0
 29 31  2  0
 31 32  1  0
 31  2  1  0
 28  7  1  0
 28 12  1  0
 24 15  1  0
M  END
>  <cnnaffinity>  (1) 
-5.28236

>  <filename>  (1) 
Fc1cccc(F)c1-c1cc2n(-c3cccnc3)ccn2n1

$$$$
