
     RDKit          3D

 38 40  0  0  0  0  0  0  0  0999 V2000
    4.9005    1.8604   16.9714 H   0  0  0  0  0  0  0  0  0  0  0  0
    5.3836    1.3278   17.7876 C   0  0  0  0  0  0  0  0  0  0  0  0
    6.5444    0.7183   17.4977 N   0  0  0  0  0  0  0  0  0  0  0  0
    7.1752    0.0747   18.4924 C   0  0  0  0  0  0  0  0  0  0  0  0
    8.1254   -0.3970   18.2334 H   0  0  0  0  0  0  0  0  0  0  0  0
    6.6878   -0.0336   19.8230 C   0  0  0  0  0  0  0  0  0  0  0  0
    7.4094   -0.7393   20.8173 N   0  0  0  0  0  0  0  0  0  0  0  0
    6.6771   -1.7022   21.6324 C   0  0  0  0  0  0  0  0  0  0  0  0
    6.0591   -2.3261   20.9700 H   0  0  0  0  0  0  0  0  0  0  0  0
    5.9846   -1.1841   22.3096 H   0  0  0  0  0  0  0  0  0  0  0  0
    7.5480   -2.6521   22.4788 C   0  0  0  0  0  0  0  0  0  0  0  0
    6.9418   -3.5292   22.7402 H   0  0  0  0  0  0  0  0  0  0  0  0
    8.3673   -3.0379   21.8504 H   0  0  0  0  0  0  0  0  0  0  0  0
    8.0766   -2.0673   23.7044 N   0  0  0  0  0  0  0  0  0  0  0  0
    7.5167   -2.4116   24.9477 C   0  0  0  0  0  0  0  0  0  0  0  0
    8.3121   -2.8293   26.0262 C   0  0  0  0  0  0  0  0  0  0  0  0
    9.3901   -2.7685   25.9090 H   0  0  0  0  0  0  0  0  0  0  0  0
    7.7227   -3.3443   27.1850 C   0  0  0  0  0  0  0  0  0  0  0  0
    8.3104   -3.7519   27.9976 H   0  0  0  0  0  0  0  0  0  0  0  0
    6.3319   -3.3639   27.2920 C   0  0  0  0  0  0  0  0  0  0  0  0
    5.7755   -3.9117   28.3873 F   0  0  0  0  0  0  0  0  0  0  0  0
    5.5159   -2.8426   26.2918 C   0  0  0  0  0  0  0  0  0  0  0  0
    4.4381   -2.8113   26.4317 H   0  0  0  0  0  0  0  0  0  0  0  0
    6.1186   -2.4011   25.1104 C   0  0  0  0  0  0  0  0  0  0  0  0
    5.5187   -2.0570   24.2793 H   0  0  0  0  0  0  0  0  0  0  0  0
    9.2234   -1.1934   23.5866 C   0  0  0  0  0  0  0  0  0  0  0  0
    9.4850   -0.8197   24.5835 H   0  0  0  0  0  0  0  0  0  0  0  0
   10.1131   -1.7499   23.2358 H   0  0  0  0  0  0  0  0  0  0  0  0
    8.9965    0.0060   22.6603 C   0  0  0  0  0  0  0  0  0  0  0  0
    9.8937    0.6335   22.7285 H   0  0  0  0  0  0  0  0  0  0  0  0
    8.1537    0.6000   23.0330 H   0  0  0  0  0  0  0  0  0  0  0  0
    8.7719   -0.3414   21.1802 C   0  0  0  0  0  0  0  0  0  0  0  0
    9.0350    0.5313   20.5723 H   0  0  0  0  0  0  0  0  0  0  0  0
    9.4883   -1.1260   20.8822 H   0  0  0  0  0  0  0  0  0  0  0  0
    5.4551    0.6043   20.0852 C   0  0  0  0  0  0  0  0  0  0  0  0
    5.0442    0.5858   21.0929 H   0  0  0  0  0  0  0  0  0  0  0  0
    4.8020    1.3002   19.0584 C   0  0  0  0  0  0  0  0  0  0  0  0
    3.8679    1.8273   19.2345 H   0  0  0  0  0  0  0  0  0  0  0  0
  1  2  1  0
  2  3  2  0
  3  4  1  0
  4  5  1  0
  4  6  2  0
  6  7  1  0
  7  8  1  0
  8  9  1  0
  8 10  1  0
  8 11  1  0
 11 12  1  0
 11 13  1  0
 11 14  1  0
 14 15  1  0
 15 16  2  0
 16 17  1  0
 16 18  1  0
 18 19  1  0
 18 20  2  0
 20 21  1  0
 20 22  1  0
 22 23  1  0
 22 24  2  0
 24 25  1  0
 14 26  1  0
 26 27  1  0
 26 28  1  0
 26 29  1  0
 29 30  1  0
 29 31  1  0
 29 32  1  0
 32 33  1  0
 32 34  1  0
  6 35  1  0
 35 36  1  0
 35 37  2  0
 37 38  1  0
 37  2  1  0
 32  7  1  0
 24 15  1  0
M  END
>  <cnnaffinity>  (1) 
-4.98086

>  <filename>  (1) 
Fc1ccc(N2CCCN(c3cccnc3)CC2)cc1

$$$$
