
     RDKit          3D

 36 38  0  0  0  0  0  0  0  0999 V2000
    4.9331    1.8325   16.9157 H   0  0  0  0  0  0  0  0  0  0  0  0
    5.3968    1.3323   17.7664 C   0  0  0  0  0  0  0  0  0  0  0  0
    6.5567    0.7032   17.5316 N   0  0  0  0  0  0  0  0  0  0  0  0
    7.1468    0.0927   18.5715 C   0  0  0  0  0  0  0  0  0  0  0  0
    8.0878   -0.3991   18.3271 H   0  0  0  0  0  0  0  0  0  0  0  0
    6.6363    0.0478   19.8910 C   0  0  0  0  0  0  0  0  0  0  0  0
    7.3129   -0.7790   21.0082 C   0  0  2  0  0  0  0  0  0  0  0  0
    6.6501   -2.1980   20.9818 C   0  0  0  0  0  0  0  0  0  0  0  0
    6.7619   -2.5886   19.9668 H   0  0  0  0  0  0  0  0  0  0  0  0
    5.5734   -2.0308   21.1007 H   0  0  0  0  0  0  0  0  0  0  0  0
    7.0975   -3.2397   21.9822 C   0  0  0  0  0  0  0  0  0  0  0  0
    8.0913   -4.1673   21.6399 C   0  0  0  0  0  0  0  0  0  0  0  0
    8.6037   -4.0850   20.6846 H   0  0  0  0  0  0  0  0  0  0  0  0
    8.4507   -5.2082   22.5015 C   0  0  0  0  0  0  0  0  0  0  0  0
    9.1271   -5.9997   22.2052 H   0  0  0  0  0  0  0  0  0  0  0  0
    7.8887   -5.2612   23.7701 C   0  0  0  0  0  0  0  0  0  0  0  0
    8.2909   -6.2064   24.6321 F   0  0  0  0  0  0  0  0  0  0  0  0
    6.9275   -4.3141   24.1473 C   0  0  0  0  0  0  0  0  0  0  0  0
    6.4451   -4.3356   25.3966 F   0  0  0  0  0  0  0  0  0  0  0  0
    6.4936   -3.3406   23.2488 C   0  0  0  0  0  0  0  0  0  0  0  0
    5.7007   -2.6595   23.5759 H   0  0  0  0  0  0  0  0  0  0  0  0
    7.1853   -0.1489   22.4328 C   0  0  0  0  0  0  0  0  0  0  0  0
    6.2640   -0.4632   22.9397 H   0  0  0  0  0  0  0  0  0  0  0  0
    7.1554    0.9505   22.3571 H   0  0  0  0  0  0  0  0  0  0  0  0
    8.3545   -0.5566   23.2158 N   0  0  0  0  0  0  0  0  0  0  0  0
    8.1307   -1.3458   23.8113 H   0  0  0  0  0  0  0  0  0  0  0  0
    9.4382   -0.9108   22.2954 C   0  0  0  0  0  0  0  0  0  0  0  0
   10.2908   -0.2275   22.4243 H   0  0  0  0  0  0  0  0  0  0  0  0
    9.8109   -1.9245   22.5029 H   0  0  0  0  0  0  0  0  0  0  0  0
    8.8616   -0.7911   20.8698 C   0  0  0  0  0  0  0  0  0  0  0  0
    9.2260   -1.5865   20.2096 H   0  0  0  0  0  0  0  0  0  0  0  0
    9.1891    0.1689   20.4427 H   0  0  0  0  0  0  0  0  0  0  0  0
    5.4122    0.7102   20.0962 C   0  0  0  0  0  0  0  0  0  0  0  0
    4.9457    0.7209   21.0836 H   0  0  0  0  0  0  0  0  0  0  0  0
    4.7877    1.3562   19.0242 C   0  0  0  0  0  0  0  0  0  0  0  0
    3.8468    1.8804   19.1506 H   0  0  0  0  0  0  0  0  0  0  0  0
  1  2  1  0
  2  3  2  0
  3  4  1  0
  4  5  1  0
  4  6  2  0
  6  7  1  0
  7  8  1  1
  8  9  1  0
  8 10  1  0
  8 11  1  0
 11 12  2  0
 12 13  1  0
 12 14  1  0
 14 15  1  0
 14 16  2  0
 16 17  1  0
 16 18  1  0
 18 19  1  0
 18 20  2  0
 20 21  1  0
  7 22  1  0
 22 23  1  0
 22 24  1  0
 22 25  1  0
 25 26  1  0
 25 27  1  0
 27 28  1  0
 27 29  1  0
 27 30  1  0
 30 31  1  0
 30 32  1  0
  6 33  1  0
 33 34  1  0
 33 35  2  0
 35 36  1  0
 35  2  1  0
 30  7  1  0
 20 11  1  0
M  END
>  <cnnaffinity>  (1) 
-4.8104

>  <filename>  (1) 
Fc1ccc(C[C@]2(c3cccnc3)CCNC2)cc1F

$$$$
