
     RDKit          3D

 33 35  0  0  0  0  0  0  0  0999 V2000
    5.6462   -1.7056   21.7631 H   0  0  0  0  0  0  0  0  0  0  0  0
    6.7054   -1.5421   21.8349 C   0  0  0  0  0  0  0  0  0  0  0  0
    7.3640   -0.7176   20.9980 C   0  0  0  0  0  0  0  0  0  0  0  0
    6.7010    0.0379   19.9212 C   0  0  0  0  0  0  0  0  0  0  0  0
    7.2045    0.0758   18.6096 C   0  0  0  0  0  0  0  0  0  0  0  0
    8.1348   -0.4298   18.3480 H   0  0  0  0  0  0  0  0  0  0  0  0
    6.5781    0.6684   17.5861 N   0  0  0  0  0  0  0  0  0  0  0  0
    5.4139    1.2856   17.8424 C   0  0  0  0  0  0  0  0  0  0  0  0
    4.9349    1.7790   16.9979 H   0  0  0  0  0  0  0  0  0  0  0  0
    4.8224    1.3110   19.1086 C   0  0  0  0  0  0  0  0  0  0  0  0
    3.8832    1.8315   19.2540 H   0  0  0  0  0  0  0  0  0  0  0  0
    5.4645    0.6637   20.1602 C   0  0  0  0  0  0  0  0  0  0  0  0
    5.0295    0.6307   21.1618 H   0  0  0  0  0  0  0  0  0  0  0  0
    8.7451   -0.5947   21.1382 N   0  0  0  0  0  0  0  0  0  0  0  0
    9.3091    0.0325   20.5894 H   0  0  0  0  0  0  0  0  0  0  0  0
    9.4335   -1.0524   22.2156 C   0  0  0  0  0  0  0  0  0  0  0  0
   11.0321   -0.6992   22.4366 S   0  0  0  0  0  0  0  0  0  0  0  0
    8.7369   -1.7977   23.0938 N   0  0  0  0  0  0  0  0  0  0  0  0
    9.2886   -2.0515   23.8955 H   0  0  0  0  0  0  0  0  0  0  0  0
    7.4067   -2.3605   22.8585 C   0  0  1  0  0  0  0  0  0  0  0  0
    7.4783   -3.4137   22.5128 H   0  0  0  0  0  0  0  0  0  0  0  0
    6.6404   -2.3208   24.0526 O   0  0  0  0  0  0  0  0  0  0  0  0
    6.8174   -3.2357   25.0676 C   0  0  0  0  0  0  0  0  0  0  0  0
    5.9746   -3.0620   26.1841 C   0  0  0  0  0  0  0  0  0  0  0  0
    5.2559   -2.2472   26.1632 H   0  0  0  0  0  0  0  0  0  0  0  0
    6.0626   -3.9156   27.2869 C   0  0  0  0  0  0  0  0  0  0  0  0
    5.4313   -3.8000   28.1640 H   0  0  0  0  0  0  0  0  0  0  0  0
    6.9948   -4.9523   27.2681 C   0  0  0  0  0  0  0  0  0  0  0  0
    7.0846   -5.7699   28.3320 F   0  0  0  0  0  0  0  0  0  0  0  0
    7.8289   -5.1538   26.1752 C   0  0  0  0  0  0  0  0  0  0  0  0
    8.5330   -5.9789   26.2092 H   0  0  0  0  0  0  0  0  0  0  0  0
    7.7428   -4.2930   25.0669 C   0  0  0  0  0  0  0  0  0  0  0  0
    8.3928   -4.4517   24.2113 H   0  0  0  0  0  0  0  0  0  0  0  0
  1  2  1  0
  2  3  2  0
  3  4  1  0
  4  5  2  0
  5  6  1  0
  5  7  1  0
  7  8  2  0
  8  9  1  0
  8 10  1  0
 10 11  1  0
 10 12  2  0
 12 13  1  0
  3 14  1  0
 14 15  1  0
 14 16  1  0
 16 17  2  0
 16 18  1  0
 18 19  1  0
 18 20  1  0
 20 21  1  6
 20 22  1  0
 22 23  1  0
 23 24  2  0
 24 25  1  0
 24 26  1  0
 26 27  1  0
 26 28  2  0
 28 29  1  0
 28 30  1  0
 30 31  1  0
 30 32  2  0
 32 33  1  0
 20  2  1  0
 32 23  1  0
 12  4  1  0
M  END
>  <cnnaffinity>  (1) 
-5.12387

>  <filename>  (1) 
Fc1ccc(O[C@H]2C=C(c3cccnc3)NC(=S)N2)cc1

$$$$
