
     RDKit          3D

 30 33  0  0  0  0  0  0  0  0999 V2000
    4.9122    1.8071   16.9743 H   0  0  0  0  0  0  0  0  0  0  0  0
    5.3805    1.3036   17.8206 C   0  0  0  0  0  0  0  0  0  0  0  0
    6.5442    0.6845   17.5647 N   0  0  0  0  0  0  0  0  0  0  0  0
    7.1534    0.0748   18.5859 C   0  0  0  0  0  0  0  0  0  0  0  0
    8.1042   -0.3956   18.3412 H   0  0  0  0  0  0  0  0  0  0  0  0
    6.6592    0.0284   19.9117 C   0  0  0  0  0  0  0  0  0  0  0  0
    7.4060   -0.6707   20.9725 C   0  0  0  0  0  0  0  0  0  0  0  0
    8.3148   -1.7013   20.9121 C   0  0  0  0  0  0  0  0  0  0  0  0
    8.7109   -2.1212   20.0101 H   0  0  0  0  0  0  0  0  0  0  0  0
    8.7762   -2.1120   22.1302 N   0  0  0  0  0  0  0  0  0  0  0  0
    8.1734   -1.2964   22.9573 C   0  0  0  0  0  0  0  0  0  0  0  0
    8.2608   -0.9633   24.6430 S   0  0  0  0  0  0  0  0  0  0  0  0
    7.1381    0.3754   24.3285 C   0  0  0  0  0  0  0  0  0  0  0  0
    6.6562    1.2891   25.3660 C   0  0  0  0  0  0  0  0  0  0  0  0
    5.7838    2.3508   25.0400 C   0  0  0  0  0  0  0  0  0  0  0  0
    5.4831    2.4792   23.9990 H   0  0  0  0  0  0  0  0  0  0  0  0
    5.3193    3.2180   26.0258 C   0  0  0  0  0  0  0  0  0  0  0  0
    4.6493    4.0398   25.8030 H   0  0  0  0  0  0  0  0  0  0  0  0
    5.7338    3.0215   27.3416 C   0  0  0  0  0  0  0  0  0  0  0  0
    5.2906    3.8537   28.2929 F   0  0  0  0  0  0  0  0  0  0  0  0
    6.5922    1.9932   27.7087 C   0  0  0  0  0  0  0  0  0  0  0  0
    6.9055    1.8509   28.7336 H   0  0  0  0  0  0  0  0  0  0  0  0
    7.0407    1.1402   26.7084 C   0  0  0  0  0  0  0  0  0  0  0  0
    7.8614    0.1506   27.0547 F   0  0  0  0  0  0  0  0  0  0  0  0
    6.7533    0.5265   23.0971 N   0  0  0  0  0  0  0  0  0  0  0  0
    7.3309   -0.4194   22.3387 N   0  0  0  0  0  0  0  0  0  0  0  0
    5.4288    0.6658   20.1479 C   0  0  0  0  0  0  0  0  0  0  0  0
    5.0149    0.6494   21.1537 H   0  0  0  0  0  0  0  0  0  0  0  0
    4.7903    1.3154   19.0879 C   0  0  0  0  0  0  0  0  0  0  0  0
    3.8593    1.8491   19.2342 H   0  0  0  0  0  0  0  0  0  0  0  0
  1  2  1  0
  2  3  2  0
  3  4  1  0
  4  5  1  0
  4  6  2  0
  6  7  1  0
  7  8  2  0
  8  9  1  0
  8 10  1  0
 10 11  2  0
 11 12  1  0
 12 13  1  0
 13 14  1  0
 14 15  2  0
 15 16  1  0
 15 17  1  0
 17 18  1  0
 17 19  2  0
 19 20  1  0
 19 21  1  0
 21 22  1  0
 21 23  2  0
 23 24  1  0
 13 25  2  0
 25 26  1  0
  6 27  1  0
 27 28  1  0
 27 29  2  0
 29 30  1  0
 29  2  1  0
 26  7  1  0
 26 11  1  0
 23 14  1  0
M  END
>  <cnnaffinity>  (1) 
-5.3449

>  <filename>  (1) 
Fc1ccc(-c2nn3c(-c4cccnc4)cnc3s2)c(F)c1

$$$$
