
     RDKit          3D

 25 26  0  0  0  0  0  0  0  0999 V2000
    6.9402   -6.5898   22.7532 F   0  0  0  0  0  0  0  0  0  0  0  0
    7.3936   -5.3279   22.7783 C   0  0  0  0  0  0  0  0  0  0  0  0
    8.3595   -4.9674   23.7285 C   0  0  0  0  0  0  0  0  0  0  0  0
    8.8427   -3.7203   23.7845 N   0  0  0  0  0  0  0  0  0  0  0  0
    8.3755   -2.8134   22.9100 C   0  0  0  0  0  0  0  0  0  0  0  0
    7.3954   -3.0946   21.9116 C   0  0  0  0  0  0  0  0  0  0  0  0
    6.9336   -2.1547   21.0102 N   0  0  0  0  0  0  0  0  0  0  0  0
    7.3670   -0.7720   20.9821 C   0  0  0  0  0  0  0  0  0  0  0  0
    6.6498   -0.0079   19.9042 C   0  0  0  0  0  0  0  0  0  0  0  0
    5.4414    0.6498   20.1571 C   0  0  0  0  0  0  0  0  0  0  0  0
    4.8036    1.3116   19.1063 C   0  0  0  0  0  0  0  0  0  0  0  0
    5.4042    1.2903   17.8411 C   0  0  0  0  0  0  0  0  0  0  0  0
    6.5676    0.6738   17.5793 N   0  0  0  0  0  0  0  0  0  0  0  0
    7.1661    0.0507   18.6041 C   0  0  0  0  0  0  0  0  0  0  0  0
    8.1180   -0.4279   18.3773 H   0  0  0  0  0  0  0  0  0  0  0  0
    4.9145    1.7772   16.9990 H   0  0  0  0  0  0  0  0  0  0  0  0
    3.8700    1.8470   19.2610 H   0  0  0  0  0  0  0  0  0  0  0  0
    5.0062    0.6319   21.1616 H   0  0  0  0  0  0  0  0  0  0  0  0
    7.1726   -0.2858   21.9501 H   0  0  0  0  0  0  0  0  0  0  0  0
    8.4513   -0.7193   20.8130 H   0  0  0  0  0  0  0  0  0  0  0  0
    6.2330   -2.4334   20.3439 H   0  0  0  0  0  0  0  0  0  0  0  0
    6.8963   -4.4120   21.8605 C   0  0  0  0  0  0  0  0  0  0  0  0
    6.1461   -4.7164   21.1369 H   0  0  0  0  0  0  0  0  0  0  0  0
    8.7881   -1.8143   22.9874 H   0  0  0  0  0  0  0  0  0  0  0  0
    8.7384   -5.6989   24.4395 H   0  0  0  0  0  0  0  0  0  0  0  0
  1  2  1  0
  2  3  2  0
  3  4  1  0
  4  5  2  0
  5  6  1  0
  6  7  1  0
  7  8  1  0
  8  9  1  0
  9 10  2  0
 10 11  1  0
 11 12  2  0
 12 13  1  0
 13 14  2  0
 14 15  1  0
 12 16  1  0
 11 17  1  0
 10 18  1  0
  8 19  1  0
  8 20  1  0
  7 21  1  0
  6 22  2  0
 22 23  1  0
  5 24  1  0
  3 25  1  0
 22  2  1  0
 14  9  1  0
M  END
>  <cnnaffinity>  (1) 
-4.65347

>  <filename>  (1) 
Fc1cncc(NCc2cccnc2)c1

$$$$
