
     RDKit          3D

 29 32  0  0  0  0  0  0  0  0999 V2000
    4.9170    1.7759   17.0019 H   0  0  0  0  0  0  0  0  0  0  0  0
    5.4048    1.2898   17.8426 C   0  0  0  0  0  0  0  0  0  0  0  0
    6.5700    0.6774   17.5770 N   0  0  0  0  0  0  0  0  0  0  0  0
    7.1742    0.0567   18.5908 C   0  0  0  0  0  0  0  0  0  0  0  0
    8.1239   -0.4344   18.3739 H   0  0  0  0  0  0  0  0  0  0  0  0
    6.6479    0.0116   19.8925 C   0  0  0  0  0  0  0  0  0  0  0  0
    7.4046   -0.7009   20.9197 C   0  0  0  0  0  0  0  0  0  0  0  0
    8.3277   -1.6054   20.7043 N   0  0  0  0  0  0  0  0  0  0  0  0
    8.8227   -2.0403   21.9128 N   0  0  0  0  0  0  0  0  0  0  0  0
    8.1906   -1.3573   22.8290 C   0  0  0  0  0  0  0  0  0  0  0  0
    8.2602   -1.1094   24.5474 S   0  0  0  0  0  0  0  0  0  0  0  0
    7.0255    0.1551   24.3206 C   0  0  0  0  0  0  0  0  0  0  0  0
    6.5005    0.9282   25.4577 C   0  0  0  0  0  0  0  0  0  0  0  0
    7.1840    1.0594   26.6834 C   0  0  0  0  0  0  0  0  0  0  0  0
    8.3665    0.4655   26.8327 F   0  0  0  0  0  0  0  0  0  0  0  0
    6.6864    1.7896   27.7605 C   0  0  0  0  0  0  0  0  0  0  0  0
    7.2595    1.8534   28.6785 H   0  0  0  0  0  0  0  0  0  0  0  0
    5.4547    2.4282   27.6248 C   0  0  0  0  0  0  0  0  0  0  0  0
    5.0509    3.0047   28.4493 H   0  0  0  0  0  0  0  0  0  0  0  0
    4.7344    2.3347   26.4377 C   0  0  0  0  0  0  0  0  0  0  0  0
    3.7773    2.8253   26.3088 H   0  0  0  0  0  0  0  0  0  0  0  0
    5.2633    1.5906   25.3874 C   0  0  0  0  0  0  0  0  0  0  0  0
    4.5379    1.5141   24.2727 F   0  0  0  0  0  0  0  0  0  0  0  0
    6.6114    0.3428   23.1056 N   0  0  0  0  0  0  0  0  0  0  0  0
    7.2746   -0.5155   22.2815 N   0  0  0  0  0  0  0  0  0  0  0  0
    5.4332    0.6526   20.1624 C   0  0  0  0  0  0  0  0  0  0  0  0
    5.0100    0.6356   21.1698 H   0  0  0  0  0  0  0  0  0  0  0  0
    4.8050    1.3080   19.1089 C   0  0  0  0  0  0  0  0  0  0  0  0
    3.8741    1.8436   19.2610 H   0  0  0  0  0  0  0  0  0  0  0  0
  1  2  1  0
  2  3  2  0
  3  4  1  0
  4  5  1  0
  4  6  2  0
  6  7  1  0
  7  8  2  0
  8  9  1  0
  9 10  2  0
 10 11  1  0
 11 12  1  0
 12 13  1  0
 13 14  2  0
 14 15  1  0
 14 16  1  0
 16 17  1  0
 16 18  2  0
 18 19  1  0
 18 20  1  0
 20 21  1  0
 20 22  2  0
 22 23  1  0
 12 24  2  0
 24 25  1  0
  6 26  1  0
 26 27  1  0
 26 28  2  0
 28 29  1  0
 28  2  1  0
 25  7  1  0
 25 10  1  0
 22 13  1  0
M  END
>  <cnnaffinity>  (1) 
-5.48952

>  <filename>  (1) 
Fc1cccc(F)c1-c1nn2c(-c3cccnc3)nnc2s1

$$$$
