
     RDKit          3D

 30 33  0  0  0  0  0  0  0  0999 V2000
    4.9221    1.7717   17.0043 H   0  0  0  0  0  0  0  0  0  0  0  0
    5.4091    1.2858   17.8472 C   0  0  0  0  0  0  0  0  0  0  0  0
    6.5744    0.6692   17.5955 N   0  0  0  0  0  0  0  0  0  0  0  0
    7.1817    0.0536   18.6149 C   0  0  0  0  0  0  0  0  0  0  0  0
    8.1271   -0.4334   18.3843 H   0  0  0  0  0  0  0  0  0  0  0  0
    6.6475    0.0150   19.9106 C   0  0  0  0  0  0  0  0  0  0  0  0
    7.3626   -0.6894   20.9677 C   0  0  0  0  0  0  0  0  0  0  0  0
    8.5482   -1.3256   20.7550 N   0  0  0  0  0  0  0  0  0  0  0  0
    8.8051   -1.8100   21.9528 C   0  0  0  0  0  0  0  0  0  0  0  0
   10.0138   -2.7878   22.7331 S   0  0  0  0  0  0  0  0  0  0  0  0
    9.1056   -2.7279   24.2120 C   0  0  0  0  0  0  0  0  0  0  0  0
    9.4852   -3.2278   25.0940 H   0  0  0  0  0  0  0  0  0  0  0  0
    7.9718   -2.0018   24.1195 C   0  0  0  0  0  0  0  0  0  0  0  0
    6.9928   -1.7220   25.1882 C   0  0  0  0  0  0  0  0  0  0  0  0
    6.3715   -0.4656   25.3272 C   0  0  0  0  0  0  0  0  0  0  0  0
    6.6032    0.3100   24.6062 H   0  0  0  0  0  0  0  0  0  0  0  0
    5.4669   -0.2062   26.3519 C   0  0  0  0  0  0  0  0  0  0  0  0
    4.9852    0.7592   26.4495 H   0  0  0  0  0  0  0  0  0  0  0  0
    5.1811   -1.2216   27.2589 C   0  0  0  0  0  0  0  0  0  0  0  0
    4.3116   -0.9845   28.2472 F   0  0  0  0  0  0  0  0  0  0  0  0
    5.7633   -2.4799   27.1805 C   0  0  0  0  0  0  0  0  0  0  0  0
    5.5315   -3.2619   27.8944 H   0  0  0  0  0  0  0  0  0  0  0  0
    6.6586   -2.7006   26.1421 C   0  0  0  0  0  0  0  0  0  0  0  0
    7.2059   -3.9248   26.0600 F   0  0  0  0  0  0  0  0  0  0  0  0
    7.8393   -1.4780   22.8315 N   0  0  0  0  0  0  0  0  0  0  0  0
    6.8844   -0.7497   22.2066 N   0  0  0  0  0  0  0  0  0  0  0  0
    5.4277    0.6582   20.1665 C   0  0  0  0  0  0  0  0  0  0  0  0
    5.0001    0.6331   21.1731 H   0  0  0  0  0  0  0  0  0  0  0  0
    4.8044    1.3105   19.1099 C   0  0  0  0  0  0  0  0  0  0  0  0
    3.8739    1.8434   19.2609 H   0  0  0  0  0  0  0  0  0  0  0  0
  1  2  1  0
  2  3  2  0
  3  4  1  0
  4  5  1  0
  4  6  2  0
  6  7  1  0
  7  8  1  0
  8  9  2  0
  9 10  1  0
 10 11  1  0
 11 12  1  0
 11 13  2  0
 13 14  1  0
 14 15  2  0
 15 16  1  0
 15 17  1  0
 17 18  1  0
 17 19  2  0
 19 20  1  0
 19 21  1  0
 21 22  1  0
 21 23  2  0
 23 24  1  0
 13 25  1  0
 25 26  1  0
  6 27  1  0
 27 28  1  0
 27 29  2  0
 29 30  1  0
 29  2  1  0
 26  7  2  0
 25  9  1  0
 23 14  1  0
M  END
>  <cnnaffinity>  (1) 
-5.69804

>  <filename>  (1) 
Fc1ccc(-c2csc3nc(-c4cccnc4)nn23)c(F)c1

$$$$
