
     RDKit          3D

 35 38  0  0  0  0  0  0  0  0999 V2000
    4.9722    1.8418   16.9374 H   0  0  0  0  0  0  0  0  0  0  0  0
    5.3869    1.3082   17.7888 C   0  0  0  0  0  0  0  0  0  0  0  0
    6.5434    0.6590   17.5830 N   0  0  0  0  0  0  0  0  0  0  0  0
    7.0870    0.0286   18.6348 C   0  0  0  0  0  0  0  0  0  0  0  0
    8.0352   -0.4709   18.4284 H   0  0  0  0  0  0  0  0  0  0  0  0
    6.5092   -0.0216   19.9229 C   0  0  0  0  0  0  0  0  0  0  0  0
    7.2571   -0.6586   21.0359 C   0  0  0  0  0  0  0  0  0  0  0  0
    8.6116   -0.6196   21.2687 C   0  0  0  0  0  0  0  0  0  0  0  0
    8.8207   -1.2083   22.5102 C   0  0  0  0  0  0  0  0  0  0  0  0
    7.7006   -1.6553   23.0480 N   0  0  0  0  0  0  0  0  0  0  0  0
    6.7514   -1.2975   22.1397 N   0  0  0  0  0  0  0  0  0  0  0  0
    5.7844   -1.4760   22.3790 H   0  0  0  0  0  0  0  0  0  0  0  0
   10.2460   -1.1160   22.9607 C   0  0  0  0  0  0  0  0  0  0  0  0
   10.6901   -2.1074   23.0586 H   0  0  0  0  0  0  0  0  0  0  0  0
   10.3440   -0.6327   23.9379 H   0  0  0  0  0  0  0  0  0  0  0  0
   10.9382   -0.2735   21.8272 C   0  0  2  0  0  0  0  0  0  0  0  0
   11.7678   -0.8530   21.4162 H   0  0  0  0  0  0  0  0  0  0  0  0
   11.4954    1.0349   22.3697 C   0  0  0  0  0  0  0  0  0  0  0  0
   12.8684    1.3353   22.4317 C   0  0  0  0  0  0  0  0  0  0  0  0
   13.7583    0.3857   22.0793 F   0  0  0  0  0  0  0  0  0  0  0  0
   13.3716    2.5746   22.8220 C   0  0  0  0  0  0  0  0  0  0  0  0
   14.4325    2.7751   22.7397 H   0  0  0  0  0  0  0  0  0  0  0  0
   12.4781    3.5504   23.2593 C   0  0  0  0  0  0  0  0  0  0  0  0
   12.8422    4.5255   23.5623 H   0  0  0  0  0  0  0  0  0  0  0  0
   11.1125    3.2823   23.3104 C   0  0  0  0  0  0  0  0  0  0  0  0
   10.3928    3.9932   23.6933 H   0  0  0  0  0  0  0  0  0  0  0  0
   10.6582    2.0463   22.8635 C   0  0  0  0  0  0  0  0  0  0  0  0
    9.3235    1.8459   22.9181 F   0  0  0  0  0  0  0  0  0  0  0  0
    9.8674   -0.0672   20.6927 C   0  0  0  0  0  0  0  0  0  0  0  0
   10.1525   -0.6125   19.7913 H   0  0  0  0  0  0  0  0  0  0  0  0
    9.7587    0.9792   20.3837 H   0  0  0  0  0  0  0  0  0  0  0  0
    5.2904    0.6591   20.1043 C   0  0  0  0  0  0  0  0  0  0  0  0
    4.8235    0.7102   21.0893 H   0  0  0  0  0  0  0  0  0  0  0  0
    4.7278    1.3354   19.0219 C   0  0  0  0  0  0  0  0  0  0  0  0
    3.8120    1.9075   19.1309 H   0  0  0  0  0  0  0  0  0  0  0  0
  1  2  1  0
  2  3  2  0
  3  4  1  0
  4  5  1  0
  4  6  2  0
  6  7  1  0
  7  8  2  0
  8  9  1  0
  9 10  2  0
 10 11  1  0
 11 12  1  0
  9 13  1  0
 13 14  1  0
 13 15  1  0
 13 16  1  0
 16 17  1  6
 16 18  1  0
 18 19  2  0
 19 20  1  0
 19 21  1  0
 21 22  1  0
 21 23  2  0
 23 24  1  0
 23 25  1  0
 25 26  1  0
 25 27  2  0
 27 28  1  0
 16 29  1  0
 29 30  1  0
 29 31  1  0
  6 32  1  0
 32 33  1  0
 32 34  2  0
 34 35  1  0
 34  2  1  0
 11  7  1  0
 27 18  1  0
 29  8  1  0
M  END
>  <cnnaffinity>  (1) 
-5.87652

>  <filename>  (1) 
Fc1cccc(F)c1[C@H]1Cc2n[nH]c(-c3cccnc3)c2C1

$$$$
