
     RDKit          3D

 31 34  0  0  0  0  0  0  0  0999 V2000
    4.9603    1.9066   16.8175 H   0  0  0  0  0  0  0  0  0  0  0  0
    5.4013    1.3090   17.6128 C   0  0  0  0  0  0  0  0  0  0  0  0
    6.5433    0.6671   17.3221 N   0  0  0  0  0  0  0  0  0  0  0  0
    7.1496   -0.0301   18.2918 C   0  0  0  0  0  0  0  0  0  0  0  0
    8.0699   -0.5217   17.9815 H   0  0  0  0  0  0  0  0  0  0  0  0
    6.6561   -0.1169   19.6085 C   0  0  0  0  0  0  0  0  0  0  0  0
    7.3797   -0.6973   20.6816 N   0  0  0  0  0  0  0  0  0  0  0  0
    8.4461   -1.6076   20.6956 C   0  0  0  0  0  0  0  0  0  0  0  0
    8.9094   -1.8953   19.7712 H   0  0  0  0  0  0  0  0  0  0  0  0
    8.8439   -1.8317   21.9767 C   0  0  0  0  0  0  0  0  0  0  0  0
    9.5796   -2.4625   22.4532 H   0  0  0  0  0  0  0  0  0  0  0  0
    8.0646   -0.9900   22.7750 N   0  0  0  0  0  0  0  0  0  0  0  0
    8.3086   -0.3846   23.9755 N   0  0  0  0  0  0  0  0  0  0  0  0
    7.5860    0.7424   23.8969 C   0  0  0  0  0  0  0  0  0  0  0  0
    7.7286    1.8718   24.8439 C   0  0  0  0  0  0  0  0  0  0  0  0
    8.8035    1.8938   25.7508 C   0  0  0  0  0  0  0  0  0  0  0  0
    9.4595    1.0350   25.8744 H   0  0  0  0  0  0  0  0  0  0  0  0
    9.0939    2.9728   26.4801 N   0  0  0  0  0  0  0  0  0  0  0  0
    8.3320    4.0616   26.3741 C   0  0  0  0  0  0  0  0  0  0  0  0
    8.6036    4.9074   26.9961 H   0  0  0  0  0  0  0  0  0  0  0  0
    7.2207    4.1219   25.5246 C   0  0  0  0  0  0  0  0  0  0  0  0
    6.5051    5.2555   25.4565 F   0  0  0  0  0  0  0  0  0  0  0  0
    6.8984    3.0149   24.7501 C   0  0  0  0  0  0  0  0  0  0  0  0
    6.0298    3.0509   24.0918 H   0  0  0  0  0  0  0  0  0  0  0  0
    6.8534    0.8439   22.7006 C   0  0  0  0  0  0  0  0  0  0  0  0
    6.2910    1.6838   22.3482 H   0  0  0  0  0  0  0  0  0  0  0  0
    7.2242   -0.2830   21.9958 C   0  0  0  0  0  0  0  0  0  0  0  0
    5.4021    0.4779   19.8680 C   0  0  0  0  0  0  0  0  0  0  0  0
    4.9518    0.3722   20.8569 H   0  0  0  0  0  0  0  0  0  0  0  0
    4.7879    1.2261   18.8670 C   0  0  0  0  0  0  0  0  0  0  0  0
    3.8677    1.7690   19.0613 H   0  0  0  0  0  0  0  0  0  0  0  0
  1  2  1  0
  2  3  2  0
  3  4  1  0
  4  5  1  0
  4  6  2  0
  6  7  1  0
  7  8  1  0
  8  9  1  0
  8 10  2  0
 10 11  1  0
 10 12  1  0
 12 13  1  0
 13 14  2  0
 14 15  1  0
 15 16  2  0
 16 17  1  0
 16 18  1  0
 18 19  2  0
 19 20  1  0
 19 21  1  0
 21 22  1  0
 21 23  2  0
 23 24  1  0
 14 25  1  0
 25 26  1  0
 25 27  2  0
  6 28  1  0
 28 29  1  0
 28 30  2  0
 30 31  1  0
 30  2  1  0
 27  7  1  0
 27 12  1  0
 23 15  1  0
M  END
>  <cnnaffinity>  (1) 
-4.95771

>  <filename>  (1) 
Fc1cncc(-c2cc3n(-c4cccnc4)ccn3n2)c1

$$$$
