
     RDKit          3D

 29 31  0  0  0  0  0  0  0  0999 V2000
    4.9333    1.8014   16.9942 H   0  0  0  0  0  0  0  0  0  0  0  0
    5.3967    1.2902   17.8319 C   0  0  0  0  0  0  0  0  0  0  0  0
    6.5514    0.6590   17.5639 N   0  0  0  0  0  0  0  0  0  0  0  0
    7.1714    0.0441   18.5790 C   0  0  0  0  0  0  0  0  0  0  0  0
    8.1261   -0.4336   18.3605 H   0  0  0  0  0  0  0  0  0  0  0  0
    6.6530    0.0041   19.8893 C   0  0  0  0  0  0  0  0  0  0  0  0
    7.3344   -0.6747   20.9480 N   0  0  0  0  0  0  0  0  0  0  0  0
    6.7303   -1.5922   21.7938 C   0  0  0  0  0  0  0  0  0  0  0  0
    5.6831   -1.8334   21.6967 H   0  0  0  0  0  0  0  0  0  0  0  0
    7.6679   -2.0568   22.6542 C   0  0  0  0  0  0  0  0  0  0  0  0
    7.5372   -2.9824   23.7846 C   0  0  0  0  0  0  0  0  0  0  0  0
    6.3097   -3.0563   24.4661 C   0  0  0  0  0  0  0  0  0  0  0  0
    5.5166   -2.3856   24.1463 H   0  0  0  0  0  0  0  0  0  0  0  0
    6.1092   -3.9385   25.5294 C   0  0  0  0  0  0  0  0  0  0  0  0
    5.1417   -3.9670   26.0246 H   0  0  0  0  0  0  0  0  0  0  0  0
    7.1517   -4.7789   25.9430 C   0  0  0  0  0  0  0  0  0  0  0  0
    7.0021   -5.4674   26.7752 H   0  0  0  0  0  0  0  0  0  0  0  0
    8.3906   -4.7224   25.2893 C   0  0  0  0  0  0  0  0  0  0  0  0
    9.2340   -5.3465   25.5750 H   0  0  0  0  0  0  0  0  0  0  0  0
    8.5649   -3.8272   24.2357 C   0  0  0  0  0  0  0  0  0  0  0  0
    9.7732   -3.7862   23.6369 F   0  0  0  0  0  0  0  0  0  0  0  0
    8.8412   -1.4074   22.3121 N   0  0  0  0  0  0  0  0  0  0  0  0
    9.7537   -1.4689   22.7305 H   0  0  0  0  0  0  0  0  0  0  0  0
    8.6542   -0.5096   21.3152 C   0  0  0  0  0  0  0  0  0  0  0  0
    9.8156    0.5478   20.7926 S   0  0  0  0  0  0  0  0  0  0  0  0
    5.4406    0.6474   20.1520 C   0  0  0  0  0  0  0  0  0  0  0  0
    5.0351    0.6363   21.1655 H   0  0  0  0  0  0  0  0  0  0  0  0
    4.8047    1.3107   19.1006 C   0  0  0  0  0  0  0  0  0  0  0  0
    3.8739    1.8444   19.2586 H   0  0  0  0  0  0  0  0  0  0  0  0
  1  2  1  0
  2  3  2  0
  3  4  1  0
  4  5  1  0
  4  6  2  0
  6  7  1  0
  7  8  1  0
  8  9  1  0
  8 10  2  0
 10 11  1  0
 11 12  2  0
 12 13  1  0
 12 14  1  0
 14 15  1  0
 14 16  2  0
 16 17  1  0
 16 18  1  0
 18 19  1  0
 18 20  2  0
 20 21  1  0
 10 22  1  0
 22 23  1  0
 22 24  1  0
 24 25  2  0
  6 26  1  0
 26 27  1  0
 26 28  2  0
 28 29  1  0
 28  2  1  0
 24  7  1  0
 20 11  1  0
M  END
>  <cnnaffinity>  (1) 
-5.49032

>  <filename>  (1) 
Fc1ccccc1-c1cn(-c2cccnc2)c(=S)[nH]1

$$$$
