
     RDKit          3D

 26 28  0  0  0  0  0  0  0  0999 V2000
    4.9633    1.8142   16.9930 H   0  0  0  0  0  0  0  0  0  0  0  0
    5.4118    1.2997   17.8377 C   0  0  0  0  0  0  0  0  0  0  0  0
    6.5808    0.6849   17.5927 N   0  0  0  0  0  0  0  0  0  0  0  0
    7.1863    0.0793   18.6210 C   0  0  0  0  0  0  0  0  0  0  0  0
    8.1440   -0.3953   18.4044 H   0  0  0  0  0  0  0  0  0  0  0  0
    6.6516    0.0412   19.9309 C   0  0  0  0  0  0  0  0  0  0  0  0
    7.3120   -0.6587   21.0112 N   0  0  0  0  0  0  0  0  0  0  0  0
    7.6434   -1.9919   21.0349 C   0  0  0  0  0  0  0  0  0  0  0  0
    7.3917   -2.6637   20.2327 H   0  0  0  0  0  0  0  0  0  0  0  0
    8.1630   -2.3440   22.1710 N   0  0  0  0  0  0  0  0  0  0  0  0
    8.1407   -1.2356   22.9802 N   0  0  0  0  0  0  0  0  0  0  0  0
    7.6210   -0.2481   22.3005 C   0  0  0  0  0  0  0  0  0  0  0  0
    7.3381    1.0779   22.8590 C   0  0  0  0  0  0  0  0  0  0  0  0
    6.8703    1.1590   24.1827 C   0  0  0  0  0  0  0  0  0  0  0  0
    6.7248    0.2515   24.7646 H   0  0  0  0  0  0  0  0  0  0  0  0
    6.5750    2.3173   24.7763 N   0  0  0  0  0  0  0  0  0  0  0  0
    6.7568    3.4485   24.0793 C   0  0  0  0  0  0  0  0  0  0  0  0
    6.5306    4.3899   24.5686 H   0  0  0  0  0  0  0  0  0  0  0  0
    7.2259    3.4545   22.7598 C   0  0  0  0  0  0  0  0  0  0  0  0
    7.3903    4.6134   22.1075 F   0  0  0  0  0  0  0  0  0  0  0  0
    7.5111    2.2586   22.1253 C   0  0  0  0  0  0  0  0  0  0  0  0
    7.8213    2.2320   21.0834 H   0  0  0  0  0  0  0  0  0  0  0  0
    5.4214    0.6691   20.1620 C   0  0  0  0  0  0  0  0  0  0  0  0
    4.9926    0.6687   21.1677 H   0  0  0  0  0  0  0  0  0  0  0  0
    4.7910    1.3100   19.0914 C   0  0  0  0  0  0  0  0  0  0  0  0
    3.8444    1.8291   19.2192 H   0  0  0  0  0  0  0  0  0  0  0  0
  1  2  1  0
  2  3  2  0
  3  4  1  0
  4  5  1  0
  4  6  2  0
  6  7  1  0
  7  8  1  0
  8  9  1  0
  8 10  2  0
 10 11  1  0
 11 12  2  0
 12 13  1  0
 13 14  2  0
 14 15  1  0
 14 16  1  0
 16 17  2  0
 17 18  1  0
 17 19  1  0
 19 20  1  0
 19 21  2  0
 21 22  1  0
  6 23  1  0
 23 24  1  0
 23 25  2  0
 25 26  1  0
 25  2  1  0
 12  7  1  0
 21 13  1  0
M  END
>  <cnnaffinity>  (1) 
-5.21324

>  <filename>  (1) 
Fc1cncc(-c2nncn2-c2cccnc2)c1

$$$$
