
     RDKit          3D

 31 34  0  0  0  0  0  0  0  0999 V2000
    4.9553    1.8038   16.9782 H   0  0  0  0  0  0  0  0  0  0  0  0
    5.4028    1.2887   17.8264 C   0  0  0  0  0  0  0  0  0  0  0  0
    6.5602    0.6565   17.5807 N   0  0  0  0  0  0  0  0  0  0  0  0
    7.1525    0.0258   18.5977 C   0  0  0  0  0  0  0  0  0  0  0  0
    8.1011   -0.4536   18.3635 H   0  0  0  0  0  0  0  0  0  0  0  0
    6.6387   -0.0013   19.9036 C   0  0  0  0  0  0  0  0  0  0  0  0
    7.3898   -0.6748   20.9602 C   0  0  0  0  0  0  0  0  0  0  0  0
    8.0569   -1.8542   20.7364 N   0  0  0  0  0  0  0  0  0  0  0  0
    8.4632   -2.2099   21.9236 C   0  0  0  0  0  0  0  0  0  0  0  0
    9.3395   -3.5434   22.6078 S   0  0  0  0  0  0  0  0  0  0  0  0
    9.4312   -2.7377   24.1556 C   0  0  0  0  0  0  0  0  0  0  0  0
   10.0085   -3.2125   24.9388 H   0  0  0  0  0  0  0  0  0  0  0  0
    8.7423   -1.5807   24.1557 C   0  0  0  0  0  0  0  0  0  0  0  0
    8.5904   -0.8552   24.9472 H   0  0  0  0  0  0  0  0  0  0  0  0
    8.1635   -1.3197   22.9159 N   0  0  0  0  0  0  0  0  0  0  0  0
    7.4886   -0.2861   22.2955 C   0  0  0  0  0  0  0  0  0  0  0  0
    7.0947    0.9348   22.9804 C   0  0  0  0  0  0  0  0  0  0  0  0
    7.3062    2.1804   22.3618 C   0  0  0  0  0  0  0  0  0  0  0  0
    7.7538    2.1979   21.3742 H   0  0  0  0  0  0  0  0  0  0  0  0
    6.9101    3.3660   22.9871 C   0  0  0  0  0  0  0  0  0  0  0  0
    7.0781    4.3208   22.4883 H   0  0  0  0  0  0  0  0  0  0  0  0
    6.2884    3.3153   24.2411 C   0  0  0  0  0  0  0  0  0  0  0  0
    5.9585    4.2005   24.7769 H   0  0  0  0  0  0  0  0  0  0  0  0
    6.0755    2.0723   24.8335 C   0  0  0  0  0  0  0  0  0  0  0  0
    5.4810    2.0230   26.0381 F   0  0  0  0  0  0  0  0  0  0  0  0
    6.4599    0.8830   24.2314 C   0  0  0  0  0  0  0  0  0  0  0  0
    6.2428   -0.0647   24.7099 H   0  0  0  0  0  0  0  0  0  0  0  0
    5.4121    0.6490   20.1440 C   0  0  0  0  0  0  0  0  0  0  0  0
    4.9862    0.6700   21.1499 H   0  0  0  0  0  0  0  0  0  0  0  0
    4.7921    1.3042   19.0842 C   0  0  0  0  0  0  0  0  0  0  0  0
    3.8654    1.8455   19.2220 H   0  0  0  0  0  0  0  0  0  0  0  0
  1  2  1  0
  2  3  2  0
  3  4  1  0
  4  5  1  0
  4  6  2  0
  6  7  1  0
  7  8  1  0
  8  9  2  0
  9 10  1  0
 10 11  1  0
 11 12  1  0
 11 13  2  0
 13 14  1  0
 13 15  1  0
 15 16  1  0
 16 17  1  0
 17 18  2  0
 18 19  1  0
 18 20  1  0
 20 21  1  0
 20 22  2  0
 22 23  1  0
 22 24  1  0
 24 25  1  0
 24 26  2  0
 26 27  1  0
  6 28  1  0
 28 29  1  0
 28 30  2  0
 30 31  1  0
 30  2  1  0
 16  7  2  0
 26 17  1  0
 15  9  1  0
M  END
>  <cnnaffinity>  (1) 
-5.61651

>  <filename>  (1) 
Fc1cccc(-c2c(-c3cccnc3)nc3sccn23)c1

$$$$
