
     RDKit          3D

 29 31  0  0  0  0  0  0  0  0999 V2000
    4.9177    1.8016   16.9694 H   0  0  0  0  0  0  0  0  0  0  0  0
    5.3917    1.3044   17.8154 C   0  0  0  0  0  0  0  0  0  0  0  0
    6.5565    0.6864   17.5595 N   0  0  0  0  0  0  0  0  0  0  0  0
    7.1704    0.0724   18.5800 C   0  0  0  0  0  0  0  0  0  0  0  0
    8.1067   -0.4219   18.3272 H   0  0  0  0  0  0  0  0  0  0  0  0
    6.6661    0.0182   19.8929 C   0  0  0  0  0  0  0  0  0  0  0  0
    7.3387   -0.7050   20.9781 C   0  0  0  0  0  0  0  0  0  0  0  0
    6.8212   -1.2326   22.1045 C   0  0  0  0  0  0  0  0  0  0  0  0
    5.8039   -1.2975   22.4086 H   0  0  0  0  0  0  0  0  0  0  0  0
    7.8421   -1.7900   22.8586 N   0  0  0  0  0  0  0  0  0  0  0  0
    7.6381   -2.4441   24.1144 C   0  0  0  0  0  0  0  0  0  0  0  0
    6.8262   -1.8460   25.0902 C   0  0  0  0  0  0  0  0  0  0  0  0
    6.3488   -0.8910   24.8779 H   0  0  0  0  0  0  0  0  0  0  0  0
    6.6468   -2.4703   26.3284 C   0  0  0  0  0  0  0  0  0  0  0  0
    6.0288   -2.0402   27.1082 H   0  0  0  0  0  0  0  0  0  0  0  0
    7.2731   -3.6919   26.5587 C   0  0  0  0  0  0  0  0  0  0  0  0
    7.1045   -4.3013   27.7430 F   0  0  0  0  0  0  0  0  0  0  0  0
    8.0671   -4.3081   25.5960 C   0  0  0  0  0  0  0  0  0  0  0  0
    8.5399   -5.2533   25.8339 H   0  0  0  0  0  0  0  0  0  0  0  0
    8.2472   -3.6799   24.3614 C   0  0  0  0  0  0  0  0  0  0  0  0
    8.8767   -4.1193   23.5927 H   0  0  0  0  0  0  0  0  0  0  0  0
    9.0393   -1.6060   22.2006 C   0  0  0  0  0  0  0  0  0  0  0  0
   10.6081   -1.9779   22.5980 S   0  0  0  0  0  0  0  0  0  0  0  0
    8.6927   -0.9756   21.0445 N   0  0  0  0  0  0  0  0  0  0  0  0
    9.4261   -0.6684   20.4295 H   0  0  0  0  0  0  0  0  0  0  0  0
    5.4391    0.6649   20.1327 C   0  0  0  0  0  0  0  0  0  0  0  0
    5.0096    0.6593   21.1347 H   0  0  0  0  0  0  0  0  0  0  0  0
    4.7976    1.3220   19.0820 C   0  0  0  0  0  0  0  0  0  0  0  0
    3.8637    1.8521   19.2322 H   0  0  0  0  0  0  0  0  0  0  0  0
  1  2  1  0
  2  3  2  0
  3  4  1  0
  4  5  1  0
  4  6  2  0
  6  7  1  0
  7  8  2  0
  8  9  1  0
  8 10  1  0
 10 11  1  0
 11 12  2  0
 12 13  1  0
 12 14  1  0
 14 15  1  0
 14 16  2  0
 16 17  1  0
 16 18  1  0
 18 19  1  0
 18 20  2  0
 20 21  1  0
 10 22  1  0
 22 23  2  0
 22 24  1  0
 24 25  1  0
  6 26  1  0
 26 27  1  0
 26 28  2  0
 28 29  1  0
 28  2  1  0
 24  7  1  0
 20 11  1  0
M  END
>  <cnnaffinity>  (1) 
-5.60518

>  <filename>  (1) 
Fc1ccc(-n2cc(-c3cccnc3)[nH]c2=S)cc1

$$$$
