
     RDKit          3D

 29 31  0  0  0  0  0  0  0  0999 V2000
    4.9335    1.7993   16.9960 H   0  0  0  0  0  0  0  0  0  0  0  0
    5.3978    1.2896   17.8343 C   0  0  0  0  0  0  0  0  0  0  0  0
    6.5529    0.6589   17.5671 N   0  0  0  0  0  0  0  0  0  0  0  0
    7.1712    0.0424   18.5816 C   0  0  0  0  0  0  0  0  0  0  0  0
    8.1259   -0.4344   18.3627 H   0  0  0  0  0  0  0  0  0  0  0  0
    6.6515   -0.0018   19.8916 C   0  0  0  0  0  0  0  0  0  0  0  0
    7.3337   -0.6872   20.9454 N   0  0  0  0  0  0  0  0  0  0  0  0
    6.7334   -1.6072   21.7943 C   0  0  0  0  0  0  0  0  0  0  0  0
    5.6837   -1.8380   21.6902 H   0  0  0  0  0  0  0  0  0  0  0  0
    7.6730   -2.0695   22.6571 C   0  0  0  0  0  0  0  0  0  0  0  0
    7.5642   -3.0147   23.7744 C   0  0  0  0  0  0  0  0  0  0  0  0
    8.6728   -3.6850   24.3296 C   0  0  0  0  0  0  0  0  0  0  0  0
    9.6701   -3.5045   23.9323 H   0  0  0  0  0  0  0  0  0  0  0  0
    8.5074   -4.5979   25.3753 C   0  0  0  0  0  0  0  0  0  0  0  0
    9.3417   -5.1292   25.8236 H   0  0  0  0  0  0  0  0  0  0  0  0
    7.2230   -4.8371   25.8634 C   0  0  0  0  0  0  0  0  0  0  0  0
    7.0560   -5.7164   26.8644 F   0  0  0  0  0  0  0  0  0  0  0  0
    6.1051   -4.1899   25.3442 C   0  0  0  0  0  0  0  0  0  0  0  0
    5.1274   -4.4128   25.7578 H   0  0  0  0  0  0  0  0  0  0  0  0
    6.2863   -3.2775   24.3047 C   0  0  0  0  0  0  0  0  0  0  0  0
    5.4307   -2.7465   23.8952 H   0  0  0  0  0  0  0  0  0  0  0  0
    8.8449   -1.4152   22.3024 N   0  0  0  0  0  0  0  0  0  0  0  0
    9.7453   -1.4031   22.7492 H   0  0  0  0  0  0  0  0  0  0  0  0
    8.6522   -0.5173   21.3070 C   0  0  0  0  0  0  0  0  0  0  0  0
    9.8111    0.5447   20.7851 S   0  0  0  0  0  0  0  0  0  0  0  0
    5.4408    0.6455   20.1546 C   0  0  0  0  0  0  0  0  0  0  0  0
    5.0326    0.6345   21.1672 H   0  0  0  0  0  0  0  0  0  0  0  0
    4.8061    1.3101   19.1029 C   0  0  0  0  0  0  0  0  0  0  0  0
    3.8749    1.8435   19.2602 H   0  0  0  0  0  0  0  0  0  0  0  0
  1  2  1  0
  2  3  2  0
  3  4  1  0
  4  5  1  0
  4  6  2  0
  6  7  1  0
  7  8  1  0
  8  9  1  0
  8 10  2  0
 10 11  1  0
 11 12  2  0
 12 13  1  0
 12 14  1  0
 14 15  1  0
 14 16  2  0
 16 17  1  0
 16 18  1  0
 18 19  1  0
 18 20  2  0
 20 21  1  0
 10 22  1  0
 22 23  1  0
 22 24  1  0
 24 25  2  0
  6 26  1  0
 26 27  1  0
 26 28  2  0
 28 29  1  0
 28  2  1  0
 24  7  1  0
 20 11  1  0
M  END
>  <cnnaffinity>  (1) 
-5.39576

>  <filename>  (1) 
Fc1ccc(-c2cn(-c3cccnc3)c(=S)[nH]2)cc1

$$$$
