
     RDKit          3D

 31 33  0  0  0  0  0  0  0  0999 V2000
   10.4428   -2.2746   24.3817 F   0  0  0  0  0  0  0  0  0  0  0  0
    9.8582   -1.1609   24.8847 C   0  0  0  0  0  0  0  0  0  0  0  0
   10.6679   -0.1081   25.2913 C   0  0  0  0  0  0  0  0  0  0  0  0
   10.0554    1.0549   25.7645 C   0  0  0  0  0  0  0  0  0  0  0  0
    8.6630    1.1539   25.8344 C   0  0  0  0  0  0  0  0  0  0  0  0
    7.8713    0.0793   25.4188 C   0  0  0  0  0  0  0  0  0  0  0  0
    8.4594   -1.0924   24.9138 C   0  0  0  0  0  0  0  0  0  0  0  0
    7.6435   -2.1352   24.1706 C   0  0  0  0  0  0  0  0  0  0  0  0
    7.6270   -1.8254   22.7396 N   0  0  0  0  0  0  0  0  0  0  0  0
    8.6466   -2.0055   21.8436 C   0  0  0  0  0  0  0  0  0  0  0  0
    8.4235   -1.3862   20.7119 N   0  0  0  0  0  0  0  0  0  0  0  0
    7.2260   -0.7274   20.8825 C   0  0  0  0  0  0  0  0  0  0  0  0
    6.5973    0.0432   19.8139 C   0  0  0  0  0  0  0  0  0  0  0  0
    5.3872    0.7340   19.9999 C   0  0  0  0  0  0  0  0  0  0  0  0
    4.8262    1.3793   18.9033 C   0  0  0  0  0  0  0  0  0  0  0  0
    5.4903    1.3217   17.6716 C   0  0  0  0  0  0  0  0  0  0  0  0
    6.6517    0.6745   17.4812 N   0  0  0  0  0  0  0  0  0  0  0  0
    7.1855    0.0553   18.5381 C   0  0  0  0  0  0  0  0  0  0  0  0
    8.1203   -0.4799   18.3810 H   0  0  0  0  0  0  0  0  0  0  0  0
    5.0655    1.8024   16.7944 H   0  0  0  0  0  0  0  0  0  0  0  0
    3.8879    1.9162   18.9860 H   0  0  0  0  0  0  0  0  0  0  0  0
    4.8926    0.7595   20.9744 H   0  0  0  0  0  0  0  0  0  0  0  0
    6.7460   -0.9554   22.1394 C   0  0  0  0  0  0  0  0  0  0  0  0
    5.9122   -0.5365   22.6785 H   0  0  0  0  0  0  0  0  0  0  0  0
    9.5278   -2.5939   22.0861 H   0  0  0  0  0  0  0  0  0  0  0  0
    8.0402   -3.1439   24.3023 H   0  0  0  0  0  0  0  0  0  0  0  0
    6.6061   -2.1555   24.5177 H   0  0  0  0  0  0  0  0  0  0  0  0
    6.7824    0.1694   25.4463 H   0  0  0  0  0  0  0  0  0  0  0  0
    8.1995    2.0756   26.1745 H   0  0  0  0  0  0  0  0  0  0  0  0
   10.6716    1.8891   26.0750 H   0  0  0  0  0  0  0  0  0  0  0  0
   11.7454   -0.2001   25.1954 H   0  0  0  0  0  0  0  0  0  0  0  0
  1  2  1  0
  2  3  2  0
  3  4  1  0
  4  5  2  0
  5  6  1  0
  6  7  2  0
  7  8  1  0
  8  9  1  0
  9 10  1  0
 10 11  2  0
 11 12  1  0
 12 13  1  0
 13 14  2  0
 14 15  1  0
 15 16  2  0
 16 17  1  0
 17 18  2  0
 18 19  1  0
 16 20  1  0
 15 21  1  0
 14 22  1  0
 12 23  2  0
 23 24  1  0
 10 25  1  0
  8 26  1  0
  8 27  1  0
  6 28  1  0
  5 29  1  0
  4 30  1  0
  3 31  1  0
  7  2  1  0
 23  9  1  0
 18 13  1  0
M  END
>  <cnnaffinity>  (1) 
-5.05151

>  <filename>  (1) 
Fc1ccccc1Cn1cnc(-c2cccnc2)c1

$$$$
