
     RDKit          3D

 27 29  0  0  0  0  0  0  0  0999 V2000
    4.9671    2.1527   16.3369 H   0  0  0  0  0  0  0  0  0  0  0  0
    5.2166    1.6477   17.2653 C   0  0  0  0  0  0  0  0  0  0  0  0
    6.3407    0.9182   17.2377 N   0  0  0  0  0  0  0  0  0  0  0  0
    6.6841    0.2992   18.3651 C   0  0  0  0  0  0  0  0  0  0  0  0
    7.6102   -0.2732   18.3587 H   0  0  0  0  0  0  0  0  0  0  0  0
    5.9329    0.3619   19.5465 C   0  0  0  0  0  0  0  0  0  0  0  0
    6.5609   -0.2679   20.6937 C   0  0  0  0  0  0  0  0  0  0  0  0
    7.8289   -0.6222   20.7106 N   0  0  0  0  0  0  0  0  0  0  0  0
    8.0397   -0.9652   21.9980 C   0  0  0  0  0  0  0  0  0  0  0  0
    9.3700   -1.3756   22.4355 C   0  0  0  0  0  0  0  0  0  0  0  0
   10.4968   -0.6434   22.0468 C   0  0  0  0  0  0  0  0  0  0  0  0
   10.3349    0.6071   21.5987 F   0  0  0  0  0  0  0  0  0  0  0  0
   11.7726   -1.1861   22.1028 C   0  0  0  0  0  0  0  0  0  0  0  0
   12.6226   -0.5856   21.8087 H   0  0  0  0  0  0  0  0  0  0  0  0
   11.9141   -2.4975   22.5645 C   0  0  0  0  0  0  0  0  0  0  0  0
   12.8819   -2.9773   22.4810 H   0  0  0  0  0  0  0  0  0  0  0  0
   10.8372   -3.1765   23.1435 C   0  0  0  0  0  0  0  0  0  0  0  0
   10.9414   -4.1249   23.6598 H   0  0  0  0  0  0  0  0  0  0  0  0
    9.5805   -2.5917   23.0880 C   0  0  0  0  0  0  0  0  0  0  0  0
    8.5378   -3.2425   23.6099 F   0  0  0  0  0  0  0  0  0  0  0  0
    6.9810   -0.9171   22.7738 N   0  0  0  0  0  0  0  0  0  0  0  0
    6.0413   -0.4440   21.9145 N   0  0  0  0  0  0  0  0  0  0  0  0
    5.0787   -0.3821   22.2049 H   0  0  0  0  0  0  0  0  0  0  0  0
    4.7575    1.1244   19.5700 C   0  0  0  0  0  0  0  0  0  0  0  0
    4.1725    1.2661   20.4824 H   0  0  0  0  0  0  0  0  0  0  0  0
    4.3941    1.7707   18.3916 C   0  0  0  0  0  0  0  0  0  0  0  0
    3.5088    2.3929   18.3403 H   0  0  0  0  0  0  0  0  0  0  0  0
  1  2  1  0
  2  3  2  0
  3  4  1  0
  4  5  1  0
  4  6  2  0
  6  7  1  0
  7  8  2  0
  8  9  1  0
  9 10  1  0
 10 11  2  0
 11 12  1  0
 11 13  1  0
 13 14  1  0
 13 15  2  0
 15 16  1  0
 15 17  1  0
 17 18  1  0
 17 19  2  0
 19 20  1  0
  9 21  2  0
 21 22  1  0
 22 23  1  0
  6 24  1  0
 24 25  1  0
 24 26  2  0
 26 27  1  0
 26  2  1  0
 22  7  1  0
 19 10  1  0
M  END
>  <cnnaffinity>  (1) 
-5.4737

>  <filename>  (1) 
Fc1cccc(F)c1-c1n[nH]c(-c2cccnc2)n1

$$$$
