
     RDKit          3D

 31 33  0  0  0  0  0  0  0  0999 V2000
    4.9114    1.8186   16.9679 H   0  0  0  0  0  0  0  0  0  0  0  0
    5.3771    1.3110   17.8137 C   0  0  0  0  0  0  0  0  0  0  0  0
    6.5399    0.6947   17.5473 N   0  0  0  0  0  0  0  0  0  0  0  0
    7.1436    0.0622   18.5571 C   0  0  0  0  0  0  0  0  0  0  0  0
    8.1067   -0.3866   18.3149 H   0  0  0  0  0  0  0  0  0  0  0  0
    6.6402   -0.0114   19.8683 C   0  0  0  0  0  0  0  0  0  0  0  0
    7.3898   -0.6954   20.9378 C   0  0  0  0  0  0  0  0  0  0  0  0
    7.7737   -0.2477   22.1899 C   0  0  0  0  0  0  0  0  0  0  0  0
    7.6019    1.1450   22.7623 C   0  0  0  0  0  0  0  0  0  0  0  0
    8.5297    1.7096   22.5998 H   0  0  0  0  0  0  0  0  0  0  0  0
    6.8431    1.6913   22.1924 H   0  0  0  0  0  0  0  0  0  0  0  0
    7.2849    1.1457   24.2410 C   0  0  0  0  0  0  0  0  0  0  0  0
    8.2903    1.2983   25.2060 C   0  0  0  0  0  0  0  0  0  0  0  0
    9.3124    1.4731   24.8679 H   0  0  0  0  0  0  0  0  0  0  0  0
    7.9989    1.2309   26.5732 C   0  0  0  0  0  0  0  0  0  0  0  0
    8.7948    1.3595   27.2946 H   0  0  0  0  0  0  0  0  0  0  0  0
    6.6883    0.9945   27.0054 C   0  0  0  0  0  0  0  0  0  0  0  0
    6.4629    0.9596   28.0705 H   0  0  0  0  0  0  0  0  0  0  0  0
    5.6664    0.8304   26.0630 C   0  0  0  0  0  0  0  0  0  0  0  0
    4.6316    0.6427   26.3350 H   0  0  0  0  0  0  0  0  0  0  0  0
    5.9852    0.9351   24.7103 C   0  0  0  0  0  0  0  0  0  0  0  0
    4.9805    0.8768   23.8133 F   0  0  0  0  0  0  0  0  0  0  0  0
    8.4604   -1.3458   22.7599 C   0  0  0  0  0  0  0  0  0  0  0  0
    8.9217   -1.4241   23.7415 H   0  0  0  0  0  0  0  0  0  0  0  0
    8.5139   -2.3843   21.9333 N   0  0  0  0  0  0  0  0  0  0  0  0
    7.8702   -1.9614   20.8349 N   0  0  0  0  0  0  0  0  0  0  0  0
    7.7651   -2.5766   20.0396 H   0  0  0  0  0  0  0  0  0  0  0  0
    5.4260    0.6442   20.1285 C   0  0  0  0  0  0  0  0  0  0  0  0
    5.0165    0.6301   21.1400 H   0  0  0  0  0  0  0  0  0  0  0  0
    4.7858    1.3136   19.0807 C   0  0  0  0  0  0  0  0  0  0  0  0
    3.8591    1.8526   19.2373 H   0  0  0  0  0  0  0  0  0  0  0  0
  1  2  1  0
  2  3  2  0
  3  4  1  0
  4  5  1  0
  4  6  2  0
  6  7  1  0
  7  8  2  0
  8  9  1  0
  9 10  1  0
  9 11  1  0
  9 12  1  0
 12 13  2  0
 13 14  1  0
 13 15  1  0
 15 16  1  0
 15 17  2  0
 17 18  1  0
 17 19  1  0
 19 20  1  0
 19 21  2  0
 21 22  1  0
  8 23  1  0
 23 24  1  0
 23 25  2  0
 25 26  1  0
 26 27  1  0
  6 28  1  0
 28 29  1  0
 28 30  2  0
 30 31  1  0
 30  2  1  0
 26  7  1  0
 21 12  1  0
M  END
>  <cnnaffinity>  (1) 
-5.00088

>  <filename>  (1) 
Fc1ccccc1Cc1cn[nH]c1-c1cccnc1

$$$$
