
     RDKit          3D

 29 31  0  0  0  0  0  0  0  0999 V2000
    4.7875    1.9985   16.7905 H   0  0  0  0  0  0  0  0  0  0  0  0
    5.3058    1.4662   17.5832 C   0  0  0  0  0  0  0  0  0  0  0  0
    6.4516    0.8536   17.2481 N   0  0  0  0  0  0  0  0  0  0  0  0
    7.1157    0.2241   18.2192 C   0  0  0  0  0  0  0  0  0  0  0  0
    8.0429   -0.2545   17.9064 H   0  0  0  0  0  0  0  0  0  0  0  0
    6.6837    0.1567   19.5535 C   0  0  0  0  0  0  0  0  0  0  0  0
    7.4406   -0.6067   20.5512 C   0  0  0  0  0  0  0  0  0  0  0  0
    6.9186   -0.7711   21.8297 N   0  0  0  0  0  0  0  0  0  0  0  0
    7.7777   -1.5424   22.4062 C   0  0  0  0  0  0  0  0  0  0  0  0
    7.6533   -1.9478   23.6880 N   0  0  0  0  0  0  0  0  0  0  0  0
    6.8163   -1.5470   24.0706 H   0  0  0  0  0  0  0  0  0  0  0  0
    8.3810   -2.9277   24.3922 C   0  0  0  0  0  0  0  0  0  0  0  0
    8.7535   -4.1441   23.8029 C   0  0  0  0  0  0  0  0  0  0  0  0
    8.5297   -4.2972   22.7537 H   0  0  0  0  0  0  0  0  0  0  0  0
    9.4034   -5.1231   24.5664 C   0  0  0  0  0  0  0  0  0  0  0  0
    9.5974   -6.1236   24.2010 H   0  0  0  0  0  0  0  0  0  0  0  0
    9.7645   -4.8197   25.8744 C   0  0  0  0  0  0  0  0  0  0  0  0
   10.4649   -5.7130   26.5901 F   0  0  0  0  0  0  0  0  0  0  0  0
    9.4301   -3.6098   26.4707 C   0  0  0  0  0  0  0  0  0  0  0  0
    9.7361   -3.4622   27.4949 H   0  0  0  0  0  0  0  0  0  0  0  0
    8.7028   -2.6709   25.7299 C   0  0  0  0  0  0  0  0  0  0  0  0
    8.3827   -1.7194   26.1439 H   0  0  0  0  0  0  0  0  0  0  0  0
    8.8231   -1.9169   21.6644 O   0  0  0  0  0  0  0  0  0  0  0  0
    8.6100   -1.2855   20.4533 C   0  0  0  0  0  0  0  0  0  0  0  0
    9.3780   -1.4272   19.7068 H   0  0  0  0  0  0  0  0  0  0  0  0
    5.4739    0.7926   19.8838 C   0  0  0  0  0  0  0  0  0  0  0  0
    5.1139    0.7458   20.9137 H   0  0  0  0  0  0  0  0  0  0  0  0
    4.7737    1.4511   18.8780 C   0  0  0  0  0  0  0  0  0  0  0  0
    3.8363    1.9517   19.0949 H   0  0  0  0  0  0  0  0  0  0  0  0
  1  2  1  0
  2  3  2  0
  3  4  1  0
  4  5  1  0
  4  6  2  0
  6  7  1  0
  7  8  1  0
  8  9  2  0
  9 10  1  0
 10 11  1  0
 10 12  1  0
 12 13  2  0
 13 14  1  0
 13 15  1  0
 15 16  1  0
 15 17  2  0
 17 18  1  0
 17 19  1  0
 19 20  1  0
 19 21  2  0
 21 22  1  0
  9 23  1  0
 23 24  1  0
 24 25  1  0
  6 26  1  0
 26 27  1  0
 26 28  2  0
 28 29  1  0
 28  2  1  0
 24  7  2  0
 21 12  1  0
M  END
>  <cnnaffinity>  (1) 
-4.32508

>  <filename>  (1) 
Fc1ccc(Nc2nc(-c3cccnc3)co2)cc1

$$$$
