
     RDKit          3D

 30 32  0  0  0  0  0  0  0  0999 V2000
    4.9207    1.8139   16.9940 H   0  0  0  0  0  0  0  0  0  0  0  0
    5.3918    1.2980   17.8281 C   0  0  0  0  0  0  0  0  0  0  0  0
    6.5525    0.6786   17.5560 N   0  0  0  0  0  0  0  0  0  0  0  0
    7.1664    0.0504   18.5690 C   0  0  0  0  0  0  0  0  0  0  0  0
    8.1149   -0.4304   18.3417 H   0  0  0  0  0  0  0  0  0  0  0  0
    6.6636   -0.0177   19.8947 C   0  0  0  0  0  0  0  0  0  0  0  0
    7.3308   -0.6745   20.9367 N   0  0  0  0  0  0  0  0  0  0  0  0
    6.7831   -1.0993   21.6712 H   0  0  0  0  0  0  0  0  0  0  0  0
    8.7117   -0.7166   21.1228 C   0  0  0  0  0  0  0  0  0  0  0  0
    9.7030    0.1868   20.6687 C   0  0  0  0  0  0  0  0  0  0  0  0
    9.5665    1.0476   20.0314 H   0  0  0  0  0  0  0  0  0  0  0  0
   10.9097   -0.1473   21.1142 N   0  0  0  0  0  0  0  0  0  0  0  0
   10.7073   -1.2513   21.8452 N   0  0  0  0  0  0  0  0  0  0  0  0
   11.4940   -1.6832   22.3154 H   0  0  0  0  0  0  0  0  0  0  0  0
    9.4015   -1.6411   21.8956 C   0  0  0  0  0  0  0  0  0  0  0  0
    8.9237   -2.8278   22.6397 C   0  0  0  0  0  0  0  0  0  0  0  0
    7.9981   -3.7410   22.0972 C   0  0  0  0  0  0  0  0  0  0  0  0
    7.4939   -3.5298   20.8700 F   0  0  0  0  0  0  0  0  0  0  0  0
    7.5242   -4.8618   22.7744 C   0  0  0  0  0  0  0  0  0  0  0  0
    6.8268   -5.4972   22.2406 H   0  0  0  0  0  0  0  0  0  0  0  0
    7.9279   -5.0832   24.0947 C   0  0  0  0  0  0  0  0  0  0  0  0
    7.5344   -5.9322   24.6570 H   0  0  0  0  0  0  0  0  0  0  0  0
    8.8241   -4.1916   24.6997 C   0  0  0  0  0  0  0  0  0  0  0  0
    9.1657   -4.2921   25.7249 H   0  0  0  0  0  0  0  0  0  0  0  0
    9.3068   -3.1086   23.9686 C   0  0  0  0  0  0  0  0  0  0  0  0
   10.1609   -2.2707   24.5901 F   0  0  0  0  0  0  0  0  0  0  0  0
    5.4421    0.6220   20.1480 C   0  0  0  0  0  0  0  0  0  0  0  0
    5.0372    0.6103   21.1605 H   0  0  0  0  0  0  0  0  0  0  0  0
    4.8023    1.2971   19.1006 C   0  0  0  0  0  0  0  0  0  0  0  0
    3.8732    1.8375   19.2602 H   0  0  0  0  0  0  0  0  0  0  0  0
  1  2  1  0
  2  3  2  0
  3  4  1  0
  4  5  1  0
  4  6  2  0
  6  7  1  0
  7  8  1  0
  7  9  1  0
  9 10  1  0
 10 11  1  0
 10 12  2  0
 12 13  1  0
 13 14  1  0
 13 15  1  0
 15 16  1  0
 16 17  2  0
 17 18  1  0
 17 19  1  0
 19 20  1  0
 19 21  2  0
 21 22  1  0
 21 23  1  0
 23 24  1  0
 23 25  2  0
 25 26  1  0
  6 27  1  0
 27 28  1  0
 27 29  2  0
 29 30  1  0
 29  2  1  0
 15  9  2  0
 25 16  1  0
M  END
>  <cnnaffinity>  (1) 
-5.68658

>  <filename>  (1) 
Fc1cccc(F)c1-c1[nH]ncc1Nc1cccnc1

$$$$
