
     RDKit          3D

 30 32  0  0  0  0  0  0  0  0999 V2000
    4.9250    1.7761   17.0039 H   0  0  0  0  0  0  0  0  0  0  0  0
    5.4076    1.2867   17.8479 C   0  0  0  0  0  0  0  0  0  0  0  0
    6.5732    0.6738   17.5932 N   0  0  0  0  0  0  0  0  0  0  0  0
    7.1744    0.0427   18.6050 C   0  0  0  0  0  0  0  0  0  0  0  0
    8.1222   -0.4355   18.3712 H   0  0  0  0  0  0  0  0  0  0  0  0
    6.6598   -0.0091   19.9069 C   0  0  0  0  0  0  0  0  0  0  0  0
    7.4076   -0.7242   20.9634 C   0  0  0  0  0  0  0  0  0  0  0  0
    8.1043   -1.8082   20.5920 N   0  0  0  0  0  0  0  0  0  0  0  0
    8.7407   -2.4890   21.5517 C   0  0  0  0  0  0  0  0  0  0  0  0
    9.2783   -3.3714   21.2263 H   0  0  0  0  0  0  0  0  0  0  0  0
    8.7703   -2.1182   22.8895 C   0  0  0  0  0  0  0  0  0  0  0  0
    9.3164   -2.7122   23.6109 H   0  0  0  0  0  0  0  0  0  0  0  0
    8.0763   -0.9677   23.2797 C   0  0  0  0  0  0  0  0  0  0  0  0
    8.0662   -0.5084   24.6898 C   0  0  0  0  0  0  0  0  0  0  0  0
    6.8874   -0.0115   25.2679 C   0  0  0  0  0  0  0  0  0  0  0  0
    5.9616    0.0274   24.7026 H   0  0  0  0  0  0  0  0  0  0  0  0
    6.9139    0.4075   26.5926 C   0  0  0  0  0  0  0  0  0  0  0  0
    5.7879    0.8803   27.1424 F   0  0  0  0  0  0  0  0  0  0  0  0
    8.0651    0.3629   27.3754 C   0  0  0  0  0  0  0  0  0  0  0  0
    8.0664    0.6996   28.4051 H   0  0  0  0  0  0  0  0  0  0  0  0
    9.2105   -0.1406   26.7658 C   0  0  0  0  0  0  0  0  0  0  0  0
   10.3370   -0.2589   27.4733 F   0  0  0  0  0  0  0  0  0  0  0  0
    9.2413   -0.5692   25.4480 C   0  0  0  0  0  0  0  0  0  0  0  0
   10.1766   -0.9277   25.0325 H   0  0  0  0  0  0  0  0  0  0  0  0
    7.3875   -0.2732   22.2850 C   0  0  0  0  0  0  0  0  0  0  0  0
    6.8639    0.6428   22.5232 H   0  0  0  0  0  0  0  0  0  0  0  0
    5.4453    0.6478   20.1639 C   0  0  0  0  0  0  0  0  0  0  0  0
    5.0003    0.6320   21.1623 H   0  0  0  0  0  0  0  0  0  0  0  0
    4.8107    1.3025   19.1121 C   0  0  0  0  0  0  0  0  0  0  0  0
    3.8806    1.8385   19.2613 H   0  0  0  0  0  0  0  0  0  0  0  0
  1  2  1  0
  2  3  2  0
  3  4  1  0
  4  5  1  0
  4  6  2  0
  6  7  1  0
  7  8  2  0
  8  9  1  0
  9 10  1  0
  9 11  2  0
 11 12  1  0
 11 13  1  0
 13 14  1  0
 14 15  2  0
 15 16  1  0
 15 17  1  0
 17 18  1  0
 17 19  2  0
 19 20  1  0
 19 21  1  0
 21 22  1  0
 21 23  2  0
 23 24  1  0
 13 25  2  0
 25 26  1  0
  6 27  1  0
 27 28  1  0
 27 29  2  0
 29 30  1  0
 29  2  1  0
 25  7  1  0
 23 14  1  0
M  END
>  <cnnaffinity>  (1) 
-5.15273

>  <filename>  (1) 
Fc1cc(F)cc(-c2ccnc(-c3cccnc3)c2)c1

$$$$
