
     RDKit          3D

 30 33  0  0  0  0  0  0  0  0999 V2000
    5.1227    1.6791   17.1199 H   0  0  0  0  0  0  0  0  0  0  0  0
    5.5323    1.1831   17.9979 C   0  0  0  0  0  0  0  0  0  0  0  0
    6.6817    0.5228   17.7993 N   0  0  0  0  0  0  0  0  0  0  0  0
    7.2363   -0.0693   18.8539 C   0  0  0  0  0  0  0  0  0  0  0  0
    8.1635   -0.6049   18.6605 H   0  0  0  0  0  0  0  0  0  0  0  0
    6.7026   -0.0399   20.1508 C   0  0  0  0  0  0  0  0  0  0  0  0
    7.4766   -0.6781   21.2271 C   0  0  0  0  0  0  0  0  0  0  0  0
    7.1487   -0.5800   22.4745 N   0  0  0  0  0  0  0  0  0  0  0  0
    8.0449   -1.2829   23.2246 N   0  0  0  0  0  0  0  0  0  0  0  0
    8.1720   -1.5768   24.5861 C   0  0  0  0  0  0  0  0  0  0  0  0
    7.1002   -1.2534   25.5465 C   0  0  0  0  0  0  0  0  0  0  0  0
    5.7880   -1.2586   25.0540 C   0  0  0  0  0  0  0  0  0  0  0  0
    5.6789   -1.4972   24.0109 H   0  0  0  0  0  0  0  0  0  0  0  0
    4.7354   -0.8965   25.8733 C   0  0  0  0  0  0  0  0  0  0  0  0
    3.4916   -0.8467   25.3775 F   0  0  0  0  0  0  0  0  0  0  0  0
    4.9230   -0.5486   27.2029 C   0  0  0  0  0  0  0  0  0  0  0  0
    4.0868   -0.2546   27.8251 H   0  0  0  0  0  0  0  0  0  0  0  0
    6.2234   -0.6172   27.6894 C   0  0  0  0  0  0  0  0  0  0  0  0
    6.3871   -0.3229   28.9854 F   0  0  0  0  0  0  0  0  0  0  0  0
    7.3235   -0.9716   26.9073 C   0  0  0  0  0  0  0  0  0  0  0  0
    8.3079   -1.0101   27.3593 H   0  0  0  0  0  0  0  0  0  0  0  0
    9.2925   -2.3790   24.6295 C   0  0  0  0  0  0  0  0  0  0  0  0
    9.7312   -2.8728   25.4893 H   0  0  0  0  0  0  0  0  0  0  0  0
    9.8498   -2.5838   23.3896 N   0  0  0  0  0  0  0  0  0  0  0  0
    9.0633   -1.9181   22.5883 C   0  0  0  0  0  0  0  0  0  0  0  0
    8.9356   -1.6490   20.8905 S   0  0  0  0  0  0  0  0  0  0  0  0
    5.4633    0.6118   20.3400 C   0  0  0  0  0  0  0  0  0  0  0  0
    4.9718    0.6203   21.3157 H   0  0  0  0  0  0  0  0  0  0  0  0
    4.8804    1.2394   19.2353 C   0  0  0  0  0  0  0  0  0  0  0  0
    3.9429    1.7846   19.3057 H   0  0  0  0  0  0  0  0  0  0  0  0
  1  2  1  0
  2  3  2  0
  3  4  1  0
  4  5  1  0
  4  6  2  0
  6  7  1  0
  7  8  2  0
  8  9  1  0
  9 10  1  0
 10 11  1  0
 11 12  2  0
 12 13  1  0
 12 14  1  0
 14 15  1  0
 14 16  2  0
 16 17  1  0
 16 18  1  0
 18 19  1  0
 18 20  2  0
 20 21  1  0
 10 22  2  0
 22 23  1  0
 22 24  1  0
 24 25  2  0
 25 26  1  0
  6 27  1  0
 27 28  1  0
 27 29  2  0
 29 30  1  0
 29  2  1  0
 26  7  1  0
 25  9  1  0
 20 11  1  0
M  END
>  <cnnaffinity>  (1) 
-5.27666

>  <filename>  (1) 
Fc1cc(F)cc(-c2cnc3sc(-c4cccnc4)nn23)c1

$$$$
