
     RDKit          3D

 28 30  0  0  0  0  0  0  0  0999 V2000
    4.9184    1.7809   16.9930 H   0  0  0  0  0  0  0  0  0  0  0  0
    5.4006    1.2931   17.8359 C   0  0  0  0  0  0  0  0  0  0  0  0
    6.5653    0.6771   17.5770 N   0  0  0  0  0  0  0  0  0  0  0  0
    7.1701    0.0664   18.5999 C   0  0  0  0  0  0  0  0  0  0  0  0
    8.1112   -0.4257   18.3628 H   0  0  0  0  0  0  0  0  0  0  0  0
    6.6612    0.0056   19.9127 C   0  0  0  0  0  0  0  0  0  0  0  0
    7.4024   -0.7073   20.9650 C   0  0  0  0  0  0  0  0  0  0  0  0
    6.6201   -1.2425   22.4167 S   0  0  0  0  0  0  0  0  0  0  0  0
    8.0889   -1.9001   23.0472 C   0  0  0  0  0  0  0  0  0  0  0  0
    8.1519   -2.5715   24.3575 C   0  0  0  0  0  0  0  0  0  0  0  0
    7.4122   -2.1528   25.4834 C   0  0  0  0  0  0  0  0  0  0  0  0
    6.6048   -1.0969   25.3667 F   0  0  0  0  0  0  0  0  0  0  0  0
    7.4788   -2.7763   26.7251 C   0  0  0  0  0  0  0  0  0  0  0  0
    6.8695   -2.3917   27.5356 H   0  0  0  0  0  0  0  0  0  0  0  0
    8.3240   -3.8746   26.8836 C   0  0  0  0  0  0  0  0  0  0  0  0
    8.3902   -4.3724   27.8428 H   0  0  0  0  0  0  0  0  0  0  0  0
    9.0831   -4.3416   25.8112 C   0  0  0  0  0  0  0  0  0  0  0  0
    9.7501   -5.1937   25.9000 H   0  0  0  0  0  0  0  0  0  0  0  0
    8.9762   -3.6892   24.5888 C   0  0  0  0  0  0  0  0  0  0  0  0
    9.7072   -4.1777   23.5723 F   0  0  0  0  0  0  0  0  0  0  0  0
    9.1247   -1.7022   22.1693 C   0  0  0  0  0  0  0  0  0  0  0  0
   10.1402   -2.0264   22.3786 H   0  0  0  0  0  0  0  0  0  0  0  0
    8.7349   -1.0221   20.9906 C   0  0  0  0  0  0  0  0  0  0  0  0
    9.4328   -0.7579   20.1986 H   0  0  0  0  0  0  0  0  0  0  0  0
    5.4356    0.6532   20.1574 C   0  0  0  0  0  0  0  0  0  0  0  0
    4.9993    0.6456   21.1594 H   0  0  0  0  0  0  0  0  0  0  0  0
    4.8062    1.3104   19.1034 C   0  0  0  0  0  0  0  0  0  0  0  0
    3.8752    1.8427   19.2573 H   0  0  0  0  0  0  0  0  0  0  0  0
  1  2  1  0
  2  3  2  0
  3  4  1  0
  4  5  1  0
  4  6  2  0
  6  7  1  0
  7  8  1  0
  8  9  1  0
  9 10  1  0
 10 11  2  0
 11 12  1  0
 11 13  1  0
 13 14  1  0
 13 15  2  0
 15 16  1  0
 15 17  1  0
 17 18  1  0
 17 19  2  0
 19 20  1  0
  9 21  2  0
 21 22  1  0
 21 23  1  0
 23 24  1  0
  6 25  1  0
 25 26  1  0
 25 27  2  0
 27 28  1  0
 27  2  1  0
 23  7  2  0
 19 10  1  0
M  END
>  <cnnaffinity>  (1) 
-4.82493

>  <filename>  (1) 
Fc1cccc(F)c1-c1ccc(-c2cccnc2)s1

$$$$
