
     RDKit          3D

 30 32  0  0  0  0  0  0  0  0999 V2000
    4.9386    1.7762   16.9981 H   0  0  0  0  0  0  0  0  0  0  0  0
    5.4123    1.2875   17.8471 C   0  0  0  0  0  0  0  0  0  0  0  0
    6.5773    0.6640   17.6082 N   0  0  0  0  0  0  0  0  0  0  0  0
    7.1722    0.0536   18.6354 C   0  0  0  0  0  0  0  0  0  0  0  0
    8.1107   -0.4406   18.3957 H   0  0  0  0  0  0  0  0  0  0  0  0
    6.6488    0.0401   19.9321 C   0  0  0  0  0  0  0  0  0  0  0  0
    7.3826   -0.6975   20.9687 C   0  0  0  0  0  0  0  0  0  0  0  0
    8.0105   -1.7775   20.7017 N   0  0  0  0  0  0  0  0  0  0  0  0
    8.5099   -2.3274   21.9579 C   0  0  0  0  0  0  0  0  0  0  0  0
    8.1402   -3.3481   22.1052 H   0  0  0  0  0  0  0  0  0  0  0  0
    9.6007   -2.4043   21.9109 H   0  0  0  0  0  0  0  0  0  0  0  0
    8.0376   -1.3741   23.0751 C   0  0  0  0  0  0  0  0  0  0  0  0
    8.8691   -0.9678   23.6636 H   0  0  0  0  0  0  0  0  0  0  0  0
    7.3503   -1.8588   23.7829 H   0  0  0  0  0  0  0  0  0  0  0  0
    7.3760   -0.3161   22.3070 N   0  0  0  0  0  0  0  0  0  0  0  0
    7.1607    0.9711   22.8452 C   0  0  0  0  0  0  0  0  0  0  0  0
    7.5600    2.1273   22.1557 C   0  0  0  0  0  0  0  0  0  0  0  0
    8.0159    2.0122   21.1805 H   0  0  0  0  0  0  0  0  0  0  0  0
    7.3457    3.3982   22.6980 C   0  0  0  0  0  0  0  0  0  0  0  0
    7.6346    4.3049   22.1749 H   0  0  0  0  0  0  0  0  0  0  0  0
    6.7414    3.5247   23.9422 C   0  0  0  0  0  0  0  0  0  0  0  0
    6.5362    4.7361   24.4775 F   0  0  0  0  0  0  0  0  0  0  0  0
    6.3551    2.3739   24.6392 C   0  0  0  0  0  0  0  0  0  0  0  0
    5.7879    2.5076   25.8440 F   0  0  0  0  0  0  0  0  0  0  0  0
    6.5609    1.1071   24.1079 C   0  0  0  0  0  0  0  0  0  0  0  0
    6.2468    0.2431   24.6815 H   0  0  0  0  0  0  0  0  0  0  0  0
    5.4152    0.6629   20.1689 C   0  0  0  0  0  0  0  0  0  0  0  0
    4.9811    0.6551   21.1730 H   0  0  0  0  0  0  0  0  0  0  0  0
    4.7985    1.3076   19.1043 C   0  0  0  0  0  0  0  0  0  0  0  0
    3.8691    1.8436   19.2483 H   0  0  0  0  0  0  0  0  0  0  0  0
  1  2  1  0
  2  3  2  0
  3  4  1  0
  4  5  1  0
  4  6  2  0
  6  7  1  0
  7  8  2  0
  8  9  1  0
  9 10  1  0
  9 11  1  0
  9 12  1  0
 12 13  1  0
 12 14  1  0
 12 15  1  0
 15 16  1  0
 16 17  2  0
 17 18  1  0
 17 19  1  0
 19 20  1  0
 19 21  2  0
 21 22  1  0
 21 23  1  0
 23 24  1  0
 23 25  2  0
 25 26  1  0
  6 27  1  0
 27 28  1  0
 27 29  2  0
 29 30  1  0
 29  2  1  0
 15  7  1  0
 25 16  1  0
M  END
>  <cnnaffinity>  (1) 
-5.13496

>  <filename>  (1) 
Fc1ccc(N2CCN=C2c2cccnc2)cc1F

$$$$
