
     RDKit          3D

 28 30  0  0  0  0  0  0  0  0999 V2000
    4.9221    1.8012   16.9700 H   0  0  0  0  0  0  0  0  0  0  0  0
    5.3958    1.3029   17.8178 C   0  0  0  0  0  0  0  0  0  0  0  0
    6.5605    0.6827   17.5694 N   0  0  0  0  0  0  0  0  0  0  0  0
    7.1746    0.0701   18.5899 C   0  0  0  0  0  0  0  0  0  0  0  0
    8.1090   -0.4225   18.3275 H   0  0  0  0  0  0  0  0  0  0  0  0
    6.6710    0.0221   19.9042 C   0  0  0  0  0  0  0  0  0  0  0  0
    7.3292   -0.7009   20.9986 C   0  0  0  0  0  0  0  0  0  0  0  0
    6.7922   -1.2508   22.1019 C   0  0  0  0  0  0  0  0  0  0  0  0
    5.7644   -1.3353   22.3783 H   0  0  0  0  0  0  0  0  0  0  0  0
    7.8000   -1.8554   22.8441 N   0  0  0  0  0  0  0  0  0  0  0  0
    7.6164   -2.5185   24.0826 C   0  0  0  0  0  0  0  0  0  0  0  0
    6.5186   -3.2700   24.1686 N   0  0  0  0  0  0  0  0  0  0  0  0
    6.2944   -3.9242   25.3166 C   0  0  0  0  0  0  0  0  0  0  0  0
    5.4002   -4.5380   25.3791 H   0  0  0  0  0  0  0  0  0  0  0  0
    7.1480   -3.8239   26.4134 C   0  0  0  0  0  0  0  0  0  0  0  0
    6.8695   -4.5014   27.5362 F   0  0  0  0  0  0  0  0  0  0  0  0
    8.2825   -3.0174   26.3432 C   0  0  0  0  0  0  0  0  0  0  0  0
    8.9464   -2.9451   27.2015 H   0  0  0  0  0  0  0  0  0  0  0  0
    8.5167   -2.3409   25.1423 C   0  0  0  0  0  0  0  0  0  0  0  0
    9.3702   -1.6943   24.9867 H   0  0  0  0  0  0  0  0  0  0  0  0
    8.9972   -1.7107   22.1824 C   0  0  0  0  0  0  0  0  0  0  0  0
   10.5216   -2.2395   22.5382 S   0  0  0  0  0  0  0  0  0  0  0  0
    8.6771   -1.0127   21.0633 N   0  0  0  0  0  0  0  0  0  0  0  0
    9.4238   -0.7530   20.4447 H   0  0  0  0  0  0  0  0  0  0  0  0
    5.4439    0.6695   20.1345 C   0  0  0  0  0  0  0  0  0  0  0  0
    5.0109    0.6676   21.1338 H   0  0  0  0  0  0  0  0  0  0  0  0
    4.8003    1.3218   19.0829 C   0  0  0  0  0  0  0  0  0  0  0  0
    3.8645    1.8509   19.2285 H   0  0  0  0  0  0  0  0  0  0  0  0
  1  2  1  0
  2  3  2  0
  3  4  1  0
  4  5  1  0
  4  6  2  0
  6  7  1  0
  7  8  2  0
  8  9  1  0
  8 10  1  0
 10 11  1  0
 11 12  2  0
 12 13  1  0
 13 14  1  0
 13 15  2  0
 15 16  1  0
 15 17  1  0
 17 18  1  0
 17 19  2  0
 19 20  1  0
 10 21  1  0
 21 22  2  0
 21 23  1  0
 23 24  1  0
  6 25  1  0
 25 26  1  0
 25 27  2  0
 27 28  1  0
 27  2  1  0
 23  7  1  0
 19 11  1  0
M  END
>  <cnnaffinity>  (1) 
-5.57682

>  <filename>  (1) 
Fc1ccc(-n2cc(-c3cccnc3)[nH]c2=S)nc1

$$$$
