
     RDKit          3D

 30 33  0  0  0  0  0  0  0  0999 V2000
    4.9496    1.7803   16.9813 H   0  0  0  0  0  0  0  0  0  0  0  0
    5.4029    1.2862   17.8347 C   0  0  0  0  0  0  0  0  0  0  0  0
    6.5630    0.6549   17.6002 N   0  0  0  0  0  0  0  0  0  0  0  0
    7.1589    0.0784   18.6462 C   0  0  0  0  0  0  0  0  0  0  0  0
    8.1059   -0.4162   18.4253 H   0  0  0  0  0  0  0  0  0  0  0  0
    6.6547    0.1020   19.9637 C   0  0  0  0  0  0  0  0  0  0  0  0
    7.4260   -0.5896   21.0116 C   0  0  0  0  0  0  0  0  0  0  0  0
    8.2892   -1.6153   20.8448 C   0  0  0  0  0  0  0  0  0  0  0  0
    8.7085   -1.9757   19.9261 H   0  0  0  0  0  0  0  0  0  0  0  0
    8.8641   -2.3045   22.3310 S   0  0  0  0  0  0  0  0  0  0  0  0
    8.0752   -1.0302   23.2032 C   0  0  0  0  0  0  0  0  0  0  0  0
    8.1012   -0.5313   24.4117 N   0  0  0  0  0  0  0  0  0  0  0  0
    7.3384    0.5870   24.2567 C   0  0  0  0  0  0  0  0  0  0  0  0
    7.0878    1.5286   25.3544 C   0  0  0  0  0  0  0  0  0  0  0  0
    7.6242    1.3508   26.6421 C   0  0  0  0  0  0  0  0  0  0  0  0
    8.4037    0.3067   26.9191 F   0  0  0  0  0  0  0  0  0  0  0  0
    7.3773    2.2350   27.6880 C   0  0  0  0  0  0  0  0  0  0  0  0
    7.8257    2.0203   28.6506 H   0  0  0  0  0  0  0  0  0  0  0  0
    6.5698    3.3471   27.4597 C   0  0  0  0  0  0  0  0  0  0  0  0
    6.3604    4.0379   28.2668 H   0  0  0  0  0  0  0  0  0  0  0  0
    6.0230    3.5751   26.1991 C   0  0  0  0  0  0  0  0  0  0  0  0
    5.3942    4.4282   25.9773 H   0  0  0  0  0  0  0  0  0  0  0  0
    6.2891    2.6710   25.1761 C   0  0  0  0  0  0  0  0  0  0  0  0
    5.7432    2.9297   23.9889 F   0  0  0  0  0  0  0  0  0  0  0  0
    6.8436    0.7943   23.0358 N   0  0  0  0  0  0  0  0  0  0  0  0
    7.3268   -0.2778   22.3686 N   0  0  0  0  0  0  0  0  0  0  0  0
    5.4201    0.7478   20.1819 C   0  0  0  0  0  0  0  0  0  0  0  0
    4.9902    0.7919   21.1859 H   0  0  0  0  0  0  0  0  0  0  0  0
    4.7866    1.3379   19.0888 C   0  0  0  0  0  0  0  0  0  0  0  0
    3.8365    1.8497   19.1948 H   0  0  0  0  0  0  0  0  0  0  0  0
  1  2  1  0
  2  3  2  0
  3  4  1  0
  4  5  1  0
  4  6  2  0
  6  7  1  0
  7  8  2  0
  8  9  1  0
  8 10  1  0
 10 11  1  0
 11 12  2  0
 12 13  1  0
 13 14  1  0
 14 15  2  0
 15 16  1  0
 15 17  1  0
 17 18  1  0
 17 19  2  0
 19 20  1  0
 19 21  1  0
 21 22  1  0
 21 23  2  0
 23 24  1  0
 13 25  2  0
 25 26  1  0
  6 27  1  0
 27 28  1  0
 27 29  2  0
 29 30  1  0
 29  2  1  0
 26  7  1  0
 26 11  1  0
 23 14  1  0
M  END
>  <cnnaffinity>  (1) 
-5.41014

>  <filename>  (1) 
Fc1cccc(F)c1-c1nc2scc(-c3cccnc3)n2n1

$$$$
