
     RDKit          3D

 35 38  0  0  0  0  0  0  0  0999 V2000
    4.9662    1.8529   16.9458 H   0  0  0  0  0  0  0  0  0  0  0  0
    5.4009    1.2990   17.7772 C   0  0  0  0  0  0  0  0  0  0  0  0
    6.5485    0.6475   17.5282 N   0  0  0  0  0  0  0  0  0  0  0  0
    7.1369    0.0060   18.5442 C   0  0  0  0  0  0  0  0  0  0  0  0
    8.0690   -0.5078   18.3071 H   0  0  0  0  0  0  0  0  0  0  0  0
    6.6285   -0.0093   19.8566 C   0  0  0  0  0  0  0  0  0  0  0  0
    7.3811   -0.6500   20.9461 C   0  0  0  0  0  0  0  0  0  0  0  0
    8.1335   -1.7295   20.7368 N   0  0  0  0  0  0  0  0  0  0  0  0
    8.6167   -2.0180   21.9408 N   0  0  0  0  0  0  0  0  0  0  0  0
    8.2700   -1.1819   22.9184 C   0  0  0  0  0  0  0  0  0  0  0  0
    7.4391   -0.2512   22.3236 C   0  0  0  0  0  0  0  0  0  0  0  0
    7.0117    0.9851   22.9643 C   0  0  0  0  0  0  0  0  0  0  0  0
    7.2493    2.2266   22.3555 C   0  0  0  0  0  0  0  0  0  0  0  0
    7.7094    2.2397   21.3726 H   0  0  0  0  0  0  0  0  0  0  0  0
    6.9497    3.4254   22.9927 C   0  0  0  0  0  0  0  0  0  0  0  0
    7.1744    4.3851   22.5404 H   0  0  0  0  0  0  0  0  0  0  0  0
    6.3768    3.3654   24.2594 C   0  0  0  0  0  0  0  0  0  0  0  0
    6.0729    4.5098   24.8844 F   0  0  0  0  0  0  0  0  0  0  0  0
    6.1126    2.1646   24.9115 C   0  0  0  0  0  0  0  0  0  0  0  0
    5.6724    2.1274   25.9003 H   0  0  0  0  0  0  0  0  0  0  0  0
    6.4553    0.9952   24.2484 C   0  0  0  0  0  0  0  0  0  0  0  0
    6.2390   -0.1739   24.8828 F   0  0  0  0  0  0  0  0  0  0  0  0
    9.0876   -1.4345   24.1500 C   0  0  0  0  0  0  0  0  0  0  0  0
    9.6924   -0.5611   24.4257 H   0  0  0  0  0  0  0  0  0  0  0  0
    8.4500   -1.6470   25.0039 H   0  0  0  0  0  0  0  0  0  0  0  0
    9.9795   -2.6368   23.7299 C   0  0  0  0  0  0  0  0  0  0  0  0
    9.8815   -3.4842   24.4069 H   0  0  0  0  0  0  0  0  0  0  0  0
   11.0152   -2.3217   23.7163 H   0  0  0  0  0  0  0  0  0  0  0  0
    9.5846   -3.0213   22.2789 C   0  0  0  0  0  0  0  0  0  0  0  0
    9.1227   -4.0059   22.1663 H   0  0  0  0  0  0  0  0  0  0  0  0
   10.4267   -2.9297   21.5914 H   0  0  0  0  0  0  0  0  0  0  0  0
    5.3956    0.6289   20.0802 C   0  0  0  0  0  0  0  0  0  0  0  0
    4.9540    0.6313   21.0757 H   0  0  0  0  0  0  0  0  0  0  0  0
    4.7784    1.2992   19.0268 C   0  0  0  0  0  0  0  0  0  0  0  0
    3.8545    1.8468   19.1708 H   0  0  0  0  0  0  0  0  0  0  0  0
  1  2  1  0
  2  3  2  0
  3  4  1  0
  4  5  1  0
  4  6  2  0
  6  7  1  0
  7  8  2  0
  8  9  1  0
  9 10  1  0
 10 11  2  0
 11 12  1  0
 12 13  2  0
 13 14  1  0
 13 15  1  0
 15 16  1  0
 15 17  2  0
 17 18  1  0
 17 19  1  0
 19 20  1  0
 19 21  2  0
 21 22  1  0
 10 23  1  0
 23 24  1  0
 23 25  1  0
 23 26  1  0
 26 27  1  0
 26 28  1  0
 26 29  1  0
 29 30  1  0
 29 31  1  0
  6 32  1  0
 32 33  1  0
 32 34  2  0
 34 35  1  0
 34  2  1  0
 11  7  1  0
 21 12  1  0
 29  9  1  0
M  END
>  <cnnaffinity>  (1) 
-5.72006

>  <filename>  (1) 
Fc1ccc(-c2c(-c3cccnc3)nn3c2CCC3)c(F)c1

$$$$
