
     RDKit          3D

 29 32  0  0  0  0  0  0  0  0999 V2000
    4.9864    1.7997   16.9856 H   0  0  0  0  0  0  0  0  0  0  0  0
    5.4287    1.2821   17.8335 C   0  0  0  0  0  0  0  0  0  0  0  0
    6.5855    0.6469   17.5927 N   0  0  0  0  0  0  0  0  0  0  0  0
    7.1731    0.0317   18.6211 C   0  0  0  0  0  0  0  0  0  0  0  0
    8.1245   -0.4612   18.4279 H   0  0  0  0  0  0  0  0  0  0  0  0
    6.6351    0.0043   19.9099 C   0  0  0  0  0  0  0  0  0  0  0  0
    7.3851   -0.7051   20.9459 C   0  0  0  0  0  0  0  0  0  0  0  0
    8.5809   -1.3352   20.7306 N   0  0  0  0  0  0  0  0  0  0  0  0
    8.8432   -1.8043   21.9353 C   0  0  0  0  0  0  0  0  0  0  0  0
   10.0749   -2.7229   22.7602 S   0  0  0  0  0  0  0  0  0  0  0  0
    9.1562   -2.6148   24.2419 C   0  0  0  0  0  0  0  0  0  0  0  0
    9.5738   -3.1081   25.1094 H   0  0  0  0  0  0  0  0  0  0  0  0
    7.9994   -1.9138   24.1422 C   0  0  0  0  0  0  0  0  0  0  0  0
    6.9669   -1.5798   25.1921 C   0  0  0  0  0  0  0  0  0  0  0  0
    5.9032   -0.8300   24.8453 N   0  0  0  0  0  0  0  0  0  0  0  0
    4.9536   -0.5490   25.7295 C   0  0  0  0  0  0  0  0  0  0  0  0
    4.1073    0.0257   25.3776 H   0  0  0  0  0  0  0  0  0  0  0  0
    5.0153   -0.9700   27.0593 C   0  0  0  0  0  0  0  0  0  0  0  0
    4.0326   -0.6432   27.9115 F   0  0  0  0  0  0  0  0  0  0  0  0
    6.1047   -1.7251   27.4708 C   0  0  0  0  0  0  0  0  0  0  0  0
    6.1161   -2.0296   28.5098 H   0  0  0  0  0  0  0  0  0  0  0  0
    7.0964   -2.0384   26.5235 C   0  0  0  0  0  0  0  0  0  0  0  0
    7.9687   -2.6307   26.7886 H   0  0  0  0  0  0  0  0  0  0  0  0
    7.8674   -1.4819   22.8116 N   0  0  0  0  0  0  0  0  0  0  0  0
    6.9166   -0.7664   22.1763 N   0  0  0  0  0  0  0  0  0  0  0  0
    5.4135    0.6632   20.1570 C   0  0  0  0  0  0  0  0  0  0  0  0
    4.9792    0.6720   21.1607 H   0  0  0  0  0  0  0  0  0  0  0  0
    4.8004    1.3085   19.0853 C   0  0  0  0  0  0  0  0  0  0  0  0
    3.8635    1.8475   19.2011 H   0  0  0  0  0  0  0  0  0  0  0  0
  1  2  1  0
  2  3  2  0
  3  4  1  0
  4  5  1  0
  4  6  2  0
  6  7  1  0
  7  8  1  0
  8  9  2  0
  9 10  1  0
 10 11  1  0
 11 12  1  0
 11 13  2  0
 13 14  1  0
 14 15  2  0
 15 16  1  0
 16 17  1  0
 16 18  2  0
 18 19  1  0
 18 20  1  0
 20 21  1  0
 20 22  2  0
 22 23  1  0
 13 24  1  0
 24 25  1  0
  6 26  1  0
 26 27  1  0
 26 28  2  0
 28 29  1  0
 28  2  1  0
 25  7  2  0
 24  9  1  0
 22 14  1  0
M  END
>  <cnnaffinity>  (1) 
-5.42824

>  <filename>  (1) 
Fc1ccc(-c2csc3nc(-c4cccnc4)nn23)nc1

$$$$
