
     RDKit          3D

 29 32  0  0  0  0  0  0  0  0999 V2000
    4.9159    1.7753   17.0024 H   0  0  0  0  0  0  0  0  0  0  0  0
    5.4045    1.2898   17.8430 C   0  0  0  0  0  0  0  0  0  0  0  0
    6.5702    0.6780   17.5776 N   0  0  0  0  0  0  0  0  0  0  0  0
    7.1751    0.0566   18.5906 C   0  0  0  0  0  0  0  0  0  0  0  0
    8.1248   -0.4348   18.3744 H   0  0  0  0  0  0  0  0  0  0  0  0
    6.6479    0.0111   19.8914 C   0  0  0  0  0  0  0  0  0  0  0  0
    7.4034   -0.7016   20.9180 C   0  0  0  0  0  0  0  0  0  0  0  0
    8.3305   -1.6009   20.6992 N   0  0  0  0  0  0  0  0  0  0  0  0
    8.8307   -2.0342   21.9058 N   0  0  0  0  0  0  0  0  0  0  0  0
    8.1957   -1.3541   22.8191 C   0  0  0  0  0  0  0  0  0  0  0  0
    8.2627   -1.0960   24.5346 S   0  0  0  0  0  0  0  0  0  0  0  0
    7.0332    0.1722   24.3217 C   0  0  0  0  0  0  0  0  0  0  0  0
    6.5341    0.9656   25.4726 C   0  0  0  0  0  0  0  0  0  0  0  0
    7.0111    0.7428   26.7826 C   0  0  0  0  0  0  0  0  0  0  0  0
    7.7604   -0.0191   26.9912 H   0  0  0  0  0  0  0  0  0  0  0  0
    6.5200    1.5106   27.8414 C   0  0  0  0  0  0  0  0  0  0  0  0
    6.8892    1.3352   28.8467 H   0  0  0  0  0  0  0  0  0  0  0  0
    5.5586    2.5023   27.6274 C   0  0  0  0  0  0  0  0  0  0  0  0
    5.1671    3.1061   28.4402 H   0  0  0  0  0  0  0  0  0  0  0  0
    5.0998    2.7080   26.3285 C   0  0  0  0  0  0  0  0  0  0  0  0
    4.1767    3.6556   26.1068 F   0  0  0  0  0  0  0  0  0  0  0  0
    5.5648    1.9637   25.2491 C   0  0  0  0  0  0  0  0  0  0  0  0
    5.1827    2.1572   24.2506 H   0  0  0  0  0  0  0  0  0  0  0  0
    6.6209    0.3545   23.1046 N   0  0  0  0  0  0  0  0  0  0  0  0
    7.2686   -0.5200   22.2793 N   0  0  0  0  0  0  0  0  0  0  0  0
    5.4331    0.6523   20.1618 C   0  0  0  0  0  0  0  0  0  0  0  0
    5.0089    0.6350   21.1685 H   0  0  0  0  0  0  0  0  0  0  0  0
    4.8047    1.3085   19.1088 C   0  0  0  0  0  0  0  0  0  0  0  0
    3.8741    1.8435   19.2621 H   0  0  0  0  0  0  0  0  0  0  0  0
  1  2  1  0
  2  3  2  0
  3  4  1  0
  4  5  1  0
  4  6  2  0
  6  7  1  0
  7  8  2  0
  8  9  1  0
  9 10  2  0
 10 11  1  0
 11 12  1  0
 12 13  1  0
 13 14  2  0
 14 15  1  0
 14 16  1  0
 16 17  1  0
 16 18  2  0
 18 19  1  0
 18 20  1  0
 20 21  1  0
 20 22  2  0
 22 23  1  0
 12 24  2  0
 24 25  1  0
  6 26  1  0
 26 27  1  0
 26 28  2  0
 28 29  1  0
 28  2  1  0
 25  7  1  0
 25 10  1  0
 22 13  1  0
M  END
>  <cnnaffinity>  (1) 
-5.22812

>  <filename>  (1) 
Fc1cccc(-c2nn3c(-c4cccnc4)nnc3s2)c1

$$$$
