
     RDKit          3D

 28 30  0  0  0  0  0  0  0  0999 V2000
    4.9253    1.7800   16.9976 H   0  0  0  0  0  0  0  0  0  0  0  0
    5.4083    1.2898   17.8443 C   0  0  0  0  0  0  0  0  0  0  0  0
    6.5752    0.6725   17.5941 N   0  0  0  0  0  0  0  0  0  0  0  0
    7.1770    0.0417   18.6041 C   0  0  0  0  0  0  0  0  0  0  0  0
    8.1234   -0.4409   18.3785 H   0  0  0  0  0  0  0  0  0  0  0  0
    6.6563   -0.0111   19.9056 C   0  0  0  0  0  0  0  0  0  0  0  0
    7.3694   -0.7068   20.9227 N   0  0  0  0  0  0  0  0  0  0  0  0
    7.9239   -1.9123   20.6915 N   0  0  0  0  0  0  0  0  0  0  0  0
    8.4122   -2.2949   21.8631 C   0  0  0  0  0  0  0  0  0  0  0  0
    8.9073   -3.2492   21.9576 H   0  0  0  0  0  0  0  0  0  0  0  0
    8.1980   -1.3448   22.8723 C   0  0  0  0  0  0  0  0  0  0  0  0
    8.4989   -1.3473   23.9100 H   0  0  0  0  0  0  0  0  0  0  0  0
    7.5394   -0.3233   22.2318 C   0  0  0  0  0  0  0  0  0  0  0  0
    7.1634    0.9837   22.7955 C   0  0  0  0  0  0  0  0  0  0  0  0
    7.5497    2.2075   22.2221 C   0  0  0  0  0  0  0  0  0  0  0  0
    8.2686    2.1815   21.0862 F   0  0  0  0  0  0  0  0  0  0  0  0
    7.2119    3.4379   22.7646 C   0  0  0  0  0  0  0  0  0  0  0  0
    7.5293    4.3380   22.2466 H   0  0  0  0  0  0  0  0  0  0  0  0
    6.4745    3.4633   23.9508 C   0  0  0  0  0  0  0  0  0  0  0  0
    6.2063    4.4128   24.3892 H   0  0  0  0  0  0  0  0  0  0  0  0
    6.0872    2.2810   24.5821 C   0  0  0  0  0  0  0  0  0  0  0  0
    5.5270    2.2633   25.5117 H   0  0  0  0  0  0  0  0  0  0  0  0
    6.4462    1.0744   23.9961 C   0  0  0  0  0  0  0  0  0  0  0  0
    6.0718   -0.0562   24.6179 F   0  0  0  0  0  0  0  0  0  0  0  0
    5.4389    0.6368   20.1676 C   0  0  0  0  0  0  0  0  0  0  0  0
    5.0066    0.6314   21.1716 H   0  0  0  0  0  0  0  0  0  0  0  0
    4.8106    1.2991   19.1085 C   0  0  0  0  0  0  0  0  0  0  0  0
    3.8804    1.8381   19.2603 H   0  0  0  0  0  0  0  0  0  0  0  0
  1  2  1  0
  2  3  2  0
  3  4  1  0
  4  5  1  0
  4  6  2  0
  6  7  1  0
  7  8  1  0
  8  9  2  0
  9 10  1  0
  9 11  1  0
 11 12  1  0
 11 13  2  0
 13 14  1  0
 14 15  2  0
 15 16  1  0
 15 17  1  0
 17 18  1  0
 17 19  2  0
 19 20  1  0
 19 21  1  0
 21 22  1  0
 21 23  2  0
 23 24  1  0
  6 25  1  0
 25 26  1  0
 25 27  2  0
 27 28  1  0
 27  2  1  0
 13  7  1  0
 23 14  1  0
M  END
>  <cnnaffinity>  (1) 
-5.22282

>  <filename>  (1) 
Fc1cccc(F)c1-c1ccnn1-c1cccnc1

$$$$
