
     RDKit          3D

 30 32  0  0  0  0  0  0  0  0999 V2000
    4.9114    1.7972   16.9810 H   0  0  0  0  0  0  0  0  0  0  0  0
    5.3886    1.3048   17.8214 C   0  0  0  0  0  0  0  0  0  0  0  0
    6.5539    0.6923   17.5486 N   0  0  0  0  0  0  0  0  0  0  0  0
    7.1573    0.0649   18.5635 C   0  0  0  0  0  0  0  0  0  0  0  0
    8.1162   -0.4013   18.3361 H   0  0  0  0  0  0  0  0  0  0  0  0
    6.6489    0.0075   19.8764 C   0  0  0  0  0  0  0  0  0  0  0  0
    7.3691   -0.6632   20.9615 C   0  0  0  0  0  0  0  0  0  0  0  0
    7.5270   -0.3207   22.2969 C   0  0  0  0  0  0  0  0  0  0  0  0
    7.0414    0.8419   22.9021 N   0  0  0  0  0  0  0  0  0  0  0  0
    6.9974    1.6491   22.2920 H   0  0  0  0  0  0  0  0  0  0  0  0
    6.9377    1.0584   24.2814 C   0  0  0  0  0  0  0  0  0  0  0  0
    7.4166    2.2282   24.9057 C   0  0  0  0  0  0  0  0  0  0  0  0
    7.9830    3.1875   24.1438 F   0  0  0  0  0  0  0  0  0  0  0  0
    7.3389    2.4458   26.2776 C   0  0  0  0  0  0  0  0  0  0  0  0
    7.7248    3.3768   26.6722 H   0  0  0  0  0  0  0  0  0  0  0  0
    6.7539    1.4732   27.0909 C   0  0  0  0  0  0  0  0  0  0  0  0
    6.6798    1.6228   28.1628 H   0  0  0  0  0  0  0  0  0  0  0  0
    6.2552    0.3018   26.5268 C   0  0  0  0  0  0  0  0  0  0  0  0
    5.7959   -0.4904   27.1032 H   0  0  0  0  0  0  0  0  0  0  0  0
    6.3510    0.1173   25.1541 C   0  0  0  0  0  0  0  0  0  0  0  0
    5.8867   -1.0385   24.6505 F   0  0  0  0  0  0  0  0  0  0  0  0
    8.2890   -1.3795   22.8526 C   0  0  0  0  0  0  0  0  0  0  0  0
    8.6032   -1.4749   23.8793 H   0  0  0  0  0  0  0  0  0  0  0  0
    8.5946   -2.2993   21.9480 N   0  0  0  0  0  0  0  0  0  0  0  0
    8.0404   -1.8352   20.8169 N   0  0  0  0  0  0  0  0  0  0  0  0
    8.1170   -2.3763   19.9730 H   0  0  0  0  0  0  0  0  0  0  0  0
    5.4316    0.6597   20.1410 C   0  0  0  0  0  0  0  0  0  0  0  0
    5.0233    0.6257   21.1566 H   0  0  0  0  0  0  0  0  0  0  0  0
    4.7943    1.3182   19.0888 C   0  0  0  0  0  0  0  0  0  0  0  0
    3.8647    1.8487   19.2467 H   0  0  0  0  0  0  0  0  0  0  0  0
  1  2  1  0
  2  3  2  0
  3  4  1  0
  4  5  1  0
  4  6  2  0
  6  7  1  0
  7  8  2  0
  8  9  1  0
  9 10  1  0
  9 11  1  0
 11 12  2  0
 12 13  1  0
 12 14  1  0
 14 15  1  0
 14 16  2  0
 16 17  1  0
 16 18  1  0
 18 19  1  0
 18 20  2  0
 20 21  1  0
  8 22  1  0
 22 23  1  0
 22 24  2  0
 24 25  1  0
 25 26  1  0
  6 27  1  0
 27 28  1  0
 27 29  2  0
 29 30  1  0
 29  2  1  0
 25  7  1  0
 20 11  1  0
M  END
>  <cnnaffinity>  (1) 
-5.70736

>  <filename>  (1) 
Fc1cccc(F)c1Nc1cn[nH]c1-c1cccnc1

$$$$
