
     RDKit          3D

 27 29  0  0  0  0  0  0  0  0999 V2000
    4.9247    1.7836   16.9959 H   0  0  0  0  0  0  0  0  0  0  0  0
    5.4076    1.2933   17.8376 C   0  0  0  0  0  0  0  0  0  0  0  0
    6.5713    0.6803   17.5738 N   0  0  0  0  0  0  0  0  0  0  0  0
    7.1694    0.0507   18.5879 C   0  0  0  0  0  0  0  0  0  0  0  0
    8.1164   -0.4317   18.3641 H   0  0  0  0  0  0  0  0  0  0  0  0
    6.6468   -0.0103   19.8875 C   0  0  0  0  0  0  0  0  0  0  0  0
    7.3765   -0.7309   20.9374 C   0  0  0  0  0  0  0  0  0  0  0  0
    7.9550   -1.8834   20.7081 N   0  0  0  0  0  0  0  0  0  0  0  0
    8.4425   -2.3184   21.9147 O   0  0  0  0  0  0  0  0  0  0  0  0
    8.1636   -1.4124   22.8507 C   0  0  0  0  0  0  0  0  0  0  0  0
    8.5232   -1.6280   23.8466 H   0  0  0  0  0  0  0  0  0  0  0  0
    7.5117   -0.3506   22.3166 C   0  0  0  0  0  0  0  0  0  0  0  0
    7.1204    0.8851   23.0003 C   0  0  0  0  0  0  0  0  0  0  0  0
    7.2574    2.1333   22.3747 C   0  0  0  0  0  0  0  0  0  0  0  0
    7.6312    2.1683   21.3585 H   0  0  0  0  0  0  0  0  0  0  0  0
    6.8937    3.3054   23.0351 C   0  0  0  0  0  0  0  0  0  0  0  0
    6.9807    4.2795   22.5666 H   0  0  0  0  0  0  0  0  0  0  0  0
    6.4076    3.2220   24.3349 C   0  0  0  0  0  0  0  0  0  0  0  0
    6.0637    4.3355   24.9906 F   0  0  0  0  0  0  0  0  0  0  0  0
    6.2811    1.9805   24.9704 C   0  0  0  0  0  0  0  0  0  0  0  0
    5.8236    1.9256   26.2270 F   0  0  0  0  0  0  0  0  0  0  0  0
    6.6361    0.8145   24.3131 C   0  0  0  0  0  0  0  0  0  0  0  0
    6.5204   -0.1366   24.8219 H   0  0  0  0  0  0  0  0  0  0  0  0
    5.4265    0.6345   20.1500 C   0  0  0  0  0  0  0  0  0  0  0  0
    5.0034    0.6394   21.1585 H   0  0  0  0  0  0  0  0  0  0  0  0
    4.8033    1.3048   19.1013 C   0  0  0  0  0  0  0  0  0  0  0  0
    3.8737    1.8427   19.2550 H   0  0  0  0  0  0  0  0  0  0  0  0
  1  2  1  0
  2  3  2  0
  3  4  1  0
  4  5  1  0
  4  6  2  0
  6  7  1  0
  7  8  2  0
  8  9  1  0
  9 10  1  0
 10 11  1  0
 10 12  2  0
 12 13  1  0
 13 14  2  0
 14 15  1  0
 14 16  1  0
 16 17  1  0
 16 18  2  0
 18 19  1  0
 18 20  1  0
 20 21  1  0
 20 22  2  0
 22 23  1  0
  6 24  1  0
 24 25  1  0
 24 26  2  0
 26 27  1  0
 26  2  1  0
 12  7  1  0
 22 13  1  0
M  END
>  <cnnaffinity>  (1) 
-5.13949

>  <filename>  (1) 
Fc1ccc(-c2conc2-c2cccnc2)cc1F

$$$$
