
     RDKit          3D

 32 35  0  0  0  0  0  0  0  0999 V2000
    4.9937    1.8345   17.0200 H   0  0  0  0  0  0  0  0  0  0  0  0
    5.5024    1.3049   17.8209 C   0  0  0  0  0  0  0  0  0  0  0  0
    6.6622    0.7103   17.4995 N   0  0  0  0  0  0  0  0  0  0  0  0
    7.3209    0.0485   18.4593 C   0  0  0  0  0  0  0  0  0  0  0  0
    8.2607   -0.4074   18.1441 H   0  0  0  0  0  0  0  0  0  0  0  0
    6.8460   -0.0782   19.7836 C   0  0  0  0  0  0  0  0  0  0  0  0
    7.5372   -0.8562   20.7585 N   0  0  0  0  0  0  0  0  0  0  0  0
    8.8951   -0.7949   21.0618 C   0  0  0  0  0  0  0  0  0  0  0  0
    9.5193   -0.1007   20.5254 H   0  0  0  0  0  0  0  0  0  0  0  0
    9.1807   -1.6460   22.0809 C   0  0  0  0  0  0  0  0  0  0  0  0
   10.0967   -1.8539   22.6053 H   0  0  0  0  0  0  0  0  0  0  0  0
    7.9851   -2.2625   22.4200 N   0  0  0  0  0  0  0  0  0  0  0  0
    7.5793   -3.2010   23.3195 N   0  0  0  0  0  0  0  0  0  0  0  0
    6.2644   -3.3179   23.0531 C   0  0  0  0  0  0  0  0  0  0  0  0
    5.3335   -4.2540   23.7695 C   0  0  0  0  0  0  0  0  0  0  0  0
    5.5493   -4.8189   25.0474 C   0  0  0  0  0  0  0  0  0  0  0  0
    6.4739   -4.5990   25.5713 H   0  0  0  0  0  0  0  0  0  0  0  0
    4.6020   -5.6525   25.6525 C   0  0  0  0  0  0  0  0  0  0  0  0
    4.8072   -6.0849   26.6257 H   0  0  0  0  0  0  0  0  0  0  0  0
    3.4039   -5.9640   24.9975 C   0  0  0  0  0  0  0  0  0  0  0  0
    2.6790   -6.6351   25.4451 H   0  0  0  0  0  0  0  0  0  0  0  0
    3.1545   -5.4322   23.7399 C   0  0  0  0  0  0  0  0  0  0  0  0
    2.2502   -5.6377   23.1724 H   0  0  0  0  0  0  0  0  0  0  0  0
    4.1121   -4.6089   23.1703 C   0  0  0  0  0  0  0  0  0  0  0  0
    3.8081   -4.1374   21.9535 F   0  0  0  0  0  0  0  0  0  0  0  0
    5.8528   -2.4597   21.9971 C   0  0  0  0  0  0  0  0  0  0  0  0
    4.8600   -2.3401   21.6336 H   0  0  0  0  0  0  0  0  0  0  0  0
    6.9932   -1.7856   21.6334 C   0  0  0  0  0  0  0  0  0  0  0  0
    5.6493    0.5843   20.1127 C   0  0  0  0  0  0  0  0  0  0  0  0
    5.2934    0.5853   21.1423 H   0  0  0  0  0  0  0  0  0  0  0  0
    4.9651    1.2763   19.1112 C   0  0  0  0  0  0  0  0  0  0  0  0
    4.0489    1.8165   19.3259 H   0  0  0  0  0  0  0  0  0  0  0  0
  1  2  1  0
  2  3  2  0
  3  4  1  0
  4  5  1  0
  4  6  2  0
  6  7  1  0
  7  8  1  0
  8  9  1  0
  8 10  2  0
 10 11  1  0
 10 12  1  0
 12 13  1  0
 13 14  2  0
 14 15  1  0
 15 16  2  0
 16 17  1  0
 16 18  1  0
 18 19  1  0
 18 20  2  0
 20 21  1  0
 20 22  1  0
 22 23  1  0
 22 24  2  0
 24 25  1  0
 14 26  1  0
 26 27  1  0
 26 28  2  0
  6 29  1  0
 29 30  1  0
 29 31  2  0
 31 32  1  0
 31  2  1  0
 28  7  1  0
 28 12  1  0
 24 15  1  0
M  END
>  <cnnaffinity>  (1) 
-5.22432

>  <filename>  (1) 
Fc1ccccc1-c1cc2n(-c3cccnc3)ccn2n1

$$$$
