
     RDKit          3D

 28 30  0  0  0  0  0  0  0  0999 V2000
    4.9306    1.8138   16.9172 H   0  0  0  0  0  0  0  0  0  0  0  0
    5.3845    1.3308   17.7850 C   0  0  0  0  0  0  0  0  0  0  0  0
    6.5539    0.7101   17.5770 N   0  0  0  0  0  0  0  0  0  0  0  0
    7.1439    0.1313   18.6321 C   0  0  0  0  0  0  0  0  0  0  0  0
    8.0831   -0.3683   18.4142 H   0  0  0  0  0  0  0  0  0  0  0  0
    6.6384    0.1340   19.9476 C   0  0  0  0  0  0  0  0  0  0  0  0
    7.4077   -0.4990   21.0535 C   0  0  0  0  0  0  0  0  0  0  0  0
    8.3205   -1.5021   20.8684 C   0  0  0  0  0  0  0  0  0  0  0  0
    8.6999   -1.8598   19.9216 H   0  0  0  0  0  0  0  0  0  0  0  0
    8.9285   -2.1385   22.3396 S   0  0  0  0  0  0  0  0  0  0  0  0
    8.0308   -0.9796   23.2764 C   0  0  0  0  0  0  0  0  0  0  0  0
    8.1526   -0.8366   24.7492 C   0  0  0  0  0  0  0  0  0  0  0  0
    9.3740   -1.0313   25.4372 C   0  0  0  0  0  0  0  0  0  0  0  0
   10.4299   -1.4911   24.7610 F   0  0  0  0  0  0  0  0  0  0  0  0
    9.5549   -0.7345   26.7889 C   0  0  0  0  0  0  0  0  0  0  0  0
   10.5471   -0.8108   27.2204 H   0  0  0  0  0  0  0  0  0  0  0  0
    8.4624   -0.3051   27.5430 C   0  0  0  0  0  0  0  0  0  0  0  0
    8.5881   -0.0548   28.5962 H   0  0  0  0  0  0  0  0  0  0  0  0
    7.2105   -0.1671   26.9425 C   0  0  0  0  0  0  0  0  0  0  0  0
    6.3275    0.1228   27.5059 H   0  0  0  0  0  0  0  0  0  0  0  0
    7.0896   -0.4005   25.5725 C   0  0  0  0  0  0  0  0  0  0  0  0
    5.8791   -0.1819   25.0223 F   0  0  0  0  0  0  0  0  0  0  0  0
    7.2894   -0.1801   22.4450 C   0  0  0  0  0  0  0  0  0  0  0  0
    6.7306    0.6616   22.8383 H   0  0  0  0  0  0  0  0  0  0  0  0
    5.3871    0.7471   20.1285 C   0  0  0  0  0  0  0  0  0  0  0  0
    4.9063    0.7349   21.1060 H   0  0  0  0  0  0  0  0  0  0  0  0
    4.7585    1.3549   19.0346 C   0  0  0  0  0  0  0  0  0  0  0  0
    3.8079    1.8587   19.1343 H   0  0  0  0  0  0  0  0  0  0  0  0
  1  2  1  0
  2  3  2  0
  3  4  1  0
  4  5  1  0
  4  6  2  0
  6  7  1  0
  7  8  2  0
  8  9  1  0
  8 10  1  0
 10 11  1  0
 11 12  1  0
 12 13  2  0
 13 14  1  0
 13 15  1  0
 15 16  1  0
 15 17  2  0
 17 18  1  0
 17 19  1  0
 19 20  1  0
 19 21  2  0
 21 22  1  0
 11 23  2  0
 23 24  1  0
  6 25  1  0
 25 26  1  0
 25 27  2  0
 27 28  1  0
 27  2  1  0
 23  7  1  0
 21 12  1  0
M  END
>  <cnnaffinity>  (1) 
-5.25458

>  <filename>  (1) 
Fc1cccc(F)c1-c1cc(-c2cccnc2)cs1

$$$$
