
     RDKit          3D

 30 32  0  0  0  0  0  0  0  0999 V2000
    4.9088    1.7810   16.9972 H   0  0  0  0  0  0  0  0  0  0  0  0
    5.3973    1.2968   17.8388 C   0  0  0  0  0  0  0  0  0  0  0  0
    6.5630    0.6829   17.5747 N   0  0  0  0  0  0  0  0  0  0  0  0
    7.1745    0.0620   18.5915 C   0  0  0  0  0  0  0  0  0  0  0  0
    8.1217   -0.4311   18.3775 H   0  0  0  0  0  0  0  0  0  0  0  0
    6.6658   -0.0090   19.9138 C   0  0  0  0  0  0  0  0  0  0  0  0
    7.3251   -0.7156   20.9282 N   0  0  0  0  0  0  0  0  0  0  0  0
    6.7650   -1.0710   21.6966 H   0  0  0  0  0  0  0  0  0  0  0  0
    8.7125   -0.7745   21.1030 C   0  0  0  0  0  0  0  0  0  0  0  0
    9.6985    0.1370   20.6663 C   0  0  0  0  0  0  0  0  0  0  0  0
    9.5226    1.0178   20.0729 H   0  0  0  0  0  0  0  0  0  0  0  0
   10.9099   -0.1856   21.1045 N   0  0  0  0  0  0  0  0  0  0  0  0
   10.7073   -1.3024   21.8151 N   0  0  0  0  0  0  0  0  0  0  0  0
   11.4992   -1.7558   22.2449 H   0  0  0  0  0  0  0  0  0  0  0  0
    9.4120   -1.7152   21.8380 C   0  0  0  0  0  0  0  0  0  0  0  0
    8.9326   -2.9076   22.5383 C   0  0  0  0  0  0  0  0  0  0  0  0
    7.8762   -3.6472   21.9831 C   0  0  0  0  0  0  0  0  0  0  0  0
    7.4390   -3.3674   21.0300 H   0  0  0  0  0  0  0  0  0  0  0  0
    7.4229   -4.7657   22.6650 C   0  0  0  0  0  0  0  0  0  0  0  0
    6.4202   -5.4809   22.1384 F   0  0  0  0  0  0  0  0  0  0  0  0
    7.9670   -5.1786   23.8776 C   0  0  0  0  0  0  0  0  0  0  0  0
    7.5977   -6.0501   24.3968 H   0  0  0  0  0  0  0  0  0  0  0  0
    9.0125   -4.4172   24.3955 C   0  0  0  0  0  0  0  0  0  0  0  0
    9.5597   -4.7941   25.5590 F   0  0  0  0  0  0  0  0  0  0  0  0
    9.5114   -3.2962   23.7563 C   0  0  0  0  0  0  0  0  0  0  0  0
   10.3187   -2.7284   24.2101 H   0  0  0  0  0  0  0  0  0  0  0  0
    5.4453    0.6369   20.1622 C   0  0  0  0  0  0  0  0  0  0  0  0
    5.0171    0.6229   21.1671 H   0  0  0  0  0  0  0  0  0  0  0  0
    4.8110    1.3077   19.1116 C   0  0  0  0  0  0  0  0  0  0  0  0
    3.8769    1.8414   19.2655 H   0  0  0  0  0  0  0  0  0  0  0  0
  1  2  1  0
  2  3  2  0
  3  4  1  0
  4  5  1  0
  4  6  2  0
  6  7  1  0
  7  8  1  0
  7  9  1  0
  9 10  1  0
 10 11  1  0
 10 12  2  0
 12 13  1  0
 13 14  1  0
 13 15  1  0
 15 16  1  0
 16 17  2  0
 17 18  1  0
 17 19  1  0
 19 20  1  0
 19 21  2  0
 21 22  1  0
 21 23  1  0
 23 24  1  0
 23 25  2  0
 25 26  1  0
  6 27  1  0
 27 28  1  0
 27 29  2  0
 29 30  1  0
 29  2  1  0
 15  9  2  0
 25 16  1  0
M  END
>  <cnnaffinity>  (1) 
-5.75865

>  <filename>  (1) 
Fc1cc(F)cc(-c2[nH]ncc2Nc2cccnc2)c1

$$$$
