
     RDKit          3D

 29 31  0  0  0  0  0  0  0  0999 V2000
    4.9251    1.7741   17.0018 H   0  0  0  0  0  0  0  0  0  0  0  0
    5.4110    1.2888   17.8469 C   0  0  0  0  0  0  0  0  0  0  0  0
    6.5770    0.6690   17.6016 N   0  0  0  0  0  0  0  0  0  0  0  0
    7.1766    0.0547   18.6252 C   0  0  0  0  0  0  0  0  0  0  0  0
    8.1170   -0.4384   18.3890 H   0  0  0  0  0  0  0  0  0  0  0  0
    6.6552    0.0339   19.9222 C   0  0  0  0  0  0  0  0  0  0  0  0
    7.3868   -0.7116   20.9564 C   0  0  0  0  0  0  0  0  0  0  0  0
    8.0044   -1.7963   20.6949 N   0  0  0  0  0  0  0  0  0  0  0  0
    8.5059   -2.3388   21.9536 C   0  0  0  0  0  0  0  0  0  0  0  0
    9.5977   -2.4084   21.9105 H   0  0  0  0  0  0  0  0  0  0  0  0
    8.1310   -3.3565   22.1098 H   0  0  0  0  0  0  0  0  0  0  0  0
    8.0372   -1.3815   23.0663 C   0  0  0  0  0  0  0  0  0  0  0  0
    8.8738   -0.9787   23.6481 H   0  0  0  0  0  0  0  0  0  0  0  0
    7.3437   -1.8645   23.7677 H   0  0  0  0  0  0  0  0  0  0  0  0
    7.3833   -0.3169   22.2987 N   0  0  0  0  0  0  0  0  0  0  0  0
    7.1649    0.9759   22.8434 C   0  0  0  0  0  0  0  0  0  0  0  0
    6.5824    1.1751   24.1239 C   0  0  0  0  0  0  0  0  0  0  0  0
    6.2759    0.3162   24.7090 H   0  0  0  0  0  0  0  0  0  0  0  0
    6.3686    2.3797   24.6798 N   0  0  0  0  0  0  0  0  0  0  0  0
    6.7359    3.4648   23.9831 C   0  0  0  0  0  0  0  0  0  0  0  0
    6.5691    4.4429   24.4278 H   0  0  0  0  0  0  0  0  0  0  0  0
    7.3268    3.3581   22.7187 C   0  0  0  0  0  0  0  0  0  0  0  0
    7.6814    4.4722   22.0641 F   0  0  0  0  0  0  0  0  0  0  0  0
    7.5561    2.1203   22.1278 C   0  0  0  0  0  0  0  0  0  0  0  0
    8.0131    2.0431   21.1443 H   0  0  0  0  0  0  0  0  0  0  0  0
    5.4253    0.6587   20.1640 C   0  0  0  0  0  0  0  0  0  0  0  0
    4.9913    0.6440   21.1681 H   0  0  0  0  0  0  0  0  0  0  0  0
    4.8010    1.3093   19.1070 C   0  0  0  0  0  0  0  0  0  0  0  0
    3.8702    1.8445   19.2572 H   0  0  0  0  0  0  0  0  0  0  0  0
  1  2  1  0
  2  3  2  0
  3  4  1  0
  4  5  1  0
  4  6  2  0
  6  7  1  0
  7  8  2  0
  8  9  1  0
  9 10  1  0
  9 11  1  0
  9 12  1  0
 12 13  1  0
 12 14  1  0
 12 15  1  0
 15 16  1  0
 16 17  2  0
 17 18  1  0
 17 19  1  0
 19 20  2  0
 20 21  1  0
 20 22  1  0
 22 23  1  0
 22 24  2  0
 24 25  1  0
  6 26  1  0
 26 27  1  0
 26 28  2  0
 28 29  1  0
 28  2  1  0
 15  7  1  0
 24 16  1  0
M  END
>  <cnnaffinity>  (1) 
-4.96467

>  <filename>  (1) 
Fc1cncc(N2CCN=C2c2cccnc2)c1

$$$$
