
     RDKit          3D

 31 33  0  0  0  0  0  0  0  0999 V2000
    4.9313    1.7890   16.9889 H   0  0  0  0  0  0  0  0  0  0  0  0
    5.3991    1.2904   17.8363 C   0  0  0  0  0  0  0  0  0  0  0  0
    6.5626    0.6652   17.5967 N   0  0  0  0  0  0  0  0  0  0  0  0
    7.1700    0.0503   18.6181 C   0  0  0  0  0  0  0  0  0  0  0  0
    8.1238   -0.4186   18.3717 H   0  0  0  0  0  0  0  0  0  0  0  0
    6.6629    0.0320   19.9342 C   0  0  0  0  0  0  0  0  0  0  0  0
    7.3792   -0.6100   20.9899 N   0  0  0  0  0  0  0  0  0  0  0  0
    7.8957   -1.8735   20.8662 C   0  0  0  0  0  0  0  0  0  0  0  0
    7.6502   -2.3338   19.9436 H   0  0  0  0  0  0  0  0  0  0  0  0
    8.4792   -2.2734   22.0379 C   0  0  0  0  0  0  0  0  0  0  0  0
    9.0003   -3.2093   22.2203 H   0  0  0  0  0  0  0  0  0  0  0  0
    8.2812   -1.2108   22.9666 C   0  0  0  0  0  0  0  0  0  0  0  0
    8.5832   -1.1226   24.0093 H   0  0  0  0  0  0  0  0  0  0  0  0
    7.5959   -0.2109   22.3029 C   0  0  0  0  0  0  0  0  0  0  0  0
    7.1806    1.0186   22.7467 N   0  0  0  0  0  0  0  0  0  0  0  0
    7.2237    1.7722   22.0793 H   0  0  0  0  0  0  0  0  0  0  0  0
    6.9633    1.3374   24.0874 C   0  0  0  0  0  0  0  0  0  0  0  0
    6.4021    0.3846   24.9508 C   0  0  0  0  0  0  0  0  0  0  0  0
    6.1715   -0.5921   24.5277 H   0  0  0  0  0  0  0  0  0  0  0  0
    6.1701    0.7004   26.2909 C   0  0  0  0  0  0  0  0  0  0  0  0
    5.7441   -0.0201   26.9808 H   0  0  0  0  0  0  0  0  0  0  0  0
    6.5035    1.9756   26.7437 C   0  0  0  0  0  0  0  0  0  0  0  0
    6.2770    2.2847   28.0320 F   0  0  0  0  0  0  0  0  0  0  0  0
    7.0528    2.9406   25.9003 C   0  0  0  0  0  0  0  0  0  0  0  0
    7.2851    3.9228   26.2965 H   0  0  0  0  0  0  0  0  0  0  0  0
    7.2765    2.6168   24.5573 C   0  0  0  0  0  0  0  0  0  0  0  0
    7.7076    3.3355   23.8641 H   0  0  0  0  0  0  0  0  0  0  0  0
    5.4307    0.6566   20.1642 C   0  0  0  0  0  0  0  0  0  0  0  0
    4.9980    0.6357   21.1628 H   0  0  0  0  0  0  0  0  0  0  0  0
    4.8019    1.3053   19.0986 C   0  0  0  0  0  0  0  0  0  0  0  0
    3.8733    1.8399   19.2476 H   0  0  0  0  0  0  0  0  0  0  0  0
  1  2  1  0
  2  3  2  0
  3  4  1  0
  4  5  1  0
  4  6  2  0
  6  7  1  0
  7  8  1  0
  8  9  1  0
  8 10  2  0
 10 11  1  0
 10 12  1  0
 12 13  1  0
 12 14  2  0
 14 15  1  0
 15 16  1  0
 15 17  1  0
 17 18  2  0
 18 19  1  0
 18 20  1  0
 20 21  1  0
 20 22  2  0
 22 23  1  0
 22 24  1  0
 24 25  1  0
 24 26  2  0
 26 27  1  0
  6 28  1  0
 28 29  1  0
 28 30  2  0
 30 31  1  0
 30  2  1  0
 14  7  1  0
 26 17  1  0
M  END
>  <cnnaffinity>  (1) 
-4.96991

>  <filename>  (1) 
Fc1ccc(Nc2cccn2-c2cccnc2)cc1

$$$$
