
     RDKit          3D

 30 32  0  0  0  0  0  0  0  0999 V2000
    4.9096    1.7821   16.9962 H   0  0  0  0  0  0  0  0  0  0  0  0
    5.3976    1.2970   17.8379 C   0  0  0  0  0  0  0  0  0  0  0  0
    6.5625    0.6822   17.5737 N   0  0  0  0  0  0  0  0  0  0  0  0
    7.1732    0.0623   18.5904 C   0  0  0  0  0  0  0  0  0  0  0  0
    8.1209   -0.4302   18.3767 H   0  0  0  0  0  0  0  0  0  0  0  0
    6.6643   -0.0096   19.9129 C   0  0  0  0  0  0  0  0  0  0  0  0
    7.3268   -0.7108   20.9277 N   0  0  0  0  0  0  0  0  0  0  0  0
    6.7661   -1.0916   21.6854 H   0  0  0  0  0  0  0  0  0  0  0  0
    8.7136   -0.7531   21.1080 C   0  0  0  0  0  0  0  0  0  0  0  0
    9.6984    0.1498   20.6577 C   0  0  0  0  0  0  0  0  0  0  0  0
    9.5237    1.0194   20.0514 H   0  0  0  0  0  0  0  0  0  0  0  0
   10.9137   -0.1681   21.0910 N   0  0  0  0  0  0  0  0  0  0  0  0
   10.7161   -1.2767   21.8131 N   0  0  0  0  0  0  0  0  0  0  0  0
   11.4963   -1.7286   22.2651 H   0  0  0  0  0  0  0  0  0  0  0  0
    9.4191   -1.6778   21.8574 C   0  0  0  0  0  0  0  0  0  0  0  0
    8.9310   -2.8618   22.5638 C   0  0  0  0  0  0  0  0  0  0  0  0
    7.9405   -3.6668   21.9717 C   0  0  0  0  0  0  0  0  0  0  0  0
    7.5783   -3.3973   20.9822 H   0  0  0  0  0  0  0  0  0  0  0  0
    7.4512   -4.7946   22.6239 C   0  0  0  0  0  0  0  0  0  0  0  0
    6.6887   -5.4056   22.1515 H   0  0  0  0  0  0  0  0  0  0  0  0
    7.9403   -5.1297   23.8910 C   0  0  0  0  0  0  0  0  0  0  0  0
    7.5619   -6.0017   24.4082 H   0  0  0  0  0  0  0  0  0  0  0  0
    8.9192   -4.3431   24.5069 C   0  0  0  0  0  0  0  0  0  0  0  0
    9.3183   -4.5801   25.4886 H   0  0  0  0  0  0  0  0  0  0  0  0
    9.3962   -3.2257   23.8395 C   0  0  0  0  0  0  0  0  0  0  0  0
   10.3304   -2.4668   24.4478 F   0  0  0  0  0  0  0  0  0  0  0  0
    5.4437    0.6358   20.1619 C   0  0  0  0  0  0  0  0  0  0  0  0
    5.0178    0.6228   21.1684 H   0  0  0  0  0  0  0  0  0  0  0  0
    4.8111    1.3071   19.1114 C   0  0  0  0  0  0  0  0  0  0  0  0
    3.8773    1.8412   19.2651 H   0  0  0  0  0  0  0  0  0  0  0  0
  1  2  1  0
  2  3  2  0
  3  4  1  0
  4  5  1  0
  4  6  2  0
  6  7  1  0
  7  8  1  0
  7  9  1  0
  9 10  1  0
 10 11  1  0
 10 12  2  0
 12 13  1  0
 13 14  1  0
 13 15  1  0
 15 16  1  0
 16 17  2  0
 17 18  1  0
 17 19  1  0
 19 20  1  0
 19 21  2  0
 21 22  1  0
 21 23  1  0
 23 24  1  0
 23 25  2  0
 25 26  1  0
  6 27  1  0
 27 28  1  0
 27 29  2  0
 29 30  1  0
 29  2  1  0
 15  9  2  0
 25 16  1  0
M  END
>  <cnnaffinity>  (1) 
-5.60854

>  <filename>  (1) 
Fc1ccccc1-c1[nH]ncc1Nc1cccnc1

$$$$
