
     RDKit          3D

 41 44  0  0  0  0  0  0  0  0999 V2000
    6.1902   -4.8387   28.7813 F   0  0  0  0  0  0  0  0  0  0  0  0
    6.7541   -4.1297   27.7899 C   0  0  0  0  0  0  0  0  0  0  0  0
    8.1453   -4.2829   27.5829 C   0  0  0  0  0  0  0  0  0  0  0  0
    8.7739   -3.5383   26.6064 C   0  0  0  0  0  0  0  0  0  0  0  0
    8.0436   -2.6129   25.7997 C   0  0  0  0  0  0  0  0  0  0  0  0
    8.7261   -1.8939   24.8581 N   0  0  0  0  0  0  0  0  0  0  0  0
    8.0337   -1.0677   24.0929 C   0  0  0  0  0  0  0  0  0  0  0  0
    8.7151   -0.3570   23.1353 N   0  0  0  0  0  0  0  0  0  0  0  0
   10.1588   -0.1602   23.2200 C   0  0  0  0  0  0  0  0  0  0  0  0
   10.4402    0.9914   22.2392 C   0  0  0  0  0  0  0  0  0  0  0  0
    9.2674    0.9771   21.2472 C   0  0  0  0  0  0  0  0  0  0  0  0
    8.0947    0.2784   21.9676 C   0  0  0  0  0  0  0  0  0  0  0  0
    7.3683   -0.7200   21.0241 C   0  0  0  0  0  0  0  0  0  0  0  0
    6.6368   -0.0284   19.8870 C   0  0  0  0  0  0  0  0  0  0  0  0
    5.4293    0.6446   20.1261 C   0  0  0  0  0  0  0  0  0  0  0  0
    4.7921    1.3159   19.0795 C   0  0  0  0  0  0  0  0  0  0  0  0
    5.3890    1.3073   17.8143 C   0  0  0  0  0  0  0  0  0  0  0  0
    6.5480    0.6856   17.5590 N   0  0  0  0  0  0  0  0  0  0  0  0
    7.1506    0.0520   18.5759 C   0  0  0  0  0  0  0  0  0  0  0  0
    8.1037   -0.4168   18.3276 H   0  0  0  0  0  0  0  0  0  0  0  0
    4.9223    1.8173   16.9709 H   0  0  0  0  0  0  0  0  0  0  0  0
    3.8638    1.8552   19.2284 H   0  0  0  0  0  0  0  0  0  0  0  0
    5.0096    0.6449   21.1352 H   0  0  0  0  0  0  0  0  0  0  0  0
    6.6680   -1.3190   21.6156 H   0  0  0  0  0  0  0  0  0  0  0  0
    8.1222   -1.4214   20.6451 H   0  0  0  0  0  0  0  0  0  0  0  0
    7.3623    1.0331   22.3039 H   0  0  0  0  0  0  0  0  0  0  0  0
    9.5208    0.4183   20.3354 H   0  0  0  0  0  0  0  0  0  0  0  0
    8.9802    1.9805   20.9169 H   0  0  0  0  0  0  0  0  0  0  0  0
   11.4035    0.8626   21.7356 H   0  0  0  0  0  0  0  0  0  0  0  0
   10.4803    1.9477   22.7744 H   0  0  0  0  0  0  0  0  0  0  0  0
   10.6879   -1.0861   22.9478 H   0  0  0  0  0  0  0  0  0  0  0  0
   10.4653    0.0770   24.2499 H   0  0  0  0  0  0  0  0  0  0  0  0
    6.6166   -0.8651   24.2518 C   0  0  0  0  0  0  0  0  0  0  0  0
    5.9344   -1.5555   25.2194 C   0  0  0  0  0  0  0  0  0  0  0  0
    6.6348   -2.4849   26.0399 C   0  0  0  0  0  0  0  0  0  0  0  0
    5.9986   -3.2538   27.0597 C   0  0  0  0  0  0  0  0  0  0  0  0
    4.9452   -3.1462   27.2922 H   0  0  0  0  0  0  0  0  0  0  0  0
    4.8668   -1.4255   25.3843 H   0  0  0  0  0  0  0  0  0  0  0  0
    6.1331   -0.1555   23.5968 H   0  0  0  0  0  0  0  0  0  0  0  0
    9.8399   -3.6213   26.4179 H   0  0  0  0  0  0  0  0  0  0  0  0
    8.6695   -4.9768   28.2298 H   0  0  0  0  0  0  0  0  0  0  0  0
  1  2  1  0
  2  3  2  0
  3  4  1  0
  4  5  2  0
  5  6  1  0
  6  7  2  0
  7  8  1  0
  8  9  1  0
  9 10  1  0
 10 11  1  0
 11 12  1  0
 12 13  1  0
 13 14  1  0
 14 15  2  0
 15 16  1  0
 16 17  2  0
 17 18  1  0
 18 19  2  0
 19 20  1  0
 17 21  1  0
 16 22  1  0
 15 23  1  0
 13 24  1  0
 13 25  1  0
 12 26  1  0
 11 27  1  0
 11 28  1  0
 10 29  1  0
 10 30  1  0
  9 31  1  0
  9 32  1  0
  7 33  1  0
 33 34  2  0
 34 35  1  0
 35 36  2  0
 36 37  1  0
 34 38  1  0
 33 39  1  0
  4 40  1  0
  3 41  1  0
 36  2  1  0
 35  5  1  0
 12  8  1  0
 19 14  1  0
M  END
>  <cnnaffinity>  (1) 
-5.46106

>  <filename>  (1) 
Fc1ccc2nc(N3CCCC3Cc3cccnc3)ccc2c1

$$$$
