
     RDKit          3D

 35 38  0  0  0  0  0  0  0  0999 V2000
    4.9119    1.8331   16.9633 H   0  0  0  0  0  0  0  0  0  0  0  0
    5.3880    1.3176   17.7950 C   0  0  0  0  0  0  0  0  0  0  0  0
    6.5451    0.6985   17.5170 N   0  0  0  0  0  0  0  0  0  0  0  0
    7.1680    0.0808   18.5283 C   0  0  0  0  0  0  0  0  0  0  0  0
    8.1120   -0.4040   18.2751 H   0  0  0  0  0  0  0  0  0  0  0  0
    6.6923    0.0238   19.8521 C   0  0  0  0  0  0  0  0  0  0  0  0
    7.4557   -0.6993   20.9537 C   0  0  1  0  0  0  0  0  0  0  0  0
    8.3896   -1.0891   20.5251 H   0  0  0  0  0  0  0  0  0  0  0  0
    7.8480    0.2455   22.1496 C   0  0  0  0  0  0  0  0  0  0  0  0
    7.4418    1.2566   22.0591 H   0  0  0  0  0  0  0  0  0  0  0  0
    8.9346    0.3612   22.2134 H   0  0  0  0  0  0  0  0  0  0  0  0
    7.2796   -0.4508   23.3481 C   0  0  0  0  0  0  0  0  0  0  0  0
    7.2677   -0.2002   24.6427 N   0  0  0  0  0  0  0  0  0  0  0  0
    6.6470   -1.2891   25.1590 N   0  0  0  0  0  0  0  0  0  0  0  0
    6.6012   -1.3704   26.1641 H   0  0  0  0  0  0  0  0  0  0  0  0
    6.2529   -2.2056   24.2225 C   0  0  0  0  0  0  0  0  0  0  0  0
    5.6311   -3.5253   24.4719 C   0  0  0  0  0  0  0  0  0  0  0  0
    6.0164   -4.3370   25.5515 C   0  0  0  0  0  0  0  0  0  0  0  0
    6.7424   -3.9606   26.2673 H   0  0  0  0  0  0  0  0  0  0  0  0
    5.5135   -5.6339   25.6834 C   0  0  0  0  0  0  0  0  0  0  0  0
    5.8259   -6.2883   26.4898 H   0  0  0  0  0  0  0  0  0  0  0  0
    4.6173   -6.1273   24.7415 C   0  0  0  0  0  0  0  0  0  0  0  0
    4.1528   -7.3785   24.8506 F   0  0  0  0  0  0  0  0  0  0  0  0
    4.2172   -5.3268   23.6664 C   0  0  0  0  0  0  0  0  0  0  0  0
    3.3693   -5.8226   22.7549 F   0  0  0  0  0  0  0  0  0  0  0  0
    4.7177   -4.0385   23.5291 C   0  0  0  0  0  0  0  0  0  0  0  0
    4.3863   -3.4482   22.6830 H   0  0  0  0  0  0  0  0  0  0  0  0
    6.6637   -1.6534   23.0239 C   0  0  0  0  0  0  0  0  0  0  0  0
    6.6594   -1.9175   21.5513 C   0  0  0  0  0  0  0  0  0  0  0  0
    7.1246   -2.8716   21.2647 H   0  0  0  0  0  0  0  0  0  0  0  0
    5.6321   -1.9518   21.1634 H   0  0  0  0  0  0  0  0  0  0  0  0
    5.4665    0.6659   20.1055 C   0  0  0  0  0  0  0  0  0  0  0  0
    5.0361    0.6639   21.1076 H   0  0  0  0  0  0  0  0  0  0  0  0
    4.8031    1.3216   19.0643 C   0  0  0  0  0  0  0  0  0  0  0  0
    3.8631    1.8452   19.2199 H   0  0  0  0  0  0  0  0  0  0  0  0
  1  2  1  0
  2  3  2  0
  3  4  1  0
  4  5  1  0
  4  6  2  0
  6  7  1  0
  7  8  1  6
  7  9  1  0
  9 10  1  0
  9 11  1  0
  9 12  1  0
 12 13  2  0
 13 14  1  0
 14 15  1  0
 14 16  1  0
 16 17  1  0
 17 18  2  0
 18 19  1  0
 18 20  1  0
 20 21  1  0
 20 22  2  0
 22 23  1  0
 22 24  1  0
 24 25  1  0
 24 26  2  0
 26 27  1  0
 16 28  2  0
 28 29  1  0
 29 30  1  0
 29 31  1  0
  6 32  1  0
 32 33  1  0
 32 34  2  0
 34 35  1  0
 34  2  1  0
 29  7  1  0
 28 12  1  0
 26 17  1  0
M  END
>  <cnnaffinity>  (1) 
-5.53187

>  <filename>  (1) 
Fc1ccc(-c2[nH]nc3c2C[C@@H](c2cccnc2)C3)cc1F

$$$$
