
     RDKit          3D

 28 30  0  0  0  0  0  0  0  0999 V2000
    4.9187    1.7848   16.9931 H   0  0  0  0  0  0  0  0  0  0  0  0
    5.3992    1.2936   17.8364 C   0  0  0  0  0  0  0  0  0  0  0  0
    6.5613    0.6779   17.5704 N   0  0  0  0  0  0  0  0  0  0  0  0
    7.1749    0.0665   18.5888 C   0  0  0  0  0  0  0  0  0  0  0  0
    8.1165   -0.4214   18.3545 H   0  0  0  0  0  0  0  0  0  0  0  0
    6.6758    0.0065   19.9050 C   0  0  0  0  0  0  0  0  0  0  0  0
    7.4062   -0.7056   20.9709 C   0  0  0  0  0  0  0  0  0  0  0  0
    9.1040   -1.0564   20.9140 S   0  0  0  0  0  0  0  0  0  0  0  0
    9.0425   -1.8386   22.4373 C   0  0  0  0  0  0  0  0  0  0  0  0
    9.9396   -2.2358   22.8761 H   0  0  0  0  0  0  0  0  0  0  0  0
    7.7975   -1.8459   22.9957 C   0  0  0  0  0  0  0  0  0  0  0  0
    7.4342   -2.4388   24.3046 C   0  0  0  0  0  0  0  0  0  0  0  0
    8.1405   -3.5495   24.7985 C   0  0  0  0  0  0  0  0  0  0  0  0
    8.9443   -3.9727   24.2039 H   0  0  0  0  0  0  0  0  0  0  0  0
    7.8194   -4.1239   26.0258 C   0  0  0  0  0  0  0  0  0  0  0  0
    8.3660   -4.9759   26.4179 H   0  0  0  0  0  0  0  0  0  0  0  0
    6.7699   -3.5735   26.7576 C   0  0  0  0  0  0  0  0  0  0  0  0
    6.4478   -4.1324   27.9310 F   0  0  0  0  0  0  0  0  0  0  0  0
    6.0379   -2.4739   26.3094 C   0  0  0  0  0  0  0  0  0  0  0  0
    5.2264   -2.0813   26.9162 H   0  0  0  0  0  0  0  0  0  0  0  0
    6.3771   -1.9164   25.0772 C   0  0  0  0  0  0  0  0  0  0  0  0
    5.8272   -1.0545   24.7058 H   0  0  0  0  0  0  0  0  0  0  0  0
    6.8756   -1.1931   22.1253 C   0  0  0  0  0  0  0  0  0  0  0  0
    5.8289   -1.1251   22.3283 H   0  0  0  0  0  0  0  0  0  0  0  0
    5.4463    0.6466   20.1560 C   0  0  0  0  0  0  0  0  0  0  0  0
    5.0138    0.6413   21.1599 H   0  0  0  0  0  0  0  0  0  0  0  0
    4.8073    1.3092   19.1048 C   0  0  0  0  0  0  0  0  0  0  0  0
    3.8752    1.8412   19.2567 H   0  0  0  0  0  0  0  0  0  0  0  0
  1  2  1  0
  2  3  2  0
  3  4  1  0
  4  5  1  0
  4  6  2  0
  6  7  1  0
  7  8  1  0
  8  9  1  0
  9 10  1  0
  9 11  2  0
 11 12  1  0
 12 13  2  0
 13 14  1  0
 13 15  1  0
 15 16  1  0
 15 17  2  0
 17 18  1  0
 17 19  1  0
 19 20  1  0
 19 21  2  0
 21 22  1  0
 11 23  1  0
 23 24  1  0
  6 25  1  0
 25 26  1  0
 25 27  2  0
 27 28  1  0
 27  2  1  0
 23  7  2  0
 21 12  1  0
M  END
>  <cnnaffinity>  (1) 
-4.99932

>  <filename>  (1) 
Fc1ccc(-c2csc(-c3cccnc3)c2)cc1

$$$$
