
     RDKit          3D

 32 35  0  0  0  0  0  0  0  0999 V2000
    4.9799    1.8593   16.8994 H   0  0  0  0  0  0  0  0  0  0  0  0
    5.4155    1.3053   17.7277 C   0  0  0  0  0  0  0  0  0  0  0  0
    6.5608    0.6535   17.4714 N   0  0  0  0  0  0  0  0  0  0  0  0
    7.1373    0.0015   18.4869 C   0  0  0  0  0  0  0  0  0  0  0  0
    8.0725   -0.5103   18.2659 H   0  0  0  0  0  0  0  0  0  0  0  0
    6.6091   -0.0364   19.7922 C   0  0  0  0  0  0  0  0  0  0  0  0
    7.3663   -0.6534   20.8957 C   0  0  0  0  0  0  0  0  0  0  0  0
    8.4975   -1.3405   20.6721 N   0  0  0  0  0  0  0  0  0  0  0  0
    8.9345   -1.6153   21.9221 N   0  0  0  0  0  0  0  0  0  0  0  0
   10.0583   -2.2244   22.4700 C   0  0  0  0  0  0  0  0  0  0  0  0
   10.8097   -2.6743   21.8432 H   0  0  0  0  0  0  0  0  0  0  0  0
    9.9370   -2.0813   23.8149 C   0  0  0  0  0  0  0  0  0  0  0  0
   10.5711   -2.4353   24.6126 H   0  0  0  0  0  0  0  0  0  0  0  0
    8.7630   -1.3871   24.1111 N   0  0  0  0  0  0  0  0  0  0  0  0
    8.2686   -1.0084   25.3890 C   0  0  0  0  0  0  0  0  0  0  0  0
    9.1400   -0.6261   26.4264 C   0  0  0  0  0  0  0  0  0  0  0  0
   10.2220   -0.6218   26.2828 H   0  0  0  0  0  0  0  0  0  0  0  0
    8.6174   -0.1836   27.6463 C   0  0  0  0  0  0  0  0  0  0  0  0
    9.2697    0.0799   28.4752 H   0  0  0  0  0  0  0  0  0  0  0  0
    7.2362   -0.0613   27.7925 C   0  0  0  0  0  0  0  0  0  0  0  0
    6.7429    0.4683   28.9246 F   0  0  0  0  0  0  0  0  0  0  0  0
    6.3530   -0.4379   26.7838 C   0  0  0  0  0  0  0  0  0  0  0  0
    5.2867   -0.2644   26.8996 H   0  0  0  0  0  0  0  0  0  0  0  0
    6.8738   -0.9605   25.5983 C   0  0  0  0  0  0  0  0  0  0  0  0
    6.2143   -1.2714   24.7926 H   0  0  0  0  0  0  0  0  0  0  0  0
    8.1495   -1.1172   22.8966 C   0  0  0  0  0  0  0  0  0  0  0  0
    7.0751   -0.5054   22.2712 C   0  0  0  0  0  0  0  0  0  0  0  0
    6.2120   -0.0279   22.6951 H   0  0  0  0  0  0  0  0  0  0  0  0
    5.3885    0.6176   20.0300 C   0  0  0  0  0  0  0  0  0  0  0  0
    4.9275    0.6151   21.0217 H   0  0  0  0  0  0  0  0  0  0  0  0
    4.7895    1.3020   18.9792 C   0  0  0  0  0  0  0  0  0  0  0  0
    3.8745    1.8624   19.1298 H   0  0  0  0  0  0  0  0  0  0  0  0
  1  2  1  0
  2  3  2  0
  3  4  1  0
  4  5  1  0
  4  6  2  0
  6  7  1  0
  7  8  2  0
  8  9  1  0
  9 10  1  0
 10 11  1  0
 10 12  2  0
 12 13  1  0
 12 14  1  0
 14 15  1  0
 15 16  2  0
 16 17  1  0
 16 18  1  0
 18 19  1  0
 18 20  2  0
 20 21  1  0
 20 22  1  0
 22 23  1  0
 22 24  2  0
 24 25  1  0
 14 26  1  0
 26 27  2  0
 27 28  1  0
  6 29  1  0
 29 30  1  0
 29 31  2  0
 31 32  1  0
 31  2  1  0
 27  7  1  0
 26  9  1  0
 24 15  1  0
M  END
>  <cnnaffinity>  (1) 
-5.37381

>  <filename>  (1) 
Fc1ccc(-n2ccn3nc(-c4cccnc4)cc23)cc1

$$$$
