
     RDKit          3D

 26 28  0  0  0  0  0  0  0  0999 V2000
    4.9355    1.8121   16.9669 H   0  0  0  0  0  0  0  0  0  0  0  0
    5.3964    1.3180   17.8171 C   0  0  0  0  0  0  0  0  0  0  0  0
    6.5628    0.6989   17.5745 N   0  0  0  0  0  0  0  0  0  0  0  0
    7.1563    0.0973   18.6147 C   0  0  0  0  0  0  0  0  0  0  0  0
    8.1064   -0.3881   18.3919 H   0  0  0  0  0  0  0  0  0  0  0  0
    6.6437    0.0647   19.9378 C   0  0  0  0  0  0  0  0  0  0  0  0
    7.3385   -0.6777   21.0283 C   0  0  0  0  0  0  0  0  0  0  0  0
    7.8065   -1.9688   21.0960 C   0  0  0  0  0  0  0  0  0  0  0  0
    7.7529   -2.7490   20.3696 H   0  0  0  0  0  0  0  0  0  0  0  0
    8.2985   -2.2349   22.3274 N   0  0  0  0  0  0  0  0  0  0  0  0
    8.1551   -1.1859   23.0641 N   0  0  0  0  0  0  0  0  0  0  0  0
    7.5680   -0.2309   22.3126 N   0  0  0  0  0  0  0  0  0  0  0  0
    7.2453    1.0069   22.9021 C   0  0  0  0  0  0  0  0  0  0  0  0
    6.6932    1.0401   24.1937 C   0  0  0  0  0  0  0  0  0  0  0  0
    6.5280    0.1065   24.7281 H   0  0  0  0  0  0  0  0  0  0  0  0
    6.3636    2.1817   24.7974 N   0  0  0  0  0  0  0  0  0  0  0  0
    6.5757    3.3366   24.1451 C   0  0  0  0  0  0  0  0  0  0  0  0
    6.3071    4.2623   24.6466 H   0  0  0  0  0  0  0  0  0  0  0  0
    7.1153    3.3703   22.8565 C   0  0  0  0  0  0  0  0  0  0  0  0
    7.2959    4.5435   22.2394 F   0  0  0  0  0  0  0  0  0  0  0  0
    7.4550    2.1956   22.2013 C   0  0  0  0  0  0  0  0  0  0  0  0
    7.8239    2.1916   21.1799 H   0  0  0  0  0  0  0  0  0  0  0  0
    5.4021    0.7012   20.1427 C   0  0  0  0  0  0  0  0  0  0  0  0
    4.9523    0.7014   21.1387 H   0  0  0  0  0  0  0  0  0  0  0  0
    4.7771    1.3396   19.0698 C   0  0  0  0  0  0  0  0  0  0  0  0
    3.8285    1.8512   19.1901 H   0  0  0  0  0  0  0  0  0  0  0  0
  1  2  1  0
  2  3  2  0
  3  4  1  0
  4  5  1  0
  4  6  2  0
  6  7  1  0
  7  8  2  0
  8  9  1  0
  8 10  1  0
 10 11  2  0
 11 12  1  0
 12 13  1  0
 13 14  2  0
 14 15  1  0
 14 16  1  0
 16 17  2  0
 17 18  1  0
 17 19  1  0
 19 20  1  0
 19 21  2  0
 21 22  1  0
  6 23  1  0
 23 24  1  0
 23 25  2  0
 25 26  1  0
 25  2  1  0
 12  7  1  0
 21 13  1  0
M  END
>  <cnnaffinity>  (1) 
-5.05325

>  <filename>  (1) 
Fc1cncc(-n2nncc2-c2cccnc2)c1

$$$$
