
     RDKit          3D

 32 34  0  0  0  0  0  0  0  0999 V2000
    6.6815   -1.3385   21.6229 H   0  0  0  0  0  0  0  0  0  0  0  0
    7.3269   -0.7208   20.9942 C   0  0  0  0  0  0  0  0  0  0  0  0
    8.6086   -0.5340   21.3398 C   0  0  0  0  0  0  0  0  0  0  0  0
    9.3658   -1.1551   22.4422 C   0  0  0  0  0  0  0  0  0  0  0  0
    8.8514   -2.3293   23.2029 C   0  0  0  0  0  0  0  0  0  0  0  0
    9.0764   -2.3893   24.5880 C   0  0  0  0  0  0  0  0  0  0  0  0
    9.5990   -1.5721   25.0752 H   0  0  0  0  0  0  0  0  0  0  0  0
    8.6630   -3.4880   25.3375 C   0  0  0  0  0  0  0  0  0  0  0  0
    8.8457   -3.5517   26.4067 H   0  0  0  0  0  0  0  0  0  0  0  0
    8.0168   -4.5341   24.6822 C   0  0  0  0  0  0  0  0  0  0  0  0
    7.6163   -5.5970   25.3973 F   0  0  0  0  0  0  0  0  0  0  0  0
    7.7763   -4.5152   23.3093 C   0  0  0  0  0  0  0  0  0  0  0  0
    7.2682   -5.3548   22.8445 H   0  0  0  0  0  0  0  0  0  0  0  0
    8.1947   -3.4044   22.5734 C   0  0  0  0  0  0  0  0  0  0  0  0
    8.0184   -3.3866   21.5005 H   0  0  0  0  0  0  0  0  0  0  0  0
   10.4812   -0.5769   22.7010 N   0  0  0  0  0  0  0  0  0  0  0  0
   10.6982    0.5133   21.7473 C   0  0  0  0  0  0  0  0  0  0  0  0
   11.6669    0.3730   21.2648 H   0  0  0  0  0  0  0  0  0  0  0  0
   10.7409    1.4535   22.3049 H   0  0  0  0  0  0  0  0  0  0  0  0
    9.5132    0.5164   20.7509 C   0  0  0  0  0  0  0  0  0  0  0  0
    9.7552    0.1843   19.7425 H   0  0  0  0  0  0  0  0  0  0  0  0
    9.0287    1.4933   20.6574 H   0  0  0  0  0  0  0  0  0  0  0  0
    6.6420   -0.0140   19.8946 C   0  0  0  0  0  0  0  0  0  0  0  0
    7.1644    0.0663   18.5902 C   0  0  0  0  0  0  0  0  0  0  0  0
    8.1085   -0.4273   18.3744 H   0  0  0  0  0  0  0  0  0  0  0  0
    6.5630    0.6862   17.5682 N   0  0  0  0  0  0  0  0  0  0  0  0
    5.3995    1.2992   17.8338 C   0  0  0  0  0  0  0  0  0  0  0  0
    4.9142    1.7848   16.9926 H   0  0  0  0  0  0  0  0  0  0  0  0
    4.8001    1.3136   19.1014 C   0  0  0  0  0  0  0  0  0  0  0  0
    3.8691    1.8486   19.2558 H   0  0  0  0  0  0  0  0  0  0  0  0
    5.4221    0.6348   20.1456 C   0  0  0  0  0  0  0  0  0  0  0  0
    5.0061    0.6240   21.1603 H   0  0  0  0  0  0  0  0  0  0  0  0
  1  2  1  0
  2  3  2  3
  3  4  1  0
  4  5  1  0
  5  6  2  0
  6  7  1  0
  6  8  1  0
  8  9  1  0
  8 10  2  0
 10 11  1  0
 10 12  1  0
 12 13  1  0
 12 14  2  0
 14 15  1  0
  4 16  2  0
 16 17  1  0
 17 18  1  0
 17 19  1  0
 17 20  1  0
 20 21  1  0
 20 22  1  0
  2 23  1  0
 23 24  2  0
 24 25  1  0
 24 26  1  0
 26 27  2  0
 27 28  1  0
 27 29  1  0
 29 30  1  0
 29 31  2  0
 31 32  1  0
 20  3  1  0
 31 23  1  0
 14  5  1  0
M  END
>  <cnnaffinity>  (1) 
-5.10315

>  <filename>  (1) 
Fc1ccc(C2=NCCC2=Cc2cccnc2)cc1

$$$$
