
     RDKit          3D

 38 40  0  0  0  0  0  0  0  0999 V2000
    5.9885   -3.1760   26.8475 F   0  0  0  0  0  0  0  0  0  0  0  0
    6.6379   -2.4708   25.9133 C   0  0  0  0  0  0  0  0  0  0  0  0
    5.9255   -1.5375   25.1729 C   0  0  0  0  0  0  0  0  0  0  0  0
    6.6056   -0.8165   24.2006 C   0  0  0  0  0  0  0  0  0  0  0  0
    7.9887   -1.0347   24.0187 C   0  0  0  0  0  0  0  0  0  0  0  0
    8.6944   -0.3043   23.1116 N   0  0  0  0  0  0  0  0  0  0  0  0
   10.1371   -0.1669   23.2036 C   0  0  0  0  0  0  0  0  0  0  0  0
   10.4384    0.9920   22.2528 C   0  0  0  0  0  0  0  0  0  0  0  0
    9.2795    0.9933   21.2486 C   0  0  0  0  0  0  0  0  0  0  0  0
    8.0888    0.3109   21.9404 C   0  0  0  0  0  0  0  0  0  0  0  0
    7.3652   -0.7056   21.0095 C   0  0  0  0  0  0  0  0  0  0  0  0
    6.6319   -0.0308   19.8666 C   0  0  0  0  0  0  0  0  0  0  0  0
    5.4180    0.6365   20.1077 C   0  0  0  0  0  0  0  0  0  0  0  0
    4.7881    1.3122   19.0614 C   0  0  0  0  0  0  0  0  0  0  0  0
    5.3961    1.3089   17.8034 C   0  0  0  0  0  0  0  0  0  0  0  0
    6.5489    0.6779   17.5399 N   0  0  0  0  0  0  0  0  0  0  0  0
    7.1436    0.0352   18.5558 C   0  0  0  0  0  0  0  0  0  0  0  0
    8.0927   -0.4472   18.3107 H   0  0  0  0  0  0  0  0  0  0  0  0
    4.9374    1.8385   16.9709 H   0  0  0  0  0  0  0  0  0  0  0  0
    3.8621    1.8594   19.2109 H   0  0  0  0  0  0  0  0  0  0  0  0
    4.9869    0.6483   21.1125 H   0  0  0  0  0  0  0  0  0  0  0  0
    6.6554   -1.3003   21.5959 H   0  0  0  0  0  0  0  0  0  0  0  0
    8.1156   -1.4204   20.6469 H   0  0  0  0  0  0  0  0  0  0  0  0
    7.3538    1.0654   22.2652 H   0  0  0  0  0  0  0  0  0  0  0  0
    9.0092    1.9948   20.9079 H   0  0  0  0  0  0  0  0  0  0  0  0
    9.5475    0.4075   20.3657 H   0  0  0  0  0  0  0  0  0  0  0  0
   11.4108    0.8732   21.7684 H   0  0  0  0  0  0  0  0  0  0  0  0
   10.4575    1.9295   22.8147 H   0  0  0  0  0  0  0  0  0  0  0  0
   10.4434    0.0509   24.2352 H   0  0  0  0  0  0  0  0  0  0  0  0
   10.6283   -1.1086   22.9205 H   0  0  0  0  0  0  0  0  0  0  0  0
    8.6700   -1.9404   24.7422 N   0  0  0  0  0  0  0  0  0  0  0  0
    8.0079   -2.6597   25.6682 C   0  0  0  0  0  0  0  0  0  0  0  0
    8.6881   -3.7809   26.4990 C   0  0  0  0  0  0  0  0  0  0  0  0
    8.3855   -3.6692   27.8036 F   0  0  0  0  0  0  0  0  0  0  0  0
    8.2440   -4.9856   26.0927 F   0  0  0  0  0  0  0  0  0  0  0  0
   10.0167   -3.8099   26.4037 F   0  0  0  0  0  0  0  0  0  0  0  0
    6.1061   -0.0873   23.5806 H   0  0  0  0  0  0  0  0  0  0  0  0
    4.8681   -1.3963   25.3708 H   0  0  0  0  0  0  0  0  0  0  0  0
  1  2  1  0
  2  3  2  0
  3  4  1  0
  4  5  2  0
  5  6  1  0
  6  7  1  0
  7  8  1  0
  8  9  1  0
  9 10  1  0
 10 11  1  0
 11 12  1  0
 12 13  2  0
 13 14  1  0
 14 15  2  0
 15 16  1  0
 16 17  2  0
 17 18  1  0
 15 19  1  0
 14 20  1  0
 13 21  1  0
 11 22  1  0
 11 23  1  0
 10 24  1  0
  9 25  1  0
  9 26  1  0
  8 27  1  0
  8 28  1  0
  7 29  1  0
  7 30  1  0
  5 31  1  0
 31 32  2  0
 32 33  1  0
 33 34  1  0
 33 35  1  0
 33 36  1  0
  4 37  1  0
  3 38  1  0
 32  2  1  0
 10  6  1  0
 17 12  1  0
M  END
>  <cnnaffinity>  (1) 
-5.63829

>  <filename>  (1) 
Fc1ccc(N2CCCC2Cc2cccnc2)nc1C(F)(F)F

$$$$
