
     RDKit          3D

 35 38  0  0  0  0  0  0  0  0999 V2000
    4.9911    1.8516   16.9140 H   0  0  0  0  0  0  0  0  0  0  0  0
    5.4131    1.2978   17.7524 C   0  0  0  0  0  0  0  0  0  0  0  0
    6.5525    0.6324   17.5082 N   0  0  0  0  0  0  0  0  0  0  0  0
    7.1254   -0.0023   18.5349 C   0  0  0  0  0  0  0  0  0  0  0  0
    8.0340   -0.5503   18.3004 H   0  0  0  0  0  0  0  0  0  0  0  0
    6.6237    0.0078   19.8512 C   0  0  0  0  0  0  0  0  0  0  0  0
    7.3892   -0.6158   20.9400 C   0  0  0  0  0  0  0  0  0  0  0  0
    8.1161   -1.7147   20.7349 N   0  0  0  0  0  0  0  0  0  0  0  0
    8.6158   -1.9856   21.9386 N   0  0  0  0  0  0  0  0  0  0  0  0
    8.2885   -1.1385   22.9115 C   0  0  0  0  0  0  0  0  0  0  0  0
    7.4692   -0.1968   22.3144 C   0  0  0  0  0  0  0  0  0  0  0  0
    7.0062    1.0293   22.9704 C   0  0  0  0  0  0  0  0  0  0  0  0
    7.2196    2.2738   22.3570 C   0  0  0  0  0  0  0  0  0  0  0  0
    7.6501    2.2877   21.3570 H   0  0  0  0  0  0  0  0  0  0  0  0
    6.9120    3.4626   23.0154 C   0  0  0  0  0  0  0  0  0  0  0  0
    7.1466    4.4083   22.5413 H   0  0  0  0  0  0  0  0  0  0  0  0
    6.3452    3.4259   24.2925 C   0  0  0  0  0  0  0  0  0  0  0  0
    6.1137    4.3549   24.8058 H   0  0  0  0  0  0  0  0  0  0  0  0
    6.0993    2.2033   24.9212 C   0  0  0  0  0  0  0  0  0  0  0  0
    5.6720    2.1482   25.9176 H   0  0  0  0  0  0  0  0  0  0  0  0
    6.4500    1.0291   24.2613 C   0  0  0  0  0  0  0  0  0  0  0  0
    6.2342   -0.1408   24.9045 F   0  0  0  0  0  0  0  0  0  0  0  0
    9.0621   -1.4461   24.1708 C   0  0  0  0  0  0  0  0  0  0  0  0
    9.6884   -0.6028   24.4847 H   0  0  0  0  0  0  0  0  0  0  0  0
    8.3941   -1.6707   25.0032 H   0  0  0  0  0  0  0  0  0  0  0  0
    9.9494   -2.6498   23.7491 C   0  0  0  0  0  0  0  0  0  0  0  0
   10.9919   -2.3486   23.7148 H   0  0  0  0  0  0  0  0  0  0  0  0
    9.8686   -3.4834   24.4483 H   0  0  0  0  0  0  0  0  0  0  0  0
    9.5347   -3.0273   22.3011 C   0  0  0  0  0  0  0  0  0  0  0  0
   10.3860   -2.9647   21.6263 H   0  0  0  0  0  0  0  0  0  0  0  0
    9.0349   -3.9947   22.2170 H   0  0  0  0  0  0  0  0  0  0  0  0
    5.3869    0.6430   20.0698 C   0  0  0  0  0  0  0  0  0  0  0  0
    4.9069    0.6300   21.0529 H   0  0  0  0  0  0  0  0  0  0  0  0
    4.7826    1.3029   19.0007 C   0  0  0  0  0  0  0  0  0  0  0  0
    3.8490    1.8380   19.1190 H   0  0  0  0  0  0  0  0  0  0  0  0
  1  2  1  0
  2  3  2  0
  3  4  1  0
  4  5  1  0
  4  6  2  0
  6  7  1  0
  7  8  2  0
  8  9  1  0
  9 10  1  0
 10 11  2  0
 11 12  1  0
 12 13  2  0
 13 14  1  0
 13 15  1  0
 15 16  1  0
 15 17  2  0
 17 18  1  0
 17 19  1  0
 19 20  1  0
 19 21  2  0
 21 22  1  0
 10 23  1  0
 23 24  1  0
 23 25  1  0
 23 26  1  0
 26 27  1  0
 26 28  1  0
 26 29  1  0
 29 30  1  0
 29 31  1  0
  6 32  1  0
 32 33  1  0
 32 34  2  0
 34 35  1  0
 34  2  1  0
 11  7  1  0
 21 12  1  0
 29  9  1  0
M  END
>  <cnnaffinity>  (1) 
-5.4866

>  <filename>  (1) 
Fc1ccccc1-c1c(-c2cccnc2)nn2c1CCC2

$$$$
