
     RDKit          3D

 29 31  0  0  0  0  0  0  0  0999 V2000
    8.6153   -3.7010   21.4324 H   0  0  0  0  0  0  0  0  0  0  0  0
    8.3359   -2.6771   21.6534 C   0  0  0  0  0  0  0  0  0  0  0  0
    8.6187   -2.2361   22.8798 N   0  0  0  0  0  0  0  0  0  0  0  0
    8.2721   -0.9768   23.1297 C   0  0  0  0  0  0  0  0  0  0  0  0
    8.5148   -0.5915   24.1194 H   0  0  0  0  0  0  0  0  0  0  0  0
    7.6612   -0.1378   22.2023 C   0  0  0  0  0  0  0  0  0  0  0  0
    7.3858    1.2917   22.5346 C   0  0  0  0  0  0  0  0  0  0  0  0
    6.6597    1.6282   23.6856 C   0  0  0  0  0  0  0  0  0  0  0  0
    6.2951    0.8369   24.3368 H   0  0  0  0  0  0  0  0  0  0  0  0
    6.3835    2.9605   24.0006 C   0  0  0  0  0  0  0  0  0  0  0  0
    5.8260    3.2329   24.8900 H   0  0  0  0  0  0  0  0  0  0  0  0
    6.8573    3.9556   23.1462 C   0  0  0  0  0  0  0  0  0  0  0  0
    6.6036    5.2408   23.4398 F   0  0  0  0  0  0  0  0  0  0  0  0
    7.5940    3.6602   22.0024 C   0  0  0  0  0  0  0  0  0  0  0  0
    7.9466    4.4724   21.3740 H   0  0  0  0  0  0  0  0  0  0  0  0
    7.8530    2.3235   21.7003 C   0  0  0  0  0  0  0  0  0  0  0  0
    8.4104    2.0603   20.8055 H   0  0  0  0  0  0  0  0  0  0  0  0
    7.3900   -0.7374   20.9533 C   0  0  0  0  0  0  0  0  0  0  0  0
    6.6508   -0.0146   19.9031 C   0  0  0  0  0  0  0  0  0  0  0  0
    7.1734    0.0418   18.6099 C   0  0  0  0  0  0  0  0  0  0  0  0
    8.1233   -0.4387   18.3751 H   0  0  0  0  0  0  0  0  0  0  0  0
    6.5774    0.6744   17.5953 N   0  0  0  0  0  0  0  0  0  0  0  0
    5.4087    1.2874   17.8489 C   0  0  0  0  0  0  0  0  0  0  0  0
    4.9213    1.7749   17.0047 H   0  0  0  0  0  0  0  0  0  0  0  0
    4.8078    1.3016   19.1119 C   0  0  0  0  0  0  0  0  0  0  0  0
    3.8768    1.8413   19.2603 H   0  0  0  0  0  0  0  0  0  0  0  0
    5.4377    0.6417   20.1641 C   0  0  0  0  0  0  0  0  0  0  0  0
    5.0092    0.6401   21.1709 H   0  0  0  0  0  0  0  0  0  0  0  0
    7.7585   -1.9904   20.6757 N   0  0  0  0  0  0  0  0  0  0  0  0
  1  2  1  0
  2  3  2  0
  3  4  1  0
  4  5  1  0
  4  6  2  0
  6  7  1  0
  7  8  2  0
  8  9  1  0
  8 10  1  0
 10 11  1  0
 10 12  2  0
 12 13  1  0
 12 14  1  0
 14 15  1  0
 14 16  2  0
 16 17  1  0
  6 18  1  0
 18 19  1  0
 19 20  2  0
 20 21  1  0
 20 22  1  0
 22 23  2  0
 23 24  1  0
 23 25  1  0
 25 26  1  0
 25 27  2  0
 27 28  1  0
 18 29  2  0
 29  2  1  0
 16  7  1  0
 27 19  1  0
M  END
>  <cnnaffinity>  (1) 
-4.72637

>  <filename>  (1) 
Fc1ccc(-c2cncnc2-c2cccnc2)cc1

$$$$
