
     RDKit          3D

 31 33  0  0  0  0  0  0  0  0999 V2000
    4.9891    1.7947   16.9170 H   0  0  0  0  0  0  0  0  0  0  0  0
    5.4436    1.3067   17.7796 C   0  0  0  0  0  0  0  0  0  0  0  0
    6.6153    0.6893   17.5629 N   0  0  0  0  0  0  0  0  0  0  0  0
    7.2049    0.0977   18.6090 C   0  0  0  0  0  0  0  0  0  0  0  0
    8.1523   -0.3968   18.3971 H   0  0  0  0  0  0  0  0  0  0  0  0
    6.6800    0.0858   19.9135 C   0  0  0  0  0  0  0  0  0  0  0  0
    7.4307   -0.5589   20.9873 C   0  0  0  0  0  0  0  0  0  0  0  0
    8.3852   -1.5162   20.9443 C   0  0  0  0  0  0  0  0  0  0  0  0
    8.9144   -1.9811   20.1318 H   0  0  0  0  0  0  0  0  0  0  0  0
    8.7236   -1.8370   22.2449 N   0  0  0  0  0  0  0  0  0  0  0  0
    9.6989   -2.8075   22.4907 N   0  0  0  0  0  0  0  0  0  0  0  0
   10.6088   -2.3770   22.6481 H   0  0  0  0  0  0  0  0  0  0  0  0
    9.4761   -3.7867   23.4940 C   0  0  0  0  0  0  0  0  0  0  0  0
    8.2498   -4.4343   23.6917 C   0  0  0  0  0  0  0  0  0  0  0  0
    7.3855   -4.1431   23.1012 H   0  0  0  0  0  0  0  0  0  0  0  0
    8.1426   -5.4555   24.6481 C   0  0  0  0  0  0  0  0  0  0  0  0
    7.2176   -5.9906   24.8375 H   0  0  0  0  0  0  0  0  0  0  0  0
    9.2598   -5.8211   25.3934 C   0  0  0  0  0  0  0  0  0  0  0  0
    9.1434   -6.8178   26.2868 F   0  0  0  0  0  0  0  0  0  0  0  0
   10.4803   -5.1711   25.2347 C   0  0  0  0  0  0  0  0  0  0  0  0
   11.3310   -5.4494   25.8403 H   0  0  0  0  0  0  0  0  0  0  0  0
   10.5844   -4.1653   24.2705 C   0  0  0  0  0  0  0  0  0  0  0  0
   11.5277   -3.6436   24.1289 H   0  0  0  0  0  0  0  0  0  0  0  0
    8.0208   -1.0379   23.1343 C   0  0  0  0  0  0  0  0  0  0  0  0
    8.0448   -0.9185   24.7915 S   0  0  0  0  0  0  0  0  0  0  0  0
    7.2340   -0.2801   22.3308 N   0  0  0  0  0  0  0  0  0  0  0  0
    6.6403    0.4000   22.7812 H   0  0  0  0  0  0  0  0  0  0  0  0
    5.4294    0.6967   20.1079 C   0  0  0  0  0  0  0  0  0  0  0  0
    4.9479    0.6682   21.0859 H   0  0  0  0  0  0  0  0  0  0  0  0
    4.8088    1.3215   19.0273 C   0  0  0  0  0  0  0  0  0  0  0  0
    3.8581    1.8281   19.1444 H   0  0  0  0  0  0  0  0  0  0  0  0
  1  2  1  0
  2  3  2  0
  3  4  1  0
  4  5  1  0
  4  6  2  0
  6  7  1  0
  7  8  2  0
  8  9  1  0
  8 10  1  0
 10 11  1  0
 11 12  1  0
 11 13  1  0
 13 14  2  0
 14 15  1  0
 14 16  1  0
 16 17  1  0
 16 18  2  0
 18 19  1  0
 18 20  1  0
 20 21  1  0
 20 22  2  0
 22 23  1  0
 10 24  1  0
 24 25  2  0
 24 26  1  0
 26 27  1  0
  6 28  1  0
 28 29  1  0
 28 30  2  0
 30 31  1  0
 30  2  1  0
 26  7  1  0
 22 13  1  0
M  END
>  <cnnaffinity>  (1) 
-5.43903

>  <filename>  (1) 
Fc1ccc(Nn2cc(-c3cccnc3)[nH]c2=S)cc1

$$$$
