
     RDKit          3D

 27 29  0  0  0  0  0  0  0  0999 V2000
    4.9157    1.7759   17.0019 H   0  0  0  0  0  0  0  0  0  0  0  0
    5.4058    1.2931   17.8418 C   0  0  0  0  0  0  0  0  0  0  0  0
    6.5722    0.6788   17.5795 N   0  0  0  0  0  0  0  0  0  0  0  0
    7.1731    0.0590   18.5971 C   0  0  0  0  0  0  0  0  0  0  0  0
    8.1190   -0.4366   18.3808 H   0  0  0  0  0  0  0  0  0  0  0  0
    6.6501    0.0262   19.8966 C   0  0  0  0  0  0  0  0  0  0  0  0
    7.3701   -0.7104   20.9304 C   0  0  0  0  0  0  0  0  0  0  0  0
    7.9350   -1.8723   20.7433 N   0  0  0  0  0  0  0  0  0  0  0  0
    8.4299   -2.2982   21.9459 N   0  0  0  0  0  0  0  0  0  0  0  0
    8.1661   -1.3682   22.8184 C   0  0  0  0  0  0  0  0  0  0  0  0
    8.4562   -1.3925   23.8572 H   0  0  0  0  0  0  0  0  0  0  0  0
    7.4950   -0.3178   22.2469 N   0  0  0  0  0  0  0  0  0  0  0  0
    7.1539    0.9208   22.8655 C   0  0  0  0  0  0  0  0  0  0  0  0
    7.4102    2.1324   22.2135 C   0  0  0  0  0  0  0  0  0  0  0  0
    7.8489    2.1618   21.2233 H   0  0  0  0  0  0  0  0  0  0  0  0
    7.0604    3.3141   22.8591 C   0  0  0  0  0  0  0  0  0  0  0  0
    7.2903    4.4777   22.2381 F   0  0  0  0  0  0  0  0  0  0  0  0
    6.4863    3.3536   24.1242 C   0  0  0  0  0  0  0  0  0  0  0  0
    6.2306    4.2904   24.6071 H   0  0  0  0  0  0  0  0  0  0  0  0
    6.2668    2.1252   24.7355 C   0  0  0  0  0  0  0  0  0  0  0  0
    5.7264    2.1223   25.9607 F   0  0  0  0  0  0  0  0  0  0  0  0
    6.5855    0.9078   24.1432 C   0  0  0  0  0  0  0  0  0  0  0  0
    6.3833   -0.0197   24.6662 H   0  0  0  0  0  0  0  0  0  0  0  0
    5.4250    0.6536   20.1543 C   0  0  0  0  0  0  0  0  0  0  0  0
    5.0032    0.6347   21.1630 H   0  0  0  0  0  0  0  0  0  0  0  0
    4.7986    1.3123   19.1044 C   0  0  0  0  0  0  0  0  0  0  0  0
    3.8683    1.8463   19.2612 H   0  0  0  0  0  0  0  0  0  0  0  0
  1  2  1  0
  2  3  2  0
  3  4  1  0
  4  5  1  0
  4  6  2  0
  6  7  1  0
  7  8  2  0
  8  9  1  0
  9 10  2  0
 10 11  1  0
 10 12  1  0
 12 13  1  0
 13 14  2  0
 14 15  1  0
 14 16  1  0
 16 17  1  0
 16 18  2  0
 18 19  1  0
 18 20  1  0
 20 21  1  0
 20 22  2  0
 22 23  1  0
  6 24  1  0
 24 25  1  0
 24 26  2  0
 26 27  1  0
 26  2  1  0
 12  7  1  0
 22 13  1  0
M  END
>  <cnnaffinity>  (1) 
-5.16437

>  <filename>  (1) 
Fc1cc(F)cc(-n2cnnc2-c2cccnc2)c1

$$$$
