
     RDKit          3D

 27 29  0  0  0  0  0  0  0  0999 V2000
    4.9085    1.7739   17.0031 H   0  0  0  0  0  0  0  0  0  0  0  0
    5.4010    1.2920   17.8436 C   0  0  0  0  0  0  0  0  0  0  0  0
    6.5716    0.6795   17.5863 N   0  0  0  0  0  0  0  0  0  0  0  0
    7.1847    0.0558   18.5954 C   0  0  0  0  0  0  0  0  0  0  0  0
    8.1319   -0.4386   18.3803 H   0  0  0  0  0  0  0  0  0  0  0  0
    6.6576    0.0108   19.9015 C   0  0  0  0  0  0  0  0  0  0  0  0
    7.3558   -0.6628   20.9495 N   0  0  0  0  0  0  0  0  0  0  0  0
    8.1215   -1.7543   20.7175 N   0  0  0  0  0  0  0  0  0  0  0  0
    8.5981   -2.1251   21.8455 N   0  0  0  0  0  0  0  0  0  0  0  0
    8.1894   -1.3146   22.8508 N   0  0  0  0  0  0  0  0  0  0  0  0
    7.4392   -0.4140   22.2799 C   0  0  0  0  0  0  0  0  0  0  0  0
    6.7911    0.6293   22.8371 O   0  0  0  0  0  0  0  0  0  0  0  0
    7.0663    1.0343   24.1495 C   0  0  0  0  0  0  0  0  0  0  0  0
    8.3655    1.1937   24.6722 C   0  0  0  0  0  0  0  0  0  0  0  0
    9.4226    0.9478   23.8920 F   0  0  0  0  0  0  0  0  0  0  0  0
    8.5951    1.6139   25.9819 C   0  0  0  0  0  0  0  0  0  0  0  0
    9.6152    1.6857   26.3447 H   0  0  0  0  0  0  0  0  0  0  0  0
    7.5122    1.9384   26.7969 C   0  0  0  0  0  0  0  0  0  0  0  0
    7.6904    2.2698   27.8163 H   0  0  0  0  0  0  0  0  0  0  0  0
    6.2096    1.8533   26.3028 C   0  0  0  0  0  0  0  0  0  0  0  0
    5.3606    2.1187   26.9292 H   0  0  0  0  0  0  0  0  0  0  0  0
    6.0021    1.4193   24.9902 C   0  0  0  0  0  0  0  0  0  0  0  0
    4.7391    1.3553   24.5427 F   0  0  0  0  0  0  0  0  0  0  0  0
    5.4427    0.6478   20.1652 C   0  0  0  0  0  0  0  0  0  0  0  0
    5.0109    0.6301   21.1629 H   0  0  0  0  0  0  0  0  0  0  0  0
    4.8067    1.3067   19.1108 C   0  0  0  0  0  0  0  0  0  0  0  0
    3.8731    1.8439   19.2673 H   0  0  0  0  0  0  0  0  0  0  0  0
  1  2  1  0
  2  3  2  0
  3  4  1  0
  4  5  1  0
  4  6  2  0
  6  7  1  0
  7  8  1  0
  8  9  2  0
  9 10  1  0
 10 11  2  0
 11 12  1  0
 12 13  1  0
 13 14  2  0
 14 15  1  0
 14 16  1  0
 16 17  1  0
 16 18  2  0
 18 19  1  0
 18 20  1  0
 20 21  1  0
 20 22  2  0
 22 23  1  0
  6 24  1  0
 24 25  1  0
 24 26  2  0
 26 27  1  0
 26  2  1  0
 11  7  1  0
 22 13  1  0
M  END
>  <cnnaffinity>  (1) 
-5.13148

>  <filename>  (1) 
Fc1cccc(F)c1Oc1nnnn1-c1cccnc1

$$$$
