
     RDKit          3D

 29 32  0  0  0  0  0  0  0  0999 V2000
    4.9172    1.7764   17.0012 H   0  0  0  0  0  0  0  0  0  0  0  0
    5.4047    1.2900   17.8419 C   0  0  0  0  0  0  0  0  0  0  0  0
    6.5698    0.6776   17.5760 N   0  0  0  0  0  0  0  0  0  0  0  0
    7.1737    0.0564   18.5898 C   0  0  0  0  0  0  0  0  0  0  0  0
    8.1237   -0.4342   18.3733 H   0  0  0  0  0  0  0  0  0  0  0  0
    6.6468    0.0112   19.8914 C   0  0  0  0  0  0  0  0  0  0  0  0
    7.4019   -0.6975   20.9227 C   0  0  0  0  0  0  0  0  0  0  0  0
    8.3294   -1.5980   20.7074 N   0  0  0  0  0  0  0  0  0  0  0  0
    8.8296   -2.0258   21.9158 N   0  0  0  0  0  0  0  0  0  0  0  0
    8.1981   -1.3396   22.8312 C   0  0  0  0  0  0  0  0  0  0  0  0
    8.2814   -1.0861   24.5495 S   0  0  0  0  0  0  0  0  0  0  0  0
    7.0511    0.1841   24.3314 C   0  0  0  0  0  0  0  0  0  0  0  0
    6.5474    1.0055   25.4486 C   0  0  0  0  0  0  0  0  0  0  0  0
    5.6579    2.0681   25.1971 C   0  0  0  0  0  0  0  0  0  0  0  0
    5.3585    2.2589   24.1743 H   0  0  0  0  0  0  0  0  0  0  0  0
    5.1613    2.8685   26.2184 C   0  0  0  0  0  0  0  0  0  0  0  0
    4.4766    3.6823   26.0150 H   0  0  0  0  0  0  0  0  0  0  0  0
    5.5635    2.6038   27.5222 C   0  0  0  0  0  0  0  0  0  0  0  0
    5.0897    3.3705   28.5110 F   0  0  0  0  0  0  0  0  0  0  0  0
    6.4375    1.5737   27.8393 C   0  0  0  0  0  0  0  0  0  0  0  0
    6.7354    1.3849   28.8642 H   0  0  0  0  0  0  0  0  0  0  0  0
    6.9133    0.7905   26.7913 C   0  0  0  0  0  0  0  0  0  0  0  0
    7.7458   -0.1995   27.0984 F   0  0  0  0  0  0  0  0  0  0  0  0
    6.6311    0.3638   23.1147 N   0  0  0  0  0  0  0  0  0  0  0  0
    7.2692   -0.5127   22.2861 N   0  0  0  0  0  0  0  0  0  0  0  0
    5.4323    0.6522   20.1617 C   0  0  0  0  0  0  0  0  0  0  0  0
    5.0087    0.6353   21.1695 H   0  0  0  0  0  0  0  0  0  0  0  0
    4.8047    1.3082   19.1081 C   0  0  0  0  0  0  0  0  0  0  0  0
    3.8739    1.8434   19.2608 H   0  0  0  0  0  0  0  0  0  0  0  0
  1  2  1  0
  2  3  2  0
  3  4  1  0
  4  5  1  0
  4  6  2  0
  6  7  1  0
  7  8  2  0
  8  9  1  0
  9 10  2  0
 10 11  1  0
 11 12  1  0
 12 13  1  0
 13 14  2  0
 14 15  1  0
 14 16  1  0
 16 17  1  0
 16 18  2  0
 18 19  1  0
 18 20  1  0
 20 21  1  0
 20 22  2  0
 22 23  1  0
 12 24  2  0
 24 25  1  0
  6 26  1  0
 26 27  1  0
 26 28  2  0
 28 29  1  0
 28  2  1  0
 25  7  1  0
 25 10  1  0
 22 13  1  0
M  END
>  <cnnaffinity>  (1) 
-5.4354

>  <filename>  (1) 
Fc1ccc(-c2nn3c(-c4cccnc4)nnc3s2)c(F)c1

$$$$
