
     RDKit          3D

 30 33  0  0  0  0  0  0  0  0999 V2000
    4.9206    1.7716   17.0047 H   0  0  0  0  0  0  0  0  0  0  0  0
    5.4089    1.2859   17.8477 C   0  0  0  0  0  0  0  0  0  0  0  0
    6.5745    0.6696   17.5957 N   0  0  0  0  0  0  0  0  0  0  0  0
    7.1821    0.0537   18.6150 C   0  0  0  0  0  0  0  0  0  0  0  0
    8.1277   -0.4338   18.3840 H   0  0  0  0  0  0  0  0  0  0  0  0
    6.6483    0.0147   19.9109 C   0  0  0  0  0  0  0  0  0  0  0  0
    7.3615   -0.6891   20.9693 C   0  0  0  0  0  0  0  0  0  0  0  0
    8.5465   -1.3264   20.7581 N   0  0  0  0  0  0  0  0  0  0  0  0
    8.7976   -1.8148   21.9567 C   0  0  0  0  0  0  0  0  0  0  0  0
    9.9893   -2.8180   22.7257 S   0  0  0  0  0  0  0  0  0  0  0  0
    9.0758   -2.7636   24.2048 C   0  0  0  0  0  0  0  0  0  0  0  0
    9.4581   -3.2874   25.0717 H   0  0  0  0  0  0  0  0  0  0  0  0
    7.9553   -2.0161   24.1220 C   0  0  0  0  0  0  0  0  0  0  0  0
    6.9651   -1.7634   25.1977 C   0  0  0  0  0  0  0  0  0  0  0  0
    6.2483   -0.5553   25.2727 C   0  0  0  0  0  0  0  0  0  0  0  0
    6.3849    0.2267   24.5329 H   0  0  0  0  0  0  0  0  0  0  0  0
    5.3455   -0.3872   26.3147 C   0  0  0  0  0  0  0  0  0  0  0  0
    4.6543    0.7574   26.3850 F   0  0  0  0  0  0  0  0  0  0  0  0
    5.1200   -1.3513   27.2925 C   0  0  0  0  0  0  0  0  0  0  0  0
    4.4108   -1.1922   28.0943 H   0  0  0  0  0  0  0  0  0  0  0  0
    5.8513   -2.5283   27.1928 C   0  0  0  0  0  0  0  0  0  0  0  0
    5.6568   -3.4798   28.1152 F   0  0  0  0  0  0  0  0  0  0  0  0
    6.7699   -2.7570   26.1763 C   0  0  0  0  0  0  0  0  0  0  0  0
    7.3009   -3.7037   26.1481 H   0  0  0  0  0  0  0  0  0  0  0  0
    7.8322   -1.4801   22.8356 N   0  0  0  0  0  0  0  0  0  0  0  0
    6.8800   -0.7505   22.2075 N   0  0  0  0  0  0  0  0  0  0  0  0
    5.4289    0.6576   20.1666 C   0  0  0  0  0  0  0  0  0  0  0  0
    5.0014    0.6325   21.1727 H   0  0  0  0  0  0  0  0  0  0  0  0
    4.8045    1.3104   19.1105 C   0  0  0  0  0  0  0  0  0  0  0  0
    3.8738    1.8435   19.2618 H   0  0  0  0  0  0  0  0  0  0  0  0
  1  2  1  0
  2  3  2  0
  3  4  1  0
  4  5  1  0
  4  6  2  0
  6  7  1  0
  7  8  1  0
  8  9  2  0
  9 10  1  0
 10 11  1  0
 11 12  1  0
 11 13  2  0
 13 14  1  0
 14 15  2  0
 15 16  1  0
 15 17  1  0
 17 18  1  0
 17 19  2  0
 19 20  1  0
 19 21  1  0
 21 22  1  0
 21 23  2  0
 23 24  1  0
 13 25  1  0
 25 26  1  0
  6 27  1  0
 27 28  1  0
 27 29  2  0
 29 30  1  0
 29  2  1  0
 26  7  2  0
 25  9  1  0
 23 14  1  0
M  END
>  <cnnaffinity>  (1) 
-5.73793

>  <filename>  (1) 
Fc1cc(F)cc(-c2csc3nc(-c4cccnc4)nn23)c1

$$$$
