
     RDKit          3D

 23 24  0  0  0  0  0  0  0  0999 V2000
    5.3757    1.8365   16.9455 H   0  0  0  0  0  0  0  0  0  0  0  0
    5.6505    1.2623   17.8289 C   0  0  0  0  0  0  0  0  0  0  0  0
    6.7460    0.4936   17.7293 N   0  0  0  0  0  0  0  0  0  0  0  0
    7.1256   -0.2113   18.8098 C   0  0  0  0  0  0  0  0  0  0  0  0
    7.9942   -0.8554   18.6709 H   0  0  0  0  0  0  0  0  0  0  0  0
    6.4503   -0.1741   20.0624 C   0  0  0  0  0  0  0  0  0  0  0  0
    6.8560   -0.8422   21.2362 N   0  0  0  0  0  0  0  0  0  0  0  0
    6.3012   -0.6203   22.0545 H   0  0  0  0  0  0  0  0  0  0  0  0
    8.3977   -1.4403   21.5758 S   0  0  0  0  0  0  0  0  0  0  0  0
    9.3175    0.0260   22.0229 C   0  0  0  0  0  0  0  0  0  0  0  0
    9.5754    0.3253   23.3700 C   0  0  0  0  0  0  0  0  0  0  0  0
    9.0701   -0.2299   24.1625 H   0  0  0  0  0  0  0  0  0  0  0  0
   10.4224    1.2966   23.7422 N   0  0  0  0  0  0  0  0  0  0  0  0
   11.0483    2.0110   22.7896 C   0  0  0  0  0  0  0  0  0  0  0  0
   11.7603    2.7717   23.1074 H   0  0  0  0  0  0  0  0  0  0  0  0
   10.7968    1.8066   21.4290 C   0  0  0  0  0  0  0  0  0  0  0  0
   11.4247    2.5337   20.4955 F   0  0  0  0  0  0  0  0  0  0  0  0
    9.9043    0.8222   21.0311 C   0  0  0  0  0  0  0  0  0  0  0  0
    9.6769    0.6968   19.9795 H   0  0  0  0  0  0  0  0  0  0  0  0
    5.2709    0.5855   20.1124 C   0  0  0  0  0  0  0  0  0  0  0  0
    4.6873    0.5944   21.0343 H   0  0  0  0  0  0  0  0  0  0  0  0
    4.8775    1.3252   18.9949 C   0  0  0  0  0  0  0  0  0  0  0  0
    4.0036    1.9680   19.0139 H   0  0  0  0  0  0  0  0  0  0  0  0
  1  2  1  0
  2  3  2  0
  3  4  1  0
  4  5  1  0
  4  6  2  0
  6  7  1  0
  7  8  1  0
  7  9  1  0
  9 10  1  0
 10 11  2  0
 11 12  1  0
 11 13  1  0
 13 14  2  0
 14 15  1  0
 14 16  1  0
 16 17  1  0
 16 18  2  0
 18 19  1  0
  6 20  1  0
 20 21  1  0
 20 22  2  0
 22 23  1  0
 22  2  1  0
 18 10  1  0
M  END
>  <cnnaffinity>  (1) 
-5.04972

>  <filename>  (1) 
Fc1cncc(SNc2cccnc2)c1

$$$$
