
     RDKit          3D

 30 32  0  0  0  0  0  0  0  0999 V2000
    4.9602    1.8689   16.8995 H   0  0  0  0  0  0  0  0  0  0  0  0
    5.3941    1.3355   17.7452 C   0  0  0  0  0  0  0  0  0  0  0  0
    6.5431    0.6831   17.5052 N   0  0  0  0  0  0  0  0  0  0  0  0
    7.1139    0.0500   18.5390 C   0  0  0  0  0  0  0  0  0  0  0  0
    8.0444   -0.4742   18.3200 H   0  0  0  0  0  0  0  0  0  0  0  0
    6.5907    0.0122   19.8496 C   0  0  0  0  0  0  0  0  0  0  0  0
    7.3359   -0.6568   20.9648 C   0  0  0  0  0  0  0  0  0  0  0  0
    6.7152   -1.5509   21.8600 C   0  0  0  0  0  0  0  0  0  0  0  0
    5.6567   -1.7909   21.7580 H   0  0  0  0  0  0  0  0  0  0  0  0
    7.3647   -2.1847   22.8455 N   0  0  0  0  0  0  0  0  0  0  0  0
    8.6718   -1.9337   22.9995 C   0  0  0  0  0  0  0  0  0  0  0  0
    9.1689   -2.4755   23.7976 H   0  0  0  0  0  0  0  0  0  0  0  0
    9.3981   -1.0328   22.1984 C   0  0  0  0  0  0  0  0  0  0  0  0
   10.8746   -0.8343   22.3798 C   0  0  0  0  0  0  0  0  0  0  0  0
   11.7700   -1.9182   22.3915 C   0  0  0  0  0  0  0  0  0  0  0  0
   11.2873   -3.1468   22.6460 F   0  0  0  0  0  0  0  0  0  0  0  0
   13.1364   -1.7971   22.1678 C   0  0  0  0  0  0  0  0  0  0  0  0
   13.7318   -2.6955   22.0428 H   0  0  0  0  0  0  0  0  0  0  0  0
   13.6883   -0.5224   22.1638 C   0  0  0  0  0  0  0  0  0  0  0  0
   14.7514   -0.3947   22.0146 H   0  0  0  0  0  0  0  0  0  0  0  0
   12.8815    0.5983   22.3497 C   0  0  0  0  0  0  0  0  0  0  0  0
   13.2977    1.5972   22.4031 H   0  0  0  0  0  0  0  0  0  0  0  0
   11.5004    0.4265   22.4238 C   0  0  0  0  0  0  0  0  0  0  0  0
   10.7469    1.5285   22.5506 F   0  0  0  0  0  0  0  0  0  0  0  0
    8.7012   -0.4060   21.1597 C   0  0  0  0  0  0  0  0  0  0  0  0
    9.2192    0.2883   20.5013 H   0  0  0  0  0  0  0  0  0  0  0  0
    5.3644    0.6640   20.0590 C   0  0  0  0  0  0  0  0  0  0  0  0
    4.9114    0.6734   21.0507 H   0  0  0  0  0  0  0  0  0  0  0  0
    4.7637    1.3458   18.9939 C   0  0  0  0  0  0  0  0  0  0  0  0
    3.8331    1.8926   19.1179 H   0  0  0  0  0  0  0  0  0  0  0  0
  1  2  1  0
  2  3  2  0
  3  4  1  0
  4  5  1  0
  4  6  2  0
  6  7  1  0
  7  8  2  0
  8  9  1  0
  8 10  1  0
 10 11  2  0
 11 12  1  0
 11 13  1  0
 13 14  1  0
 14 15  2  0
 15 16  1  0
 15 17  1  0
 17 18  1  0
 17 19  2  0
 19 20  1  0
 19 21  1  0
 21 22  1  0
 21 23  2  0
 23 24  1  0
 13 25  2  0
 25 26  1  0
  6 27  1  0
 27 28  1  0
 27 29  2  0
 29 30  1  0
 29  2  1  0
 25  7  1  0
 23 14  1  0
M  END
>  <cnnaffinity>  (1) 
-5.53639

>  <filename>  (1) 
Fc1cccc(F)c1-c1cncc(-c2cccnc2)c1

$$$$
