
     RDKit          3D

 32 35  0  0  0  0  0  0  0  0999 V2000
    4.9959    1.8333   17.2484 H   0  0  0  0  0  0  0  0  0  0  0  0
    5.4843    1.1970   17.9855 C   0  0  0  0  0  0  0  0  0  0  0  0
    6.5917    0.5584   17.5739 N   0  0  0  0  0  0  0  0  0  0  0  0
    7.2466   -0.1857   18.4726 C   0  0  0  0  0  0  0  0  0  0  0  0
    8.1479   -0.6830   18.1065 H   0  0  0  0  0  0  0  0  0  0  0  0
    6.8351   -0.3419   19.8163 C   0  0  0  0  0  0  0  0  0  0  0  0
    7.7036   -1.0021   20.8025 C   0  0  0  0  0  0  0  0  0  0  0  0
    9.0525   -0.8692   21.0295 C   0  0  0  0  0  0  0  0  0  0  0  0
    9.7224   -0.2706   20.4221 H   0  0  0  0  0  0  0  0  0  0  0  0
    9.4713   -1.5183   22.1634 N   0  0  0  0  0  0  0  0  0  0  0  0
    8.3625   -2.0280   22.6373 C   0  0  0  0  0  0  0  0  0  0  0  0
    7.8866   -2.8509   24.0995 S   0  0  0  0  0  0  0  0  0  0  0  0
    6.2460   -2.7264   23.5037 C   0  0  0  0  0  0  0  0  0  0  0  0
    5.1273   -3.0917   24.1739 N   0  0  0  0  0  0  0  0  0  0  0  0
    4.3686   -2.5564   23.7731 H   0  0  0  0  0  0  0  0  0  0  0  0
    4.8958   -3.9165   25.2882 C   0  0  0  0  0  0  0  0  0  0  0  0
    4.0429   -3.4507   26.2993 C   0  0  0  0  0  0  0  0  0  0  0  0
    3.6486   -2.4426   26.2163 H   0  0  0  0  0  0  0  0  0  0  0  0
    3.7031   -4.2671   27.3875 C   0  0  0  0  0  0  0  0  0  0  0  0
    3.0496   -3.9223   28.1827 H   0  0  0  0  0  0  0  0  0  0  0  0
    4.2205   -5.5600   27.4462 C   0  0  0  0  0  0  0  0  0  0  0  0
    3.9106   -6.3474   28.4931 F   0  0  0  0  0  0  0  0  0  0  0  0
    5.0573   -6.0524   26.4477 C   0  0  0  0  0  0  0  0  0  0  0  0
    5.4269   -7.0710   26.5288 H   0  0  0  0  0  0  0  0  0  0  0  0
    5.4010   -5.2217   25.3700 C   0  0  0  0  0  0  0  0  0  0  0  0
    6.0325   -5.5902   24.5684 H   0  0  0  0  0  0  0  0  0  0  0  0
    6.0582   -2.1567   22.3435 N   0  0  0  0  0  0  0  0  0  0  0  0
    7.2725   -1.7765   21.8653 N   0  0  0  0  0  0  0  0  0  0  0  0
    5.6231    0.2611   20.1962 C   0  0  0  0  0  0  0  0  0  0  0  0
    5.2323    0.0906   21.1998 H   0  0  0  0  0  0  0  0  0  0  0  0
    4.9571    1.0665   19.2751 C   0  0  0  0  0  0  0  0  0  0  0  0
    4.0530    1.6033   19.5417 H   0  0  0  0  0  0  0  0  0  0  0  0
  1  2  1  0
  2  3  2  0
  3  4  1  0
  4  5  1  0
  4  6  2  0
  6  7  1  0
  7  8  2  0
  8  9  1  0
  8 10  1  0
 10 11  2  0
 11 12  1  0
 12 13  1  0
 13 14  1  0
 14 15  1  0
 14 16  1  0
 16 17  2  0
 17 18  1  0
 17 19  1  0
 19 20  1  0
 19 21  2  0
 21 22  1  0
 21 23  1  0
 23 24  1  0
 23 25  2  0
 25 26  1  0
 13 27  2  0
 27 28  1  0
  6 29  1  0
 29 30  1  0
 29 31  2  0
 31 32  1  0
 31  2  1  0
 28  7  1  0
 28 11  1  0
 25 16  1  0
M  END
>  <cnnaffinity>  (1) 
-5.28011

>  <filename>  (1) 
Fc1ccc(Nc2nn3c(-c4cccnc4)cnc3s2)cc1

$$$$
