
     RDKit          3D

 32 35  0  0  0  0  0  0  0  0999 V2000
    4.9514    1.7965   16.9766 H   0  0  0  0  0  0  0  0  0  0  0  0
    5.3994    1.2833   17.8261 C   0  0  0  0  0  0  0  0  0  0  0  0
    6.5576    0.6496   17.5816 N   0  0  0  0  0  0  0  0  0  0  0  0
    7.1621    0.0411   18.6060 C   0  0  0  0  0  0  0  0  0  0  0  0
    8.1064   -0.4475   18.3749 H   0  0  0  0  0  0  0  0  0  0  0  0
    6.6536    0.0401   19.9170 C   0  0  0  0  0  0  0  0  0  0  0  0
    7.3987   -0.6068   20.9921 C   0  0  0  0  0  0  0  0  0  0  0  0
    8.2526   -1.6691   20.7470 N   0  0  0  0  0  0  0  0  0  0  0  0
    8.6270   -2.0443   21.9366 C   0  0  0  0  0  0  0  0  0  0  0  0
    9.6405   -3.2896   22.5703 S   0  0  0  0  0  0  0  0  0  0  0  0
    9.3532   -2.7565   24.2020 C   0  0  0  0  0  0  0  0  0  0  0  0
    9.8378   -3.3002   25.0024 H   0  0  0  0  0  0  0  0  0  0  0  0
    8.5290   -1.6966   24.2475 C   0  0  0  0  0  0  0  0  0  0  0  0
    8.1817   -1.1319   25.1071 H   0  0  0  0  0  0  0  0  0  0  0  0
    8.1100   -1.3021   22.9727 N   0  0  0  0  0  0  0  0  0  0  0  0
    7.3354   -0.3488   22.3433 C   0  0  0  0  0  0  0  0  0  0  0  0
    6.6112    0.5651   23.0093 O   0  0  0  0  0  0  0  0  0  0  0  0
    7.1513    1.2764   24.0697 C   0  0  0  0  0  0  0  0  0  0  0  0
    6.1902    1.7812   24.9474 C   0  0  0  0  0  0  0  0  0  0  0  0
    5.1443    1.5912   24.7170 H   0  0  0  0  0  0  0  0  0  0  0  0
    6.5989    2.5105   26.0612 C   0  0  0  0  0  0  0  0  0  0  0  0
    5.9068    2.9284   26.7838 H   0  0  0  0  0  0  0  0  0  0  0  0
    7.9562    2.7382   26.2593 C   0  0  0  0  0  0  0  0  0  0  0  0
    8.3091    3.4838   27.3156 F   0  0  0  0  0  0  0  0  0  0  0  0
    8.9275    2.2463   25.3909 C   0  0  0  0  0  0  0  0  0  0  0  0
    9.9709    2.4309   25.6219 H   0  0  0  0  0  0  0  0  0  0  0  0
    8.5203    1.5186   24.2606 C   0  0  0  0  0  0  0  0  0  0  0  0
    9.2468    1.1231   23.5493 H   0  0  0  0  0  0  0  0  0  0  0  0
    5.4223    0.6813   20.1536 C   0  0  0  0  0  0  0  0  0  0  0  0
    4.9960    0.6930   21.1577 H   0  0  0  0  0  0  0  0  0  0  0  0
    4.7902    1.3103   19.0854 C   0  0  0  0  0  0  0  0  0  0  0  0
    3.8569    1.8495   19.2153 H   0  0  0  0  0  0  0  0  0  0  0  0
  1  2  1  0
  2  3  2  0
  3  4  1  0
  4  5  1  0
  4  6  2  0
  6  7  1  0
  7  8  1  0
  8  9  2  0
  9 10  1  0
 10 11  1  0
 11 12  1  0
 11 13  2  0
 13 14  1  0
 13 15  1  0
 15 16  1  0
 16 17  1  0
 17 18  1  0
 18 19  2  0
 19 20  1  0
 19 21  1  0
 21 22  1  0
 21 23  2  0
 23 24  1  0
 23 25  1  0
 25 26  1  0
 25 27  2  0
 27 28  1  0
  6 29  1  0
 29 30  1  0
 29 31  2  0
 31 32  1  0
 31  2  1  0
 16  7  2  0
 27 18  1  0
 15  9  1  0
M  END
>  <cnnaffinity>  (1) 
-5.41606

>  <filename>  (1) 
Fc1ccc(Oc2c(-c3cccnc3)nc3sccn23)cc1

$$$$
