
     RDKit          3D

 31 33  0  0  0  0  0  0  0  0999 V2000
    4.9100    1.7941   16.9810 H   0  0  0  0  0  0  0  0  0  0  0  0
    5.3907    1.3056   17.8216 C   0  0  0  0  0  0  0  0  0  0  0  0
    6.5520    0.6914   17.5468 N   0  0  0  0  0  0  0  0  0  0  0  0
    7.1584    0.0823   18.5712 C   0  0  0  0  0  0  0  0  0  0  0  0
    8.1051   -0.4070   18.3605 H   0  0  0  0  0  0  0  0  0  0  0  0
    6.6597    0.0402   19.8875 C   0  0  0  0  0  0  0  0  0  0  0  0
    7.3899   -0.7055   20.9267 C   0  0  0  0  0  0  0  0  0  0  0  0
    7.6655   -2.0402   21.0120 C   0  0  0  0  0  0  0  0  0  0  0  0
    7.3393   -2.7750   20.2898 H   0  0  0  0  0  0  0  0  0  0  0  0
    8.3766   -2.3403   22.1403 N   0  0  0  0  0  0  0  0  0  0  0  0
    8.5349   -1.1848   22.7393 C   0  0  0  0  0  0  0  0  0  0  0  0
    9.0514   -1.0253   23.6791 H   0  0  0  0  0  0  0  0  0  0  0  0
    7.9648   -0.1459   22.0515 N   0  0  0  0  0  0  0  0  0  0  0  0
    7.9386    1.2618   22.4329 C   0  0  0  0  0  0  0  0  0  0  0  0
    8.8199    1.4451   23.0506 H   0  0  0  0  0  0  0  0  0  0  0  0
    8.0574    1.8634   21.5305 H   0  0  0  0  0  0  0  0  0  0  0  0
    6.6920    1.7084   23.1780 C   0  0  0  0  0  0  0  0  0  0  0  0
    5.9230    2.7967   22.7408 C   0  0  0  0  0  0  0  0  0  0  0  0
    6.2042    3.3258   21.8321 H   0  0  0  0  0  0  0  0  0  0  0  0
    4.7607    3.1798   23.4205 C   0  0  0  0  0  0  0  0  0  0  0  0
    4.1459    4.0123   23.0921 H   0  0  0  0  0  0  0  0  0  0  0  0
    4.3829    2.4790   24.5614 C   0  0  0  0  0  0  0  0  0  0  0  0
    3.2801    2.8330   25.2342 F   0  0  0  0  0  0  0  0  0  0  0  0
    5.1544    1.4047   25.0163 C   0  0  0  0  0  0  0  0  0  0  0  0
    4.7852    0.7443   26.1217 F   0  0  0  0  0  0  0  0  0  0  0  0
    6.3005    1.0230   24.3361 C   0  0  0  0  0  0  0  0  0  0  0  0
    6.8690    0.1787   24.7139 H   0  0  0  0  0  0  0  0  0  0  0  0
    5.4309    0.6701   20.1434 C   0  0  0  0  0  0  0  0  0  0  0  0
    5.0160    0.6243   21.1561 H   0  0  0  0  0  0  0  0  0  0  0  0
    4.7922    1.3251   19.0888 C   0  0  0  0  0  0  0  0  0  0  0  0
    3.8572    1.8531   19.2449 H   0  0  0  0  0  0  0  0  0  0  0  0
  1  2  1  0
  2  3  2  0
  3  4  1  0
  4  5  1  0
  4  6  2  0
  6  7  1  0
  7  8  2  0
  8  9  1  0
  8 10  1  0
 10 11  2  0
 11 12  1  0
 11 13  1  0
 13 14  1  0
 14 15  1  0
 14 16  1  0
 14 17  1  0
 17 18  2  0
 18 19  1  0
 18 20  1  0
 20 21  1  0
 20 22  2  0
 22 23  1  0
 22 24  1  0
 24 25  1  0
 24 26  2  0
 26 27  1  0
  6 28  1  0
 28 29  1  0
 28 30  2  0
 30 31  1  0
 30  2  1  0
 13  7  1  0
 26 17  1  0
M  END
>  <cnnaffinity>  (1) 
-5.14535

>  <filename>  (1) 
Fc1ccc(Cn2cncc2-c2cccnc2)cc1F

$$$$
