
     RDKit          3D

 35 38  0  0  0  0  0  0  0  0999 V2000
    4.9475    1.8215   16.9766 H   0  0  0  0  0  0  0  0  0  0  0  0
    5.4016    1.2949   17.8128 C   0  0  0  0  0  0  0  0  0  0  0  0
    6.5626    0.6665   17.5603 N   0  0  0  0  0  0  0  0  0  0  0  0
    7.1510    0.0189   18.5686 C   0  0  0  0  0  0  0  0  0  0  0  0
    8.1053   -0.4544   18.3342 H   0  0  0  0  0  0  0  0  0  0  0  0
    6.6224   -0.0333   19.8699 C   0  0  0  0  0  0  0  0  0  0  0  0
    7.3558   -0.6929   20.9536 C   0  0  0  0  0  0  0  0  0  0  0  0
    8.0803   -1.7893   20.7345 N   0  0  0  0  0  0  0  0  0  0  0  0
    8.5578   -2.0916   21.9397 N   0  0  0  0  0  0  0  0  0  0  0  0
    8.2316   -1.2559   22.9215 C   0  0  0  0  0  0  0  0  0  0  0  0
    7.4484   -0.2870   22.3240 C   0  0  0  0  0  0  0  0  0  0  0  0
    7.0847    0.9622   22.9694 C   0  0  0  0  0  0  0  0  0  0  0  0
    7.2832    2.1908   22.3193 C   0  0  0  0  0  0  0  0  0  0  0  0
    7.6801    2.1869   21.3063 H   0  0  0  0  0  0  0  0  0  0  0  0
    6.9767    3.3789   22.9766 C   0  0  0  0  0  0  0  0  0  0  0  0
    7.1272    4.3239   22.4612 H   0  0  0  0  0  0  0  0  0  0  0  0
    6.4764    3.3416   24.2856 C   0  0  0  0  0  0  0  0  0  0  0  0
    6.2098    4.2342   24.8319 H   0  0  0  0  0  0  0  0  0  0  0  0
    6.3024    2.1121   24.9151 C   0  0  0  0  0  0  0  0  0  0  0  0
    5.8269    2.0794   26.1719 F   0  0  0  0  0  0  0  0  0  0  0  0
    6.6092    0.9203   24.2844 C   0  0  0  0  0  0  0  0  0  0  0  0
    6.4667   -0.0227   24.8016 H   0  0  0  0  0  0  0  0  0  0  0  0
    9.0725   -1.5012   24.1516 C   0  0  0  0  0  0  0  0  0  0  0  0
    9.6729   -0.6068   24.3639 H   0  0  0  0  0  0  0  0  0  0  0  0
    8.4652   -1.7030   25.0428 H   0  0  0  0  0  0  0  0  0  0  0  0
    9.9428   -2.7212   23.7267 C   0  0  0  0  0  0  0  0  0  0  0  0
   11.0039   -2.4932   23.7814 H   0  0  0  0  0  0  0  0  0  0  0  0
    9.7588   -3.5934   24.3523 H   0  0  0  0  0  0  0  0  0  0  0  0
    9.5676   -3.0555   22.2572 C   0  0  0  0  0  0  0  0  0  0  0  0
   10.4026   -2.9013   21.5699 H   0  0  0  0  0  0  0  0  0  0  0  0
    9.1442   -4.0570   22.1464 H   0  0  0  0  0  0  0  0  0  0  0  0
    5.4074    0.6246   20.1146 C   0  0  0  0  0  0  0  0  0  0  0  0
    4.9920    0.6475   21.1235 H   0  0  0  0  0  0  0  0  0  0  0  0
    4.7871    1.2972   19.0688 C   0  0  0  0  0  0  0  0  0  0  0  0
    3.8620    1.8462   19.2228 H   0  0  0  0  0  0  0  0  0  0  0  0
  1  2  1  0
  2  3  2  0
  3  4  1  0
  4  5  1  0
  4  6  2  0
  6  7  1  0
  7  8  2  0
  8  9  1  0
  9 10  1  0
 10 11  2  0
 11 12  1  0
 12 13  2  0
 13 14  1  0
 13 15  1  0
 15 16  1  0
 15 17  2  0
 17 18  1  0
 17 19  1  0
 19 20  1  0
 19 21  2  0
 21 22  1  0
 10 23  1  0
 23 24  1  0
 23 25  1  0
 23 26  1  0
 26 27  1  0
 26 28  1  0
 26 29  1  0
 29 30  1  0
 29 31  1  0
  6 32  1  0
 32 33  1  0
 32 34  2  0
 34 35  1  0
 34  2  1  0
 11  7  1  0
 21 12  1  0
 29  9  1  0
M  END
>  <cnnaffinity>  (1) 
-5.5139

>  <filename>  (1) 
Fc1cccc(-c2c(-c3cccnc3)nn3c2CCC3)c1

$$$$
