
     RDKit          3D

 35 37  0  0  0  0  0  0  0  0999 V2000
    9.8616   -2.3091   24.8065 F   0  0  0  0  0  0  0  0  0  0  0  0
    8.5601   -1.9534   24.9349 C   0  0  0  0  0  0  0  0  0  0  0  0
    7.7823   -2.5553   25.9290 C   0  0  0  0  0  0  0  0  0  0  0  0
    8.5172   -3.8544   27.1306 Br  0  0  0  0  0  0  0  0  0  0  0  0
    6.4470   -2.1892   26.0185 C   0  0  0  0  0  0  0  0  0  0  0  0
    5.9276   -1.2538   25.1247 C   0  0  0  0  0  0  0  0  0  0  0  0
    6.6659   -0.6739   24.1650 N   0  0  0  0  0  0  0  0  0  0  0  0
    7.9657   -1.0044   24.0662 C   0  0  0  0  0  0  0  0  0  0  0  0
    8.7141   -0.3684   23.0593 N   0  0  0  0  0  0  0  0  0  0  0  0
   10.1504   -0.0753   23.1816 C   0  0  0  0  0  0  0  0  0  0  0  0
   10.4000    1.0709   22.2034 C   0  0  0  0  0  0  0  0  0  0  0  0
    9.2594    1.0109   21.1968 C   0  0  0  0  0  0  0  0  0  0  0  0
    8.0926    0.3205   21.9188 C   0  0  0  0  0  0  0  0  0  0  0  0
    7.3833   -0.6898   21.0093 C   0  0  0  0  0  0  0  0  0  0  0  0
    6.6549    0.0163   19.8878 C   0  0  0  0  0  0  0  0  0  0  0  0
    5.4429    0.6505   20.1563 C   0  0  0  0  0  0  0  0  0  0  0  0
    4.8193    1.3054   19.0959 C   0  0  0  0  0  0  0  0  0  0  0  0
    5.4004    1.2965   17.8198 C   0  0  0  0  0  0  0  0  0  0  0  0
    6.5670    0.6766   17.5563 N   0  0  0  0  0  0  0  0  0  0  0  0
    7.1799    0.0577   18.5821 C   0  0  0  0  0  0  0  0  0  0  0  0
    8.1282   -0.4352   18.3989 H   0  0  0  0  0  0  0  0  0  0  0  0
    4.8848    1.8041   17.0115 H   0  0  0  0  0  0  0  0  0  0  0  0
    3.8849    1.8286   19.2564 H   0  0  0  0  0  0  0  0  0  0  0  0
    5.0136    0.6367   21.1619 H   0  0  0  0  0  0  0  0  0  0  0  0
    6.6702   -1.2635   21.6126 H   0  0  0  0  0  0  0  0  0  0  0  0
    8.1148   -1.3960   20.6034 H   0  0  0  0  0  0  0  0  0  0  0  0
    7.3850    1.0762   22.2714 H   0  0  0  0  0  0  0  0  0  0  0  0
    8.9828    2.0132   20.8591 H   0  0  0  0  0  0  0  0  0  0  0  0
    9.5711    0.4415   20.3184 H   0  0  0  0  0  0  0  0  0  0  0  0
   11.3741    0.9849   21.7139 H   0  0  0  0  0  0  0  0  0  0  0  0
   10.3817    2.0289   22.7275 H   0  0  0  0  0  0  0  0  0  0  0  0
   10.4231    0.2307   24.1939 H   0  0  0  0  0  0  0  0  0  0  0  0
   10.7525   -0.9439   22.9056 H   0  0  0  0  0  0  0  0  0  0  0  0
    4.8796   -0.9952   25.2272 H   0  0  0  0  0  0  0  0  0  0  0  0
    5.8118   -2.6344   26.7780 H   0  0  0  0  0  0  0  0  0  0  0  0
  1  2  1  0
  2  3  2  0
  3  4  1  0
  3  5  1  0
  5  6  2  0
  6  7  1  0
  7  8  2  0
  8  9  1  0
  9 10  1  0
 10 11  1  0
 11 12  1  0
 12 13  1  0
 13 14  1  0
 14 15  1  0
 15 16  2  0
 16 17  1  0
 17 18  2  0
 18 19  1  0
 19 20  2  0
 20 21  1  0
 18 22  1  0
 17 23  1  0
 16 24  1  0
 14 25  1  0
 14 26  1  0
 13 27  1  0
 12 28  1  0
 12 29  1  0
 11 30  1  0
 11 31  1  0
 10 32  1  0
 10 33  1  0
  6 34  1  0
  5 35  1  0
  8  2  1  0
 13  9  1  0
 20 15  1  0
M  END
>  <cnnaffinity>  (1) 
-5.66391

>  <filename>  (1) 
Fc1c(Br)ccnc1N1CCCC1Cc1cccnc1

$$$$
