
     RDKit          3D

 34 37  0  0  0  0  0  0  0  0999 V2000
    4.9469    1.8229   16.9764 H   0  0  0  0  0  0  0  0  0  0  0  0
    5.4033    1.2971   17.8131 C   0  0  0  0  0  0  0  0  0  0  0  0
    6.5626    0.6695   17.5564 N   0  0  0  0  0  0  0  0  0  0  0  0
    7.1517    0.0178   18.5639 C   0  0  0  0  0  0  0  0  0  0  0  0
    8.1064   -0.4513   18.3277 H   0  0  0  0  0  0  0  0  0  0  0  0
    6.6217   -0.0370   19.8648 C   0  0  0  0  0  0  0  0  0  0  0  0
    7.3551   -0.6986   20.9445 C   0  0  0  0  0  0  0  0  0  0  0  0
    8.0739   -1.7967   20.7324 N   0  0  0  0  0  0  0  0  0  0  0  0
    8.5503   -2.0927   21.9411 N   0  0  0  0  0  0  0  0  0  0  0  0
    8.2259   -1.2568   22.9222 C   0  0  0  0  0  0  0  0  0  0  0  0
    7.4479   -0.2893   22.3165 C   0  0  0  0  0  0  0  0  0  0  0  0
    7.0987    0.9613   22.9563 C   0  0  0  0  0  0  0  0  0  0  0  0
    6.6367    0.9665   24.2840 C   0  0  0  0  0  0  0  0  0  0  0  0
    6.4896    0.0332   24.8348 H   0  0  0  0  0  0  0  0  0  0  0  0
    6.3247    2.0928   24.9361 N   0  0  0  0  0  0  0  0  0  0  0  0
    6.4901    3.2589   24.2971 C   0  0  0  0  0  0  0  0  0  0  0  0
    6.2277    4.1684   24.8319 H   0  0  0  0  0  0  0  0  0  0  0  0
    6.9760    3.3373   22.9868 C   0  0  0  0  0  0  0  0  0  0  0  0
    7.1284    4.5360   22.4076 F   0  0  0  0  0  0  0  0  0  0  0  0
    7.2915    2.1848   22.2909 C   0  0  0  0  0  0  0  0  0  0  0  0
    7.6736    2.2297   21.2715 H   0  0  0  0  0  0  0  0  0  0  0  0
    9.0691   -1.5033   24.1527 C   0  0  0  0  0  0  0  0  0  0  0  0
    8.4646   -1.7021   25.0458 H   0  0  0  0  0  0  0  0  0  0  0  0
    9.6720   -0.6107   24.3638 H   0  0  0  0  0  0  0  0  0  0  0  0
    9.9364   -2.7257   23.7268 C   0  0  0  0  0  0  0  0  0  0  0  0
   10.9989   -2.5055   23.7795 H   0  0  0  0  0  0  0  0  0  0  0  0
    9.7521   -3.5998   24.3499 H   0  0  0  0  0  0  0  0  0  0  0  0
    9.5597   -3.0577   22.2574 C   0  0  0  0  0  0  0  0  0  0  0  0
   10.3920   -2.8998   21.5676 H   0  0  0  0  0  0  0  0  0  0  0  0
    9.1346   -4.0579   22.1464 H   0  0  0  0  0  0  0  0  0  0  0  0
    5.4081    0.6206   20.1146 C   0  0  0  0  0  0  0  0  0  0  0  0
    4.9906    0.6408   21.1213 H   0  0  0  0  0  0  0  0  0  0  0  0
    4.7895    1.2984   19.0688 C   0  0  0  0  0  0  0  0  0  0  0  0
    3.8673    1.8453   19.2248 H   0  0  0  0  0  0  0  0  0  0  0  0
  1  2  1  0
  2  3  2  0
  3  4  1  0
  4  5  1  0
  4  6  2  0
  6  7  1  0
  7  8  2  0
  8  9  1  0
  9 10  1  0
 10 11  2  0
 11 12  1  0
 12 13  2  0
 13 14  1  0
 13 15  1  0
 15 16  2  0
 16 17  1  0
 16 18  1  0
 18 19  1  0
 18 20  2  0
 20 21  1  0
 10 22  1  0
 22 23  1  0
 22 24  1  0
 22 25  1  0
 25 26  1  0
 25 27  1  0
 25 28  1  0
 28 29  1  0
 28 30  1  0
  6 31  1  0
 31 32  1  0
 31 33  2  0
 33 34  1  0
 33  2  1  0
 11  7  1  0
 20 12  1  0
 28  9  1  0
M  END
>  <cnnaffinity>  (1) 
-5.62813

>  <filename>  (1) 
Fc1cncc(-c2c(-c3cccnc3)nn3c2CCC3)c1

$$$$
