
     RDKit          3D

 38 41  0  0  0  0  0  0  0  0999 V2000
    5.3418    1.6307   17.0642 H   0  0  0  0  0  0  0  0  0  0  0  0
    5.8947    1.2089   17.8994 C   0  0  0  0  0  0  0  0  0  0  0  0
    7.0761    0.6437   17.6112 N   0  0  0  0  0  0  0  0  0  0  0  0
    7.7725    0.1119   18.6179 C   0  0  0  0  0  0  0  0  0  0  0  0
    8.7433   -0.3124   18.3593 H   0  0  0  0  0  0  0  0  0  0  0  0
    7.3173    0.0681   19.9485 C   0  0  0  0  0  0  0  0  0  0  0  0
    8.1054   -0.6612   20.9559 C   0  0  0  0  0  0  0  0  0  0  0  0
    9.4412   -0.5918   20.9758 N   0  0  0  0  0  0  0  0  0  0  0  0
    9.7696   -1.3792   22.0019 N   0  0  0  0  0  0  0  0  0  0  0  0
    8.7351   -1.9816   22.6000 C   0  0  0  0  0  0  0  0  0  0  0  0
    7.6013   -1.5402   21.9690 C   0  0  0  0  0  0  0  0  0  0  0  0
    6.2087   -2.0812   22.1595 C   0  0  0  0  0  0  0  0  0  0  0  0
    5.5314   -1.3070   21.7982 H   0  0  0  0  0  0  0  0  0  0  0  0
    5.9846   -2.2689   23.2171 H   0  0  0  0  0  0  0  0  0  0  0  0
    5.9260   -3.3182   21.3367 C   0  0  0  0  0  0  0  0  0  0  0  0
    5.7380   -3.1250   19.9661 C   0  0  0  0  0  0  0  0  0  0  0  0
    5.7816   -2.1161   19.5581 H   0  0  0  0  0  0  0  0  0  0  0  0
    5.5321   -4.1953   19.1067 C   0  0  0  0  0  0  0  0  0  0  0  0
    5.3216   -3.9651   18.0751 H   0  0  0  0  0  0  0  0  0  0  0  0
    5.5379   -5.4895   19.6312 C   0  0  0  0  0  0  0  0  0  0  0  0
    5.4091   -6.5478   18.8134 F   0  0  0  0  0  0  0  0  0  0  0  0
    5.6694   -5.7159   20.9981 C   0  0  0  0  0  0  0  0  0  0  0  0
    5.5843   -6.7304   21.3752 H   0  0  0  0  0  0  0  0  0  0  0  0
    5.8744   -4.6192   21.8476 C   0  0  0  0  0  0  0  0  0  0  0  0
    5.9873   -4.7862   22.9192 H   0  0  0  0  0  0  0  0  0  0  0  0
    9.2074   -2.9655   23.6184 C   0  0  0  0  0  0  0  0  0  0  0  0
    9.0507   -3.9838   23.2495 H   0  0  0  0  0  0  0  0  0  0  0  0
    8.6780   -2.8691   24.5709 H   0  0  0  0  0  0  0  0  0  0  0  0
   10.7028   -2.6029   23.7397 C   0  0  0  0  0  0  0  0  0  0  0  0
   10.8165   -1.9712   24.6235 H   0  0  0  0  0  0  0  0  0  0  0  0
   11.3474   -3.4754   23.8487 H   0  0  0  0  0  0  0  0  0  0  0  0
   11.0751   -1.7834   22.4676 C   0  0  0  0  0  0  0  0  0  0  0  0
   11.5825   -2.3786   21.7003 H   0  0  0  0  0  0  0  0  0  0  0  0
   11.6814   -0.8992   22.6715 H   0  0  0  0  0  0  0  0  0  0  0  0
    6.0992    0.7110   20.2331 C   0  0  0  0  0  0  0  0  0  0  0  0
    5.7348    0.7844   21.2603 H   0  0  0  0  0  0  0  0  0  0  0  0
    5.3728    1.2843   19.1958 C   0  0  0  0  0  0  0  0  0  0  0  0
    4.4250    1.7811   19.3746 H   0  0  0  0  0  0  0  0  0  0  0  0
  1  2  1  0
  2  3  2  0
  3  4  1  0
  4  5  1  0
  4  6  2  0
  6  7  1  0
  7  8  2  0
  8  9  1  0
  9 10  1  0
 10 11  2  0
 11 12  1  0
 12 13  1  0
 12 14  1  0
 12 15  1  0
 15 16  2  0
 16 17  1  0
 16 18  1  0
 18 19  1  0
 18 20  2  0
 20 21  1  0
 20 22  1  0
 22 23  1  0
 22 24  2  0
 24 25  1  0
 10 26  1  0
 26 27  1  0
 26 28  1  0
 26 29  1  0
 29 30  1  0
 29 31  1  0
 29 32  1  0
 32 33  1  0
 32 34  1  0
  6 35  1  0
 35 36  1  0
 35 37  2  0
 37 38  1  0
 37  2  1  0
 11  7  1  0
 24 15  1  0
 32  9  1  0
M  END
>  <cnnaffinity>  (1) 
-5.71928

>  <filename>  (1) 
Fc1ccc(Cc2c(-c3cccnc3)nn3c2CCC3)cc1

$$$$
