
     RDKit          3D

 29 31  0  0  0  0  0  0  0  0999 V2000
    4.9148    1.7813   16.9951 H   0  0  0  0  0  0  0  0  0  0  0  0
    5.3997    1.2952   17.8380 C   0  0  0  0  0  0  0  0  0  0  0  0
    6.5633    0.6803   17.5761 N   0  0  0  0  0  0  0  0  0  0  0  0
    7.1665    0.0703   18.6000 C   0  0  0  0  0  0  0  0  0  0  0  0
    8.1133   -0.4193   18.3751 H   0  0  0  0  0  0  0  0  0  0  0  0
    6.6474    0.0106   19.9005 C   0  0  0  0  0  0  0  0  0  0  0  0
    7.4220   -0.6794   20.9914 C   0  0  0  0  0  0  0  0  0  0  0  0
    6.7958   -0.8056   21.8823 H   0  0  0  0  0  0  0  0  0  0  0  0
    7.7064   -1.6900   20.6708 H   0  0  0  0  0  0  0  0  0  0  0  0
    8.6360    0.0605   21.3301 N   0  0  0  0  0  0  0  0  0  0  0  0
    9.9102   -0.2441   20.9465 C   0  0  0  0  0  0  0  0  0  0  0  0
   10.1671   -1.1679   20.4409 H   0  0  0  0  0  0  0  0  0  0  0  0
   10.7327    0.7193   21.2471 N   0  0  0  0  0  0  0  0  0  0  0  0
    9.9902    1.7254   21.8055 N   0  0  0  0  0  0  0  0  0  0  0  0
    8.7434    1.3289   21.8473 C   0  0  0  0  0  0  0  0  0  0  0  0
    7.6241    2.1152   22.3923 C   0  0  0  0  0  0  0  0  0  0  0  0
    7.4763    3.4509   21.9858 C   0  0  0  0  0  0  0  0  0  0  0  0
    8.1969    3.8927   21.3072 H   0  0  0  0  0  0  0  0  0  0  0  0
    6.4903    4.2483   22.4089 N   0  0  0  0  0  0  0  0  0  0  0  0
    5.6054    3.7411   23.2786 C   0  0  0  0  0  0  0  0  0  0  0  0
    4.8065    4.3868   23.6244 H   0  0  0  0  0  0  0  0  0  0  0  0
    5.6938    2.4281   23.7552 C   0  0  0  0  0  0  0  0  0  0  0  0
    4.7920    1.9732   24.6380 F   0  0  0  0  0  0  0  0  0  0  0  0
    6.7082    1.5909   23.3192 C   0  0  0  0  0  0  0  0  0  0  0  0
    6.7959    0.5790   23.7155 H   0  0  0  0  0  0  0  0  0  0  0  0
    5.4316    0.6526   20.1543 C   0  0  0  0  0  0  0  0  0  0  0  0
    5.0074    0.6344   21.1640 H   0  0  0  0  0  0  0  0  0  0  0  0
    4.7997    1.3178   19.1014 C   0  0  0  0  0  0  0  0  0  0  0  0
    3.8671    1.8513   19.2547 H   0  0  0  0  0  0  0  0  0  0  0  0
  1  2  1  0
  2  3  2  0
  3  4  1  0
  4  5  1  0
  4  6  2  0
  6  7  1  0
  7  8  1  0
  7  9  1  0
  7 10  1  0
 10 11  1  0
 11 12  1  0
 11 13  2  0
 13 14  1  0
 14 15  2  0
 15 16  1  0
 16 17  2  0
 17 18  1  0
 17 19  1  0
 19 20  2  0
 20 21  1  0
 20 22  1  0
 22 23  1  0
 22 24  2  0
 24 25  1  0
  6 26  1  0
 26 27  1  0
 26 28  2  0
 28 29  1  0
 28  2  1  0
 15 10  1  0
 24 16  1  0
M  END
>  <cnnaffinity>  (1) 
-5.01317

>  <filename>  (1) 
Fc1cncc(-c2nncn2Cc2cccnc2)c1

$$$$
