
     RDKit          3D

 28 30  0  0  0  0  0  0  0  0999 V2000
    8.5862   -3.7428   21.3987 H   0  0  0  0  0  0  0  0  0  0  0  0
    8.3176   -2.7142   21.6319 C   0  0  0  0  0  0  0  0  0  0  0  0
    7.7531   -1.9982   20.6470 N   0  0  0  0  0  0  0  0  0  0  0  0
    7.3865   -0.7405   20.9543 C   0  0  0  0  0  0  0  0  0  0  0  0
    6.6454   -0.0163   19.8927 C   0  0  0  0  0  0  0  0  0  0  0  0
    7.1662    0.0354   18.5924 C   0  0  0  0  0  0  0  0  0  0  0  0
    8.1178   -0.4398   18.3614 H   0  0  0  0  0  0  0  0  0  0  0  0
    6.5705    0.6767   17.5828 N   0  0  0  0  0  0  0  0  0  0  0  0
    5.4052    1.2908   17.8418 C   0  0  0  0  0  0  0  0  0  0  0  0
    4.9246    1.7833   16.9988 H   0  0  0  0  0  0  0  0  0  0  0  0
    4.8062    1.3031   19.1061 C   0  0  0  0  0  0  0  0  0  0  0  0
    3.8794    1.8405   19.2535 H   0  0  0  0  0  0  0  0  0  0  0  0
    5.4332    0.6374   20.1569 C   0  0  0  0  0  0  0  0  0  0  0  0
    5.0155    0.6423   21.1688 H   0  0  0  0  0  0  0  0  0  0  0  0
    7.6644   -0.1725   22.2569 C   0  0  0  0  0  0  0  0  0  0  0  0
    7.4200    1.2708   22.5681 C   0  0  0  0  0  0  0  0  0  0  0  0
    6.7778    1.6127   23.7706 C   0  0  0  0  0  0  0  0  0  0  0  0
    6.4560    0.8493   24.4694 H   0  0  0  0  0  0  0  0  0  0  0  0
    6.4888    2.8686   24.1289 N   0  0  0  0  0  0  0  0  0  0  0  0
    6.8674    3.8480   23.3042 C   0  0  0  0  0  0  0  0  0  0  0  0
    6.6672    4.8834   23.5812 H   0  0  0  0  0  0  0  0  0  0  0  0
    7.5357    3.6111   22.1030 C   0  0  0  0  0  0  0  0  0  0  0  0
    7.9177    4.6940   21.4139 F   0  0  0  0  0  0  0  0  0  0  0  0
    7.8074    2.3088   21.6872 C   0  0  0  0  0  0  0  0  0  0  0  0
    8.2887    2.1061   20.7276 H   0  0  0  0  0  0  0  0  0  0  0  0
    8.2069   -0.9201   23.2409 N   0  0  0  0  0  0  0  0  0  0  0  0
    8.5463   -2.1791   22.9091 C   0  0  0  0  0  0  0  0  0  0  0  0
    9.0168   -2.7842   23.6771 H   0  0  0  0  0  0  0  0  0  0  0  0
  1  2  1  0
  2  3  2  0
  3  4  1  0
  4  5  1  0
  5  6  2  0
  6  7  1  0
  6  8  1  0
  8  9  2  0
  9 10  1  0
  9 11  1  0
 11 12  1  0
 11 13  2  0
 13 14  1  0
  4 15  2  0
 15 16  1  0
 16 17  2  0
 17 18  1  0
 17 19  1  0
 19 20  2  0
 20 21  1  0
 20 22  1  0
 22 23  1  0
 22 24  2  0
 24 25  1  0
 15 26  1  0
 26 27  2  0
 27 28  1  0
 27  2  1  0
 13  5  1  0
 24 16  1  0
M  END
>  <cnnaffinity>  (1) 
-4.86016

>  <filename>  (1) 
Fc1cncc(-c2nccnc2-c2cccnc2)c1

$$$$
