
     RDKit          3D

 36 39  0  0  0  0  0  0  0  0999 V2000
    4.9478    1.8307   16.9770 H   0  0  0  0  0  0  0  0  0  0  0  0
    5.3985    1.2955   17.8125 C   0  0  0  0  0  0  0  0  0  0  0  0
    6.5383    0.6360   17.5547 N   0  0  0  0  0  0  0  0  0  0  0  0
    7.1311    0.0048   18.5732 C   0  0  0  0  0  0  0  0  0  0  0  0
    8.0556   -0.5230   18.3436 H   0  0  0  0  0  0  0  0  0  0  0  0
    6.6463    0.0250   19.8878 C   0  0  0  0  0  0  0  0  0  0  0  0
    7.4339   -0.6224   20.9346 C   0  0  0  0  0  0  0  0  0  0  0  0
    7.8575   -1.9268   20.8172 N   0  0  0  0  0  0  0  0  0  0  0  0
    8.4524   -2.1615   21.9522 C   0  0  0  0  0  0  0  0  0  0  0  0
    8.5375   -1.0735   22.7567 N   0  0  0  0  0  0  0  0  0  0  0  0
    7.8763   -0.0530   22.1198 C   0  0  0  0  0  0  0  0  0  0  0  0
    7.7168    1.3322   22.6635 C   0  0  0  0  0  0  0  0  0  0  0  0
    7.8098    2.0420   21.8336 H   0  0  0  0  0  0  0  0  0  0  0  0
    8.5523    1.5510   23.3443 H   0  0  0  0  0  0  0  0  0  0  0  0
    6.3948    1.5968   23.3791 C   0  0  0  0  0  0  0  0  0  0  0  0
    5.9701    0.7788   24.4364 C   0  0  0  0  0  0  0  0  0  0  0  0
    6.5686   -0.0808   24.7253 H   0  0  0  0  0  0  0  0  0  0  0  0
    4.7745    1.0353   25.1155 C   0  0  0  0  0  0  0  0  0  0  0  0
    4.4249    0.4102   25.9283 H   0  0  0  0  0  0  0  0  0  0  0  0
    4.0021    2.1219   24.7192 C   0  0  0  0  0  0  0  0  0  0  0  0
    2.8442    2.3692   25.3532 F   0  0  0  0  0  0  0  0  0  0  0  0
    4.3833    2.9504   23.6691 C   0  0  0  0  0  0  0  0  0  0  0  0
    3.7471    3.7826   23.3892 H   0  0  0  0  0  0  0  0  0  0  0  0
    5.5815    2.6755   23.0044 C   0  0  0  0  0  0  0  0  0  0  0  0
    5.8782    3.2888   22.1555 H   0  0  0  0  0  0  0  0  0  0  0  0
    9.3993   -1.1329   23.9180 C   0  0  0  0  0  0  0  0  0  0  0  0
   10.2486   -0.4504   23.8017 H   0  0  0  0  0  0  0  0  0  0  0  0
    8.8518   -0.8153   24.8085 H   0  0  0  0  0  0  0  0  0  0  0  0
    9.8791   -2.6011   24.0389 C   0  0  0  0  0  0  0  0  0  0  0  0
    9.6173   -3.0276   25.0074 H   0  0  0  0  0  0  0  0  0  0  0  0
   10.9580   -2.6773   23.9100 H   0  0  0  0  0  0  0  0  0  0  0  0
    9.0789   -3.6046   22.7258 S   0  0  0  0  0  0  0  0  0  0  0  0
    5.4316    0.6847   20.1322 C   0  0  0  0  0  0  0  0  0  0  0  0
    4.9955    0.6839   21.1293 H   0  0  0  0  0  0  0  0  0  0  0  0
    4.7906    1.3270   19.0721 C   0  0  0  0  0  0  0  0  0  0  0  0
    3.8591    1.8669   19.2105 H   0  0  0  0  0  0  0  0  0  0  0  0
  1  2  1  0
  2  3  2  0
  3  4  1  0
  4  5  1  0
  4  6  2  0
  6  7  1  0
  7  8  1  0
  8  9  2  0
  9 10  1  0
 10 11  1  0
 11 12  1  0
 12 13  1  0
 12 14  1  0
 12 15  1  0
 15 16  2  0
 16 17  1  0
 16 18  1  0
 18 19  1  0
 18 20  2  0
 20 21  1  0
 20 22  1  0
 22 23  1  0
 22 24  2  0
 24 25  1  0
 10 26  1  0
 26 27  1  0
 26 28  1  0
 26 29  1  0
 29 30  1  0
 29 31  1  0
 29 32  1  0
  6 33  1  0
 33 34  1  0
 33 35  2  0
 35 36  1  0
 35  2  1  0
 11  7  2  0
 24 15  1  0
 32  9  1  0
M  END
>  <cnnaffinity>  (1) 
-5.4491

>  <filename>  (1) 
Fc1ccc(Cc2c(-c3cccnc3)nc3n2CCS3)cc1

$$$$
