
     RDKit          3D

 26 28  0  0  0  0  0  0  0  0999 V2000
    8.9299   -3.2090   22.8029 H   0  0  0  0  0  0  0  0  0  0  0  0
    8.4458   -2.3192   22.4264 C   0  0  0  0  0  0  0  0  0  0  0  0
    8.1500   -1.2707   23.1278 N   0  0  0  0  0  0  0  0  0  0  0  0
    7.5612   -0.3202   22.3190 C   0  0  0  0  0  0  0  0  0  0  0  0
    7.2402    1.0061   22.8516 C   0  0  0  0  0  0  0  0  0  0  0  0
    6.6883    1.1235   24.1370 C   0  0  0  0  0  0  0  0  0  0  0  0
    6.4994    0.2379   24.7308 H   0  0  0  0  0  0  0  0  0  0  0  0
    6.3568    2.2930   24.6916 N   0  0  0  0  0  0  0  0  0  0  0  0
    6.5785    3.4108   23.9855 C   0  0  0  0  0  0  0  0  0  0  0  0
    6.3208    4.3603   24.4450 H   0  0  0  0  0  0  0  0  0  0  0  0
    7.1292    3.3856   22.7021 C   0  0  0  0  0  0  0  0  0  0  0  0
    7.3277    4.5352   22.0428 F   0  0  0  0  0  0  0  0  0  0  0  0
    7.4714    2.1813   22.1072 C   0  0  0  0  0  0  0  0  0  0  0  0
    7.8908    2.1662   21.1019 H   0  0  0  0  0  0  0  0  0  0  0  0
    7.3597   -0.6927   20.9991 C   0  0  0  0  0  0  0  0  0  0  0  0
    6.6630    0.0063   19.9044 C   0  0  0  0  0  0  0  0  0  0  0  0
    7.1691    0.0584   18.5873 C   0  0  0  0  0  0  0  0  0  0  0  0
    8.1194   -0.4225   18.3670 H   0  0  0  0  0  0  0  0  0  0  0  0
    6.5659    0.6809   17.5716 N   0  0  0  0  0  0  0  0  0  0  0  0
    5.3999    1.2970   17.8374 C   0  0  0  0  0  0  0  0  0  0  0  0
    4.9147    1.7844   16.9959 H   0  0  0  0  0  0  0  0  0  0  0  0
    4.8028    1.3084   19.1014 C   0  0  0  0  0  0  0  0  0  0  0  0
    3.8720    1.8442   19.2571 H   0  0  0  0  0  0  0  0  0  0  0  0
    5.4341    0.6440   20.1511 C   0  0  0  0  0  0  0  0  0  0  0  0
    5.0178    0.6316   21.1631 H   0  0  0  0  0  0  0  0  0  0  0  0
    7.9982   -2.2637   20.7884 S   0  0  0  0  0  0  0  0  0  0  0  0
  1  2  1  0
  2  3  2  0
  3  4  1  0
  4  5  1  0
  5  6  2  0
  6  7  1  0
  6  8  1  0
  8  9  2  0
  9 10  1  0
  9 11  1  0
 11 12  1  0
 11 13  2  0
 13 14  1  0
  4 15  2  0
 15 16  1  0
 16 17  2  0
 17 18  1  0
 17 19  1  0
 19 20  2  0
 20 21  1  0
 20 22  1  0
 22 23  1  0
 22 24  2  0
 24 25  1  0
 15 26  1  0
 26  2  1  0
 13  5  1  0
 24 16  1  0
M  END
>  <cnnaffinity>  (1) 
-5.02337

>  <filename>  (1) 
Fc1cncc(-c2ncsc2-c2cccnc2)c1

$$$$
