
     RDKit          3D

 27 29  0  0  0  0  0  0  0  0999 V2000
    4.9394    1.8209   16.9675 H   0  0  0  0  0  0  0  0  0  0  0  0
    5.3887    1.3092   17.8127 C   0  0  0  0  0  0  0  0  0  0  0  0
    6.5545    0.6910   17.5632 N   0  0  0  0  0  0  0  0  0  0  0  0
    7.1535    0.0845   18.5957 C   0  0  0  0  0  0  0  0  0  0  0  0
    8.1059   -0.3887   18.3514 H   0  0  0  0  0  0  0  0  0  0  0  0
    6.6494    0.0411   19.9247 C   0  0  0  0  0  0  0  0  0  0  0  0
    7.3729   -0.6493   21.0476 C   0  0  0  0  0  0  0  0  0  0  0  0
    7.4811   -0.3121   22.4596 C   0  0  0  0  0  0  0  0  0  0  0  0
    7.0199    0.8916   23.1564 C   0  0  0  0  0  0  0  0  0  0  0  0
    7.2985    2.1553   22.6298 C   0  0  0  0  0  0  0  0  0  0  0  0
    8.0378    2.2474   21.5101 F   0  0  0  0  0  0  0  0  0  0  0  0
    6.8504    3.3236   23.2231 C   0  0  0  0  0  0  0  0  0  0  0  0
    7.0559    4.2576   22.7170 H   0  0  0  0  0  0  0  0  0  0  0  0
    6.1355    3.2396   24.4179 C   0  0  0  0  0  0  0  0  0  0  0  0
    5.7704    4.1442   24.8866 H   0  0  0  0  0  0  0  0  0  0  0  0
    5.8723    2.0013   25.0057 C   0  0  0  0  0  0  0  0  0  0  0  0
    5.3038    1.8869   25.9193 H   0  0  0  0  0  0  0  0  0  0  0  0
    6.3186    0.8514   24.3686 C   0  0  0  0  0  0  0  0  0  0  0  0
    6.0312   -0.3268   24.9346 F   0  0  0  0  0  0  0  0  0  0  0  0
    8.1644   -1.1992   23.1352 N   0  0  0  0  0  0  0  0  0  0  0  0
    8.5328   -2.1526   22.2352 O   0  0  0  0  0  0  0  0  0  0  0  0
    8.0741   -1.8141   21.0318 C   0  0  0  0  0  0  0  0  0  0  0  0
    8.3415   -2.5353   20.2996 H   0  0  0  0  0  0  0  0  0  0  0  0
    5.4044    0.6722   20.1316 C   0  0  0  0  0  0  0  0  0  0  0  0
    4.9315    0.6531   21.1149 H   0  0  0  0  0  0  0  0  0  0  0  0
    4.7715    1.3189   19.0641 C   0  0  0  0  0  0  0  0  0  0  0  0
    3.8239    1.8388   19.1809 H   0  0  0  0  0  0  0  0  0  0  0  0
  1  2  1  0
  2  3  2  0
  3  4  1  0
  4  5  1  0
  4  6  2  0
  6  7  1  0
  7  8  1  0
  8  9  1  0
  9 10  2  0
 10 11  1  0
 10 12  1  0
 12 13  1  0
 12 14  2  0
 14 15  1  0
 14 16  1  0
 16 17  1  0
 16 18  2  0
 18 19  1  0
  8 20  2  0
 20 21  1  0
 21 22  1  0
 22 23  1  0
  6 24  1  0
 24 25  1  0
 24 26  2  0
 26 27  1  0
 26  2  1  0
 22  7  2  0
 18  9  1  0
M  END
>  <cnnaffinity>  (1) 
-5.00633

>  <filename>  (1) 
Fc1cccc(F)c1-c1nocc1-c1cccnc1

$$$$
