
     RDKit          3D

 33 35  0  0  0  0  0  0  0  0999 V2000
    4.9554    1.7751   17.0312 H   0  0  0  0  0  0  0  0  0  0  0  0
    5.4320    1.2716   17.8667 C   0  0  0  0  0  0  0  0  0  0  0  0
    6.5974    0.6551   17.6046 N   0  0  0  0  0  0  0  0  0  0  0  0
    7.2000    0.0183   18.6211 C   0  0  0  0  0  0  0  0  0  0  0  0
    8.1494   -0.4534   18.3694 H   0  0  0  0  0  0  0  0  0  0  0  0
    6.6809   -0.0709   19.9475 C   0  0  0  0  0  0  0  0  0  0  0  0
    7.3036   -0.7857   20.9550 N   0  0  0  0  0  0  0  0  0  0  0  0
    6.9038   -1.0993   22.3197 C   0  0  0  0  0  0  0  0  0  0  0  0
    6.7831   -0.2198   22.9696 H   0  0  0  0  0  0  0  0  0  0  0  0
    5.9900   -1.6980   22.3943 H   0  0  0  0  0  0  0  0  0  0  0  0
    8.2463   -1.8621   22.4845 C   0  0  0  0  0  0  0  0  0  0  0  0
    8.8989   -1.4854   23.2777 H   0  0  0  0  0  0  0  0  0  0  0  0
    8.1583   -2.9482   22.5675 H   0  0  0  0  0  0  0  0  0  0  0  0
    8.6403   -1.3611   21.0762 C   0  0  2  0  0  0  0  0  0  0  0  0
    8.8238   -2.1538   20.3413 H   0  0  0  0  0  0  0  0  0  0  0  0
    9.8564   -0.4182   20.9826 C   0  0  0  0  0  0  0  0  0  0  0  0
    9.9604   -0.2090   19.9170 H   0  0  0  0  0  0  0  0  0  0  0  0
   10.7423   -0.9974   21.2733 H   0  0  0  0  0  0  0  0  0  0  0  0
    9.7752    0.8617   21.7884 C   0  0  0  0  0  0  0  0  0  0  0  0
    9.0983    1.9770   21.2668 C   0  0  0  0  0  0  0  0  0  0  0  0
    8.6282    1.9082   20.2887 H   0  0  0  0  0  0  0  0  0  0  0  0
    8.9630    3.1551   22.0061 C   0  0  0  0  0  0  0  0  0  0  0  0
    8.4641    4.0318   21.6084 H   0  0  0  0  0  0  0  0  0  0  0  0
    9.4933    3.2070   23.2906 C   0  0  0  0  0  0  0  0  0  0  0  0
    9.3634    4.3406   24.0061 F   0  0  0  0  0  0  0  0  0  0  0  0
   10.1514    2.1183   23.8523 C   0  0  0  0  0  0  0  0  0  0  0  0
   10.5293    2.2056   24.8652 H   0  0  0  0  0  0  0  0  0  0  0  0
   10.2943    0.9487   23.0950 C   0  0  0  0  0  0  0  0  0  0  0  0
   10.7927    0.0861   23.5416 H   0  0  0  0  0  0  0  0  0  0  0  0
    5.4672    0.6093   20.1902 C   0  0  0  0  0  0  0  0  0  0  0  0
    5.0334    0.6084   21.1913 H   0  0  0  0  0  0  0  0  0  0  0  0
    4.8418    1.2805   19.1359 C   0  0  0  0  0  0  0  0  0  0  0  0
    3.9070    1.8149   19.2880 H   0  0  0  0  0  0  0  0  0  0  0  0
  1  2  1  0
  2  3  2  0
  3  4  1  0
  4  5  1  0
  4  6  2  0
  6  7  1  0
  7  8  1  0
  8  9  1  0
  8 10  1  0
  8 11  1  0
 11 12  1  0
 11 13  1  0
 11 14  1  0
 14 15  1  6
 14 16  1  0
 16 17  1  0
 16 18  1  0
 16 19  1  0
 19 20  2  0
 20 21  1  0
 20 22  1  0
 22 23  1  0
 22 24  2  0
 24 25  1  0
 24 26  1  0
 26 27  1  0
 26 28  2  0
 28 29  1  0
  6 30  1  0
 30 31  1  0
 30 32  2  0
 32 33  1  0
 32  2  1  0
 14  7  1  0
 28 19  1  0
M  END
>  <cnnaffinity>  (1) 
-4.71394

>  <filename>  (1) 
Fc1ccc(C[C@H]2CCN2c2cccnc2)cc1

$$$$
