
     RDKit          3D

 30 32  0  0  0  0  0  0  0  0999 V2000
    4.9112    1.7962   16.9818 H   0  0  0  0  0  0  0  0  0  0  0  0
    5.3888    1.3042   17.8226 C   0  0  0  0  0  0  0  0  0  0  0  0
    6.5546    0.6900   17.5536 N   0  0  0  0  0  0  0  0  0  0  0  0
    7.1588    0.0646   18.5697 C   0  0  0  0  0  0  0  0  0  0  0  0
    8.1168   -0.4026   18.3387 H   0  0  0  0  0  0  0  0  0  0  0  0
    6.6507    0.0137   19.8843 C   0  0  0  0  0  0  0  0  0  0  0  0
    7.3669   -0.6545   20.9743 C   0  0  0  0  0  0  0  0  0  0  0  0
    7.5120   -0.3204   22.3158 C   0  0  0  0  0  0  0  0  0  0  0  0
    7.0364    0.8363   22.9368 N   0  0  0  0  0  0  0  0  0  0  0  0
    6.9809    1.6555   22.3548 H   0  0  0  0  0  0  0  0  0  0  0  0
    6.8201    1.0309   24.2968 C   0  0  0  0  0  0  0  0  0  0  0  0
    6.3546   -0.0202   25.0987 C   0  0  0  0  0  0  0  0  0  0  0  0
    6.1782   -0.9745   24.6181 H   0  0  0  0  0  0  0  0  0  0  0  0
    6.1424    0.1757   26.4618 C   0  0  0  0  0  0  0  0  0  0  0  0
    5.7926   -0.6536   27.0663 H   0  0  0  0  0  0  0  0  0  0  0  0
    6.3750    1.4199   27.0483 C   0  0  0  0  0  0  0  0  0  0  0  0
    6.2144    1.6024   28.1059 H   0  0  0  0  0  0  0  0  0  0  0  0
    6.8208    2.4516   26.2242 C   0  0  0  0  0  0  0  0  0  0  0  0
    7.0373    3.6576   26.7726 F   0  0  0  0  0  0  0  0  0  0  0  0
    7.0406    2.2960   24.8581 C   0  0  0  0  0  0  0  0  0  0  0  0
    7.3973    3.1361   24.2709 H   0  0  0  0  0  0  0  0  0  0  0  0
    8.2869   -1.3754   22.8618 C   0  0  0  0  0  0  0  0  0  0  0  0
    8.6225   -1.4614   23.8842 H   0  0  0  0  0  0  0  0  0  0  0  0
    8.6028   -2.2872   21.9506 N   0  0  0  0  0  0  0  0  0  0  0  0
    8.0466   -1.8213   20.8230 N   0  0  0  0  0  0  0  0  0  0  0  0
    8.1323   -2.3590   19.9759 H   0  0  0  0  0  0  0  0  0  0  0  0
    5.4323    0.6618   20.1429 C   0  0  0  0  0  0  0  0  0  0  0  0
    5.0164    0.6259   21.1528 H   0  0  0  0  0  0  0  0  0  0  0  0
    4.7953    1.3186   19.0899 C   0  0  0  0  0  0  0  0  0  0  0  0
    3.8654    1.8482   19.2472 H   0  0  0  0  0  0  0  0  0  0  0  0
  1  2  1  0
  2  3  2  0
  3  4  1  0
  4  5  1  0
  4  6  2  0
  6  7  1  0
  7  8  2  0
  8  9  1  0
  9 10  1  0
  9 11  1  0
 11 12  2  0
 12 13  1  0
 12 14  1  0
 14 15  1  0
 14 16  2  0
 16 17  1  0
 16 18  1  0
 18 19  1  0
 18 20  2  0
 20 21  1  0
  8 22  1  0
 22 23  1  0
 22 24  2  0
 24 25  1  0
 25 26  1  0
  6 27  1  0
 27 28  1  0
 27 29  2  0
 29 30  1  0
 29  2  1  0
 25  7  1  0
 20 11  1  0
M  END
>  <cnnaffinity>  (1) 
-5.37491

>  <filename>  (1) 
Fc1cccc(Nc2cn[nH]c2-c2cccnc2)c1

$$$$
