
     RDKit          3D

 30 32  0  0  0  0  0  0  0  0999 V2000
    5.0064    1.8258   16.9289 H   0  0  0  0  0  0  0  0  0  0  0  0
    5.4418    1.3051   17.7783 C   0  0  0  0  0  0  0  0  0  0  0  0
    6.5984    0.6655   17.5401 N   0  0  0  0  0  0  0  0  0  0  0  0
    7.1700    0.0350   18.5744 C   0  0  0  0  0  0  0  0  0  0  0  0
    8.1046   -0.4849   18.3603 H   0  0  0  0  0  0  0  0  0  0  0  0
    6.6305   -0.0127   19.8801 C   0  0  0  0  0  0  0  0  0  0  0  0
    7.3704   -0.6600   21.0074 C   0  0  0  0  0  0  0  0  0  0  0  0
    6.7770   -1.6004   21.8781 C   0  0  0  0  0  0  0  0  0  0  0  0
    5.7526   -1.9263   21.7213 H   0  0  0  0  0  0  0  0  0  0  0  0
    7.4152   -2.1796   22.9031 N   0  0  0  0  0  0  0  0  0  0  0  0
    8.6877   -1.8148   23.1215 C   0  0  0  0  0  0  0  0  0  0  0  0
    9.2056   -2.3289   23.9245 H   0  0  0  0  0  0  0  0  0  0  0  0
    9.3879   -0.8820   22.3401 C   0  0  0  0  0  0  0  0  0  0  0  0
   10.8458   -0.6093   22.5653 C   0  0  0  0  0  0  0  0  0  0  0  0
   11.7333   -1.0449   21.5768 C   0  0  0  0  0  0  0  0  0  0  0  0
   11.2887   -1.5097   20.7117 H   0  0  0  0  0  0  0  0  0  0  0  0
   13.1143   -0.9023   21.7012 C   0  0  0  0  0  0  0  0  0  0  0  0
   13.7561   -1.2414   20.8933 H   0  0  0  0  0  0  0  0  0  0  0  0
   13.6437   -0.2847   22.8365 C   0  0  0  0  0  0  0  0  0  0  0  0
   14.7180   -0.1342   22.9245 H   0  0  0  0  0  0  0  0  0  0  0  0
   12.7887    0.1584   23.8536 C   0  0  0  0  0  0  0  0  0  0  0  0
   13.1568    0.5527   24.7960 H   0  0  0  0  0  0  0  0  0  0  0  0
   11.4094    0.0081   23.6928 C   0  0  0  0  0  0  0  0  0  0  0  0
   10.6074    0.4902   24.6578 F   0  0  0  0  0  0  0  0  0  0  0  0
    8.7138   -0.3395   21.2387 C   0  0  0  0  0  0  0  0  0  0  0  0
    9.2296    0.3312   20.5498 H   0  0  0  0  0  0  0  0  0  0  0  0
    5.4011    0.6294   20.0881 C   0  0  0  0  0  0  0  0  0  0  0  0
    4.9492    0.6248   21.0826 H   0  0  0  0  0  0  0  0  0  0  0  0
    4.8053    1.3115   19.0249 C   0  0  0  0  0  0  0  0  0  0  0  0
    3.8775    1.8586   19.1501 H   0  0  0  0  0  0  0  0  0  0  0  0
  1  2  1  0
  2  3  2  0
  3  4  1  0
  4  5  1  0
  4  6  2  0
  6  7  1  0
  7  8  2  0
  8  9  1  0
  8 10  1  0
 10 11  2  0
 11 12  1  0
 11 13  1  0
 13 14  1  0
 14 15  2  0
 15 16  1  0
 15 17  1  0
 17 18  1  0
 17 19  2  0
 19 20  1  0
 19 21  1  0
 21 22  1  0
 21 23  2  0
 23 24  1  0
 13 25  2  0
 25 26  1  0
  6 27  1  0
 27 28  1  0
 27 29  2  0
 29 30  1  0
 29  2  1  0
 25  7  1  0
 23 14  1  0
M  END
>  <cnnaffinity>  (1) 
-5.02585

>  <filename>  (1) 
Fc1ccccc1-c1cncc(-c2cccnc2)c1

$$$$
