
     RDKit          3D

 29 31  0  0  0  0  0  0  0  0999 V2000
    5.0511    1.7801   17.0224 H   0  0  0  0  0  0  0  0  0  0  0  0
    5.4759    1.2588   17.8772 C   0  0  0  0  0  0  0  0  0  0  0  0
    6.6232    0.5970   17.6541 N   0  0  0  0  0  0  0  0  0  0  0  0
    7.1671   -0.0480   18.6932 C   0  0  0  0  0  0  0  0  0  0  0  0
    8.1034   -0.5663   18.4846 H   0  0  0  0  0  0  0  0  0  0  0  0
    6.6091   -0.1051   19.9854 C   0  0  0  0  0  0  0  0  0  0  0  0
    7.3130   -0.8410   21.0753 C   0  0  0  0  0  0  0  0  0  0  0  0
    8.6989   -0.6889   21.2191 C   0  0  0  0  0  0  0  0  0  0  0  0
    9.2526   -0.0161   20.5805 H   0  0  0  0  0  0  0  0  0  0  0  0
    9.3625   -1.3908   22.2223 C   0  0  0  0  0  0  0  0  0  0  0  0
   10.4427   -1.3191   22.3335 H   0  0  0  0  0  0  0  0  0  0  0  0
    8.7453   -2.2153   23.0683 N   0  0  0  0  0  0  0  0  0  0  0  0
    7.4086   -2.3213   22.9864 C   0  0  0  0  0  0  0  0  0  0  0  0
    6.8065   -3.2084   24.0079 C   0  0  0  0  0  0  0  0  0  0  0  0
    7.5464   -4.3350   24.4028 C   0  0  0  0  0  0  0  0  0  0  0  0
    8.5639   -4.4523   24.0488 H   0  0  0  0  0  0  0  0  0  0  0  0
    7.0574   -5.2966   25.1879 N   0  0  0  0  0  0  0  0  0  0  0  0
    5.8087   -5.1587   25.6547 C   0  0  0  0  0  0  0  0  0  0  0  0
    5.3962   -5.9603   26.2599 H   0  0  0  0  0  0  0  0  0  0  0  0
    5.0327   -4.0326   25.3804 C   0  0  0  0  0  0  0  0  0  0  0  0
    3.7852   -3.9264   25.8594 F   0  0  0  0  0  0  0  0  0  0  0  0
    5.5381   -3.0191   24.5813 C   0  0  0  0  0  0  0  0  0  0  0  0
    4.9572   -2.1118   24.4778 H   0  0  0  0  0  0  0  0  0  0  0  0
    6.6592   -1.6874   21.9807 C   0  0  0  0  0  0  0  0  0  0  0  0
    5.5984   -1.8932   21.8749 H   0  0  0  0  0  0  0  0  0  0  0  0
    5.4035    0.5885   20.1858 C   0  0  0  0  0  0  0  0  0  0  0  0
    4.9512    0.6019   21.1775 H   0  0  0  0  0  0  0  0  0  0  0  0
    4.8318    1.2842   19.1185 C   0  0  0  0  0  0  0  0  0  0  0  0
    3.9116    1.8492   19.2371 H   0  0  0  0  0  0  0  0  0  0  0  0
  1  2  1  0
  2  3  2  0
  3  4  1  0
  4  5  1  0
  4  6  2  0
  6  7  1  0
  7  8  2  0
  8  9  1  0
  8 10  1  0
 10 11  1  0
 10 12  2  0
 12 13  1  0
 13 14  1  0
 14 15  2  0
 15 16  1  0
 15 17  1  0
 17 18  2  0
 18 19  1  0
 18 20  1  0
 20 21  1  0
 20 22  2  0
 22 23  1  0
 13 24  2  0
 24 25  1  0
  6 26  1  0
 26 27  1  0
 26 28  2  0
 28 29  1  0
 28  2  1  0
 24  7  1  0
 22 14  1  0
M  END
>  <cnnaffinity>  (1) 
-5.03686

>  <filename>  (1) 
Fc1cncc(-c2cc(-c3cccnc3)ccn2)c1

$$$$
