
     RDKit          3D

 26 28  0  0  0  0  0  0  0  0999 V2000
    4.9215    1.7812   16.9970 H   0  0  0  0  0  0  0  0  0  0  0  0
    5.4012    1.2908   17.8403 C   0  0  0  0  0  0  0  0  0  0  0  0
    6.5699    0.6736   17.5871 N   0  0  0  0  0  0  0  0  0  0  0  0
    7.1803    0.0523   18.5998 C   0  0  0  0  0  0  0  0  0  0  0  0
    8.1263   -0.4370   18.3755 H   0  0  0  0  0  0  0  0  0  0  0  0
    6.6534    0.0206   19.9078 C   0  0  0  0  0  0  0  0  0  0  0  0
    7.3517   -0.6400   20.9683 N   0  0  0  0  0  0  0  0  0  0  0  0
    8.1088   -1.7473   20.7295 N   0  0  0  0  0  0  0  0  0  0  0  0
    8.5974   -2.1180   21.8465 N   0  0  0  0  0  0  0  0  0  0  0  0
    8.2165   -1.2986   22.8569 N   0  0  0  0  0  0  0  0  0  0  0  0
    7.4486   -0.3984   22.3013 C   0  0  0  0  0  0  0  0  0  0  0  0
    6.7903    0.6318   22.8555 O   0  0  0  0  0  0  0  0  0  0  0  0
    7.0717    1.0802   24.1504 C   0  0  0  0  0  0  0  0  0  0  0  0
    6.0522    1.7118   24.8954 C   0  0  0  0  0  0  0  0  0  0  0  0
    5.0611    1.8338   24.4728 H   0  0  0  0  0  0  0  0  0  0  0  0
    6.2460    2.1860   26.1343 N   0  0  0  0  0  0  0  0  0  0  0  0
    7.4657    2.0723   26.6847 C   0  0  0  0  0  0  0  0  0  0  0  0
    7.6104    2.4546   27.6979 H   0  0  0  0  0  0  0  0  0  0  0  0
    8.5176    1.4915   25.9656 C   0  0  0  0  0  0  0  0  0  0  0  0
    9.7498    1.3820   26.4503 F   0  0  0  0  0  0  0  0  0  0  0  0
    8.3489    0.9894   24.6864 C   0  0  0  0  0  0  0  0  0  0  0  0
    9.2010    0.5425   24.1768 H   0  0  0  0  0  0  0  0  0  0  0  0
    5.4336    0.6512   20.1681 C   0  0  0  0  0  0  0  0  0  0  0  0
    5.0083    0.6373   21.1703 H   0  0  0  0  0  0  0  0  0  0  0  0
    4.8057    1.3039   19.1043 C   0  0  0  0  0  0  0  0  0  0  0  0
    3.8779    1.8384   19.2584 H   0  0  0  0  0  0  0  0  0  0  0  0
  1  2  1  0
  2  3  2  0
  3  4  1  0
  4  5  1  0
  4  6  2  0
  6  7  1  0
  7  8  1  0
  8  9  2  0
  9 10  1  0
 10 11  2  0
 11 12  1  0
 12 13  1  0
 13 14  2  0
 14 15  1  0
 14 16  1  0
 16 17  2  0
 17 18  1  0
 17 19  1  0
 19 20  1  0
 19 21  2  0
 21 22  1  0
  6 23  1  0
 23 24  1  0
 23 25  2  0
 25 26  1  0
 25  2  1  0
 11  7  1  0
 21 13  1  0
M  END
>  <cnnaffinity>  (1) 
-5.06495

>  <filename>  (1) 
Fc1cncc(Oc2nnnn2-c2cccnc2)c1

$$$$
