
     RDKit          3D

 30 33  0  0  0  0  0  0  0  0999 V2000
    4.9119    1.8082   16.9737 H   0  0  0  0  0  0  0  0  0  0  0  0
    5.3793    1.3038   17.8204 C   0  0  0  0  0  0  0  0  0  0  0  0
    6.5432    0.6845   17.5665 N   0  0  0  0  0  0  0  0  0  0  0  0
    7.1539    0.0747   18.5866 C   0  0  0  0  0  0  0  0  0  0  0  0
    8.1046   -0.3954   18.3400 H   0  0  0  0  0  0  0  0  0  0  0  0
    6.6605    0.0280   19.9121 C   0  0  0  0  0  0  0  0  0  0  0  0
    7.4084   -0.6722   20.9708 C   0  0  0  0  0  0  0  0  0  0  0  0
    8.3188   -1.7019   20.9106 C   0  0  0  0  0  0  0  0  0  0  0  0
    8.7163   -2.1215   20.0084 H   0  0  0  0  0  0  0  0  0  0  0  0
    8.7787   -2.1128   22.1291 N   0  0  0  0  0  0  0  0  0  0  0  0
    8.1726   -1.2986   22.9555 C   0  0  0  0  0  0  0  0  0  0  0  0
    8.2604   -0.9651   24.6412 S   0  0  0  0  0  0  0  0  0  0  0  0
    7.1379    0.3741   24.3279 C   0  0  0  0  0  0  0  0  0  0  0  0
    6.6552    1.2904   25.3675 C   0  0  0  0  0  0  0  0  0  0  0  0
    5.7829    2.3514   25.0439 C   0  0  0  0  0  0  0  0  0  0  0  0
    5.4832    2.4776   24.0038 H   0  0  0  0  0  0  0  0  0  0  0  0
    5.3208    3.2166   26.0344 C   0  0  0  0  0  0  0  0  0  0  0  0
    4.6493    4.0264   25.7646 H   0  0  0  0  0  0  0  0  0  0  0  0
    5.7221    3.0422   27.3655 C   0  0  0  0  0  0  0  0  0  0  0  0
    5.3622    3.7164   28.1389 H   0  0  0  0  0  0  0  0  0  0  0  0
    6.5872    1.9999   27.7060 C   0  0  0  0  0  0  0  0  0  0  0  0
    6.9294    1.8182   28.7185 H   0  0  0  0  0  0  0  0  0  0  0  0
    7.0400    1.1423   26.7089 C   0  0  0  0  0  0  0  0  0  0  0  0
    7.8625    0.1516   27.0551 F   0  0  0  0  0  0  0  0  0  0  0  0
    6.7539    0.5250   23.0967 N   0  0  0  0  0  0  0  0  0  0  0  0
    7.3308   -0.4212   22.3371 N   0  0  0  0  0  0  0  0  0  0  0  0
    5.4297    0.6660   20.1470 C   0  0  0  0  0  0  0  0  0  0  0  0
    5.0148    0.6502   21.1518 H   0  0  0  0  0  0  0  0  0  0  0  0
    4.7898    1.3156   19.0878 C   0  0  0  0  0  0  0  0  0  0  0  0
    3.8585    1.8494   19.2329 H   0  0  0  0  0  0  0  0  0  0  0  0
  1  2  1  0
  2  3  2  0
  3  4  1  0
  4  5  1  0
  4  6  2  0
  6  7  1  0
  7  8  2  0
  8  9  1  0
  8 10  1  0
 10 11  2  0
 11 12  1  0
 12 13  1  0
 13 14  1  0
 14 15  2  0
 15 16  1  0
 15 17  1  0
 17 18  1  0
 17 19  2  0
 19 20  1  0
 19 21  1  0
 21 22  1  0
 21 23  2  0
 23 24  1  0
 13 25  2  0
 25 26  1  0
  6 27  1  0
 27 28  1  0
 27 29  2  0
 29 30  1  0
 29  2  1  0
 26  7  1  0
 26 11  1  0
 23 14  1  0
M  END
>  <cnnaffinity>  (1) 
-5.24804

>  <filename>  (1) 
Fc1ccccc1-c1nn2c(-c3cccnc3)cnc2s1

$$$$
