
     RDKit          3D

 34 37  0  0  0  0  0  0  0  0999 V2000
    4.9413    1.8015   16.9863 H   0  0  0  0  0  0  0  0  0  0  0  0
    5.4007    1.2934   17.8339 C   0  0  0  0  0  0  0  0  0  0  0  0
    6.5537    0.6558   17.5772 N   0  0  0  0  0  0  0  0  0  0  0  0
    7.1512    0.0276   18.5931 C   0  0  0  0  0  0  0  0  0  0  0  0
    8.0946   -0.4625   18.3636 H   0  0  0  0  0  0  0  0  0  0  0  0
    6.6505    0.0046   19.9012 C   0  0  0  0  0  0  0  0  0  0  0  0
    7.4250   -0.6708   20.9390 C   0  0  0  0  0  0  0  0  0  0  0  0
    7.8614   -1.9668   20.7967 N   0  0  0  0  0  0  0  0  0  0  0  0
    8.4370   -2.2225   21.9429 C   0  0  0  0  0  0  0  0  0  0  0  0
    9.2257   -3.5876   22.6859 S   0  0  0  0  0  0  0  0  0  0  0  0
    9.6817   -2.5966   24.0583 C   0  0  0  0  0  0  0  0  0  0  0  0
   10.3154   -3.0220   24.8274 H   0  0  0  0  0  0  0  0  0  0  0  0
    9.1773   -1.3522   23.9741 C   0  0  0  0  0  0  0  0  0  0  0  0
    9.2354   -0.5355   24.6844 H   0  0  0  0  0  0  0  0  0  0  0  0
    8.4682   -1.1507   22.7947 N   0  0  0  0  0  0  0  0  0  0  0  0
    7.8177   -0.1173   22.1494 C   0  0  0  0  0  0  0  0  0  0  0  0
    7.6430    1.2550   22.7163 C   0  0  0  0  0  0  0  0  0  0  0  0
    8.4979    1.4947   23.3667 H   0  0  0  0  0  0  0  0  0  0  0  0
    7.6813    1.9704   21.8892 H   0  0  0  0  0  0  0  0  0  0  0  0
    6.3387    1.4703   23.4793 C   0  0  0  0  0  0  0  0  0  0  0  0
    5.4683    2.5164   23.1346 C   0  0  0  0  0  0  0  0  0  0  0  0
    5.7172    3.1517   22.2835 H   0  0  0  0  0  0  0  0  0  0  0  0
    4.2750    2.7266   23.8372 C   0  0  0  0  0  0  0  0  0  0  0  0
    3.5882    3.5292   23.5925 H   0  0  0  0  0  0  0  0  0  0  0  0
    3.9639    1.8702   24.8907 C   0  0  0  0  0  0  0  0  0  0  0  0
    2.8187    2.0591   25.5702 F   0  0  0  0  0  0  0  0  0  0  0  0
    4.8029    0.8235   25.2584 C   0  0  0  0  0  0  0  0  0  0  0  0
    4.5125    0.1816   26.0828 H   0  0  0  0  0  0  0  0  0  0  0  0
    5.9908    0.6290   24.5460 C   0  0  0  0  0  0  0  0  0  0  0  0
    6.6534   -0.1958   24.8045 H   0  0  0  0  0  0  0  0  0  0  0  0
    5.4368    0.6665   20.1531 C   0  0  0  0  0  0  0  0  0  0  0  0
    4.9951    0.6624   21.1503 H   0  0  0  0  0  0  0  0  0  0  0  0
    4.7998    1.3183   19.0984 C   0  0  0  0  0  0  0  0  0  0  0  0
    3.8631    1.8523   19.2340 H   0  0  0  0  0  0  0  0  0  0  0  0
  1  2  1  0
  2  3  2  0
  3  4  1  0
  4  5  1  0
  4  6  2  0
  6  7  1  0
  7  8  1  0
  8  9  2  0
  9 10  1  0
 10 11  1  0
 11 12  1  0
 11 13  2  0
 13 14  1  0
 13 15  1  0
 15 16  1  0
 16 17  1  0
 17 18  1  0
 17 19  1  0
 17 20  1  0
 20 21  2  0
 21 22  1  0
 21 23  1  0
 23 24  1  0
 23 25  2  0
 25 26  1  0
 25 27  1  0
 27 28  1  0
 27 29  2  0
 29 30  1  0
  6 31  1  0
 31 32  1  0
 31 33  2  0
 33 34  1  0
 33  2  1  0
 16  7  2  0
 29 20  1  0
 15  9  1  0
M  END
>  <cnnaffinity>  (1) 
-5.47354

>  <filename>  (1) 
Fc1ccc(Cc2c(-c3cccnc3)nc3sccn23)cc1

$$$$
