
     RDKit          3D

 32 34  0  0  0  0  0  0  0  0999 V2000
    5.0503    1.8451   16.8422 H   0  0  0  0  0  0  0  0  0  0  0  0
    5.4775    1.3218   17.6955 C   0  0  0  0  0  0  0  0  0  0  0  0
    6.6340    0.6757   17.4734 N   0  0  0  0  0  0  0  0  0  0  0  0
    7.1828    0.0352   18.5138 C   0  0  0  0  0  0  0  0  0  0  0  0
    8.1206   -0.4855   18.3200 H   0  0  0  0  0  0  0  0  0  0  0  0
    6.6174   -0.0269   19.8036 C   0  0  0  0  0  0  0  0  0  0  0  0
    7.3017   -0.7654   20.9049 C   0  0  0  0  0  0  0  0  0  0  0  0
    6.6042   -1.6300   21.7696 C   0  0  0  0  0  0  0  0  0  0  0  0
    5.5336   -1.7940   21.6394 H   0  0  0  0  0  0  0  0  0  0  0  0
    7.2025   -2.3339   22.7443 N   0  0  0  0  0  0  0  0  0  0  0  0
    8.5219   -2.1756   22.9167 C   0  0  0  0  0  0  0  0  0  0  0  0
    8.9667   -2.7515   23.7271 H   0  0  0  0  0  0  0  0  0  0  0  0
    9.3320   -1.3078   22.1363 C   0  0  0  0  0  0  0  0  0  0  0  0
   10.7268   -1.2114   22.3536 N   0  0  0  0  0  0  0  0  0  0  0  0
   11.2699   -2.0598   22.4342 H   0  0  0  0  0  0  0  0  0  0  0  0
   11.4969   -0.0748   22.4055 C   0  0  0  0  0  0  0  0  0  0  0  0
   11.0140    1.2725   22.4115 C   0  0  0  0  0  0  0  0  0  0  0  0
   10.1861    1.4688   21.7595 H   0  0  0  0  0  0  0  0  0  0  0  0
   12.0355    2.2671   22.2888 C   0  0  0  0  0  0  0  0  0  0  0  0
   12.8878    2.9807   21.8065 H   0  0  0  0  0  0  0  0  0  0  0  0
   12.0667    2.4612   22.5433 C   0  0  0  0  0  0  0  0  0  0  0  0
   12.2061    3.4258   23.6256 F   0  0  0  0  0  0  0  0  0  0  0  0
   13.6018    0.9278   22.3916 C   0  0  0  0  0  0  0  0  0  0  0  0
   14.6843    1.1324   22.4033 H   0  0  0  0  0  0  0  0  0  0  0  0
   12.9379   -0.2335   22.4531 C   0  0  0  0  0  0  0  0  0  0  0  0
   13.3933   -1.2275   22.4962 H   0  0  0  0  0  0  0  0  0  0  0  0
    8.6877   -0.6183   21.1025 C   0  0  0  0  0  0  0  0  0  0  0  0
    9.2709    0.0334   20.4554 H   0  0  0  0  0  0  0  0  0  0  0  0
    5.3986    0.6406   20.0030 C   0  0  0  0  0  0  0  0  0  0  0  0
    4.9350    0.6427   20.9909 H   0  0  0  0  0  0  0  0  0  0  0  0
    4.8258    1.3321   18.9337 C   0  0  0  0  0  0  0  0  0  0  0  0
    3.8986    1.8821   19.0478 H   0  0  0  0  0  0  0  0  0  0  0  0
  1  2  1  0
  2  3  2  0
  3  4  1  0
  4  5  1  0
  4  6  2  0
  6  7  1  0
  7  8  2  0
  8  9  1  0
  8 10  1  0
 10 11  2  0
 11 12  1  0
 11 13  1  0
 13 14  1  0
 14 15  1  0
 14 16  1  0
 16 17  2  0
 17 18  1  0
 17 19  1  0
 19 20  1  0
 19 21  2  0
 21 22  1  0
 21 23  1  0
 23 24  1  0
 23 25  2  0
 25 26  1  0
 13 27  2  0
 27 28  1  0
  6 29  1  0
 29 30  1  0
 29 31  2  0
 31 32  1  0
 31  2  1  0
 27  7  1  0
 25 16  1  0
M  END
>  <cnnaffinity>  (1) 
-5.03269

>  <filename>  (1) 
Fc1ccc(Nc2cncc(-c3cccnc3)c2)cc1

$$$$
