
     RDKit          3D

 30 32  0  0  0  0  0  0  0  0999 V2000
    4.9255    1.7750   17.0029 H   0  0  0  0  0  0  0  0  0  0  0  0
    5.4074    1.2851   17.8469 C   0  0  0  0  0  0  0  0  0  0  0  0
    6.5672    0.6644   17.5893 N   0  0  0  0  0  0  0  0  0  0  0  0
    7.1876    0.0666   18.6079 C   0  0  0  0  0  0  0  0  0  0  0  0
    8.1293   -0.4214   18.3728 H   0  0  0  0  0  0  0  0  0  0  0  0
    6.6796    0.0203   19.9117 C   0  0  0  0  0  0  0  0  0  0  0  0
    7.4357   -0.6971   20.9579 C   0  0  0  0  0  0  0  0  0  0  0  0
    8.7752   -0.6827   20.8857 N   0  0  0  0  0  0  0  0  0  0  0  0
    9.4492   -1.3053   21.8611 C   0  0  0  0  0  0  0  0  0  0  0  0
   10.5294   -1.2567   21.8012 H   0  0  0  0  0  0  0  0  0  0  0  0
    8.8546   -2.0006   22.9101 C   0  0  0  0  0  0  0  0  0  0  0  0
    9.4482   -2.5008   23.6638 H   0  0  0  0  0  0  0  0  0  0  0  0
    7.4623   -2.0522   22.9595 C   0  0  0  0  0  0  0  0  0  0  0  0
    6.7583   -2.7898   24.0380 C   0  0  0  0  0  0  0  0  0  0  0  0
    7.0365   -2.5759   25.3956 C   0  0  0  0  0  0  0  0  0  0  0  0
    7.9611   -1.6588   25.7321 F   0  0  0  0  0  0  0  0  0  0  0  0
    6.4001   -3.2553   26.4244 C   0  0  0  0  0  0  0  0  0  0  0  0
    6.6801   -3.0326   27.4471 H   0  0  0  0  0  0  0  0  0  0  0  0
    5.4315   -4.2035   26.0965 C   0  0  0  0  0  0  0  0  0  0  0  0
    4.9255   -4.7437   26.8849 H   0  0  0  0  0  0  0  0  0  0  0  0
    5.1087   -4.4620   24.7636 C   0  0  0  0  0  0  0  0  0  0  0  0
    4.3578   -5.1879   24.4743 H   0  0  0  0  0  0  0  0  0  0  0  0
    5.7728   -3.7517   23.7731 C   0  0  0  0  0  0  0  0  0  0  0  0
    5.4587   -4.0225   22.4922 F   0  0  0  0  0  0  0  0  0  0  0  0
    6.7554   -1.3896   21.9611 C   0  0  0  0  0  0  0  0  0  0  0  0
    5.6818   -1.4453   21.9292 H   0  0  0  0  0  0  0  0  0  0  0  0
    5.4475    0.6476   20.1641 C   0  0  0  0  0  0  0  0  0  0  0  0
    5.0058    0.6433   21.1650 H   0  0  0  0  0  0  0  0  0  0  0  0
    4.8136    1.3058   19.1134 C   0  0  0  0  0  0  0  0  0  0  0  0
    3.8799    1.8378   19.2605 H   0  0  0  0  0  0  0  0  0  0  0  0
  1  2  1  0
  2  3  2  0
  3  4  1  0
  4  5  1  0
  4  6  2  0
  6  7  1  0
  7  8  2  0
  8  9  1  0
  9 10  1  0
  9 11  2  0
 11 12  1  0
 11 13  1  0
 13 14  1  0
 14 15  2  0
 15 16  1  0
 15 17  1  0
 17 18  1  0
 17 19  2  0
 19 20  1  0
 19 21  1  0
 21 22  1  0
 21 23  2  0
 23 24  1  0
 13 25  2  0
 25 26  1  0
  6 27  1  0
 27 28  1  0
 27 29  2  0
 29 30  1  0
 29  2  1  0
 25  7  1  0
 23 14  1  0
M  END
>  <cnnaffinity>  (1) 
-5.33684

>  <filename>  (1) 
Fc1cccc(F)c1-c1ccnc(-c2cccnc2)c1

$$$$
