
     RDKit          3D

 32 34  0  0  0  0  0  0  0  0999 V2000
    6.6802   -1.3378   21.6227 H   0  0  0  0  0  0  0  0  0  0  0  0
    7.3274   -0.7212   20.9941 C   0  0  0  0  0  0  0  0  0  0  0  0
    8.6097   -0.5344   21.3400 C   0  0  0  0  0  0  0  0  0  0  0  0
    9.3673   -1.1529   22.4414 C   0  0  0  0  0  0  0  0  0  0  0  0
    8.8508   -2.3287   23.2028 C   0  0  0  0  0  0  0  0  0  0  0  0
    9.0754   -2.3882   24.5852 C   0  0  0  0  0  0  0  0  0  0  0  0
    9.5978   -1.5729   25.0737 H   0  0  0  0  0  0  0  0  0  0  0  0
    8.6600   -3.4896   25.3325 C   0  0  0  0  0  0  0  0  0  0  0  0
    8.8412   -3.5552   26.4010 H   0  0  0  0  0  0  0  0  0  0  0  0
    8.0134   -4.5432   24.6952 C   0  0  0  0  0  0  0  0  0  0  0  0
    7.6112   -5.6062   25.4045 F   0  0  0  0  0  0  0  0  0  0  0  0
    7.7834   -4.5010   23.3155 C   0  0  0  0  0  0  0  0  0  0  0  0
    7.1617   -5.5268   22.7160 F   0  0  0  0  0  0  0  0  0  0  0  0
    8.1928   -3.4023   22.5683 C   0  0  0  0  0  0  0  0  0  0  0  0
    8.0061   -3.4128   21.4980 H   0  0  0  0  0  0  0  0  0  0  0  0
   10.4826   -0.5756   22.7013 N   0  0  0  0  0  0  0  0  0  0  0  0
   10.6987    0.5132   21.7468 C   0  0  0  0  0  0  0  0  0  0  0  0
   11.6670    0.3726   21.2644 H   0  0  0  0  0  0  0  0  0  0  0  0
   10.7414    1.4530   22.3040 H   0  0  0  0  0  0  0  0  0  0  0  0
    9.5135    0.5159   20.7511 C   0  0  0  0  0  0  0  0  0  0  0  0
    9.7544    0.1834   19.7429 H   0  0  0  0  0  0  0  0  0  0  0  0
    9.0292    1.4926   20.6569 H   0  0  0  0  0  0  0  0  0  0  0  0
    6.6425   -0.0143   19.8948 C   0  0  0  0  0  0  0  0  0  0  0  0
    7.1647    0.0667   18.5901 C   0  0  0  0  0  0  0  0  0  0  0  0
    8.1084   -0.4273   18.3746 H   0  0  0  0  0  0  0  0  0  0  0  0
    6.5634    0.6862   17.5676 N   0  0  0  0  0  0  0  0  0  0  0  0
    5.3999    1.2991   17.8339 C   0  0  0  0  0  0  0  0  0  0  0  0
    4.9142    1.7844   16.9928 H   0  0  0  0  0  0  0  0  0  0  0  0
    4.8001    1.3137   19.1016 C   0  0  0  0  0  0  0  0  0  0  0  0
    3.8687    1.8487   19.2562 H   0  0  0  0  0  0  0  0  0  0  0  0
    5.4223    0.6349   20.1461 C   0  0  0  0  0  0  0  0  0  0  0  0
    5.0061    0.6240   21.1605 H   0  0  0  0  0  0  0  0  0  0  0  0
  1  2  1  0
  2  3  2  3
  3  4  1  0
  4  5  1  0
  5  6  2  0
  6  7  1  0
  6  8  1  0
  8  9  1  0
  8 10  2  0
 10 11  1  0
 10 12  1  0
 12 13  1  0
 12 14  2  0
 14 15  1  0
  4 16  2  0
 16 17  1  0
 17 18  1  0
 17 19  1  0
 17 20  1  0
 20 21  1  0
 20 22  1  0
  2 23  1  0
 23 24  2  0
 24 25  1  0
 24 26  1  0
 26 27  2  0
 27 28  1  0
 27 29  1  0
 29 30  1  0
 29 31  2  0
 31 32  1  0
 20  3  1  0
 31 23  1  0
 14  5  1  0
M  END
>  <cnnaffinity>  (1) 
-5.3828

>  <filename>  (1) 
Fc1ccc(C2=NCCC2=Cc2cccnc2)cc1F

$$$$
