
     RDKit          3D

 28 30  0  0  0  0  0  0  0  0999 V2000
    8.3623   -1.9650   19.8365 H   0  0  0  0  0  0  0  0  0  0  0  0
    8.1847   -1.6925   20.8549 C   0  0  0  0  0  0  0  0  0  0  0  0
    8.7828   -2.4134   21.8198 N   0  0  0  0  0  0  0  0  0  0  0  0
    8.6024   -1.9370   23.0641 C   0  0  0  0  0  0  0  0  0  0  0  0
    9.0760   -2.4844   23.8762 H   0  0  0  0  0  0  0  0  0  0  0  0
    7.8333   -0.7721   23.3251 C   0  0  0  0  0  0  0  0  0  0  0  0
    7.7242   -0.2101   24.6814 C   0  0  0  0  0  0  0  0  0  0  0  0
    6.5977    0.5659   25.0021 C   0  0  0  0  0  0  0  0  0  0  0  0
    5.8213    0.7371   24.2566 H   0  0  0  0  0  0  0  0  0  0  0  0
    6.4225    1.0960   26.2161 N   0  0  0  0  0  0  0  0  0  0  0  0
    7.3366    0.8436   27.1646 C   0  0  0  0  0  0  0  0  0  0  0  0
    7.1765    1.2921   28.1399 H   0  0  0  0  0  0  0  0  0  0  0  0
    8.4646    0.0435   26.9370 C   0  0  0  0  0  0  0  0  0  0  0  0
    9.2894   -0.2715   27.9482 F   0  0  0  0  0  0  0  0  0  0  0  0
    8.7001   -0.4550   25.6664 C   0  0  0  0  0  0  0  0  0  0  0  0
    9.6258   -0.9943   25.4688 H   0  0  0  0  0  0  0  0  0  0  0  0
    7.1560   -0.1301   22.3473 N   0  0  0  0  0  0  0  0  0  0  0  0
    7.3493   -0.5783   21.0968 C   0  0  0  0  0  0  0  0  0  0  0  0
    6.6318    0.0974   19.9850 C   0  0  0  0  0  0  0  0  0  0  0  0
    7.1693    0.0885   18.6842 C   0  0  0  0  0  0  0  0  0  0  0  0
    8.1232   -0.3962   18.4657 H   0  0  0  0  0  0  0  0  0  0  0  0
    6.5805    0.6578   17.6326 N   0  0  0  0  0  0  0  0  0  0  0  0
    5.4114    1.2777   17.8477 C   0  0  0  0  0  0  0  0  0  0  0  0
    4.9808    1.7700   16.9835 H   0  0  0  0  0  0  0  0  0  0  0  0
    4.7731    1.3236   19.0911 C   0  0  0  0  0  0  0  0  0  0  0  0
    3.8299    1.8479   19.1973 H   0  0  0  0  0  0  0  0  0  0  0  0
    5.3911    0.7219   20.1844 C   0  0  0  0  0  0  0  0  0  0  0  0
    4.9315    0.7221   21.1758 H   0  0  0  0  0  0  0  0  0  0  0  0
  1  2  1  0
  2  3  2  0
  3  4  1  0
  4  5  1  0
  4  6  2  0
  6  7  1  0
  7  8  2  0
  8  9  1  0
  8 10  1  0
 10 11  2  0
 11 12  1  0
 11 13  1  0
 13 14  1  0
 13 15  2  0
 15 16  1  0
  6 17  1  0
 17 18  2  0
 18 19  1  0
 19 20  2  0
 20 21  1  0
 20 22  1  0
 22 23  2  0
 23 24  1  0
 23 25  1  0
 25 26  1  0
 25 27  2  0
 27 28  1  0
 18  2  1  0
 27 19  1  0
 15  7  1  0
M  END
>  <cnnaffinity>  (1) 
-5.04074

>  <filename>  (1) 
Fc1cncc(-c2cncc(-c3cccnc3)n2)c1

$$$$
