
     RDKit          3D

 27 29  0  0  0  0  0  0  0  0999 V2000
    4.9379    1.8068   16.9567 H   0  0  0  0  0  0  0  0  0  0  0  0
    5.4123    1.3111   17.8080 C   0  0  0  0  0  0  0  0  0  0  0  0
    6.5787    0.6846   17.5781 N   0  0  0  0  0  0  0  0  0  0  0  0
    7.1643    0.0637   18.6127 C   0  0  0  0  0  0  0  0  0  0  0  0
    8.1080   -0.4253   18.3795 H   0  0  0  0  0  0  0  0  0  0  0  0
    6.6437    0.0148   19.9300 C   0  0  0  0  0  0  0  0  0  0  0  0
    7.3013   -0.7020   21.0608 C   0  0  0  0  0  0  0  0  0  0  0  0
    7.5393   -0.2774   22.4296 C   0  0  0  0  0  0  0  0  0  0  0  0
    7.1673    0.9933   23.1240 C   0  0  0  0  0  0  0  0  0  0  0  0
    7.2974    2.2259   22.4621 C   0  0  0  0  0  0  0  0  0  0  0  0
    7.6626    2.2862   21.4438 H   0  0  0  0  0  0  0  0  0  0  0  0
    6.9241    3.3933   23.1189 C   0  0  0  0  0  0  0  0  0  0  0  0
    7.0308    4.5626   22.4723 F   0  0  0  0  0  0  0  0  0  0  0  0
    6.4366    3.3940   24.4191 C   0  0  0  0  0  0  0  0  0  0  0  0
    6.1479    4.3107   24.9116 H   0  0  0  0  0  0  0  0  0  0  0  0
    6.3280    2.1643   25.0578 C   0  0  0  0  0  0  0  0  0  0  0  0
    5.8523    2.1428   26.3118 F   0  0  0  0  0  0  0  0  0  0  0  0
    6.6938    0.9688   24.4529 C   0  0  0  0  0  0  0  0  0  0  0  0
    6.6145    0.0484   25.0221 H   0  0  0  0  0  0  0  0  0  0  0  0
    8.1860   -1.1998   23.1018 N   0  0  0  0  0  0  0  0  0  0  0  0
    8.3667   -2.2516   22.2519 O   0  0  0  0  0  0  0  0  0  0  0  0
    7.8250   -1.9611   21.0755 C   0  0  0  0  0  0  0  0  0  0  0  0
    7.8202   -2.7973   20.4056 H   0  0  0  0  0  0  0  0  0  0  0  0
    5.4303    0.6842   20.1351 C   0  0  0  0  0  0  0  0  0  0  0  0
    5.0031    0.7027   21.1372 H   0  0  0  0  0  0  0  0  0  0  0  0
    4.8016    1.3262   19.0643 C   0  0  0  0  0  0  0  0  0  0  0  0
    3.8554    1.8406   19.1916 H   0  0  0  0  0  0  0  0  0  0  0  0
  1  2  1  0
  2  3  2  0
  3  4  1  0
  4  5  1  0
  4  6  2  0
  6  7  1  0
  7  8  1  0
  8  9  1  0
  9 10  2  0
 10 11  1  0
 10 12  1  0
 12 13  1  0
 12 14  2  0
 14 15  1  0
 14 16  1  0
 16 17  1  0
 16 18  2  0
 18 19  1  0
  8 20  2  0
 20 21  1  0
 21 22  1  0
 22 23  1  0
  6 24  1  0
 24 25  1  0
 24 26  2  0
 26 27  1  0
 26  2  1  0
 22  7  2  0
 18  9  1  0
M  END
>  <cnnaffinity>  (1) 
-4.94111

>  <filename>  (1) 
Fc1cc(F)cc(-c2nocc2-c2cccnc2)c1

$$$$
