
     RDKit          3D

 30 33  0  0  0  0  0  0  0  0999 V2000
    4.9095    1.7702   17.0072 H   0  0  0  0  0  0  0  0  0  0  0  0
    5.4055    1.2877   17.8486 C   0  0  0  0  0  0  0  0  0  0  0  0
    6.5747    0.6746   17.5948 N   0  0  0  0  0  0  0  0  0  0  0  0
    7.1848    0.0549   18.6129 C   0  0  0  0  0  0  0  0  0  0  0  0
    8.1321   -0.4369   18.3825 H   0  0  0  0  0  0  0  0  0  0  0  0
    6.6536    0.0118   19.9090 C   0  0  0  0  0  0  0  0  0  0  0  0
    7.3623   -0.6911   20.9676 C   0  0  0  0  0  0  0  0  0  0  0  0
    8.5470   -1.3284   20.7616 N   0  0  0  0  0  0  0  0  0  0  0  0
    8.7910   -1.8084   21.9604 C   0  0  0  0  0  0  0  0  0  0  0  0
    9.9844   -2.8239   22.7153 S   0  0  0  0  0  0  0  0  0  0  0  0
    9.0810   -2.7655   24.2050 C   0  0  0  0  0  0  0  0  0  0  0  0
    9.4533   -3.2885   25.0720 H   0  0  0  0  0  0  0  0  0  0  0  0
    7.9598   -2.0155   24.1255 C   0  0  0  0  0  0  0  0  0  0  0  0
    6.9707   -1.7653   25.1957 C   0  0  0  0  0  0  0  0  0  0  0  0
    6.7643   -2.7492   26.1823 C   0  0  0  0  0  0  0  0  0  0  0  0
    7.3093   -3.6895   26.1372 H   0  0  0  0  0  0  0  0  0  0  0  0
    5.8529   -2.5519   27.2175 C   0  0  0  0  0  0  0  0  0  0  0  0
    5.6969   -3.3130   27.9713 H   0  0  0  0  0  0  0  0  0  0  0  0
    5.1418   -1.3556   27.2704 C   0  0  0  0  0  0  0  0  0  0  0  0
    4.2624   -1.1569   28.2638 F   0  0  0  0  0  0  0  0  0  0  0  0
    5.3264   -0.3583   26.3145 C   0  0  0  0  0  0  0  0  0  0  0  0
    4.7666    0.5670   26.3751 H   0  0  0  0  0  0  0  0  0  0  0  0
    6.2409   -0.5623   25.2836 C   0  0  0  0  0  0  0  0  0  0  0  0
    6.3950    0.2166   24.5423 H   0  0  0  0  0  0  0  0  0  0  0  0
    7.8265   -1.4741   22.8398 N   0  0  0  0  0  0  0  0  0  0  0  0
    6.8711   -0.7485   22.2032 N   0  0  0  0  0  0  0  0  0  0  0  0
    5.4370    0.6545   20.1633 C   0  0  0  0  0  0  0  0  0  0  0  0
    5.0070    0.6289   21.1634 H   0  0  0  0  0  0  0  0  0  0  0  0
    4.8058    1.3102   19.1138 C   0  0  0  0  0  0  0  0  0  0  0  0
    3.8716    1.8453   19.2675 H   0  0  0  0  0  0  0  0  0  0  0  0
  1  2  1  0
  2  3  2  0
  3  4  1  0
  4  5  1  0
  4  6  2  0
  6  7  1  0
  7  8  1  0
  8  9  2  0
  9 10  1  0
 10 11  1  0
 11 12  1  0
 11 13  2  0
 13 14  1  0
 14 15  2  0
 15 16  1  0
 15 17  1  0
 17 18  1  0
 17 19  2  0
 19 20  1  0
 19 21  1  0
 21 22  1  0
 21 23  2  0
 23 24  1  0
 13 25  1  0
 25 26  1  0
  6 27  1  0
 27 28  1  0
 27 29  2  0
 29 30  1  0
 29  2  1  0
 26  7  2  0
 25  9  1  0
 23 14  1  0
M  END
>  <cnnaffinity>  (1) 
-5.49693

>  <filename>  (1) 
Fc1ccc(-c2csc3nc(-c4cccnc4)nn23)cc1

$$$$
