
     RDKit          3D

 28 30  0  0  0  0  0  0  0  0999 V2000
    4.9183    1.8007   16.9708 H   0  0  0  0  0  0  0  0  0  0  0  0
    5.3924    1.3036   17.8174 C   0  0  0  0  0  0  0  0  0  0  0  0
    6.5574    0.6852   17.5637 N   0  0  0  0  0  0  0  0  0  0  0  0
    7.1713    0.0704   18.5833 C   0  0  0  0  0  0  0  0  0  0  0  0
    8.1076   -0.4229   18.3287 H   0  0  0  0  0  0  0  0  0  0  0  0
    6.6669    0.0163   19.8960 C   0  0  0  0  0  0  0  0  0  0  0  0
    7.3398   -0.7050   20.9809 C   0  0  0  0  0  0  0  0  0  0  0  0
    6.8240   -1.2314   22.1082 C   0  0  0  0  0  0  0  0  0  0  0  0
    5.8086   -1.3013   22.4169 H   0  0  0  0  0  0  0  0  0  0  0  0
    7.8467   -1.7933   22.8580 N   0  0  0  0  0  0  0  0  0  0  0  0
    7.6399   -2.4530   24.1043 C   0  0  0  0  0  0  0  0  0  0  0  0
    6.8164   -1.8895   25.1043 C   0  0  0  0  0  0  0  0  0  0  0  0
    6.3109   -0.9357   24.9577 H   0  0  0  0  0  0  0  0  0  0  0  0
    6.6343   -2.4688   26.2964 N   0  0  0  0  0  0  0  0  0  0  0  0
    7.2423   -3.6365   26.5421 C   0  0  0  0  0  0  0  0  0  0  0  0
    7.0853   -4.0975   27.5135 H   0  0  0  0  0  0  0  0  0  0  0  0
    8.0544   -4.2601   25.5887 C   0  0  0  0  0  0  0  0  0  0  0  0
    8.6444   -5.4246   25.8785 F   0  0  0  0  0  0  0  0  0  0  0  0
    8.2698   -3.6804   24.3448 C   0  0  0  0  0  0  0  0  0  0  0  0
    8.9199   -4.1537   23.6102 H   0  0  0  0  0  0  0  0  0  0  0  0
    9.0445   -1.6115   22.1914 C   0  0  0  0  0  0  0  0  0  0  0  0
   10.6135   -1.9775   22.5880 S   0  0  0  0  0  0  0  0  0  0  0  0
    8.6939   -0.9770   21.0398 N   0  0  0  0  0  0  0  0  0  0  0  0
    9.4255   -0.6655   20.4242 H   0  0  0  0  0  0  0  0  0  0  0  0
    5.4402    0.6640   20.1345 C   0  0  0  0  0  0  0  0  0  0  0  0
    5.0091    0.6593   21.1351 H   0  0  0  0  0  0  0  0  0  0  0  0
    4.7985    1.3212   19.0837 C   0  0  0  0  0  0  0  0  0  0  0  0
    3.8649    1.8515   19.2327 H   0  0  0  0  0  0  0  0  0  0  0  0
  1  2  1  0
  2  3  2  0
  3  4  1  0
  4  5  1  0
  4  6  2  0
  6  7  1  0
  7  8  2  0
  8  9  1  0
  8 10  1  0
 10 11  1  0
 11 12  2  0
 12 13  1  0
 12 14  1  0
 14 15  2  0
 15 16  1  0
 15 17  1  0
 17 18  1  0
 17 19  2  0
 19 20  1  0
 10 21  1  0
 21 22  2  0
 21 23  1  0
 23 24  1  0
  6 25  1  0
 25 26  1  0
 25 27  2  0
 27 28  1  0
 27  2  1  0
 23  7  1  0
 19 11  1  0
M  END
>  <cnnaffinity>  (1) 
-5.67176

>  <filename>  (1) 
Fc1cncc(-n2cc(-c3cccnc3)[nH]c2=S)c1

$$$$
