
     RDKit          3D

 30 33  0  0  0  0  0  0  0  0999 V2000
    4.9497    1.7809   16.9823 H   0  0  0  0  0  0  0  0  0  0  0  0
    5.4031    1.2849   17.8338 C   0  0  0  0  0  0  0  0  0  0  0  0
    6.5627    0.6525   17.5991 N   0  0  0  0  0  0  0  0  0  0  0  0
    7.1593    0.0754   18.6441 C   0  0  0  0  0  0  0  0  0  0  0  0
    8.1062   -0.4181   18.4222 H   0  0  0  0  0  0  0  0  0  0  0  0
    6.6550    0.0999   19.9630 C   0  0  0  0  0  0  0  0  0  0  0  0
    7.4255   -0.5936   21.0119 C   0  0  0  0  0  0  0  0  0  0  0  0
    8.2810   -1.6213   20.8494 C   0  0  0  0  0  0  0  0  0  0  0  0
    8.7048   -1.9862   19.9338 H   0  0  0  0  0  0  0  0  0  0  0  0
    8.8624   -2.3030   22.3362 S   0  0  0  0  0  0  0  0  0  0  0  0
    8.0787   -1.0263   23.2053 C   0  0  0  0  0  0  0  0  0  0  0  0
    8.1020   -0.5190   24.4118 N   0  0  0  0  0  0  0  0  0  0  0  0
    7.3357    0.5980   24.2547 C   0  0  0  0  0  0  0  0  0  0  0  0
    7.0923    1.5321   25.3624 C   0  0  0  0  0  0  0  0  0  0  0  0
    7.6444    1.3014   26.6374 C   0  0  0  0  0  0  0  0  0  0  0  0
    8.2681    0.4233   26.7848 H   0  0  0  0  0  0  0  0  0  0  0  0
    7.4040    2.1741   27.6946 C   0  0  0  0  0  0  0  0  0  0  0  0
    7.8377    1.9649   28.6688 H   0  0  0  0  0  0  0  0  0  0  0  0
    6.6069    3.3066   27.4920 C   0  0  0  0  0  0  0  0  0  0  0  0
    6.4085    3.9873   28.3136 H   0  0  0  0  0  0  0  0  0  0  0  0
    6.0588    3.5649   26.2350 C   0  0  0  0  0  0  0  0  0  0  0  0
    5.4413    4.4338   26.0332 H   0  0  0  0  0  0  0  0  0  0  0  0
    6.3053    2.6801   25.1877 C   0  0  0  0  0  0  0  0  0  0  0  0
    5.7635    2.9588   24.0013 F   0  0  0  0  0  0  0  0  0  0  0  0
    6.8421    0.7981   23.0320 N   0  0  0  0  0  0  0  0  0  0  0  0
    7.3293   -0.2749   22.3698 N   0  0  0  0  0  0  0  0  0  0  0  0
    5.4198    0.7450   20.1816 C   0  0  0  0  0  0  0  0  0  0  0  0
    4.9924    0.7912   21.1859 H   0  0  0  0  0  0  0  0  0  0  0  0
    4.7862    1.3364   19.0889 C   0  0  0  0  0  0  0  0  0  0  0  0
    3.8367    1.8494   19.1960 H   0  0  0  0  0  0  0  0  0  0  0  0
  1  2  1  0
  2  3  2  0
  3  4  1  0
  4  5  1  0
  4  6  2  0
  6  7  1  0
  7  8  2  0
  8  9  1  0
  8 10  1  0
 10 11  1  0
 11 12  2  0
 12 13  1  0
 13 14  1  0
 14 15  2  0
 15 16  1  0
 15 17  1  0
 17 18  1  0
 17 19  2  0
 19 20  1  0
 19 21  1  0
 21 22  1  0
 21 23  2  0
 23 24  1  0
 13 25  2  0
 25 26  1  0
  6 27  1  0
 27 28  1  0
 27 29  2  0
 29 30  1  0
 29  2  1  0
 26  7  1  0
 26 11  1  0
 23 14  1  0
M  END
>  <cnnaffinity>  (1) 
-5.20306

>  <filename>  (1) 
Fc1ccccc1-c1nc2scc(-c3cccnc3)n2n1

$$$$
