
     RDKit          3D

 33 36  0  0  0  0  0  0  0  0999 V2000
    5.0610    1.8503   16.9120 H   0  0  0  0  0  0  0  0  0  0  0  0
    5.5346    1.3456   17.7518 C   0  0  0  0  0  0  0  0  0  0  0  0
    6.7401    0.8046   17.5153 N   0  0  0  0  0  0  0  0  0  0  0  0
    7.3422    0.1792   18.5290 C   0  0  0  0  0  0  0  0  0  0  0  0
    8.3285   -0.2342   18.3303 H   0  0  0  0  0  0  0  0  0  0  0  0
    6.7594    0.0069   19.7940 C   0  0  0  0  0  0  0  0  0  0  0  0
    7.4795   -0.7836   20.7851 C   0  0  0  0  0  0  0  0  0  0  0  0
    8.8299   -0.6020   20.9868 N   0  0  0  0  0  0  0  0  0  0  0  0
    9.1016   -1.3817   21.9955 C   0  0  0  0  0  0  0  0  0  0  0  0
   10.5105   -1.7287   22.9666 S   0  0  0  0  0  0  0  0  0  0  0  0
    9.5450   -2.7742   24.0029 C   0  0  0  0  0  0  0  0  0  0  0  0
   10.0255   -3.2446   24.8491 H   0  0  0  0  0  0  0  0  0  0  0  0
    8.2635   -2.8591   23.6050 C   0  0  0  0  0  0  0  0  0  0  0  0
    7.4313   -3.3953   24.0530 H   0  0  0  0  0  0  0  0  0  0  0  0
    8.0299   -2.1120   22.4474 N   0  0  0  0  0  0  0  0  0  0  0  0
    6.9691   -1.7745   21.6211 C   0  0  0  0  0  0  0  0  0  0  0  0
    5.7063   -2.3593   21.7109 N   0  0  0  0  0  0  0  0  0  0  0  0
    5.0564   -1.7417   22.1819 H   0  0  0  0  0  0  0  0  0  0  0  0
    5.4700   -3.6878   22.1204 C   0  0  0  0  0  0  0  0  0  0  0  0
    6.1792   -4.7728   21.5851 C   0  0  0  0  0  0  0  0  0  0  0  0
    6.9401   -4.5868   20.8363 H   0  0  0  0  0  0  0  0  0  0  0  0
    5.9036   -6.0736   22.0270 C   0  0  0  0  0  0  0  0  0  0  0  0
    6.4274   -6.9456   21.6454 H   0  0  0  0  0  0  0  0  0  0  0  0
    4.9227   -6.2700   22.9953 C   0  0  0  0  0  0  0  0  0  0  0  0
    4.6994   -7.5255   23.4169 F   0  0  0  0  0  0  0  0  0  0  0  0
    4.1957   -5.2111   23.5408 C   0  0  0  0  0  0  0  0  0  0  0  0
    3.4077   -5.3913   24.2714 H   0  0  0  0  0  0  0  0  0  0  0  0
    4.4678   -3.9233   23.0704 C   0  0  0  0  0  0  0  0  0  0  0  0
    3.9078   -3.0834   23.4670 H   0  0  0  0  0  0  0  0  0  0  0  0
    5.5085    0.5974   20.0361 C   0  0  0  0  0  0  0  0  0  0  0  0
    5.0437    0.5454   21.0248 H   0  0  0  0  0  0  0  0  0  0  0  0
    4.8896    1.2816   18.9931 C   0  0  0  0  0  0  0  0  0  0  0  0
    3.9320    1.7716   19.1241 H   0  0  0  0  0  0  0  0  0  0  0  0
  1  2  1  0
  2  3  2  0
  3  4  1  0
  4  5  1  0
  4  6  2  0
  6  7  1  0
  7  8  1  0
  8  9  2  0
  9 10  1  0
 10 11  1  0
 11 12  1  0
 11 13  2  0
 13 14  1  0
 13 15  1  0
 15 16  1  0
 16 17  1  0
 17 18  1  0
 17 19  1  0
 19 20  2  0
 20 21  1  0
 20 22  1  0
 22 23  1  0
 22 24  2  0
 24 25  1  0
 24 26  1  0
 26 27  1  0
 26 28  2  0
 28 29  1  0
  6 30  1  0
 30 31  1  0
 30 32  2  0
 32 33  1  0
 32  2  1  0
 16  7  2  0
 28 19  1  0
 15  9  1  0
M  END
>  <cnnaffinity>  (1) 
-5.77188

>  <filename>  (1) 
Fc1ccc(Nc2c(-c3cccnc3)nc3sccn23)cc1

$$$$
