
     RDKit          3D

 30 33  0  0  0  0  0  0  0  0999 V2000
    4.9471    1.7782   16.9762 H   0  0  0  0  0  0  0  0  0  0  0  0
    5.4049    1.2908   17.8331 C   0  0  0  0  0  0  0  0  0  0  0  0
    6.5661    0.6598   17.5996 N   0  0  0  0  0  0  0  0  0  0  0  0
    7.1561    0.0845   18.6496 C   0  0  0  0  0  0  0  0  0  0  0  0
    8.1010   -0.4112   18.4331 H   0  0  0  0  0  0  0  0  0  0  0  0
    6.6538    0.1062   19.9683 C   0  0  0  0  0  0  0  0  0  0  0  0
    7.4332   -0.5875   21.0161 C   0  0  0  0  0  0  0  0  0  0  0  0
    8.2969   -1.6079   20.8424 C   0  0  0  0  0  0  0  0  0  0  0  0
    8.7126   -1.9592   19.9180 H   0  0  0  0  0  0  0  0  0  0  0  0
    8.8719   -2.3046   22.3309 S   0  0  0  0  0  0  0  0  0  0  0  0
    8.0802   -1.0387   23.2098 C   0  0  0  0  0  0  0  0  0  0  0  0
    8.1030   -0.5387   24.4217 N   0  0  0  0  0  0  0  0  0  0  0  0
    7.3439    0.5868   24.2672 C   0  0  0  0  0  0  0  0  0  0  0  0
    7.0887    1.5477   25.3642 C   0  0  0  0  0  0  0  0  0  0  0  0
    7.6248    1.3225   26.6444 C   0  0  0  0  0  0  0  0  0  0  0  0
    8.2430    0.4454   26.8140 H   0  0  0  0  0  0  0  0  0  0  0  0
    7.3719    2.2133   27.6875 C   0  0  0  0  0  0  0  0  0  0  0  0
    7.7748    2.0484   28.6814 H   0  0  0  0  0  0  0  0  0  0  0  0
    6.5867    3.3383   27.4578 C   0  0  0  0  0  0  0  0  0  0  0  0
    6.3321    4.1984   28.4515 F   0  0  0  0  0  0  0  0  0  0  0  0
    6.0586    3.5769   26.1821 C   0  0  0  0  0  0  0  0  0  0  0  0
    5.3072    4.6634   25.9695 F   0  0  0  0  0  0  0  0  0  0  0  0
    6.3063    2.6978   25.1380 C   0  0  0  0  0  0  0  0  0  0  0  0
    5.8970    2.9094   24.1540 H   0  0  0  0  0  0  0  0  0  0  0  0
    6.8594    0.7901   23.0463 N   0  0  0  0  0  0  0  0  0  0  0  0
    7.3348   -0.2829   22.3756 N   0  0  0  0  0  0  0  0  0  0  0  0
    5.4177    0.7493   20.1881 C   0  0  0  0  0  0  0  0  0  0  0  0
    4.9840    0.7913   21.1920 H   0  0  0  0  0  0  0  0  0  0  0  0
    4.7901    1.3389   19.0894 C   0  0  0  0  0  0  0  0  0  0  0  0
    3.8382    1.8472   19.1944 H   0  0  0  0  0  0  0  0  0  0  0  0
  1  2  1  0
  2  3  2  0
  3  4  1  0
  4  5  1  0
  4  6  2  0
  6  7  1  0
  7  8  2  0
  8  9  1  0
  8 10  1  0
 10 11  1  0
 11 12  2  0
 12 13  1  0
 13 14  1  0
 14 15  2  0
 15 16  1  0
 15 17  1  0
 17 18  1  0
 17 19  2  0
 19 20  1  0
 19 21  1  0
 21 22  1  0
 21 23  2  0
 23 24  1  0
 13 25  2  0
 25 26  1  0
  6 27  1  0
 27 28  1  0
 27 29  2  0
 29 30  1  0
 29  2  1  0
 26  7  1  0
 26 11  1  0
 23 14  1  0
M  END
>  <cnnaffinity>  (1) 
-5.37059

>  <filename>  (1) 
Fc1ccc(-c2nc3scc(-c4cccnc4)n3n2)cc1F

$$$$
