
     RDKit          3D

 30 33  0  0  0  0  0  0  0  0999 V2000
    4.9248    1.7721   17.0034 H   0  0  0  0  0  0  0  0  0  0  0  0
    5.4104    1.2853   17.8466 C   0  0  0  0  0  0  0  0  0  0  0  0
    6.5747    0.6677   17.5953 N   0  0  0  0  0  0  0  0  0  0  0  0
    7.1810    0.0533   18.6154 C   0  0  0  0  0  0  0  0  0  0  0  0
    8.1263   -0.4327   18.3846 H   0  0  0  0  0  0  0  0  0  0  0  0
    6.6459    0.0154   19.9104 C   0  0  0  0  0  0  0  0  0  0  0  0
    7.3628   -0.6899   20.9671 C   0  0  0  0  0  0  0  0  0  0  0  0
    8.5504   -1.3241   20.7482 N   0  0  0  0  0  0  0  0  0  0  0  0
    8.8089   -1.8177   21.9419 C   0  0  0  0  0  0  0  0  0  0  0  0
   10.0041   -2.8148   22.7251 S   0  0  0  0  0  0  0  0  0  0  0  0
    9.0841   -2.7666   24.1937 C   0  0  0  0  0  0  0  0  0  0  0  0
    9.4389   -3.2917   25.0725 H   0  0  0  0  0  0  0  0  0  0  0  0
    7.9668   -2.0183   24.0988 C   0  0  0  0  0  0  0  0  0  0  0  0
    6.9760   -1.7703   25.1650 C   0  0  0  0  0  0  0  0  0  0  0  0
    6.4435   -0.4985   25.4491 C   0  0  0  0  0  0  0  0  0  0  0  0
    6.8463    0.5537   24.7297 F   0  0  0  0  0  0  0  0  0  0  0  0
    5.5210   -0.2713   26.4640 C   0  0  0  0  0  0  0  0  0  0  0  0
    5.1477    0.7345   26.6185 H   0  0  0  0  0  0  0  0  0  0  0  0
    5.1096   -1.3452   27.2506 C   0  0  0  0  0  0  0  0  0  0  0  0
    4.3946   -1.1831   28.0454 H   0  0  0  0  0  0  0  0  0  0  0  0
    5.6102   -2.6265   27.0295 C   0  0  0  0  0  0  0  0  0  0  0  0
    5.3093   -3.4782   27.6297 H   0  0  0  0  0  0  0  0  0  0  0  0
    6.5270   -2.8088   26.0015 C   0  0  0  0  0  0  0  0  0  0  0  0
    6.9834   -4.0577   25.8014 F   0  0  0  0  0  0  0  0  0  0  0  0
    7.8430   -1.4841   22.8206 N   0  0  0  0  0  0  0  0  0  0  0  0
    6.8844   -0.7579   22.2039 N   0  0  0  0  0  0  0  0  0  0  0  0
    5.4257    0.6592   20.1669 C   0  0  0  0  0  0  0  0  0  0  0  0
    4.9988    0.6348   21.1756 H   0  0  0  0  0  0  0  0  0  0  0  0
    4.8042    1.3104   19.1088 C   0  0  0  0  0  0  0  0  0  0  0  0
    3.8741    1.8433   19.2594 H   0  0  0  0  0  0  0  0  0  0  0  0
  1  2  1  0
  2  3  2  0
  3  4  1  0
  4  5  1  0
  4  6  2  0
  6  7  1  0
  7  8  1  0
  8  9  2  0
  9 10  1  0
 10 11  1  0
 11 12  1  0
 11 13  2  0
 13 14  1  0
 14 15  2  0
 15 16  1  0
 15 17  1  0
 17 18  1  0
 17 19  2  0
 19 20  1  0
 19 21  1  0
 21 22  1  0
 21 23  2  0
 23 24  1  0
 13 25  1  0
 25 26  1  0
  6 27  1  0
 27 28  1  0
 27 29  2  0
 29 30  1  0
 29  2  1  0
 26  7  2  0
 25  9  1  0
 23 14  1  0
M  END
>  <cnnaffinity>  (1) 
-5.72086

>  <filename>  (1) 
Fc1cccc(F)c1-c1csc2nc(-c3cccnc3)nn12

$$$$
