
     RDKit          3D

 30 32  0  0  0  0  0  0  0  0999 V2000
    4.9188    1.7832   16.9957 H   0  0  0  0  0  0  0  0  0  0  0  0
    5.4006    1.2921   17.8394 C   0  0  0  0  0  0  0  0  0  0  0  0
    6.5646    0.6765   17.5775 N   0  0  0  0  0  0  0  0  0  0  0  0
    7.1742    0.0576   18.5955 C   0  0  0  0  0  0  0  0  0  0  0  0
    8.1208   -0.4195   18.3566 H   0  0  0  0  0  0  0  0  0  0  0  0
    6.6711   -0.0020   19.9138 C   0  0  0  0  0  0  0  0  0  0  0  0
    7.3834   -0.7077   21.0004 C   0  0  0  0  0  0  0  0  0  0  0  0
    8.6066   -1.9008   20.7207 S   0  0  0  0  0  0  0  0  0  0  0  0
    8.8190   -2.1791   22.3953 C   0  0  0  0  0  0  0  0  0  0  0  0
    9.5347   -2.9118   22.7273 H   0  0  0  0  0  0  0  0  0  0  0  0
    8.0420   -1.3519   23.1516 C   0  0  0  0  0  0  0  0  0  0  0  0
    8.0575   -1.3390   24.5411 N   0  0  0  0  0  0  0  0  0  0  0  0
    8.3207   -2.2046   24.9780 H   0  0  0  0  0  0  0  0  0  0  0  0
    7.6689   -0.2818   25.3714 C   0  0  0  0  0  0  0  0  0  0  0  0
    7.0346   -0.5498   26.5944 C   0  0  0  0  0  0  0  0  0  0  0  0
    6.8384   -1.5804   26.8759 H   0  0  0  0  0  0  0  0  0  0  0  0
    6.6357    0.4963   27.4344 C   0  0  0  0  0  0  0  0  0  0  0  0
    6.1431    0.3119   28.3835 H   0  0  0  0  0  0  0  0  0  0  0  0
    6.8955    1.8093   27.0471 C   0  0  0  0  0  0  0  0  0  0  0  0
    6.5247    2.8205   27.8504 F   0  0  0  0  0  0  0  0  0  0  0  0
    7.5385    2.1035   25.8489 C   0  0  0  0  0  0  0  0  0  0  0  0
    7.7279    3.1356   25.5783 H   0  0  0  0  0  0  0  0  0  0  0  0
    7.9244    1.0523   25.0145 C   0  0  0  0  0  0  0  0  0  0  0  0
    8.4317    1.2451   24.0744 H   0  0  0  0  0  0  0  0  0  0  0  0
    7.2159   -0.5214   22.3421 C   0  0  0  0  0  0  0  0  0  0  0  0
    6.5362    0.1953   22.7851 H   0  0  0  0  0  0  0  0  0  0  0  0
    5.4489    0.6492   20.1599 C   0  0  0  0  0  0  0  0  0  0  0  0
    5.0066    0.6275   21.1570 H   0  0  0  0  0  0  0  0  0  0  0  0
    4.8080    1.3076   19.1069 C   0  0  0  0  0  0  0  0  0  0  0  0
    3.8762    1.8407   19.2585 H   0  0  0  0  0  0  0  0  0  0  0  0
  1  2  1  0
  2  3  2  0
  3  4  1  0
  4  5  1  0
  4  6  2  0
  6  7  1  0
  7  8  1  0
  8  9  1  0
  9 10  1  0
  9 11  2  0
 11 12  1  0
 12 13  1  0
 12 14  1  0
 14 15  2  0
 15 16  1  0
 15 17  1  0
 17 18  1  0
 17 19  2  0
 19 20  1  0
 19 21  1  0
 21 22  1  0
 21 23  2  0
 23 24  1  0
 11 25  1  0
 25 26  1  0
  6 27  1  0
 27 28  1  0
 27 29  2  0
 29 30  1  0
 29  2  1  0
 25  7  2  0
 23 14  1  0
M  END
>  <cnnaffinity>  (1) 
-5.36816

>  <filename>  (1) 
Fc1ccc(Nc2csc(-c3cccnc3)c2)cc1

$$$$
