
     RDKit          3D

 35 38  0  0  0  0  0  0  0  0999 V2000
    4.9461    1.8206   16.9777 H   0  0  0  0  0  0  0  0  0  0  0  0
    5.4028    1.2947   17.8145 C   0  0  0  0  0  0  0  0  0  0  0  0
    6.5625    0.6677   17.5600 N   0  0  0  0  0  0  0  0  0  0  0  0
    7.1520    0.0179   18.5676 C   0  0  0  0  0  0  0  0  0  0  0  0
    8.1064   -0.4531   18.3321 H   0  0  0  0  0  0  0  0  0  0  0  0
    6.6223   -0.0352   19.8682 C   0  0  0  0  0  0  0  0  0  0  0  0
    7.3551   -0.6966   20.9509 C   0  0  0  0  0  0  0  0  0  0  0  0
    8.0771   -1.7934   20.7319 N   0  0  0  0  0  0  0  0  0  0  0  0
    8.5561   -2.0954   21.9369 N   0  0  0  0  0  0  0  0  0  0  0  0
    8.2307   -1.2606   22.9186 C   0  0  0  0  0  0  0  0  0  0  0  0
    7.4477   -0.2900   22.3215 C   0  0  0  0  0  0  0  0  0  0  0  0
    7.0858    0.9561   22.9684 C   0  0  0  0  0  0  0  0  0  0  0  0
    7.2834    2.1879   22.3212 C   0  0  0  0  0  0  0  0  0  0  0  0
    7.6812    2.1872   21.3059 H   0  0  0  0  0  0  0  0  0  0  0  0
    6.9790    3.3763   22.9759 C   0  0  0  0  0  0  0  0  0  0  0  0
    7.1100    4.3408   22.5028 H   0  0  0  0  0  0  0  0  0  0  0  0
    6.4824    3.3170   24.2769 C   0  0  0  0  0  0  0  0  0  0  0  0
    6.1717    4.4615   24.9075 F   0  0  0  0  0  0  0  0  0  0  0  0
    6.2933    2.1093   24.9446 C   0  0  0  0  0  0  0  0  0  0  0  0
    5.9093    2.1272   25.9563 H   0  0  0  0  0  0  0  0  0  0  0  0
    6.6098    0.9244   24.2866 C   0  0  0  0  0  0  0  0  0  0  0  0
    6.4832   -0.0437   24.7740 H   0  0  0  0  0  0  0  0  0  0  0  0
    9.0707   -1.5057   24.1484 C   0  0  0  0  0  0  0  0  0  0  0  0
    9.6692   -0.6101   24.3579 H   0  0  0  0  0  0  0  0  0  0  0  0
    8.4636   -1.7071   25.0391 H   0  0  0  0  0  0  0  0  0  0  0  0
    9.9416   -2.7246   23.7251 C   0  0  0  0  0  0  0  0  0  0  0  0
    9.7573   -3.5972   24.3506 H   0  0  0  0  0  0  0  0  0  0  0  0
   11.0028   -2.4978   23.7818 H   0  0  0  0  0  0  0  0  0  0  0  0
    9.5676   -3.0581   22.2555 C   0  0  0  0  0  0  0  0  0  0  0  0
    9.1454   -4.0602   22.1478 H   0  0  0  0  0  0  0  0  0  0  0  0
   10.4033   -2.9024   21.5691 H   0  0  0  0  0  0  0  0  0  0  0  0
    5.4094    0.6233   20.1166 C   0  0  0  0  0  0  0  0  0  0  0  0
    4.9959    0.6474   21.1251 H   0  0  0  0  0  0  0  0  0  0  0  0
    4.7890    1.2977   19.0702 C   0  0  0  0  0  0  0  0  0  0  0  0
    3.8648    1.8456   19.2258 H   0  0  0  0  0  0  0  0  0  0  0  0
  1  2  1  0
  2  3  2  0
  3  4  1  0
  4  5  1  0
  4  6  2  0
  6  7  1  0
  7  8  2  0
  8  9  1  0
  9 10  1  0
 10 11  2  0
 11 12  1  0
 12 13  2  0
 13 14  1  0
 13 15  1  0
 15 16  1  0
 15 17  2  0
 17 18  1  0
 17 19  1  0
 19 20  1  0
 19 21  2  0
 21 22  1  0
 10 23  1  0
 23 24  1  0
 23 25  1  0
 23 26  1  0
 26 27  1  0
 26 28  1  0
 26 29  1  0
 29 30  1  0
 29 31  1  0
  6 32  1  0
 32 33  1  0
 32 34  2  0
 34 35  1  0
 34  2  1  0
 11  7  1  0
 21 12  1  0
 29  9  1  0
M  END
>  <cnnaffinity>  (1) 
-5.50301

>  <filename>  (1) 
Fc1ccc(-c2c(-c3cccnc3)nn3c2CCC3)cc1

$$$$
