
     RDKit          3D

 29 31  0  0  0  0  0  0  0  0999 V2000
    8.5070   -1.9141   19.8314 H   0  0  0  0  0  0  0  0  0  0  0  0
    8.2528   -1.6463   20.8392 C   0  0  0  0  0  0  0  0  0  0  0  0
    8.8268   -2.3581   21.8220 N   0  0  0  0  0  0  0  0  0  0  0  0
    8.5865   -1.8954   23.0609 C   0  0  0  0  0  0  0  0  0  0  0  0
    9.0198   -2.4573   23.8756 H   0  0  0  0  0  0  0  0  0  0  0  0
    7.8093   -0.7401   23.3149 C   0  0  0  0  0  0  0  0  0  0  0  0
    7.6759   -0.1981   24.6961 C   0  0  0  0  0  0  0  0  0  0  0  0
    6.5442    0.5583   25.0305 C   0  0  0  0  0  0  0  0  0  0  0  0
    5.7671    0.7372   24.2939 H   0  0  0  0  0  0  0  0  0  0  0  0
    6.4201    1.0582   26.3191 C   0  0  0  0  0  0  0  0  0  0  0  0
    5.3426    1.7933   26.6203 F   0  0  0  0  0  0  0  0  0  0  0  0
    7.3594    0.8133   27.3152 C   0  0  0  0  0  0  0  0  0  0  0  0
    7.2595    1.2424   28.3063 H   0  0  0  0  0  0  0  0  0  0  0  0
    8.4421    0.0103   26.9721 C   0  0  0  0  0  0  0  0  0  0  0  0
    9.2974   -0.3426   27.9407 F   0  0  0  0  0  0  0  0  0  0  0  0
    8.6550   -0.4601   25.6770 C   0  0  0  0  0  0  0  0  0  0  0  0
    9.5876   -0.9664   25.4510 H   0  0  0  0  0  0  0  0  0  0  0  0
    7.1481   -0.1122   22.3173 N   0  0  0  0  0  0  0  0  0  0  0  0
    7.3647   -0.5603   21.0726 C   0  0  0  0  0  0  0  0  0  0  0  0
    6.6219    0.1117   19.9758 C   0  0  0  0  0  0  0  0  0  0  0  0
    7.1637    0.1097   18.6847 C   0  0  0  0  0  0  0  0  0  0  0  0
    8.1241   -0.3751   18.5032 H   0  0  0  0  0  0  0  0  0  0  0  0
    6.5868    0.6784   17.6270 N   0  0  0  0  0  0  0  0  0  0  0  0
    5.4121    1.2933   17.8290 C   0  0  0  0  0  0  0  0  0  0  0  0
    4.9731    1.7739   16.9581 H   0  0  0  0  0  0  0  0  0  0  0  0
    4.7666    1.3407   19.0692 C   0  0  0  0  0  0  0  0  0  0  0  0
    3.8108    1.8491   19.1611 H   0  0  0  0  0  0  0  0  0  0  0  0
    5.3825    0.7465   20.1694 C   0  0  0  0  0  0  0  0  0  0  0  0
    4.9220    0.7697   21.1590 H   0  0  0  0  0  0  0  0  0  0  0  0
  1  2  1  0
  2  3  2  0
  3  4  1  0
  4  5  1  0
  4  6  2  0
  6  7  1  0
  7  8  2  0
  8  9  1  0
  8 10  1  0
 10 11  1  0
 10 12  2  0
 12 13  1  0
 12 14  1  0
 14 15  1  0
 14 16  2  0
 16 17  1  0
  6 18  1  0
 18 19  2  0
 19 20  1  0
 20 21  2  0
 21 22  1  0
 21 23  1  0
 23 24  2  0
 24 25  1  0
 24 26  1  0
 26 27  1  0
 26 28  2  0
 28 29  1  0
 19  2  1  0
 28 20  1  0
 16  7  1  0
M  END
>  <cnnaffinity>  (1) 
-5.24336

>  <filename>  (1) 
Fc1cc(F)cc(-c2cncc(-c3cccnc3)n2)c1

$$$$
