
     RDKit          3D

 30 32  0  0  0  0  0  0  0  0999 V2000
    4.9904    1.7580   16.9796 H   0  0  0  0  0  0  0  0  0  0  0  0
    5.4172    1.2841   17.8566 C   0  0  0  0  0  0  0  0  0  0  0  0
    6.5921    0.6711   17.6592 N   0  0  0  0  0  0  0  0  0  0  0  0
    7.1673    0.1145   18.7230 C   0  0  0  0  0  0  0  0  0  0  0  0
    8.1233   -0.3706   18.5320 H   0  0  0  0  0  0  0  0  0  0  0  0
    6.6200    0.1328   20.0139 C   0  0  0  0  0  0  0  0  0  0  0  0
    7.3682   -0.5440   21.0941 C   0  0  0  0  0  0  0  0  0  0  0  0
    7.1845   -0.1020   22.3399 N   0  0  0  0  0  0  0  0  0  0  0  0
    7.8319   -0.7277   23.3378 C   0  0  0  0  0  0  0  0  0  0  0  0
    7.6917   -0.1439   24.7058 C   0  0  0  0  0  0  0  0  0  0  0  0
    8.6862   -0.3020   25.6893 C   0  0  0  0  0  0  0  0  0  0  0  0
    9.6096   -0.8334   25.4685 H   0  0  0  0  0  0  0  0  0  0  0  0
    8.5207    0.2570   26.9586 C   0  0  0  0  0  0  0  0  0  0  0  0
    9.2569    0.1203   27.7426 H   0  0  0  0  0  0  0  0  0  0  0  0
    7.3743    0.9915   27.2453 C   0  0  0  0  0  0  0  0  0  0  0  0
    7.2106    1.5431   28.4538 F   0  0  0  0  0  0  0  0  0  0  0  0
    6.3811    1.1522   26.2738 C   0  0  0  0  0  0  0  0  0  0  0  0
    5.2721    1.8485   26.5507 F   0  0  0  0  0  0  0  0  0  0  0  0
    6.5360    0.5903   25.0196 C   0  0  0  0  0  0  0  0  0  0  0  0
    5.7657    0.7338   24.2693 H   0  0  0  0  0  0  0  0  0  0  0  0
    8.5814   -1.8996   23.1322 C   0  0  0  0  0  0  0  0  0  0  0  0
    9.0190   -2.4188   23.9737 H   0  0  0  0  0  0  0  0  0  0  0  0
    8.7555   -2.3788   21.8359 C   0  0  0  0  0  0  0  0  0  0  0  0
    9.3135   -3.2939   21.6455 H   0  0  0  0  0  0  0  0  0  0  0  0
    8.1954   -1.6380   20.8043 C   0  0  0  0  0  0  0  0  0  0  0  0
    8.3737   -1.8674   19.7771 H   0  0  0  0  0  0  0  0  0  0  0  0
    5.3763    0.7564   20.2024 C   0  0  0  0  0  0  0  0  0  0  0  0
    4.9034    0.7718   21.1889 H   0  0  0  0  0  0  0  0  0  0  0  0
    4.7658    1.3398   19.0941 C   0  0  0  0  0  0  0  0  0  0  0  0
    3.8123    1.8473   19.1754 H   0  0  0  0  0  0  0  0  0  0  0  0
  1  2  1  0
  2  3  2  0
  3  4  1  0
  4  5  1  0
  4  6  2  0
  6  7  1  0
  7  8  2  0
  8  9  1  0
  9 10  1  0
 10 11  2  0
 11 12  1  0
 11 13  1  0
 13 14  1  0
 13 15  2  0
 15 16  1  0
 15 17  1  0
 17 18  1  0
 17 19  2  0
 19 20  1  0
  9 21  2  0
 21 22  1  0
 21 23  1  0
 23 24  1  0
 23 25  2  0
 25 26  1  0
  6 27  1  0
 27 28  1  0
 27 29  2  0
 29 30  1  0
 29  2  1  0
 25  7  1  0
 19 10  1  0
M  END
>  <cnnaffinity>  (1) 
-4.99496

>  <filename>  (1) 
Fc1ccc(-c2cccc(-c3cccnc3)n2)cc1F

$$$$
