
     RDKit          3D

 29 31  0  0  0  0  0  0  0  0999 V2000
    4.9093    1.7818   16.9965 H   0  0  0  0  0  0  0  0  0  0  0  0
    5.3973    1.2970   17.8382 C   0  0  0  0  0  0  0  0  0  0  0  0
    6.5626    0.6828   17.5739 N   0  0  0  0  0  0  0  0  0  0  0  0
    7.1737    0.0621   18.5904 C   0  0  0  0  0  0  0  0  0  0  0  0
    8.1214   -0.4305   18.3767 H   0  0  0  0  0  0  0  0  0  0  0  0
    6.6652   -0.0089   19.9129 C   0  0  0  0  0  0  0  0  0  0  0  0
    7.3243   -0.7114   20.9278 N   0  0  0  0  0  0  0  0  0  0  0  0
    6.7626   -1.0629   21.6984 H   0  0  0  0  0  0  0  0  0  0  0  0
    8.7115   -0.7716   21.1026 C   0  0  0  0  0  0  0  0  0  0  0  0
    9.6988    0.1408   20.6674 C   0  0  0  0  0  0  0  0  0  0  0  0
    9.5230    1.0211   20.0732 H   0  0  0  0  0  0  0  0  0  0  0  0
   10.9105   -0.1794   21.1044 N   0  0  0  0  0  0  0  0  0  0  0  0
   10.7068   -1.2972   21.8145 N   0  0  0  0  0  0  0  0  0  0  0  0
   11.4962   -1.7534   22.2447 H   0  0  0  0  0  0  0  0  0  0  0  0
    9.4119   -1.7133   21.8363 C   0  0  0  0  0  0  0  0  0  0  0  0
    8.9469   -2.9045   22.5459 C   0  0  0  0  0  0  0  0  0  0  0  0
    7.8826   -3.6763   22.0334 C   0  0  0  0  0  0  0  0  0  0  0  0
    7.4324   -3.3973   21.0846 H   0  0  0  0  0  0  0  0  0  0  0  0
    7.4016   -4.7713   22.6389 N   0  0  0  0  0  0  0  0  0  0  0  0
    7.9619   -5.1324   23.8049 C   0  0  0  0  0  0  0  0  0  0  0  0
    7.5742   -6.0128   24.3029 H   0  0  0  0  0  0  0  0  0  0  0  0
    9.0230   -4.4208   24.3815 C   0  0  0  0  0  0  0  0  0  0  0  0
    9.5542   -4.8324   25.5417 F   0  0  0  0  0  0  0  0  0  0  0  0
    9.5363   -3.2977   23.7601 C   0  0  0  0  0  0  0  0  0  0  0  0
   10.3491   -2.7366   24.2167 H   0  0  0  0  0  0  0  0  0  0  0  0
    5.4442    0.6369   20.1619 C   0  0  0  0  0  0  0  0  0  0  0  0
    5.0175    0.6227   21.1674 H   0  0  0  0  0  0  0  0  0  0  0  0
    4.8109    1.3076   19.1112 C   0  0  0  0  0  0  0  0  0  0  0  0
    3.8772    1.8412   19.2652 H   0  0  0  0  0  0  0  0  0  0  0  0
  1  2  1  0
  2  3  2  0
  3  4  1  0
  4  5  1  0
  4  6  2  0
  6  7  1  0
  7  8  1  0
  7  9  1  0
  9 10  1  0
 10 11  1  0
 10 12  2  0
 12 13  1  0
 13 14  1  0
 13 15  1  0
 15 16  1  0
 16 17  2  0
 17 18  1  0
 17 19  1  0
 19 20  2  0
 20 21  1  0
 20 22  1  0
 22 23  1  0
 22 24  2  0
 24 25  1  0
  6 26  1  0
 26 27  1  0
 26 28  2  0
 28 29  1  0
 28  2  1  0
 15  9  2  0
 24 16  1  0
M  END
>  <cnnaffinity>  (1) 
-5.87059

>  <filename>  (1) 
Fc1cncc(-c2[nH]ncc2Nc2cccnc2)c1

$$$$
