
     RDKit          3D

 35 38  0  0  0  0  0  0  0  0999 V2000
    4.9654    1.8511   16.9511 H   0  0  0  0  0  0  0  0  0  0  0  0
    5.4024    1.2989   17.7821 C   0  0  0  0  0  0  0  0  0  0  0  0
    6.5534    0.6546   17.5308 N   0  0  0  0  0  0  0  0  0  0  0  0
    7.1429    0.0107   18.5438 C   0  0  0  0  0  0  0  0  0  0  0  0
    8.0810   -0.4924   18.3057 H   0  0  0  0  0  0  0  0  0  0  0  0
    6.6286   -0.0189   19.8533 C   0  0  0  0  0  0  0  0  0  0  0  0
    7.3851   -0.6568   20.9402 C   0  0  0  0  0  0  0  0  0  0  0  0
    8.1694   -1.7141   20.7269 N   0  0  0  0  0  0  0  0  0  0  0  0
    8.6403   -2.0068   21.9352 N   0  0  0  0  0  0  0  0  0  0  0  0
    8.2501   -1.1972   22.9188 C   0  0  0  0  0  0  0  0  0  0  0  0
    7.4129   -0.2773   22.3237 C   0  0  0  0  0  0  0  0  0  0  0  0
    6.9600    0.9378   22.9913 C   0  0  0  0  0  0  0  0  0  0  0  0
    7.2626    2.2150   22.4939 C   0  0  0  0  0  0  0  0  0  0  0  0
    7.9933    2.3215   21.3663 F   0  0  0  0  0  0  0  0  0  0  0  0
    6.8901    3.3819   23.1410 C   0  0  0  0  0  0  0  0  0  0  0  0
    7.1816    4.3322   22.7085 H   0  0  0  0  0  0  0  0  0  0  0  0
    6.1829    3.2822   24.3409 C   0  0  0  0  0  0  0  0  0  0  0  0
    5.8783    4.1832   24.8575 H   0  0  0  0  0  0  0  0  0  0  0  0
    5.8753    2.0384   24.8932 C   0  0  0  0  0  0  0  0  0  0  0  0
    5.3397    1.9245   25.8286 H   0  0  0  0  0  0  0  0  0  0  0  0
    6.2891    0.8992   24.2219 C   0  0  0  0  0  0  0  0  0  0  0  0
    6.0335   -0.2964   24.7915 F   0  0  0  0  0  0  0  0  0  0  0  0
    9.0347   -1.4519   24.1686 C   0  0  0  0  0  0  0  0  0  0  0  0
    9.6133   -0.5674   24.4630 H   0  0  0  0  0  0  0  0  0  0  0  0
    8.3749   -1.6819   25.0010 H   0  0  0  0  0  0  0  0  0  0  0  0
    9.9519   -2.6377   23.7598 C   0  0  0  0  0  0  0  0  0  0  0  0
   10.9840   -2.3144   23.7879 H   0  0  0  0  0  0  0  0  0  0  0  0
    9.8381   -3.4978   24.4177 H   0  0  0  0  0  0  0  0  0  0  0  0
    9.6074   -3.0053   22.2916 C   0  0  0  0  0  0  0  0  0  0  0  0
   10.4713   -2.9101   21.6318 H   0  0  0  0  0  0  0  0  0  0  0  0
    9.1530   -3.9901   22.1624 H   0  0  0  0  0  0  0  0  0  0  0  0
    5.3940    0.6121   20.0796 C   0  0  0  0  0  0  0  0  0  0  0  0
    4.9441    0.5923   21.0725 H   0  0  0  0  0  0  0  0  0  0  0  0
    4.7763    1.2898   19.0304 C   0  0  0  0  0  0  0  0  0  0  0  0
    3.8534    1.8388   19.1778 H   0  0  0  0  0  0  0  0  0  0  0  0
  1  2  1  0
  2  3  2  0
  3  4  1  0
  4  5  1  0
  4  6  2  0
  6  7  1  0
  7  8  2  0
  8  9  1  0
  9 10  1  0
 10 11  2  0
 11 12  1  0
 12 13  2  0
 13 14  1  0
 13 15  1  0
 15 16  1  0
 15 17  2  0
 17 18  1  0
 17 19  1  0
 19 20  1  0
 19 21  2  0
 21 22  1  0
 10 23  1  0
 23 24  1  0
 23 25  1  0
 23 26  1  0
 26 27  1  0
 26 28  1  0
 26 29  1  0
 29 30  1  0
 29 31  1  0
  6 32  1  0
 32 33  1  0
 32 34  2  0
 34 35  1  0
 34  2  1  0
 11  7  1  0
 21 12  1  0
 29  9  1  0
M  END
>  <cnnaffinity>  (1) 
-5.68987

>  <filename>  (1) 
Fc1cccc(F)c1-c1c(-c2cccnc2)nn2c1CCC2

$$$$
