
     RDKit          3D

 26 28  0  0  0  0  0  0  0  0999 V2000
    4.9194    1.7774   17.0006 H   0  0  0  0  0  0  0  0  0  0  0  0
    5.4054    1.2894   17.8420 C   0  0  0  0  0  0  0  0  0  0  0  0
    6.5697    0.6741   17.5800 N   0  0  0  0  0  0  0  0  0  0  0  0
    7.1808    0.0576   18.5969 C   0  0  0  0  0  0  0  0  0  0  0  0
    8.1265   -0.4301   18.3737 H   0  0  0  0  0  0  0  0  0  0  0  0
    6.6671    0.0037   19.9051 C   0  0  0  0  0  0  0  0  0  0  0  0
    7.3822   -0.7026   20.9778 C   0  0  0  0  0  0  0  0  0  0  0  0
    8.5590   -1.3823   20.8131 N   0  0  0  0  0  0  0  0  0  0  0  0
    8.9245   -1.8910   21.9416 N   0  0  0  0  0  0  0  0  0  0  0  0
    8.0009   -1.5596   22.8723 N   0  0  0  0  0  0  0  0  0  0  0  0
    8.1028   -1.9657   24.2390 C   0  0  0  0  0  0  0  0  0  0  0  0
    9.2241   -2.6766   24.7057 C   0  0  0  0  0  0  0  0  0  0  0  0
   10.0328   -2.9326   24.0332 H   0  0  0  0  0  0  0  0  0  0  0  0
    9.3562   -3.0765   25.9744 N   0  0  0  0  0  0  0  0  0  0  0  0
    8.3812   -2.7849   26.8457 C   0  0  0  0  0  0  0  0  0  0  0  0
    8.4842   -3.1261   27.8685 H   0  0  0  0  0  0  0  0  0  0  0  0
    7.2424   -2.0790   26.4602 C   0  0  0  0  0  0  0  0  0  0  0  0
    6.2931   -1.8102   27.3663 F   0  0  0  0  0  0  0  0  0  0  0  0
    7.0748   -1.6556   25.1478 C   0  0  0  0  0  0  0  0  0  0  0  0
    6.1668   -1.1172   24.8900 H   0  0  0  0  0  0  0  0  0  0  0  0
    7.0244   -0.8163   22.2945 C   0  0  0  0  0  0  0  0  0  0  0  0
    6.1728   -0.4202   22.8222 H   0  0  0  0  0  0  0  0  0  0  0  0
    5.4432    0.6508   20.1578 C   0  0  0  0  0  0  0  0  0  0  0  0
    4.9952    0.6412   21.1554 H   0  0  0  0  0  0  0  0  0  0  0  0
    4.8083    1.3078   19.1081 C   0  0  0  0  0  0  0  0  0  0  0  0
    3.8754    1.8419   19.2608 H   0  0  0  0  0  0  0  0  0  0  0  0
  1  2  1  0
  2  3  2  0
  3  4  1  0
  4  5  1  0
  4  6  2  0
  6  7  1  0
  7  8  1  0
  8  9  2  0
  9 10  1  0
 10 11  1  0
 11 12  2  0
 12 13  1  0
 12 14  1  0
 14 15  2  0
 15 16  1  0
 15 17  1  0
 17 18  1  0
 17 19  2  0
 19 20  1  0
 10 21  1  0
 21 22  1  0
  6 23  1  0
 23 24  1  0
 23 25  2  0
 25 26  1  0
 25  2  1  0
 21  7  2  0
 19 11  1  0
M  END
>  <cnnaffinity>  (1) 
-4.99292

>  <filename>  (1) 
Fc1cncc(-n2cc(-c3cccnc3)nn2)c1

$$$$
