
     RDKit          3D

 32 34  0  0  0  0  0  0  0  0999 V2000
    9.2592    1.0696   20.6317 H   0  0  0  0  0  0  0  0  0  0  0  0
    9.6117    0.1697   21.1524 C   0  0  0  0  0  0  0  0  0  0  0  0
    8.7210   -0.8016   21.4562 C   0  0  0  0  0  0  0  0  0  0  0  0
    7.2962   -0.8079   21.0484 C   0  0  0  0  0  0  0  0  0  0  0  0
    6.7364   -0.0155   19.9381 C   0  0  0  0  0  0  0  0  0  0  0  0
    7.3674    0.0399   18.6902 C   0  0  0  0  0  0  0  0  0  0  0  0
    8.3304   -0.4505   18.5366 H   0  0  0  0  0  0  0  0  0  0  0  0
    6.8499    0.6697   17.6278 N   0  0  0  0  0  0  0  0  0  0  0  0
    5.6730    1.2914   17.7973 C   0  0  0  0  0  0  0  0  0  0  0  0
    5.2649    1.7886   16.9213 H   0  0  0  0  0  0  0  0  0  0  0  0
    4.9696    1.3112   19.0087 C   0  0  0  0  0  0  0  0  0  0  0  0
    4.0206    1.8341   19.0821 H   0  0  0  0  0  0  0  0  0  0  0  0
    5.5077    0.6388   20.0992 C   0  0  0  0  0  0  0  0  0  0  0  0
    5.0026    0.6064   21.0659 H   0  0  0  0  0  0  0  0  0  0  0  0
    6.5422   -1.5623   21.7609 N   0  0  0  0  0  0  0  0  0  0  0  0
    7.3420   -2.1905   22.8067 C   0  0  0  0  0  0  0  0  0  0  0  0
    7.0758   -3.2469   22.9096 H   0  0  0  0  0  0  0  0  0  0  0  0
    7.0869   -1.7132   23.7578 H   0  0  0  0  0  0  0  0  0  0  0  0
    8.8256   -1.9557   22.4466 C   0  0  0  0  0  0  0  0  0  0  0  0
    9.4540   -1.7399   23.3165 H   0  0  0  0  0  0  0  0  0  0  0  0
    9.2067   -2.8408   21.9344 H   0  0  0  0  0  0  0  0  0  0  0  0
   11.0367    0.2065   21.5462 C   0  0  0  0  0  0  0  0  0  0  0  0
   11.6808    1.4323   21.8309 C   0  0  0  0  0  0  0  0  0  0  0  0
   11.1196    2.3566   21.7309 H   0  0  0  0  0  0  0  0  0  0  0  0
   12.9886    1.4727   22.3282 C   0  0  0  0  0  0  0  0  0  0  0  0
   13.4517    2.4286   22.5526 H   0  0  0  0  0  0  0  0  0  0  0  0
   13.7167    0.2856   22.4858 C   0  0  0  0  0  0  0  0  0  0  0  0
   14.7200    0.3078   22.9016 H   0  0  0  0  0  0  0  0  0  0  0  0
   13.1468   -0.9340   22.1207 C   0  0  0  0  0  0  0  0  0  0  0  0
   13.6749   -1.8830   22.1805 H   0  0  0  0  0  0  0  0  0  0  0  0
   11.8323   -0.9432   21.6704 C   0  0  0  0  0  0  0  0  0  0  0  0
   11.3139   -2.1348   21.3266 F   0  0  0  0  0  0  0  0  0  0  0  0
  1  2  1  0
  2  3  2  3
  3  4  1  0
  4  5  1  0
  5  6  2  0
  6  7  1  0
  6  8  1  0
  8  9  2  0
  9 10  1  0
  9 11  1  0
 11 12  1  0
 11 13  2  0
 13 14  1  0
  4 15  2  0
 15 16  1  0
 16 17  1  0
 16 18  1  0
 16 19  1  0
 19 20  1  0
 19 21  1  0
  2 22  1  0
 22 23  2  0
 23 24  1  0
 23 25  1  0
 25 26  1  0
 25 27  2  0
 27 28  1  0
 27 29  1  0
 29 30  1  0
 29 31  2  0
 31 32  1  0
 19  3  1  0
 31 22  1  0
 13  5  1  0
M  END
>  <cnnaffinity>  (1) 
-5.82101

>  <filename>  (1) 
Fc1ccccc1C=C1CCN=C1c1cccnc1

$$$$
