
     RDKit          3D

 31 34  0  0  0  0  0  0  0  0999 V2000
    4.9510    1.8068   16.9523 H   0  0  0  0  0  0  0  0  0  0  0  0
    5.4088    1.2971   17.8002 C   0  0  0  0  0  0  0  0  0  0  0  0
    6.5577    0.6516   17.5522 N   0  0  0  0  0  0  0  0  0  0  0  0
    7.1465    0.0297   18.5738 C   0  0  0  0  0  0  0  0  0  0  0  0
    8.0720   -0.5004   18.3596 H   0  0  0  0  0  0  0  0  0  0  0  0
    6.6415    0.0339   19.8828 C   0  0  0  0  0  0  0  0  0  0  0  0
    7.4326   -0.6671   20.8940 C   0  0  0  0  0  0  0  0  0  0  0  0
    8.2863   -1.6413   20.6712 N   0  0  0  0  0  0  0  0  0  0  0  0
    8.8084   -2.0630   21.8755 N   0  0  0  0  0  0  0  0  0  0  0  0
    8.2542   -1.3083   22.7861 C   0  0  0  0  0  0  0  0  0  0  0  0
    8.3832   -1.0302   24.5079 S   0  0  0  0  0  0  0  0  0  0  0  0
    7.2848    0.3242   24.2733 C   0  0  0  0  0  0  0  0  0  0  0  0
    6.8765    1.1940   25.2281 N   0  0  0  0  0  0  0  0  0  0  0  0
    6.2872    1.8750   24.7704 H   0  0  0  0  0  0  0  0  0  0  0  0
    6.8079    0.9865   26.6179 C   0  0  0  0  0  0  0  0  0  0  0  0
    6.3132   -0.2064   27.1674 C   0  0  0  0  0  0  0  0  0  0  0  0
    5.9549   -1.0038   26.5189 H   0  0  0  0  0  0  0  0  0  0  0  0
    6.2748   -0.3672   28.5550 C   0  0  0  0  0  0  0  0  0  0  0  0
    5.8869   -1.2773   29.0030 H   0  0  0  0  0  0  0  0  0  0  0  0
    6.7697    0.6414   29.3812 C   0  0  0  0  0  0  0  0  0  0  0  0
    6.7521    0.4583   30.7141 F   0  0  0  0  0  0  0  0  0  0  0  0
    7.2665    1.8327   28.8511 C   0  0  0  0  0  0  0  0  0  0  0  0
    7.6878    2.5836   29.5070 H   0  0  0  0  0  0  0  0  0  0  0  0
    7.2551    2.0091   27.4609 C   0  0  0  0  0  0  0  0  0  0  0  0
    7.5804    2.9357   26.9947 H   0  0  0  0  0  0  0  0  0  0  0  0
    6.8606    0.5585   23.0668 N   0  0  0  0  0  0  0  0  0  0  0  0
    7.3884   -0.4113   22.2448 N   0  0  0  0  0  0  0  0  0  0  0  0
    5.4279    0.6937   20.1343 C   0  0  0  0  0  0  0  0  0  0  0  0
    4.9928    0.7184   21.1349 H   0  0  0  0  0  0  0  0  0  0  0  0
    4.8022    1.3276   19.0607 C   0  0  0  0  0  0  0  0  0  0  0  0
    3.8627    1.8533   19.1829 H   0  0  0  0  0  0  0  0  0  0  0  0
  1  2  1  0
  2  3  2  0
  3  4  1  0
  4  5  1  0
  4  6  2  0
  6  7  1  0
  7  8  2  0
  8  9  1  0
  9 10  2  0
 10 11  1  0
 11 12  1  0
 12 13  1  0
 13 14  1  0
 13 15  1  0
 15 16  2  0
 16 17  1  0
 16 18  1  0
 18 19  1  0
 18 20  2  0
 20 21  1  0
 20 22  1  0
 22 23  1  0
 22 24  2  0
 24 25  1  0
 12 26  2  0
 26 27  1  0
  6 28  1  0
 28 29  1  0
 28 30  2  0
 30 31  1  0
 30  2  1  0
 27  7  1  0
 27 10  1  0
 24 15  1  0
M  END
>  <cnnaffinity>  (1) 
-5.27418

>  <filename>  (1) 
Fc1ccc(Nc2nn3c(-c4cccnc4)nnc3s2)cc1

$$$$
