
     RDKit          3D

 31 33  0  0  0  0  0  0  0  0999 V2000
    5.3216    1.5641   17.0349 H   0  0  0  0  0  0  0  0  0  0  0  0
    5.8190    1.2268   17.9439 C   0  0  0  0  0  0  0  0  0  0  0  0
    7.0248    0.6598   17.7897 N   0  0  0  0  0  0  0  0  0  0  0  0
    7.6287    0.1868   18.8917 C   0  0  0  0  0  0  0  0  0  0  0  0
    8.6083   -0.2608   18.7288 H   0  0  0  0  0  0  0  0  0  0  0  0
    7.0669    0.2121   20.1834 C   0  0  0  0  0  0  0  0  0  0  0  0
    7.5553   -0.6316   21.3185 C   0  0  0  0  0  0  0  0  0  0  0  0
    6.9101   -1.7649   21.7620 C   0  0  0  0  0  0  0  0  0  0  0  0
    6.0214   -2.1929   21.3267 H   0  0  0  0  0  0  0  0  0  0  0  0
    7.6063   -2.1700   22.9152 C   0  0  0  0  0  0  0  0  0  0  0  0
    7.3848   -2.9896   23.5905 H   0  0  0  0  0  0  0  0  0  0  0  0
    8.6166   -1.3577   23.1723 N   0  0  0  0  0  0  0  0  0  0  0  0
    8.5909   -0.4243   22.2004 N   0  0  0  0  0  0  0  0  0  0  0  0
    9.6417    0.5924   22.2436 C   0  0  0  0  0  0  0  0  0  0  0  0
    9.5399    1.1159   23.1976 H   0  0  0  0  0  0  0  0  0  0  0  0
    9.4455    1.3002   21.4388 H   0  0  0  0  0  0  0  0  0  0  0  0
   11.0393    0.0027   22.1415 C   0  0  0  0  0  0  0  0  0  0  0  0
   11.3307   -1.0192   21.2341 C   0  0  0  0  0  0  0  0  0  0  0  0
   10.5246   -1.4114   20.6251 H   0  0  0  0  0  0  0  0  0  0  0  0
   12.6015   -1.5914   21.1606 C   0  0  0  0  0  0  0  0  0  0  0  0
   12.8078   -2.3190   20.3856 H   0  0  0  0  0  0  0  0  0  0  0  0
   13.5910   -1.2027   22.0657 C   0  0  0  0  0  0  0  0  0  0  0  0
   14.5490   -1.7150   22.0579 H   0  0  0  0  0  0  0  0  0  0  0  0
   13.3305   -0.1895   22.9938 C   0  0  0  0  0  0  0  0  0  0  0  0
   14.0732    0.1257   23.7200 H   0  0  0  0  0  0  0  0  0  0  0  0
   12.0713    0.4090   22.9948 C   0  0  0  0  0  0  0  0  0  0  0  0
   11.8425    1.4080   23.8710 F   0  0  0  0  0  0  0  0  0  0  0  0
    5.8338    0.8788   20.3197 C   0  0  0  0  0  0  0  0  0  0  0  0
    5.3859    0.9924   21.3074 H   0  0  0  0  0  0  0  0  0  0  0  0
    5.1973    1.3808   19.1859 C   0  0  0  0  0  0  0  0  0  0  0  0
    4.2329    1.8717   19.2522 H   0  0  0  0  0  0  0  0  0  0  0  0
  1  2  1  0
  2  3  2  0
  3  4  1  0
  4  5  1  0
  4  6  2  0
  6  7  1  0
  7  8  2  0
  8  9  1  0
  8 10  1  0
 10 11  1  0
 10 12  2  0
 12 13  1  0
 13 14  1  0
 14 15  1  0
 14 16  1  0
 14 17  1  0
 17 18  2  0
 18 19  1  0
 18 20  1  0
 20 21  1  0
 20 22  2  0
 22 23  1  0
 22 24  1  0
 24 25  1  0
 24 26  2  0
 26 27  1  0
  6 28  1  0
 28 29  1  0
 28 30  2  0
 30 31  1  0
 30  2  1  0
 13  7  1  0
 26 17  1  0
M  END
>  <cnnaffinity>  (1) 
-5.37481

>  <filename>  (1) 
Fc1ccccc1Cn1nccc1-c1cccnc1

$$$$
