
     RDKit          3D

 30 32  0  0  0  0  0  0  0  0999 V2000
    4.9117    1.7849   16.9950 H   0  0  0  0  0  0  0  0  0  0  0  0
    5.3963    1.2975   17.8377 C   0  0  0  0  0  0  0  0  0  0  0  0
    6.5607    0.6831   17.5720 N   0  0  0  0  0  0  0  0  0  0  0  0
    7.1723    0.0610   18.5897 C   0  0  0  0  0  0  0  0  0  0  0  0
    8.1198   -0.4293   18.3740 H   0  0  0  0  0  0  0  0  0  0  0  0
    6.6646   -0.0107   19.9115 C   0  0  0  0  0  0  0  0  0  0  0  0
    7.3231   -0.7189   20.9251 N   0  0  0  0  0  0  0  0  0  0  0  0
    6.7702   -1.0682   21.6982 H   0  0  0  0  0  0  0  0  0  0  0  0
    8.7096   -0.7674   21.1052 C   0  0  0  0  0  0  0  0  0  0  0  0
    9.6980    0.1426   20.6705 C   0  0  0  0  0  0  0  0  0  0  0  0
    9.5308    1.0212   20.0717 H   0  0  0  0  0  0  0  0  0  0  0  0
   10.9086   -0.1825   21.1042 N   0  0  0  0  0  0  0  0  0  0  0  0
   10.7074   -1.3002   21.8127 N   0  0  0  0  0  0  0  0  0  0  0  0
   11.5003   -1.7541   22.2373 H   0  0  0  0  0  0  0  0  0  0  0  0
    9.4107   -1.7119   21.8378 C   0  0  0  0  0  0  0  0  0  0  0  0
    8.9387   -2.9022   22.5333 C   0  0  0  0  0  0  0  0  0  0  0  0
    9.5137   -3.2946   23.7519 C   0  0  0  0  0  0  0  0  0  0  0  0
   10.3185   -2.7150   24.1917 H   0  0  0  0  0  0  0  0  0  0  0  0
    9.0378   -4.4138   24.4230 C   0  0  0  0  0  0  0  0  0  0  0  0
    9.4548   -4.7501   25.3678 H   0  0  0  0  0  0  0  0  0  0  0  0
    7.9873   -5.1318   23.8690 C   0  0  0  0  0  0  0  0  0  0  0  0
    7.5150   -6.1720   24.5434 F   0  0  0  0  0  0  0  0  0  0  0  0
    7.4116   -4.7652   22.6471 C   0  0  0  0  0  0  0  0  0  0  0  0
    6.4083   -5.4876   22.1310 F   0  0  0  0  0  0  0  0  0  0  0  0
    7.8797   -3.6449   21.9789 C   0  0  0  0  0  0  0  0  0  0  0  0
    7.4355   -3.3681   21.0293 H   0  0  0  0  0  0  0  0  0  0  0  0
    5.4439    0.6344   20.1630 C   0  0  0  0  0  0  0  0  0  0  0  0
    5.0196    0.6214   21.1683 H   0  0  0  0  0  0  0  0  0  0  0  0
    4.8115    1.3067   19.1096 C   0  0  0  0  0  0  0  0  0  0  0  0
    3.8799    1.8391   19.2640 H   0  0  0  0  0  0  0  0  0  0  0  0
  1  2  1  0
  2  3  2  0
  3  4  1  0
  4  5  1  0
  4  6  2  0
  6  7  1  0
  7  8  1  0
  7  9  1  0
  9 10  1  0
 10 11  1  0
 10 12  2  0
 12 13  1  0
 13 14  1  0
 13 15  1  0
 15 16  1  0
 16 17  2  0
 17 18  1  0
 17 19  1  0
 19 20  1  0
 19 21  2  0
 21 22  1  0
 21 23  1  0
 23 24  1  0
 23 25  2  0
 25 26  1  0
  6 27  1  0
 27 28  1  0
 27 29  2  0
 29 30  1  0
 29  2  1  0
 15  9  2  0
 25 16  1  0
M  END
>  <cnnaffinity>  (1) 
-5.7418

>  <filename>  (1) 
Fc1ccc(-c2[nH]ncc2Nc2cccnc2)cc1F

$$$$
