
     RDKit          3D

 31 33  0  0  0  0  0  0  0  0999 V2000
    4.9348    1.7939   17.0029 H   0  0  0  0  0  0  0  0  0  0  0  0
    5.4003    1.2863   17.8429 C   0  0  0  0  0  0  0  0  0  0  0  0
    6.5556    0.6572   17.5773 N   0  0  0  0  0  0  0  0  0  0  0  0
    7.1754    0.0381   18.5888 C   0  0  0  0  0  0  0  0  0  0  0  0
    8.1291   -0.4337   18.3622 H   0  0  0  0  0  0  0  0  0  0  0  0
    6.6561   -0.0115   19.9003 C   0  0  0  0  0  0  0  0  0  0  0  0
    7.3312   -0.6942   20.9527 N   0  0  0  0  0  0  0  0  0  0  0  0
    6.7042   -1.5918   21.8187 C   0  0  0  0  0  0  0  0  0  0  0  0
    5.6582   -1.8296   21.7760 H   0  0  0  0  0  0  0  0  0  0  0  0
    7.6326   -2.0333   22.6908 C   0  0  0  0  0  0  0  0  0  0  0  0
    7.6029   -2.9455   23.7155 N   0  0  0  0  0  0  0  0  0  0  0  0
    8.2098   -2.7630   24.4926 H   0  0  0  0  0  0  0  0  0  0  0  0
    6.4908   -3.7759   23.9470 C   0  0  0  0  0  0  0  0  0  0  0  0
    5.9918   -3.9891   25.2408 C   0  0  0  0  0  0  0  0  0  0  0  0
    6.4463   -3.4684   26.0817 H   0  0  0  0  0  0  0  0  0  0  0  0
    4.8986   -4.8489   25.4461 C   0  0  0  0  0  0  0  0  0  0  0  0
    4.4855   -5.0470   26.4331 H   0  0  0  0  0  0  0  0  0  0  0  0
    4.3310   -5.4881   24.3448 C   0  0  0  0  0  0  0  0  0  0  0  0
    3.2939   -6.3251   24.5289 F   0  0  0  0  0  0  0  0  0  0  0  0
    4.8102   -5.2946   23.0510 C   0  0  0  0  0  0  0  0  0  0  0  0
    4.3321   -5.8234   22.2313 H   0  0  0  0  0  0  0  0  0  0  0  0
    5.8918   -4.4284   22.8600 C   0  0  0  0  0  0  0  0  0  0  0  0
    6.3092   -4.2259   21.8769 H   0  0  0  0  0  0  0  0  0  0  0  0
    8.8004   -1.3860   22.3862 N   0  0  0  0  0  0  0  0  0  0  0  0
    9.7078   -1.4713   22.8083 H   0  0  0  0  0  0  0  0  0  0  0  0
    8.6450   -0.5283   21.3457 C   0  0  0  0  0  0  0  0  0  0  0  0
    9.8298    0.4916   20.8055 S   0  0  0  0  0  0  0  0  0  0  0  0
    5.4465    0.6354   20.1640 C   0  0  0  0  0  0  0  0  0  0  0  0
    5.0384    0.6273   21.1762 H   0  0  0  0  0  0  0  0  0  0  0  0
    4.8142    1.3025   19.1126 C   0  0  0  0  0  0  0  0  0  0  0  0
    3.8861    1.8346   19.2671 H   0  0  0  0  0  0  0  0  0  0  0  0
  1  2  1  0
  2  3  2  0
  3  4  1  0
  4  5  1  0
  4  6  2  0
  6  7  1  0
  7  8  1  0
  8  9  1  0
  8 10  2  0
 10 11  1  0
 11 12  1  0
 11 13  1  0
 13 14  2  0
 14 15  1  0
 14 16  1  0
 16 17  1  0
 16 18  2  0
 18 19  1  0
 18 20  1  0
 20 21  1  0
 20 22  2  0
 22 23  1  0
 10 24  1  0
 24 25  1  0
 24 26  1  0
 26 27  2  0
  6 28  1  0
 28 29  1  0
 28 30  2  0
 30 31  1  0
 30  2  1  0
 26  7  1  0
 22 13  1  0
M  END
>  <cnnaffinity>  (1) 
-5.3717

>  <filename>  (1) 
Fc1ccc(Nc2cn(-c3cccnc3)c(=S)[nH]2)cc1

$$$$
