
     RDKit          3D

 33 36  0  0  0  0  0  0  0  0999 V2000
    4.9534    1.8451   16.9431 H   0  0  0  0  0  0  0  0  0  0  0  0
    5.4031    1.3064   17.7717 C   0  0  0  0  0  0  0  0  0  0  0  0
    6.5542    0.6692   17.5107 N   0  0  0  0  0  0  0  0  0  0  0  0
    7.1437    0.0092   18.5119 C   0  0  0  0  0  0  0  0  0  0  0  0
    8.0984   -0.4594   18.2744 H   0  0  0  0  0  0  0  0  0  0  0  0
    6.6156   -0.0540   19.8144 C   0  0  0  0  0  0  0  0  0  0  0  0
    7.3708   -0.6668   20.9195 C   0  0  0  0  0  0  0  0  0  0  0  0
    8.5068   -1.3617   20.7247 N   0  0  0  0  0  0  0  0  0  0  0  0
    8.9070   -1.6359   21.9907 N   0  0  0  0  0  0  0  0  0  0  0  0
   10.0824   -2.1164   22.5575 C   0  0  0  0  0  0  0  0  0  0  0  0
   10.8708   -2.4876   21.9264 H   0  0  0  0  0  0  0  0  0  0  0  0
    9.9795   -1.8927   23.8930 C   0  0  0  0  0  0  0  0  0  0  0  0
   10.6562   -1.9918   24.7292 H   0  0  0  0  0  0  0  0  0  0  0  0
    8.7261   -1.3548   24.1343 N   0  0  0  0  0  0  0  0  0  0  0  0
    8.4800   -0.7014   25.3056 O   0  0  0  0  0  0  0  0  0  0  0  0
    7.1298   -0.6061   25.6855 C   0  0  0  0  0  0  0  0  0  0  0  0
    6.8449    0.5310   26.4383 C   0  0  0  0  0  0  0  0  0  0  0  0
    7.6639    1.2279   26.5882 H   0  0  0  0  0  0  0  0  0  0  0  0
    5.5499    0.7403   26.9163 C   0  0  0  0  0  0  0  0  0  0  0  0
    5.2918    1.6176   27.5042 H   0  0  0  0  0  0  0  0  0  0  0  0
    4.5667   -0.2067   26.6233 C   0  0  0  0  0  0  0  0  0  0  0  0
    3.3184   -0.0131   27.0799 F   0  0  0  0  0  0  0  0  0  0  0  0
    4.8403   -1.3480   25.8669 C   0  0  0  0  0  0  0  0  0  0  0  0
    4.0312   -2.0437   25.6551 H   0  0  0  0  0  0  0  0  0  0  0  0
    6.1402   -1.5480   25.3843 C   0  0  0  0  0  0  0  0  0  0  0  0
    6.3904   -2.3987   24.7538 H   0  0  0  0  0  0  0  0  0  0  0  0
    8.0976   -1.1240   22.9343 C   0  0  0  0  0  0  0  0  0  0  0  0
    7.0383   -0.5045   22.2863 C   0  0  0  0  0  0  0  0  0  0  0  0
    6.1961   -0.0056   22.7383 H   0  0  0  0  0  0  0  0  0  0  0  0
    5.4028    0.6151   20.0620 C   0  0  0  0  0  0  0  0  0  0  0  0
    4.9663    0.6405   21.0606 H   0  0  0  0  0  0  0  0  0  0  0  0
    4.7875    1.3042   19.0250 C   0  0  0  0  0  0  0  0  0  0  0  0
    3.8694    1.8594   19.1874 H   0  0  0  0  0  0  0  0  0  0  0  0
  1  2  1  0
  2  3  2  0
  3  4  1  0
  4  5  1  0
  4  6  2  0
  6  7  1  0
  7  8  2  0
  8  9  1  0
  9 10  1  0
 10 11  1  0
 10 12  2  0
 12 13  1  0
 12 14  1  0
 14 15  1  0
 15 16  1  0
 16 17  2  0
 17 18  1  0
 17 19  1  0
 19 20  1  0
 19 21  2  0
 21 22  1  0
 21 23  1  0
 23 24  1  0
 23 25  2  0
 25 26  1  0
 14 27  1  0
 27 28  2  0
 28 29  1  0
  6 30  1  0
 30 31  1  0
 30 32  2  0
 32 33  1  0
 32  2  1  0
 28  7  1  0
 27  9  1  0
 25 16  1  0
M  END
>  <cnnaffinity>  (1) 
-5.60073

>  <filename>  (1) 
Fc1ccc(On2ccn3nc(-c4cccnc4)cc23)cc1

$$$$
