
     RDKit          3D

 27 29  0  0  0  0  0  0  0  0999 V2000
    4.9140    1.7856   16.9979 H   0  0  0  0  0  0  0  0  0  0  0  0
    5.3992    1.2917   17.8406 C   0  0  0  0  0  0  0  0  0  0  0  0
    6.5537    0.6677   17.5734 N   0  0  0  0  0  0  0  0  0  0  0  0
    7.1888    0.0602   18.5827 C   0  0  0  0  0  0  0  0  0  0  0  0
    8.1356   -0.4197   18.3558 H   0  0  0  0  0  0  0  0  0  0  0  0
    6.6927    0.0233   19.9019 C   0  0  0  0  0  0  0  0  0  0  0  0
    7.2940   -0.6924   20.9515 O   0  0  0  0  0  0  0  0  0  0  0  0
    8.6290   -0.7801   21.0848 C   0  0  0  0  0  0  0  0  0  0  0  0
    9.5509   -0.0869   20.4641 N   0  0  0  0  0  0  0  0  0  0  0  0
   10.7237   -0.5303   20.9768 N   0  0  0  0  0  0  0  0  0  0  0  0
   10.5474   -1.4468   21.8420 N   0  0  0  0  0  0  0  0  0  0  0  0
    9.2028   -1.6493   21.9411 N   0  0  0  0  0  0  0  0  0  0  0  0
    8.6516   -2.6277   22.8248 C   0  0  0  0  0  0  0  0  0  0  0  0
    9.3305   -2.9746   23.9999 C   0  0  0  0  0  0  0  0  0  0  0  0
   10.2953   -2.5284   24.2210 H   0  0  0  0  0  0  0  0  0  0  0  0
    8.7713   -3.9078   24.8774 C   0  0  0  0  0  0  0  0  0  0  0  0
    9.2666   -4.2085   25.7941 H   0  0  0  0  0  0  0  0  0  0  0  0
    7.5433   -4.4888   24.5785 C   0  0  0  0  0  0  0  0  0  0  0  0
    6.9959   -5.3825   25.4124 F   0  0  0  0  0  0  0  0  0  0  0  0
    6.8800   -4.1426   23.3977 C   0  0  0  0  0  0  0  0  0  0  0  0
    5.7002   -4.7016   23.1128 F   0  0  0  0  0  0  0  0  0  0  0  0
    7.4229   -3.2221   22.5122 C   0  0  0  0  0  0  0  0  0  0  0  0
    6.8698   -2.9812   21.6145 H   0  0  0  0  0  0  0  0  0  0  0  0
    5.4704    0.6404   20.1737 C   0  0  0  0  0  0  0  0  0  0  0  0
    5.0398    0.6087   21.1780 H   0  0  0  0  0  0  0  0  0  0  0  0
    4.8239    1.2987   19.1180 C   0  0  0  0  0  0  0  0  0  0  0  0
    3.8899    1.8292   19.2683 H   0  0  0  0  0  0  0  0  0  0  0  0
  1  2  1  0
  2  3  2  0
  3  4  1  0
  4  5  1  0
  4  6  2  0
  6  7  1  0
  7  8  1  0
  8  9  2  0
  9 10  1  0
 10 11  2  0
 11 12  1  0
 12 13  1  0
 13 14  2  0
 14 15  1  0
 14 16  1  0
 16 17  1  0
 16 18  2  0
 18 19  1  0
 18 20  1  0
 20 21  1  0
 20 22  2  0
 22 23  1  0
  6 24  1  0
 24 25  1  0
 24 26  2  0
 26 27  1  0
 26  2  1  0
 12  8  1  0
 22 13  1  0
M  END
>  <cnnaffinity>  (1) 
-5.43143

>  <filename>  (1) 
Fc1ccc(-n2nnnc2Oc2cccnc2)cc1F

$$$$
