
     RDKit          3D

 27 29  0  0  0  0  0  0  0  0999 V2000
    4.9130    1.7829   16.9994 H   0  0  0  0  0  0  0  0  0  0  0  0
    5.3994    1.2913   17.8427 C   0  0  0  0  0  0  0  0  0  0  0  0
    6.5555    0.6688   17.5759 N   0  0  0  0  0  0  0  0  0  0  0  0
    7.1890    0.0594   18.5842 C   0  0  0  0  0  0  0  0  0  0  0  0
    8.1373   -0.4230   18.3565 H   0  0  0  0  0  0  0  0  0  0  0  0
    6.6933    0.0275   19.9027 C   0  0  0  0  0  0  0  0  0  0  0  0
    7.2991   -0.6557   20.9621 O   0  0  0  0  0  0  0  0  0  0  0  0
    8.6324   -0.7652   21.0579 C   0  0  0  0  0  0  0  0  0  0  0  0
    9.5639   -0.0819   20.4430 N   0  0  0  0  0  0  0  0  0  0  0  0
   10.7311   -0.5325   20.9686 N   0  0  0  0  0  0  0  0  0  0  0  0
   10.5446   -1.4407   21.8374 N   0  0  0  0  0  0  0  0  0  0  0  0
    9.2001   -1.6309   21.9307 N   0  0  0  0  0  0  0  0  0  0  0  0
    8.6393   -2.6029   22.8091 C   0  0  0  0  0  0  0  0  0  0  0  0
    7.5837   -3.4303   22.4152 C   0  0  0  0  0  0  0  0  0  0  0  0
    7.1319   -3.3585   21.1587 F   0  0  0  0  0  0  0  0  0  0  0  0
    6.9812   -4.3383   23.2788 C   0  0  0  0  0  0  0  0  0  0  0  0
    6.1516   -4.9318   22.9139 H   0  0  0  0  0  0  0  0  0  0  0  0
    7.4632   -4.4526   24.5812 C   0  0  0  0  0  0  0  0  0  0  0  0
    7.0064   -5.1625   25.2634 H   0  0  0  0  0  0  0  0  0  0  0  0
    8.5344   -3.6680   25.0109 C   0  0  0  0  0  0  0  0  0  0  0  0
    8.9375   -3.7472   26.0136 H   0  0  0  0  0  0  0  0  0  0  0  0
    9.1061   -2.7609   24.1230 C   0  0  0  0  0  0  0  0  0  0  0  0
   10.1275   -2.0163   24.5439 F   0  0  0  0  0  0  0  0  0  0  0  0
    5.4659    0.6416   20.1722 C   0  0  0  0  0  0  0  0  0  0  0  0
    5.0385    0.6088   21.1757 H   0  0  0  0  0  0  0  0  0  0  0  0
    4.8214    1.2996   19.1167 C   0  0  0  0  0  0  0  0  0  0  0  0
    3.8877    1.8311   19.2683 H   0  0  0  0  0  0  0  0  0  0  0  0
  1  2  1  0
  2  3  2  0
  3  4  1  0
  4  5  1  0
  4  6  2  0
  6  7  1  0
  7  8  1  0
  8  9  2  0
  9 10  1  0
 10 11  2  0
 11 12  1  0
 12 13  1  0
 13 14  2  0
 14 15  1  0
 14 16  1  0
 16 17  1  0
 16 18  2  0
 18 19  1  0
 18 20  1  0
 20 21  1  0
 20 22  2  0
 22 23  1  0
  6 24  1  0
 24 25  1  0
 24 26  2  0
 26 27  1  0
 26  2  1  0
 12  8  1  0
 22 13  1  0
M  END
>  <cnnaffinity>  (1) 
-5.59757

>  <filename>  (1) 
Fc1cccc(F)c1-n1nnnc1Oc1cccnc1

$$$$
