
     RDKit          3D

 31 34  0  0  0  0  0  0  0  0999 V2000
    4.9632    1.8086   16.9748 H   0  0  0  0  0  0  0  0  0  0  0  0
    5.4040    1.2885   17.8224 C   0  0  0  0  0  0  0  0  0  0  0  0
    6.5589    0.6508   17.5793 N   0  0  0  0  0  0  0  0  0  0  0  0
    7.1496    0.0233   18.5998 C   0  0  0  0  0  0  0  0  0  0  0  0
    8.0959   -0.4616   18.3660 H   0  0  0  0  0  0  0  0  0  0  0  0
    6.6391    0.0032   19.9070 C   0  0  0  0  0  0  0  0  0  0  0  0
    7.3947   -0.6663   20.9657 C   0  0  0  0  0  0  0  0  0  0  0  0
    8.0596   -1.8473   20.7428 N   0  0  0  0  0  0  0  0  0  0  0  0
    8.4624   -2.2084   21.9322 C   0  0  0  0  0  0  0  0  0  0  0  0
    9.3247   -3.5499   22.6223 S   0  0  0  0  0  0  0  0  0  0  0  0
    9.4239   -2.7327   24.1674 C   0  0  0  0  0  0  0  0  0  0  0  0
   10.0068   -3.2032   24.9471 H   0  0  0  0  0  0  0  0  0  0  0  0
    8.7419   -1.5715   24.1626 C   0  0  0  0  0  0  0  0  0  0  0  0
    8.5913   -0.8388   24.9502 H   0  0  0  0  0  0  0  0  0  0  0  0
    8.1660   -1.3146   22.9217 N   0  0  0  0  0  0  0  0  0  0  0  0
    7.4933   -0.2792   22.2999 C   0  0  0  0  0  0  0  0  0  0  0  0
    7.0954    0.9409   22.9818 C   0  0  0  0  0  0  0  0  0  0  0  0
    7.3114    2.1799   22.3552 C   0  0  0  0  0  0  0  0  0  0  0  0
    7.7463    2.2467   21.3657 H   0  0  0  0  0  0  0  0  0  0  0  0
    6.9050    3.3364   23.0016 C   0  0  0  0  0  0  0  0  0  0  0  0
    7.1081    4.5179   22.4028 F   0  0  0  0  0  0  0  0  0  0  0  0
    6.2846    3.3160   24.2461 C   0  0  0  0  0  0  0  0  0  0  0  0
    5.9756    4.2310   24.7309 H   0  0  0  0  0  0  0  0  0  0  0  0
    6.0730    2.0731   24.8365 C   0  0  0  0  0  0  0  0  0  0  0  0
    5.4777    2.0279   26.0369 F   0  0  0  0  0  0  0  0  0  0  0  0
    6.4597    0.8873   24.2340 C   0  0  0  0  0  0  0  0  0  0  0  0
    6.2396   -0.0610   24.7089 H   0  0  0  0  0  0  0  0  0  0  0  0
    5.4112    0.6534   20.1418 C   0  0  0  0  0  0  0  0  0  0  0  0
    4.9763    0.6765   21.1445 H   0  0  0  0  0  0  0  0  0  0  0  0
    4.7904    1.3052   19.0791 C   0  0  0  0  0  0  0  0  0  0  0  0
    3.8607    1.8482   19.2125 H   0  0  0  0  0  0  0  0  0  0  0  0
  1  2  1  0
  2  3  2  0
  3  4  1  0
  4  5  1  0
  4  6  2  0
  6  7  1  0
  7  8  1  0
  8  9  2  0
  9 10  1  0
 10 11  1  0
 11 12  1  0
 11 13  2  0
 13 14  1  0
 13 15  1  0
 15 16  1  0
 16 17  1  0
 17 18  2  0
 18 19  1  0
 18 20  1  0
 20 21  1  0
 20 22  2  0
 22 23  1  0
 22 24  1  0
 24 25  1  0
 24 26  2  0
 26 27  1  0
  6 28  1  0
 28 29  1  0
 28 30  2  0
 30 31  1  0
 30  2  1  0
 16  7  2  0
 26 17  1  0
 15  9  1  0
M  END
>  <cnnaffinity>  (1) 
-5.83606

>  <filename>  (1) 
Fc1cc(F)cc(-c2c(-c3cccnc3)nc3sccn23)c1

$$$$
