
     RDKit          3D

 28 30  0  0  0  0  0  0  0  0999 V2000
    4.9245    1.7785   16.9987 H   0  0  0  0  0  0  0  0  0  0  0  0
    5.4068    1.2877   17.8434 C   0  0  0  0  0  0  0  0  0  0  0  0
    6.5702    0.6646   17.5906 N   0  0  0  0  0  0  0  0  0  0  0  0
    7.1877    0.0560   18.6040 C   0  0  0  0  0  0  0  0  0  0  0  0
    8.1309   -0.4294   18.3760 H   0  0  0  0  0  0  0  0  0  0  0  0
    6.6715    0.0113   19.9067 C   0  0  0  0  0  0  0  0  0  0  0  0
    7.3788   -0.6750   20.9234 N   0  0  0  0  0  0  0  0  0  0  0  0
    8.6986   -0.9415   20.8197 N   0  0  0  0  0  0  0  0  0  0  0  0
    9.0045   -1.5755   21.9377 C   0  0  0  0  0  0  0  0  0  0  0  0
   10.0048   -1.9197   22.1423 H   0  0  0  0  0  0  0  0  0  0  0  0
    7.8779   -1.7602   22.7758 C   0  0  0  0  0  0  0  0  0  0  0  0
    7.7853   -2.4367   24.0835 C   0  0  0  0  0  0  0  0  0  0  0  0
    6.6606   -3.1849   24.4796 C   0  0  0  0  0  0  0  0  0  0  0  0
    5.6254   -3.3018   23.6259 F   0  0  0  0  0  0  0  0  0  0  0  0
    6.5491   -3.8260   25.7046 C   0  0  0  0  0  0  0  0  0  0  0  0
    5.6394   -4.3752   25.9273 H   0  0  0  0  0  0  0  0  0  0  0  0
    7.6137   -3.7349   26.6015 C   0  0  0  0  0  0  0  0  0  0  0  0
    7.5497   -4.2299   27.5591 H   0  0  0  0  0  0  0  0  0  0  0  0
    8.7612   -3.0130   26.2734 C   0  0  0  0  0  0  0  0  0  0  0  0
    9.6088   -2.9259   26.9437 H   0  0  0  0  0  0  0  0  0  0  0  0
    8.8153   -2.3843   25.0386 C   0  0  0  0  0  0  0  0  0  0  0  0
    9.9268   -1.6863   24.7429 F   0  0  0  0  0  0  0  0  0  0  0  0
    6.8603   -1.1699   22.0728 C   0  0  0  0  0  0  0  0  0  0  0  0
    5.8210   -1.0889   22.3153 H   0  0  0  0  0  0  0  0  0  0  0  0
    5.4459    0.6456   20.1702 C   0  0  0  0  0  0  0  0  0  0  0  0
    5.0059    0.6470   21.1698 H   0  0  0  0  0  0  0  0  0  0  0  0
    4.8170    1.3029   19.1110 C   0  0  0  0  0  0  0  0  0  0  0  0
    3.8835    1.8347   19.2649 H   0  0  0  0  0  0  0  0  0  0  0  0
  1  2  1  0
  2  3  2  0
  3  4  1  0
  4  5  1  0
  4  6  2  0
  6  7  1  0
  7  8  1  0
  8  9  2  0
  9 10  1  0
  9 11  1  0
 11 12  1  0
 12 13  2  0
 13 14  1  0
 13 15  1  0
 15 16  1  0
 15 17  2  0
 17 18  1  0
 17 19  1  0
 19 20  1  0
 19 21  2  0
 21 22  1  0
 11 23  2  0
 23 24  1  0
  6 25  1  0
 25 26  1  0
 25 27  2  0
 27 28  1  0
 27  2  1  0
 23  7  1  0
 21 12  1  0
M  END
>  <cnnaffinity>  (1) 
-5.41577

>  <filename>  (1) 
Fc1cccc(F)c1-c1cnn(-c2cccnc2)c1

$$$$
