
     RDKit          3D

 33 35  0  0  0  0  0  0  0  0999 V2000
    4.9294    1.8203   16.9548 H   0  0  0  0  0  0  0  0  0  0  0  0
    5.3990    1.3175   17.7966 C   0  0  0  0  0  0  0  0  0  0  0  0
    6.5628    0.6976   17.5378 N   0  0  0  0  0  0  0  0  0  0  0  0
    7.1615    0.0662   18.5556 C   0  0  0  0  0  0  0  0  0  0  0  0
    8.1137   -0.4042   18.3112 H   0  0  0  0  0  0  0  0  0  0  0  0
    6.6508    0.0119   19.8710 C   0  0  0  0  0  0  0  0  0  0  0  0
    7.3596   -0.6639   20.9771 C   0  0  0  0  0  0  0  0  0  0  0  0
    7.5666   -0.2851   22.2996 C   0  0  0  0  0  0  0  0  0  0  0  0
    7.0276    0.8794   22.8947 N   0  0  0  0  0  0  0  0  0  0  0  0
    7.0413    1.6370   22.2185 H   0  0  0  0  0  0  0  0  0  0  0  0
    7.4425    1.3071   24.2332 C   0  0  0  0  0  0  0  0  0  0  0  0
    7.1415    0.5327   24.9500 H   0  0  0  0  0  0  0  0  0  0  0  0
    6.8264    2.1784   24.4804 H   0  0  0  0  0  0  0  0  0  0  0  0
    8.9311    1.5910   24.4099 C   0  0  0  0  0  0  0  0  0  0  0  0
    9.7001    0.8026   25.2856 C   0  0  0  0  0  0  0  0  0  0  0  0
    9.2061    0.1735   26.0245 H   0  0  0  0  0  0  0  0  0  0  0  0
   11.0939    0.8292   25.2362 C   0  0  0  0  0  0  0  0  0  0  0  0
   11.6982    0.1933   25.8690 H   0  0  0  0  0  0  0  0  0  0  0  0
   11.7161    1.7214   24.3656 C   0  0  0  0  0  0  0  0  0  0  0  0
   13.0587    1.6853   24.2689 F   0  0  0  0  0  0  0  0  0  0  0  0
   10.9928    2.6366   23.6072 C   0  0  0  0  0  0  0  0  0  0  0  0
   11.5132    3.3917   23.0240 H   0  0  0  0  0  0  0  0  0  0  0  0
    9.5945    2.5722   23.6530 C   0  0  0  0  0  0  0  0  0  0  0  0
    9.0135    3.3216   23.1219 H   0  0  0  0  0  0  0  0  0  0  0  0
    8.3171   -1.3600   22.8571 C   0  0  0  0  0  0  0  0  0  0  0  0
    8.7001   -1.4515   23.8637 H   0  0  0  0  0  0  0  0  0  0  0  0
    8.5430   -2.3253   21.9662 N   0  0  0  0  0  0  0  0  0  0  0  0
    7.9626   -1.8760   20.8431 N   0  0  0  0  0  0  0  0  0  0  0  0
    7.9271   -2.4700   20.0262 H   0  0  0  0  0  0  0  0  0  0  0  0
    5.4307    0.6659   20.1115 C   0  0  0  0  0  0  0  0  0  0  0  0
    5.0075    0.6487   21.1180 H   0  0  0  0  0  0  0  0  0  0  0  0
    4.7940    1.3224   19.0581 C   0  0  0  0  0  0  0  0  0  0  0  0
    3.8562    1.8466   19.2027 H   0  0  0  0  0  0  0  0  0  0  0  0
  1  2  1  0
  2  3  2  0
  3  4  1  0
  4  5  1  0
  4  6  2  0
  6  7  1  0
  7  8  2  0
  8  9  1  0
  9 10  1  0
  9 11  1  0
 11 12  1  0
 11 13  1  0
 11 14  1  0
 14 15  2  0
 15 16  1  0
 15 17  1  0
 17 18  1  0
 17 19  2  0
 19 20  1  0
 19 21  1  0
 21 22  1  0
 21 23  2  0
 23 24  1  0
  8 25  1  0
 25 26  1  0
 25 27  2  0
 27 28  1  0
 28 29  1  0
  6 30  1  0
 30 31  1  0
 30 32  2  0
 32 33  1  0
 32  2  1  0
 28  7  1  0
 23 14  1  0
M  END
>  <cnnaffinity>  (1) 
-5.54786

>  <filename>  (1) 
Fc1ccc(CNc2cn[nH]c2-c2cccnc2)cc1

$$$$
