
     RDKit          3D

 27 29  0  0  0  0  0  0  0  0999 V2000
    4.9276    1.7939   16.9625 H   0  0  0  0  0  0  0  0  0  0  0  0
    5.4031    1.3191   17.8227 C   0  0  0  0  0  0  0  0  0  0  0  0
    6.5747    0.7055   17.5974 N   0  0  0  0  0  0  0  0  0  0  0  0
    7.1629    0.1050   18.6417 C   0  0  0  0  0  0  0  0  0  0  0  0
    8.1143   -0.3848   18.4346 H   0  0  0  0  0  0  0  0  0  0  0  0
    6.6469    0.0832   19.9590 C   0  0  0  0  0  0  0  0  0  0  0  0
    7.3304   -0.6315   21.0698 C   0  0  0  0  0  0  0  0  0  0  0  0
    7.6832   -2.0241   21.0027 C   0  0  0  0  0  0  0  0  0  0  0  0
    7.3846   -2.6768   20.1903 H   0  0  0  0  0  0  0  0  0  0  0  0
    8.3061   -2.5388   22.0207 N   0  0  0  0  0  0  0  0  0  0  0  0
    8.4956   -1.3701   23.1954 S   0  0  0  0  0  0  0  0  0  0  0  0
    7.6292   -0.1464   22.3310 C   0  0  0  0  0  0  0  0  0  0  0  0
    7.2648    1.1609   22.9189 C   0  0  0  0  0  0  0  0  0  0  0  0
    7.5830    2.3596   22.2571 C   0  0  0  0  0  0  0  0  0  0  0  0
    8.2583    2.3100   21.0929 F   0  0  0  0  0  0  0  0  0  0  0  0
    7.2320    3.6141   22.7432 C   0  0  0  0  0  0  0  0  0  0  0  0
    7.4914    4.4791   22.1510 H   0  0  0  0  0  0  0  0  0  0  0  0
    6.5301    3.7121   23.9426 C   0  0  0  0  0  0  0  0  0  0  0  0
    6.2365    4.6905   24.3213 H   0  0  0  0  0  0  0  0  0  0  0  0
    6.1758    2.5555   24.6401 C   0  0  0  0  0  0  0  0  0  0  0  0
    5.6010    2.5955   25.5546 H   0  0  0  0  0  0  0  0  0  0  0  0
    6.5377    1.3120   24.1246 C   0  0  0  0  0  0  0  0  0  0  0  0
    6.1487    0.2226   24.7988 F   0  0  0  0  0  0  0  0  0  0  0  0
    5.4186    0.7295   20.1619 C   0  0  0  0  0  0  0  0  0  0  0  0
    4.9759    0.7370   21.1596 H   0  0  0  0  0  0  0  0  0  0  0  0
    4.7846    1.3462   19.0786 C   0  0  0  0  0  0  0  0  0  0  0  0
    3.8249    1.8384   19.1890 H   0  0  0  0  0  0  0  0  0  0  0  0
  1  2  1  0
  2  3  2  0
  3  4  1  0
  4  5  1  0
  4  6  2  0
  6  7  1  0
  7  8  1  0
  8  9  1  0
  8 10  2  0
 10 11  1  0
 11 12  1  0
 12 13  1  0
 13 14  2  0
 14 15  1  0
 14 16  1  0
 16 17  1  0
 16 18  2  0
 18 19  1  0
 18 20  1  0
 20 21  1  0
 20 22  2  0
 22 23  1  0
  6 24  1  0
 24 25  1  0
 24 26  2  0
 26 27  1  0
 26  2  1  0
 12  7  2  0
 22 13  1  0
M  END
>  <cnnaffinity>  (1) 
-5.17632

>  <filename>  (1) 
Fc1cccc(F)c1-c1sncc1-c1cccnc1

$$$$
