
     RDKit          3D

 32 35  0  0  0  0  0  0  0  0999 V2000
    4.9852    1.8587   16.8920 H   0  0  0  0  0  0  0  0  0  0  0  0
    5.4218    1.3040   17.7214 C   0  0  0  0  0  0  0  0  0  0  0  0
    6.5661    0.6503   17.4674 N   0  0  0  0  0  0  0  0  0  0  0  0
    7.1432    0.0024   18.4854 C   0  0  0  0  0  0  0  0  0  0  0  0
    8.0737   -0.5121   18.2583 H   0  0  0  0  0  0  0  0  0  0  0  0
    6.6158   -0.0332   19.7912 C   0  0  0  0  0  0  0  0  0  0  0  0
    7.3623   -0.6595   20.8959 C   0  0  0  0  0  0  0  0  0  0  0  0
    8.4910   -1.3512   20.6745 N   0  0  0  0  0  0  0  0  0  0  0  0
    8.9175   -1.6410   21.9255 N   0  0  0  0  0  0  0  0  0  0  0  0
   10.0448   -2.2448   22.4776 C   0  0  0  0  0  0  0  0  0  0  0  0
   10.7950   -2.7031   21.8558 H   0  0  0  0  0  0  0  0  0  0  0  0
    9.9227   -2.1050   23.8245 C   0  0  0  0  0  0  0  0  0  0  0  0
   10.5598   -2.4147   24.6380 H   0  0  0  0  0  0  0  0  0  0  0  0
    8.7309   -1.4299   24.1115 N   0  0  0  0  0  0  0  0  0  0  0  0
    8.2010   -1.0680   25.3748 C   0  0  0  0  0  0  0  0  0  0  0  0
    6.8094   -1.1395   25.5867 C   0  0  0  0  0  0  0  0  0  0  0  0
    6.1889   -1.5449   24.7894 H   0  0  0  0  0  0  0  0  0  0  0  0
    6.2354   -0.6648   26.7645 C   0  0  0  0  0  0  0  0  0  0  0  0
    5.1526   -0.6324   26.8629 H   0  0  0  0  0  0  0  0  0  0  0  0
    7.0528   -0.1794   27.7873 C   0  0  0  0  0  0  0  0  0  0  0  0
    6.6096    0.2234   28.6911 H   0  0  0  0  0  0  0  0  0  0  0  0
    8.4427   -0.1736   27.6350 C   0  0  0  0  0  0  0  0  0  0  0  0
    9.1075    0.1308   28.4383 H   0  0  0  0  0  0  0  0  0  0  0  0
    9.0025   -0.5787   26.4270 C   0  0  0  0  0  0  0  0  0  0  0  0
   10.3406   -0.4635   26.2866 F   0  0  0  0  0  0  0  0  0  0  0  0
    8.1210   -1.1565   22.8960 C   0  0  0  0  0  0  0  0  0  0  0  0
    7.0525   -0.5330   22.2725 C   0  0  0  0  0  0  0  0  0  0  0  0
    6.1896   -0.0635   22.7068 H   0  0  0  0  0  0  0  0  0  0  0  0
    5.3965    0.6222   20.0261 C   0  0  0  0  0  0  0  0  0  0  0  0
    4.9339    0.6133   21.0169 H   0  0  0  0  0  0  0  0  0  0  0  0
    4.7955    1.3030   18.9733 C   0  0  0  0  0  0  0  0  0  0  0  0
    3.8774    1.8593   19.1227 H   0  0  0  0  0  0  0  0  0  0  0  0
  1  2  1  0
  2  3  2  0
  3  4  1  0
  4  5  1  0
  4  6  2  0
  6  7  1  0
  7  8  2  0
  8  9  1  0
  9 10  1  0
 10 11  1  0
 10 12  2  0
 12 13  1  0
 12 14  1  0
 14 15  1  0
 15 16  2  0
 16 17  1  0
 16 18  1  0
 18 19  1  0
 18 20  2  0
 20 21  1  0
 20 22  1  0
 22 23  1  0
 22 24  2  0
 24 25  1  0
 14 26  1  0
 26 27  2  0
 27 28  1  0
  6 29  1  0
 29 30  1  0
 29 31  2  0
 31 32  1  0
 31  2  1  0
 27  7  1  0
 26  9  1  0
 24 15  1  0
M  END
>  <cnnaffinity>  (1) 
-5.45524

>  <filename>  (1) 
Fc1ccccc1-n1ccn2nc(-c3cccnc3)cc12

$$$$
