
     RDKit          3D

 30 33  0  0  0  0  0  0  0  0999 V2000
    4.9471    1.7816   16.9756 H   0  0  0  0  0  0  0  0  0  0  0  0
    5.4025    1.2907   17.8325 C   0  0  0  0  0  0  0  0  0  0  0  0
    6.5643    0.6593   17.6013 N   0  0  0  0  0  0  0  0  0  0  0  0
    7.1575    0.0827   18.6482 C   0  0  0  0  0  0  0  0  0  0  0  0
    8.1027   -0.4122   18.4259 H   0  0  0  0  0  0  0  0  0  0  0  0
    6.6550    0.1018   19.9663 C   0  0  0  0  0  0  0  0  0  0  0  0
    7.4323   -0.5900   21.0157 C   0  0  0  0  0  0  0  0  0  0  0  0
    8.2984   -1.6081   20.8404 C   0  0  0  0  0  0  0  0  0  0  0  0
    8.7195   -1.9512   19.9145 H   0  0  0  0  0  0  0  0  0  0  0  0
    8.8707   -2.3044   22.3275 S   0  0  0  0  0  0  0  0  0  0  0  0
    8.0786   -1.0410   23.2085 C   0  0  0  0  0  0  0  0  0  0  0  0
    8.1086   -0.5418   24.4224 N   0  0  0  0  0  0  0  0  0  0  0  0
    7.3487    0.5847   24.2700 C   0  0  0  0  0  0  0  0  0  0  0  0
    7.0913    1.5512   25.3722 C   0  0  0  0  0  0  0  0  0  0  0  0
    7.6221    1.3219   26.6573 C   0  0  0  0  0  0  0  0  0  0  0  0
    8.2473    0.4562   26.8614 H   0  0  0  0  0  0  0  0  0  0  0  0
    7.3359    2.2282   27.6733 C   0  0  0  0  0  0  0  0  0  0  0  0
    7.8170    1.9982   28.9011 F   0  0  0  0  0  0  0  0  0  0  0  0
    6.5613    3.3685   27.4783 C   0  0  0  0  0  0  0  0  0  0  0  0
    6.3515    4.0619   28.2852 H   0  0  0  0  0  0  0  0  0  0  0  0
    6.0657    3.5719   26.1942 C   0  0  0  0  0  0  0  0  0  0  0  0
    5.3155    4.6579   25.9717 F   0  0  0  0  0  0  0  0  0  0  0  0
    6.3085    2.7008   25.1370 C   0  0  0  0  0  0  0  0  0  0  0  0
    5.8989    2.9119   24.1528 H   0  0  0  0  0  0  0  0  0  0  0  0
    6.8601    0.7879   23.0499 N   0  0  0  0  0  0  0  0  0  0  0  0
    7.3322   -0.2848   22.3762 N   0  0  0  0  0  0  0  0  0  0  0  0
    5.4205    0.7464   20.1829 C   0  0  0  0  0  0  0  0  0  0  0  0
    4.9856    0.7889   21.1853 H   0  0  0  0  0  0  0  0  0  0  0  0
    4.7889    1.3378   19.0894 C   0  0  0  0  0  0  0  0  0  0  0  0
    3.8368    1.8491   19.1929 H   0  0  0  0  0  0  0  0  0  0  0  0
  1  2  1  0
  2  3  2  0
  3  4  1  0
  4  5  1  0
  4  6  2  0
  6  7  1  0
  7  8  2  0
  8  9  1  0
  8 10  1  0
 10 11  1  0
 11 12  2  0
 12 13  1  0
 13 14  1  0
 14 15  2  0
 15 16  1  0
 15 17  1  0
 17 18  1  0
 17 19  2  0
 19 20  1  0
 19 21  1  0
 21 22  1  0
 21 23  2  0
 23 24  1  0
 13 25  2  0
 25 26  1  0
  6 27  1  0
 27 28  1  0
 27 29  2  0
 29 30  1  0
 29  2  1  0
 26  7  1  0
 26 11  1  0
 23 14  1  0
M  END
>  <cnnaffinity>  (1) 
-5.1953

>  <filename>  (1) 
Fc1cc(F)cc(-c2nc3scc(-c4cccnc4)n3n2)c1

$$$$
