
     RDKit          3D

 32 34  0  0  0  0  0  0  0  0999 V2000
    9.0505    0.9926   20.5591 H   0  0  0  0  0  0  0  0  0  0  0  0
    9.4342    0.1184   21.0930 C   0  0  0  0  0  0  0  0  0  0  0  0
    8.5717   -0.8673   21.4231 C   0  0  0  0  0  0  0  0  0  0  0  0
    7.1504   -0.8986   21.0168 C   0  0  0  0  0  0  0  0  0  0  0  0
    6.6065   -0.0999   19.9001 C   0  0  0  0  0  0  0  0  0  0  0  0
    7.2727   -0.0309   18.6695 C   0  0  0  0  0  0  0  0  0  0  0  0
    8.2375   -0.5249   18.5377 H   0  0  0  0  0  0  0  0  0  0  0  0
    6.8049    0.6442   17.6132 N   0  0  0  0  0  0  0  0  0  0  0  0
    5.6446    1.2996   17.7698 C   0  0  0  0  0  0  0  0  0  0  0  0
    5.2815    1.8349   16.8962 H   0  0  0  0  0  0  0  0  0  0  0  0
    4.9208    1.3238   18.9704 C   0  0  0  0  0  0  0  0  0  0  0  0
    3.9968    1.8895   19.0354 H   0  0  0  0  0  0  0  0  0  0  0  0
    5.4085    0.6066   20.0580 C   0  0  0  0  0  0  0  0  0  0  0  0
    4.8903    0.5851   21.0195 H   0  0  0  0  0  0  0  0  0  0  0  0
    6.4112   -1.6478   21.7402 N   0  0  0  0  0  0  0  0  0  0  0  0
    7.2248   -2.2413   22.8036 C   0  0  0  0  0  0  0  0  0  0  0  0
    6.9742   -1.7495   23.7529 H   0  0  0  0  0  0  0  0  0  0  0  0
    6.9745   -3.2969   22.9234 H   0  0  0  0  0  0  0  0  0  0  0  0
    8.7024   -2.0025   22.4226 C   0  0  0  0  0  0  0  0  0  0  0  0
    9.1085   -2.8872   21.9255 H   0  0  0  0  0  0  0  0  0  0  0  0
    9.3363   -1.7486   23.2735 H   0  0  0  0  0  0  0  0  0  0  0  0
   10.8487    0.2271   21.4656 C   0  0  0  0  0  0  0  0  0  0  0  0
   11.4219    1.4923   21.7147 C   0  0  0  0  0  0  0  0  0  0  0  0
   10.8219    2.3891   21.5801 H   0  0  0  0  0  0  0  0  0  0  0  0
   12.7378    1.6264   22.1542 C   0  0  0  0  0  0  0  0  0  0  0  0
   13.1978    2.5971   22.2940 H   0  0  0  0  0  0  0  0  0  0  0  0
   13.4887    0.4714   22.3617 C   0  0  0  0  0  0  0  0  0  0  0  0
   14.7316    0.5830   22.8365 F   0  0  0  0  0  0  0  0  0  0  0  0
   12.9903   -0.7963   22.1017 C   0  0  0  0  0  0  0  0  0  0  0  0
   13.5882   -1.6887   22.2175 H   0  0  0  0  0  0  0  0  0  0  0  0
   11.6819   -0.8837   21.6477 C   0  0  0  0  0  0  0  0  0  0  0  0
   11.2147   -2.1063   21.3479 F   0  0  0  0  0  0  0  0  0  0  0  0
  1  2  1  0
  2  3  2  3
  3  4  1  0
  4  5  1  0
  5  6  2  0
  6  7  1  0
  6  8  1  0
  8  9  2  0
  9 10  1  0
  9 11  1  0
 11 12  1  0
 11 13  2  0
 13 14  1  0
  4 15  2  0
 15 16  1  0
 16 17  1  0
 16 18  1  0
 16 19  1  0
 19 20  1  0
 19 21  1  0
  2 22  1  0
 22 23  2  0
 23 24  1  0
 23 25  1  0
 25 26  1  0
 25 27  2  0
 27 28  1  0
 27 29  1  0
 29 30  1  0
 29 31  2  0
 31 32  1  0
 19  3  1  0
 31 22  1  0
 13  5  1  0
M  END
>  <cnnaffinity>  (1) 
-6.01305

>  <filename>  (1) 
Fc1ccc(C=C2CCN=C2c2cccnc2)c(F)c1

$$$$
