
     RDKit          3D

 26 28  0  0  0  0  0  0  0  0999 V2000
    4.9242    1.8001   16.9878 H   0  0  0  0  0  0  0  0  0  0  0  0
    5.3947    1.2987   17.8317 C   0  0  0  0  0  0  0  0  0  0  0  0
    6.5579    0.6830   17.5675 N   0  0  0  0  0  0  0  0  0  0  0  0
    7.1666    0.0606   18.5805 C   0  0  0  0  0  0  0  0  0  0  0  0
    8.1196   -0.4084   18.3433 H   0  0  0  0  0  0  0  0  0  0  0  0
    6.6588   -0.0021   19.9015 C   0  0  0  0  0  0  0  0  0  0  0  0
    7.3672   -0.7162   20.9913 C   0  0  0  0  0  0  0  0  0  0  0  0
    8.0706   -2.2561   20.8381 S   0  0  0  0  0  0  0  0  0  0  0  0
    8.4857   -2.3721   22.4587 N   0  0  0  0  0  0  0  0  0  0  0  0
    8.1383   -1.3282   23.0957 N   0  0  0  0  0  0  0  0  0  0  0  0
    7.5344   -0.3693   22.3277 C   0  0  0  0  0  0  0  0  0  0  0  0
    7.1688    0.9126   22.9503 C   0  0  0  0  0  0  0  0  0  0  0  0
    6.5907    0.9166   24.2295 C   0  0  0  0  0  0  0  0  0  0  0  0
    6.4254   -0.0065   24.7768 H   0  0  0  0  0  0  0  0  0  0  0  0
    6.2336    2.1315   24.7918 C   0  0  0  0  0  0  0  0  0  0  0  0
    5.6963    2.1429   26.0192 F   0  0  0  0  0  0  0  0  0  0  0  0
    6.4241    3.3519   24.1488 C   0  0  0  0  0  0  0  0  0  0  0  0
    6.1468    4.2893   24.6134 H   0  0  0  0  0  0  0  0  0  0  0  0
    7.0037    3.3100   22.8857 C   0  0  0  0  0  0  0  0  0  0  0  0
    7.1943    4.4668   22.2368 F   0  0  0  0  0  0  0  0  0  0  0  0
    7.3859    2.1254   22.2718 C   0  0  0  0  0  0  0  0  0  0  0  0
    7.7987    2.1575   21.2701 H   0  0  0  0  0  0  0  0  0  0  0  0
    5.4344    0.6401   20.1456 C   0  0  0  0  0  0  0  0  0  0  0  0
    5.0244    0.6328   21.1586 H   0  0  0  0  0  0  0  0  0  0  0  0
    4.8017    1.3047   19.0965 C   0  0  0  0  0  0  0  0  0  0  0  0
    3.8744    1.8398   19.2461 H   0  0  0  0  0  0  0  0  0  0  0  0
  1  2  1  0
  2  3  2  0
  3  4  1  0
  4  5  1  0
  4  6  2  0
  6  7  1  0
  7  8  1  0
  8  9  1  0
  9 10  2  0
 10 11  1  0
 11 12  1  0
 12 13  2  0
 13 14  1  0
 13 15  1  0
 15 16  1  0
 15 17  2  0
 17 18  1  0
 17 19  1  0
 19 20  1  0
 19 21  2  0
 21 22  1  0
  6 23  1  0
 23 24  1  0
 23 25  2  0
 25 26  1  0
 25  2  1  0
 11  7  2  0
 21 12  1  0
M  END
>  <cnnaffinity>  (1) 
-5.10299

>  <filename>  (1) 
Fc1cc(F)cc(-c2nnsc2-c2cccnc2)c1

$$$$
