
     RDKit          3D

 32 34  0  0  0  0  0  0  0  0999 V2000
    9.3225    0.8877   20.1668 H   0  0  0  0  0  0  0  0  0  0  0  0
    9.6207    0.0522   20.8046 C   0  0  0  0  0  0  0  0  0  0  0  0
    8.6988   -0.8204   21.2549 C   0  0  0  0  0  0  0  0  0  0  0  0
    7.2378   -0.8359   20.9898 C   0  0  0  0  0  0  0  0  0  0  0  0
    6.5857   -0.0489   19.9212 C   0  0  0  0  0  0  0  0  0  0  0  0
    7.1691   -0.0016   18.6500 C   0  0  0  0  0  0  0  0  0  0  0  0
    8.1195   -0.5016   18.4651 H   0  0  0  0  0  0  0  0  0  0  0  0
    6.6362    0.6427   17.6050 N   0  0  0  0  0  0  0  0  0  0  0  0
    5.4867    1.3006   17.8127 C   0  0  0  0  0  0  0  0  0  0  0  0
    5.0707    1.8226   16.9521 H   0  0  0  0  0  0  0  0  0  0  0  0
    4.8198    1.3217   19.0438 C   0  0  0  0  0  0  0  0  0  0  0  0
    3.8958    1.8824   19.1449 H   0  0  0  0  0  0  0  0  0  0  0  0
    5.3699    0.6232   20.1195 C   0  0  0  0  0  0  0  0  0  0  0  0
    4.8828    0.5955   21.0946 H   0  0  0  0  0  0  0  0  0  0  0  0
    6.5749   -1.6010   21.7776 N   0  0  0  0  0  0  0  0  0  0  0  0
    7.4823   -2.1969   22.7621 C   0  0  0  0  0  0  0  0  0  0  0  0
    7.2502   -1.7588   23.7384 H   0  0  0  0  0  0  0  0  0  0  0  0
    7.2849   -3.2693   22.8345 H   0  0  0  0  0  0  0  0  0  0  0  0
    8.9292   -1.8615   22.3320 C   0  0  0  0  0  0  0  0  0  0  0  0
    9.5512   -1.4792   23.1477 H   0  0  0  0  0  0  0  0  0  0  0  0
    9.4345   -2.7463   21.9327 H   0  0  0  0  0  0  0  0  0  0  0  0
   11.0253    0.1084   21.2753 C   0  0  0  0  0  0  0  0  0  0  0  0
   11.5405    1.3382   21.7256 C   0  0  0  0  0  0  0  0  0  0  0  0
   10.9324    2.2378   21.6656 H   0  0  0  0  0  0  0  0  0  0  0  0
   12.7952    1.4086   22.3346 C   0  0  0  0  0  0  0  0  0  0  0  0
   13.2018    2.3257   22.7465 H   0  0  0  0  0  0  0  0  0  0  0  0
   13.5720    0.2577   22.4365 C   0  0  0  0  0  0  0  0  0  0  0  0
   14.7539    0.3202   23.0469 F   0  0  0  0  0  0  0  0  0  0  0  0
   13.1167   -0.9545   21.9112 C   0  0  0  0  0  0  0  0  0  0  0  0
   13.8864   -2.0485   21.9848 F   0  0  0  0  0  0  0  0  0  0  0  0
   11.8461   -1.0326   21.3561 C   0  0  0  0  0  0  0  0  0  0  0  0
   11.4930   -1.9910   20.9997 H   0  0  0  0  0  0  0  0  0  0  0  0
  1  2  1  0
  2  3  2  3
  3  4  1  0
  4  5  1  0
  5  6  2  0
  6  7  1  0
  6  8  1  0
  8  9  2  0
  9 10  1  0
  9 11  1  0
 11 12  1  0
 11 13  2  0
 13 14  1  0
  4 15  2  0
 15 16  1  0
 16 17  1  0
 16 18  1  0
 16 19  1  0
 19 20  1  0
 19 21  1  0
  2 22  1  0
 22 23  2  0
 23 24  1  0
 23 25  1  0
 25 26  1  0
 25 27  2  0
 27 28  1  0
 27 29  1  0
 29 30  1  0
 29 31  2  0
 31 32  1  0
 19  3  1  0
 31 22  1  0
 13  5  1  0
M  END
>  <cnnaffinity>  (1) 
-6.1289

>  <filename>  (1) 
Fc1ccc(C=C2CCN=C2c2cccnc2)cc1F

$$$$
