
     RDKit          3D

 28 30  0  0  0  0  0  0  0  0999 V2000
    4.9138    1.7840   16.9935 H   0  0  0  0  0  0  0  0  0  0  0  0
    5.3973    1.2970   17.8360 C   0  0  0  0  0  0  0  0  0  0  0  0
    6.5587    0.6812   17.5726 N   0  0  0  0  0  0  0  0  0  0  0  0
    7.1663    0.0687   18.5928 C   0  0  0  0  0  0  0  0  0  0  0  0
    8.1132   -0.4205   18.3788 H   0  0  0  0  0  0  0  0  0  0  0  0
    6.6540    0.0167   19.8988 C   0  0  0  0  0  0  0  0  0  0  0  0
    7.3894   -0.7445   20.9777 C   0  0  0  0  0  0  0  0  0  0  0  0
    7.4416   -1.8101   20.7239 H   0  0  0  0  0  0  0  0  0  0  0  0
    6.8496   -0.6617   21.9218 H   0  0  0  0  0  0  0  0  0  0  0  0
    8.7513   -0.2801   21.2159 N   0  0  0  0  0  0  0  0  0  0  0  0
    9.7752   -0.7566   20.4905 N   0  0  0  0  0  0  0  0  0  0  0  0
   10.8471   -0.2276   20.9652 N   0  0  0  0  0  0  0  0  0  0  0  0
   10.5657    0.6010   21.9851 N   0  0  0  0  0  0  0  0  0  0  0  0
    9.2624    0.5749   22.1263 C   0  0  0  0  0  0  0  0  0  0  0  0
    8.4704    1.3221   23.1092 C   0  0  0  0  0  0  0  0  0  0  0  0
    8.8856    1.3001   24.4502 C   0  0  0  0  0  0  0  0  0  0  0  0
    9.7686    0.7402   24.7430 H   0  0  0  0  0  0  0  0  0  0  0  0
    8.2330    1.9403   25.4249 N   0  0  0  0  0  0  0  0  0  0  0  0
    7.1429    2.6461   25.0909 C   0  0  0  0  0  0  0  0  0  0  0  0
    6.6188    3.1680   25.8815 H   0  0  0  0  0  0  0  0  0  0  0  0
    6.6762    2.7322   23.7733 C   0  0  0  0  0  0  0  0  0  0  0  0
    5.5863    3.4648   23.4987 F   0  0  0  0  0  0  0  0  0  0  0  0
    7.3378    2.0703   22.7534 C   0  0  0  0  0  0  0  0  0  0  0  0
    7.0009    2.1711   21.7226 H   0  0  0  0  0  0  0  0  0  0  0  0
    5.4341    0.6482   20.1513 C   0  0  0  0  0  0  0  0  0  0  0  0
    5.0060    0.6355   21.1607 H   0  0  0  0  0  0  0  0  0  0  0  0
    4.7965    1.3139   19.0999 C   0  0  0  0  0  0  0  0  0  0  0  0
    3.8665    1.8499   19.2556 H   0  0  0  0  0  0  0  0  0  0  0  0
  1  2  1  0
  2  3  2  0
  3  4  1  0
  4  5  1  0
  4  6  2  0
  6  7  1  0
  7  8  1  0
  7  9  1  0
  7 10  1  0
 10 11  1  0
 11 12  2  0
 12 13  1  0
 13 14  2  0
 14 15  1  0
 15 16  2  0
 16 17  1  0
 16 18  1  0
 18 19  2  0
 19 20  1  0
 19 21  1  0
 21 22  1  0
 21 23  2  0
 23 24  1  0
  6 25  1  0
 25 26  1  0
 25 27  2  0
 27 28  1  0
 27  2  1  0
 14 10  1  0
 23 15  1  0
M  END
>  <cnnaffinity>  (1) 
-5.03385

>  <filename>  (1) 
Fc1cncc(-c2nnnn2Cc2cccnc2)c1

$$$$
