
     RDKit          3D

 33 35  0  0  0  0  0  0  0  0999 V2000
    5.0204    1.7570   16.9993 H   0  0  0  0  0  0  0  0  0  0  0  0
    5.4500    1.2343   17.8501 C   0  0  0  0  0  0  0  0  0  0  0  0
    6.5772    0.5461   17.6098 N   0  0  0  0  0  0  0  0  0  0  0  0
    7.1294   -0.0959   18.6459 C   0  0  0  0  0  0  0  0  0  0  0  0
    8.0472   -0.6434   18.4237 H   0  0  0  0  0  0  0  0  0  0  0  0
    6.6224   -0.0716   19.9548 C   0  0  0  0  0  0  0  0  0  0  0  0
    7.3309   -0.8493   21.0377 C   0  0  0  0  0  0  0  0  0  0  0  0
    6.7963   -2.1886   20.9737 N   0  0  0  0  0  0  0  0  0  0  0  0
    6.2431   -2.3702   20.1517 H   0  0  0  0  0  0  0  0  0  0  0  0
    7.3667   -3.3455   21.4756 C   0  0  0  0  0  0  0  0  0  0  0  0
    7.1526   -4.5062   20.7207 C   0  0  0  0  0  0  0  0  0  0  0  0
    6.6267   -4.4024   19.7751 H   0  0  0  0  0  0  0  0  0  0  0  0
    7.6360   -5.7359   21.1575 C   0  0  0  0  0  0  0  0  0  0  0  0
    7.4537   -6.6414   20.5962 H   0  0  0  0  0  0  0  0  0  0  0  0
    8.3195   -5.8187   22.3662 C   0  0  0  0  0  0  0  0  0  0  0  0
    8.7681   -6.9988   22.8163 F   0  0  0  0  0  0  0  0  0  0  0  0
    8.5024   -4.6713   23.1378 C   0  0  0  0  0  0  0  0  0  0  0  0
    9.1065   -4.7715   24.3331 F   0  0  0  0  0  0  0  0  0  0  0  0
    8.0509   -3.4355   22.6940 C   0  0  0  0  0  0  0  0  0  0  0  0
    8.1794   -2.5870   23.3445 H   0  0  0  0  0  0  0  0  0  0  0  0
    7.3150   -0.2276   22.4637 C   0  0  0  0  0  0  0  0  0  0  0  0
    6.8511   -0.8823   23.2075 H   0  0  0  0  0  0  0  0  0  0  0  0
    6.8201    0.7460   22.5287 H   0  0  0  0  0  0  0  0  0  0  0  0
    8.8649   -0.1506   22.4594 C   0  0  0  0  0  0  0  0  0  0  0  0
    9.3651   -0.7665   23.2166 H   0  0  0  0  0  0  0  0  0  0  0  0
    9.2685    0.8632   22.5391 H   0  0  0  0  0  0  0  0  0  0  0  0
    8.8870   -0.7263   21.0213 C   0  0  0  0  0  0  0  0  0  0  0  0
    9.2493   -0.0198   20.2703 H   0  0  0  0  0  0  0  0  0  0  0  0
    9.4016   -1.6806   20.8703 H   0  0  0  0  0  0  0  0  0  0  0  0
    5.4105    0.5989   20.1682 C   0  0  0  0  0  0  0  0  0  0  0  0
    4.9512    0.5834   21.1588 H   0  0  0  0  0  0  0  0  0  0  0  0
    4.8209    1.2762   19.0995 C   0  0  0  0  0  0  0  0  0  0  0  0
    3.9013    1.8395   19.2268 H   0  0  0  0  0  0  0  0  0  0  0  0
  1  2  1  0
  2  3  2  0
  3  4  1  0
  4  5  1  0
  4  6  2  0
  6  7  1  0
  7  8  1  0
  8  9  1  0
  8 10  1  0
 10 11  2  0
 11 12  1  0
 11 13  1  0
 13 14  1  0
 13 15  2  0
 15 16  1  0
 15 17  1  0
 17 18  1  0
 17 19  2  0
 19 20  1  0
  7 21  1  0
 21 22  1  0
 21 23  1  0
 21 24  1  0
 24 25  1  0
 24 26  1  0
 24 27  1  0
 27 28  1  0
 27 29  1  0
  6 30  1  0
 30 31  1  0
 30 32  2  0
 32 33  1  0
 32  2  1  0
 27  7  1  0
 19 10  1  0
M  END
>  <cnnaffinity>  (1) 
-5.07821

>  <filename>  (1) 
Fc1ccc(NC2(c3cccnc3)CCC2)cc1F

$$$$
