
     RDKit          3D

 31 33  0  0  0  0  0  0  0  0999 V2000
    4.9103    1.7843   16.9929 H   0  0  0  0  0  0  0  0  0  0  0  0
    5.3989    1.2975   17.8332 C   0  0  0  0  0  0  0  0  0  0  0  0
    6.5670    0.6839   17.5724 N   0  0  0  0  0  0  0  0  0  0  0  0
    7.1717    0.0593   18.5894 C   0  0  0  0  0  0  0  0  0  0  0  0
    8.1227   -0.4270   18.3697 H   0  0  0  0  0  0  0  0  0  0  0  0
    6.6657   -0.0074   19.9076 C   0  0  0  0  0  0  0  0  0  0  0  0
    7.3364   -0.7135   20.9155 N   0  0  0  0  0  0  0  0  0  0  0  0
    7.8682   -1.5455   20.6693 H   0  0  0  0  0  0  0  0  0  0  0  0
    7.4670   -0.3024   22.2485 C   0  0  0  0  0  0  0  0  0  0  0  0
    7.2629    0.9822   22.8121 C   0  0  0  0  0  0  0  0  0  0  0  0
    6.9442    1.8669   22.2835 H   0  0  0  0  0  0  0  0  0  0  0  0
    7.5474    1.0246   24.1054 N   0  0  0  0  0  0  0  0  0  0  0  0
    7.9354   -0.2439   24.3887 N   0  0  0  0  0  0  0  0  0  0  0  0
    8.2450   -0.4579   25.3197 H   0  0  0  0  0  0  0  0  0  0  0  0
    7.8957   -1.0719   23.3097 C   0  0  0  0  0  0  0  0  0  0  0  0
    8.3141   -2.3734   23.2737 O   0  0  0  0  0  0  0  0  0  0  0  0
    8.3303   -3.2081   24.3871 C   0  0  0  0  0  0  0  0  0  0  0  0
    7.4167   -3.1194   25.4445 C   0  0  0  0  0  0  0  0  0  0  0  0
    6.6416   -2.3593   25.4339 H   0  0  0  0  0  0  0  0  0  0  0  0
    7.4968   -4.0215   26.5123 C   0  0  0  0  0  0  0  0  0  0  0  0
    6.8110   -3.9550   27.3497 H   0  0  0  0  0  0  0  0  0  0  0  0
    8.4714   -5.0155   26.4967 C   0  0  0  0  0  0  0  0  0  0  0  0
    8.5402   -5.8752   27.5268 F   0  0  0  0  0  0  0  0  0  0  0  0
    9.3651   -5.1404   25.4344 C   0  0  0  0  0  0  0  0  0  0  0  0
   10.1038   -5.9376   25.4528 H   0  0  0  0  0  0  0  0  0  0  0  0
    9.2865   -4.2331   24.3729 C   0  0  0  0  0  0  0  0  0  0  0  0
    9.9644   -4.3138   23.5311 H   0  0  0  0  0  0  0  0  0  0  0  0
    5.4461    0.6440   20.1579 C   0  0  0  0  0  0  0  0  0  0  0  0
    5.0249    0.6156   21.1660 H   0  0  0  0  0  0  0  0  0  0  0  0
    4.8104    1.3065   19.1041 C   0  0  0  0  0  0  0  0  0  0  0  0
    3.8782    1.8392   19.2636 H   0  0  0  0  0  0  0  0  0  0  0  0
  1  2  1  0
  2  3  2  0
  3  4  1  0
  4  5  1  0
  4  6  2  0
  6  7  1  0
  7  8  1  0
  7  9  1  0
  9 10  1  0
 10 11  1  0
 10 12  2  0
 12 13  1  0
 13 14  1  0
 13 15  1  0
 15 16  1  0
 16 17  1  0
 17 18  2  0
 18 19  1  0
 18 20  1  0
 20 21  1  0
 20 22  2  0
 22 23  1  0
 22 24  1  0
 24 25  1  0
 24 26  2  0
 26 27  1  0
  6 28  1  0
 28 29  1  0
 28 30  2  0
 30 31  1  0
 30  2  1  0
 15  9  2  0
 26 17  1  0
M  END
>  <cnnaffinity>  (1) 
-5.28838

>  <filename>  (1) 
Fc1ccc(Oc2[nH]ncc2Nc2cccnc2)cc1

$$$$
