
     RDKit          3D

 23 24  0  0  0  0  0  0  0  0999 V2000
    4.9307    1.7764   16.9940 H   0  0  0  0  0  0  0  0  0  0  0  0
    5.4061    1.2874   17.8467 C   0  0  0  0  0  0  0  0  0  0  0  0
    6.5751    0.6609   17.6122 N   0  0  0  0  0  0  0  0  0  0  0  0
    7.1723    0.0495   18.6422 C   0  0  0  0  0  0  0  0  0  0  0  0
    8.1170   -0.4383   18.4259 H   0  0  0  0  0  0  0  0  0  0  0  0
    6.6504    0.0018   19.9508 C   0  0  0  0  0  0  0  0  0  0  0  0
    7.4194   -0.7153   20.9275 N   0  0  0  0  0  0  0  0  0  0  0  0
    6.9408   -0.7512   22.0891 N   0  0  0  0  0  0  0  0  0  0  0  0
    7.6997   -1.4638   23.0771 C   0  0  0  0  0  0  0  0  0  0  0  0
    7.1504   -1.4930   24.3707 C   0  0  0  0  0  0  0  0  0  0  0  0
    6.2111   -1.0052   24.5941 H   0  0  0  0  0  0  0  0  0  0  0  0
    7.8460   -2.1711   25.3674 C   0  0  0  0  0  0  0  0  0  0  0  0
    7.3378   -2.2096   26.6046 F   0  0  0  0  0  0  0  0  0  0  0  0
    9.0578   -2.8229   25.1500 C   0  0  0  0  0  0  0  0  0  0  0  0
    9.5834   -3.3481   25.9426 H   0  0  0  0  0  0  0  0  0  0  0  0
    9.5596   -2.7646   23.8554 C   0  0  0  0  0  0  0  0  0  0  0  0
   10.7216   -3.3740   23.6028 F   0  0  0  0  0  0  0  0  0  0  0  0
    8.9149   -2.1058   22.8168 C   0  0  0  0  0  0  0  0  0  0  0  0
    9.3234   -2.0701   21.8164 H   0  0  0  0  0  0  0  0  0  0  0  0
    5.4307    0.6526   20.1780 C   0  0  0  0  0  0  0  0  0  0  0  0
    5.0231    0.6187   21.1864 H   0  0  0  0  0  0  0  0  0  0  0  0
    4.8065    1.3078   19.1115 C   0  0  0  0  0  0  0  0  0  0  0  0
    3.8745    1.8422   19.2577 H   0  0  0  0  0  0  0  0  0  0  0  0
  1  2  1  0
  2  3  2  0
  3  4  1  0
  4  5  1  0
  4  6  2  0
  6  7  1  0
  7  8  2  3
  8  9  1  0
  9 10  2  0
 10 11  1  0
 10 12  1  0
 12 13  1  0
 12 14  2  0
 14 15  1  0
 14 16  1  0
 16 17  1  0
 16 18  2  0
 18 19  1  0
  6 20  1  0
 20 21  1  0
 20 22  2  0
 22 23  1  0
 22  2  1  0
 18  9  1  0
M  END
>  <cnnaffinity>  (1) 
-4.60954

>  <filename>  (1) 
Fc1cc(F)cc(N=Nc2cccnc2)c1

$$$$
