
     RDKit          3D

 34 37  0  0  0  0  0  0  0  0999 V2000
    4.9562    1.8633   16.9847 H   0  0  0  0  0  0  0  0  0  0  0  0
    5.4790    1.3423   17.7808 C   0  0  0  0  0  0  0  0  0  0  0  0
    6.6389    0.7582   17.4393 N   0  0  0  0  0  0  0  0  0  0  0  0
    7.3154    0.1028   18.3917 C   0  0  0  0  0  0  0  0  0  0  0  0
    8.2478   -0.3689   18.0769 H   0  0  0  0  0  0  0  0  0  0  0  0
    6.8561   -0.0175   19.7183 C   0  0  0  0  0  0  0  0  0  0  0  0
    7.5440   -0.8122   20.6730 N   0  0  0  0  0  0  0  0  0  0  0  0
    8.8973   -0.7692   21.0060 C   0  0  0  0  0  0  0  0  0  0  0  0
    9.5486   -0.0674   20.5117 H   0  0  0  0  0  0  0  0  0  0  0  0
    9.1417   -1.6500   22.0130 C   0  0  0  0  0  0  0  0  0  0  0  0
   10.0348   -1.8772   22.5668 H   0  0  0  0  0  0  0  0  0  0  0  0
    7.9356   -2.2559   22.2967 N   0  0  0  0  0  0  0  0  0  0  0  0
    7.5057   -3.2004   23.1886 N   0  0  0  0  0  0  0  0  0  0  0  0
    6.2128   -3.2716   22.8812 C   0  0  0  0  0  0  0  0  0  0  0  0
    5.2970   -4.1007   23.4684 N   0  0  0  0  0  0  0  0  0  0  0  0
    4.4451   -4.1371   22.9405 H   0  0  0  0  0  0  0  0  0  0  0  0
    5.4219   -5.0473   24.4812 C   0  0  0  0  0  0  0  0  0  0  0  0
    4.6379   -6.2064   24.3742 C   0  0  0  0  0  0  0  0  0  0  0  0
    4.0728   -6.3701   23.4627 H   0  0  0  0  0  0  0  0  0  0  0  0
    4.6139   -7.1498   25.3986 C   0  0  0  0  0  0  0  0  0  0  0  0
    3.9952   -8.0385   25.3347 H   0  0  0  0  0  0  0  0  0  0  0  0
    5.3948   -6.9216   26.5284 C   0  0  0  0  0  0  0  0  0  0  0  0
    5.3957   -7.8337   27.5138 F   0  0  0  0  0  0  0  0  0  0  0  0
    6.1798   -5.7771   26.6581 C   0  0  0  0  0  0  0  0  0  0  0  0
    6.7468   -5.6292   27.5694 H   0  0  0  0  0  0  0  0  0  0  0  0
    6.2117   -4.8407   25.6164 C   0  0  0  0  0  0  0  0  0  0  0  0
    6.8418   -3.9559   25.6558 H   0  0  0  0  0  0  0  0  0  0  0  0
    5.8046   -2.4336   21.8310 C   0  0  0  0  0  0  0  0  0  0  0  0
    4.7875   -2.3467   21.5283 H   0  0  0  0  0  0  0  0  0  0  0  0
    6.9607   -1.7598   21.4989 C   0  0  0  0  0  0  0  0  0  0  0  0
    5.6549    0.6226   20.0683 C   0  0  0  0  0  0  0  0  0  0  0  0
    5.3053    0.5830   21.1011 H   0  0  0  0  0  0  0  0  0  0  0  0
    4.9513    1.3102   19.0771 C   0  0  0  0  0  0  0  0  0  0  0  0
    4.0209    1.8263   19.2985 H   0  0  0  0  0  0  0  0  0  0  0  0
  1  2  1  0
  2  3  2  0
  3  4  1  0
  4  5  1  0
  4  6  2  0
  6  7  1  0
  7  8  1  0
  8  9  1  0
  8 10  2  0
 10 11  1  0
 10 12  1  0
 12 13  1  0
 13 14  2  0
 14 15  1  0
 15 16  1  0
 15 17  1  0
 17 18  2  0
 18 19  1  0
 18 20  1  0
 20 21  1  0
 20 22  2  0
 22 23  1  0
 22 24  1  0
 24 25  1  0
 24 26  2  0
 26 27  1  0
 14 28  1  0
 28 29  1  0
 28 30  2  0
  6 31  1  0
 31 32  1  0
 31 33  2  0
 33 34  1  0
 33  2  1  0
 30  7  1  0
 30 12  1  0
 26 17  1  0
M  END
>  <cnnaffinity>  (1) 
-5.171

>  <filename>  (1) 
Fc1ccc(Nc2cc3n(-c4cccnc4)ccn3n2)cc1

$$$$
