
     RDKit          3D

 29 31  0  0  0  0  0  0  0  0999 V2000
    8.5924   -3.7461   21.3905 H   0  0  0  0  0  0  0  0  0  0  0  0
    8.3236   -2.7177   21.6259 C   0  0  0  0  0  0  0  0  0  0  0  0
    7.7571   -1.9951   20.6496 N   0  0  0  0  0  0  0  0  0  0  0  0
    7.3898   -0.7355   20.9596 C   0  0  0  0  0  0  0  0  0  0  0  0
    6.6465   -0.0134   19.8966 C   0  0  0  0  0  0  0  0  0  0  0  0
    7.1654    0.0359   18.5955 C   0  0  0  0  0  0  0  0  0  0  0  0
    8.1176   -0.4403   18.3623 H   0  0  0  0  0  0  0  0  0  0  0  0
    6.5704    0.6756   17.5848 N   0  0  0  0  0  0  0  0  0  0  0  0
    5.4044    1.2908   17.8427 C   0  0  0  0  0  0  0  0  0  0  0  0
    4.9257    1.7835   16.9989 H   0  0  0  0  0  0  0  0  0  0  0  0
    4.8060    1.3028   19.1059 C   0  0  0  0  0  0  0  0  0  0  0  0
    3.8796    1.8402   19.2525 H   0  0  0  0  0  0  0  0  0  0  0  0
    5.4318    0.6382   20.1575 C   0  0  0  0  0  0  0  0  0  0  0  0
    5.0139    0.6425   21.1675 H   0  0  0  0  0  0  0  0  0  0  0  0
    7.6757   -0.1829   22.2537 C   0  0  0  0  0  0  0  0  0  0  0  0
    7.4031    1.2620   22.5792 C   0  0  0  0  0  0  0  0  0  0  0  0
    7.8015    2.3110   21.7163 C   0  0  0  0  0  0  0  0  0  0  0  0
    8.2923    2.1090   20.7695 H   0  0  0  0  0  0  0  0  0  0  0  0
    7.5353    3.6282   22.1085 C   0  0  0  0  0  0  0  0  0  0  0  0
    7.9550    4.6826   21.3964 F   0  0  0  0  0  0  0  0  0  0  0  0
    6.8545    3.9489   23.2723 C   0  0  0  0  0  0  0  0  0  0  0  0
    6.6665    4.9888   23.5183 H   0  0  0  0  0  0  0  0  0  0  0  0
    6.4717    2.8985   24.0892 C   0  0  0  0  0  0  0  0  0  0  0  0
    5.8581    3.1953   25.2426 F   0  0  0  0  0  0  0  0  0  0  0  0
    6.7311    1.5682   23.7726 C   0  0  0  0  0  0  0  0  0  0  0  0
    6.4188    0.7985   24.4685 H   0  0  0  0  0  0  0  0  0  0  0  0
    8.2269   -0.9374   23.2332 N   0  0  0  0  0  0  0  0  0  0  0  0
    8.5592   -2.1915   22.9041 C   0  0  0  0  0  0  0  0  0  0  0  0
    9.0280   -2.7932   23.6781 H   0  0  0  0  0  0  0  0  0  0  0  0
  1  2  1  0
  2  3  2  0
  3  4  1  0
  4  5  1  0
  5  6  2  0
  6  7  1  0
  6  8  1  0
  8  9  2  0
  9 10  1  0
  9 11  1  0
 11 12  1  0
 11 13  2  0
 13 14  1  0
  4 15  2  0
 15 16  1  0
 16 17  2  0
 17 18  1  0
 17 19  1  0
 19 20  1  0
 19 21  2  0
 21 22  1  0
 21 23  1  0
 23 24  1  0
 23 25  2  0
 25 26  1  0
 15 27  1  0
 27 28  2  0
 28 29  1  0
 28  2  1  0
 13  5  1  0
 25 16  1  0
M  END
>  <cnnaffinity>  (1) 
-4.88943

>  <filename>  (1) 
Fc1cc(F)cc(-c2nccnc2-c2cccnc2)c1

$$$$
