
     RDKit          3D

 35 38  0  0  0  0  0  0  0  0999 V2000
    4.9469    1.8219   16.9771 H   0  0  0  0  0  0  0  0  0  0  0  0
    5.4020    1.2948   17.8140 C   0  0  0  0  0  0  0  0  0  0  0  0
    6.5618    0.6671   17.5608 N   0  0  0  0  0  0  0  0  0  0  0  0
    7.1514    0.0182   18.5690 C   0  0  0  0  0  0  0  0  0  0  0  0
    8.1054   -0.4547   18.3340 H   0  0  0  0  0  0  0  0  0  0  0  0
    6.6221   -0.0329   19.8698 C   0  0  0  0  0  0  0  0  0  0  0  0
    7.3554   -0.6937   20.9529 C   0  0  0  0  0  0  0  0  0  0  0  0
    8.0786   -1.7900   20.7341 N   0  0  0  0  0  0  0  0  0  0  0  0
    8.5568   -2.0927   21.9392 N   0  0  0  0  0  0  0  0  0  0  0  0
    8.2322   -1.2562   22.9214 C   0  0  0  0  0  0  0  0  0  0  0  0
    7.4490   -0.2872   22.3233 C   0  0  0  0  0  0  0  0  0  0  0  0
    7.0847    0.9595   22.9667 C   0  0  0  0  0  0  0  0  0  0  0  0
    7.2832    2.1885   22.3178 C   0  0  0  0  0  0  0  0  0  0  0  0
    7.6820    2.1862   21.3029 H   0  0  0  0  0  0  0  0  0  0  0  0
    6.9771    3.3773   22.9744 C   0  0  0  0  0  0  0  0  0  0  0  0
    7.1081    4.3456   22.5036 H   0  0  0  0  0  0  0  0  0  0  0  0
    6.4802    3.3279   24.2746 C   0  0  0  0  0  0  0  0  0  0  0  0
    6.1655    4.4616   24.9131 F   0  0  0  0  0  0  0  0  0  0  0  0
    6.2975    2.1022   24.9260 C   0  0  0  0  0  0  0  0  0  0  0  0
    5.8233    2.0796   26.1793 F   0  0  0  0  0  0  0  0  0  0  0  0
    6.6073    0.9193   24.2845 C   0  0  0  0  0  0  0  0  0  0  0  0
    6.4635   -0.0248   24.8058 H   0  0  0  0  0  0  0  0  0  0  0  0
    9.0721   -1.5015   24.1523 C   0  0  0  0  0  0  0  0  0  0  0  0
    9.6731   -0.6070   24.3643 H   0  0  0  0  0  0  0  0  0  0  0  0
    8.4627   -1.7036   25.0423 H   0  0  0  0  0  0  0  0  0  0  0  0
    9.9419   -2.7222   23.7270 C   0  0  0  0  0  0  0  0  0  0  0  0
    9.7568   -3.5947   24.3521 H   0  0  0  0  0  0  0  0  0  0  0  0
   11.0032   -2.4946   23.7818 H   0  0  0  0  0  0  0  0  0  0  0  0
    9.5666   -3.0570   22.2569 C   0  0  0  0  0  0  0  0  0  0  0  0
    9.1431   -4.0586   22.1452 H   0  0  0  0  0  0  0  0  0  0  0  0
   10.4018   -2.9022   21.5697 H   0  0  0  0  0  0  0  0  0  0  0  0
    5.4082    0.6251   20.1156 C   0  0  0  0  0  0  0  0  0  0  0  0
    4.9933    0.6484   21.1237 H   0  0  0  0  0  0  0  0  0  0  0  0
    4.7870    1.2986   19.0689 C   0  0  0  0  0  0  0  0  0  0  0  0
    3.8626    1.8466   19.2238 H   0  0  0  0  0  0  0  0  0  0  0  0
  1  2  1  0
  2  3  2  0
  3  4  1  0
  4  5  1  0
  4  6  2  0
  6  7  1  0
  7  8  2  0
  8  9  1  0
  9 10  1  0
 10 11  2  0
 11 12  1  0
 12 13  2  0
 13 14  1  0
 13 15  1  0
 15 16  1  0
 15 17  2  0
 17 18  1  0
 17 19  1  0
 19 20  1  0
 19 21  2  0
 21 22  1  0
 10 23  1  0
 23 24  1  0
 23 25  1  0
 23 26  1  0
 26 27  1  0
 26 28  1  0
 26 29  1  0
 29 30  1  0
 29 31  1  0
  6 32  1  0
 32 33  1  0
 32 34  2  0
 34 35  1  0
 34  2  1  0
 11  7  1  0
 21 12  1  0
 29  9  1  0
M  END
>  <cnnaffinity>  (1) 
-5.73581

>  <filename>  (1) 
Fc1ccc(-c2c(-c3cccnc3)nn3c2CCC3)cc1F

$$$$
