
     RDKit          3D

 27 29  0  0  0  0  0  0  0  0999 V2000
    4.9195    1.7905   16.9988 H   0  0  0  0  0  0  0  0  0  0  0  0
    5.3973    1.2890   17.8394 C   0  0  0  0  0  0  0  0  0  0  0  0
    6.5508    0.6612   17.5713 N   0  0  0  0  0  0  0  0  0  0  0  0
    7.1906    0.0584   18.5798 C   0  0  0  0  0  0  0  0  0  0  0  0
    8.1384   -0.4147   18.3439 H   0  0  0  0  0  0  0  0  0  0  0  0
    6.6929    0.0288   19.8976 C   0  0  0  0  0  0  0  0  0  0  0  0
    7.2953   -0.6660   20.9571 O   0  0  0  0  0  0  0  0  0  0  0  0
    8.6268   -0.7683   21.0801 C   0  0  0  0  0  0  0  0  0  0  0  0
    9.5507   -0.0847   20.4583 N   0  0  0  0  0  0  0  0  0  0  0  0
   10.7256   -0.5459   20.9488 N   0  0  0  0  0  0  0  0  0  0  0  0
   10.5457   -1.4711   21.8128 N   0  0  0  0  0  0  0  0  0  0  0  0
    9.1997   -1.6434   21.9343 N   0  0  0  0  0  0  0  0  0  0  0  0
    8.6415   -2.5992   22.8436 C   0  0  0  0  0  0  0  0  0  0  0  0
    7.3754   -2.3888   23.3993 C   0  0  0  0  0  0  0  0  0  0  0  0
    6.8224   -1.4916   23.1497 H   0  0  0  0  0  0  0  0  0  0  0  0
    6.8366   -3.3454   24.2613 C   0  0  0  0  0  0  0  0  0  0  0  0
    5.8535   -3.2192   24.6996 H   0  0  0  0  0  0  0  0  0  0  0  0
    7.5724   -4.4912   24.5514 C   0  0  0  0  0  0  0  0  0  0  0  0
    7.0451   -5.4044   25.3805 F   0  0  0  0  0  0  0  0  0  0  0  0
    8.8426   -4.7118   24.0241 C   0  0  0  0  0  0  0  0  0  0  0  0
    9.3799   -5.6132   24.3103 H   0  0  0  0  0  0  0  0  0  0  0  0
    9.3863   -3.7353   23.1843 C   0  0  0  0  0  0  0  0  0  0  0  0
   10.4103   -3.7758   22.8375 H   0  0  0  0  0  0  0  0  0  0  0  0
    5.4704    0.6433   20.1734 C   0  0  0  0  0  0  0  0  0  0  0  0
    5.0503    0.6042   21.1800 H   0  0  0  0  0  0  0  0  0  0  0  0
    4.8272    1.2970   19.1166 C   0  0  0  0  0  0  0  0  0  0  0  0
    3.8952    1.8228   19.2687 H   0  0  0  0  0  0  0  0  0  0  0  0
  1  2  1  0
  2  3  2  0
  3  4  1  0
  4  5  1  0
  4  6  2  0
  6  7  1  0
  7  8  1  0
  8  9  2  0
  9 10  1  0
 10 11  2  0
 11 12  1  0
 12 13  1  0
 13 14  2  0
 14 15  1  0
 14 16  1  0
 16 17  1  0
 16 18  2  0
 18 19  1  0
 18 20  1  0
 20 21  1  0
 20 22  2  0
 22 23  1  0
  6 24  1  0
 24 25  1  0
 24 26  2  0
 26 27  1  0
 26  2  1  0
 12  8  1  0
 22 13  1  0
M  END
>  <cnnaffinity>  (1) 
-5.16011

>  <filename>  (1) 
Fc1ccc(-n2nnnc2Oc2cccnc2)cc1

$$$$
