
     RDKit          3D

 38 41  0  0  0  0  0  0  0  0999 V2000
    5.0488    1.8142   16.9056 H   0  0  0  0  0  0  0  0  0  0  0  0
    5.4061    1.2872   17.7873 C   0  0  0  0  0  0  0  0  0  0  0  0
    6.5477    0.5939   17.6450 N   0  0  0  0  0  0  0  0  0  0  0  0
    7.0237   -0.0196   18.7353 C   0  0  0  0  0  0  0  0  0  0  0  0
    7.9360   -0.5986   18.5981 H   0  0  0  0  0  0  0  0  0  0  0  0
    6.4184    0.0152   20.0040 C   0  0  0  0  0  0  0  0  0  0  0  0
    7.1929   -0.5450   21.1306 C   0  0  0  0  0  0  0  0  0  0  0  0
    8.5530   -0.4797   21.3695 C   0  0  0  0  0  0  0  0  0  0  0  0
    8.7513   -1.1208   22.5868 C   0  0  0  0  0  0  0  0  0  0  0  0
    7.6381   -1.6120   23.1009 N   0  0  0  0  0  0  0  0  0  0  0  0
    6.6929   -1.2302   22.2014 N   0  0  0  0  0  0  0  0  0  0  0  0
    5.7587   -1.6105   22.2887 H   0  0  0  0  0  0  0  0  0  0  0  0
   10.1896   -1.1414   23.0108 C   0  0  0  0  0  0  0  0  0  0  0  0
   10.3021   -0.6646   23.9887 H   0  0  0  0  0  0  0  0  0  0  0  0
   10.5687   -2.1586   23.1340 H   0  0  0  0  0  0  0  0  0  0  0  0
   10.9280   -0.3908   21.8436 C   0  0  2  0  0  0  0  0  0  0  0  0
   11.6535   -1.0837   21.4009 H   0  0  0  0  0  0  0  0  0  0  0  0
   11.7585    0.8375   22.3098 C   0  0  0  0  0  0  0  0  0  0  0  0
   12.2553    1.2633   21.4270 H   0  0  0  0  0  0  0  0  0  0  0  0
   12.5708    0.4990   22.9684 H   0  0  0  0  0  0  0  0  0  0  0  0
   10.9796    1.9479   22.9909 C   0  0  0  0  0  0  0  0  0  0  0  0
   10.6715    1.9349   24.3638 C   0  0  0  0  0  0  0  0  0  0  0  0
   11.0431    1.1262   24.9910 H   0  0  0  0  0  0  0  0  0  0  0  0
    9.8932    2.9433   24.9410 C   0  0  0  0  0  0  0  0  0  0  0  0
    9.6107    2.9402   25.9882 H   0  0  0  0  0  0  0  0  0  0  0  0
    9.4691    4.0014   24.1452 C   0  0  0  0  0  0  0  0  0  0  0  0
    8.7353    4.9787   24.7049 F   0  0  0  0  0  0  0  0  0  0  0  0
    9.7865    4.0823   22.7959 C   0  0  0  0  0  0  0  0  0  0  0  0
    9.4372    4.9492   22.2412 H   0  0  0  0  0  0  0  0  0  0  0  0
   10.5371    3.0418   22.2299 C   0  0  0  0  0  0  0  0  0  0  0  0
   10.7857    3.0348   21.1694 H   0  0  0  0  0  0  0  0  0  0  0  0
    9.8503   -0.0602   20.7480 C   0  0  0  0  0  0  0  0  0  0  0  0
   10.0399   -0.6333   19.8350 H   0  0  0  0  0  0  0  0  0  0  0  0
    9.8653    0.9877   20.4281 H   0  0  0  0  0  0  0  0  0  0  0  0
    5.1780    0.6737   20.1037 C   0  0  0  0  0  0  0  0  0  0  0  0
    4.6328    0.6820   21.0466 H   0  0  0  0  0  0  0  0  0  0  0  0
    4.6790    1.3410   18.9821 C   0  0  0  0  0  0  0  0  0  0  0  0
    3.7564    1.9167   19.0269 H   0  0  0  0  0  0  0  0  0  0  0  0
  1  2  1  0
  2  3  2  0
  3  4  1  0
  4  5  1  0
  4  6  2  0
  6  7  1  0
  7  8  2  0
  8  9  1  0
  9 10  2  0
 10 11  1  0
 11 12  1  0
  9 13  1  0
 13 14  1  0
 13 15  1  0
 13 16  1  0
 16 17  1  6
 16 18  1  0
 18 19  1  0
 18 20  1  0
 18 21  1  0
 21 22  2  0
 22 23  1  0
 22 24  1  0
 24 25  1  0
 24 26  2  0
 26 27  1  0
 26 28  1  0
 28 29  1  0
 28 30  2  0
 30 31  1  0
 16 32  1  0
 32 33  1  0
 32 34  1  0
  6 35  1  0
 35 36  1  0
 35 37  2  0
 37 38  1  0
 37  2  1  0
 11  7  1  0
 30 21  1  0
 32  8  1  0
M  END
>  <cnnaffinity>  (1) 
-5.5611

>  <filename>  (1) 
Fc1ccc(C[C@H]2Cc3n[nH]c(-c4cccnc4)c3C2)cc1

$$$$
