
     RDKit          3D

 24 25  0  0  0  0  0  0  0  0999 V2000
    4.9152    1.7874   16.9891 H   0  0  0  0  0  0  0  0  0  0  0  0
    5.3988    1.2981   17.8312 C   0  0  0  0  0  0  0  0  0  0  0  0
    6.5620    0.6865   17.5656 N   0  0  0  0  0  0  0  0  0  0  0  0
    7.1593    0.0644   18.5879 C   0  0  0  0  0  0  0  0  0  0  0  0
    8.1100   -0.4191   18.3641 H   0  0  0  0  0  0  0  0  0  0  0  0
    6.6402   -0.0172   19.8894 C   0  0  0  0  0  0  0  0  0  0  0  0
    7.4095   -0.6980   21.0052 C   0  0  0  0  0  0  0  0  0  0  0  0
    7.9725   -1.5505   20.6038 H   0  0  0  0  0  0  0  0  0  0  0  0
    6.7031   -1.1130   21.7355 H   0  0  0  0  0  0  0  0  0  0  0  0
    8.3499    0.2742   21.6881 C   0  0  0  0  0  0  0  0  0  0  0  0
    9.6503    0.4682   21.2053 C   0  0  0  0  0  0  0  0  0  0  0  0
    9.9892   -0.1256   20.3621 H   0  0  0  0  0  0  0  0  0  0  0  0
   10.5112    1.3943   21.7969 C   0  0  0  0  0  0  0  0  0  0  0  0
   11.5318    1.5406   21.4561 H   0  0  0  0  0  0  0  0  0  0  0  0
   10.0550    2.1451   22.8748 C   0  0  0  0  0  0  0  0  0  0  0  0
   10.8697    3.0246   23.4707 F   0  0  0  0  0  0  0  0  0  0  0  0
    8.7457    1.9877   23.3446 C   0  0  0  0  0  0  0  0  0  0  0  0
    8.3195    2.7224   24.3812 F   0  0  0  0  0  0  0  0  0  0  0  0
    7.8934    1.0679   22.7515 C   0  0  0  0  0  0  0  0  0  0  0  0
    6.8797    0.9831   23.1336 H   0  0  0  0  0  0  0  0  0  0  0  0
    5.4347    0.6469   20.1487 C   0  0  0  0  0  0  0  0  0  0  0  0
    5.0070    0.6360   21.1559 H   0  0  0  0  0  0  0  0  0  0  0  0
    4.8026    1.3153   19.0980 C   0  0  0  0  0  0  0  0  0  0  0  0
    3.8680    1.8489   19.2528 H   0  0  0  0  0  0  0  0  0  0  0  0
  1  2  1  0
  2  3  2  0
  3  4  1  0
  4  5  1  0
  4  6  2  0
  6  7  1  0
  7  8  1  0
  7  9  1  0
  7 10  1  0
 10 11  2  0
 11 12  1  0
 11 13  1  0
 13 14  1  0
 13 15  2  0
 15 16  1  0
 15 17  1  0
 17 18  1  0
 17 19  2  0
 19 20  1  0
  6 21  1  0
 21 22  1  0
 21 23  2  0
 23 24  1  0
 23  2  1  0
 19 10  1  0
M  END
>  <cnnaffinity>  (1) 
-4.52027

>  <filename>  (1) 
Fc1ccc(Cc2cccnc2)cc1F

$$$$
