
     RDKit          3D

 30 33  0  0  0  0  0  0  0  0999 V2000
    4.9264    1.7725   17.0029 H   0  0  0  0  0  0  0  0  0  0  0  0
    5.4108    1.2853   17.8464 C   0  0  0  0  0  0  0  0  0  0  0  0
    6.5752    0.6668   17.5946 N   0  0  0  0  0  0  0  0  0  0  0  0
    7.1799    0.0535   18.6163 C   0  0  0  0  0  0  0  0  0  0  0  0
    8.1255   -0.4322   18.3846 H   0  0  0  0  0  0  0  0  0  0  0  0
    6.6449    0.0161   19.9119 C   0  0  0  0  0  0  0  0  0  0  0  0
    7.3626   -0.6888   20.9673 C   0  0  0  0  0  0  0  0  0  0  0  0
    8.5482   -1.3249   20.7530 N   0  0  0  0  0  0  0  0  0  0  0  0
    8.8086   -1.8111   21.9475 C   0  0  0  0  0  0  0  0  0  0  0  0
   10.0200   -2.7876   22.7361 S   0  0  0  0  0  0  0  0  0  0  0  0
    9.1063   -2.7294   24.2115 C   0  0  0  0  0  0  0  0  0  0  0  0
    9.4854   -3.2284   25.0921 H   0  0  0  0  0  0  0  0  0  0  0  0
    7.9716   -2.0032   24.1157 C   0  0  0  0  0  0  0  0  0  0  0  0
    6.9918   -1.7212   25.1867 C   0  0  0  0  0  0  0  0  0  0  0  0
    6.3729   -0.4625   25.3240 C   0  0  0  0  0  0  0  0  0  0  0  0
    6.6063    0.3092   24.5967 H   0  0  0  0  0  0  0  0  0  0  0  0
    5.4687   -0.2131   26.3546 C   0  0  0  0  0  0  0  0  0  0  0  0
    4.9981    0.7622   26.4310 H   0  0  0  0  0  0  0  0  0  0  0  0
    5.1629   -1.2162   27.2802 C   0  0  0  0  0  0  0  0  0  0  0  0
    4.4590   -1.0258   28.0823 H   0  0  0  0  0  0  0  0  0  0  0  0
    5.7610   -2.4733   27.1788 C   0  0  0  0  0  0  0  0  0  0  0  0
    5.5489   -3.2754   27.8807 H   0  0  0  0  0  0  0  0  0  0  0  0
    6.6586   -2.7016   26.1410 C   0  0  0  0  0  0  0  0  0  0  0  0
    7.2101   -3.9272   26.0593 F   0  0  0  0  0  0  0  0  0  0  0  0
    7.8430   -1.4799   22.8286 N   0  0  0  0  0  0  0  0  0  0  0  0
    6.8871   -0.7500   22.2075 N   0  0  0  0  0  0  0  0  0  0  0  0
    5.4251    0.6590   20.1682 C   0  0  0  0  0  0  0  0  0  0  0  0
    4.9979    0.6345   21.1766 H   0  0  0  0  0  0  0  0  0  0  0  0
    4.8045    1.3098   19.1090 C   0  0  0  0  0  0  0  0  0  0  0  0
    3.8736    1.8433   19.2588 H   0  0  0  0  0  0  0  0  0  0  0  0
  1  2  1  0
  2  3  2  0
  3  4  1  0
  4  5  1  0
  4  6  2  0
  6  7  1  0
  7  8  1  0
  8  9  2  0
  9 10  1  0
 10 11  1  0
 11 12  1  0
 11 13  2  0
 13 14  1  0
 14 15  2  0
 15 16  1  0
 15 17  1  0
 17 18  1  0
 17 19  2  0
 19 20  1  0
 19 21  1  0
 21 22  1  0
 21 23  2  0
 23 24  1  0
 13 25  1  0
 25 26  1  0
  6 27  1  0
 27 28  1  0
 27 29  2  0
 29 30  1  0
 29  2  1  0
 26  7  2  0
 25  9  1  0
 23 14  1  0
M  END
>  <cnnaffinity>  (1) 
-5.50668

>  <filename>  (1) 
Fc1ccccc1-c1csc2nc(-c3cccnc3)nn12

$$$$
