
     RDKit          3D

 26 28  0  0  0  0  0  0  0  0999 V2000
    4.9423    1.8079   16.9587 H   0  0  0  0  0  0  0  0  0  0  0  0
    5.4133    1.3112   17.8101 C   0  0  0  0  0  0  0  0  0  0  0  0
    6.5801    0.6869   17.5804 N   0  0  0  0  0  0  0  0  0  0  0  0
    7.1623    0.0650   18.6164 C   0  0  0  0  0  0  0  0  0  0  0  0
    8.1083   -0.4225   18.3922 H   0  0  0  0  0  0  0  0  0  0  0  0
    6.6375    0.0140   19.9324 C   0  0  0  0  0  0  0  0  0  0  0  0
    7.2990   -0.7021   21.0638 C   0  0  0  0  0  0  0  0  0  0  0  0
    7.5248   -0.2624   22.4270 C   0  0  0  0  0  0  0  0  0  0  0  0
    7.1807    1.0165   23.0740 C   0  0  0  0  0  0  0  0  0  0  0  0
    6.7299    1.0159   24.4091 C   0  0  0  0  0  0  0  0  0  0  0  0
    6.6448    0.0882   24.9724 H   0  0  0  0  0  0  0  0  0  0  0  0
    6.3680    2.1282   25.0570 N   0  0  0  0  0  0  0  0  0  0  0  0
    6.4646    3.2985   24.4127 C   0  0  0  0  0  0  0  0  0  0  0  0
    6.1639    4.1981   24.9477 H   0  0  0  0  0  0  0  0  0  0  0  0
    6.9325    3.3886   23.0972 C   0  0  0  0  0  0  0  0  0  0  0  0
    7.0214    4.5877   22.5066 F   0  0  0  0  0  0  0  0  0  0  0  0
    7.3063    2.2458   22.4032 C   0  0  0  0  0  0  0  0  0  0  0  0
    7.6720    2.3226   21.3783 H   0  0  0  0  0  0  0  0  0  0  0  0
    8.1403   -1.1824   23.1292 N   0  0  0  0  0  0  0  0  0  0  0  0
    8.3269   -2.2477   22.2952 O   0  0  0  0  0  0  0  0  0  0  0  0
    7.8141   -1.9639   21.1005 C   0  0  0  0  0  0  0  0  0  0  0  0
    7.8395   -2.8030   20.4324 H   0  0  0  0  0  0  0  0  0  0  0  0
    5.4211    0.6806   20.1362 C   0  0  0  0  0  0  0  0  0  0  0  0
    4.9868    0.6979   21.1351 H   0  0  0  0  0  0  0  0  0  0  0  0
    4.7974    1.3256   19.0640 C   0  0  0  0  0  0  0  0  0  0  0  0
    3.8519    1.8409   19.1868 H   0  0  0  0  0  0  0  0  0  0  0  0
  1  2  1  0
  2  3  2  0
  3  4  1  0
  4  5  1  0
  4  6  2  0
  6  7  1  0
  7  8  1  0
  8  9  1  0
  9 10  2  0
 10 11  1  0
 10 12  1  0
 12 13  2  0
 13 14  1  0
 13 15  1  0
 15 16  1  0
 15 17  2  0
 17 18  1  0
  8 19  2  0
 19 20  1  0
 20 21  1  0
 21 22  1  0
  6 23  1  0
 23 24  1  0
 23 25  2  0
 25 26  1  0
 25  2  1  0
 21  7  2  0
 17  9  1  0
M  END
>  <cnnaffinity>  (1) 
-4.86057

>  <filename>  (1) 
Fc1cncc(-c2nocc2-c2cccnc2)c1

$$$$
