
     RDKit          3D

 32 34  0  0  0  0  0  0  0  0999 V2000
    9.3922    0.9171   20.2293 H   0  0  0  0  0  0  0  0  0  0  0  0
    9.6876    0.0652   20.8485 C   0  0  0  0  0  0  0  0  0  0  0  0
    8.7471   -0.7959   21.2829 C   0  0  0  0  0  0  0  0  0  0  0  0
    7.2839   -0.8064   21.0007 C   0  0  0  0  0  0  0  0  0  0  0  0
    6.6243   -0.0254   19.9261 C   0  0  0  0  0  0  0  0  0  0  0  0
    7.1932    0.0163   18.6496 C   0  0  0  0  0  0  0  0  0  0  0  0
    8.1451   -0.4832   18.4611 H   0  0  0  0  0  0  0  0  0  0  0  0
    6.6508    0.6531   17.6053 N   0  0  0  0  0  0  0  0  0  0  0  0
    5.4941    1.3015   17.8178 C   0  0  0  0  0  0  0  0  0  0  0  0
    5.0680    1.8095   16.9552 H   0  0  0  0  0  0  0  0  0  0  0  0
    4.8326    1.3187   19.0523 C   0  0  0  0  0  0  0  0  0  0  0  0
    3.8992    1.8691   19.1527 H   0  0  0  0  0  0  0  0  0  0  0  0
    5.3972    0.6314   20.1262 C   0  0  0  0  0  0  0  0  0  0  0  0
    4.9103    0.6002   21.1027 H   0  0  0  0  0  0  0  0  0  0  0  0
    6.6125   -1.5784   21.7699 N   0  0  0  0  0  0  0  0  0  0  0  0
    7.5004   -2.1852   22.7633 C   0  0  0  0  0  0  0  0  0  0  0  0
    7.2969   -3.2575   22.8284 H   0  0  0  0  0  0  0  0  0  0  0  0
    7.2572   -1.7514   23.7389 H   0  0  0  0  0  0  0  0  0  0  0  0
    8.9522   -1.8558   22.3487 C   0  0  0  0  0  0  0  0  0  0  0  0
    9.5726   -1.4945   23.1736 H   0  0  0  0  0  0  0  0  0  0  0  0
    9.4469   -2.7393   21.9340 H   0  0  0  0  0  0  0  0  0  0  0  0
   11.1038    0.0715   21.3185 C   0  0  0  0  0  0  0  0  0  0  0  0
   11.6681    1.2716   21.7901 C   0  0  0  0  0  0  0  0  0  0  0  0
   11.0779    2.1828   21.7728 H   0  0  0  0  0  0  0  0  0  0  0  0
   12.9506    1.3000   22.3481 C   0  0  0  0  0  0  0  0  0  0  0  0
   13.3509    2.2430   22.7177 H   0  0  0  0  0  0  0  0  0  0  0  0
   13.7324    0.1396   22.3850 C   0  0  0  0  0  0  0  0  0  0  0  0
   14.7282    0.1236   22.8207 H   0  0  0  0  0  0  0  0  0  0  0  0
   13.1950   -1.0262   21.8501 C   0  0  0  0  0  0  0  0  0  0  0  0
   13.9508   -2.1383   21.8384 F   0  0  0  0  0  0  0  0  0  0  0  0
   11.8950   -1.0941   21.3543 C   0  0  0  0  0  0  0  0  0  0  0  0
   11.5011   -2.0460   21.0162 H   0  0  0  0  0  0  0  0  0  0  0  0
  1  2  1  0
  2  3  2  3
  3  4  1  0
  4  5  1  0
  5  6  2  0
  6  7  1  0
  6  8  1  0
  8  9  2  0
  9 10  1  0
  9 11  1  0
 11 12  1  0
 11 13  2  0
 13 14  1  0
  4 15  2  0
 15 16  1  0
 16 17  1  0
 16 18  1  0
 16 19  1  0
 19 20  1  0
 19 21  1  0
  2 22  1  0
 22 23  2  0
 23 24  1  0
 23 25  1  0
 25 26  1  0
 25 27  2  0
 27 28  1  0
 27 29  1  0
 29 30  1  0
 29 31  2  0
 31 32  1  0
 19  3  1  0
 31 22  1  0
 13  5  1  0
M  END
>  <cnnaffinity>  (1) 
-5.83653

>  <filename>  (1) 
Fc1cccc(C=C2CCN=C2c2cccnc2)c1

$$$$
