
     RDKit          3D

 30 32  0  0  0  0  0  0  0  0999 V2000
    4.9525    1.7718   16.9200 H   0  0  0  0  0  0  0  0  0  0  0  0
    5.3975    1.3299   17.8103 C   0  0  0  0  0  0  0  0  0  0  0  0
    6.5929    0.7483   17.6367 N   0  0  0  0  0  0  0  0  0  0  0  0
    7.1587    0.1994   18.7122 C   0  0  0  0  0  0  0  0  0  0  0  0
    8.1286   -0.2571   18.5393 H   0  0  0  0  0  0  0  0  0  0  0  0
    6.6017    0.1857   19.9983 C   0  0  0  0  0  0  0  0  0  0  0  0
    7.3691   -0.4898   21.0861 C   0  0  0  0  0  0  0  0  0  0  0  0
    7.1669   -0.0761   22.3414 N   0  0  0  0  0  0  0  0  0  0  0  0
    7.7963   -0.7097   23.3503 C   0  0  0  0  0  0  0  0  0  0  0  0
    7.6387   -0.1463   24.7403 C   0  0  0  0  0  0  0  0  0  0  0  0
    8.5977   -0.4170   25.7427 C   0  0  0  0  0  0  0  0  0  0  0  0
    9.5191   -0.9629   25.5641 H   0  0  0  0  0  0  0  0  0  0  0  0
    8.3892    0.0502   27.0326 C   0  0  0  0  0  0  0  0  0  0  0  0
    9.2498   -0.3335   27.9884 F   0  0  0  0  0  0  0  0  0  0  0  0
    7.3050    0.8544   27.3722 C   0  0  0  0  0  0  0  0  0  0  0  0
    7.1913    1.2410   28.3738 H   0  0  0  0  0  0  0  0  0  0  0  0
    6.3937    1.1504   26.3573 C   0  0  0  0  0  0  0  0  0  0  0  0
    5.3533    1.9482   26.6416 F   0  0  0  0  0  0  0  0  0  0  0  0
    6.5248    0.6537   25.0662 C   0  0  0  0  0  0  0  0  0  0  0  0
    5.7765    0.8974   24.3166 H   0  0  0  0  0  0  0  0  0  0  0  0
    8.5529   -1.8765   23.1394 C   0  0  0  0  0  0  0  0  0  0  0  0
    8.9396   -2.4329   23.9856 H   0  0  0  0  0  0  0  0  0  0  0  0
    8.7897   -2.2932   21.8323 C   0  0  0  0  0  0  0  0  0  0  0  0
    9.3848   -3.1759   21.6128 H   0  0  0  0  0  0  0  0  0  0  0  0
    8.2576   -1.5382   20.7954 C   0  0  0  0  0  0  0  0  0  0  0  0
    8.5446   -1.7260   19.7755 H   0  0  0  0  0  0  0  0  0  0  0  0
    5.3509    0.8109   20.1651 C   0  0  0  0  0  0  0  0  0  0  0  0
    4.8803    0.8617   21.1493 H   0  0  0  0  0  0  0  0  0  0  0  0
    4.7393    1.3777   19.0427 C   0  0  0  0  0  0  0  0  0  0  0  0
    3.7764    1.8757   19.1079 H   0  0  0  0  0  0  0  0  0  0  0  0
  1  2  1  0
  2  3  2  0
  3  4  1  0
  4  5  1  0
  4  6  2  0
  6  7  1  0
  7  8  2  0
  8  9  1  0
  9 10  1  0
 10 11  2  0
 11 12  1  0
 11 13  1  0
 13 14  1  0
 13 15  2  0
 15 16  1  0
 15 17  1  0
 17 18  1  0
 17 19  2  0
 19 20  1  0
  9 21  2  0
 21 22  1  0
 21 23  1  0
 23 24  1  0
 23 25  2  0
 25 26  1  0
  6 27  1  0
 27 28  1  0
 27 29  2  0
 29 30  1  0
 29  2  1  0
 25  7  1  0
 19 10  1  0
M  END
>  <cnnaffinity>  (1) 
-4.86692

>  <filename>  (1) 
Fc1cc(F)cc(-c2cccc(-c3cccnc3)n2)c1

$$$$
