
     RDKit          3D

 30 33  0  0  0  0  0  0  0  0999 V2000
    4.9130    1.8149   16.9706 H   0  0  0  0  0  0  0  0  0  0  0  0
    5.3766    1.3057   17.8172 C   0  0  0  0  0  0  0  0  0  0  0  0
    6.5390    0.6851   17.5618 N   0  0  0  0  0  0  0  0  0  0  0  0
    7.1511    0.0777   18.5821 C   0  0  0  0  0  0  0  0  0  0  0  0
    8.1013   -0.3892   18.3317 H   0  0  0  0  0  0  0  0  0  0  0  0
    6.6624    0.0289   19.9092 C   0  0  0  0  0  0  0  0  0  0  0  0
    7.4188   -0.6736   20.9659 C   0  0  0  0  0  0  0  0  0  0  0  0
    8.3357   -1.6968   20.9069 C   0  0  0  0  0  0  0  0  0  0  0  0
    8.7499   -2.1093   20.0069 H   0  0  0  0  0  0  0  0  0  0  0  0
    8.7861   -2.1171   22.1271 N   0  0  0  0  0  0  0  0  0  0  0  0
    8.1715   -1.3106   22.9502 C   0  0  0  0  0  0  0  0  0  0  0  0
    8.2466   -0.9647   24.6384 S   0  0  0  0  0  0  0  0  0  0  0  0
    7.1304    0.3725   24.3160 C   0  0  0  0  0  0  0  0  0  0  0  0
    6.6694    1.2711   25.3943 C   0  0  0  0  0  0  0  0  0  0  0  0
    7.1171    1.0852   26.7155 C   0  0  0  0  0  0  0  0  0  0  0  0
    7.8093    0.3015   27.0066 H   0  0  0  0  0  0  0  0  0  0  0  0
    6.6581    1.9418   27.7038 C   0  0  0  0  0  0  0  0  0  0  0  0
    7.0913    1.7520   28.9562 F   0  0  0  0  0  0  0  0  0  0  0  0
    5.7722    2.9799   27.4409 C   0  0  0  0  0  0  0  0  0  0  0  0
    5.4284    3.6316   28.2281 H   0  0  0  0  0  0  0  0  0  0  0  0
    5.3481    3.1442   26.1258 C   0  0  0  0  0  0  0  0  0  0  0  0
    4.4943    4.1394   25.8499 F   0  0  0  0  0  0  0  0  0  0  0  0
    5.7741    2.3190   25.0931 C   0  0  0  0  0  0  0  0  0  0  0  0
    5.4134    2.4996   24.0849 H   0  0  0  0  0  0  0  0  0  0  0  0
    6.7496    0.5222   23.0862 N   0  0  0  0  0  0  0  0  0  0  0  0
    7.3321   -0.4314   22.3311 N   0  0  0  0  0  0  0  0  0  0  0  0
    5.4312    0.6689   20.1451 C   0  0  0  0  0  0  0  0  0  0  0  0
    5.0162    0.6600   21.1510 H   0  0  0  0  0  0  0  0  0  0  0  0
    4.7868    1.3160   19.0856 C   0  0  0  0  0  0  0  0  0  0  0  0
    3.8539    1.8509   19.2270 H   0  0  0  0  0  0  0  0  0  0  0  0
  1  2  1  0
  2  3  2  0
  3  4  1  0
  4  5  1  0
  4  6  2  0
  6  7  1  0
  7  8  2  0
  8  9  1  0
  8 10  1  0
 10 11  2  0
 11 12  1  0
 12 13  1  0
 13 14  1  0
 14 15  2  0
 15 16  1  0
 15 17  1  0
 17 18  1  0
 17 19  2  0
 19 20  1  0
 19 21  1  0
 21 22  1  0
 21 23  2  0
 23 24  1  0
 13 25  2  0
 25 26  1  0
  6 27  1  0
 27 28  1  0
 27 29  2  0
 29 30  1  0
 29  2  1  0
 26  7  1  0
 26 11  1  0
 23 14  1  0
M  END
>  <cnnaffinity>  (1) 
-5.2935

>  <filename>  (1) 
Fc1cc(F)cc(-c2nn3c(-c4cccnc4)cnc3s2)c1

$$$$
