
     RDKit          3D

 24 25  0  0  0  0  0  0  0  0999 V2000
    5.0778    1.9237   16.9997 H   0  0  0  0  0  0  0  0  0  0  0  0
    5.4795    1.3284   17.8176 C   0  0  0  0  0  0  0  0  0  0  0  0
    6.6145    0.6464   17.5782 N   0  0  0  0  0  0  0  0  0  0  0  0
    7.1580   -0.0613   18.5863 C   0  0  0  0  0  0  0  0  0  0  0  0
    8.0657   -0.6118   18.3286 H   0  0  0  0  0  0  0  0  0  0  0  0
    6.5980   -0.1380   19.8971 C   0  0  0  0  0  0  0  0  0  0  0  0
    7.0587   -0.8765   21.0113 N   0  0  0  0  0  0  0  0  0  0  0  0
    6.4923   -0.7222   21.8406 H   0  0  0  0  0  0  0  0  0  0  0  0
    8.6379   -1.3943   21.3523 S   0  0  0  0  0  0  0  0  0  0  0  0
    9.4593    0.1197   21.8890 C   0  0  0  0  0  0  0  0  0  0  0  0
    9.6916    0.4201   23.2396 C   0  0  0  0  0  0  0  0  0  0  0  0
    9.3733   -0.2236   24.0499 H   0  0  0  0  0  0  0  0  0  0  0  0
   10.4145    1.5739   23.5342 C   0  0  0  0  0  0  0  0  0  0  0  0
   10.6326    1.8929   24.8167 F   0  0  0  0  0  0  0  0  0  0  0  0
   10.9835    2.3737   22.5563 C   0  0  0  0  0  0  0  0  0  0  0  0
   11.5905    3.2256   22.8161 H   0  0  0  0  0  0  0  0  0  0  0  0
   10.7497    2.0358   21.2329 C   0  0  0  0  0  0  0  0  0  0  0  0
   11.3649    2.7398   20.2795 F   0  0  0  0  0  0  0  0  0  0  0  0
    9.9298    0.9672   20.8806 C   0  0  0  0  0  0  0  0  0  0  0  0
    9.6427    0.7736   19.8576 H   0  0  0  0  0  0  0  0  0  0  0  0
    5.3957    0.5595   20.0935 C   0  0  0  0  0  0  0  0  0  0  0  0
    4.9356    0.4922   21.0796 H   0  0  0  0  0  0  0  0  0  0  0  0
    4.8354    1.3054   19.0595 C   0  0  0  0  0  0  0  0  0  0  0  0
    3.9266    1.8784   19.2179 H   0  0  0  0  0  0  0  0  0  0  0  0
  1  2  1  0
  2  3  2  0
  3  4  1  0
  4  5  1  0
  4  6  2  0
  6  7  1  0
  7  8  1  0
  7  9  1  0
  9 10  1  0
 10 11  2  0
 11 12  1  0
 11 13  1  0
 13 14  1  0
 13 15  2  0
 15 16  1  0
 15 17  1  0
 17 18  1  0
 17 19  2  0
 19 20  1  0
  6 21  1  0
 21 22  1  0
 21 23  2  0
 23 24  1  0
 23  2  1  0
 19 10  1  0
M  END
>  <cnnaffinity>  (1) 
-5.0787

>  <filename>  (1) 
Fc1cc(F)cc(SNc2cccnc2)c1

$$$$
