
     RDKit          3D

 30 32  0  0  0  0  0  0  0  0999 V2000
    4.9114    1.7984   16.9797 H   0  0  0  0  0  0  0  0  0  0  0  0
    5.3879    1.3052   17.8205 C   0  0  0  0  0  0  0  0  0  0  0  0
    6.5532    0.6908   17.5513 N   0  0  0  0  0  0  0  0  0  0  0  0
    7.1577    0.0648   18.5673 C   0  0  0  0  0  0  0  0  0  0  0  0
    8.1158   -0.4005   18.3356 H   0  0  0  0  0  0  0  0  0  0  0  0
    6.6502    0.0127   19.8824 C   0  0  0  0  0  0  0  0  0  0  0  0
    7.3694   -0.6567   20.9726 C   0  0  0  0  0  0  0  0  0  0  0  0
    7.5147   -0.3211   22.3139 C   0  0  0  0  0  0  0  0  0  0  0  0
    7.0286    0.8345   22.9282 N   0  0  0  0  0  0  0  0  0  0  0  0
    6.9835    1.6469   22.3356 H   0  0  0  0  0  0  0  0  0  0  0  0
    6.8193    1.0324   24.2948 C   0  0  0  0  0  0  0  0  0  0  0  0
    6.3545   -0.0185   25.1005 C   0  0  0  0  0  0  0  0  0  0  0  0
    6.1780   -0.9748   24.6187 H   0  0  0  0  0  0  0  0  0  0  0  0
    6.1397    0.1680   26.4656 C   0  0  0  0  0  0  0  0  0  0  0  0
    5.7900   -0.6397   27.0976 H   0  0  0  0  0  0  0  0  0  0  0  0
    6.3811    1.4210   27.0182 C   0  0  0  0  0  0  0  0  0  0  0  0
    6.1658    1.6026   28.3317 F   0  0  0  0  0  0  0  0  0  0  0  0
    6.8286    2.4904   26.2440 C   0  0  0  0  0  0  0  0  0  0  0  0
    6.9911    3.4506   26.7221 H   0  0  0  0  0  0  0  0  0  0  0  0
    7.0391    2.2933   24.8731 C   0  0  0  0  0  0  0  0  0  0  0  0
    7.3940    3.1123   24.2519 H   0  0  0  0  0  0  0  0  0  0  0  0
    8.2890   -1.3757   22.8619 C   0  0  0  0  0  0  0  0  0  0  0  0
    8.6236   -1.4643   23.8852 H   0  0  0  0  0  0  0  0  0  0  0  0
    8.6041   -2.2895   21.9518 N   0  0  0  0  0  0  0  0  0  0  0  0
    8.0482   -1.8243   20.8228 N   0  0  0  0  0  0  0  0  0  0  0  0
    8.1331   -2.3631   19.9767 H   0  0  0  0  0  0  0  0  0  0  0  0
    5.4322    0.6614   20.1414 C   0  0  0  0  0  0  0  0  0  0  0  0
    5.0171    0.6259   21.1517 H   0  0  0  0  0  0  0  0  0  0  0  0
    4.7947    1.3188   19.0887 C   0  0  0  0  0  0  0  0  0  0  0  0
    3.8649    1.8485   19.2454 H   0  0  0  0  0  0  0  0  0  0  0  0
  1  2  1  0
  2  3  2  0
  3  4  1  0
  4  5  1  0
  4  6  2  0
  6  7  1  0
  7  8  2  0
  8  9  1  0
  9 10  1  0
  9 11  1  0
 11 12  2  0
 12 13  1  0
 12 14  1  0
 14 15  1  0
 14 16  2  0
 16 17  1  0
 16 18  1  0
 18 19  1  0
 18 20  2  0
 20 21  1  0
  8 22  1  0
 22 23  1  0
 22 24  2  0
 24 25  1  0
 25 26  1  0
  6 27  1  0
 27 28  1  0
 27 29  2  0
 29 30  1  0
 29  2  1  0
 25  7  1  0
 20 11  1  0
M  END
>  <cnnaffinity>  (1) 
-5.2853

>  <filename>  (1) 
Fc1ccc(Nc2cn[nH]c2-c2cccnc2)cc1

$$$$
