
     RDKit          3D

 29 31  0  0  0  0  0  0  0  0999 V2000
    4.9311    1.8037   16.9936 H   0  0  0  0  0  0  0  0  0  0  0  0
    5.3947    1.2915   17.8302 C   0  0  0  0  0  0  0  0  0  0  0  0
    6.5495    0.6616   17.5590 N   0  0  0  0  0  0  0  0  0  0  0  0
    7.1719    0.0486   18.5731 C   0  0  0  0  0  0  0  0  0  0  0  0
    8.1263   -0.4312   18.3561 H   0  0  0  0  0  0  0  0  0  0  0  0
    6.6538    0.0090   19.8832 C   0  0  0  0  0  0  0  0  0  0  0  0
    7.3345   -0.6711   20.9402 N   0  0  0  0  0  0  0  0  0  0  0  0
    6.7333   -1.5962   21.7789 C   0  0  0  0  0  0  0  0  0  0  0  0
    5.6878   -1.8473   21.7109 H   0  0  0  0  0  0  0  0  0  0  0  0
    7.6706   -2.0445   22.6463 C   0  0  0  0  0  0  0  0  0  0  0  0
    7.5630   -3.0001   23.7512 C   0  0  0  0  0  0  0  0  0  0  0  0
    6.7216   -4.1230   23.6575 C   0  0  0  0  0  0  0  0  0  0  0  0
    6.0449   -4.3468   22.5125 F   0  0  0  0  0  0  0  0  0  0  0  0
    6.5391   -5.0410   24.6875 C   0  0  0  0  0  0  0  0  0  0  0  0
    5.8583   -5.8663   24.5040 H   0  0  0  0  0  0  0  0  0  0  0  0
    7.2153   -4.8552   25.8988 C   0  0  0  0  0  0  0  0  0  0  0  0
    7.0817   -5.5682   26.7144 H   0  0  0  0  0  0  0  0  0  0  0  0
    8.0663   -3.7507   26.0499 C   0  0  0  0  0  0  0  0  0  0  0  0
    8.6195   -3.5521   26.9642 H   0  0  0  0  0  0  0  0  0  0  0  0
    8.2262   -2.8635   24.9883 C   0  0  0  0  0  0  0  0  0  0  0  0
    9.0589   -1.8189   25.1788 F   0  0  0  0  0  0  0  0  0  0  0  0
    8.8371   -1.3808   22.3211 N   0  0  0  0  0  0  0  0  0  0  0  0
    9.7362   -1.4113   22.7688 H   0  0  0  0  0  0  0  0  0  0  0  0
    8.6537   -0.4956   21.3116 C   0  0  0  0  0  0  0  0  0  0  0  0
    9.8177    0.5566   20.7880 S   0  0  0  0  0  0  0  0  0  0  0  0
    5.4424    0.6494   20.1504 C   0  0  0  0  0  0  0  0  0  0  0  0
    5.0428    0.6324   21.1665 H   0  0  0  0  0  0  0  0  0  0  0  0
    4.8038    1.3118   19.0998 C   0  0  0  0  0  0  0  0  0  0  0  0
    3.8724    1.8443   19.2589 H   0  0  0  0  0  0  0  0  0  0  0  0
  1  2  1  0
  2  3  2  0
  3  4  1  0
  4  5  1  0
  4  6  2  0
  6  7  1  0
  7  8  1  0
  8  9  1  0
  8 10  2  0
 10 11  1  0
 11 12  2  0
 12 13  1  0
 12 14  1  0
 14 15  1  0
 14 16  2  0
 16 17  1  0
 16 18  1  0
 18 19  1  0
 18 20  2  0
 20 21  1  0
 10 22  1  0
 22 23  1  0
 22 24  1  0
 24 25  2  0
  6 26  1  0
 26 27  1  0
 26 28  2  0
 28 29  1  0
 28  2  1  0
 24  7  1  0
 20 11  1  0
M  END
>  <cnnaffinity>  (1) 
-5.70869

>  <filename>  (1) 
Fc1cccc(F)c1-c1cn(-c2cccnc2)c(=S)[nH]1

$$$$
