
     RDKit          3D

 35 38  0  0  0  0  0  0  0  0999 V2000
    4.8806    1.9587   16.5845 H   0  0  0  0  0  0  0  0  0  0  0  0
    5.2067    1.5113   17.5200 C   0  0  0  0  0  0  0  0  0  0  0  0
    6.3558    0.8207   17.4630 N   0  0  0  0  0  0  0  0  0  0  0  0
    6.8008    0.2833   18.6044 C   0  0  0  0  0  0  0  0  0  0  0  0
    7.7447   -0.2615   18.5268 H   0  0  0  0  0  0  0  0  0  0  0  0
    6.1530    0.3969   19.8499 C   0  0  0  0  0  0  0  0  0  0  0  0
    6.7963   -0.1888   21.0863 C   0  0  1  0  0  0  0  0  0  0  0  0
    6.1794    0.0400   21.9611 H   0  0  0  0  0  0  0  0  0  0  0  0
    6.9214   -1.7444   21.0330 C   0  0  0  0  0  0  0  0  0  0  0  0
    6.7163   -2.1578   20.0411 H   0  0  0  0  0  0  0  0  0  0  0  0
    6.2461   -2.2486   21.7270 H   0  0  0  0  0  0  0  0  0  0  0  0
    8.3290   -1.9852   21.4246 C   0  0  0  0  0  0  0  0  0  0  0  0
    8.9921   -3.0953   21.6702 N   0  0  0  0  0  0  0  0  0  0  0  0
   10.2373   -2.6458   21.9395 N   0  0  0  0  0  0  0  0  0  0  0  0
   10.9597   -3.3251   22.1356 H   0  0  0  0  0  0  0  0  0  0  0  0
   10.3623   -1.2888   21.8580 C   0  0  0  0  0  0  0  0  0  0  0  0
   11.6361   -0.5850   21.9892 C   0  0  0  0  0  0  0  0  0  0  0  0
   12.8637   -1.2617   22.1239 C   0  0  0  0  0  0  0  0  0  0  0  0
   12.9266   -2.3415   22.0270 H   0  0  0  0  0  0  0  0  0  0  0  0
   14.0411   -0.5550   22.3477 C   0  0  0  0  0  0  0  0  0  0  0  0
   14.9864   -1.0623   22.4822 H   0  0  0  0  0  0  0  0  0  0  0  0
   13.9865    0.8335   22.3967 C   0  0  0  0  0  0  0  0  0  0  0  0
   15.1211    1.5178   22.5840 F   0  0  0  0  0  0  0  0  0  0  0  0
   12.8052    1.5377   22.1752 C   0  0  0  0  0  0  0  0  0  0  0  0
   12.8026    2.6193   22.1258 H   0  0  0  0  0  0  0  0  0  0  0  0
   11.6361    0.8171   21.9515 C   0  0  0  0  0  0  0  0  0  0  0  0
   10.7205    1.3519   21.7175 H   0  0  0  0  0  0  0  0  0  0  0  0
    9.0870   -0.8306   21.5666 C   0  0  0  0  0  0  0  0  0  0  0  0
    8.2338    0.3982   21.3560 C   0  0  0  0  0  0  0  0  0  0  0  0
    8.2080    1.0857   22.2152 H   0  0  0  0  0  0  0  0  0  0  0  0
    8.5770    1.0028   20.5042 H   0  0  0  0  0  0  0  0  0  0  0  0
    4.9319    1.0862   19.8707 C   0  0  0  0  0  0  0  0  0  0  0  0
    4.3725    1.1809   20.8023 H   0  0  0  0  0  0  0  0  0  0  0  0
    4.4556    1.6564   18.6884 C   0  0  0  0  0  0  0  0  0  0  0  0
    3.5294    2.2192   18.6638 H   0  0  0  0  0  0  0  0  0  0  0  0
  1  2  1  0
  2  3  2  0
  3  4  1  0
  4  5  1  0
  4  6  2  0
  6  7  1  0
  7  8  1  1
  7  9  1  0
  9 10  1  0
  9 11  1  0
  9 12  1  0
 12 13  2  0
 13 14  1  0
 14 15  1  0
 14 16  1  0
 16 17  1  0
 17 18  2  0
 18 19  1  0
 18 20  1  0
 20 21  1  0
 20 22  2  0
 22 23  1  0
 22 24  1  0
 24 25  1  0
 24 26  2  0
 26 27  1  0
 16 28  2  0
 28 29  1  0
 29 30  1  0
 29 31  1  0
  6 32  1  0
 32 33  1  0
 32 34  2  0
 34 35  1  0
 34  2  1  0
 29  7  1  0
 28 12  1  0
 26 17  1  0
M  END
>  <cnnaffinity>  (1) 
-5.71733

>  <filename>  (1) 
Fc1ccc(-c2[nH]nc3c2C[C@@H](c2cccnc2)C3)cc1

$$$$
