
     RDKit          3D

 34 37  0  0  0  0  0  0  0  0999 V2000
    4.9686    1.8111   16.9544 H   0  0  0  0  0  0  0  0  0  0  0  0
    5.3974    1.2838   17.8036 C   0  0  0  0  0  0  0  0  0  0  0  0
    6.5436    0.6241   17.5733 N   0  0  0  0  0  0  0  0  0  0  0  0
    7.1114   -0.0096   18.6008 C   0  0  0  0  0  0  0  0  0  0  0  0
    8.0574   -0.5121   18.4076 H   0  0  0  0  0  0  0  0  0  0  0  0
    6.5831   -0.0037   19.9056 C   0  0  0  0  0  0  0  0  0  0  0  0
    7.3486   -0.6269   20.9830 C   0  0  0  0  0  0  0  0  0  0  0  0
    8.2786   -1.6285   20.7545 N   0  0  0  0  0  0  0  0  0  0  0  0
    8.8111   -1.8372   21.9165 C   0  0  0  0  0  0  0  0  0  0  0  0
    8.3283   -1.0381   22.9186 N   0  0  0  0  0  0  0  0  0  0  0  0
    7.3631   -0.2798   22.3138 C   0  0  0  0  0  0  0  0  0  0  0  0
    6.6718    0.6997   22.9183 O   0  0  0  0  0  0  0  0  0  0  0  0
    6.2932    0.6324   24.2475 C   0  0  0  0  0  0  0  0  0  0  0  0
    6.2657    1.8603   24.9013 C   0  0  0  0  0  0  0  0  0  0  0  0
    6.5989    2.7270   24.3403 H   0  0  0  0  0  0  0  0  0  0  0  0
    5.8138    1.9396   26.2190 C   0  0  0  0  0  0  0  0  0  0  0  0
    5.7521    2.8848   26.7458 H   0  0  0  0  0  0  0  0  0  0  0  0
    5.4017    0.7701   26.8571 C   0  0  0  0  0  0  0  0  0  0  0  0
    4.9411    0.8423   28.1184 F   0  0  0  0  0  0  0  0  0  0  0  0
    5.4301   -0.4648   26.2177 C   0  0  0  0  0  0  0  0  0  0  0  0
    5.0818   -1.3391   26.7578 H   0  0  0  0  0  0  0  0  0  0  0  0
    5.8797   -0.5385   24.8920 C   0  0  0  0  0  0  0  0  0  0  0  0
    5.9040   -1.4820   24.3552 H   0  0  0  0  0  0  0  0  0  0  0  0
    8.9720   -1.1306   24.2234 C   0  0  0  0  0  0  0  0  0  0  0  0
    9.1025   -0.1504   24.6858 H   0  0  0  0  0  0  0  0  0  0  0  0
    8.3707   -1.7438   24.8975 H   0  0  0  0  0  0  0  0  0  0  0  0
   10.3243   -1.7954   23.9256 C   0  0  0  0  0  0  0  0  0  0  0  0
   11.0737   -1.0501   23.6543 H   0  0  0  0  0  0  0  0  0  0  0  0
   10.6985   -2.4195   24.7368 H   0  0  0  0  0  0  0  0  0  0  0  0
   10.0845   -2.8779   22.4878 S   0  0  0  0  0  0  0  0  0  0  0  0
    5.3766    0.6894   20.1309 C   0  0  0  0  0  0  0  0  0  0  0  0
    4.9647    0.7614   21.1364 H   0  0  0  0  0  0  0  0  0  0  0  0
    4.7686    1.3240   19.0530 C   0  0  0  0  0  0  0  0  0  0  0  0
    3.8406    1.8752   19.1699 H   0  0  0  0  0  0  0  0  0  0  0  0
  1  2  1  0
  2  3  2  0
  3  4  1  0
  4  5  1  0
  4  6  2  0
  6  7  1  0
  7  8  1  0
  8  9  2  0
  9 10  1  0
 10 11  1  0
 11 12  1  0
 12 13  1  0
 13 14  2  0
 14 15  1  0
 14 16  1  0
 16 17  1  0
 16 18  2  0
 18 19  1  0
 18 20  1  0
 20 21  1  0
 20 22  2  0
 22 23  1  0
 10 24  1  0
 24 25  1  0
 24 26  1  0
 24 27  1  0
 27 28  1  0
 27 29  1  0
 27 30  1  0
  6 31  1  0
 31 32  1  0
 31 33  2  0
 33 34  1  0
 33  2  1  0
 11  7  2  0
 22 13  1  0
 30  9  1  0
M  END
>  <cnnaffinity>  (1) 
-5.27449

>  <filename>  (1) 
Fc1ccc(Oc2c(-c3cccnc3)nc3n2CCS3)cc1

$$$$
