
     RDKit          3D

 31 33  0  0  0  0  0  0  0  0999 V2000
    4.9119    1.8085   16.9740 H   0  0  0  0  0  0  0  0  0  0  0  0
    5.3834    1.3080   17.8183 C   0  0  0  0  0  0  0  0  0  0  0  0
    6.5444    0.6879   17.5488 N   0  0  0  0  0  0  0  0  0  0  0  0
    7.1507    0.0597   18.5594 C   0  0  0  0  0  0  0  0  0  0  0  0
    8.1109   -0.3978   18.3234 H   0  0  0  0  0  0  0  0  0  0  0  0
    6.6515   -0.0014   19.8737 C   0  0  0  0  0  0  0  0  0  0  0  0
    7.4023   -0.6764   20.9458 C   0  0  0  0  0  0  0  0  0  0  0  0
    7.8059   -0.2053   22.1829 C   0  0  0  0  0  0  0  0  0  0  0  0
    7.5820    1.1708   22.7584 C   0  0  0  0  0  0  0  0  0  0  0  0
    7.5219    1.9103   21.9520 H   0  0  0  0  0  0  0  0  0  0  0  0
    8.4660    1.4445   23.3482 H   0  0  0  0  0  0  0  0  0  0  0  0
    6.3482    1.3100   23.6351 C   0  0  0  0  0  0  0  0  0  0  0  0
    6.1978    0.5076   24.7765 C   0  0  0  0  0  0  0  0  0  0  0  0
    6.9734   -0.2128   25.0178 H   0  0  0  0  0  0  0  0  0  0  0  0
    5.0688    0.6123   25.5931 C   0  0  0  0  0  0  0  0  0  0  0  0
    4.9337   -0.0036   26.4783 H   0  0  0  0  0  0  0  0  0  0  0  0
    4.0856    1.5385   25.2734 C   0  0  0  0  0  0  0  0  0  0  0  0
    2.9969    1.6561   26.0478 F   0  0  0  0  0  0  0  0  0  0  0  0
    4.2258    2.3571   24.1493 C   0  0  0  0  0  0  0  0  0  0  0  0
    3.2606    3.2417   23.8533 F   0  0  0  0  0  0  0  0  0  0  0  0
    5.3473    2.2517   23.3359 C   0  0  0  0  0  0  0  0  0  0  0  0
    5.4034    2.8855   22.4528 H   0  0  0  0  0  0  0  0  0  0  0  0
    8.4772   -1.3035   22.7675 C   0  0  0  0  0  0  0  0  0  0  0  0
    8.9553   -1.3594   23.7418 H   0  0  0  0  0  0  0  0  0  0  0  0
    8.5006   -2.3649   21.9718 N   0  0  0  0  0  0  0  0  0  0  0  0
    7.8548   -1.9531   20.8720 N   0  0  0  0  0  0  0  0  0  0  0  0
    7.7311   -2.5786   20.0852 H   0  0  0  0  0  0  0  0  0  0  0  0
    5.4394    0.6548   20.1339 C   0  0  0  0  0  0  0  0  0  0  0  0
    5.0295    0.6302   21.1455 H   0  0  0  0  0  0  0  0  0  0  0  0
    4.7972    1.3195   19.0890 C   0  0  0  0  0  0  0  0  0  0  0  0
    3.8637    1.8511   19.2425 H   0  0  0  0  0  0  0  0  0  0  0  0
  1  2  1  0
  2  3  2  0
  3  4  1  0
  4  5  1  0
  4  6  2  0
  6  7  1  0
  7  8  2  0
  8  9  1  0
  9 10  1  0
  9 11  1  0
  9 12  1  0
 12 13  2  0
 13 14  1  0
 13 15  1  0
 15 16  1  0
 15 17  2  0
 17 18  1  0
 17 19  1  0
 19 20  1  0
 19 21  2  0
 21 22  1  0
  8 23  1  0
 23 24  1  0
 23 25  2  0
 25 26  1  0
 26 27  1  0
  6 28  1  0
 28 29  1  0
 28 30  2  0
 30 31  1  0
 30  2  1  0
 26  7  1  0
 21 12  1  0
M  END
>  <cnnaffinity>  (1) 
-5.14401

>  <filename>  (1) 
Fc1ccc(Cc2cn[nH]c2-c2cccnc2)cc1F

$$$$
