
     RDKit          3D

 28 30  0  0  0  0  0  0  0  0999 V2000
    4.9202    1.7867   16.9918 H   0  0  0  0  0  0  0  0  0  0  0  0
    5.3975    1.2942   17.8352 C   0  0  0  0  0  0  0  0  0  0  0  0
    6.5585    0.6787   17.5679 N   0  0  0  0  0  0  0  0  0  0  0  0
    7.1741    0.0674   18.5830 C   0  0  0  0  0  0  0  0  0  0  0  0
    8.1161   -0.4195   18.3485 H   0  0  0  0  0  0  0  0  0  0  0  0
    6.6782    0.0111   19.8990 C   0  0  0  0  0  0  0  0  0  0  0  0
    7.4151   -0.6930   20.9568 C   0  0  0  0  0  0  0  0  0  0  0  0
    9.1095   -1.0730   20.8812 S   0  0  0  0  0  0  0  0  0  0  0  0
    9.0601   -1.8262   22.4211 C   0  0  0  0  0  0  0  0  0  0  0  0
    9.9379   -2.2537   22.8696 H   0  0  0  0  0  0  0  0  0  0  0  0
    7.8159   -1.8232   22.9727 C   0  0  0  0  0  0  0  0  0  0  0  0
    7.4507   -2.4177   24.2845 C   0  0  0  0  0  0  0  0  0  0  0  0
    6.3016   -3.2079   24.4779 C   0  0  0  0  0  0  0  0  0  0  0  0
    5.4953   -3.4528   23.4275 F   0  0  0  0  0  0  0  0  0  0  0  0
    5.9516   -3.7778   25.6959 C   0  0  0  0  0  0  0  0  0  0  0  0
    5.0474   -4.3738   25.7480 H   0  0  0  0  0  0  0  0  0  0  0  0
    6.7793   -3.5540   26.7972 C   0  0  0  0  0  0  0  0  0  0  0  0
    6.5287   -3.9915   27.7548 H   0  0  0  0  0  0  0  0  0  0  0  0
    7.9277   -2.7722   26.6759 C   0  0  0  0  0  0  0  0  0  0  0  0
    8.6042   -2.5725   27.4966 H   0  0  0  0  0  0  0  0  0  0  0  0
    8.2304   -2.2246   25.4358 C   0  0  0  0  0  0  0  0  0  0  0  0
    9.3352   -1.4634   25.3504 F   0  0  0  0  0  0  0  0  0  0  0  0
    6.8872   -1.1714   22.1155 C   0  0  0  0  0  0  0  0  0  0  0  0
    5.8526   -1.0863   22.3668 H   0  0  0  0  0  0  0  0  0  0  0  0
    5.4472    0.6474   20.1541 C   0  0  0  0  0  0  0  0  0  0  0  0
    5.0171    0.6424   21.1593 H   0  0  0  0  0  0  0  0  0  0  0  0
    4.8074    1.3088   19.1038 C   0  0  0  0  0  0  0  0  0  0  0  0
    3.8767    1.8397   19.2555 H   0  0  0  0  0  0  0  0  0  0  0  0
  1  2  1  0
  2  3  2  0
  3  4  1  0
  4  5  1  0
  4  6  2  0
  6  7  1  0
  7  8  1  0
  8  9  1  0
  9 10  1  0
  9 11  2  0
 11 12  1  0
 12 13  2  0
 13 14  1  0
 13 15  1  0
 15 16  1  0
 15 17  2  0
 17 18  1  0
 17 19  1  0
 19 20  1  0
 19 21  2  0
 21 22  1  0
 11 23  1  0
 23 24  1  0
  6 25  1  0
 25 26  1  0
 25 27  2  0
 27 28  1  0
 27  2  1  0
 23  7  2  0
 21 12  1  0
M  END
>  <cnnaffinity>  (1) 
-5.28151

>  <filename>  (1) 
Fc1cccc(F)c1-c1csc(-c2cccnc2)c1

$$$$
