
     RDKit          3D

 36 39  0  0  0  0  0  0  0  0999 V2000
    4.9512    1.8287   16.9071 H   0  0  0  0  0  0  0  0  0  0  0  0
    5.3862    1.3038   17.7549 C   0  0  0  0  0  0  0  0  0  0  0  0
    6.5317    0.6489   17.5173 N   0  0  0  0  0  0  0  0  0  0  0  0
    7.1102    0.0334   18.5529 C   0  0  0  0  0  0  0  0  0  0  0  0
    8.0354   -0.4966   18.3419 H   0  0  0  0  0  0  0  0  0  0  0  0
    6.5948    0.0528   19.8646 C   0  0  0  0  0  0  0  0  0  0  0  0
    7.3568   -0.5588   20.9590 C   0  0  0  0  0  0  0  0  0  0  0  0
    8.2682   -1.5140   20.7434 N   0  0  0  0  0  0  0  0  0  0  0  0
    8.7763   -1.7435   21.9488 N   0  0  0  0  0  0  0  0  0  0  0  0
    8.2758   -1.0044   22.9476 C   0  0  0  0  0  0  0  0  0  0  0  0
    7.2952   -0.2338   22.3486 C   0  0  0  0  0  0  0  0  0  0  0  0
    6.4365    0.6754   22.9027 O   0  0  0  0  0  0  0  0  0  0  0  0
    6.2284    0.6697   24.2704 C   0  0  0  0  0  0  0  0  0  0  0  0
    6.3052    1.8957   24.9368 C   0  0  0  0  0  0  0  0  0  0  0  0
    6.6333    2.7711   24.3841 H   0  0  0  0  0  0  0  0  0  0  0  0
    5.9759    1.9734   26.2931 C   0  0  0  0  0  0  0  0  0  0  0  0
    6.0156    2.9181   26.8276 H   0  0  0  0  0  0  0  0  0  0  0  0
    5.5854    0.8168   26.9630 C   0  0  0  0  0  0  0  0  0  0  0  0
    5.2358    0.8911   28.2597 F   0  0  0  0  0  0  0  0  0  0  0  0
    5.5441   -0.4201   26.3233 C   0  0  0  0  0  0  0  0  0  0  0  0
    5.2585   -1.3044   26.8820 H   0  0  0  0  0  0  0  0  0  0  0  0
    5.8754   -0.4923   24.9676 C   0  0  0  0  0  0  0  0  0  0  0  0
    5.8937   -1.4488   24.4511 H   0  0  0  0  0  0  0  0  0  0  0  0
    8.9956   -1.2892   24.2342 C   0  0  0  0  0  0  0  0  0  0  0  0
    8.3324   -1.7452   24.9777 H   0  0  0  0  0  0  0  0  0  0  0  0
    9.4004   -0.3738   24.6798 H   0  0  0  0  0  0  0  0  0  0  0  0
   10.1283   -2.2480   23.7715 C   0  0  0  0  0  0  0  0  0  0  0  0
   10.3011   -3.0710   24.4707 H   0  0  0  0  0  0  0  0  0  0  0  0
   11.0425   -1.6705   23.6781 H   0  0  0  0  0  0  0  0  0  0  0  0
    9.7675   -2.7178   22.3363 C   0  0  0  0  0  0  0  0  0  0  0  0
   10.6125   -2.6425   21.6495 H   0  0  0  0  0  0  0  0  0  0  0  0
    9.3398   -3.7251   22.2945 H   0  0  0  0  0  0  0  0  0  0  0  0
    5.3677    0.7018   20.0870 C   0  0  0  0  0  0  0  0  0  0  0  0
    4.9156    0.7239   21.0791 H   0  0  0  0  0  0  0  0  0  0  0  0
    4.7622    1.3334   19.0058 C   0  0  0  0  0  0  0  0  0  0  0  0
    3.8343    1.8754   19.1266 H   0  0  0  0  0  0  0  0  0  0  0  0
  1  2  1  0
  2  3  2  0
  3  4  1  0
  4  5  1  0
  4  6  2  0
  6  7  1  0
  7  8  2  0
  8  9  1  0
  9 10  1  0
 10 11  2  0
 11 12  1  0
 12 13  1  0
 13 14  2  0
 14 15  1  0
 14 16  1  0
 16 17  1  0
 16 18  2  0
 18 19  1  0
 18 20  1  0
 20 21  1  0
 20 22  2  0
 22 23  1  0
 10 24  1  0
 24 25  1  0
 24 26  1  0
 24 27  1  0
 27 28  1  0
 27 29  1  0
 27 30  1  0
 30 31  1  0
 30 32  1  0
  6 33  1  0
 33 34  1  0
 33 35  2  0
 35 36  1  0
 35  2  1  0
 11  7  1  0
 22 13  1  0
 30  9  1  0
M  END
>  <cnnaffinity>  (1) 
-5.36393

>  <filename>  (1) 
Fc1ccc(Oc2c(-c3cccnc3)nn3c2CCC3)cc1

$$$$
