
     RDKit          3D

 30 32  0  0  0  0  0  0  0  0999 V2000
    4.9271    1.8173   16.9245 H   0  0  0  0  0  0  0  0  0  0  0  0
    5.3964    1.3364   17.7823 C   0  0  0  0  0  0  0  0  0  0  0  0
    6.5538    0.6960   17.5500 N   0  0  0  0  0  0  0  0  0  0  0  0
    7.1344    0.0830   18.5893 C   0  0  0  0  0  0  0  0  0  0  0  0
    8.0658   -0.4418   18.3678 H   0  0  0  0  0  0  0  0  0  0  0  0
    6.6311    0.1006   19.9099 C   0  0  0  0  0  0  0  0  0  0  0  0
    7.3160   -0.6184   21.0389 C   0  0  0  0  0  0  0  0  0  0  0  0
    7.7394   -0.0266   22.2667 C   0  0  0  0  0  0  0  0  0  0  0  0
    7.5302    1.4318   22.6046 C   0  0  0  0  0  0  0  0  0  0  0  0
    7.9674    2.4821   21.7705 C   0  0  0  0  0  0  0  0  0  0  0  0
    8.4582    2.2904   20.8198 H   0  0  0  0  0  0  0  0  0  0  0  0
    7.7221    3.7982   22.1659 C   0  0  0  0  0  0  0  0  0  0  0  0
    8.1560    4.8152   21.4098 F   0  0  0  0  0  0  0  0  0  0  0  0
    7.0415    4.1333   23.3304 C   0  0  0  0  0  0  0  0  0  0  0  0
    6.8350    5.1655   23.5915 H   0  0  0  0  0  0  0  0  0  0  0  0
    6.5999    3.0771   24.1142 C   0  0  0  0  0  0  0  0  0  0  0  0
    5.8796    3.3571   25.2088 F   0  0  0  0  0  0  0  0  0  0  0  0
    6.8583    1.7506   23.8007 C   0  0  0  0  0  0  0  0  0  0  0  0
    6.5530    0.9745   24.4959 H   0  0  0  0  0  0  0  0  0  0  0  0
    8.3637   -0.7379   23.2265 N   0  0  0  0  0  0  0  0  0  0  0  0
    8.5868   -2.0353   23.0297 C   0  0  0  0  0  0  0  0  0  0  0  0
    9.1020   -2.5598   23.8325 H   0  0  0  0  0  0  0  0  0  0  0  0
    8.1616   -2.7211   21.8921 C   0  0  0  0  0  0  0  0  0  0  0  0
    8.3669   -3.7795   21.7848 H   0  0  0  0  0  0  0  0  0  0  0  0
    7.4893   -2.0073   20.9083 C   0  0  0  0  0  0  0  0  0  0  0  0
    7.0618   -2.5315   20.0578 H   0  0  0  0  0  0  0  0  0  0  0  0
    5.4227    0.7744   20.1237 C   0  0  0  0  0  0  0  0  0  0  0  0
    4.9975    0.8039   21.1292 H   0  0  0  0  0  0  0  0  0  0  0  0
    4.7905    1.3857   19.0401 C   0  0  0  0  0  0  0  0  0  0  0  0
    3.8376    1.8847   19.1567 H   0  0  0  0  0  0  0  0  0  0  0  0
  1  2  1  0
  2  3  2  0
  3  4  1  0
  4  5  1  0
  4  6  2  0
  6  7  1  0
  7  8  1  0
  8  9  1  0
  9 10  2  0
 10 11  1  0
 10 12  1  0
 12 13  1  0
 12 14  2  0
 14 15  1  0
 14 16  1  0
 16 17  1  0
 16 18  2  0
 18 19  1  0
  8 20  2  0
 20 21  1  0
 21 22  1  0
 21 23  2  0
 23 24  1  0
 23 25  1  0
 25 26  1  0
  6 27  1  0
 27 28  1  0
 27 29  2  0
 29 30  1  0
 29  2  1  0
 25  7  2  0
 18  9  1  0
M  END
>  <cnnaffinity>  (1) 
-4.62674

>  <filename>  (1) 
Fc1cc(F)cc(-c2ncccc2-c2cccnc2)c1

$$$$
