
     RDKit          3D

 30 32  0  0  0  0  0  0  0  0999 V2000
    5.9881    3.0044   27.0507 F   0  0  0  0  0  0  0  0  0  0  0  0
    5.9284    2.0947   26.0798 C   0  0  0  0  0  0  0  0  0  0  0  0
    4.9462    1.2218   26.1417 N   0  0  0  0  0  0  0  0  0  0  0  0
    4.9311    0.2501   25.2138 C   0  0  0  0  0  0  0  0  0  0  0  0
    5.9003    0.1511   24.2248 C   0  0  0  0  0  0  0  0  0  0  0  0
    6.8465    1.1705   24.0408 C   0  0  0  0  0  0  0  0  0  0  0  0
    7.7203    1.2144   22.7779 C   0  0  0  0  0  0  0  0  0  0  0  0
    7.9216   -0.0935   22.1452 N   0  0  0  0  0  0  0  0  0  0  0  0
    8.6311   -1.0097   22.8386 N   0  0  0  0  0  0  0  0  0  0  0  0
    8.4647   -2.1513   22.1967 C   0  0  0  0  0  0  0  0  0  0  0  0
    7.6635   -1.9826   21.0514 C   0  0  0  0  0  0  0  0  0  0  0  0
    7.3646   -0.6411   21.0101 C   0  0  0  0  0  0  0  0  0  0  0  0
    6.6459    0.0868   19.9279 C   0  0  0  0  0  0  0  0  0  0  0  0
    5.4256    0.7419   20.1492 C   0  0  0  0  0  0  0  0  0  0  0  0
    4.7798    1.3616   19.0778 C   0  0  0  0  0  0  0  0  0  0  0  0
    5.3808    1.3239   17.8162 C   0  0  0  0  0  0  0  0  0  0  0  0
    6.5418    0.6950   17.5702 N   0  0  0  0  0  0  0  0  0  0  0  0
    7.1411    0.0870   18.6044 C   0  0  0  0  0  0  0  0  0  0  0  0
    8.0836   -0.4083   18.3702 H   0  0  0  0  0  0  0  0  0  0  0  0
    4.9084    1.8091   16.9635 H   0  0  0  0  0  0  0  0  0  0  0  0
    3.8277    1.8649   19.2043 H   0  0  0  0  0  0  0  0  0  0  0  0
    4.9901    0.7425   21.1492 H   0  0  0  0  0  0  0  0  0  0  0  0
    7.3021   -2.7193   20.3523 H   0  0  0  0  0  0  0  0  0  0  0  0
    8.9227   -3.0567   22.5884 H   0  0  0  0  0  0  0  0  0  0  0  0
    7.2439    1.8619   22.0394 H   0  0  0  0  0  0  0  0  0  0  0  0
    8.7096    1.6119   23.0125 H   0  0  0  0  0  0  0  0  0  0  0  0
    6.8830    2.1445   25.0369 C   0  0  0  0  0  0  0  0  0  0  0  0
    7.8033    3.1213   25.0327 F   0  0  0  0  0  0  0  0  0  0  0  0
    5.9759   -0.7471   23.6318 H   0  0  0  0  0  0  0  0  0  0  0  0
    4.1217   -0.4737   25.2864 H   0  0  0  0  0  0  0  0  0  0  0  0
  1  2  1  0
  2  3  2  0
  3  4  1  0
  4  5  2  0
  5  6  1  0
  6  7  1  0
  7  8  1  0
  8  9  1  0
  9 10  2  0
 10 11  1  0
 11 12  2  0
 12 13  1  0
 13 14  2  0
 14 15  1  0
 15 16  2  0
 16 17  1  0
 17 18  2  0
 18 19  1  0
 16 20  1  0
 15 21  1  0
 14 22  1  0
 11 23  1  0
 10 24  1  0
  7 25  1  0
  7 26  1  0
  6 27  2  0
 27 28  1  0
  5 29  1  0
  4 30  1  0
 27  2  1  0
 12  8  1  0
 18 13  1  0
M  END
>  <cnnaffinity>  (1) 
-4.72692

>  <filename>  (1) 
Fc1nccc(Cn2nccc2-c2cccnc2)c1F

$$$$
