
     RDKit          3D

 22 24  0  0  0  0  0  0  0  0999 V2000
    4.9667    1.8078   16.9611 H   0  0  0  0  0  0  0  0  0  0  0  0
    5.4170    1.2858   17.8053 C   0  0  0  0  0  0  0  0  0  0  0  0
    6.5703    0.6475   17.5604 N   0  0  0  0  0  0  0  0  0  0  0  0
    7.1669    0.0371   18.5907 C   0  0  0  0  0  0  0  0  0  0  0  0
    8.0972   -0.4815   18.3732 H   0  0  0  0  0  0  0  0  0  0  0  0
    6.6509    0.0308   19.9024 C   0  0  0  0  0  0  0  0  0  0  0  0
    7.3915   -0.6405   20.9869 C   0  0  0  0  0  0  0  0  0  0  0  0
    8.5335   -1.2852   20.6978 N   0  0  0  0  0  0  0  0  0  0  0  0
    8.9349   -1.7840   21.8812 N   0  0  0  0  0  0  0  0  0  0  0  0
   10.1322   -2.1738   22.4721 C   0  0  0  0  0  0  0  0  0  0  0  0
   11.0137   -2.3641   21.8968 H   0  0  0  0  0  0  0  0  0  0  0  0
    9.8369   -2.0783   23.8281 C   0  0  0  0  0  0  0  0  0  0  0  0
   10.5407   -1.9989   24.6488 H   0  0  0  0  0  0  0  0  0  0  0  0
    8.5457   -1.8892   24.0749 N   0  0  0  0  0  0  0  0  0  0  0  0
    8.8294   -0.4417   24.8456 F   0  0  0  0  0  0  0  0  0  0  0  0
    8.0581   -1.4799   22.9141 C   0  0  0  0  0  0  0  0  0  0  0  0
    7.0540   -0.6762   22.3636 C   0  0  0  0  0  0  0  0  0  0  0  0
    6.4144   -0.0454   22.9557 H   0  0  0  0  0  0  0  0  0  0  0  0
    5.4177    0.6545   20.1294 C   0  0  0  0  0  0  0  0  0  0  0  0
    4.9513    0.6294   21.1189 H   0  0  0  0  0  0  0  0  0  0  0  0
    4.8002    1.3030   19.0621 C   0  0  0  0  0  0  0  0  0  0  0  0
    3.8715    1.8409   19.1937 H   0  0  0  0  0  0  0  0  0  0  0  0
  1  2  1  0
  2  3  2  0
  3  4  1  0
  4  5  1  0
  4  6  2  0
  6  7  1  0
  7  8  2  0
  8  9  1  0
  9 10  1  0
 10 11  1  0
 10 12  2  0
 12 13  1  0
 12 14  1  0
 14 15  1  0
 14 16  1  0
 16 17  2  0
 17 18  1  0
  6 19  1  0
 19 20  1  0
 19 21  2  0
 21 22  1  0
 21  2  1  0
 17  7  1  0
 16  9  1  0
M  END
>  <cnnaffinity>  (1) 
-4.71437

>  <filename>  (1) 
Fn1ccn2nc(-c3cccnc3)cc12

$$$$
