
     RDKit          3D

 39 41  0  0  0  0  0  0  0  0999 V2000
    7.3101   -4.8777   21.2714 I   0  0  0  0  0  0  0  0  0  0  0  0
    8.1422   -4.9863   23.3625 C   0  0  0  0  0  0  0  0  0  0  0  0
    8.8602   -6.1276   23.7375 C   0  0  0  0  0  0  0  0  0  0  0  0
    9.3918   -6.2491   25.0256 C   0  0  0  0  0  0  0  0  0  0  0  0
    9.2118   -5.2182   25.9490 C   0  0  0  0  0  0  0  0  0  0  0  0
    8.4924   -4.0729   25.5867 C   0  0  0  0  0  0  0  0  0  0  0  0
    7.9413   -3.9519   24.2972 C   0  0  0  0  0  0  0  0  0  0  0  0
    7.0630   -2.7748   23.9513 C   0  0  0  0  0  0  0  0  0  0  0  0
    7.8473   -1.5717   23.6015 N   0  0  0  0  0  4  0  0  0  0  0  0
    6.8955   -0.4264   23.5175 C   0  0  0  0  0  0  0  0  0  0  0  0
    7.2139    0.5848   22.4064 C   0  0  0  0  0  0  0  0  0  0  0  0
    7.2834   -0.0922   21.0893 N   0  0  0  0  0  0  0  0  0  0  0  0
    6.6484    0.4509   19.9461 C   0  0  0  0  0  0  0  0  0  0  0  0
    5.6058    1.3680   20.1015 C   0  0  0  0  0  0  0  0  0  0  0  0
    5.0002    1.9019   18.9602 C   0  0  0  0  0  0  0  0  0  0  0  0
    5.4450    1.5201   17.6894 C   0  0  0  0  0  0  0  0  0  0  0  0
    6.4401    0.6293   17.5115 N   0  0  0  0  0  0  0  0  0  0  0  0
    7.0183    0.1078   18.6201 C   0  0  0  0  0  0  0  0  0  0  0  0
    7.8247   -0.6064   18.4857 H   0  0  0  0  0  0  0  0  0  0  0  0
    4.9688    1.9698   16.8229 H   0  0  0  0  0  0  0  0  0  0  0  0
    4.1927    2.6215   19.0482 H   0  0  0  0  0  0  0  0  0  0  0  0
    5.2687    1.6455   21.0964 H   0  0  0  0  0  0  0  0  0  0  0  0
    7.8153   -1.4722   21.0643 C   0  0  0  0  0  0  0  0  0  0  0  0
    8.6246   -1.7646   22.3406 C   0  0  0  0  0  0  0  0  0  0  0  0
    9.4870   -1.0924   22.3390 H   0  0  0  0  0  0  0  0  0  0  0  0
    9.0095   -2.7871   22.2916 H   0  0  0  0  0  0  0  0  0  0  0  0
    8.4561   -1.6146   20.1900 H   0  0  0  0  0  0  0  0  0  0  0  0
    6.9835   -2.1759   20.9980 H   0  0  0  0  0  0  0  0  0  0  0  0
    8.1716    1.0600   22.6277 H   0  0  0  0  0  0  0  0  0  0  0  0
    6.4507    1.3653   22.4023 H   0  0  0  0  0  0  0  0  0  0  0  0
    6.8455    0.1025   24.4727 H   0  0  0  0  0  0  0  0  0  0  0  0
    5.8967   -0.8135   23.3273 H   0  0  0  0  0  0  0  0  0  0  0  0
    8.5087   -1.3982   24.3668 H   0  0  0  0  0  0  0  0  0  0  0  0
    6.4086   -2.5578   24.8042 H   0  0  0  0  0  0  0  0  0  0  0  0
    6.4095   -3.0429   23.1142 H   0  0  0  0  0  0  0  0  0  0  0  0
    8.3540   -3.2858   26.3224 H   0  0  0  0  0  0  0  0  0  0  0  0
    9.6235   -5.3128   26.9512 H   0  0  0  0  0  0  0  0  0  0  0  0
    9.9355   -7.1466   25.3132 H   0  0  0  0  0  0  0  0  0  0  0  0
    9.0133   -6.9224   23.0134 H   0  0  0  0  0  0  0  0  0  0  0  0
  1  2  1  0
  2  3  2  0
  3  4  1  0
  4  5  2  0
  5  6  1  0
  6  7  2  0
  7  8  1  0
  8  9  1  0
  9 10  1  0
 10 11  1  0
 11 12  1  0
 12 13  1  0
 13 14  2  0
 14 15  1  0
 15 16  2  0
 16 17  1  0
 17 18  2  0
 18 19  1  0
 16 20  1  0
 15 21  1  0
 14 22  1  0
 12 23  1  0
 23 24  1  0
 24 25  1  0
 24 26  1  0
 23 27  1  0
 23 28  1  0
 11 29  1  0
 11 30  1  0
 10 31  1  0
 10 32  1  0
  9 33  1  0
  8 34  1  0
  8 35  1  0
  6 36  1  0
  5 37  1  0
  4 38  1  0
  3 39  1  0
  7  2  1  0
 24  9  1  0
 18 13  1  0
M  CHG  1   9   1
M  END
>  <cnnaffinity>  (1) 
-4.99981

>  <filename>  (1) 
Ic1ccccc1C[NH+]1CCN(c2cccnc2)CC1

$$$$
