
     RDKit          3D

 21 23  0  0  0  0  0  0  0  0999 V2000
    4.9250    1.8246   17.0234 H   0  0  0  0  0  0  0  0  0  0  0  0
    5.4200    1.2830   17.8247 C   0  0  0  0  0  0  0  0  0  0  0  0
    6.5646    0.6154   17.5823 N   0  0  0  0  0  0  0  0  0  0  0  0
    7.1610   -0.0054   18.6151 C   0  0  0  0  0  0  0  0  0  0  0  0
    8.1041   -0.5100   18.4357 H   0  0  0  0  0  0  0  0  0  0  0  0
    6.6526    0.0299   19.9152 C   0  0  0  0  0  0  0  0  0  0  0  0
    7.3903   -0.6224   20.9708 C   0  0  0  0  0  0  0  0  0  0  0  0
    8.0097   -1.8563   20.7604 N   0  0  0  0  0  0  0  0  0  0  0  0
    8.4885   -2.1412   21.9438 C   0  0  0  0  0  0  0  0  0  0  0  0
    9.3098   -3.5244   22.6340 S   0  0  0  0  0  0  0  0  0  0  0  0
    9.4971   -2.6329   24.1528 C   0  0  0  0  0  0  0  0  0  0  0  0
   10.0655   -2.9910   25.0091 H   0  0  0  0  0  0  0  0  0  0  0  0
    8.8369   -1.4197   24.1173 C   0  0  0  0  0  0  0  0  0  0  0  0
    8.7660   -0.7393   24.9583 H   0  0  0  0  0  0  0  0  0  0  0  0
    8.2809   -1.1704   22.8704 N   0  0  0  0  0  0  0  0  0  0  0  0
    7.5467   -0.1767   22.2691 C   0  0  0  0  0  0  0  0  0  0  0  0
    6.7716    1.7129   23.2104 I   0  0  0  0  0  0  0  0  0  0  0  0
    5.4521    0.6910   20.1673 C   0  0  0  0  0  0  0  0  0  0  0  0
    5.0016    0.7249   21.1596 H   0  0  0  0  0  0  0  0  0  0  0  0
    4.8313    1.3120   19.0909 C   0  0  0  0  0  0  0  0  0  0  0  0
    3.8938    1.8390   19.2224 H   0  0  0  0  0  0  0  0  0  0  0  0
  1  2  1  0
  2  3  2  0
  3  4  1  0
  4  5  1  0
  4  6  2  0
  6  7  1  0
  7  8  1  0
  8  9  2  0
  9 10  1  0
 10 11  1  0
 11 12  1  0
 11 13  2  0
 13 14  1  0
 13 15  1  0
 15 16  1  0
 16 17  1  0
  6 18  1  0
 18 19  1  0
 18 20  2  0
 20 21  1  0
 20  2  1  0
 16  7  2  0
 15  9  1  0
M  END
>  <cnnaffinity>  (1) 
-4.82005

>  <filename>  (1) 
Ic1c(-c2cccnc2)nc2sccn12

$$$$
