
     RDKit          3D

 35 37  0  0  0  0  0  0  0  0999 V2000
    6.1241    0.7711   24.9076 I   0  0  0  0  0  0  0  0  0  0  0  0
    7.0793   -1.2501   24.5905 C   0  0  0  0  0  0  0  0  0  0  0  0
    6.5684   -2.3511   25.2825 C   0  0  0  0  0  0  0  0  0  0  0  0
    7.2031   -3.5794   25.1163 C   0  0  0  0  0  0  0  0  0  0  0  0
    8.3175   -3.6891   24.2880 C   0  0  0  0  0  0  0  0  0  0  0  0
    8.8070   -2.6364   23.6222 N   0  0  0  0  0  0  0  0  0  0  0  0
    8.2101   -1.4423   23.7613 C   0  0  0  0  0  0  0  0  0  0  0  0
    8.7840   -0.3930   23.0434 N   0  0  0  0  0  0  0  0  0  0  0  0
   10.2052   -0.0462   23.1641 C   0  0  0  0  0  0  0  0  0  0  0  0
   10.3536    1.1455   22.2221 C   0  0  0  0  0  0  0  0  0  0  0  0
    9.2008    1.0404   21.2263 C   0  0  0  0  0  0  0  0  0  0  0  0
    8.0805    0.2932   21.9531 C   0  0  0  0  0  0  0  0  0  0  0  0
    7.3837   -0.6995   21.0173 C   0  0  0  0  0  0  0  0  0  0  0  0
    6.6533    0.0084   19.8906 C   0  0  0  0  0  0  0  0  0  0  0  0
    5.4473    0.6526   20.1443 C   0  0  0  0  0  0  0  0  0  0  0  0
    4.8202    1.3013   19.0828 C   0  0  0  0  0  0  0  0  0  0  0  0
    5.3982    1.2987   17.8078 C   0  0  0  0  0  0  0  0  0  0  0  0
    6.5621    0.6741   17.5531 N   0  0  0  0  0  0  0  0  0  0  0  0
    7.1751    0.0526   18.5816 C   0  0  0  0  0  0  0  0  0  0  0  0
    8.1261   -0.4345   18.3958 H   0  0  0  0  0  0  0  0  0  0  0  0
    4.8869    1.8280   17.0085 H   0  0  0  0  0  0  0  0  0  0  0  0
    3.8870    1.8236   19.2372 H   0  0  0  0  0  0  0  0  0  0  0  0
    5.0175    0.6494   21.1453 H   0  0  0  0  0  0  0  0  0  0  0  0
    8.1308   -1.3880   20.6130 H   0  0  0  0  0  0  0  0  0  0  0  0
    6.6779   -1.2893   21.6120 H   0  0  0  0  0  0  0  0  0  0  0  0
    7.3498    1.0012   22.3589 H   0  0  0  0  0  0  0  0  0  0  0  0
    9.5200    0.4778   20.3431 H   0  0  0  0  0  0  0  0  0  0  0  0
    8.8690    2.0327   20.9048 H   0  0  0  0  0  0  0  0  0  0  0  0
   10.2645    2.0814   22.7837 H   0  0  0  0  0  0  0  0  0  0  0  0
   11.3234    1.1372   21.7161 H   0  0  0  0  0  0  0  0  0  0  0  0
   10.8515   -0.8748   22.8519 H   0  0  0  0  0  0  0  0  0  0  0  0
   10.4686    0.2440   24.1884 H   0  0  0  0  0  0  0  0  0  0  0  0
    8.7968   -4.6618   24.1891 H   0  0  0  0  0  0  0  0  0  0  0  0
    6.8519   -4.4660   25.6265 H   0  0  0  0  0  0  0  0  0  0  0  0
    5.7069   -2.2557   25.9448 H   0  0  0  0  0  0  0  0  0  0  0  0
  1  2  1  0
  2  3  2  0
  3  4  1  0
  4  5  2  0
  5  6  1  0
  6  7  2  0
  7  8  1  0
  8  9  1  0
  9 10  1  0
 10 11  1  0
 11 12  1  0
 12 13  1  0
 13 14  1  0
 14 15  2  0
 15 16  1  0
 16 17  2  0
 17 18  1  0
 18 19  2  0
 19 20  1  0
 17 21  1  0
 16 22  1  0
 15 23  1  0
 13 24  1  0
 13 25  1  0
 12 26  1  0
 11 27  1  0
 11 28  1  0
 10 29  1  0
 10 30  1  0
  9 31  1  0
  9 32  1  0
  5 33  1  0
  4 34  1  0
  3 35  1  0
  7  2  1  0
 12  8  1  0
 19 14  1  0
M  END
>  <cnnaffinity>  (1) 
-5.48049

>  <filename>  (1) 
Ic1cccnc1N1CCCC1Cc1cccnc1

$$$$
