
     RDKit          3D

 19 21  0  0  0  0  0  0  0  0999 V2000
    4.8921    1.7876   17.0162 H   0  0  0  0  0  0  0  0  0  0  0  0
    5.4023    1.2933   17.8360 C   0  0  0  0  0  0  0  0  0  0  0  0
    6.5694    0.6750   17.5800 N   0  0  0  0  0  0  0  0  0  0  0  0
    7.1847    0.0465   18.5893 C   0  0  0  0  0  0  0  0  0  0  0  0
    8.1338   -0.4429   18.3926 H   0  0  0  0  0  0  0  0  0  0  0  0
    6.6538    0.0046   19.8782 C   0  0  0  0  0  0  0  0  0  0  0  0
    7.3918   -0.7053   20.9001 C   0  0  0  0  0  0  0  0  0  0  0  0
    8.3240   -1.6154   20.6984 N   0  0  0  0  0  0  0  0  0  0  0  0
    8.8315   -2.0349   21.9168 N   0  0  0  0  0  0  0  0  0  0  0  0
    8.1920   -1.3257   22.8040 C   0  0  0  0  0  0  0  0  0  0  0  0
    8.2931   -1.1291   24.5183 S   0  0  0  0  0  0  0  0  0  0  0  0
    7.0642    0.1428   24.2949 C   0  0  0  0  0  0  0  0  0  0  0  0
    6.3446    1.3513   26.0439 I   0  0  0  0  0  0  0  0  0  0  0  0
    6.6095    0.3614   23.0675 N   0  0  0  0  0  0  0  0  0  0  0  0
    7.2651   -0.5133   22.2564 N   0  0  0  0  0  0  0  0  0  0  0  0
    5.4475    0.6509   20.1622 C   0  0  0  0  0  0  0  0  0  0  0  0
    5.0054    0.6384   21.1628 H   0  0  0  0  0  0  0  0  0  0  0  0
    4.8189    1.3080   19.1093 C   0  0  0  0  0  0  0  0  0  0  0  0
    3.8834    1.8339   19.2636 H   0  0  0  0  0  0  0  0  0  0  0  0
  1  2  1  0
  2  3  2  0
  3  4  1  0
  4  5  1  0
  4  6  2  0
  6  7  1  0
  7  8  2  0
  8  9  1  0
  9 10  2  0
 10 11  1  0
 11 12  1  0
 12 13  1  0
 12 14  2  0
 14 15  1  0
  6 16  1  0
 16 17  1  0
 16 18  2  0
 18 19  1  0
 18  2  1  0
 15  7  1  0
 15 10  1  0
M  END
>  <cnnaffinity>  (1) 
-4.66336

>  <filename>  (1) 
Ic1nn2c(-c3cccnc3)nnc2s1

$$$$
