
     RDKit          3D

 16 17  0  0  0  0  0  0  0  0999 V2000
    4.8889    1.7903   17.0138 H   0  0  0  0  0  0  0  0  0  0  0  0
    5.4004    1.2963   17.8336 C   0  0  0  0  0  0  0  0  0  0  0  0
    6.5670    0.6758   17.5773 N   0  0  0  0  0  0  0  0  0  0  0  0
    7.1803    0.0445   18.5942 C   0  0  0  0  0  0  0  0  0  0  0  0
    8.1277   -0.4453   18.3945 H   0  0  0  0  0  0  0  0  0  0  0  0
    6.6701   -0.0033   19.9059 C   0  0  0  0  0  0  0  0  0  0  0  0
    7.3542   -0.7204   20.9015 N   0  0  0  0  0  0  0  0  0  0  0  0
    7.9313   -1.9291   20.7182 N   0  0  0  0  0  0  0  0  0  0  0  0
    8.4649   -2.2514   21.8436 N   0  0  0  0  0  0  0  0  0  0  0  0
    8.2970   -1.2708   22.7860 N   0  0  0  0  0  0  0  0  0  0  0  0
    7.6184   -0.3259   22.2001 C   0  0  0  0  0  0  0  0  0  0  0  0
    7.1154    1.6576   23.1306 I   0  0  0  0  0  0  0  0  0  0  0  0
    5.4610    0.6555   20.1714 C   0  0  0  0  0  0  0  0  0  0  0  0
    5.0106    0.6341   21.1666 H   0  0  0  0  0  0  0  0  0  0  0  0
    4.8234    1.3105   19.1118 C   0  0  0  0  0  0  0  0  0  0  0  0
    3.8831    1.8337   19.2628 H   0  0  0  0  0  0  0  0  0  0  0  0
  1  2  1  0
  2  3  2  0
  3  4  1  0
  4  5  1  0
  4  6  2  0
  6  7  1  0
  7  8  1  0
  8  9  2  0
  9 10  1  0
 10 11  2  0
 11 12  1  0
  6 13  1  0
 13 14  1  0
 13 15  2  0
 15 16  1  0
 15  2  1  0
 11  7  1  0
M  END
>  <cnnaffinity>  (1) 
-4.16768

>  <filename>  (1) 
Ic1nnnn1-c1cccnc1

$$$$
