
     RDKit          3D

 27 28  0  0  0  0  0  0  0  0999 V2000
    4.9453    1.7876   17.0022 H   0  0  0  0  0  0  0  0  0  0  0  0
    5.4142    1.2833   17.8481 C   0  0  0  0  0  0  0  0  0  0  0  0
    6.5807    0.6714   17.5934 N   0  0  0  0  0  0  0  0  0  0  0  0
    7.1945    0.0645   18.6119 C   0  0  0  0  0  0  0  0  0  0  0  0
    8.1324   -0.4378   18.3780 H   0  0  0  0  0  0  0  0  0  0  0  0
    6.6803    0.0367   19.9091 C   0  0  0  0  0  0  0  0  0  0  0  0
    7.5491   -0.9068   21.1551 S   0  0  0  0  0  4  0  0  0  0  0  0
    6.4910   -1.4869   22.0431 O   0  0  0  0  0  0  0  0  0  0  0  0
    8.3851    0.4226   22.1179 C   0  0  0  0  0  0  0  0  0  0  0  0
    8.7687   -0.1476   22.9697 H   0  0  0  0  0  0  0  0  0  0  0  0
    9.2334    0.7506   21.5115 H   0  0  0  0  0  0  0  0  0  0  0  0
    7.5223    1.5825   22.5625 C   0  0  0  0  0  0  0  0  0  0  0  0
    7.4906    2.7316   21.7632 C   0  0  0  0  0  0  0  0  0  0  0  0
    8.1263    2.7333   20.8826 H   0  0  0  0  0  0  0  0  0  0  0  0
    6.6132    3.7868   22.0304 C   0  0  0  0  0  0  0  0  0  0  0  0
    6.5671    4.6458   21.3625 H   0  0  0  0  0  0  0  0  0  0  0  0
    5.7759    3.7209   23.1525 C   0  0  0  0  0  0  0  0  0  0  0  0
    5.1044    4.5473   23.3765 H   0  0  0  0  0  0  0  0  0  0  0  0
    5.8120    2.6010   23.9883 C   0  0  0  0  0  0  0  0  0  0  0  0
    5.1768    2.5433   24.8683 H   0  0  0  0  0  0  0  0  0  0  0  0
    6.6774    1.5306   23.6981 C   0  0  0  0  0  0  0  0  0  0  0  0
    6.6817    0.3792   24.5763 C   0  0  0  0  0  0  0  0  0  0  0  0
    6.7038   -0.5202   25.3055 N   0  0  0  0  0  0  0  0  0  0  0  0
    5.4399    0.6327   20.1641 C   0  0  0  0  0  0  0  0  0  0  0  0
    5.0019    0.5878   21.1649 H   0  0  0  0  0  0  0  0  0  0  0  0
    4.8139    1.2922   19.1090 C   0  0  0  0  0  0  0  0  0  0  0  0
    3.8817    1.8195   19.2450 H   0  0  0  0  0  0  0  0  0  0  0  0
  1  2  1  0
  2  3  2  0
  3  4  1  0
  4  5  1  0
  4  6  2  0
  6  7  1  0
  7  8  2  0
  7  9  1  1
  9 10  1  0
  9 11  1  0
  9 12  1  0
 12 13  2  0
 13 14  1  0
 13 15  1  0
 15 16  1  0
 15 17  2  0
 17 18  1  0
 17 19  1  0
 19 20  1  0
 19 21  2  0
 21 22  1  0
 22 23  3  0
  6 24  1  0
 24 25  1  0
 24 26  2  0
 26 27  1  0
 26  2  1  0
 21 12  1  0
M  END
>  <cnnaffinity>  (1) 
-4.44859

>  <filename>  (1) 
N#Cc1ccccc1C[S@@](=O)c1cccnc1

$$$$
