
     RDKit          3D

 33 36  0  0  0  0  0  0  0  0999 V2000
    4.9901    1.8479   16.9158 H   0  0  0  0  0  0  0  0  0  0  0  0
    5.4235    1.2985   17.7497 C   0  0  0  0  0  0  0  0  0  0  0  0
    6.5701    0.6492   17.4973 N   0  0  0  0  0  0  0  0  0  0  0  0
    7.1481    0.0030   18.5162 C   0  0  0  0  0  0  0  0  0  0  0  0
    8.0884   -0.4981   18.2897 H   0  0  0  0  0  0  0  0  0  0  0  0
    6.6213   -0.0335   19.8239 C   0  0  0  0  0  0  0  0  0  0  0  0
    7.3655   -0.6624   20.9327 C   0  0  0  0  0  0  0  0  0  0  0  0
    8.5042   -1.3392   20.7060 N   0  0  0  0  0  0  0  0  0  0  0  0
    8.9180   -1.6588   21.9567 N   0  0  0  0  0  0  0  0  0  0  0  0
   10.0268   -2.2977   22.5027 C   0  0  0  0  0  0  0  0  0  0  0  0
   10.7745   -2.7133   21.8554 H   0  0  0  0  0  0  0  0  0  0  0  0
    9.8854   -2.2131   23.8505 C   0  0  0  0  0  0  0  0  0  0  0  0
   10.5151   -2.5613   24.6550 H   0  0  0  0  0  0  0  0  0  0  0  0
    8.7025   -1.5269   24.1364 N   0  0  0  0  0  0  0  0  0  0  0  0
    8.1676   -1.1245   25.3858 C   0  0  0  0  0  0  0  0  0  0  0  0
    6.8102   -1.3852   25.6235 C   0  0  0  0  0  0  0  0  0  0  0  0
    6.2488   -1.9134   24.8575 H   0  0  0  0  0  0  0  0  0  0  0  0
    6.1951   -0.9399   26.7903 C   0  0  0  0  0  0  0  0  0  0  0  0
    5.1340   -1.1214   26.9413 H   0  0  0  0  0  0  0  0  0  0  0  0
    6.9361   -0.2402   27.7484 C   0  0  0  0  0  0  0  0  0  0  0  0
    6.4460    0.1387   28.6431 H   0  0  0  0  0  0  0  0  0  0  0  0
    8.2899    0.0072   27.5275 C   0  0  0  0  0  0  0  0  0  0  0  0
    8.8654    0.5246   28.2863 H   0  0  0  0  0  0  0  0  0  0  0  0
    8.9211   -0.3945   26.3379 C   0  0  0  0  0  0  0  0  0  0  0  0
   10.2650    0.0377   26.0198 C   0  0  0  0  0  0  0  0  0  0  0  0
   11.3092    0.3670   25.6377 N   0  0  0  0  0  0  0  0  0  0  0  0
    8.1130   -1.2010   22.9252 C   0  0  0  0  0  0  0  0  0  0  0  0
    7.0479   -0.5612   22.3110 C   0  0  0  0  0  0  0  0  0  0  0  0
    6.1758   -0.1105   22.7490 H   0  0  0  0  0  0  0  0  0  0  0  0
    5.3995    0.6210   20.0559 C   0  0  0  0  0  0  0  0  0  0  0  0
    4.9363    0.6357   21.0467 H   0  0  0  0  0  0  0  0  0  0  0  0
    4.7971    1.2987   19.0010 C   0  0  0  0  0  0  0  0  0  0  0  0
    3.8787    1.8547   19.1443 H   0  0  0  0  0  0  0  0  0  0  0  0
  1  2  1  0
  2  3  2  0
  3  4  1  0
  4  5  1  0
  4  6  2  0
  6  7  1  0
  7  8  2  0
  8  9  1  0
  9 10  1  0
 10 11  1  0
 10 12  2  0
 12 13  1  0
 12 14  1  0
 14 15  1  0
 15 16  2  0
 16 17  1  0
 16 18  1  0
 18 19  1  0
 18 20  2  0
 20 21  1  0
 20 22  1  0
 22 23  1  0
 22 24  2  0
 24 25  1  0
 25 26  3  0
 14 27  1  0
 27 28  2  0
 28 29  1  0
  6 30  1  0
 30 31  1  0
 30 32  2  0
 32 33  1  0
 32  2  1  0
 28  7  1  0
 27  9  1  0
 24 15  1  0
M  END
>  <cnnaffinity>  (1) 
-5.42318

>  <filename>  (1) 
N#Cc1ccccc1-n1ccn2nc(-c3cccnc3)cc12

$$$$
