
     RDKit          3D

 33 35  0  0  0  0  0  0  0  0999 V2000
    9.4635    0.9604   20.4252 H   0  0  0  0  0  0  0  0  0  0  0  0
    9.7182    0.0710   21.0102 C   0  0  0  0  0  0  0  0  0  0  0  0
    8.7597   -0.8169   21.3466 C   0  0  0  0  0  0  0  0  0  0  0  0
    7.3070   -0.8119   21.0159 C   0  0  0  0  0  0  0  0  0  0  0  0
    6.6652   -0.0261   19.9339 C   0  0  0  0  0  0  0  0  0  0  0  0
    7.2457    0.0207   18.6617 C   0  0  0  0  0  0  0  0  0  0  0  0
    8.1930   -0.4871   18.4715 H   0  0  0  0  0  0  0  0  0  0  0  0
    6.7018    0.6605   17.6177 N   0  0  0  0  0  0  0  0  0  0  0  0
    5.5399    1.2993   17.8225 C   0  0  0  0  0  0  0  0  0  0  0  0
    5.1087    1.7980   16.9566 H   0  0  0  0  0  0  0  0  0  0  0  0
    4.8686    1.3081   19.0506 C   0  0  0  0  0  0  0  0  0  0  0  0
    3.9311    1.8498   19.1467 H   0  0  0  0  0  0  0  0  0  0  0  0
    5.4313    0.6205   20.1223 C   0  0  0  0  0  0  0  0  0  0  0  0
    4.9358    0.5797   21.0944 H   0  0  0  0  0  0  0  0  0  0  0  0
    6.6087   -1.5894   21.7605 N   0  0  0  0  0  0  0  0  0  0  0  0
    7.4657   -2.2195   22.7642 C   0  0  0  0  0  0  0  0  0  0  0  0
    7.2155   -1.7904   23.7399 H   0  0  0  0  0  0  0  0  0  0  0  0
    7.2509   -3.2901   22.8149 H   0  0  0  0  0  0  0  0  0  0  0  0
    8.9283   -1.9016   22.3923 C   0  0  0  0  0  0  0  0  0  0  0  0
    9.4272   -2.7838   21.9778 H   0  0  0  0  0  0  0  0  0  0  0  0
    9.5133   -1.5448   23.2463 H   0  0  0  0  0  0  0  0  0  0  0  0
   11.1184    0.0088   21.5158 C   0  0  0  0  0  0  0  0  0  0  0  0
   11.8915   -1.1686   21.4379 C   0  0  0  0  0  0  0  0  0  0  0  0
   11.4485   -2.0277   20.9516 H   0  0  0  0  0  0  0  0  0  0  0  0
   13.2143   -1.2134   21.8811 C   0  0  0  0  0  0  0  0  0  0  0  0
   13.7850   -2.1339   21.7826 H   0  0  0  0  0  0  0  0  0  0  0  0
   13.8087   -0.0690   22.4247 C   0  0  0  0  0  0  0  0  0  0  0  0
   14.8538   -0.0906   22.7237 H   0  0  0  0  0  0  0  0  0  0  0  0
   13.0610    1.1005   22.5585 C   0  0  0  0  0  0  0  0  0  0  0  0
   13.5009    1.9832   23.0160 H   0  0  0  0  0  0  0  0  0  0  0  0
   11.7318    1.1524   22.1100 C   0  0  0  0  0  0  0  0  0  0  0  0
   10.9510    2.3326   22.3837 C   0  0  0  0  0  0  0  0  0  0  0  0
   10.2753    3.2307   22.6607 N   0  0  0  0  0  0  0  0  0  0  0  0
  1  2  1  0
  2  3  2  3
  3  4  1  0
  4  5  1  0
  5  6  2  0
  6  7  1  0
  6  8  1  0
  8  9  2  0
  9 10  1  0
  9 11  1  0
 11 12  1  0
 11 13  2  0
 13 14  1  0
  4 15  2  0
 15 16  1  0
 16 17  1  0
 16 18  1  0
 16 19  1  0
 19 20  1  0
 19 21  1  0
  2 22  1  0
 22 23  2  0
 23 24  1  0
 23 25  1  0
 25 26  1  0
 25 27  2  0
 27 28  1  0
 27 29  1  0
 29 30  1  0
 29 31  2  0
 31 32  1  0
 32 33  3  0
 19  3  1  0
 31 22  1  0
 13  5  1  0
M  END
>  <cnnaffinity>  (1) 
-6.0041

>  <filename>  (1) 
N#Cc1ccccc1C=C1CCN=C1c1cccnc1

$$$$
