
     RDKit          3D

 31 34  0  0  0  0  0  0  0  0999 V2000
    4.9400    1.7761   16.9960 H   0  0  0  0  0  0  0  0  0  0  0  0
    5.4082    1.2923   17.8515 C   0  0  0  0  0  0  0  0  0  0  0  0
    6.5673    0.6611   17.6118 N   0  0  0  0  0  0  0  0  0  0  0  0
    7.1627    0.0857   18.6588 C   0  0  0  0  0  0  0  0  0  0  0  0
    8.1036   -0.4115   18.4383 H   0  0  0  0  0  0  0  0  0  0  0  0
    6.6689    0.1007   19.9800 C   0  0  0  0  0  0  0  0  0  0  0  0
    7.4508   -0.6026   21.0160 C   0  0  0  0  0  0  0  0  0  0  0  0
    8.3285   -1.6089   20.8445 C   0  0  0  0  0  0  0  0  0  0  0  0
    8.7578   -1.9523   19.9176 H   0  0  0  0  0  0  0  0  0  0  0  0
    8.8988   -2.3032   22.3308 S   0  0  0  0  0  0  0  0  0  0  0  0
    8.0945   -1.0427   23.2117 C   0  0  0  0  0  0  0  0  0  0  0  0
    8.1261   -0.5243   24.4156 N   0  0  0  0  0  0  0  0  0  0  0  0
    7.3471    0.5846   24.2587 C   0  0  0  0  0  0  0  0  0  0  0  0
    7.1035    1.5474   25.3588 C   0  0  0  0  0  0  0  0  0  0  0  0
    7.7667    1.3635   26.5908 C   0  0  0  0  0  0  0  0  0  0  0  0
    8.4536    0.5265   26.7055 H   0  0  0  0  0  0  0  0  0  0  0  0
    7.5537    2.2307   27.6566 C   0  0  0  0  0  0  0  0  0  0  0  0
    8.0680    2.0559   28.5970 H   0  0  0  0  0  0  0  0  0  0  0  0
    6.6802    3.3165   27.5257 C   0  0  0  0  0  0  0  0  0  0  0  0
    6.5062    3.9905   28.3630 H   0  0  0  0  0  0  0  0  0  0  0  0
    6.0236    3.5224   26.3157 C   0  0  0  0  0  0  0  0  0  0  0  0
    5.3444    4.3623   26.2031 H   0  0  0  0  0  0  0  0  0  0  0  0
    6.2200    2.6516   25.2261 C   0  0  0  0  0  0  0  0  0  0  0  0
    5.4527    2.9667   24.0359 C   0  0  0  0  0  0  0  0  0  0  0  0
    4.7589    3.3376   23.1824 N   0  0  0  0  0  0  0  0  0  0  0  0
    6.8380    0.7645   23.0378 N   0  0  0  0  0  0  0  0  0  0  0  0
    7.3303   -0.3041   22.3786 N   0  0  0  0  0  0  0  0  0  0  0  0
    5.4393    0.7495   20.2085 C   0  0  0  0  0  0  0  0  0  0  0  0
    5.0106    0.7883   21.2145 H   0  0  0  0  0  0  0  0  0  0  0  0
    4.8016    1.3399   19.1150 C   0  0  0  0  0  0  0  0  0  0  0  0
    3.8495    1.8501   19.2250 H   0  0  0  0  0  0  0  0  0  0  0  0
  1  2  1  0
  2  3  2  0
  3  4  1  0
  4  5  1  0
  4  6  2  0
  6  7  1  0
  7  8  2  0
  8  9  1  0
  8 10  1  0
 10 11  1  0
 11 12  2  0
 12 13  1  0
 13 14  1  0
 14 15  2  0
 15 16  1  0
 15 17  1  0
 17 18  1  0
 17 19  2  0
 19 20  1  0
 19 21  1  0
 21 22  1  0
 21 23  2  0
 23 24  1  0
 24 25  3  0
 13 26  2  0
 26 27  1  0
  6 28  1  0
 28 29  1  0
 28 30  2  0
 30 31  1  0
 30  2  1  0
 27  7  1  0
 27 11  1  0
 23 14  1  0
M  END
>  <cnnaffinity>  (1) 
-5.23604

>  <filename>  (1) 
N#Cc1ccccc1-c1nc2scc(-c3cccnc3)n2n1

$$$$
