
     RDKit          3D

 30 32  0  0  0  0  0  0  0  0999 V2000
    4.9880    1.9692   16.7208 H   0  0  0  0  0  0  0  0  0  0  0  0
    5.4070    1.4052   17.5551 C   0  0  0  0  0  0  0  0  0  0  0  0
    6.5109    0.6886   17.2821 N   0  0  0  0  0  0  0  0  0  0  0  0
    7.0630   -0.0176   18.2750 C   0  0  0  0  0  0  0  0  0  0  0  0
    7.9542   -0.5969   18.0384 H   0  0  0  0  0  0  0  0  0  0  0  0
    6.5377   -0.0602   19.5723 C   0  0  0  0  0  0  0  0  0  0  0  0
    7.2424   -0.7844   20.5138 O   0  0  0  0  0  0  0  0  0  0  0  0
    6.5749   -1.7333   21.2444 C   0  0  0  0  0  0  0  0  0  0  0  0
    5.5933   -2.6702   20.8618 C   0  0  0  0  0  0  0  0  0  0  0  0
    5.1366   -2.8201   19.8912 H   0  0  0  0  0  0  0  0  0  0  0  0
    5.2108   -3.3961   21.9092 N   0  0  0  0  0  0  0  0  0  0  0  0
    5.9790   -2.9712   22.9235 N   0  0  0  0  0  0  0  0  0  0  0  0
    5.7951   -3.3234   23.8565 H   0  0  0  0  0  0  0  0  0  0  0  0
    6.8612   -1.9907   22.5716 C   0  0  0  0  0  0  0  0  0  0  0  0
    8.0282   -1.5395   23.3679 C   0  0  0  0  0  0  0  0  0  0  0  0
    8.3715   -0.1752   23.4012 C   0  0  0  0  0  0  0  0  0  0  0  0
    7.6722    0.5550   23.0058 H   0  0  0  0  0  0  0  0  0  0  0  0
    9.5921    0.2543   23.9215 C   0  0  0  0  0  0  0  0  0  0  0  0
    9.8255    1.3171   23.9404 H   0  0  0  0  0  0  0  0  0  0  0  0
   10.5212   -0.6836   24.3869 C   0  0  0  0  0  0  0  0  0  0  0  0
   11.4957   -0.3486   24.7320 H   0  0  0  0  0  0  0  0  0  0  0  0
   10.1820   -2.0366   24.4256 C   0  0  0  0  0  0  0  0  0  0  0  0
   10.8783   -2.7815   24.8068 H   0  0  0  0  0  0  0  0  0  0  0  0
    8.9311   -2.4720   23.9562 C   0  0  0  0  0  0  0  0  0  0  0  0
    8.6455   -3.8804   24.1431 C   0  0  0  0  0  0  0  0  0  0  0  0
    8.4711   -5.0023   24.3720 N   0  0  0  0  0  0  0  0  0  0  0  0
    5.3837    0.6798   19.8645 C   0  0  0  0  0  0  0  0  0  0  0  0
    4.9548    0.6675   20.8690 H   0  0  0  0  0  0  0  0  0  0  0  0
    4.8129    1.4270   18.8224 C   0  0  0  0  0  0  0  0  0  0  0  0
    3.9278    2.0344   18.9826 H   0  0  0  0  0  0  0  0  0  0  0  0
  1  2  1  0
  2  3  2  0
  3  4  1  0
  4  5  1  0
  4  6  2  0
  6  7  1  0
  7  8  1  0
  8  9  1  0
  9 10  1  0
  9 11  2  0
 11 12  1  0
 12 13  1  0
 12 14  1  0
 14 15  1  0
 15 16  2  0
 16 17  1  0
 16 18  1  0
 18 19  1  0
 18 20  2  0
 20 21  1  0
 20 22  1  0
 22 23  1  0
 22 24  2  0
 24 25  1  0
 25 26  3  0
  6 27  1  0
 27 28  1  0
 27 29  2  0
 29 30  1  0
 29  2  1  0
 14  8  2  0
 24 15  1  0
M  END
>  <cnnaffinity>  (1) 
-5.33757

>  <filename>  (1) 
N#Cc1ccccc1-c1[nH]ncc1Oc1cccnc1

$$$$
