
     RDKit          3D

 30 32  0  0  0  0  0  0  0  0999 V2000
    4.9199    1.7967   16.9750 H   0  0  0  0  0  0  0  0  0  0  0  0
    5.3932    1.3013   17.8204 C   0  0  0  0  0  0  0  0  0  0  0  0
    6.5588    0.6843   17.5624 N   0  0  0  0  0  0  0  0  0  0  0  0
    7.1707    0.0722   18.5844 C   0  0  0  0  0  0  0  0  0  0  0  0
    8.1088   -0.4230   18.3337 H   0  0  0  0  0  0  0  0  0  0  0  0
    6.6649    0.0194   19.8994 C   0  0  0  0  0  0  0  0  0  0  0  0
    7.3387   -0.6985   20.9815 C   0  0  0  0  0  0  0  0  0  0  0  0
    6.8242   -1.2222   22.1091 C   0  0  0  0  0  0  0  0  0  0  0  0
    5.8057   -1.2672   22.4114 H   0  0  0  0  0  0  0  0  0  0  0  0
    7.8373   -1.8003   22.8581 N   0  0  0  0  0  0  0  0  0  0  0  0
    7.6936   -2.4246   24.1261 C   0  0  0  0  0  0  0  0  0  0  0  0
    8.5404   -2.0321   25.1665 C   0  0  0  0  0  0  0  0  0  0  0  0
    9.2947   -1.2790   24.9585 H   0  0  0  0  0  0  0  0  0  0  0  0
    8.4166   -2.6117   26.4271 C   0  0  0  0  0  0  0  0  0  0  0  0
    9.0888   -2.3041   27.2211 H   0  0  0  0  0  0  0  0  0  0  0  0
    7.4483   -3.5934   26.6613 C   0  0  0  0  0  0  0  0  0  0  0  0
    7.3626   -4.0519   27.6431 H   0  0  0  0  0  0  0  0  0  0  0  0
    6.5988   -3.9900   25.6296 C   0  0  0  0  0  0  0  0  0  0  0  0
    5.8447   -4.7505   25.8070 H   0  0  0  0  0  0  0  0  0  0  0  0
    6.7028   -3.4122   24.3524 C   0  0  0  0  0  0  0  0  0  0  0  0
    5.8208   -3.8772   23.3074 C   0  0  0  0  0  0  0  0  0  0  0  0
    5.1179   -4.2488   22.4631 N   0  0  0  0  0  0  0  0  0  0  0  0
    9.0486   -1.6319   22.1775 C   0  0  0  0  0  0  0  0  0  0  0  0
   10.1765   -1.9584   22.4815 O   0  0  0  0  0  0  0  0  0  0  0  0
    8.6935   -0.9887   21.0177 N   0  0  0  0  0  0  0  0  0  0  0  0
    9.4267   -0.6946   20.4070 H   0  0  0  0  0  0  0  0  0  0  0  0
    5.4357    0.6630   20.1387 C   0  0  0  0  0  0  0  0  0  0  0  0
    5.0040    0.6608   21.1418 H   0  0  0  0  0  0  0  0  0  0  0  0
    4.7986    1.3192   19.0864 C   0  0  0  0  0  0  0  0  0  0  0  0
    3.8659    1.8495   19.2373 H   0  0  0  0  0  0  0  0  0  0  0  0
  1  2  1  0
  2  3  2  0
  3  4  1  0
  4  5  1  0
  4  6  2  0
  6  7  1  0
  7  8  2  0
  8  9  1  0
  8 10  1  0
 10 11  1  0
 11 12  2  0
 12 13  1  0
 12 14  1  0
 14 15  1  0
 14 16  2  0
 16 17  1  0
 16 18  1  0
 18 19  1  0
 18 20  2  0
 20 21  1  0
 21 22  3  0
 10 23  1  0
 23 24  2  0
 23 25  1  0
 25 26  1  0
  6 27  1  0
 27 28  1  0
 27 29  2  0
 29 30  1  0
 29  2  1  0
 25  7  1  0
 20 11  1  0
M  END
>  <cnnaffinity>  (1) 
-5.46584

>  <filename>  (1) 
N#Cc1ccccc1-n1cc(-c2cccnc2)[nH]c1=O

$$$$
