
     RDKit          3D

 31 34  0  0  0  0  0  0  0  0999 V2000
    4.9534    1.7797   16.9926 H   0  0  0  0  0  0  0  0  0  0  0  0
    5.4106    1.2819   17.8464 C   0  0  0  0  0  0  0  0  0  0  0  0
    6.5725    0.6584   17.6036 N   0  0  0  0  0  0  0  0  0  0  0  0
    7.1710    0.0466   18.6293 C   0  0  0  0  0  0  0  0  0  0  0  0
    8.1205   -0.4345   18.4024 H   0  0  0  0  0  0  0  0  0  0  0  0
    6.6366    0.0114   19.9244 C   0  0  0  0  0  0  0  0  0  0  0  0
    7.3684   -0.7017   20.9665 C   0  0  0  0  0  0  0  0  0  0  0  0
    8.5599   -1.3296   20.7421 N   0  0  0  0  0  0  0  0  0  0  0  0
    8.8269   -1.8100   21.9397 C   0  0  0  0  0  0  0  0  0  0  0  0
   10.0723   -2.7180   22.7492 S   0  0  0  0  0  0  0  0  0  0  0  0
    9.2035   -2.5803   24.2536 C   0  0  0  0  0  0  0  0  0  0  0  0
    9.5849   -3.0461   25.1521 H   0  0  0  0  0  0  0  0  0  0  0  0
    8.0490   -1.8897   24.1499 C   0  0  0  0  0  0  0  0  0  0  0  0
    7.0539   -1.6176   25.2175 C   0  0  0  0  0  0  0  0  0  0  0  0
    5.6853   -1.8552   24.9884 C   0  0  0  0  0  0  0  0  0  0  0  0
    5.4197   -2.2345   24.0090 H   0  0  0  0  0  0  0  0  0  0  0  0
    4.7290   -1.6293   25.9767 C   0  0  0  0  0  0  0  0  0  0  0  0
    3.6733   -1.7824   25.7613 H   0  0  0  0  0  0  0  0  0  0  0  0
    5.1266   -1.1914   27.2466 C   0  0  0  0  0  0  0  0  0  0  0  0
    4.3926   -1.0232   28.0326 H   0  0  0  0  0  0  0  0  0  0  0  0
    6.4775   -0.9689   27.5069 C   0  0  0  0  0  0  0  0  0  0  0  0
    6.7934   -0.6171   28.4842 H   0  0  0  0  0  0  0  0  0  0  0  0
    7.4444   -1.1779   26.5091 C   0  0  0  0  0  0  0  0  0  0  0  0
    8.8220   -0.8922   26.8332 C   0  0  0  0  0  0  0  0  0  0  0  0
    9.9361   -0.6813   27.0670 N   0  0  0  0  0  0  0  0  0  0  0  0
    7.8546   -1.5008   22.8231 N   0  0  0  0  0  0  0  0  0  0  0  0
    6.8979   -0.7754   22.2049 N   0  0  0  0  0  0  0  0  0  0  0  0
    5.4154    0.6618   20.1719 C   0  0  0  0  0  0  0  0  0  0  0  0
    4.9794    0.6537   21.1761 H   0  0  0  0  0  0  0  0  0  0  0  0
    4.7990    1.3104   19.1059 C   0  0  0  0  0  0  0  0  0  0  0  0
    3.8683    1.8471   19.2354 H   0  0  0  0  0  0  0  0  0  0  0  0
  1  2  1  0
  2  3  2  0
  3  4  1  0
  4  5  1  0
  4  6  2  0
  6  7  1  0
  7  8  1  0
  8  9  2  0
  9 10  1  0
 10 11  1  0
 11 12  1  0
 11 13  2  0
 13 14  1  0
 14 15  2  0
 15 16  1  0
 15 17  1  0
 17 18  1  0
 17 19  2  0
 19 20  1  0
 19 21  1  0
 21 22  1  0
 21 23  2  0
 23 24  1  0
 24 25  3  0
 13 26  1  0
 26 27  1  0
  6 28  1  0
 28 29  1  0
 28 30  2  0
 30 31  1  0
 30  2  1  0
 27  7  2  0
 26  9  1  0
 23 14  1  0
M  END
>  <cnnaffinity>  (1) 
-5.56992

>  <filename>  (1) 
N#Cc1ccccc1-c1csc2nc(-c3cccnc3)nn12

$$$$
