
     RDKit          3D

 30 32  0  0  0  0  0  0  0  0999 V2000
    4.9286    1.7910   16.9965 H   0  0  0  0  0  0  0  0  0  0  0  0
    5.3971    1.2908   17.8413 C   0  0  0  0  0  0  0  0  0  0  0  0
    6.5539    0.6635   17.5800 N   0  0  0  0  0  0  0  0  0  0  0  0
    7.1703    0.0421   18.5895 C   0  0  0  0  0  0  0  0  0  0  0  0
    8.1240   -0.4277   18.3611 H   0  0  0  0  0  0  0  0  0  0  0  0
    6.6516   -0.0075   19.8975 C   0  0  0  0  0  0  0  0  0  0  0  0
    7.3393   -0.6823   20.9428 N   0  0  0  0  0  0  0  0  0  0  0  0
    6.7427   -1.5878   21.8070 C   0  0  0  0  0  0  0  0  0  0  0  0
    5.6915   -1.8204   21.7479 H   0  0  0  0  0  0  0  0  0  0  0  0
    7.6790   -2.0263   22.6770 C   0  0  0  0  0  0  0  0  0  0  0  0
    7.5752   -2.9529   23.8157 C   0  0  0  0  0  0  0  0  0  0  0  0
    8.2421   -2.6813   25.0291 C   0  0  0  0  0  0  0  0  0  0  0  0
    8.8611   -1.7875   25.0910 H   0  0  0  0  0  0  0  0  0  0  0  0
    8.0854   -3.5079   26.1369 C   0  0  0  0  0  0  0  0  0  0  0  0
    8.6095   -3.2742   27.0648 H   0  0  0  0  0  0  0  0  0  0  0  0
    7.2552   -4.6351   26.0488 C   0  0  0  0  0  0  0  0  0  0  0  0
    7.1328   -5.2854   26.9109 H   0  0  0  0  0  0  0  0  0  0  0  0
    6.5922   -4.9317   24.8571 C   0  0  0  0  0  0  0  0  0  0  0  0
    5.9477   -5.8058   24.7808 H   0  0  0  0  0  0  0  0  0  0  0  0
    6.7466   -4.1028   23.7322 C   0  0  0  0  0  0  0  0  0  0  0  0
    6.0704   -4.4817   22.5045 C   0  0  0  0  0  0  0  0  0  0  0  0
    5.5308   -4.7834   21.5241 N   0  0  0  0  0  0  0  0  0  0  0  0
    8.8395   -1.3537   22.3357 N   0  0  0  0  0  0  0  0  0  0  0  0
    9.7634   -1.4327   22.7276 H   0  0  0  0  0  0  0  0  0  0  0  0
    8.6618   -0.5012   21.3002 C   0  0  0  0  0  0  0  0  0  0  0  0
    9.8249    0.5260   20.7348 S   0  0  0  0  0  0  0  0  0  0  0  0
    5.4431    0.6366   20.1643 C   0  0  0  0  0  0  0  0  0  0  0  0
    5.0356    0.6281   21.1781 H   0  0  0  0  0  0  0  0  0  0  0  0
    4.8125    1.3053   19.1116 C   0  0  0  0  0  0  0  0  0  0  0  0
    3.8846    1.8374   19.2604 H   0  0  0  0  0  0  0  0  0  0  0  0
  1  2  1  0
  2  3  2  0
  3  4  1  0
  4  5  1  0
  4  6  2  0
  6  7  1  0
  7  8  1  0
  8  9  1  0
  8 10  2  0
 10 11  1  0
 11 12  2  0
 12 13  1  0
 12 14  1  0
 14 15  1  0
 14 16  2  0
 16 17  1  0
 16 18  1  0
 18 19  1  0
 18 20  2  0
 20 21  1  0
 21 22  3  0
 10 23  1  0
 23 24  1  0
 23 25  1  0
 25 26  2  0
  6 27  1  0
 27 28  1  0
 27 29  2  0
 29 30  1  0
 29  2  1  0
 25  7  1  0
 20 11  1  0
M  END
>  <cnnaffinity>  (1) 
-5.5954

>  <filename>  (1) 
N#Cc1ccccc1-c1cn(-c2cccnc2)c(=S)[nH]1

$$$$
