
     RDKit          3D

 32 34  0  0  0  0  0  0  0  0999 V2000
    4.8817    1.9056   16.9209 H   0  0  0  0  0  0  0  0  0  0  0  0
    5.3576    1.3608   17.7329 C   0  0  0  0  0  0  0  0  0  0  0  0
    6.5081    0.7337   17.4392 N   0  0  0  0  0  0  0  0  0  0  0  0
    7.1262    0.0879   18.4363 C   0  0  0  0  0  0  0  0  0  0  0  0
    8.0715   -0.3912   18.1991 H   0  0  0  0  0  0  0  0  0  0  0  0
    6.6231    0.0116   19.7540 C   0  0  0  0  0  0  0  0  0  0  0  0
    7.3298   -0.6666   20.8271 N   0  0  0  0  0  0  0  0  0  0  0  0
    8.5895   -0.1674   21.2688 C   0  0  0  0  0  0  0  0  0  0  0  0
    9.1148    0.7722   20.7078 O   0  0  0  0  0  0  0  0  0  0  0  0
    9.2028   -0.8546   22.3845 C   0  0  0  0  0  0  0  0  0  0  0  0
   10.1673   -0.4733   22.6595 H   0  0  0  0  0  0  0  0  0  0  0  0
    8.6007   -1.8840   23.0072 C   0  0  0  0  0  0  0  0  0  0  0  0
    9.2103   -2.7447   24.0664 C   0  0  0  0  0  0  0  0  0  0  0  0
   10.4632   -3.3306   23.8095 C   0  0  0  0  0  0  0  0  0  0  0  0
   10.9726   -3.1205   22.8696 H   0  0  0  0  0  0  0  0  0  0  0  0
   11.0258   -4.2195   24.7196 C   0  0  0  0  0  0  0  0  0  0  0  0
   11.9407   -4.7352   24.4824 H   0  0  0  0  0  0  0  0  0  0  0  0
   10.4048   -4.4963   25.9379 C   0  0  0  0  0  0  0  0  0  0  0  0
   10.8638   -5.2019   26.6246 H   0  0  0  0  0  0  0  0  0  0  0  0
    9.1906   -3.8937   26.2520 C   0  0  0  0  0  0  0  0  0  0  0  0
    8.7402   -4.0700   27.2293 H   0  0  0  0  0  0  0  0  0  0  0  0
    8.5650   -3.0630   25.3016 C   0  0  0  0  0  0  0  0  0  0  0  0
    7.2446   -2.5817   25.6309 C   0  0  0  0  0  0  0  0  0  0  0  0
    6.1736   -2.2370   25.9040 N   0  0  0  0  0  0  0  0  0  0  0  0
    7.3369   -2.2153   22.5790 N   0  0  0  0  0  0  0  0  0  0  0  0
    6.8802   -3.0477   22.8970 H   0  0  0  0  0  0  0  0  0  0  0  0
    6.7235   -1.7592   21.4409 C   0  0  0  0  0  0  0  0  0  0  0  0
    5.7200   -2.3064   21.0373 O   0  0  0  0  0  0  0  0  0  0  0  0
    5.4095    0.6373   20.0346 C   0  0  0  0  0  0  0  0  0  0  0  0
    4.9845    0.5754   21.0386 H   0  0  0  0  0  0  0  0  0  0  0  0
    4.7756    1.3394   19.0034 C   0  0  0  0  0  0  0  0  0  0  0  0
    3.8517    1.8721   19.1855 H   0  0  0  0  0  0  0  0  0  0  0  0
  1  2  1  0
  2  3  2  0
  3  4  1  0
  4  5  1  0
  4  6  2  0
  6  7  1  0
  7  8  1  0
  8  9  2  0
  8 10  1  0
 10 11  1  0
 10 12  2  0
 12 13  1  0
 13 14  2  0
 14 15  1  0
 14 16  1  0
 16 17  1  0
 16 18  2  0
 18 19  1  0
 18 20  1  0
 20 21  1  0
 20 22  2  0
 22 23  1  0
 23 24  3  0
 12 25  1  0
 25 26  1  0
 25 27  1  0
 27 28  2  0
  6 29  1  0
 29 30  1  0
 29 31  2  0
 31 32  1  0
 31  2  1  0
 27  7  1  0
 22 13  1  0
M  END
>  <cnnaffinity>  (1) 
-5.49514

>  <filename>  (1) 
N#Cc1ccccc1-c1cc(=O)n(-c2cccnc2)c(=O)[nH]1

$$$$
