
     RDKit          3D

 32 34  0  0  0  0  0  0  0  0999 V2000
    4.9095    1.7827   16.9947 H   0  0  0  0  0  0  0  0  0  0  0  0
    5.3964    1.2979   17.8357 C   0  0  0  0  0  0  0  0  0  0  0  0
    6.5590    0.6792   17.5683 N   0  0  0  0  0  0  0  0  0  0  0  0
    7.1681    0.0583   18.5834 C   0  0  0  0  0  0  0  0  0  0  0  0
    8.1205   -0.4248   18.3801 H   0  0  0  0  0  0  0  0  0  0  0  0
    6.6418   -0.0072   19.8878 C   0  0  0  0  0  0  0  0  0  0  0  0
    7.3436   -0.6897   20.9381 N   0  0  0  0  0  0  0  0  0  0  0  0
    6.7198   -1.7455   21.5722 C   0  0  0  0  0  0  0  0  0  0  0  0
    5.7068   -1.9775   21.2382 H   0  0  0  0  0  0  0  0  0  0  0  0
    7.3336   -2.4499   22.5710 C   0  0  0  0  0  0  0  0  0  0  0  0
    6.6489   -3.5779   23.2468 C   0  0  0  0  0  0  0  0  0  0  0  0
    6.5416   -3.5700   24.6482 C   0  0  0  0  0  0  0  0  0  0  0  0
    6.9604   -2.7305   25.1998 H   0  0  0  0  0  0  0  0  0  0  0  0
    5.8872   -4.5962   25.3193 C   0  0  0  0  0  0  0  0  0  0  0  0
    5.8072   -4.5690   26.4026 H   0  0  0  0  0  0  0  0  0  0  0  0
    5.3441   -5.6658   24.5981 C   0  0  0  0  0  0  0  0  0  0  0  0
    4.8378   -6.4693   25.1249 H   0  0  0  0  0  0  0  0  0  0  0  0
    5.4562   -5.7069   23.2094 C   0  0  0  0  0  0  0  0  0  0  0  0
    5.0390   -6.5403   22.6507 H   0  0  0  0  0  0  0  0  0  0  0  0
    6.1038   -4.6682   22.5211 C   0  0  0  0  0  0  0  0  0  0  0  0
    6.2400   -4.7732   21.0840 C   0  0  0  0  0  0  0  0  0  0  0  0
    6.3365   -4.8568   19.9347 N   0  0  0  0  0  0  0  0  0  0  0  0
    8.6509   -2.0642   22.9659 C   0  0  0  0  0  0  0  0  0  0  0  0
    9.1563   -2.6271   23.7546 H   0  0  0  0  0  0  0  0  0  0  0  0
    9.2878   -1.0353   22.3483 C   0  0  0  0  0  0  0  0  0  0  0  0
   10.2824   -0.7048   22.6030 H   0  0  0  0  0  0  0  0  0  0  0  0
    8.6710   -0.2557   21.2902 C   0  0  0  0  0  0  0  0  0  0  0  0
    9.2151    0.6759   20.7215 O   0  0  0  0  0  0  0  0  0  0  0  0
    5.4321    0.6411   20.1560 C   0  0  0  0  0  0  0  0  0  0  0  0
    5.0213    0.6232   21.1696 H   0  0  0  0  0  0  0  0  0  0  0  0
    4.8026    1.3179   19.1044 C   0  0  0  0  0  0  0  0  0  0  0  0
    3.8685    1.8482   19.2626 H   0  0  0  0  0  0  0  0  0  0  0  0
  1  2  1  0
  2  3  2  0
  3  4  1  0
  4  5  1  0
  4  6  2  0
  6  7  1  0
  7  8  1  0
  8  9  1  0
  8 10  2  0
 10 11  1  0
 11 12  2  0
 12 13  1  0
 12 14  1  0
 14 15  1  0
 14 16  2  0
 16 17  1  0
 16 18  1  0
 18 19  1  0
 18 20  2  0
 20 21  1  0
 21 22  3  0
 10 23  1  0
 23 24  1  0
 23 25  2  0
 25 26  1  0
 25 27  1  0
 27 28  2  0
  6 29  1  0
 29 30  1  0
 29 31  2  0
 31 32  1  0
 31  2  1  0
 27  7  1  0
 20 11  1  0
M  END
>  <cnnaffinity>  (1) 
-5.29651

>  <filename>  (1) 
N#Cc1ccccc1-c1ccc(=O)n(-c2cccnc2)c1

$$$$
