
     RDKit          3D

 24 26  0  0  0  0  0  0  0  0999 V2000
    6.5533    0.9010   26.2048 H   0  0  0  0  0  0  0  0  0  0  0  0
    6.4794    1.5445   25.4048 N   0  0  0  0  0  0  0  0  0  0  0  0
    6.5946    1.0038   24.3374 N   0  0  0  0  0  4  0  0  0  0  0  0
    6.5461    0.7210   23.1691 N   0  0  0  0  0  0  0  0  0  0  0  0
    7.2876   -0.1871   22.4478 C   0  0  0  0  0  0  0  0  0  0  0  0
    7.3910   -0.5067   21.0753 C   0  0  0  0  0  0  0  0  0  0  0  0
    6.6724    0.0931   19.9310 C   0  0  0  0  0  0  0  0  0  0  0  0
    7.1514   -0.0308   18.6024 C   0  0  0  0  0  0  0  0  0  0  0  0
    8.0176   -0.6566   18.3835 H   0  0  0  0  0  0  0  0  0  0  0  0
    6.5841    0.5693   17.5547 N   0  0  0  0  0  0  0  0  0  0  0  0
    5.4609    1.2687   17.7763 C   0  0  0  0  0  0  0  0  0  0  0  0
    5.0130    1.7313   16.9003 H   0  0  0  0  0  0  0  0  0  0  0  0
    4.8656    1.3813   19.0329 C   0  0  0  0  0  0  0  0  0  0  0  0
    3.9341    1.9130   19.1366 H   0  0  0  0  0  0  0  0  0  0  0  0
    5.4781    0.8014   20.1378 C   0  0  0  0  0  0  0  0  0  0  0  0
    5.0620    0.8794   21.1453 H   0  0  0  0  0  0  0  0  0  0  0  0
    8.2913   -1.5250   20.8835 N   0  0  0  0  0  0  0  0  0  0  0  0
    8.7150   -1.8377   22.0763 C   0  0  0  0  0  0  0  0  0  0  0  0
    9.8279   -3.0161   22.7420 S   0  0  0  0  0  0  0  0  0  0  0  0
    9.4861   -2.3948   24.3460 C   0  0  0  0  0  0  0  0  0  0  0  0
    9.9578   -2.8558   25.1984 H   0  0  0  0  0  0  0  0  0  0  0  0
    8.6268   -1.3682   24.3576 C   0  0  0  0  0  0  0  0  0  0  0  0
    8.3080   -0.8076   25.2361 H   0  0  0  0  0  0  0  0  0  0  0  0
    8.1800   -1.0645   23.0701 N   0  0  0  0  0  0  0  0  0  0  0  0
  1  2  1  0
  2  3  2  0
  3  4  2  0
  4  5  1  0
  5  6  2  0
  6  7  1  0
  7  8  2  0
  8  9  1  0
  8 10  1  0
 10 11  2  0
 11 12  1  0
 11 13  1  0
 13 14  1  0
 13 15  2  0
 15 16  1  0
  6 17  1  0
 17 18  2  0
 18 19  1  0
 19 20  1  0
 20 21  1  0
 20 22  2  0
 22 23  1  0
 22 24  1  0
 24  5  1  0
 15  7  1  0
 24 18  1  0
M  CHG  1   3   1
M  END
>  <cnnaffinity>  (1) 
-5.10108

>  <filename>  (1) 
N=[N+]=Nc1c(-c2cccnc2)nc2sccn12

$$$$
