
     RDKit          3D

 21 22  0  0  0  0  0  0  0  0999 V2000
   12.0880   -1.5145   20.0535 H   0  0  0  0  0  0  0  0  0  0  0  0
   12.3547   -1.7443   21.0227 N   0  0  0  0  0  0  0  0  0  0  0  0
   11.3468   -1.9210   21.6711 N   0  0  0  0  0  4  0  0  0  0  0  0
   10.4585   -2.1572   22.4510 N   0  0  0  0  0  0  0  0  0  0  0  0
    9.1402   -1.7062   22.1438 C   0  0  0  0  0  0  0  0  0  0  0  0
    8.1334   -1.9095   23.0310 C   0  0  0  0  0  0  0  0  0  0  0  0
    8.1921   -2.4001   23.9925 H   0  0  0  0  0  0  0  0  0  0  0  0
    6.6571   -1.2650   22.4697 S   0  0  0  0  0  0  0  0  0  0  0  0
    7.3781   -0.7138   20.9822 C   0  0  0  0  0  0  0  0  0  0  0  0
    6.6401   -0.0010   19.9166 C   0  0  0  0  0  0  0  0  0  0  0  0
    7.1531    0.0594   18.6018 C   0  0  0  0  0  0  0  0  0  0  0  0
    8.0948   -0.4245   18.3461 H   0  0  0  0  0  0  0  0  0  0  0  0
    6.5575    0.6737   17.5777 N   0  0  0  0  0  0  0  0  0  0  0  0
    5.3975    1.2978   17.8293 C   0  0  0  0  0  0  0  0  0  0  0  0
    4.9416    1.8074   16.9800 H   0  0  0  0  0  0  0  0  0  0  0  0
    4.8007    1.3099   19.0928 C   0  0  0  0  0  0  0  0  0  0  0  0
    3.8744    1.8453   19.2332 H   0  0  0  0  0  0  0  0  0  0  0  0
    5.4223    0.6537   20.1565 C   0  0  0  0  0  0  0  0  0  0  0  0
    4.9847    0.6639   21.1586 H   0  0  0  0  0  0  0  0  0  0  0  0
    8.7060   -1.0141   20.9678 C   0  0  0  0  0  0  0  0  0  0  0  0
    9.3815   -0.7219   20.1665 H   0  0  0  0  0  0  0  0  0  0  0  0
  1  2  1  0
  2  3  2  0
  3  4  2  0
  4  5  1  0
  5  6  2  0
  6  7  1  0
  6  8  1  0
  8  9  1  0
  9 10  1  0
 10 11  2  0
 11 12  1  0
 11 13  1  0
 13 14  2  0
 14 15  1  0
 14 16  1  0
 16 17  1  0
 16 18  2  0
 18 19  1  0
  9 20  2  0
 20 21  1  0
 20  5  1  0
 18 10  1  0
M  CHG  1   3   1
M  END
>  <cnnaffinity>  (1) 
-4.91091

>  <filename>  (1) 
N=[N+]=Nc1csc(-c2cccnc2)c1

$$$$
