
     RDKit          3D

 25 27  0  0  0  0  0  0  0  0999 V2000
   10.3454   -0.7212   27.8883 H   0  0  0  0  0  0  0  0  0  0  0  0
    9.4369   -0.7188   27.4176 N   0  0  0  0  0  0  0  0  0  0  0  0
    9.5831   -1.0863   26.2255 N   0  0  0  0  0  4  0  0  0  0  0  0
    8.6730   -0.9638   25.3495 N   0  0  0  0  0  0  0  0  0  0  0  0
    8.9057   -1.4010   24.1159 N   0  0  0  0  0  0  0  0  0  0  0  0
   10.0706   -2.0929   23.7339 C   0  0  0  0  0  0  0  0  0  0  0  0
   10.7145   -2.4537   24.5115 H   0  0  0  0  0  0  0  0  0  0  0  0
   10.0900   -2.1861   22.3944 C   0  0  0  0  0  0  0  0  0  0  0  0
   10.7768   -2.6137   21.6821 H   0  0  0  0  0  0  0  0  0  0  0  0
    8.9376   -1.5535   21.9499 N   0  0  0  0  0  0  0  0  0  0  0  0
    8.4760   -1.2749   20.7320 N   0  0  0  0  0  0  0  0  0  0  0  0
    7.3354   -0.6073   20.9749 C   0  0  0  0  0  0  0  0  0  0  0  0
    6.5844   -0.0216   19.8408 C   0  0  0  0  0  0  0  0  0  0  0  0
    7.1230   -0.0160   18.5346 C   0  0  0  0  0  0  0  0  0  0  0  0
    8.0474   -0.5457   18.3100 H   0  0  0  0  0  0  0  0  0  0  0  0
    6.5689    0.6330   17.5080 N   0  0  0  0  0  0  0  0  0  0  0  0
    5.4297    1.3046   17.7334 C   0  0  0  0  0  0  0  0  0  0  0  0
    5.0131    1.8538   16.8914 H   0  0  0  0  0  0  0  0  0  0  0  0
    4.7821    1.3170   18.9711 C   0  0  0  0  0  0  0  0  0  0  0  0
    3.8602    1.8726   19.0930 H   0  0  0  0  0  0  0  0  0  0  0  0
    5.3600    0.6323   20.0355 C   0  0  0  0  0  0  0  0  0  0  0  0
    4.8684    0.6104   21.0069 H   0  0  0  0  0  0  0  0  0  0  0  0
    7.0644   -0.4931   22.3692 C   0  0  0  0  0  0  0  0  0  0  0  0
    6.1655   -0.0701   22.7982 H   0  0  0  0  0  0  0  0  0  0  0  0
    8.1695   -1.0971   22.9684 C   0  0  0  0  0  0  0  0  0  0  0  0
  1  2  1  0
  2  3  2  0
  3  4  2  0
  4  5  1  0
  5  6  1  0
  6  7  1  0
  6  8  2  0
  8  9  1  0
  8 10  1  0
 10 11  1  0
 11 12  2  0
 12 13  1  0
 13 14  2  0
 14 15  1  0
 14 16  1  0
 16 17  2  0
 17 18  1  0
 17 19  1  0
 19 20  1  0
 19 21  2  0
 21 22  1  0
 12 23  1  0
 23 24  1  0
 23 25  2  0
 25  5  1  0
 25 10  1  0
 21 13  1  0
M  CHG  1   3   1
M  END
>  <cnnaffinity>  (1) 
-5.03871

>  <filename>  (1) 
N=[N+]=Nn1ccn2nc(-c3cccnc3)cc12

$$$$
