
     RDKit          3D

 31 32  0  0  0  0  0  0  0  0999 V2000
    8.6610   -2.0477   21.4362 H   0  0  0  0  0  0  0  0  0  0  0  0
    8.3167   -1.6252   20.5811 N   0  0  0  0  0  0  0  0  0  0  0  0
    7.4624   -0.7362   20.8798 C   0  0  0  0  0  0  0  0  0  0  0  0
    7.1001   -0.3664   22.6131 S   0  0  0  0  0  0  0  0  0  0  0  0
    8.1369    1.1002   23.0621 C   0  0  0  0  0  0  0  0  0  0  0  0
    7.8024    1.9682   22.4894 H   0  0  0  0  0  0  0  0  0  0  0  0
    7.8607    1.2660   24.1082 H   0  0  0  0  0  0  0  0  0  0  0  0
    9.6234    0.9118   22.9650 C   0  0  0  0  0  0  0  0  0  0  0  0
   10.3530    1.3137   21.8349 C   0  0  0  0  0  0  0  0  0  0  0  0
    9.8291    1.7357   20.9797 H   0  0  0  0  0  0  0  0  0  0  0  0
   11.7419    1.1945   21.8150 C   0  0  0  0  0  0  0  0  0  0  0  0
   12.2832    1.5610   20.9502 H   0  0  0  0  0  0  0  0  0  0  0  0
   12.4262    0.6655   22.9240 C   0  0  0  0  0  0  0  0  0  0  0  0
   13.9361    0.6105   22.8999 C   0  0  0  0  0  0  0  0  0  0  0  0
   14.4705    1.8328   22.7233 F   0  0  0  0  0  0  0  0  0  0  0  0
   14.3720   -0.1636   21.8864 F   0  0  0  0  0  0  0  0  0  0  0  0
   14.4767    0.1198   24.0275 F   0  0  0  0  0  0  0  0  0  0  0  0
   11.6922    0.2052   24.0280 C   0  0  0  0  0  0  0  0  0  0  0  0
   12.1844   -0.2395   24.8874 H   0  0  0  0  0  0  0  0  0  0  0  0
   10.3078    0.3358   24.0437 C   0  0  0  0  0  0  0  0  0  0  0  0
    9.7526   -0.0130   24.9111 H   0  0  0  0  0  0  0  0  0  0  0  0
    6.7253   -0.0166   19.8218 C   0  0  0  0  0  0  0  0  0  0  0  0
    7.2500   -0.0122   18.5189 C   0  0  0  0  0  0  0  0  0  0  0  0
    8.1708   -0.5427   18.2899 H   0  0  0  0  0  0  0  0  0  0  0  0
    6.6667    0.6167   17.4923 N   0  0  0  0  0  0  0  0  0  0  0  0
    5.5146    1.2635   17.7246 C   0  0  0  0  0  0  0  0  0  0  0  0
    5.0640    1.7765   16.8728 H   0  0  0  0  0  0  0  0  0  0  0  0
    4.8981    1.2941   18.9794 C   0  0  0  0  0  0  0  0  0  0  0  0
    3.9669    1.8296   19.1212 H   0  0  0  0  0  0  0  0  0  0  0  0
    5.5115    0.6433   20.0462 C   0  0  0  0  0  0  0  0  0  0  0  0
    5.0667    0.6479   21.0422 H   0  0  0  0  0  0  0  0  0  0  0  0
  1  2  1  0
  2  3  2  3
  3  4  1  0
  4  5  1  0
  5  6  1  0
  5  7  1  0
  5  8  1  0
  8  9  2  0
  9 10  1  0
  9 11  1  0
 11 12  1  0
 11 13  2  0
 13 14  1  0
 14 15  1  0
 14 16  1  0
 14 17  1  0
 13 18  1  0
 18 19  1  0
 18 20  2  0
 20 21  1  0
  3 22  1  0
 22 23  2  0
 23 24  1  0
 23 25  1  0
 25 26  2  0
 26 27  1  0
 26 28  1  0
 28 29  1  0
 28 30  2  0
 30 31  1  0
 20  8  1  0
 30 22  1  0
M  END
>  <cnnaffinity>  (1) 
-5.21244

>  <filename>  (1) 
N=C(SCc1ccc(C(F)(F)F)cc1)c1cccnc1

$$$$
