
     RDKit          3D

 34 35  0  0  0  0  0  0  0  0999 V2000
   10.0597    0.0781   20.5016 H   0  0  0  0  0  0  0  0  0  0  0  0
    9.8190    0.8190   21.1612 N   0  0  0  0  0  0  0  0  0  0  0  0
    8.6553    0.6196   21.6112 C   0  0  0  0  0  0  0  0  0  0  0  0
    7.6136   -0.7846   21.0621 S   0  0  0  0  0  0  0  0  0  0  0  0
    6.6232   -0.0214   19.7699 C   0  0  0  0  0  0  0  0  0  0  0  0
    7.0854   -0.0076   18.4400 C   0  0  0  0  0  0  0  0  0  0  0  0
    7.9974   -0.5482   18.1886 H   0  0  0  0  0  0  0  0  0  0  0  0
    6.4809    0.6529   17.4455 N   0  0  0  0  0  0  0  0  0  0  0  0
    5.3519    1.3185   17.7428 C   0  0  0  0  0  0  0  0  0  0  0  0
    4.8944    1.8799   16.9304 H   0  0  0  0  0  0  0  0  0  0  0  0
    4.7674    1.3010   19.0128 C   0  0  0  0  0  0  0  0  0  0  0  0
    3.8345    1.8256   19.1858 H   0  0  0  0  0  0  0  0  0  0  0  0
    5.4064    0.6137   20.0458 C   0  0  0  0  0  0  0  0  0  0  0  0
    4.9789    0.5722   21.0501 H   0  0  0  0  0  0  0  0  0  0  0  0
    8.0086    1.4931   22.6516 C   0  0  0  0  0  0  0  0  0  0  0  0
    8.5843    2.4191   22.7149 H   0  0  0  0  0  0  0  0  0  0  0  0
    7.0065    1.7808   22.3184 H   0  0  0  0  0  0  0  0  0  0  0  0
    7.9452    0.8117   24.0394 C   0  0  0  0  0  0  0  0  0  0  0  0
    7.4929   -0.1843   23.9160 H   0  0  0  0  0  0  0  0  0  0  0  0
    9.3649    0.6444   24.6321 C   0  0  0  0  0  0  0  0  0  0  0  0
    9.9994    0.0848   23.9356 H   0  0  0  0  0  0  0  0  0  0  0  0
    9.3112    0.0306   25.5422 H   0  0  0  0  0  0  0  0  0  0  0  0
   10.0093    1.9988   24.9869 C   0  0  0  0  0  0  0  0  0  0  0  0
   10.9633    1.8292   25.5059 H   0  0  0  0  0  0  0  0  0  0  0  0
   10.2676    2.5387   24.0619 H   0  0  0  0  0  0  0  0  0  0  0  0
    9.0721    2.8389   25.8808 C   0  0  0  0  0  0  0  0  0  0  0  0
    9.5330    3.8007   26.1314 H   0  0  0  0  0  0  0  0  0  0  0  0
    8.9604    2.2796   26.8220 H   0  0  0  0  0  0  0  0  0  0  0  0
    7.6551    3.0149   25.3000 C   0  0  0  0  0  0  0  0  0  0  0  0
    7.6726    3.6210   24.3837 H   0  0  0  0  0  0  0  0  0  0  0  0
    7.0205    3.5632   26.0092 H   0  0  0  0  0  0  0  0  0  0  0  0
    7.0534    1.6310   24.9948 C   0  0  0  0  0  0  0  0  0  0  0  0
    6.0408    1.7083   24.5814 H   0  0  0  0  0  0  0  0  0  0  0  0
    6.9478    1.0904   25.9464 H   0  0  0  0  0  0  0  0  0  0  0  0
  1  2  1  0
  2  3  2  3
  3  4  1  0
  4  5  1  0
  5  6  2  0
  6  7  1  0
  6  8  1  0
  8  9  2  0
  9 10  1  0
  9 11  1  0
 11 12  1  0
 11 13  2  0
 13 14  1  0
  3 15  1  0
 15 16  1  0
 15 17  1  0
 15 18  1  0
 18 19  1  0
 18 20  1  0
 20 21  1  0
 20 22  1  0
 20 23  1  0
 23 24  1  0
 23 25  1  0
 23 26  1  0
 26 27  1  0
 26 28  1  0
 26 29  1  0
 29 30  1  0
 29 31  1  0
 29 32  1  0
 32 33  1  0
 32 34  1  0
 13  5  1  0
 32 18  1  0
M  END
>  <cnnaffinity>  (1) 
-4.49448

>  <filename>  (1) 
N=C(CC1CCCCC1)Sc1cccnc1

$$$$
