
     RDKit          3D

 27 28  0  0  0  0  0  0  0  0999 V2000
    8.7351   -1.9887   21.4139 H   0  0  0  0  0  0  0  0  0  0  0  0
    8.3079   -1.5771   20.5893 N   0  0  0  0  0  0  0  0  0  0  0  0
    7.4122   -0.7506   20.9282 C   0  0  0  0  0  0  0  0  0  0  0  0
    7.0909   -0.3763   22.6666 S   0  0  0  0  0  0  0  0  0  0  0  0
    8.2283    1.0131   22.8053 C   0  0  0  0  0  0  0  0  0  0  0  0
    7.8117    2.3102   22.5115 C   0  0  0  0  0  0  0  0  0  0  0  0
    6.8003    2.5608   22.2159 H   0  0  0  0  0  0  0  0  0  0  0  0
    8.7376    3.3546   22.5626 C   0  0  0  0  0  0  0  0  0  0  0  0
    8.2670    4.5854   22.2788 O   0  0  0  0  0  0  0  0  0  0  0  0
    9.0064    5.2018   22.2829 H   0  0  0  0  0  0  0  0  0  0  0  0
   10.0758    3.1317   22.8931 C   0  0  0  0  0  0  0  0  0  0  0  0
   10.7896    3.9487   22.9198 H   0  0  0  0  0  0  0  0  0  0  0  0
   10.4637    1.8250   23.1885 C   0  0  0  0  0  0  0  0  0  0  0  0
   11.7298    1.5026   23.5221 O   0  0  0  0  0  0  0  0  0  0  0  0
   12.2622    2.3032   23.4974 H   0  0  0  0  0  0  0  0  0  0  0  0
    9.5556    0.7675   23.1482 C   0  0  0  0  0  0  0  0  0  0  0  0
    9.9350   -0.2212   23.3695 H   0  0  0  0  0  0  0  0  0  0  0  0
    6.6446   -0.0105   19.9080 C   0  0  0  0  0  0  0  0  0  0  0  0
    7.1719    0.0368   18.6059 C   0  0  0  0  0  0  0  0  0  0  0  0
    8.1210   -0.4431   18.3884 H   0  0  0  0  0  0  0  0  0  0  0  0
    6.5764    0.6668   17.5903 N   0  0  0  0  0  0  0  0  0  0  0  0
    5.4156    1.2868   17.8481 C   0  0  0  0  0  0  0  0  0  0  0  0
    4.9473    1.7837   17.0025 H   0  0  0  0  0  0  0  0  0  0  0  0
    4.8086    1.3065   19.1084 C   0  0  0  0  0  0  0  0  0  0  0  0
    3.8766    1.8410   19.2521 H   0  0  0  0  0  0  0  0  0  0  0  0
    5.4329    0.6450   20.1632 C   0  0  0  0  0  0  0  0  0  0  0  0
    4.9848    0.6427   21.1589 H   0  0  0  0  0  0  0  0  0  0  0  0
  1  2  1  0
  2  3  2  3
  3  4  1  0
  4  5  1  0
  5  6  2  0
  6  7  1  0
  6  8  1  0
  8  9  1  0
  9 10  1  0
  8 11  2  0
 11 12  1  0
 11 13  1  0
 13 14  1  0
 14 15  1  0
 13 16  2  0
 16 17  1  0
  3 18  1  0
 18 19  2  0
 19 20  1  0
 19 21  1  0
 21 22  2  0
 22 23  1  0
 22 24  1  0
 24 25  1  0
 24 26  2  0
 26 27  1  0
 16  5  1  0
 26 18  1  0
M  END
>  <cnnaffinity>  (1) 
-4.6215

>  <filename>  (1) 
N=C(Sc1cc(O)cc(O)c1)c1cccnc1

$$$$
