
     RDKit          3D

 32 35  0  0  0  0  0  0  0  0999 V2000
    6.6694   -3.7699   20.4407 H   0  0  0  0  0  0  0  0  0  0  0  0
    6.5309   -2.7837   20.2693 N   0  0  0  0  0  0  0  0  0  0  0  0
    7.2397   -2.0941   21.0631 C   0  0  0  0  0  0  0  0  0  0  0  0
    8.2802   -2.6125   22.4147 S   0  0  0  0  0  0  0  0  0  0  0  0
    8.3551   -0.9892   23.0099 C   0  0  0  0  0  0  0  0  0  0  0  0
    8.8126   -0.8123   23.9735 H   0  0  0  0  0  0  0  0  0  0  0  0
    7.7783   -0.0854   22.1813 C   0  0  0  0  0  0  0  0  0  0  0  0
    7.7909    1.3781   22.3642 C   0  0  0  0  0  0  0  0  0  0  0  0
    7.7253    1.8483   23.6536 O   0  0  0  0  0  0  0  0  0  0  0  0
    7.7130    3.2101   23.5761 C   0  0  0  0  0  0  0  0  0  0  0  0
    7.5918    4.0850   24.6579 C   0  0  0  0  0  0  0  0  0  0  0  0
    7.4887    3.6972   25.6650 H   0  0  0  0  0  0  0  0  0  0  0  0
    7.6048    5.4494   24.3626 C   0  0  0  0  0  0  0  0  0  0  0  0
    7.5255    6.1680   25.1732 H   0  0  0  0  0  0  0  0  0  0  0  0
    7.7210    5.9181   23.0339 C   0  0  0  0  0  0  0  0  0  0  0  0
    7.7202    6.9899   22.8436 H   0  0  0  0  0  0  0  0  0  0  0  0
    7.8303    5.0301   21.9682 C   0  0  0  0  0  0  0  0  0  0  0  0
    7.9089    5.4039   20.9498 H   0  0  0  0  0  0  0  0  0  0  0  0
    7.8323    3.6406   22.2426 C   0  0  0  0  0  0  0  0  0  0  0  0
    7.9078    2.4166   21.4898 C   0  0  0  0  0  0  0  0  0  0  0  0
    7.9899    2.2530   20.4276 H   0  0  0  0  0  0  0  0  0  0  0  0
    7.2532   -0.6982   21.0150 N   0  0  0  0  0  0  0  0  0  0  0  0
    6.6013   -0.0077   19.9268 C   0  0  0  0  0  0  0  0  0  0  0  0
    7.1529    0.0347   18.6238 C   0  0  0  0  0  0  0  0  0  0  0  0
    8.0933   -0.4782   18.4197 H   0  0  0  0  0  0  0  0  0  0  0  0
    6.5727    0.6662   17.5926 N   0  0  0  0  0  0  0  0  0  0  0  0
    5.4059    1.2936   17.8213 C   0  0  0  0  0  0  0  0  0  0  0  0
    4.9692    1.8116   16.9703 H   0  0  0  0  0  0  0  0  0  0  0  0
    4.7640    1.2955   19.0651 C   0  0  0  0  0  0  0  0  0  0  0  0
    3.8170    1.8151   19.1864 H   0  0  0  0  0  0  0  0  0  0  0  0
    5.3695    0.6276   20.1370 C   0  0  0  0  0  0  0  0  0  0  0  0
    4.9235    0.5944   21.1318 H   0  0  0  0  0  0  0  0  0  0  0  0
  1  2  1  0
  2  3  2  3
  3  4  1  0
  4  5  1  0
  5  6  1  0
  5  7  2  0
  7  8  1  0
  8  9  1  0
  9 10  1  0
 10 11  2  0
 11 12  1  0
 11 13  1  0
 13 14  1  0
 13 15  2  0
 15 16  1  0
 15 17  1  0
 17 18  1  0
 17 19  2  0
 19 20  1  0
 20 21  1  0
  7 22  1  0
 22 23  1  0
 23 24  2  0
 24 25  1  0
 24 26  1  0
 26 27  2  0
 27 28  1  0
 27 29  1  0
 29 30  1  0
 29 31  2  0
 31 32  1  0
 22  3  1  0
 31 23  1  0
 20  8  2  0
 19 10  1  0
M  END
>  <cnnaffinity>  (1) 
-4.66928

>  <filename>  (1) 
N=c1scc(-c2cc3ccccc3o2)n1-c1cccnc1

$$$$
