
     RDKit          3D

 34 36  0  0  0  0  0  0  0  0999 V2000
    9.0189    0.1050   24.2959 H   0  0  0  0  0  0  0  0  0  0  0  0
    9.1821   -0.8788   24.0625 N   0  0  0  0  0  0  0  0  0  0  0  0
    8.5240   -1.1130   23.0059 C   0  0  0  0  0  0  0  0  0  0  0  0
    8.4573   -2.7121   22.2520 S   0  0  0  0  0  0  0  0  0  0  0  0
    7.5087   -2.1002   20.9442 C   0  0  0  0  0  0  0  0  0  0  0  0
    7.1393   -2.7536   20.1705 H   0  0  0  0  0  0  0  0  0  0  0  0
    7.2590   -0.7846   21.0352 C   0  0  0  0  0  0  0  0  0  0  0  0
    6.6103    0.0192   19.9811 C   0  0  0  0  0  0  0  0  0  0  0  0
    7.1835    0.0649   18.6940 C   0  0  0  0  0  0  0  0  0  0  0  0
    8.1570   -0.3841   18.5010 H   0  0  0  0  0  0  0  0  0  0  0  0
    6.6202    0.6662   17.6405 N   0  0  0  0  0  0  0  0  0  0  0  0
    5.4508    1.2901   17.8430 C   0  0  0  0  0  0  0  0  0  0  0  0
    5.0153    1.7771   16.9753 H   0  0  0  0  0  0  0  0  0  0  0  0
    4.8060    1.3360   19.0817 C   0  0  0  0  0  0  0  0  0  0  0  0
    3.8796    1.8868   19.1892 H   0  0  0  0  0  0  0  0  0  0  0  0
    5.3983    0.7035   20.1757 C   0  0  0  0  0  0  0  0  0  0  0  0
    4.9282    0.7395   21.1611 H   0  0  0  0  0  0  0  0  0  0  0  0
    7.7272   -0.2268   22.2336 N   0  0  0  0  0  0  0  0  0  0  0  0
    7.3525    1.1500   22.7161 N   0  0  0  0  0  0  0  0  0  0  0  0
    6.9591    1.6855   21.9371 H   0  0  0  0  0  0  0  0  0  0  0  0
    6.0861    1.6327   23.8219 S   0  0  0  0  0  0  0  0  0  0  0  0
    5.4912    0.4749   24.4414 O   0  0  0  0  0  0  0  0  0  0  0  0
    5.3346    2.5780   23.0085 O   0  0  0  0  0  0  0  0  0  0  0  0
    7.0380    2.5260   25.0278 C   0  0  0  0  0  0  0  0  0  0  0  0
    7.9891    3.4782   24.6271 C   0  0  0  0  0  0  0  0  0  0  0  0
    8.3174    3.5646   23.5922 H   0  0  0  0  0  0  0  0  0  0  0  0
    8.5521    4.3294   25.5810 C   0  0  0  0  0  0  0  0  0  0  0  0
    9.2621    5.0820   25.2512 H   0  0  0  0  0  0  0  0  0  0  0  0
    8.1965    4.2152   26.9295 C   0  0  0  0  0  0  0  0  0  0  0  0
    8.6151    4.8867   27.6743 H   0  0  0  0  0  0  0  0  0  0  0  0
    7.2938    3.2223   27.3232 C   0  0  0  0  0  0  0  0  0  0  0  0
    7.0235    3.1157   28.3675 H   0  0  0  0  0  0  0  0  0  0  0  0
    6.7157    2.3681   26.3831 C   0  0  0  0  0  0  0  0  0  0  0  0
    6.0217    1.5955   26.7089 H   0  0  0  0  0  0  0  0  0  0  0  0
  1  2  1  0
  2  3  2  3
  3  4  1  0
  4  5  1  0
  5  6  1  0
  5  7  2  0
  7  8  1  0
  8  9  2  0
  9 10  1  0
  9 11  1  0
 11 12  2  0
 12 13  1  0
 12 14  1  0
 14 15  1  0
 14 16  2  0
 16 17  1  0
  7 18  1  0
 18 19  1  0
 19 20  1  0
 19 21  1  0
 21 22  2  0
 21 23  2  0
 21 24  1  0
 24 25  2  0
 25 26  1  0
 25 27  1  0
 27 28  1  0
 27 29  2  0
 29 30  1  0
 29 31  1  0
 31 32  1  0
 31 33  2  0
 33 34  1  0
 18  3  1  0
 33 24  1  0
 16  8  1  0
M  END
>  <cnnaffinity>  (1) 
-4.90984

>  <filename>  (1) 
N=c1scc(-c2cccnc2)n1NS(=O)(=O)c1ccccc1

$$$$
