
     RDKit          3D

 40 41  0  0  0  0  0  0  0  0999 V2000
    5.1936    1.7807   17.1185 H   0  0  0  0  0  0  0  0  0  0  0  0
    5.5536    1.2163   17.9763 C   0  0  0  0  0  0  0  0  0  0  0  0
    6.7248    0.5855   17.8131 N   0  0  0  0  0  0  0  0  0  0  0  0
    7.1810   -0.1312   18.8477 C   0  0  0  0  0  0  0  0  0  0  0  0
    8.1241   -0.6487   18.6756 H   0  0  0  0  0  0  0  0  0  0  0  0
    6.5128   -0.2673   20.0736 C   0  0  0  0  0  0  0  0  0  0  0  0
    7.1768   -1.0017   21.2295 C   0  0  2  0  0  0  0  0  0  0  0  0
    8.0318   -1.5601   20.8293 H   0  0  0  0  0  0  0  0  0  0  0  0
    6.3052   -2.2100   21.7943 C   0  0  0  0  0  0  0  0  0  0  0  0
    5.7381   -2.9760   21.0460 O   0  0  0  0  0  0  0  0  0  0  0  0
    6.3109   -2.3800   23.1569 N   0  0  0  0  0  0  0  0  0  0  0  0
    6.6569   -1.6011   23.6855 H   0  0  0  0  0  0  0  0  0  0  0  0
    5.4623   -3.2820   23.7884 C   0  0  0  0  0  0  0  0  0  0  0  0
    5.3401   -4.4332   23.4643 O   0  0  0  0  0  0  0  0  0  0  0  0
    4.8568   -2.6391   24.8592 N   0  0  0  0  0  0  0  0  0  0  0  0
    4.6543   -1.6900   24.5751 H   0  0  0  0  0  0  0  0  0  0  0  0
    3.7684   -3.3118   25.5771 C   0  0  0  0  0  0  0  0  0  0  0  0
    4.1539   -4.2692   25.9408 H   0  0  0  0  0  0  0  0  0  0  0  0
    3.5226   -2.7094   26.4603 H   0  0  0  0  0  0  0  0  0  0  0  0
    2.5126   -3.5119   24.7082 C   0  0  0  0  0  0  0  0  0  0  0  0
    2.1743   -2.5182   24.3848 H   0  0  0  0  0  0  0  0  0  0  0  0
    2.8137   -4.0567   23.8068 H   0  0  0  0  0  0  0  0  0  0  0  0
    1.3812   -4.2642   25.3755 C   0  0  0  0  0  0  0  0  0  0  0  0
    0.4335   -3.5940   26.1648 C   0  0  0  0  0  0  0  0  0  0  0  0
    0.5208   -2.5212   26.3142 H   0  0  0  0  0  0  0  0  0  0  0  0
   -0.6110   -4.2939   26.7843 C   0  0  0  0  0  0  0  0  0  0  0  0
   -1.3266   -3.7585   27.4060 H   0  0  0  0  0  0  0  0  0  0  0  0
   -0.7253   -5.6762   26.6138 C   0  0  0  0  0  0  0  0  0  0  0  0
   -1.5287   -6.2227   27.1059 H   0  0  0  0  0  0  0  0  0  0  0  0
    0.2179   -6.3621   25.8404 C   0  0  0  0  0  0  0  0  0  0  0  0
    0.1476   -7.4418   25.7241 H   0  0  0  0  0  0  0  0  0  0  0  0
    1.2587   -5.6546   25.2238 C   0  0  0  0  0  0  0  0  0  0  0  0
    1.9924   -6.2004   24.6333 H   0  0  0  0  0  0  0  0  0  0  0  0
    7.7033   -0.0066   22.2106 N   0  0  0  0  0  0  0  0  0  0  0  0
    8.5807    0.3725   21.8604 H   0  0  0  0  0  0  0  0  0  0  0  0
    7.0741    0.7986   22.2439 H   0  0  0  0  0  0  0  0  0  0  0  0
    5.2835    0.3889   20.2203 C   0  0  0  0  0  0  0  0  0  0  0  0
    4.7285    0.3044   21.1582 H   0  0  0  0  0  0  0  0  0  0  0  0
    4.7994    1.1506   19.1533 C   0  0  0  0  0  0  0  0  0  0  0  0
    3.8667    1.6994   19.2222 H   0  0  0  0  0  0  0  0  0  0  0  0
  1  2  1  0
  2  3  2  0
  3  4  1  0
  4  5  1  0
  4  6  2  0
  6  7  1  0
  7  8  1  6
  7  9  1  0
  9 10  2  0
  9 11  1  0
 11 12  1  0
 11 13  1  0
 13 14  2  0
 13 15  1  0
 15 16  1  0
 15 17  1  0
 17 18  1  0
 17 19  1  0
 17 20  1  0
 20 21  1  0
 20 22  1  0
 20 23  1  0
 23 24  2  0
 24 25  1  0
 24 26  1  0
 26 27  1  0
 26 28  2  0
 28 29  1  0
 28 30  1  0
 30 31  1  0
 30 32  2  0
 32 33  1  0
  7 34  1  0
 34 35  1  0
 34 36  1  0
  6 37  1  0
 37 38  1  0
 37 39  2  0
 39 40  1  0
 39  2  1  0
 32 23  1  0
M  END
>  <cnnaffinity>  (1) 
-4.99729

>  <filename>  (1) 
N[C@@H](C(=O)NC(=O)NCCc1ccccc1)c1cccnc1

$$$$
