
     RDKit          3D

 39 40  0  0  0  0  0  0  0  0999 V2000
    5.1652    1.9902   16.2986 H   0  0  0  0  0  0  0  0  0  0  0  0
    5.6666    1.5329   17.1493 C   0  0  0  0  0  0  0  0  0  0  0  0
    6.9798    1.2947   17.0050 N   0  0  0  0  0  0  0  0  0  0  0  0
    7.6177    0.7476   18.0434 C   0  0  0  0  0  0  0  0  0  0  0  0
    8.6923    0.6111   17.9249 H   0  0  0  0  0  0  0  0  0  0  0  0
    6.9923    0.3325   19.2325 C   0  0  0  0  0  0  0  0  0  0  0  0
    7.8757   -0.3176   20.2881 C   0  0  2  0  0  0  0  0  0  0  0  0
    8.5825   -0.9719   19.7520 H   0  0  0  0  0  0  0  0  0  0  0  0
    7.0534   -1.3531   21.2167 C   0  0  0  0  0  0  0  0  0  0  0  0
    6.7105   -1.1527   22.3684 O   0  0  0  0  0  0  0  0  0  0  0  0
    6.7675   -2.5314   20.5797 N   0  0  0  0  0  0  0  0  0  0  0  0
    6.9943   -2.5739   19.5992 H   0  0  0  0  0  0  0  0  0  0  0  0
    5.8636   -3.5592   21.0895 C   0  0  0  0  0  0  0  0  0  0  0  0
    5.8492   -4.3575   20.3371 H   0  0  0  0  0  0  0  0  0  0  0  0
    4.8368   -3.1576   21.1362 H   0  0  0  0  0  0  0  0  0  0  0  0
    6.1967   -4.1499   22.4866 C   0  0  0  0  0  0  0  0  0  0  0  0
    5.8832   -3.3607   23.1859 H   0  0  0  0  0  0  0  0  0  0  0  0
    5.2636   -5.3545   22.7511 C   0  0  0  0  0  0  0  0  0  0  0  0
    4.2167   -5.0140   22.7396 H   0  0  0  0  0  0  0  0  0  0  0  0
    5.3322   -6.1078   21.9437 H   0  0  0  0  0  0  0  0  0  0  0  0
    5.6171   -5.9504   24.1418 C   0  0  0  0  0  0  0  0  0  0  0  0
    5.0414   -5.4323   24.9378 H   0  0  0  0  0  0  0  0  0  0  0  0
    5.2930   -7.0115   24.1840 H   0  0  0  0  0  0  0  0  0  0  0  0
    8.3632   -5.5774   23.4084 C   0  0  0  0  0  0  0  0  0  0  0  0
    6.8024   -5.8163   24.2683 H   0  0  0  0  0  0  0  0  0  0  0  0
    7.8161   -6.5241   23.8139 H   0  0  0  0  0  0  0  0  0  0  0  0
    8.5175   -5.6707   23.2726 C   0  0  0  0  0  0  0  0  0  0  0  0
    9.3826   -5.5733   24.2160 H   0  0  0  0  0  0  0  0  0  0  0  0
    9.2337   -6.5258   22.0474 H   0  0  0  0  0  0  0  0  0  0  0  0
    7.7733   -4.3584   22.8069 C   0  0  0  0  0  0  0  0  0  0  0  0
    7.9239   -3.3914   23.4103 H   0  0  0  0  0  0  0  0  0  0  0  0
    8.2221   -3.9399   21.8152 H   0  0  0  0  0  0  0  0  0  0  0  0
    8.6990    0.7936   20.8204 N   0  0  0  0  0  0  0  0  0  0  0  0
    8.0942    1.5017   21.2378 H   0  0  0  0  0  0  0  0  0  0  0  0
    9.3340    0.4913   21.5573 H   0  0  0  0  0  0  0  0  0  0  0  0
    5.6264    0.6170   19.3784 C   0  0  0  0  0  0  0  0  0  0  0  0
    5.1108    0.3820   20.3140 H   0  0  0  0  0  0  0  0  0  0  0  0
    4.9543    1.2265   18.3121 C   0  0  0  0  0  0  0  0  0  0  0  0
    3.9020    1.4820   18.3664 H   0  0  0  0  0  0  0  0  0  0  0  0
  1  2  1  0
  2  3  2  0
  3  4  1  0
  4  5  1  0
  4  6  2  0
  6  7  1  0
  7  8  1  6
  7  9  1  0
  9 10  2  0
  9 11  1  0
 11 12  1  0
 11 13  1  0
 13 14  1  0
 13 15  1  0
 13 16  1  0
 16 17  1  0
 16 18  1  0
 18 19  1  0
 18 20  1  0
 18 21  1  0
 21 22  1  0
 21 23  1  0
 21 24  1  0
 24 25  1  0
 24 26  1  0
 24 27  1  0
 27 28  1  0
 27 29  1  0
 27 30  1  0
 30 31  1  0
 30 32  1  0
  7 33  1  0
 33 34  1  0
 33 35  1  0
  6 36  1  0
 36 37  1  0
 36 38  2  0
 38 39  1  0
 38  2  1  0
 30 16  1  0
M  END
>  <cnnaffinity>  (1) 
-4.67318

>  <filename>  (1) 
N[C@@H](C(=O)NCC1CCCCC1)c1cccnc1

$$$$
