
     RDKit          3D

 27 28  0  0  0  0  0  0  0  0999 V2000
    9.8807    2.4403   23.0395 H   0  0  0  0  0  0  0  0  0  0  0  0
    9.0033    1.8135   23.1468 C   0  0  0  0  0  0  0  0  0  0  0  0
    8.7826    0.9516   22.1566 N   0  0  0  0  0  0  0  0  0  0  0  0
    7.6698    0.1978   22.2435 C   0  0  0  0  0  0  0  0  0  0  0  0
    7.3919   -0.7355   21.0132 C   0  0  2  0  0  0  0  0  0  0  0  0
    8.4076   -0.9614   20.6702 H   0  0  0  0  0  0  0  0  0  0  0  0
    6.6552    0.0120   19.9009 C   0  0  0  0  0  0  0  0  0  0  0  0
    7.1440   -0.0033   18.5829 C   0  0  0  0  0  0  0  0  0  0  0  0
    8.0896   -0.4955   18.3536 H   0  0  0  0  0  0  0  0  0  0  0  0
    6.5463    0.6136   17.5538 N   0  0  0  0  0  0  0  0  0  0  0  0
    5.4054    1.2682   17.8135 C   0  0  0  0  0  0  0  0  0  0  0  0
    4.9528    1.7954   16.9763 H   0  0  0  0  0  0  0  0  0  0  0  0
    4.8029    1.3067   19.0761 C   0  0  0  0  0  0  0  0  0  0  0  0
    3.8733    1.8507   19.2144 H   0  0  0  0  0  0  0  0  0  0  0  0
    5.4419    0.6718   20.1397 C   0  0  0  0  0  0  0  0  0  0  0  0
    5.0266    0.7126   21.1535 H   0  0  0  0  0  0  0  0  0  0  0  0
    6.7242   -2.0559   21.2256 N   0  0  0  0  0  0  0  0  0  0  0  0
    6.5073   -2.4163   20.2955 H   0  0  0  0  0  0  0  0  0  0  0  0
    5.8255   -1.8835   21.6819 H   0  0  0  0  0  0  0  0  0  0  0  0
    6.7927    0.2706   23.2447 N   0  0  0  0  0  0  0  0  0  0  0  0
    7.0501    1.0965   24.2729 C   0  0  0  0  0  0  0  0  0  0  0  0
    6.0467    1.0930   25.4642 C   0  0  0  0  0  0  0  0  0  0  0  0
    5.4721    2.3035   25.6310 F   0  0  0  0  0  0  0  0  0  0  0  0
    5.0619    0.2022   25.3197 F   0  0  0  0  0  0  0  0  0  0  0  0
    6.6732    0.8182   26.6285 F   0  0  0  0  0  0  0  0  0  0  0  0
    8.1701    1.9240   24.2559 C   0  0  0  0  0  0  0  0  0  0  0  0
    8.4113    2.6230   25.0469 H   0  0  0  0  0  0  0  0  0  0  0  0
  1  2  1  0
  2  3  2  0
  3  4  1  0
  4  5  1  0
  5  6  1  6
  5  7  1  0
  7  8  2  0
  8  9  1  0
  8 10  1  0
 10 11  2  0
 11 12  1  0
 11 13  1  0
 13 14  1  0
 13 15  2  0
 15 16  1  0
  5 17  1  0
 17 18  1  0
 17 19  1  0
  4 20  2  0
 20 21  1  0
 21 22  1  0
 22 23  1  0
 22 24  1  0
 22 25  1  0
 21 26  2  0
 26 27  1  0
 26  2  1  0
 15  7  1  0
M  END
>  <cnnaffinity>  (1) 
-4.89984

>  <filename>  (1) 
N[C@@H](c1cccnc1)c1nccc(C(F)(F)F)n1

$$$$
