
     RDKit          3D

 35 37  0  0  0  0  0  0  0  0999 V2000
    4.9173    1.8045   16.9735 H   0  0  0  0  0  0  0  0  0  0  0  0
    5.3868    1.3047   17.8195 C   0  0  0  0  0  0  0  0  0  0  0  0
    6.5500    0.6849   17.5620 N   0  0  0  0  0  0  0  0  0  0  0  0
    7.1574    0.0701   18.5847 C   0  0  0  0  0  0  0  0  0  0  0  0
    8.1036   -0.4199   18.3505 H   0  0  0  0  0  0  0  0  0  0  0  0
    6.6470    0.0085   19.8965 C   0  0  0  0  0  0  0  0  0  0  0  0
    7.3678   -0.7138   20.9762 C   0  0  0  0  0  0  0  0  0  0  0  0
    8.7804   -0.5654   21.1332 C   0  0  0  0  0  0  0  0  0  0  0  0
    9.3085    0.1008   20.4541 H   0  0  0  0  0  0  0  0  0  0  0  0
    9.4330   -1.2197   22.1318 C   0  0  0  0  0  0  0  0  0  0  0  0
   10.4952   -1.1480   22.3030 H   0  0  0  0  0  0  0  0  0  0  0  0
    8.7467   -2.0987   23.0671 C   0  0  0  0  0  0  0  0  0  0  0  0
    9.3263   -2.6958   23.9578 O   0  0  0  0  0  0  0  0  0  0  0  0
    7.3354   -2.2170   22.8598 N   0  0  0  0  0  0  0  0  0  0  0  0
    6.5518   -3.0391   23.7507 C   0  0  0  0  0  0  0  0  0  0  0  0
    6.5798   -2.7961   25.1288 C   0  0  0  0  0  0  0  0  0  0  0  0
    7.2035   -1.9912   25.4959 H   0  0  0  0  0  0  0  0  0  0  0  0
    5.8399   -3.6123   25.9893 C   0  0  0  0  0  0  0  0  0  0  0  0
    5.8786   -3.4376   27.0630 H   0  0  0  0  0  0  0  0  0  0  0  0
    5.0728   -4.6636   25.4828 C   0  0  0  0  0  0  0  0  0  0  0  0
    4.5499   -5.3082   26.1907 H   0  0  0  0  0  0  0  0  0  0  0  0
    5.0166   -4.9091   24.0947 C   0  0  0  0  0  0  0  0  0  0  0  0
    4.2140   -6.0471   23.5010 C   0  0  0  0  0  0  0  0  0  0  0  0
    4.4268   -6.5300   22.4030 O   0  0  0  0  0  0  0  0  0  0  0  0
    3.2093   -6.5642   24.2541 N   0  0  0  0  0  0  0  0  0  0  0  0
    2.7999   -6.0748   25.0294 H   0  0  0  0  0  0  0  0  0  0  0  0
    2.7249   -7.2809   23.7428 H   0  0  0  0  0  0  0  0  0  0  0  0
    5.7706   -4.0786   23.2382 C   0  0  0  0  0  0  0  0  0  0  0  0
    5.7912   -4.2699   22.1685 H   0  0  0  0  0  0  0  0  0  0  0  0
    6.7050   -1.5349   21.8440 C   0  0  0  0  0  0  0  0  0  0  0  0
    5.6356   -1.6996   21.7705 H   0  0  0  0  0  0  0  0  0  0  0  0
    5.4261    0.6553   20.1371 C   0  0  0  0  0  0  0  0  0  0  0  0
    5.0046    0.6517   21.1421 H   0  0  0  0  0  0  0  0  0  0  0  0
    4.7925    1.3213   19.0863 C   0  0  0  0  0  0  0  0  0  0  0  0
    3.8615    1.8551   19.2339 H   0  0  0  0  0  0  0  0  0  0  0  0
  1  2  1  0
  2  3  2  0
  3  4  1  0
  4  5  1  0
  4  6  2  0
  6  7  1  0
  7  8  1  0
  8  9  1  0
  8 10  2  0
 10 11  1  0
 10 12  1  0
 12 13  2  0
 12 14  1  0
 14 15  1  0
 15 16  2  0
 16 17  1  0
 16 18  1  0
 18 19  1  0
 18 20  2  0
 20 21  1  0
 20 22  1  0
 22 23  1  0
 23 24  2  0
 23 25  1  0
 25 26  1  0
 25 27  1  0
 22 28  2  0
 28 29  1  0
 14 30  1  0
 30 31  1  0
  6 32  1  0
 32 33  1  0
 32 34  2  0
 34 35  1  0
 34  2  1  0
 30  7  2  0
 28 15  1  0
M  END
>  <cnnaffinity>  (1) 
-5.96533

>  <filename>  (1) 
NC(=O)c1cccc(-n2cc(-c3cccnc3)ccc2=O)c1

$$$$
