
     RDKit          3D

 28 29  0  0  0  0  0  0  0  0999 V2000
    5.0193    1.7548   16.9799 H   0  0  0  0  0  0  0  0  0  0  0  0
    5.4562    1.2421   17.8331 C   0  0  0  0  0  0  0  0  0  0  0  0
    6.6128    0.5964   17.6099 N   0  0  0  0  0  0  0  0  0  0  0  0
    7.1878   -0.0102   18.6579 C   0  0  0  0  0  0  0  0  0  0  0  0
    8.1183   -0.5329   18.4474 H   0  0  0  0  0  0  0  0  0  0  0  0
    6.6663    0.0041   19.9810 C   0  0  0  0  0  0  0  0  0  0  0  0
    7.2796   -0.6191   21.0952 N   0  0  0  0  0  0  0  0  0  0  0  0
    8.0390   -1.2662   20.9926 H   0  0  0  0  0  0  0  0  0  0  0  0
    7.3945   -0.1172   22.3694 C   0  0  0  0  0  0  0  0  0  0  0  0
    6.8919    0.9613   22.7855 N   0  0  0  0  0  0  0  0  0  0  0  0
    7.1247    1.4336   24.0796 C   0  0  0  0  0  0  0  0  0  0  0  0
    8.1002    2.4280   24.2811 C   0  0  0  0  0  0  0  0  0  0  0  0
    8.7320    2.6708   23.4335 H   0  0  0  0  0  0  0  0  0  0  0  0
    8.2263    3.0786   25.5118 C   0  0  0  0  0  0  0  0  0  0  0  0
    8.9787    3.8521   25.6424 H   0  0  0  0  0  0  0  0  0  0  0  0
    7.3692    2.7566   26.5675 C   0  0  0  0  0  0  0  0  0  0  0  0
    7.4355    3.2768   27.5184 H   0  0  0  0  0  0  0  0  0  0  0  0
    6.4105    1.7534   26.4038 C   0  0  0  0  0  0  0  0  0  0  0  0
    5.3270    1.4090   27.7178 Cl  0  0  0  0  0  0  0  0  0  0  0  0
    6.3252    1.0503   25.1886 C   0  0  0  0  0  0  0  0  0  0  0  0
    5.2808   -0.3245   25.0835 Cl  0  0  0  0  0  0  0  0  0  0  0  0
    8.1327   -1.0525   23.0675 N   0  0  0  0  0  0  0  0  0  0  0  0
    7.6683   -1.9039   22.7906 H   0  0  0  0  0  0  0  0  0  0  0  0
    8.0081   -0.8571   24.0525 H   0  0  0  0  0  0  0  0  0  0  0  0
    5.4504    0.6700   20.1838 C   0  0  0  0  0  0  0  0  0  0  0  0
    5.0309    0.7040   21.1901 H   0  0  0  0  0  0  0  0  0  0  0  0
    4.8392    1.2851   19.0880 C   0  0  0  0  0  0  0  0  0  0  0  0
    3.9067    1.8236   19.2107 H   0  0  0  0  0  0  0  0  0  0  0  0
  1  2  1  0
  2  3  2  0
  3  4  1  0
  4  5  1  0
  4  6  2  0
  6  7  1  0
  7  8  1  0
  7  9  1  0
  9 10  2  3
 10 11  1  0
 11 12  2  0
 12 13  1  0
 12 14  1  0
 14 15  1  0
 14 16  2  0
 16 17  1  0
 16 18  1  0
 18 19  1  0
 18 20  2  0
 20 21  1  0
  9 22  1  0
 22 23  1  0
 22 24  1  0
  6 25  1  0
 25 26  1  0
 25 27  2  0
 27 28  1  0
 27  2  1  0
 20 11  1  0
M  END
>  <cnnaffinity>  (1) 
-5.0197

>  <filename>  (1) 
NC(=Nc1cccc(Cl)c1Cl)Nc1cccnc1

$$$$
