
     RDKit          3D

 37 40  0  0  0  0  0  0  0  0999 V2000
    5.0045    1.7521   16.9230 H   0  0  0  0  0  0  0  0  0  0  0  0
    5.4409    1.2615   17.7911 C   0  0  0  0  0  0  0  0  0  0  0  0
    6.5885    0.5968   17.5800 N   0  0  0  0  0  0  0  0  0  0  0  0
    7.1453   -0.0190   18.6265 C   0  0  0  0  0  0  0  0  0  0  0  0
    8.0683   -0.5596   18.4246 H   0  0  0  0  0  0  0  0  0  0  0  0
    6.6143    0.0274   19.9290 C   0  0  0  0  0  0  0  0  0  0  0  0
    7.3324   -0.6137   21.0278 C   0  0  0  0  0  0  0  0  0  0  0  0
    8.1163   -1.7304   20.8147 N   0  0  0  0  0  0  0  0  0  0  0  0
    8.5911   -2.0082   21.9966 C   0  0  0  0  0  0  0  0  0  0  0  0
    9.5954   -3.2556   22.6977 S   0  0  0  0  0  0  0  0  0  0  0  0
    9.5309   -2.4708   24.2598 C   0  0  0  0  0  0  0  0  0  0  0  0
   10.0560   -2.9158   25.0949 H   0  0  0  0  0  0  0  0  0  0  0  0
    8.7847   -1.3579   24.2344 C   0  0  0  0  0  0  0  0  0  0  0  0
    8.5869   -0.6573   25.0379 H   0  0  0  0  0  0  0  0  0  0  0  0
    8.2303   -1.1236   22.9738 N   0  0  0  0  0  0  0  0  0  0  0  0
    7.3907   -0.2050   22.3609 C   0  0  0  0  0  0  0  0  0  0  0  0
    6.9624    0.9442   23.0115 N   0  0  0  0  0  0  0  0  0  0  0  0
    7.5349    1.7803   22.8466 H   0  0  0  0  0  0  0  0  0  0  0  0
    6.5228    0.9700   24.3319 C   0  0  0  0  0  0  0  0  0  0  0  0
    5.8520   -0.1191   24.8985 C   0  0  0  0  0  0  0  0  0  0  0  0
    5.7620   -1.0157   24.2952 H   0  0  0  0  0  0  0  0  0  0  0  0
    5.3856   -0.0600   26.2111 C   0  0  0  0  0  0  0  0  0  0  0  0
    4.8649   -0.9152   26.6365 H   0  0  0  0  0  0  0  0  0  0  0  0
    5.6153    1.0926   26.9726 C   0  0  0  0  0  0  0  0  0  0  0  0
    5.2334    1.1488   27.9889 H   0  0  0  0  0  0  0  0  0  0  0  0
    6.3191    2.1643   26.4252 C   0  0  0  0  0  0  0  0  0  0  0  0
    6.5240    3.0321   27.0514 H   0  0  0  0  0  0  0  0  0  0  0  0
    6.7782    2.1303   25.0937 C   0  0  0  0  0  0  0  0  0  0  0  0
    7.5327    3.2460   24.4744 C   0  0  0  0  0  0  0  0  0  0  0  0
    8.2698    3.1570   23.4960 O   0  0  0  0  0  0  0  0  0  0  0  0
    7.4054    4.4847   25.0352 N   0  0  0  0  0  0  0  0  0  0  0  0
    6.4747    4.7214   25.3380 H   0  0  0  0  0  0  0  0  0  0  0  0
    7.8492    5.1186   24.3861 H   0  0  0  0  0  0  0  0  0  0  0  0
    5.4122    0.7265   20.1332 C   0  0  0  0  0  0  0  0  0  0  0  0
    4.9812    0.7822   21.1349 H   0  0  0  0  0  0  0  0  0  0  0  0
    4.8109    1.3403   19.0381 C   0  0  0  0  0  0  0  0  0  0  0  0
    3.8772    1.8828   19.1388 H   0  0  0  0  0  0  0  0  0  0  0  0
  1  2  1  0
  2  3  2  0
  3  4  1  0
  4  5  1  0
  4  6  2  0
  6  7  1  0
  7  8  1  0
  8  9  2  0
  9 10  1  0
 10 11  1  0
 11 12  1  0
 11 13  2  0
 13 14  1  0
 13 15  1  0
 15 16  1  0
 16 17  1  0
 17 18  1  0
 17 19  1  0
 19 20  2  0
 20 21  1  0
 20 22  1  0
 22 23  1  0
 22 24  2  0
 24 25  1  0
 24 26  1  0
 26 27  1  0
 26 28  2  0
 28 29  1  0
 29 30  2  0
 29 31  1  0
 31 32  1  0
 31 33  1  0
  6 34  1  0
 34 35  1  0
 34 36  2  0
 36 37  1  0
 36  2  1  0
 16  7  2  0
 28 19  1  0
 15  9  1  0
M  END
>  <cnnaffinity>  (1) 
-5.4635

>  <filename>  (1) 
NC(=O)c1ccccc1Nc1c(-c2cccnc2)nc2sccn12

$$$$
