
     RDKit          3D

 35 38  0  0  0  0  0  0  0  0999 V2000
    4.9616    1.8091   16.9674 H   0  0  0  0  0  0  0  0  0  0  0  0
    5.4286    1.2984   17.8088 C   0  0  0  0  0  0  0  0  0  0  0  0
    6.5891    0.6711   17.5606 N   0  0  0  0  0  0  0  0  0  0  0  0
    7.1912    0.0559   18.5837 C   0  0  0  0  0  0  0  0  0  0  0  0
    8.1274   -0.4470   18.3428 H   0  0  0  0  0  0  0  0  0  0  0  0
    6.6753    0.0300   19.8898 C   0  0  0  0  0  0  0  0  0  0  0  0
    7.3581   -0.6739   20.9860 C   0  0  0  0  0  0  0  0  0  0  0  0
    6.8128   -0.7615   22.1545 N   0  0  0  0  0  0  0  0  0  0  0  0
    7.6057   -1.5133   22.9803 N   0  0  0  0  0  0  0  0  0  0  0  0
    7.5313   -2.0606   24.2506 C   0  0  0  0  0  0  0  0  0  0  0  0
    6.5683   -1.8876   25.2255 N   0  0  0  0  0  0  0  0  0  0  0  0
    6.2847   -2.7962   25.5609 H   0  0  0  0  0  0  0  0  0  0  0  0
    5.5919   -0.9022   25.2183 C   0  0  0  0  0  0  0  0  0  0  0  0
    5.9906    0.4190   24.9937 C   0  0  0  0  0  0  0  0  0  0  0  0
    7.0466    0.5888   24.8100 H   0  0  0  0  0  0  0  0  0  0  0  0
    5.0485    1.4479   24.9639 C   0  0  0  0  0  0  0  0  0  0  0  0
    5.3803    2.4676   24.7799 H   0  0  0  0  0  0  0  0  0  0  0  0
    3.6928    1.1595   25.1731 C   0  0  0  0  0  0  0  0  0  0  0  0
    2.9599    1.9642   25.1441 H   0  0  0  0  0  0  0  0  0  0  0  0
    3.2972   -0.1556   25.4147 C   0  0  0  0  0  0  0  0  0  0  0  0
    2.2349   -0.3715   25.5220 H   0  0  0  0  0  0  0  0  0  0  0  0
    4.2386   -1.2134   25.4446 C   0  0  0  0  0  0  0  0  0  0  0  0
    3.8170   -2.6359   25.5098 C   0  0  0  0  0  0  0  0  0  0  0  0
    4.4373   -3.5973   25.0852 O   0  0  0  0  0  0  0  0  0  0  0  0
    2.5928   -2.8608   26.0903 N   0  0  0  0  0  0  0  0  0  0  0  0
    2.5248   -3.8506   26.2731 H   0  0  0  0  0  0  0  0  0  0  0  0
    2.4218   -2.2709   26.8849 H   0  0  0  0  0  0  0  0  0  0  0  0
    8.5475   -2.8585   24.4311 N   0  0  0  0  0  0  0  0  0  0  0  0
    9.3529   -2.8287   23.3004 N   0  0  0  0  0  0  0  0  0  0  0  0
    8.7611   -2.0345   22.4634 C   0  0  0  0  0  0  0  0  0  0  0  0
    8.9371   -1.4790   20.8184 S   0  0  0  0  0  0  0  0  0  0  0  0
    5.4499    0.6780   20.1329 C   0  0  0  0  0  0  0  0  0  0  0  0
    5.0142    0.6631   21.1347 H   0  0  0  0  0  0  0  0  0  0  0  0
    4.8235    1.3192   19.0694 C   0  0  0  0  0  0  0  0  0  0  0  0
    3.8818    1.8364   19.2069 H   0  0  0  0  0  0  0  0  0  0  0  0
  1  2  1  0
  2  3  2  0
  3  4  1  0
  4  5  1  0
  4  6  2  0
  6  7  1  0
  7  8  2  0
  8  9  1  0
  9 10  1  0
 10 11  1  0
 11 12  1  0
 11 13  1  0
 13 14  2  0
 14 15  1  0
 14 16  1  0
 16 17  1  0
 16 18  2  0
 18 19  1  0
 18 20  1  0
 20 21  1  0
 20 22  2  0
 22 23  1  0
 23 24  2  0
 23 25  1  0
 25 26  1  0
 25 27  1  0
 10 28  2  0
 28 29  1  0
 29 30  2  0
 30 31  1  0
  6 32  1  0
 32 33  1  0
 32 34  2  0
 34 35  1  0
 34  2  1  0
 31  7  1  0
 30  9  1  0
 22 13  1  0
M  END
>  <cnnaffinity>  (1) 
-5.3016

>  <filename>  (1) 
NC(=O)c1ccccc1Nc1nnc2sc(-c3cccnc3)nn12

$$$$
