
     RDKit          3D

 34 36  0  0  0  0  0  0  0  0999 V2000
    4.9131    1.8735   16.8156 H   0  0  0  0  0  0  0  0  0  0  0  0
    5.3630    1.4455   17.7089 C   0  0  0  0  0  0  0  0  0  0  0  0
    6.5642    0.8648   17.5510 N   0  0  0  0  0  0  0  0  0  0  0  0
    7.1179    0.2919   18.6249 C   0  0  0  0  0  0  0  0  0  0  0  0
    8.1163   -0.1193   18.4847 H   0  0  0  0  0  0  0  0  0  0  0  0
    6.4963    0.2242   19.8880 C   0  0  0  0  0  0  0  0  0  0  0  0
    7.0712   -0.5607   20.9364 N   0  0  0  0  0  0  0  0  0  0  0  0
    7.1447    0.0024   22.1743 N   0  0  0  0  0  0  0  0  0  0  0  0
    7.8405   -0.6050   23.1089 C   0  0  0  0  0  0  0  0  0  0  0  0
    7.8905    0.0722   24.4472 C   0  0  0  0  0  0  0  0  0  0  0  0
    8.9788   -0.1175   25.3220 C   0  0  0  0  0  0  0  0  0  0  0  0
    9.7733   -0.7895   25.0212 H   0  0  0  0  0  0  0  0  0  0  0  0
    8.9966    0.4905   26.5719 C   0  0  0  0  0  0  0  0  0  0  0  0
    9.8194    0.2688   27.2393 H   0  0  0  0  0  0  0  0  0  0  0  0
    7.9449    1.3091   26.9805 C   0  0  0  0  0  0  0  0  0  0  0  0
    7.9732    1.8149   27.9421 H   0  0  0  0  0  0  0  0  0  0  0  0
    6.8255    1.4747   26.1486 C   0  0  0  0  0  0  0  0  0  0  0  0
    5.6332    2.2180   26.6997 C   0  0  0  0  0  0  0  0  0  0  0  0
    5.6831    3.0785   27.5580 O   0  0  0  0  0  0  0  0  0  0  0  0
    4.4239    1.8715   26.1588 N   0  0  0  0  0  0  0  0  0  0  0  0
    4.3127    0.9082   25.8924 H   0  0  0  0  0  0  0  0  0  0  0  0
    3.6867    2.2847   26.7085 H   0  0  0  0  0  0  0  0  0  0  0  0
    6.8332    0.8952   24.8651 C   0  0  0  0  0  0  0  0  0  0  0  0
    6.0138    1.0645   24.1703 H   0  0  0  0  0  0  0  0  0  0  0  0
    8.5601   -1.9183   22.8505 C   0  0  0  0  0  0  0  0  0  0  0  0
    9.3137   -2.4919   23.6334 O   0  0  0  0  0  0  0  0  0  0  0  0
    8.2536   -2.5222   21.5616 C   0  0  0  0  0  0  0  0  0  0  0  0
    8.7017   -3.4856   21.3585 H   0  0  0  0  0  0  0  0  0  0  0  0
    7.4866   -1.8551   20.6882 C   0  0  0  0  0  0  0  0  0  0  0  0
    7.1434   -2.2652   19.7390 H   0  0  0  0  0  0  0  0  0  0  0  0
    5.2895    0.9054   20.0649 C   0  0  0  0  0  0  0  0  0  0  0  0
    4.8611    0.9645   21.0637 H   0  0  0  0  0  0  0  0  0  0  0  0
    4.6984    1.4967   18.9407 C   0  0  0  0  0  0  0  0  0  0  0  0
    3.7419    2.0021   19.0159 H   0  0  0  0  0  0  0  0  0  0  0  0
  1  2  1  0
  2  3  2  0
  3  4  1  0
  4  5  1  0
  4  6  2  0
  6  7  1  0
  7  8  1  0
  8  9  2  0
  9 10  1  0
 10 11  2  0
 11 12  1  0
 11 13  1  0
 13 14  1  0
 13 15  2  0
 15 16  1  0
 15 17  1  0
 17 18  1  0
 18 19  2  0
 18 20  1  0
 20 21  1  0
 20 22  1  0
 17 23  2  0
 23 24  1  0
  9 25  1  0
 25 26  2  0
 25 27  1  0
 27 28  1  0
 27 29  2  0
 29 30  1  0
  6 31  1  0
 31 32  1  0
 31 33  2  0
 33 34  1  0
 33  2  1  0
 29  7  1  0
 23 10  1  0
M  END
>  <cnnaffinity>  (1) 
-5.01094

>  <filename>  (1) 
NC(=O)c1cccc(-c2nn(-c3cccnc3)ccc2=O)c1

$$$$
