
     RDKit          3D

 36 38  0  0  0  0  0  0  0  0999 V2000
    6.7698   -1.5266   21.4660 H   0  0  0  0  0  0  0  0  0  0  0  0
    7.3327   -0.7176   20.9925 C   0  0  0  0  0  0  0  0  0  0  0  0
    8.5610   -0.3983   21.4283 C   0  0  0  0  0  0  0  0  0  0  0  0
    9.3314   -1.0221   22.5248 C   0  0  0  0  0  0  0  0  0  0  0  0
    8.7869   -2.1250   23.3699 C   0  0  0  0  0  0  0  0  0  0  0  0
    7.5102   -2.0534   23.9566 C   0  0  0  0  0  0  0  0  0  0  0  0
    6.8707   -1.1898   23.7858 H   0  0  0  0  0  0  0  0  0  0  0  0
    7.0612   -3.0910   24.7769 C   0  0  0  0  0  0  0  0  0  0  0  0
    6.0728   -3.0433   25.2208 H   0  0  0  0  0  0  0  0  0  0  0  0
    7.8765   -4.1956   25.0251 C   0  0  0  0  0  0  0  0  0  0  0  0
    7.5312   -5.0220   25.6418 H   0  0  0  0  0  0  0  0  0  0  0  0
    9.1649   -4.2678   24.4665 C   0  0  0  0  0  0  0  0  0  0  0  0
   10.0250   -5.4637   24.7773 C   0  0  0  0  0  0  0  0  0  0  0  0
    9.5934   -6.5603   25.0781 O   0  0  0  0  0  0  0  0  0  0  0  0
   11.3629   -5.2913   24.6847 N   0  0  0  0  0  0  0  0  0  0  0  0
   11.8256   -4.4229   24.5033 H   0  0  0  0  0  0  0  0  0  0  0  0
   11.8398   -6.1625   24.8312 H   0  0  0  0  0  0  0  0  0  0  0  0
    9.6023   -3.2324   23.6245 C   0  0  0  0  0  0  0  0  0  0  0  0
   10.5777   -3.2605   23.1330 H   0  0  0  0  0  0  0  0  0  0  0  0
   10.5060   -0.5358   22.6912 N   0  0  0  0  0  0  0  0  0  0  0  0
   10.7119    0.5776   21.7564 C   0  0  0  0  0  0  0  0  0  0  0  0
   11.5932    0.3480   21.1500 H   0  0  0  0  0  0  0  0  0  0  0  0
   10.9309    1.4866   22.3290 H   0  0  0  0  0  0  0  0  0  0  0  0
    9.4263    0.7245   20.8975 C   0  0  0  0  0  0  0  0  0  0  0  0
    9.5991    0.6107   19.8258 H   0  0  0  0  0  0  0  0  0  0  0  0
    8.9389    1.6960   21.0209 H   0  0  0  0  0  0  0  0  0  0  0  0
    6.6356   -0.0110   19.8956 C   0  0  0  0  0  0  0  0  0  0  0  0
    7.1531    0.0619   18.5875 C   0  0  0  0  0  0  0  0  0  0  0  0
    8.1015   -0.4270   18.3636 H   0  0  0  0  0  0  0  0  0  0  0  0
    6.5528    0.6862   17.5665 N   0  0  0  0  0  0  0  0  0  0  0  0
    5.3904    1.3047   17.8258 C   0  0  0  0  0  0  0  0  0  0  0  0
    4.9180    1.8033   16.9801 H   0  0  0  0  0  0  0  0  0  0  0  0
    4.7932    1.3117   19.0918 C   0  0  0  0  0  0  0  0  0  0  0  0
    3.8667    1.8510   19.2412 H   0  0  0  0  0  0  0  0  0  0  0  0
    5.4161    0.6327   20.1378 C   0  0  0  0  0  0  0  0  0  0  0  0
    5.0019    0.6212   21.1477 H   0  0  0  0  0  0  0  0  0  0  0  0
  1  2  1  0
  2  3  2  3
  3  4  1  0
  4  5  1  0
  5  6  2  0
  6  7  1  0
  6  8  1  0
  8  9  1  0
  8 10  2  0
 10 11  1  0
 10 12  1  0
 12 13  1  0
 13 14  2  0
 13 15  1  0
 15 16  1  0
 15 17  1  0
 12 18  2  0
 18 19  1  0
  4 20  2  0
 20 21  1  0
 21 22  1  0
 21 23  1  0
 21 24  1  0
 24 25  1  0
 24 26  1  0
  2 27  1  0
 27 28  2  0
 28 29  1  0
 28 30  1  0
 30 31  2  0
 31 32  1  0
 31 33  1  0
 33 34  1  0
 33 35  2  0
 35 36  1  0
 24  3  1  0
 35 27  1  0
 18  5  1  0
M  END
>  <cnnaffinity>  (1) 
-5.622

>  <filename>  (1) 
NC(=O)c1cccc(C2=NCCC2=Cc2cccnc2)c1

$$$$
