
     RDKit          3D

 34 36  0  0  0  0  0  0  0  0999 V2000
    5.1460    2.1315   16.8405 H   0  0  0  0  0  0  0  0  0  0  0  0
    5.4726    1.4577   17.6296 C   0  0  0  0  0  0  0  0  0  0  0  0
    6.6675    0.8752   17.4388 N   0  0  0  0  0  0  0  0  0  0  0  0
    7.1255    0.0971   18.4193 C   0  0  0  0  0  0  0  0  0  0  0  0
    8.1108   -0.3467   18.2788 H   0  0  0  0  0  0  0  0  0  0  0  0
    6.4144   -0.1697   19.6062 C   0  0  0  0  0  0  0  0  0  0  0  0
    7.1485   -0.8536   20.7097 C   0  0  0  0  0  0  0  0  0  0  0  0
    8.3498   -0.3597   20.8772 N   0  0  0  0  0  0  0  0  0  0  0  0
    9.1632   -0.8727   21.8345 N   0  0  0  0  0  0  0  0  0  0  0  0
   10.4455   -0.2426   21.9368 C   0  0  0  0  0  0  0  0  0  0  0  0
   10.5444    1.1473   22.0471 C   0  0  0  0  0  0  0  0  0  0  0  0
    9.6519    1.7508   21.9176 H   0  0  0  0  0  0  0  0  0  0  0  0
   11.7956    1.7288   22.2813 C   0  0  0  0  0  0  0  0  0  0  0  0
   11.8569    2.8059   22.4233 H   0  0  0  0  0  0  0  0  0  0  0  0
   12.9484    0.9378   22.3160 C   0  0  0  0  0  0  0  0  0  0  0  0
   13.9112    1.4036   22.5340 H   0  0  0  0  0  0  0  0  0  0  0  0
   12.8551   -0.4359   22.0272 C   0  0  0  0  0  0  0  0  0  0  0  0
   14.0567   -1.3153   21.8266 C   0  0  0  0  0  0  0  0  0  0  0  0
   14.2992   -1.9316   20.8106 O   0  0  0  0  0  0  0  0  0  0  0  0
   14.8687   -1.3983   22.9011 N   0  0  0  0  0  0  0  0  0  0  0  0
   14.5804   -1.0260   23.7857 H   0  0  0  0  0  0  0  0  0  0  0  0
   15.5250   -2.1584   22.8540 H   0  0  0  0  0  0  0  0  0  0  0  0
   11.5930   -1.0297   21.8746 C   0  0  0  0  0  0  0  0  0  0  0  0
   11.4507   -2.0789   21.6402 H   0  0  0  0  0  0  0  0  0  0  0  0
    8.7731   -1.9047   22.6519 C   0  0  0  0  0  0  0  0  0  0  0  0
    9.5161   -2.2295   23.3816 H   0  0  0  0  0  0  0  0  0  0  0  0
    7.5425   -2.4417   22.5683 C   0  0  0  0  0  0  0  0  0  0  0  0
    7.2221   -3.2414   23.2186 H   0  0  0  0  0  0  0  0  0  0  0  0
    6.5956   -1.9751   21.5634 C   0  0  0  0  0  0  0  0  0  0  0  0
    5.4871   -2.4835   21.4366 O   0  0  0  0  0  0  0  0  0  0  0  0
    5.1313    0.3639   19.7467 C   0  0  0  0  0  0  0  0  0  0  0  0
    4.5227    0.1306   20.6209 H   0  0  0  0  0  0  0  0  0  0  0  0
    4.6686    1.2213   18.7463 C   0  0  0  0  0  0  0  0  0  0  0  0
    3.7253    1.7438   18.8337 H   0  0  0  0  0  0  0  0  0  0  0  0
  1  2  1  0
  2  3  2  0
  3  4  1  0
  4  5  1  0
  4  6  2  0
  6  7  1  0
  7  8  2  0
  8  9  1  0
  9 10  1  0
 10 11  2  0
 11 12  1  0
 11 13  1  0
 13 14  1  0
 13 15  2  0
 15 16  1  0
 15 17  1  0
 17 18  1  0
 18 19  2  0
 18 20  1  0
 20 21  1  0
 20 22  1  0
 17 23  2  0
 23 24  1  0
  9 25  1  0
 25 26  1  0
 25 27  2  0
 27 28  1  0
 27 29  1  0
 29 30  2  0
  6 31  1  0
 31 32  1  0
 31 33  2  0
 33 34  1  0
 33  2  1  0
 29  7  1  0
 23 10  1  0
M  END
>  <cnnaffinity>  (1) 
-6.07528

>  <filename>  (1) 
NC(=O)c1cccc(-n2ccc(=O)c(-c3cccnc3)n2)c1

$$$$
