
     RDKit          3D

 34 36  0  0  0  0  0  0  0  0999 V2000
    4.9611    1.7902   16.9990 H   0  0  0  0  0  0  0  0  0  0  0  0
    5.4132    1.3144   17.8674 C   0  0  0  0  0  0  0  0  0  0  0  0
    6.5935    0.7107   17.6546 N   0  0  0  0  0  0  0  0  0  0  0  0
    7.1769    0.1208   18.7056 C   0  0  0  0  0  0  0  0  0  0  0  0
    8.1463   -0.3412   18.5105 H   0  0  0  0  0  0  0  0  0  0  0  0
    6.6307    0.0899   20.0093 C   0  0  0  0  0  0  0  0  0  0  0  0
    7.3147   -0.6188   21.1127 C   0  0  0  0  0  0  0  0  0  0  0  0
    7.9152   -1.8475   21.1474 C   0  0  0  0  0  0  0  0  0  0  0  0
    7.9115   -2.5761   20.3605 H   0  0  0  0  0  0  0  0  0  0  0  0
    8.5037   -2.1137   22.3526 N   0  0  0  0  0  0  0  0  0  0  0  0
    8.2556   -1.0539   23.0805 C   0  0  0  0  0  0  0  0  0  0  0  0
    8.5558   -0.8813   24.1124 H   0  0  0  0  0  0  0  0  0  0  0  0
    7.5026   -0.1283   22.3942 N   0  0  0  0  0  0  0  0  0  0  0  0
    7.0636    1.1153   22.8585 N   0  0  0  0  0  0  0  0  0  0  0  0
    7.7424    1.8407   22.6120 H   0  0  0  0  0  0  0  0  0  0  0  0
    6.7460    1.2319   24.2200 C   0  0  0  0  0  0  0  0  0  0  0  0
    6.0454    0.2252   24.8908 C   0  0  0  0  0  0  0  0  0  0  0  0
    5.8031   -0.6677   24.3233 H   0  0  0  0  0  0  0  0  0  0  0  0
    5.7285    0.3697   26.2395 C   0  0  0  0  0  0  0  0  0  0  0  0
    5.1898   -0.4246   26.7502 H   0  0  0  0  0  0  0  0  0  0  0  0
    6.1184    1.5286   26.9253 C   0  0  0  0  0  0  0  0  0  0  0  0
    5.8561    1.6491   27.9732 H   0  0  0  0  0  0  0  0  0  0  0  0
    6.8178    2.5326   26.2569 C   0  0  0  0  0  0  0  0  0  0  0  0
    7.1116    3.4242   26.8073 H   0  0  0  0  0  0  0  0  0  0  0  0
    7.1386    2.4048   24.8910 C   0  0  0  0  0  0  0  0  0  0  0  0
    7.9065    3.4346   24.1369 C   0  0  0  0  0  0  0  0  0  0  0  0
    8.6224    3.2188   23.1635 O   0  0  0  0  0  0  0  0  0  0  0  0
    7.8169    4.7258   24.5653 N   0  0  0  0  0  0  0  0  0  0  0  0
    8.2544    5.2906   23.8525 H   0  0  0  0  0  0  0  0  0  0  0  0
    6.9145    5.0240   24.8942 H   0  0  0  0  0  0  0  0  0  0  0  0
    5.4074    0.7503   20.2075 C   0  0  0  0  0  0  0  0  0  0  0  0
    5.0026    0.7934   21.2188 H   0  0  0  0  0  0  0  0  0  0  0  0
    4.7816    1.3524   19.1157 C   0  0  0  0  0  0  0  0  0  0  0  0
    3.8355    1.8707   19.2214 H   0  0  0  0  0  0  0  0  0  0  0  0
  1  2  1  0
  2  3  2  0
  3  4  1  0
  4  5  1  0
  4  6  2  0
  6  7  1  0
  7  8  2  0
  8  9  1  0
  8 10  1  0
 10 11  2  0
 11 12  1  0
 11 13  1  0
 13 14  1  0
 14 15  1  0
 14 16  1  0
 16 17  2  0
 17 18  1  0
 17 19  1  0
 19 20  1  0
 19 21  2  0
 21 22  1  0
 21 23  1  0
 23 24  1  0
 23 25  2  0
 25 26  1  0
 26 27  2  0
 26 28  1  0
 28 29  1  0
 28 30  1  0
  6 31  1  0
 31 32  1  0
 31 33  2  0
 33 34  1  0
 33  2  1  0
 13  7  1  0
 25 16  1  0
M  END
>  <cnnaffinity>  (1) 
-5.01348

>  <filename>  (1) 
NC(=O)c1ccccc1Nn1cncc1-c1cccnc1

$$$$
