
     RDKit          3D

 31 32  0  0  0  0  0  0  0  0999 V2000
    4.9354    1.8448   16.9838 H   0  0  0  0  0  0  0  0  0  0  0  0
    5.4131    1.3192   17.8085 C   0  0  0  0  0  0  0  0  0  0  0  0
    6.5729    0.6982   17.5222 N   0  0  0  0  0  0  0  0  0  0  0  0
    7.2143    0.0802   18.5208 C   0  0  0  0  0  0  0  0  0  0  0  0
    8.1432   -0.4257   18.2591 H   0  0  0  0  0  0  0  0  0  0  0  0
    6.7629    0.0446   19.8695 C   0  0  0  0  0  0  0  0  0  0  0  0
    7.5236   -0.6745   20.8196 N   0  0  0  0  0  0  0  0  0  0  0  0
    7.6153   -0.3881   22.0466 C   0  0  0  0  0  0  0  0  0  0  0  0
    7.1949    0.7526   22.6893 N   0  0  0  0  0  0  0  0  0  0  0  0
    7.9062    0.9011   23.3882 H   0  0  0  0  0  0  0  0  0  0  0  0
    7.1786    1.5021   22.0156 H   0  0  0  0  0  0  0  0  0  0  0  0
    8.2316   -1.1629   22.9991 N   0  0  0  0  0  0  0  0  0  0  0  0
    7.6796   -0.9784   23.8213 H   0  0  0  0  0  0  0  0  0  0  0  0
    8.4197   -2.5856   22.7242 C   0  0  0  0  0  0  0  0  0  0  0  0
    9.0710   -2.9917   23.5089 H   0  0  0  0  0  0  0  0  0  0  0  0
    8.9683   -2.6690   21.7809 H   0  0  0  0  0  0  0  0  0  0  0  0
    7.1261   -3.3765   22.6204 C   0  0  0  0  0  0  0  0  0  0  0  0
    6.6965   -3.8517   21.3709 C   0  0  0  0  0  0  0  0  0  0  0  0
    7.2827   -3.5809   20.5036 H   0  0  0  0  0  0  0  0  0  0  0  0
    5.5393   -4.6132   21.2245 C   0  0  0  0  0  0  0  0  0  0  0  0
    5.2798   -5.0074   20.2482 H   0  0  0  0  0  0  0  0  0  0  0  0
    4.7489   -4.8779   22.3435 C   0  0  0  0  0  0  0  0  0  0  0  0
    3.8350   -5.4534   22.2488 H   0  0  0  0  0  0  0  0  0  0  0  0
    5.1317   -4.3952   23.5965 C   0  0  0  0  0  0  0  0  0  0  0  0
    4.5360   -4.5818   24.4807 H   0  0  0  0  0  0  0  0  0  0  0  0
    6.3128   -3.6627   23.7279 C   0  0  0  0  0  0  0  0  0  0  0  0
    6.7865   -3.1376   25.3246 Cl  0  0  0  0  0  0  0  0  0  0  0  0
    5.5176    0.6457   20.1241 C   0  0  0  0  0  0  0  0  0  0  0  0
    5.0943    0.5814   21.1246 H   0  0  0  0  0  0  0  0  0  0  0  0
    4.8403    1.2976   19.0822 C   0  0  0  0  0  0  0  0  0  0  0  0
    3.8964    1.8061   19.2541 H   0  0  0  0  0  0  0  0  0  0  0  0
  1  2  1  0
  2  3  2  0
  3  4  1  0
  4  5  1  0
  4  6  2  0
  6  7  1  0
  7  8  2  3
  8  9  1  0
  9 10  1  0
  9 11  1  0
  8 12  1  0
 12 13  1  0
 12 14  1  0
 14 15  1  0
 14 16  1  0
 14 17  1  0
 17 18  2  0
 18 19  1  0
 18 20  1  0
 20 21  1  0
 20 22  2  0
 22 23  1  0
 22 24  1  0
 24 25  1  0
 24 26  2  0
 26 27  1  0
  6 28  1  0
 28 29  1  0
 28 30  2  0
 30 31  1  0
 30  2  1  0
 26 17  1  0
M  END
>  <cnnaffinity>  (1) 
-4.98664

>  <filename>  (1) 
NC(=Nc1cccnc1)NCc1ccccc1Cl

$$$$
