
     RDKit          3D

 41 44  0  0  0  0  0  0  0  0999 V2000
    4.9381    1.8350   16.9511 H   0  0  0  0  0  0  0  0  0  0  0  0
    5.3840    1.3049   17.7908 C   0  0  0  0  0  0  0  0  0  0  0  0
    6.5329    0.6603   17.5334 N   0  0  0  0  0  0  0  0  0  0  0  0
    7.1283    0.0372   18.5541 C   0  0  0  0  0  0  0  0  0  0  0  0
    8.0581   -0.4833   18.3243 H   0  0  0  0  0  0  0  0  0  0  0  0
    6.6275    0.0474   19.8688 C   0  0  0  0  0  0  0  0  0  0  0  0
    7.3835   -0.5718   20.9555 C   0  0  0  0  0  0  0  0  0  0  0  0
    8.0991   -1.6786   20.7505 N   0  0  0  0  0  0  0  0  0  0  0  0
    8.6394   -1.9195   21.9397 N   0  0  0  0  0  0  0  0  0  0  0  0
    8.3577   -1.0352   22.8961 C   0  0  0  0  0  0  0  0  0  0  0  0
    7.5019   -0.1177   22.3186 C   0  0  0  0  0  0  0  0  0  0  0  0
    6.9422    1.0200   22.9330 N   0  0  0  0  0  0  0  0  0  0  0  0
    7.2955    1.9067   22.5613 H   0  0  0  0  0  0  0  0  0  0  0  0
    6.9202    1.0994   24.3318 C   0  0  0  0  0  0  0  0  0  0  0  0
    6.1705    0.1789   25.0691 C   0  0  0  0  0  0  0  0  0  0  0  0
    5.6830   -0.6243   24.5220 H   0  0  0  0  0  0  0  0  0  0  0  0
    6.0962    0.2751   26.4587 C   0  0  0  0  0  0  0  0  0  0  0  0
    5.4902   -0.4335   27.0163 H   0  0  0  0  0  0  0  0  0  0  0  0
    6.7914    1.2954   27.1217 C   0  0  0  0  0  0  0  0  0  0  0  0
    6.7153    1.3850   28.2017 H   0  0  0  0  0  0  0  0  0  0  0  0
    7.5773    2.1903   26.3966 C   0  0  0  0  0  0  0  0  0  0  0  0
    8.1188    2.9715   26.9301 H   0  0  0  0  0  0  0  0  0  0  0  0
    7.6612    2.1019   24.9918 C   0  0  0  0  0  0  0  0  0  0  0  0
    8.5169    3.0175   24.1834 C   0  0  0  0  0  0  0  0  0  0  0  0
    8.2978    3.3413   23.0240 O   0  0  0  0  0  0  0  0  0  0  0  0
    9.6084    3.5437   24.8126 N   0  0  0  0  0  0  0  0  0  0  0  0
   10.0415    2.9678   25.5138 H   0  0  0  0  0  0  0  0  0  0  0  0
   10.2155    3.9848   24.1397 H   0  0  0  0  0  0  0  0  0  0  0  0
    9.1763   -1.3006   24.1258 C   0  0  0  0  0  0  0  0  0  0  0  0
    9.7578   -0.4167   24.4005 H   0  0  0  0  0  0  0  0  0  0  0  0
    8.5360   -1.5479   24.9743 H   0  0  0  0  0  0  0  0  0  0  0  0
   10.0853   -2.4800   23.6821 C   0  0  0  0  0  0  0  0  0  0  0  0
   11.1024   -2.1315   23.5664 H   0  0  0  0  0  0  0  0  0  0  0  0
   10.0836   -3.3096   24.3890 H   0  0  0  0  0  0  0  0  0  0  0  0
    9.6213   -2.9115   22.2676 C   0  0  0  0  0  0  0  0  0  0  0  0
   10.4261   -2.8401   21.5345 H   0  0  0  0  0  0  0  0  0  0  0  0
    9.1664   -3.9022   22.2355 H   0  0  0  0  0  0  0  0  0  0  0  0
    5.4064    0.6894   20.1139 C   0  0  0  0  0  0  0  0  0  0  0  0
    4.9846    0.6883   21.1221 H   0  0  0  0  0  0  0  0  0  0  0  0
    4.7751    1.3258   19.0496 C   0  0  0  0  0  0  0  0  0  0  0  0
    3.8446    1.8605   19.1838 H   0  0  0  0  0  0  0  0  0  0  0  0
  1  2  1  0
  2  3  2  0
  3  4  1  0
  4  5  1  0
  4  6  2  0
  6  7  1  0
  7  8  2  0
  8  9  1  0
  9 10  1  0
 10 11  2  0
 11 12  1  0
 12 13  1  0
 12 14  1  0
 14 15  2  0
 15 16  1  0
 15 17  1  0
 17 18  1  0
 17 19  2  0
 19 20  1  0
 19 21  1  0
 21 22  1  0
 21 23  2  0
 23 24  1  0
 24 25  2  0
 24 26  1  0
 26 27  1  0
 26 28  1  0
 10 29  1  0
 29 30  1  0
 29 31  1  0
 29 32  1  0
 32 33  1  0
 32 34  1  0
 32 35  1  0
 35 36  1  0
 35 37  1  0
  6 38  1  0
 38 39  1  0
 38 40  2  0
 40 41  1  0
 40  2  1  0
 11  7  1  0
 23 14  1  0
 35  9  1  0
M  END
>  <cnnaffinity>  (1) 
-5.68903

>  <filename>  (1) 
NC(=O)c1ccccc1Nc1c(-c2cccnc2)nn2c1CCC2

$$$$
