
     RDKit          3D

 34 37  0  0  0  0  0  0  0  0999 V2000
    4.9574    1.7824   16.9920 H   0  0  0  0  0  0  0  0  0  0  0  0
    5.4103    1.2822   17.8467 C   0  0  0  0  0  0  0  0  0  0  0  0
    6.5730    0.6574   17.6075 N   0  0  0  0  0  0  0  0  0  0  0  0
    7.1733    0.0450   18.6315 C   0  0  0  0  0  0  0  0  0  0  0  0
    8.1221   -0.4390   18.4093 H   0  0  0  0  0  0  0  0  0  0  0  0
    6.6442    0.0149   19.9265 C   0  0  0  0  0  0  0  0  0  0  0  0
    7.3770   -0.6908   20.9723 C   0  0  0  0  0  0  0  0  0  0  0  0
    8.5586   -1.3359   20.7547 N   0  0  0  0  0  0  0  0  0  0  0  0
    8.8040   -1.8223   21.9544 C   0  0  0  0  0  0  0  0  0  0  0  0
   10.0146   -2.7898   22.7264 S   0  0  0  0  0  0  0  0  0  0  0  0
    9.0936   -2.7660   24.2066 C   0  0  0  0  0  0  0  0  0  0  0  0
    9.4697   -3.2773   25.0817 H   0  0  0  0  0  0  0  0  0  0  0  0
    7.9575   -2.0356   24.1253 C   0  0  0  0  0  0  0  0  0  0  0  0
    6.9704   -1.7675   25.2056 C   0  0  0  0  0  0  0  0  0  0  0  0
    6.2521   -0.5564   25.2837 C   0  0  0  0  0  0  0  0  0  0  0  0
    6.4047    0.1888   24.5100 H   0  0  0  0  0  0  0  0  0  0  0  0
    5.3408   -0.3408   26.3210 C   0  0  0  0  0  0  0  0  0  0  0  0
    4.7789    0.5901   26.3625 H   0  0  0  0  0  0  0  0  0  0  0  0
    5.1202   -1.3233   27.2896 C   0  0  0  0  0  0  0  0  0  0  0  0
    4.3637   -1.1439   28.0538 H   0  0  0  0  0  0  0  0  0  0  0  0
    5.8234   -2.5418   27.2392 C   0  0  0  0  0  0  0  0  0  0  0  0
    5.5839   -3.6505   28.2402 C   0  0  0  0  0  0  0  0  0  0  0  0
    5.8777   -4.8173   28.0589 O   0  0  0  0  0  0  0  0  0  0  0  0
    4.9823   -3.3071   29.4203 N   0  0  0  0  0  0  0  0  0  0  0  0
    5.1179   -2.3794   29.7935 H   0  0  0  0  0  0  0  0  0  0  0  0
    5.0530   -4.0999   30.0382 H   0  0  0  0  0  0  0  0  0  0  0  0
    6.7453   -2.7439   26.1973 C   0  0  0  0  0  0  0  0  0  0  0  0
    7.2535   -3.7051   26.1520 H   0  0  0  0  0  0  0  0  0  0  0  0
    7.8326   -1.5025   22.8337 N   0  0  0  0  0  0  0  0  0  0  0  0
    6.8939   -0.7556   22.2069 N   0  0  0  0  0  0  0  0  0  0  0  0
    5.4205    0.6618   20.1719 C   0  0  0  0  0  0  0  0  0  0  0  0
    4.9814    0.6554   21.1707 H   0  0  0  0  0  0  0  0  0  0  0  0
    4.7989    1.3098   19.1066 C   0  0  0  0  0  0  0  0  0  0  0  0
    3.8644    1.8487   19.2296 H   0  0  0  0  0  0  0  0  0  0  0  0
  1  2  1  0
  2  3  2  0
  3  4  1  0
  4  5  1  0
  4  6  2  0
  6  7  1  0
  7  8  1  0
  8  9  2  0
  9 10  1  0
 10 11  1  0
 11 12  1  0
 11 13  2  0
 13 14  1  0
 14 15  2  0
 15 16  1  0
 15 17  1  0
 17 18  1  0
 17 19  2  0
 19 20  1  0
 19 21  1  0
 21 22  1  0
 22 23  2  0
 22 24  1  0
 24 25  1  0
 24 26  1  0
 21 27  2  0
 27 28  1  0
 13 29  1  0
 29 30  1  0
  6 31  1  0
 31 32  1  0
 31 33  2  0
 33 34  1  0
 33  2  1  0
 30  7  2  0
 29  9  1  0
 27 14  1  0
M  END
>  <cnnaffinity>  (1) 
-5.48114

>  <filename>  (1) 
NC(=O)c1cccc(-c2csc3nc(-c4cccnc4)nn23)c1

$$$$
