
     RDKit          3D

 42 44  0  0  0  0  0  0  0  0999 V2000
    5.0460    1.8365   16.4618 H   0  0  0  0  0  0  0  0  0  0  0  0
    5.4419    1.4036   17.3783 C   0  0  0  0  0  0  0  0  0  0  0  0
    6.6558    0.8393   17.2900 N   0  0  0  0  0  0  0  0  0  0  0  0
    7.1944    0.3292   18.4103 C   0  0  0  0  0  0  0  0  0  0  0  0
    8.1902   -0.0970   18.2984 H   0  0  0  0  0  0  0  0  0  0  0  0
    6.5518    0.3152   19.6836 C   0  0  0  0  0  0  0  0  0  0  0  0
    7.1320   -0.1790   20.8807 N   0  0  0  0  0  0  0  0  0  0  0  0
    6.4383   -1.1767   21.6975 C   0  0  0  0  0  0  0  0  0  0  0  0
    5.3866   -1.1747   21.3994 H   0  0  0  0  0  0  0  0  0  0  0  0
    6.4839   -0.8900   22.7616 H   0  0  0  0  0  0  0  0  0  0  0  0
    6.9586   -2.6289   21.5444 C   0  0  0  0  0  0  0  0  0  0  0  0
    7.1853   -2.7922   20.4850 H   0  0  0  0  0  0  0  0  0  0  0  0
    6.1603   -3.3353   21.7879 H   0  0  0  0  0  0  0  0  0  0  0  0
    8.1342   -2.9888   22.3394 N   0  0  0  0  0  0  0  0  0  0  0  0
    7.9709   -3.5153   23.6404 C   0  0  0  0  0  0  0  0  0  0  0  0
    6.7559   -3.4521   24.3543 C   0  0  0  0  0  0  0  0  0  0  0  0
    5.8789   -3.0354   23.8707 H   0  0  0  0  0  0  0  0  0  0  0  0
    6.6871   -3.9129   25.6745 C   0  0  0  0  0  0  0  0  0  0  0  0
    5.7526   -3.8111   26.2250 H   0  0  0  0  0  0  0  0  0  0  0  0
    7.8046   -4.4531   26.3185 C   0  0  0  0  0  0  0  0  0  0  0  0
    7.6906   -4.7945   27.3491 H   0  0  0  0  0  0  0  0  0  0  0  0
    9.0224   -4.5643   25.6148 C   0  0  0  0  0  0  0  0  0  0  0  0
   10.3410   -5.0570   26.1725 C   0  0  0  0  0  0  0  0  0  0  0  0
   11.3042   -5.2588   25.4574 O   0  0  0  0  0  0  0  0  0  0  0  0
   10.4823   -5.2076   27.5378 N   0  0  0  0  0  0  0  0  0  0  0  0
   11.3950   -5.6353   27.6475 H   0  0  0  0  0  0  0  0  0  0  0  0
    9.7433   -5.7424   27.9778 H   0  0  0  0  0  0  0  0  0  0  0  0
    9.0684   -4.1178   24.2810 C   0  0  0  0  0  0  0  0  0  0  0  0
    9.9902   -4.2237   23.7188 H   0  0  0  0  0  0  0  0  0  0  0  0
    9.3869   -2.2587   22.0979 C   0  0  0  0  0  0  0  0  0  0  0  0
    9.6718   -1.7338   23.0268 H   0  0  0  0  0  0  0  0  0  0  0  0
   10.2016   -2.9773   21.9261 H   0  0  0  0  0  0  0  0  0  0  0  0
    9.4148   -1.2410   20.9528 C   0  0  0  0  0  0  0  0  0  0  0  0
   10.4589   -0.9190   20.8621 H   0  0  0  0  0  0  0  0  0  0  0  0
    9.1517   -1.7217   20.0042 H   0  0  0  0  0  0  0  0  0  0  0  0
    8.5484    0.0097   21.1547 C   0  0  0  0  0  0  0  0  0  0  0  0
    8.6746    0.3727   22.1909 H   0  0  0  0  0  0  0  0  0  0  0  0
    8.9045    0.8240   20.5101 H   0  0  0  0  0  0  0  0  0  0  0  0
    5.2658    0.8838   19.7249 C   0  0  0  0  0  0  0  0  0  0  0  0
    4.7564    0.9130   20.6869 H   0  0  0  0  0  0  0  0  0  0  0  0
    4.7085    1.4412   18.5696 C   0  0  0  0  0  0  0  0  0  0  0  0
    3.7315    1.9129   18.5855 H   0  0  0  0  0  0  0  0  0  0  0  0
  1  2  1  0
  2  3  2  0
  3  4  1  0
  4  5  1  0
  4  6  2  0
  6  7  1  0
  7  8  1  0
  8  9  1  0
  8 10  1  0
  8 11  1  0
 11 12  1  0
 11 13  1  0
 11 14  1  0
 14 15  1  0
 15 16  2  0
 16 17  1  0
 16 18  1  0
 18 19  1  0
 18 20  2  0
 20 21  1  0
 20 22  1  0
 22 23  1  0
 23 24  2  0
 23 25  1  0
 25 26  1  0
 25 27  1  0
 22 28  2  0
 28 29  1  0
 14 30  1  0
 30 31  1  0
 30 32  1  0
 30 33  1  0
 33 34  1  0
 33 35  1  0
 33 36  1  0
 36 37  1  0
 36 38  1  0
  6 39  1  0
 39 40  1  0
 39 41  2  0
 41 42  1  0
 41  2  1  0
 36  7  1  0
 28 15  1  0
M  END
>  <cnnaffinity>  (1) 
-5.18118

>  <filename>  (1) 
NC(=O)c1cccc(N2CCCN(c3cccnc3)CC2)c1

$$$$
