
     RDKit          3D

 33 35  0  0  0  0  0  0  0  0999 V2000
    5.0201    1.8756   16.9298 H   0  0  0  0  0  0  0  0  0  0  0  0
    5.4894    1.3402   17.7506 C   0  0  0  0  0  0  0  0  0  0  0  0
    6.6664    0.7509   17.4740 N   0  0  0  0  0  0  0  0  0  0  0  0
    7.2727    0.0832   18.4596 C   0  0  0  0  0  0  0  0  0  0  0  0
    8.2354   -0.3798   18.2399 H   0  0  0  0  0  0  0  0  0  0  0  0
    6.7159   -0.0631   19.7457 C   0  0  0  0  0  0  0  0  0  0  0  0
    7.3654   -0.8370   20.7295 N   0  0  0  0  0  0  0  0  0  0  0  0
    6.8001   -1.7522   21.6375 C   0  0  0  0  0  0  0  0  0  0  0  0
    5.6623   -2.1853   21.5749 O   0  0  0  0  0  0  0  0  0  0  0  0
    7.9072   -2.0438   22.5719 C   0  0  0  0  0  0  0  0  0  0  0  0
    7.7884   -2.8397   23.8026 C   0  0  0  0  0  0  0  0  0  0  0  0
    6.5997   -2.8573   24.5581 C   0  0  0  0  0  0  0  0  0  0  0  0
    5.7556   -2.2579   24.2302 H   0  0  0  0  0  0  0  0  0  0  0  0
    6.5046   -3.6556   25.7006 C   0  0  0  0  0  0  0  0  0  0  0  0
    5.5804   -3.6739   26.2763 H   0  0  0  0  0  0  0  0  0  0  0  0
    7.5926   -4.4315   26.1161 C   0  0  0  0  0  0  0  0  0  0  0  0
    7.4605   -5.0800   26.9839 H   0  0  0  0  0  0  0  0  0  0  0  0
    8.8049   -4.3970   25.3954 C   0  0  0  0  0  0  0  0  0  0  0  0
   10.0379   -5.1816   25.7591 C   0  0  0  0  0  0  0  0  0  0  0  0
   10.8586   -5.5389   24.9348 O   0  0  0  0  0  0  0  0  0  0  0  0
   10.2654   -5.4430   27.0819 N   0  0  0  0  0  0  0  0  0  0  0  0
   10.9731   -6.1629   27.1200 H   0  0  0  0  0  0  0  0  0  0  0  0
    9.4684   -5.5736   27.6799 H   0  0  0  0  0  0  0  0  0  0  0  0
    8.8760   -3.6057   24.2379 C   0  0  0  0  0  0  0  0  0  0  0  0
    9.7882   -3.6098   23.6412 H   0  0  0  0  0  0  0  0  0  0  0  0
    9.0091   -1.4267   22.0817 C   0  0  0  0  0  0  0  0  0  0  0  0
   10.0000   -1.3933   22.5171 H   0  0  0  0  0  0  0  0  0  0  0  0
    8.7582   -0.7611   20.8803 N   0  0  0  0  0  0  0  0  0  0  0  0
    9.0927    0.1971   20.8251 H   0  0  0  0  0  0  0  0  0  0  0  0
    5.4986    0.5728   20.0333 C   0  0  0  0  0  0  0  0  0  0  0  0
    5.0761    0.5187   21.0368 H   0  0  0  0  0  0  0  0  0  0  0  0
    4.8795    1.2902   19.0088 C   0  0  0  0  0  0  0  0  0  0  0  0
    3.9463    1.8168   19.1760 H   0  0  0  0  0  0  0  0  0  0  0  0
  1  2  1  0
  2  3  2  0
  3  4  1  0
  4  5  1  0
  4  6  2  0
  6  7  1  0
  7  8  1  0
  8  9  2  0
  8 10  1  0
 10 11  1  0
 11 12  2  0
 12 13  1  0
 12 14  1  0
 14 15  1  0
 14 16  2  0
 16 17  1  0
 16 18  1  0
 18 19  1  0
 19 20  2  0
 19 21  1  0
 21 22  1  0
 21 23  1  0
 18 24  2  0
 24 25  1  0
 10 26  2  0
 26 27  1  0
 26 28  1  0
 28 29  1  0
  6 30  1  0
 30 31  1  0
 30 32  2  0
 32 33  1  0
 32  2  1  0
 28  7  1  0
 24 11  1  0
M  END
>  <cnnaffinity>  (1) 
-5.08011

>  <filename>  (1) 
NC(=O)c1cccc(-c2c[nH]n(-c3cccnc3)c2=O)c1

$$$$
