
     RDKit          3D

 35 37  0  0  0  0  0  0  0  0999 V2000
    4.9660    1.8931   16.9514 H   0  0  0  0  0  0  0  0  0  0  0  0
    5.4179    1.3463   17.7767 C   0  0  0  0  0  0  0  0  0  0  0  0
    6.5794    0.7251   17.5127 N   0  0  0  0  0  0  0  0  0  0  0  0
    7.1718    0.0663   18.5156 C   0  0  0  0  0  0  0  0  0  0  0  0
    8.1169   -0.4202   18.2775 H   0  0  0  0  0  0  0  0  0  0  0  0
    6.6324   -0.0324   19.8164 C   0  0  0  0  0  0  0  0  0  0  0  0
    7.3386   -0.7144   20.8849 N   0  0  0  0  0  0  0  0  0  0  0  0
    8.5960   -0.2461   21.2448 C   0  0  0  0  0  0  0  0  0  0  0  0
    8.9480    0.6212   20.6919 H   0  0  0  0  0  0  0  0  0  0  0  0
    9.3655   -0.8318   22.1931 C   0  0  0  0  0  0  0  0  0  0  0  0
   10.7512   -0.3623   22.4392 C   0  0  0  0  0  0  0  0  0  0  0  0
   11.8365   -1.2456   22.3122 C   0  0  0  0  0  0  0  0  0  0  0  0
   11.6428   -2.2753   22.0324 H   0  0  0  0  0  0  0  0  0  0  0  0
   13.1433   -0.7956   22.5133 C   0  0  0  0  0  0  0  0  0  0  0  0
   13.9895   -1.4708   22.4261 H   0  0  0  0  0  0  0  0  0  0  0  0
   13.3833    0.5361   22.8408 C   0  0  0  0  0  0  0  0  0  0  0  0
   14.4163    0.8378   23.0087 H   0  0  0  0  0  0  0  0  0  0  0  0
   12.3159    1.4461   22.9796 C   0  0  0  0  0  0  0  0  0  0  0  0
   12.5210    2.9033   23.3399 C   0  0  0  0  0  0  0  0  0  0  0  0
   11.6387    3.6369   23.7369 O   0  0  0  0  0  0  0  0  0  0  0  0
   13.7859    3.4136   23.2221 N   0  0  0  0  0  0  0  0  0  0  0  0
   13.7335    4.4219   23.1901 H   0  0  0  0  0  0  0  0  0  0  0  0
   14.3882    2.9868   22.5381 H   0  0  0  0  0  0  0  0  0  0  0  0
   11.0041    0.9801   22.7699 C   0  0  0  0  0  0  0  0  0  0  0  0
   10.1713    1.6755   22.8729 H   0  0  0  0  0  0  0  0  0  0  0  0
    8.7981   -1.9736   22.9479 C   0  0  0  0  0  0  0  0  0  0  0  0
    9.3170   -2.6827   23.7803 O   0  0  0  0  0  0  0  0  0  0  0  0
    7.4876   -2.2481   22.6338 N   0  0  0  0  0  0  0  0  0  0  0  0
    7.0903   -3.0334   23.1098 H   0  0  0  0  0  0  0  0  0  0  0  0
    6.7395   -1.7804   21.6061 C   0  0  0  0  0  0  0  0  0  0  0  0
    5.6673   -2.2844   21.3688 O   0  0  0  0  0  0  0  0  0  0  0  0
    5.4163    0.6086   20.0727 C   0  0  0  0  0  0  0  0  0  0  0  0
    4.9695    0.5531   21.0638 H   0  0  0  0  0  0  0  0  0  0  0  0
    4.8033    1.3149   19.0316 C   0  0  0  0  0  0  0  0  0  0  0  0
    3.8736    1.8518   19.1880 H   0  0  0  0  0  0  0  0  0  0  0  0
  1  2  1  0
  2  3  2  0
  3  4  1  0
  4  5  1  0
  4  6  2  0
  6  7  1  0
  7  8  1  0
  8  9  1  0
  8 10  2  0
 10 11  1  0
 11 12  2  0
 12 13  1  0
 12 14  1  0
 14 15  1  0
 14 16  2  0
 16 17  1  0
 16 18  1  0
 18 19  1  0
 19 20  2  0
 19 21  1  0
 21 22  1  0
 21 23  1  0
 18 24  2  0
 24 25  1  0
 10 26  1  0
 26 27  2  0
 26 28  1  0
 28 29  1  0
 28 30  1  0
 30 31  2  0
  6 32  1  0
 32 33  1  0
 32 34  2  0
 34 35  1  0
 34  2  1  0
 30  7  1  0
 24 11  1  0
M  END
>  <cnnaffinity>  (1) 
-5.80698

>  <filename>  (1) 
NC(=O)c1cccc(-c2cn(-c3cccnc3)c(=O)[nH]c2=O)c1

$$$$
