
     RDKit          3D

 34 36  0  0  0  0  0  0  0  0999 V2000
    5.1019    1.7969   17.0636 H   0  0  0  0  0  0  0  0  0  0  0  0
    5.5966    1.2798   17.8835 C   0  0  0  0  0  0  0  0  0  0  0  0
    6.7792    0.7105   17.6058 N   0  0  0  0  0  0  0  0  0  0  0  0
    7.4038    0.0546   18.5948 C   0  0  0  0  0  0  0  0  0  0  0  0
    8.3729   -0.3810   18.3575 H   0  0  0  0  0  0  0  0  0  0  0  0
    6.8554   -0.1050   19.8866 C   0  0  0  0  0  0  0  0  0  0  0  0
    7.4663   -0.9224   20.9106 N   0  0  0  0  0  0  0  0  0  0  0  0
    8.6965   -0.7762   21.5401 C   0  0  0  0  0  0  0  0  0  0  0  0
    9.5966    0.1428   21.0791 N   0  0  0  0  0  0  0  0  0  0  0  0
    9.1791    1.0643   20.9678 H   0  0  0  0  0  0  0  0  0  0  0  0
   10.9062    0.2098   21.5645 C   0  0  0  0  0  0  0  0  0  0  0  0
   11.6719   -0.9589   21.5494 C   0  0  0  0  0  0  0  0  0  0  0  0
   11.1813   -1.8631   21.2105 H   0  0  0  0  0  0  0  0  0  0  0  0
   12.9935   -0.9513   21.9824 C   0  0  0  0  0  0  0  0  0  0  0  0
   13.5566   -1.8788   22.0114 H   0  0  0  0  0  0  0  0  0  0  0  0
   13.5687    0.2429   22.4305 C   0  0  0  0  0  0  0  0  0  0  0  0
   14.5980    0.2624   22.7771 H   0  0  0  0  0  0  0  0  0  0  0  0
   12.8294    1.4243   22.4112 C   0  0  0  0  0  0  0  0  0  0  0  0
   13.3273    2.3512   22.6958 H   0  0  0  0  0  0  0  0  0  0  0  0
   11.4731    1.4293   22.0018 C   0  0  0  0  0  0  0  0  0  0  0  0
   10.5986    2.6296   22.0681 C   0  0  0  0  0  0  0  0  0  0  0  0
    9.4871    2.7158   21.5467 O   0  0  0  0  0  0  0  0  0  0  0  0
   11.0435    3.7294   22.7421 N   0  0  0  0  0  0  0  0  0  0  0  0
   10.2622    4.3548   22.8541 H   0  0  0  0  0  0  0  0  0  0  0  0
   11.6800    3.6454   23.5138 H   0  0  0  0  0  0  0  0  0  0  0  0
    8.8501   -1.6031   22.5381 N   0  0  0  0  0  0  0  0  0  0  0  0
    7.6749   -2.3062   22.5288 N   0  0  0  0  0  0  0  0  0  0  0  0
    7.4325   -3.0295   23.1857 H   0  0  0  0  0  0  0  0  0  0  0  0
    6.8358   -1.9912   21.5369 C   0  0  0  0  0  0  0  0  0  0  0  0
    5.4430   -2.8187   21.1765 S   0  0  0  0  0  0  0  0  0  0  0  0
    5.6298    0.5058   20.1663 C   0  0  0  0  0  0  0  0  0  0  0  0
    5.1951    0.4078   21.1631 H   0  0  0  0  0  0  0  0  0  0  0  0
    4.9944    1.2181   19.1451 C   0  0  0  0  0  0  0  0  0  0  0  0
    4.0480    1.7175   19.3172 H   0  0  0  0  0  0  0  0  0  0  0  0
  1  2  1  0
  2  3  2  0
  3  4  1  0
  4  5  1  0
  4  6  2  0
  6  7  1  0
  7  8  1  0
  8  9  1  0
  9 10  1  0
  9 11  1  0
 11 12  2  0
 12 13  1  0
 12 14  1  0
 14 15  1  0
 14 16  2  0
 16 17  1  0
 16 18  1  0
 18 19  1  0
 18 20  2  0
 20 21  1  0
 21 22  2  0
 21 23  1  0
 23 24  1  0
 23 25  1  0
  8 26  2  0
 26 27  1  0
 27 28  1  0
 27 29  1  0
 29 30  2  0
  6 31  1  0
 31 32  1  0
 31 33  2  0
 33 34  1  0
 33  2  1  0
 29  7  1  0
 20 11  1  0
M  END
>  <cnnaffinity>  (1) 
-5.85622

>  <filename>  (1) 
NC(=O)c1ccccc1Nc1n[nH]c(=S)n1-c1cccnc1

$$$$
