
     RDKit          3D

 33 35  0  0  0  0  0  0  0  0999 V2000
    4.9199    1.7977   16.9733 H   0  0  0  0  0  0  0  0  0  0  0  0
    5.3938    1.3016   17.8196 C   0  0  0  0  0  0  0  0  0  0  0  0
    6.5594    0.6835   17.5638 N   0  0  0  0  0  0  0  0  0  0  0  0
    7.1720    0.0716   18.5852 C   0  0  0  0  0  0  0  0  0  0  0  0
    8.1097   -0.4236   18.3339 H   0  0  0  0  0  0  0  0  0  0  0  0
    6.6653    0.0207   19.8966 C   0  0  0  0  0  0  0  0  0  0  0  0
    7.3390   -0.6982   20.9787 C   0  0  0  0  0  0  0  0  0  0  0  0
    6.8184   -1.2279   22.1019 C   0  0  0  0  0  0  0  0  0  0  0  0
    5.7950   -1.2956   22.3882 H   0  0  0  0  0  0  0  0  0  0  0  0
    7.8290   -1.8000   22.8571 N   0  0  0  0  0  0  0  0  0  0  0  0
    7.6576   -2.4648   24.1035 C   0  0  0  0  0  0  0  0  0  0  0  0
    6.7191   -1.9840   25.0275 C   0  0  0  0  0  0  0  0  0  0  0  0
    6.1233   -1.1085   24.7864 H   0  0  0  0  0  0  0  0  0  0  0  0
    6.5759   -2.6296   26.2566 C   0  0  0  0  0  0  0  0  0  0  0  0
    5.8635   -2.2548   26.9847 H   0  0  0  0  0  0  0  0  0  0  0  0
    7.3458   -3.7544   26.5558 C   0  0  0  0  0  0  0  0  0  0  0  0
    7.2618   -4.2402   27.5247 H   0  0  0  0  0  0  0  0  0  0  0  0
    8.2655   -4.2634   25.6182 C   0  0  0  0  0  0  0  0  0  0  0  0
    9.1048   -5.4570   26.0089 C   0  0  0  0  0  0  0  0  0  0  0  0
    9.3232   -5.7622   27.1660 O   0  0  0  0  0  0  0  0  0  0  0  0
    9.6480   -6.1958   25.0111 N   0  0  0  0  0  0  0  0  0  0  0  0
    9.3597   -6.1175   24.0564 H   0  0  0  0  0  0  0  0  0  0  0  0
   10.1983   -6.9566   25.3708 H   0  0  0  0  0  0  0  0  0  0  0  0
    8.4249   -3.5973   24.3898 C   0  0  0  0  0  0  0  0  0  0  0  0
    9.1780   -3.8764   23.6543 H   0  0  0  0  0  0  0  0  0  0  0  0
    9.0403   -1.6387   22.1779 C   0  0  0  0  0  0  0  0  0  0  0  0
   10.1643   -1.9775   22.4839 O   0  0  0  0  0  0  0  0  0  0  0  0
    8.6946   -0.9816   21.0206 N   0  0  0  0  0  0  0  0  0  0  0  0
    9.4344   -0.6838   20.4165 H   0  0  0  0  0  0  0  0  0  0  0  0
    5.4375    0.6641   20.1366 C   0  0  0  0  0  0  0  0  0  0  0  0
    5.0054    0.6583   21.1381 H   0  0  0  0  0  0  0  0  0  0  0  0
    4.7989    1.3195   19.0861 C   0  0  0  0  0  0  0  0  0  0  0  0
    3.8649    1.8507   19.2350 H   0  0  0  0  0  0  0  0  0  0  0  0
  1  2  1  0
  2  3  2  0
  3  4  1  0
  4  5  1  0
  4  6  2  0
  6  7  1  0
  7  8  2  0
  8  9  1  0
  8 10  1  0
 10 11  1  0
 11 12  2  0
 12 13  1  0
 12 14  1  0
 14 15  1  0
 14 16  2  0
 16 17  1  0
 16 18  1  0
 18 19  1  0
 19 20  2  0
 19 21  1  0
 21 22  1  0
 21 23  1  0
 18 24  2  0
 24 25  1  0
 10 26  1  0
 26 27  2  0
 26 28  1  0
 28 29  1  0
  6 30  1  0
 30 31  1  0
 30 32  2  0
 32 33  1  0
 32  2  1  0
 28  7  1  0
 24 11  1  0
M  END
>  <cnnaffinity>  (1) 
-5.32557

>  <filename>  (1) 
NC(=O)c1cccc(-n2cc(-c3cccnc3)[nH]c2=O)c1

$$$$
