
     RDKit          3D

 31 32  0  0  0  0  0  0  0  0999 V2000
    4.9464    1.7805   17.0013 H   0  0  0  0  0  0  0  0  0  0  0  0
    5.4216    1.2721   17.8419 C   0  0  0  0  0  0  0  0  0  0  0  0
    6.5814    0.6380   17.6013 N   0  0  0  0  0  0  0  0  0  0  0  0
    7.1862    0.0126   18.6233 C   0  0  0  0  0  0  0  0  0  0  0  0
    8.1375   -0.4632   18.3830 H   0  0  0  0  0  0  0  0  0  0  0  0
    6.6841   -0.0090   19.9514 C   0  0  0  0  0  0  0  0  0  0  0  0
    7.3144   -0.6503   21.0574 N   0  0  0  0  0  0  0  0  0  0  0  0
    7.9077   -1.4480   20.9543 H   0  0  0  0  0  0  0  0  0  0  0  0
    7.5170   -0.1118   22.2923 C   0  0  0  0  0  0  0  0  0  0  0  0
    7.0765    1.0148   22.6518 N   0  0  0  0  0  0  0  0  0  0  0  0
    7.4673    1.6519   23.8139 C   0  0  0  0  0  0  0  0  0  0  0  0
    8.7504    1.6017   24.3797 C   0  0  0  0  0  0  0  0  0  0  0  0
    9.5113    1.0053   23.8892 H   0  0  0  0  0  0  0  0  0  0  0  0
    9.0167    2.3035   25.5572 C   0  0  0  0  0  0  0  0  0  0  0  0
    9.9967    2.2199   26.0118 H   0  0  0  0  0  0  0  0  0  0  0  0
    8.0254    3.0831   26.1568 C   0  0  0  0  0  0  0  0  0  0  0  0
    8.2341    3.6230   27.0729 H   0  0  0  0  0  0  0  0  0  0  0  0
    6.7660    3.1843   25.5665 C   0  0  0  0  0  0  0  0  0  0  0  0
    5.9964    3.8072   26.0165 H   0  0  0  0  0  0  0  0  0  0  0  0
    6.4910    2.4867   24.3885 C   0  0  0  0  0  0  0  0  0  0  0  0
    5.1602    2.5781   23.6799 C   0  0  0  0  0  0  0  0  0  0  0  0
    4.2943    3.3930   24.3198 F   0  0  0  0  0  0  0  0  0  0  0  0
    4.5314    1.3864   23.5925 F   0  0  0  0  0  0  0  0  0  0  0  0
    5.2655    3.0563   22.4261 F   0  0  0  0  0  0  0  0  0  0  0  0
    8.2401   -0.9884   23.0691 N   0  0  0  0  0  0  0  0  0  0  0  0
    7.9179   -0.8771   24.0208 H   0  0  0  0  0  0  0  0  0  0  0  0
    8.0491   -1.9156   22.7473 H   0  0  0  0  0  0  0  0  0  0  0  0
    5.4685    0.6481   20.1756 C   0  0  0  0  0  0  0  0  0  0  0  0
    5.0634    0.6653   21.1854 H   0  0  0  0  0  0  0  0  0  0  0  0
    4.8249    1.2809   19.1039 C   0  0  0  0  0  0  0  0  0  0  0  0
    3.8887    1.8067   19.2527 H   0  0  0  0  0  0  0  0  0  0  0  0
  1  2  1  0
  2  3  2  0
  3  4  1  0
  4  5  1  0
  4  6  2  0
  6  7  1  0
  7  8  1  0
  7  9  1  0
  9 10  2  3
 10 11  1  0
 11 12  2  0
 12 13  1  0
 12 14  1  0
 14 15  1  0
 14 16  2  0
 16 17  1  0
 16 18  1  0
 18 19  1  0
 18 20  2  0
 20 21  1  0
 21 22  1  0
 21 23  1  0
 21 24  1  0
  9 25  1  0
 25 26  1  0
 25 27  1  0
  6 28  1  0
 28 29  1  0
 28 30  2  0
 30 31  1  0
 30  2  1  0
 20 11  1  0
M  END
>  <cnnaffinity>  (1) 
-5.15666

>  <filename>  (1) 
NC(=Nc1ccccc1C(F)(F)F)Nc1cccnc1

$$$$
