
     RDKit          3D

 39 42  0  0  0  0  0  0  0  0999 V2000
    4.9106    1.8339   16.9590 H   0  0  0  0  0  0  0  0  0  0  0  0
    5.3942    1.3190   17.7874 C   0  0  0  0  0  0  0  0  0  0  0  0
    6.5508    0.7028   17.5079 N   0  0  0  0  0  0  0  0  0  0  0  0
    7.1719    0.0846   18.5202 C   0  0  0  0  0  0  0  0  0  0  0  0
    8.1112   -0.4047   18.2640 H   0  0  0  0  0  0  0  0  0  0  0  0
    6.6961    0.0330   19.8442 C   0  0  0  0  0  0  0  0  0  0  0  0
    7.4571   -0.6796   20.9417 C   0  0  1  0  0  0  0  0  0  0  0  0
    8.3875   -1.0742   20.5239 H   0  0  0  0  0  0  0  0  0  0  0  0
    7.8508    0.2587   22.1360 C   0  0  0  0  0  0  0  0  0  0  0  0
    8.9350    0.3771   22.2070 H   0  0  0  0  0  0  0  0  0  0  0  0
    7.4348    1.2666   22.0469 H   0  0  0  0  0  0  0  0  0  0  0  0
    7.3057   -0.4517   23.3350 C   0  0  0  0  0  0  0  0  0  0  0  0
    7.2831   -0.1979   24.6302 N   0  0  0  0  0  0  0  0  0  0  0  0
    6.6533   -1.2829   25.1470 N   0  0  0  0  0  0  0  0  0  0  0  0
    6.5352   -1.3313   26.1549 H   0  0  0  0  0  0  0  0  0  0  0  0
    6.2671   -2.1970   24.2036 C   0  0  0  0  0  0  0  0  0  0  0  0
    5.6299   -3.5060   24.4579 C   0  0  0  0  0  0  0  0  0  0  0  0
    4.7035   -4.0279   23.5371 C   0  0  0  0  0  0  0  0  0  0  0  0
    4.3702   -3.4092   22.7108 H   0  0  0  0  0  0  0  0  0  0  0  0
    4.1947   -5.3228   23.6891 C   0  0  0  0  0  0  0  0  0  0  0  0
    3.4816   -5.7214   22.9682 H   0  0  0  0  0  0  0  0  0  0  0  0
    4.6056   -6.1128   24.7658 C   0  0  0  0  0  0  0  0  0  0  0  0
    4.2197   -7.1261   24.8877 H   0  0  0  0  0  0  0  0  0  0  0  0
    5.5267   -5.6072   25.7036 C   0  0  0  0  0  0  0  0  0  0  0  0
    5.9614   -6.4652   26.8647 C   0  0  0  0  0  0  0  0  0  0  0  0
    5.3609   -7.4489   27.2443 O   0  0  0  0  0  0  0  0  0  0  0  0
    7.1076   -6.0738   27.5248 N   0  0  0  0  0  0  0  0  0  0  0  0
    7.3863   -6.8653   28.0846 H   0  0  0  0  0  0  0  0  0  0  0  0
    7.8397   -5.7280   26.9231 H   0  0  0  0  0  0  0  0  0  0  0  0
    6.0185   -4.3017   25.5447 C   0  0  0  0  0  0  0  0  0  0  0  0
    6.7261   -3.9023   26.2686 H   0  0  0  0  0  0  0  0  0  0  0  0
    6.6986   -1.6565   23.0102 C   0  0  0  0  0  0  0  0  0  0  0  0
    6.6710   -1.8959   21.5367 C   0  0  0  0  0  0  0  0  0  0  0  0
    7.1269   -2.8516   21.2602 H   0  0  0  0  0  0  0  0  0  0  0  0
    5.6420   -1.9396   21.1575 H   0  0  0  0  0  0  0  0  0  0  0  0
    5.4730    0.6687   20.1049 C   0  0  0  0  0  0  0  0  0  0  0  0
    5.0450    0.6643   21.1103 H   0  0  0  0  0  0  0  0  0  0  0  0
    4.8165    1.3207   19.0609 C   0  0  0  0  0  0  0  0  0  0  0  0
    3.8790    1.8367   19.2190 H   0  0  0  0  0  0  0  0  0  0  0  0
  1  2  1  0
  2  3  2  0
  3  4  1  0
  4  5  1  0
  4  6  2  0
  6  7  1  0
  7  8  1  6
  7  9  1  0
  9 10  1  0
  9 11  1  0
  9 12  1  0
 12 13  2  0
 13 14  1  0
 14 15  1  0
 14 16  1  0
 16 17  1  0
 17 18  2  0
 18 19  1  0
 18 20  1  0
 20 21  1  0
 20 22  2  0
 22 23  1  0
 22 24  1  0
 24 25  1  0
 25 26  2  0
 25 27  1  0
 27 28  1  0
 27 29  1  0
 24 30  2  0
 30 31  1  0
 16 32  2  0
 32 33  1  0
 33 34  1  0
 33 35  1  0
  6 36  1  0
 36 37  1  0
 36 38  2  0
 38 39  1  0
 38  2  1  0
 33  7  1  0
 32 12  1  0
 30 17  1  0
M  END
>  <cnnaffinity>  (1) 
-5.51619

>  <filename>  (1) 
NC(=O)c1cccc(-c2[nH]nc3c2C[C@@H](c2cccnc2)C3)c1

$$$$
