
     RDKit          3D

 34 37  0  0  0  0  0  0  0  0999 V2000
    4.9118    1.8077   16.9749 H   0  0  0  0  0  0  0  0  0  0  0  0
    5.3801    1.3035   17.8214 C   0  0  0  0  0  0  0  0  0  0  0  0
    6.5440    0.6847   17.5655 N   0  0  0  0  0  0  0  0  0  0  0  0
    7.1542    0.0750   18.5853 C   0  0  0  0  0  0  0  0  0  0  0  0
    8.1054   -0.3960   18.3402 H   0  0  0  0  0  0  0  0  0  0  0  0
    6.6606    0.0263   19.9089 C   0  0  0  0  0  0  0  0  0  0  0  0
    7.4101   -0.6771   20.9640 C   0  0  0  0  0  0  0  0  0  0  0  0
    8.3201   -1.7054   20.9014 C   0  0  0  0  0  0  0  0  0  0  0  0
    8.7175   -2.1236   20.0000 H   0  0  0  0  0  0  0  0  0  0  0  0
    8.7796   -2.1189   22.1212 N   0  0  0  0  0  0  0  0  0  0  0  0
    8.1713   -1.3056   22.9430 C   0  0  0  0  0  0  0  0  0  0  0  0
    8.2499   -0.9605   24.6310 S   0  0  0  0  0  0  0  0  0  0  0  0
    7.1317    0.3754   24.3182 C   0  0  0  0  0  0  0  0  0  0  0  0
    6.6708    1.2617   25.3970 C   0  0  0  0  0  0  0  0  0  0  0  0
    5.7672    2.3010   25.1004 C   0  0  0  0  0  0  0  0  0  0  0  0
    5.4248    2.4445   24.0775 H   0  0  0  0  0  0  0  0  0  0  0  0
    5.3253    3.1420   26.1204 C   0  0  0  0  0  0  0  0  0  0  0  0
    4.6414    3.9556   25.8965 H   0  0  0  0  0  0  0  0  0  0  0  0
    5.7753    2.9587   27.4305 C   0  0  0  0  0  0  0  0  0  0  0  0
    5.4596    3.6252   28.2279 H   0  0  0  0  0  0  0  0  0  0  0  0
    6.6737    1.9277   27.7450 C   0  0  0  0  0  0  0  0  0  0  0  0
    7.1608    1.8100   29.1663 C   0  0  0  0  0  0  0  0  0  0  0  0
    7.1622    2.7241   29.9685 O   0  0  0  0  0  0  0  0  0  0  0  0
    7.6349    0.6025   29.5400 N   0  0  0  0  0  0  0  0  0  0  0  0
    7.9033    0.5895   30.5077 H   0  0  0  0  0  0  0  0  0  0  0  0
    7.4616   -0.2274   29.0061 H   0  0  0  0  0  0  0  0  0  0  0  0
    7.1217    1.0856   26.7154 C   0  0  0  0  0  0  0  0  0  0  0  0
    7.8612    0.3087   26.9112 H   0  0  0  0  0  0  0  0  0  0  0  0
    6.7481    0.5255   23.0866 N   0  0  0  0  0  0  0  0  0  0  0  0
    7.3310   -0.4270   22.3283 N   0  0  0  0  0  0  0  0  0  0  0  0
    5.4314    0.6656   20.1469 C   0  0  0  0  0  0  0  0  0  0  0  0
    5.0158    0.6517   21.1523 H   0  0  0  0  0  0  0  0  0  0  0  0
    4.7901    1.3152   19.0892 C   0  0  0  0  0  0  0  0  0  0  0  0
    3.8583    1.8497   19.2337 H   0  0  0  0  0  0  0  0  0  0  0  0
  1  2  1  0
  2  3  2  0
  3  4  1  0
  4  5  1  0
  4  6  2  0
  6  7  1  0
  7  8  2  0
  8  9  1  0
  8 10  1  0
 10 11  2  0
 11 12  1  0
 12 13  1  0
 13 14  1  0
 14 15  2  0
 15 16  1  0
 15 17  1  0
 17 18  1  0
 17 19  2  0
 19 20  1  0
 19 21  1  0
 21 22  1  0
 22 23  2  0
 22 24  1  0
 24 25  1  0
 24 26  1  0
 21 27  2  0
 27 28  1  0
 13 29  2  0
 29 30  1  0
  6 31  1  0
 31 32  1  0
 31 33  2  0
 33 34  1  0
 33  2  1  0
 30  7  1  0
 30 11  1  0
 27 14  1  0
M  END
>  <cnnaffinity>  (1) 
-5.17658

>  <filename>  (1) 
NC(=O)c1cccc(-c2nn3c(-c4cccnc4)cnc3s2)c1

$$$$
