
     RDKit          3D

 32 34  0  0  0  0  0  0  0  0999 V2000
    4.9941    1.7843   16.9803 H   0  0  0  0  0  0  0  0  0  0  0  0
    5.4432    1.2568   17.8189 C   0  0  0  0  0  0  0  0  0  0  0  0
    6.6025    0.6217   17.5805 N   0  0  0  0  0  0  0  0  0  0  0  0
    7.1811   -0.0213   18.6066 C   0  0  0  0  0  0  0  0  0  0  0  0
    8.1301   -0.5064   18.3790 H   0  0  0  0  0  0  0  0  0  0  0  0
    6.6474   -0.0677   19.9186 C   0  0  0  0  0  0  0  0  0  0  0  0
    7.2350   -0.7471   21.0234 N   0  0  0  0  0  0  0  0  0  0  0  0
    7.9906   -1.3920   20.9028 H   0  0  0  0  0  0  0  0  0  0  0  0
    7.4386   -0.1915   22.2677 C   0  0  0  0  0  0  0  0  0  0  0  0
    7.0271    0.9509   22.6075 N   0  0  0  0  0  0  0  0  0  0  0  0
    7.0654    1.4345   23.9041 C   0  0  0  0  0  0  0  0  0  0  0  0
    6.6780    0.8328   25.0716 C   0  0  0  0  0  0  0  0  0  0  0  0
    6.3399   -0.1867   25.2230 H   0  0  0  0  0  0  0  0  0  0  0  0
    6.6485    1.7746   26.0832 N   0  0  0  0  0  0  0  0  0  0  0  0
    6.3227    1.6249   27.0236 H   0  0  0  0  0  0  0  0  0  0  0  0
    6.9884    3.0100   25.5729 C   0  0  0  0  0  0  0  0  0  0  0  0
    7.0499    4.2758   26.1878 C   0  0  0  0  0  0  0  0  0  0  0  0
    6.8051    4.3995   27.2396 H   0  0  0  0  0  0  0  0  0  0  0  0
    7.4208    5.3624   25.3995 C   0  0  0  0  0  0  0  0  0  0  0  0
    7.4746    6.3563   25.8391 H   0  0  0  0  0  0  0  0  0  0  0  0
    7.7267    5.2017   24.0243 C   0  0  0  0  0  0  0  0  0  0  0  0
    8.0080    6.0636   23.4278 H   0  0  0  0  0  0  0  0  0  0  0  0
    7.6547    3.9473   23.4192 C   0  0  0  0  0  0  0  0  0  0  0  0
    7.8846    3.8110   22.3607 H   0  0  0  0  0  0  0  0  0  0  0  0
    7.2765    2.8406   24.1968 C   0  0  0  0  0  0  0  0  0  0  0  0
    8.2357   -1.0725   22.9696 N   0  0  0  0  0  0  0  0  0  0  0  0
    7.8716   -1.9910   22.7818 H   0  0  0  0  0  0  0  0  0  0  0  0
    8.2286   -0.8317   23.9505 H   0  0  0  0  0  0  0  0  0  0  0  0
    5.4440    0.6142   20.1418 C   0  0  0  0  0  0  0  0  0  0  0  0
    5.0492    0.6460   21.1550 H   0  0  0  0  0  0  0  0  0  0  0  0
    4.8302    1.2704   19.0738 C   0  0  0  0  0  0  0  0  0  0  0  0
    3.9054    1.8159   19.2276 H   0  0  0  0  0  0  0  0  0  0  0  0
  1  2  1  0
  2  3  2  0
  3  4  1  0
  4  5  1  0
  4  6  2  0
  6  7  1  0
  7  8  1  0
  7  9  1  0
  9 10  2  3
 10 11  1  0
 11 12  2  0
 12 13  1  0
 12 14  1  0
 14 15  1  0
 14 16  1  0
 16 17  2  0
 17 18  1  0
 17 19  1  0
 19 20  1  0
 19 21  2  0
 21 22  1  0
 21 23  1  0
 23 24  1  0
 23 25  2  0
  9 26  1  0
 26 27  1  0
 26 28  1  0
  6 29  1  0
 29 30  1  0
 29 31  2  0
 31 32  1  0
 31  2  1  0
 25 11  1  0
 25 16  1  0
M  END
>  <cnnaffinity>  (1) 
-4.85855

>  <filename>  (1) 
NC(=Nc1c[nH]c2ccccc12)Nc1cccnc1

$$$$
