
     RDKit          3D

 32 34  0  0  0  0  0  0  0  0999 V2000
    4.9789    1.8409   16.9436 H   0  0  0  0  0  0  0  0  0  0  0  0
    5.4164    1.3164   17.7945 C   0  0  0  0  0  0  0  0  0  0  0  0
    6.5581    0.6508   17.5633 N   0  0  0  0  0  0  0  0  0  0  0  0
    7.1282    0.0219   18.5946 C   0  0  0  0  0  0  0  0  0  0  0  0
    8.0365   -0.5297   18.3660 H   0  0  0  0  0  0  0  0  0  0  0  0
    6.6353    0.0532   19.9102 C   0  0  0  0  0  0  0  0  0  0  0  0
    7.4222   -0.6383   20.9468 C   0  0  0  0  0  0  0  0  0  0  0  0
    8.0772   -1.7448   20.7299 N   0  0  0  0  0  0  0  0  0  0  0  0
    8.5835   -2.0750   21.9491 N   0  0  0  0  0  0  0  0  0  0  0  0
    9.0965   -2.9220   22.1448 H   0  0  0  0  0  0  0  0  0  0  0  0
    8.2756   -1.2148   22.9332 C   0  0  0  0  0  0  0  0  0  0  0  0
    8.7372   -1.3888   24.5213 S   0  0  0  0  0  0  0  0  0  0  0  0
    7.5431   -0.2427   22.2703 N   0  0  0  0  0  0  0  0  0  0  0  0
    7.0564    0.9622   22.8756 C   0  0  0  0  0  0  0  0  0  0  0  0
    6.3239    0.8430   24.0606 C   0  0  0  0  0  0  0  0  0  0  0  0
    6.1662   -0.1466   24.4907 H   0  0  0  0  0  0  0  0  0  0  0  0
    5.8643    2.0026   24.6804 C   0  0  0  0  0  0  0  0  0  0  0  0
    5.3103    1.9285   25.6110 H   0  0  0  0  0  0  0  0  0  0  0  0
    6.1217    3.2530   24.1159 C   0  0  0  0  0  0  0  0  0  0  0  0
    5.7474    4.1487   24.5987 H   0  0  0  0  0  0  0  0  0  0  0  0
    6.8531    3.3839   22.9219 C   0  0  0  0  0  0  0  0  0  0  0  0
    7.0620    4.7828   22.3849 C   0  0  0  0  0  0  0  0  0  0  0  0
    6.3801    5.7342   22.7234 O   0  0  0  0  0  0  0  0  0  0  0  0
    8.0658    4.9802   21.4862 N   0  0  0  0  0  0  0  0  0  0  0  0
    8.8450    4.3556   21.4020 H   0  0  0  0  0  0  0  0  0  0  0  0
    8.2249    5.9615   21.3260 H   0  0  0  0  0  0  0  0  0  0  0  0
    7.3179    2.2113   22.2961 C   0  0  0  0  0  0  0  0  0  0  0  0
    7.8148    2.2152   21.3277 H   0  0  0  0  0  0  0  0  0  0  0  0
    5.4137    0.7180   20.1288 C   0  0  0  0  0  0  0  0  0  0  0  0
    4.9721    0.7648   21.1275 H   0  0  0  0  0  0  0  0  0  0  0  0
    4.7959    1.3478   19.0478 C   0  0  0  0  0  0  0  0  0  0  0  0
    3.8506    1.8674   19.1546 H   0  0  0  0  0  0  0  0  0  0  0  0
  1  2  1  0
  2  3  2  0
  3  4  1  0
  4  5  1  0
  4  6  2  0
  6  7  1  0
  7  8  2  0
  8  9  1  0
  9 10  1  0
  9 11  1  0
 11 12  2  0
 11 13  1  0
 13 14  1  0
 14 15  2  0
 15 16  1  0
 15 17  1  0
 17 18  1  0
 17 19  2  0
 19 20  1  0
 19 21  1  0
 21 22  1  0
 22 23  2  0
 22 24  1  0
 24 25  1  0
 24 26  1  0
 21 27  2  0
 27 28  1  0
  6 29  1  0
 29 30  1  0
 29 31  2  0
 31 32  1  0
 31  2  1  0
 13  7  1  0
 27 14  1  0
M  END
>  <cnnaffinity>  (1) 
-5.02701

>  <filename>  (1) 
NC(=O)c1cccc(-n2c(-c3cccnc3)n[nH]c2=S)c1

$$$$
