
     RDKit          3D

 39 42  0  0  0  0  0  0  0  0999 V2000
    4.9631    1.8353   16.9632 H   0  0  0  0  0  0  0  0  0  0  0  0
    5.4060    1.2943   17.7976 C   0  0  0  0  0  0  0  0  0  0  0  0
    6.5591    0.6534   17.5481 N   0  0  0  0  0  0  0  0  0  0  0  0
    7.1437    0.0083   18.5637 C   0  0  0  0  0  0  0  0  0  0  0  0
    8.0878   -0.4835   18.3289 H   0  0  0  0  0  0  0  0  0  0  0  0
    6.6219   -0.0264   19.8705 C   0  0  0  0  0  0  0  0  0  0  0  0
    7.3612   -0.6826   20.9621 C   0  0  0  0  0  0  0  0  0  0  0  0
    8.0758   -1.7865   20.7525 N   0  0  0  0  0  0  0  0  0  0  0  0
    8.5563   -2.0852   21.9567 N   0  0  0  0  0  0  0  0  0  0  0  0
    8.2433   -1.2405   22.9313 C   0  0  0  0  0  0  0  0  0  0  0  0
    7.4587   -0.2729   22.3311 C   0  0  0  0  0  0  0  0  0  0  0  0
    7.0831    0.9725   22.9747 C   0  0  0  0  0  0  0  0  0  0  0  0
    7.2661    2.2094   22.3399 C   0  0  0  0  0  0  0  0  0  0  0  0
    7.6432    2.2184   21.3213 H   0  0  0  0  0  0  0  0  0  0  0  0
    6.9582    3.3887   23.0138 C   0  0  0  0  0  0  0  0  0  0  0  0
    7.0959    4.3415   22.5114 H   0  0  0  0  0  0  0  0  0  0  0  0
    6.4670    3.3385   24.3192 C   0  0  0  0  0  0  0  0  0  0  0  0
    6.2011    4.2514   24.8468 H   0  0  0  0  0  0  0  0  0  0  0  0
    6.2948    2.1030   24.9721 C   0  0  0  0  0  0  0  0  0  0  0  0
    5.7472    2.0861   26.3745 C   0  0  0  0  0  0  0  0  0  0  0  0
    5.1451    3.0170   26.8745 O   0  0  0  0  0  0  0  0  0  0  0  0
    5.9226    0.9341   27.1036 N   0  0  0  0  0  0  0  0  0  0  0  0
    6.7620    0.4041   26.9390 H   0  0  0  0  0  0  0  0  0  0  0  0
    5.7088    1.1396   28.0687 H   0  0  0  0  0  0  0  0  0  0  0  0
    6.6107    0.9243   24.2851 C   0  0  0  0  0  0  0  0  0  0  0  0
    6.4706   -0.0585   24.7394 H   0  0  0  0  0  0  0  0  0  0  0  0
    9.0662   -1.5087   24.1618 C   0  0  0  0  0  0  0  0  0  0  0  0
    9.6800   -0.6369   24.4105 H   0  0  0  0  0  0  0  0  0  0  0  0
    8.4403   -1.7011   25.0358 H   0  0  0  0  0  0  0  0  0  0  0  0
    9.9181   -2.7400   23.7424 C   0  0  0  0  0  0  0  0  0  0  0  0
    9.7279   -3.6022   24.3785 H   0  0  0  0  0  0  0  0  0  0  0  0
   10.9779   -2.5132   23.7968 H   0  0  0  0  0  0  0  0  0  0  0  0
    9.5480   -3.0703   22.2735 C   0  0  0  0  0  0  0  0  0  0  0  0
    9.1168   -4.0631   22.1373 H   0  0  0  0  0  0  0  0  0  0  0  0
   10.3882   -2.9307   21.5936 H   0  0  0  0  0  0  0  0  0  0  0  0
    5.3977    0.6239   20.1011 C   0  0  0  0  0  0  0  0  0  0  0  0
    4.9690    0.6413   21.1030 H   0  0  0  0  0  0  0  0  0  0  0  0
    4.7827    1.2959   19.0475 C   0  0  0  0  0  0  0  0  0  0  0  0
    3.8584    1.8442   19.1958 H   0  0  0  0  0  0  0  0  0  0  0  0
  1  2  1  0
  2  3  2  0
  3  4  1  0
  4  5  1  0
  4  6  2  0
  6  7  1  0
  7  8  2  0
  8  9  1  0
  9 10  1  0
 10 11  2  0
 11 12  1  0
 12 13  2  0
 13 14  1  0
 13 15  1  0
 15 16  1  0
 15 17  2  0
 17 18  1  0
 17 19  1  0
 19 20  1  0
 20 21  2  0
 20 22  1  0
 22 23  1  0
 22 24  1  0
 19 25  2  0
 25 26  1  0
 10 27  1  0
 27 28  1  0
 27 29  1  0
 27 30  1  0
 30 31  1  0
 30 32  1  0
 30 33  1  0
 33 34  1  0
 33 35  1  0
  6 36  1  0
 36 37  1  0
 36 38  2  0
 38 39  1  0
 38  2  1  0
 11  7  1  0
 25 12  1  0
 33  9  1  0
M  END
>  <cnnaffinity>  (1) 
-5.49782

>  <filename>  (1) 
NC(=O)c1cccc(-c2c(-c3cccnc3)nn3c2CCC3)c1

$$$$
