
     RDKit          3D

 35 38  0  0  0  0  0  0  0  0999 V2000
    5.0436    1.7808   16.9142 H   0  0  0  0  0  0  0  0  0  0  0  0
    5.4681    1.2615   17.7735 C   0  0  0  0  0  0  0  0  0  0  0  0
    6.5986    0.5730   17.5527 N   0  0  0  0  0  0  0  0  0  0  0  0
    7.1533   -0.0582   18.5911 C   0  0  0  0  0  0  0  0  0  0  0  0
    8.0449   -0.6422   18.3722 H   0  0  0  0  0  0  0  0  0  0  0  0
    6.6518    0.0068   19.9016 C   0  0  0  0  0  0  0  0  0  0  0  0
    7.3727   -0.6417   20.9932 C   0  0  0  0  0  0  0  0  0  0  0  0
    7.9558   -1.8748   20.8281 N   0  0  0  0  0  0  0  0  0  0  0  0
    8.3814   -2.1777   22.0250 C   0  0  0  0  0  0  0  0  0  0  0  0
    9.1786   -3.5422   22.7690 S   0  0  0  0  0  0  0  0  0  0  0  0
    9.3149   -2.6506   24.2787 C   0  0  0  0  0  0  0  0  0  0  0  0
    9.8464   -3.0738   25.1251 H   0  0  0  0  0  0  0  0  0  0  0  0
    8.7378   -1.4406   24.2044 C   0  0  0  0  0  0  0  0  0  0  0  0
    8.6829   -0.6669   24.9657 H   0  0  0  0  0  0  0  0  0  0  0  0
    8.1770   -1.1969   22.9556 N   0  0  0  0  0  0  0  0  0  0  0  0
    7.5134   -0.1734   22.3010 C   0  0  0  0  0  0  0  0  0  0  0  0
    7.0671    1.0425   22.9899 C   0  0  0  0  0  0  0  0  0  0  0  0
    6.4349    0.9653   24.2499 C   0  0  0  0  0  0  0  0  0  0  0  0
    6.2586   -0.0045   24.7135 H   0  0  0  0  0  0  0  0  0  0  0  0
    6.0161    2.1302   24.8911 C   0  0  0  0  0  0  0  0  0  0  0  0
    5.5288    2.0771   25.8612 H   0  0  0  0  0  0  0  0  0  0  0  0
    6.2224    3.3740   24.2906 C   0  0  0  0  0  0  0  0  0  0  0  0
    5.8807    4.2824   24.7768 H   0  0  0  0  0  0  0  0  0  0  0  0
    6.8501    3.4814   23.0384 C   0  0  0  0  0  0  0  0  0  0  0  0
    7.0350    4.8581   22.4423 C   0  0  0  0  0  0  0  0  0  0  0  0
    6.2739    5.7886   22.6286 O   0  0  0  0  0  0  0  0  0  0  0  0
    8.1662    5.0605   21.7126 N   0  0  0  0  0  0  0  0  0  0  0  0
    8.6473    4.2742   21.3223 H   0  0  0  0  0  0  0  0  0  0  0  0
    8.1241    5.9168   21.1855 H   0  0  0  0  0  0  0  0  0  0  0  0
    7.2433    2.3001   22.3869 C   0  0  0  0  0  0  0  0  0  0  0  0
    7.6347    2.3174   21.3706 H   0  0  0  0  0  0  0  0  0  0  0  0
    5.4441    0.6964   20.1107 C   0  0  0  0  0  0  0  0  0  0  0  0
    4.9912    0.7478   21.1047 H   0  0  0  0  0  0  0  0  0  0  0  0
    4.8409    1.3193   19.0224 C   0  0  0  0  0  0  0  0  0  0  0  0
    3.9005    1.8473   19.1236 H   0  0  0  0  0  0  0  0  0  0  0  0
  1  2  1  0
  2  3  2  0
  3  4  1  0
  4  5  1  0
  4  6  2  0
  6  7  1  0
  7  8  1  0
  8  9  2  0
  9 10  1  0
 10 11  1  0
 11 12  1  0
 11 13  2  0
 13 14  1  0
 13 15  1  0
 15 16  1  0
 16 17  1  0
 17 18  2  0
 18 19  1  0
 18 20  1  0
 20 21  1  0
 20 22  2  0
 22 23  1  0
 22 24  1  0
 24 25  1  0
 25 26  2  0
 25 27  1  0
 27 28  1  0
 27 29  1  0
 24 30  2  0
 30 31  1  0
  6 32  1  0
 32 33  1  0
 32 34  2  0
 34 35  1  0
 34  2  1  0
 16  7  2  0
 30 17  1  0
 15  9  1  0
M  END
>  <cnnaffinity>  (1) 
-5.44838

>  <filename>  (1) 
NC(=O)c1cccc(-c2c(-c3cccnc3)nc3sccn23)c1

$$$$
