
     RDKit          3D

 39 42  0  0  0  0  0  0  0  0999 V2000
    5.0025    1.8448   16.9103 H   0  0  0  0  0  0  0  0  0  0  0  0
    5.3891    1.3098   17.7787 C   0  0  0  0  0  0  0  0  0  0  0  0
    6.5400    0.6442   17.5989 N   0  0  0  0  0  0  0  0  0  0  0  0
    7.0581    0.0225   18.6680 C   0  0  0  0  0  0  0  0  0  0  0  0
    7.9945   -0.5037   18.4898 H   0  0  0  0  0  0  0  0  0  0  0  0
    6.4698   -0.0057   19.9515 C   0  0  0  0  0  0  0  0  0  0  0  0
    7.2228   -0.6166   21.0713 C   0  0  0  0  0  0  0  0  0  0  0  0
    8.5766   -0.5592   21.3060 C   0  0  0  0  0  0  0  0  0  0  0  0
    8.7921   -1.1632   22.5354 C   0  0  0  0  0  0  0  0  0  0  0  0
    7.6815   -1.6189   23.0775 N   0  0  0  0  0  0  0  0  0  0  0  0
    6.7288   -1.2706   22.1710 N   0  0  0  0  0  0  0  0  0  0  0  0
    5.7736   -1.5322   22.3708 H   0  0  0  0  0  0  0  0  0  0  0  0
   10.2292   -1.1430   22.9559 C   0  0  0  0  0  0  0  0  0  0  0  0
   10.6377   -2.1564   23.0271 H   0  0  0  0  0  0  0  0  0  0  0  0
   10.3701   -0.6726   23.9349 H   0  0  0  0  0  0  0  0  0  0  0  0
   10.9195   -0.3125   21.8153 C   0  0  2  0  0  0  0  0  0  0  0  0
   11.7297   -0.9168   21.3999 H   0  0  0  0  0  0  0  0  0  0  0  0
   11.4980    0.9891   22.3251 C   0  0  0  0  0  0  0  0  0  0  0  0
   10.6424    1.9779   22.8403 C   0  0  0  0  0  0  0  0  0  0  0  0
    9.5680    1.7951   22.8680 H   0  0  0  0  0  0  0  0  0  0  0  0
   11.1468    3.1863   23.3107 C   0  0  0  0  0  0  0  0  0  0  0  0
   10.4607    3.9244   23.7158 H   0  0  0  0  0  0  0  0  0  0  0  0
   12.5278    3.4527   23.2599 C   0  0  0  0  0  0  0  0  0  0  0  0
   13.0534    4.7751   23.7381 C   0  0  0  0  0  0  0  0  0  0  0  0
   12.4905    5.5061   24.5281 O   0  0  0  0  0  0  0  0  0  0  0  0
   14.2800    5.1417   23.2330 N   0  0  0  0  0  0  0  0  0  0  0  0
   14.4244    4.8906   22.2711 H   0  0  0  0  0  0  0  0  0  0  0  0
   14.4358    6.1095   23.4726 H   0  0  0  0  0  0  0  0  0  0  0  0
   13.3864    2.4495   22.7705 C   0  0  0  0  0  0  0  0  0  0  0  0
   14.4600    2.6131   22.7267 H   0  0  0  0  0  0  0  0  0  0  0  0
   12.8783    1.2364   22.3175 C   0  0  0  0  0  0  0  0  0  0  0  0
   13.5541    0.4751   21.9333 H   0  0  0  0  0  0  0  0  0  0  0  0
    9.8445   -0.0815   20.6976 C   0  0  0  0  0  0  0  0  0  0  0  0
   10.0774   -0.6768   19.8130 H   0  0  0  0  0  0  0  0  0  0  0  0
    9.7854    0.9665   20.3790 H   0  0  0  0  0  0  0  0  0  0  0  0
    5.2457    0.6698   20.1059 C   0  0  0  0  0  0  0  0  0  0  0  0
    4.7395    0.7062   21.0740 H   0  0  0  0  0  0  0  0  0  0  0  0
    4.7099    1.3397   19.0027 C   0  0  0  0  0  0  0  0  0  0  0  0
    3.7943    1.9134   19.0791 H   0  0  0  0  0  0  0  0  0  0  0  0
  1  2  1  0
  2  3  2  0
  3  4  1  0
  4  5  1  0
  4  6  2  0
  6  7  1  0
  7  8  2  0
  8  9  1  0
  9 10  2  0
 10 11  1  0
 11 12  1  0
  9 13  1  0
 13 14  1  0
 13 15  1  0
 13 16  1  0
 16 17  1  6
 16 18  1  0
 18 19  2  0
 19 20  1  0
 19 21  1  0
 21 22  1  0
 21 23  2  0
 23 24  1  0
 24 25  2  0
 24 26  1  0
 26 27  1  0
 26 28  1  0
 23 29  1  0
 29 30  1  0
 29 31  2  0
 31 32  1  0
 16 33  1  0
 33 34  1  0
 33 35  1  0
  6 36  1  0
 36 37  1  0
 36 38  2  0
 38 39  1  0
 38  2  1  0
 11  7  1  0
 31 18  1  0
 33  8  1  0
M  END
>  <cnnaffinity>  (1) 
-6.15886

>  <filename>  (1) 
NC(=O)c1ccc([C@H]2Cc3n[nH]c(-c4cccnc4)c3C2)cc1

$$$$
