
     RDKit          3D

 34 36  0  0  0  0  0  0  0  0999 V2000
    4.9589    1.8080   16.9872 H   0  0  0  0  0  0  0  0  0  0  0  0
    5.4226    1.2884   17.8264 C   0  0  0  0  0  0  0  0  0  0  0  0
    6.5825    0.6600   17.5721 N   0  0  0  0  0  0  0  0  0  0  0  0
    7.1884    0.0387   18.5929 C   0  0  0  0  0  0  0  0  0  0  0  0
    8.1304   -0.4466   18.3453 H   0  0  0  0  0  0  0  0  0  0  0  0
    6.6890   -0.0031   19.9146 C   0  0  0  0  0  0  0  0  0  0  0  0
    7.4087   -0.6731   21.0273 C   0  0  0  0  0  0  0  0  0  0  0  0
    8.6835   -1.8289   20.7876 S   0  0  0  0  0  0  0  0  0  0  0  0
    8.8282   -2.1174   22.4724 C   0  0  0  0  0  0  0  0  0  0  0  0
    9.5271   -2.8381   22.8570 H   0  0  0  0  0  0  0  0  0  0  0  0
    8.0145   -1.3108   23.2056 C   0  0  0  0  0  0  0  0  0  0  0  0
    8.0296   -1.3221   24.5994 N   0  0  0  0  0  0  0  0  0  0  0  0
    7.9389   -2.2358   25.0437 H   0  0  0  0  0  0  0  0  0  0  0  0
    7.4425   -0.3165   25.3558 C   0  0  0  0  0  0  0  0  0  0  0  0
    7.8442    1.0074   25.1711 C   0  0  0  0  0  0  0  0  0  0  0  0
    8.6000    1.1906   24.4128 H   0  0  0  0  0  0  0  0  0  0  0  0
    7.2682    2.0318   25.9207 C   0  0  0  0  0  0  0  0  0  0  0  0
    7.6058    3.0535   25.7846 H   0  0  0  0  0  0  0  0  0  0  0  0
    6.2751    1.7337   26.8613 C   0  0  0  0  0  0  0  0  0  0  0  0
    5.8215    2.5274   27.4469 H   0  0  0  0  0  0  0  0  0  0  0  0
    5.8620    0.4157   27.0410 C   0  0  0  0  0  0  0  0  0  0  0  0
    5.0887    0.1931   27.7760 H   0  0  0  0  0  0  0  0  0  0  0  0
    6.4441   -0.6278   26.2916 C   0  0  0  0  0  0  0  0  0  0  0  0
    6.0579   -2.0555   26.4568 C   0  0  0  0  0  0  0  0  0  0  0  0
    6.8003   -3.0127   26.2772 O   0  0  0  0  0  0  0  0  0  0  0  0
    4.7785   -2.2738   26.8611 N   0  0  0  0  0  0  0  0  0  0  0  0
    4.5300   -3.2440   26.7759 H   0  0  0  0  0  0  0  0  0  0  0  0
    4.0914   -1.5965   26.5898 H   0  0  0  0  0  0  0  0  0  0  0  0
    7.1981   -0.4956   22.3671 C   0  0  0  0  0  0  0  0  0  0  0  0
    6.5152    0.2233   22.8018 H   0  0  0  0  0  0  0  0  0  0  0  0
    5.4573    0.6362   20.1428 C   0  0  0  0  0  0  0  0  0  0  0  0
    5.0073    0.6185   21.1356 H   0  0  0  0  0  0  0  0  0  0  0  0
    4.8197    1.2915   19.0869 C   0  0  0  0  0  0  0  0  0  0  0  0
    3.8867    1.8220   19.2346 H   0  0  0  0  0  0  0  0  0  0  0  0
  1  2  1  0
  2  3  2  0
  3  4  1  0
  4  5  1  0
  4  6  2  0
  6  7  1  0
  7  8  1  0
  8  9  1  0
  9 10  1  0
  9 11  2  0
 11 12  1  0
 12 13  1  0
 12 14  1  0
 14 15  2  0
 15 16  1  0
 15 17  1  0
 17 18  1  0
 17 19  2  0
 19 20  1  0
 19 21  1  0
 21 22  1  0
 21 23  2  0
 23 24  1  0
 24 25  2  0
 24 26  1  0
 26 27  1  0
 26 28  1  0
 11 29  1  0
 29 30  1  0
  6 31  1  0
 31 32  1  0
 31 33  2  0
 33 34  1  0
 33  2  1  0
 29  7  2  0
 23 14  1  0
M  END
>  <cnnaffinity>  (1) 
-5.23499

>  <filename>  (1) 
NC(=O)c1ccccc1Nc1csc(-c2cccnc2)c1

$$$$
