
     RDKit          3D

 24 25  0  0  0  0  0  0  0  0999 V2000
    4.9698    1.8098   17.0132 H   0  0  0  0  0  0  0  0  0  0  0  0
    5.4719    1.2981   17.8321 C   0  0  0  0  0  0  0  0  0  0  0  0
    6.6377    0.7021   17.5356 N   0  0  0  0  0  0  0  0  0  0  0  0
    7.2776    0.0621   18.5242 C   0  0  0  0  0  0  0  0  0  0  0  0
    8.2142   -0.4355   18.2733 H   0  0  0  0  0  0  0  0  0  0  0  0
    6.7917   -0.0102   19.8458 C   0  0  0  0  0  0  0  0  0  0  0  0
    7.4944   -0.7328   20.8796 N   0  0  0  0  0  0  0  0  0  0  0  0
    8.7460   -0.4921   21.4200 C   0  0  0  0  0  0  0  0  0  0  0  0
    9.5642    0.4570   20.8718 N   0  0  0  0  0  0  0  0  0  0  0  0
    9.1180    1.3325   20.6680 H   0  0  0  0  0  0  0  0  0  0  0  0
   10.8648    0.5963   21.3341 C   0  0  0  0  0  0  0  0  0  0  0  0
   11.5285   -0.2182   21.9141 O   0  0  0  0  0  0  0  0  0  0  0  0
   11.3126    1.8472   20.9879 N   0  0  0  0  0  0  0  0  0  0  0  0
   12.3120    1.8869   21.1265 H   0  0  0  0  0  0  0  0  0  0  0  0
   11.0207    2.0970   20.0596 H   0  0  0  0  0  0  0  0  0  0  0  0
    9.0269   -1.2557   22.4261 N   0  0  0  0  0  0  0  0  0  0  0  0
    7.9085   -2.0397   22.5084 N   0  0  0  0  0  0  0  0  0  0  0  0
    7.8549   -2.8111   23.1461 H   0  0  0  0  0  0  0  0  0  0  0  0
    6.9685   -1.8101   21.5800 C   0  0  0  0  0  0  0  0  0  0  0  0
    5.5742   -2.6728   21.3232 S   0  0  0  0  0  0  0  0  0  0  0  0
    5.5690    0.6024   20.1408 C   0  0  0  0  0  0  0  0  0  0  0  0
    5.1598    0.5469   21.1523 H   0  0  0  0  0  0  0  0  0  0  0  0
    4.9020    1.2756   19.1110 C   0  0  0  0  0  0  0  0  0  0  0  0
    3.9567    1.7789   19.2885 H   0  0  0  0  0  0  0  0  0  0  0  0
  1  2  1  0
  2  3  2  0
  3  4  1  0
  4  5  1  0
  4  6  2  0
  6  7  1  0
  7  8  1  0
  8  9  1  0
  9 10  1  0
  9 11  1  0
 11 12  2  0
 11 13  1  0
 13 14  1  0
 13 15  1  0
  8 16  2  0
 16 17  1  0
 17 18  1  0
 17 19  1  0
 19 20  2  0
  6 21  1  0
 21 22  1  0
 21 23  2  0
 23 24  1  0
 23  2  1  0
 19  7  1  0
M  END
>  <cnnaffinity>  (1) 
-4.61692

>  <filename>  (1) 
NC(=O)Nc1n[nH]c(=S)n1-c1cccnc1

$$$$
