
     RDKit          3D

 25 26  0  0  0  0  0  0  0  0999 V2000
    4.9782    1.7844   16.9748 H   0  0  0  0  0  0  0  0  0  0  0  0
    5.4179    1.2929   17.8429 C   0  0  0  0  0  0  0  0  0  0  0  0
    6.5795    0.6478   17.6446 N   0  0  0  0  0  0  0  0  0  0  0  0
    7.1379    0.0329   18.6930 C   0  0  0  0  0  0  0  0  0  0  0  0
    8.0794   -0.4859   18.5251 H   0  0  0  0  0  0  0  0  0  0  0  0
    6.5726    0.0354   19.9825 C   0  0  0  0  0  0  0  0  0  0  0  0
    7.2133   -0.6363   21.0805 N   0  0  0  0  0  0  0  0  0  0  0  0
    7.9757   -0.0609   22.0728 C   0  0  0  0  0  0  0  0  0  0  0  0
    7.9588    1.3633   22.4439 C   0  0  0  0  0  0  0  0  0  0  0  0
    8.9158    1.6441   22.8780 H   0  0  0  0  0  0  0  0  0  0  0  0
    7.7008    2.0173   21.6153 H   0  0  0  0  0  0  0  0  0  0  0  0
    6.8668    1.4424   23.4813 C   0  0  0  0  0  0  0  0  0  0  0  0
    5.7150    1.7265   23.2202 O   0  0  0  0  0  0  0  0  0  0  0  0
    7.2366    1.1448   24.7489 N   0  0  0  0  0  0  0  0  0  0  0  0
    6.4166    1.1023   25.3341 H   0  0  0  0  0  0  0  0  0  0  0  0
    7.9334    0.4219   24.8449 H   0  0  0  0  0  0  0  0  0  0  0  0
    8.5525   -0.9448   22.8301 N   0  0  0  0  0  0  0  0  0  0  0  0
    8.1277   -2.1291   22.2977 N   0  0  0  0  0  0  0  0  0  0  0  0
    8.3764   -3.0231   22.6871 H   0  0  0  0  0  0  0  0  0  0  0  0
    7.2486   -2.0120   21.2857 C   0  0  0  0  0  0  0  0  0  0  0  0
    6.4071   -3.2376   20.5473 S   0  0  0  0  0  0  0  0  0  0  0  0
    5.3805    0.7246   20.1894 C   0  0  0  0  0  0  0  0  0  0  0  0
    4.9932    0.7935   21.2087 H   0  0  0  0  0  0  0  0  0  0  0  0
    4.7826    1.3502   19.0881 C   0  0  0  0  0  0  0  0  0  0  0  0
    3.8515    1.8920   19.1959 H   0  0  0  0  0  0  0  0  0  0  0  0
  1  2  1  0
  2  3  2  0
  3  4  1  0
  4  5  1  0
  4  6  2  0
  6  7  1  0
  7  8  1  0
  8  9  1  0
  9 10  1  0
  9 11  1  0
  9 12  1  0
 12 13  2  0
 12 14  1  0
 14 15  1  0
 14 16  1  0
  8 17  2  0
 17 18  1  0
 18 19  1  0
 18 20  1  0
 20 21  2  0
  6 22  1  0
 22 23  1  0
 22 24  2  0
 24 25  1  0
 24  2  1  0
 20  7  1  0
M  END
>  <cnnaffinity>  (1) 
-4.5836

>  <filename>  (1) 
NC(=O)Cc1n[nH]c(=S)n1-c1cccnc1

$$$$
