
     RDKit          3D

 33 36  0  0  0  0  0  0  0  0999 V2000
    4.9232    1.7818   16.9966 H   0  0  0  0  0  0  0  0  0  0  0  0
    5.4027    1.2907   17.8386 C   0  0  0  0  0  0  0  0  0  0  0  0
    6.5670    0.6752   17.5749 N   0  0  0  0  0  0  0  0  0  0  0  0
    7.1702    0.0535   18.5887 C   0  0  0  0  0  0  0  0  0  0  0  0
    8.1192   -0.4330   18.3681 H   0  0  0  0  0  0  0  0  0  0  0  0
    6.6463    0.0118   19.8946 C   0  0  0  0  0  0  0  0  0  0  0  0
    7.4054   -0.6950   20.9216 C   0  0  0  0  0  0  0  0  0  0  0  0
    8.3278   -1.6005   20.7042 N   0  0  0  0  0  0  0  0  0  0  0  0
    8.8323   -2.0375   21.9083 N   0  0  0  0  0  0  0  0  0  0  0  0
    8.2089   -1.3560   22.8249 C   0  0  0  0  0  0  0  0  0  0  0  0
    8.2608   -1.0979   24.5429 S   0  0  0  0  0  0  0  0  0  0  0  0
    7.0365    0.1713   24.3272 C   0  0  0  0  0  0  0  0  0  0  0  0
    6.5401    0.9683   25.4714 C   0  0  0  0  0  0  0  0  0  0  0  0
    5.5811    1.9780   25.2460 C   0  0  0  0  0  0  0  0  0  0  0  0
    5.2236    2.1586   24.2334 H   0  0  0  0  0  0  0  0  0  0  0  0
    5.1050    2.7295   26.3190 C   0  0  0  0  0  0  0  0  0  0  0  0
    4.3585    3.4971   26.1389 H   0  0  0  0  0  0  0  0  0  0  0  0
    5.5787    2.5010   27.6120 C   0  0  0  0  0  0  0  0  0  0  0  0
    5.1817    3.0783   28.4417 H   0  0  0  0  0  0  0  0  0  0  0  0
    6.5538    1.5153   27.8539 C   0  0  0  0  0  0  0  0  0  0  0  0
    7.0152    1.2873   29.2798 C   0  0  0  0  0  0  0  0  0  0  0  0
    6.3633    1.5939   30.2621 O   0  0  0  0  0  0  0  0  0  0  0  0
    8.2199    0.6924   29.4666 N   0  0  0  0  0  0  0  0  0  0  0  0
    8.4442    0.5530   30.4395 H   0  0  0  0  0  0  0  0  0  0  0  0
    8.9170    0.5807   28.7549 H   0  0  0  0  0  0  0  0  0  0  0  0
    7.0145    0.7398   26.7780 C   0  0  0  0  0  0  0  0  0  0  0  0
    7.7273   -0.0690   26.9607 H   0  0  0  0  0  0  0  0  0  0  0  0
    6.6292    0.3479   23.1097 N   0  0  0  0  0  0  0  0  0  0  0  0
    7.2826   -0.5132   22.2853 N   0  0  0  0  0  0  0  0  0  0  0  0
    5.4283    0.6531   20.1611 C   0  0  0  0  0  0  0  0  0  0  0  0
    5.0090    0.6397   21.1700 H   0  0  0  0  0  0  0  0  0  0  0  0
    4.8046    1.3069   19.1044 C   0  0  0  0  0  0  0  0  0  0  0  0
    3.8751    1.8423   19.2544 H   0  0  0  0  0  0  0  0  0  0  0  0
  1  2  1  0
  2  3  2  0
  3  4  1  0
  4  5  1  0
  4  6  2  0
  6  7  1  0
  7  8  2  0
  8  9  1  0
  9 10  2  0
 10 11  1  0
 11 12  1  0
 12 13  1  0
 13 14  2  0
 14 15  1  0
 14 16  1  0
 16 17  1  0
 16 18  2  0
 18 19  1  0
 18 20  1  0
 20 21  1  0
 21 22  2  0
 21 23  1  0
 23 24  1  0
 23 25  1  0
 20 26  2  0
 26 27  1  0
 12 28  2  0
 28 29  1  0
  6 30  1  0
 30 31  1  0
 30 32  2  0
 32 33  1  0
 32  2  1  0
 29  7  1  0
 29 10  1  0
 26 13  1  0
M  END
>  <cnnaffinity>  (1) 
-5.19682

>  <filename>  (1) 
NC(=O)c1cccc(-c2nn3c(-c4cccnc4)nnc3s2)c1

$$$$
