
     RDKit          3D

 36 38  0  0  0  0  0  0  0  0999 V2000
    4.9647    1.8288   16.9744 H   0  0  0  0  0  0  0  0  0  0  0  0
    5.4192    1.3023   17.8103 C   0  0  0  0  0  0  0  0  0  0  0  0
    6.5664    0.6552   17.5519 N   0  0  0  0  0  0  0  0  0  0  0  0
    7.1501    0.0183   18.5734 C   0  0  0  0  0  0  0  0  0  0  0  0
    8.0770   -0.5013   18.3351 H   0  0  0  0  0  0  0  0  0  0  0  0
    6.6426   -0.0260   19.8884 C   0  0  0  0  0  0  0  0  0  0  0  0
    7.3672   -0.7456   20.9854 C   0  0  0  0  0  0  0  0  0  0  0  0
    8.7584   -0.5924   21.1766 C   0  0  0  0  0  0  0  0  0  0  0  0
    9.3396    0.0639   20.5299 H   0  0  0  0  0  0  0  0  0  0  0  0
    9.4502   -1.1993   22.1513 N   0  0  0  0  0  0  0  0  0  0  0  0
    8.7865   -2.0120   22.9842 C   0  0  0  0  0  0  0  0  0  0  0  0
    9.3641   -2.4929   23.7772 H   0  0  0  0  0  0  0  0  0  0  0  0
    7.3914   -2.2564   22.8895 C   0  0  0  0  0  0  0  0  0  0  0  0
    6.6467   -3.0578   23.7893 N   0  0  0  0  0  0  0  0  0  0  0  0
    6.0304   -2.5090   24.3953 H   0  0  0  0  0  0  0  0  0  0  0  0
    7.1778   -4.1312   24.4914 C   0  0  0  0  0  0  0  0  0  0  0  0
    8.0622   -5.0121   23.8528 C   0  0  0  0  0  0  0  0  0  0  0  0
    8.2956   -4.8291   22.8092 H   0  0  0  0  0  0  0  0  0  0  0  0
    8.6658   -6.0530   24.5563 C   0  0  0  0  0  0  0  0  0  0  0  0
    9.3813   -6.7040   24.0605 H   0  0  0  0  0  0  0  0  0  0  0  0
    8.3513   -6.2508   25.9059 C   0  0  0  0  0  0  0  0  0  0  0  0
    8.8298   -7.0494   26.4619 H   0  0  0  0  0  0  0  0  0  0  0  0
    7.4226   -5.4235   26.5331 C   0  0  0  0  0  0  0  0  0  0  0  0
    7.1809   -5.5958   27.5826 H   0  0  0  0  0  0  0  0  0  0  0  0
    6.8200   -4.3500   25.8403 C   0  0  0  0  0  0  0  0  0  0  0  0
    5.8971   -3.3990   26.5147 C   0  0  0  0  0  0  0  0  0  0  0  0
    5.6484   -2.2579   26.1453 O   0  0  0  0  0  0  0  0  0  0  0  0
    5.2832   -3.8446   27.6528 N   0  0  0  0  0  0  0  0  0  0  0  0
    4.5516   -3.1785   27.8756 H   0  0  0  0  0  0  0  0  0  0  0  0
    4.9883   -4.8029   27.5896 H   0  0  0  0  0  0  0  0  0  0  0  0
    6.6899   -1.5922   21.8796 C   0  0  0  0  0  0  0  0  0  0  0  0
    5.6204   -1.7790   21.7896 H   0  0  0  0  0  0  0  0  0  0  0  0
    5.4308    0.6457   20.1243 C   0  0  0  0  0  0  0  0  0  0  0  0
    4.9974    0.6537   21.1273 H   0  0  0  0  0  0  0  0  0  0  0  0
    4.8127    1.3191   19.0698 C   0  0  0  0  0  0  0  0  0  0  0  0
    3.8848    1.8610   19.2127 H   0  0  0  0  0  0  0  0  0  0  0  0
  1  2  1  0
  2  3  2  0
  3  4  1  0
  4  5  1  0
  4  6  2  0
  6  7  1  0
  7  8  2  0
  8  9  1  0
  8 10  1  0
 10 11  2  0
 11 12  1  0
 11 13  1  0
 13 14  1  0
 14 15  1  0
 14 16  1  0
 16 17  2  0
 17 18  1  0
 17 19  1  0
 19 20  1  0
 19 21  2  0
 21 22  1  0
 21 23  1  0
 23 24  1  0
 23 25  2  0
 25 26  1  0
 26 27  2  0
 26 28  1  0
 28 29  1  0
 28 30  1  0
 13 31  2  0
 31 32  1  0
  6 33  1  0
 33 34  1  0
 33 35  2  0
 35 36  1  0
 35  2  1  0
 31  7  1  0
 25 16  1  0
M  END
>  <cnnaffinity>  (1) 
-5.65778

>  <filename>  (1) 
NC(=O)c1ccccc1Nc1cncc(-c2cccnc2)c1

$$$$
