
     RDKit          3D

 35 37  0  0  0  0  0  0  0  0999 V2000
    4.9667    1.8097   17.0042 H   0  0  0  0  0  0  0  0  0  0  0  0
    5.4354    1.3012   17.8430 C   0  0  0  0  0  0  0  0  0  0  0  0
    6.5746    0.6400   17.5753 N   0  0  0  0  0  0  0  0  0  0  0  0
    7.1846    0.0080   18.5851 C   0  0  0  0  0  0  0  0  0  0  0  0
    8.1099   -0.5230   18.3641 H   0  0  0  0  0  0  0  0  0  0  0  0
    6.6929    0.0137   19.9029 C   0  0  0  0  0  0  0  0  0  0  0  0
    7.4196   -0.6839   20.8358 O   0  0  0  0  0  0  0  0  0  0  0  0
    7.3232   -0.3395   22.1643 C   0  0  0  0  0  0  0  0  0  0  0  0
    7.1485   -1.2813   23.1957 C   0  0  0  0  0  0  0  0  0  0  0  0
    7.0620   -2.3545   23.0885 H   0  0  0  0  0  0  0  0  0  0  0  0
    7.0979   -0.7020   24.3894 N   0  0  0  0  0  0  0  0  0  0  0  0
    7.2681    0.6026   24.1212 N   0  0  0  0  0  0  0  0  0  0  0  0
    7.1485    1.2994   24.8333 H   0  0  0  0  0  0  0  0  0  0  0  0
    7.4074    0.8933   22.7952 C   0  0  0  0  0  0  0  0  0  0  0  0
    7.5015    2.1943   22.3045 N   0  0  0  0  0  0  0  0  0  0  0  0
    6.7713    2.4405   21.6345 H   0  0  0  0  0  0  0  0  0  0  0  0
    7.8295    3.3226   23.0469 C   0  0  0  0  0  0  0  0  0  0  0  0
    8.8753    3.2956   23.9766 C   0  0  0  0  0  0  0  0  0  0  0  0
    9.4053    2.3574   24.1149 H   0  0  0  0  0  0  0  0  0  0  0  0
    9.2316    4.4473   24.6772 C   0  0  0  0  0  0  0  0  0  0  0  0
   10.0540    4.4275   25.3861 H   0  0  0  0  0  0  0  0  0  0  0  0
    8.5388    5.6439   24.4567 C   0  0  0  0  0  0  0  0  0  0  0  0
    8.8255    6.5522   24.9772 H   0  0  0  0  0  0  0  0  0  0  0  0
    7.4976    5.6768   23.5325 C   0  0  0  0  0  0  0  0  0  0  0  0
    6.9525    6.6050   23.3654 H   0  0  0  0  0  0  0  0  0  0  0  0
    7.1316    4.5243   22.8068 C   0  0  0  0  0  0  0  0  0  0  0  0
    6.0039    4.5376   21.8497 C   0  0  0  0  0  0  0  0  0  0  0  0
    5.3785    3.5526   21.4694 O   0  0  0  0  0  0  0  0  0  0  0  0
    5.6186    5.7624   21.3692 N   0  0  0  0  0  0  0  0  0  0  0  0
    4.9772    5.5575   20.6131 H   0  0  0  0  0  0  0  0  0  0  0  0
    6.4029    6.3403   21.1032 H   0  0  0  0  0  0  0  0  0  0  0  0
    5.4955    0.6771   20.1731 C   0  0  0  0  0  0  0  0  0  0  0  0
    5.1199    0.7212   21.1979 H   0  0  0  0  0  0  0  0  0  0  0  0
    4.8606    1.3442   19.1174 C   0  0  0  0  0  0  0  0  0  0  0  0
    3.9558    1.9168   19.2894 H   0  0  0  0  0  0  0  0  0  0  0  0
  1  2  1  0
  2  3  2  0
  3  4  1  0
  4  5  1  0
  4  6  2  0
  6  7  1  0
  7  8  1  0
  8  9  1  0
  9 10  1  0
  9 11  2  0
 11 12  1  0
 12 13  1  0
 12 14  1  0
 14 15  1  0
 15 16  1  0
 15 17  1  0
 17 18  2  0
 18 19  1  0
 18 20  1  0
 20 21  1  0
 20 22  2  0
 22 23  1  0
 22 24  1  0
 24 25  1  0
 24 26  2  0
 26 27  1  0
 27 28  2  0
 27 29  1  0
 29 30  1  0
 29 31  1  0
  6 32  1  0
 32 33  1  0
 32 34  2  0
 34 35  1  0
 34  2  1  0
 14  8  2  0
 26 17  1  0
M  END
>  <cnnaffinity>  (1) 
-5.11062

>  <filename>  (1) 
NC(=O)c1ccccc1Nc1[nH]ncc1Oc1cccnc1

$$$$
