
     RDKit          3D

 37 39  0  0  0  0  0  0  0  0999 V2000
    4.9235    1.8147   16.9867 H   0  0  0  0  0  0  0  0  0  0  0  0
    5.4017    1.2960   17.8143 C   0  0  0  0  0  0  0  0  0  0  0  0
    6.5477    0.6559   17.5275 N   0  0  0  0  0  0  0  0  0  0  0  0
    7.1673    0.0147   18.5268 C   0  0  0  0  0  0  0  0  0  0  0  0
    8.0984   -0.4936   18.2817 H   0  0  0  0  0  0  0  0  0  0  0  0
    6.6797   -0.0280   19.8497 C   0  0  0  0  0  0  0  0  0  0  0  0
    7.4001   -0.7017   20.9044 N   0  0  0  0  0  0  0  0  0  0  0  0
    6.7473   -1.7166   21.5840 C   0  0  0  0  0  0  0  0  0  0  0  0
    5.7330   -1.9483   21.2738 H   0  0  0  0  0  0  0  0  0  0  0  0
    7.3272   -2.4015   22.6151 C   0  0  0  0  0  0  0  0  0  0  0  0
    6.6474   -3.3599   23.3858 N   0  0  0  0  0  0  0  0  0  0  0  0
    6.3913   -3.0632   24.3333 H   0  0  0  0  0  0  0  0  0  0  0  0
    5.7177   -4.2674   22.9039 C   0  0  0  0  0  0  0  0  0  0  0  0
    5.8964   -4.8857   21.6582 C   0  0  0  0  0  0  0  0  0  0  0  0
    6.7248   -4.5608   21.0351 H   0  0  0  0  0  0  0  0  0  0  0  0
    5.0429   -5.9066   21.2558 C   0  0  0  0  0  0  0  0  0  0  0  0
    5.2325   -6.4392   20.3314 H   0  0  0  0  0  0  0  0  0  0  0  0
    3.9387   -6.2451   22.0454 C   0  0  0  0  0  0  0  0  0  0  0  0
    3.2712   -7.0487   21.7556 H   0  0  0  0  0  0  0  0  0  0  0  0
    3.7060   -5.5756   23.2395 C   0  0  0  0  0  0  0  0  0  0  0  0
    2.7882   -5.7908   23.7839 H   0  0  0  0  0  0  0  0  0  0  0  0
    4.6339   -4.6359   23.7371 C   0  0  0  0  0  0  0  0  0  0  0  0
    4.5586   -4.1196   25.1332 C   0  0  0  0  0  0  0  0  0  0  0  0
    5.2165   -3.1985   25.6059 O   0  0  0  0  0  0  0  0  0  0  0  0
    3.6812   -4.7672   25.9708 N   0  0  0  0  0  0  0  0  0  0  0  0
    3.7332   -5.7669   25.8511 H   0  0  0  0  0  0  0  0  0  0  0  0
    3.8971   -4.4419   26.9046 H   0  0  0  0  0  0  0  0  0  0  0  0
    8.6516   -2.0355   23.0196 C   0  0  0  0  0  0  0  0  0  0  0  0
    9.0961   -2.5888   23.8501 H   0  0  0  0  0  0  0  0  0  0  0  0
    9.3182   -1.0353   22.3808 C   0  0  0  0  0  0  0  0  0  0  0  0
   10.3159   -0.7141   22.6516 H   0  0  0  0  0  0  0  0  0  0  0  0
    8.7385   -0.2833   21.2674 C   0  0  0  0  0  0  0  0  0  0  0  0
    9.3216    0.6062   20.6735 O   0  0  0  0  0  0  0  0  0  0  0  0
    5.4642    0.6124   20.1228 C   0  0  0  0  0  0  0  0  0  0  0  0
    5.0537    0.5832   21.1324 H   0  0  0  0  0  0  0  0  0  0  0  0
    4.8223    1.3010   19.0874 C   0  0  0  0  0  0  0  0  0  0  0  0
    3.8895    1.8284   19.2563 H   0  0  0  0  0  0  0  0  0  0  0  0
  1  2  1  0
  2  3  2  0
  3  4  1  0
  4  5  1  0
  4  6  2  0
  6  7  1  0
  7  8  1  0
  8  9  1  0
  8 10  2  0
 10 11  1  0
 11 12  1  0
 11 13  1  0
 13 14  2  0
 14 15  1  0
 14 16  1  0
 16 17  1  0
 16 18  2  0
 18 19  1  0
 18 20  1  0
 20 21  1  0
 20 22  2  0
 22 23  1  0
 23 24  2  0
 23 25  1  0
 25 26  1  0
 25 27  1  0
 10 28  1  0
 28 29  1  0
 28 30  2  0
 30 31  1  0
 30 32  1  0
 32 33  2  0
  6 34  1  0
 34 35  1  0
 34 36  2  0
 36 37  1  0
 36  2  1  0
 32  7  1  0
 22 13  1  0
M  END
>  <cnnaffinity>  (1) 
-5.25098

>  <filename>  (1) 
NC(=O)c1ccccc1Nc1ccc(=O)n(-c2cccnc2)c1

$$$$
