
     RDKit          3D

 34 36  0  0  0  0  0  0  0  0999 V2000
    4.9119    1.7858   16.9945 H   0  0  0  0  0  0  0  0  0  0  0  0
    5.3963    1.2980   17.8366 C   0  0  0  0  0  0  0  0  0  0  0  0
    6.5609    0.6832   17.5700 N   0  0  0  0  0  0  0  0  0  0  0  0
    7.1714    0.0615   18.5881 C   0  0  0  0  0  0  0  0  0  0  0  0
    8.1183   -0.4293   18.3756 H   0  0  0  0  0  0  0  0  0  0  0  0
    6.6643   -0.0096   19.9109 C   0  0  0  0  0  0  0  0  0  0  0  0
    7.3246   -0.7119   20.9256 N   0  0  0  0  0  0  0  0  0  0  0  0
    6.7726   -1.0755   21.6945 H   0  0  0  0  0  0  0  0  0  0  0  0
    8.7087   -0.7692   21.1036 C   0  0  0  0  0  0  0  0  0  0  0  0
    9.7015    0.1384   20.6701 C   0  0  0  0  0  0  0  0  0  0  0  0
    9.5374    1.0181   20.0725 H   0  0  0  0  0  0  0  0  0  0  0  0
   10.9104   -0.1945   21.1012 N   0  0  0  0  0  0  0  0  0  0  0  0
   10.7017   -1.3146   21.8053 N   0  0  0  0  0  0  0  0  0  0  0  0
   11.4945   -1.7696   22.2262 H   0  0  0  0  0  0  0  0  0  0  0  0
    9.4030   -1.7267   21.8312 C   0  0  0  0  0  0  0  0  0  0  0  0
    8.9226   -2.9235   22.5313 C   0  0  0  0  0  0  0  0  0  0  0  0
    9.4976   -3.3141   23.7539 C   0  0  0  0  0  0  0  0  0  0  0  0
   10.3067   -2.7246   24.1869 H   0  0  0  0  0  0  0  0  0  0  0  0
    9.0143   -4.4414   24.4148 C   0  0  0  0  0  0  0  0  0  0  0  0
    9.4657   -4.7422   25.3567 H   0  0  0  0  0  0  0  0  0  0  0  0
    7.9569   -5.1808   23.8773 C   0  0  0  0  0  0  0  0  0  0  0  0
    7.6307   -6.0742   24.4041 H   0  0  0  0  0  0  0  0  0  0  0  0
    7.3501   -4.7965   22.6654 C   0  0  0  0  0  0  0  0  0  0  0  0
    6.2253   -5.5823   22.0207 C   0  0  0  0  0  0  0  0  0  0  0  0
    5.9705   -5.5560   20.8308 O   0  0  0  0  0  0  0  0  0  0  0  0
    5.4808   -6.3856   22.8275 N   0  0  0  0  0  0  0  0  0  0  0  0
    5.4844   -6.3391   23.8272 H   0  0  0  0  0  0  0  0  0  0  0  0
    4.7679   -6.9001   22.3340 H   0  0  0  0  0  0  0  0  0  0  0  0
    7.8601   -3.6720   21.9951 C   0  0  0  0  0  0  0  0  0  0  0  0
    7.4555   -3.3716   21.0322 H   0  0  0  0  0  0  0  0  0  0  0  0
    5.4425    0.6339   20.1633 C   0  0  0  0  0  0  0  0  0  0  0  0
    5.0180    0.6216   21.1698 H   0  0  0  0  0  0  0  0  0  0  0  0
    4.8121    1.3058   19.1097 C   0  0  0  0  0  0  0  0  0  0  0  0
    3.8809    1.8381   19.2641 H   0  0  0  0  0  0  0  0  0  0  0  0
  1  2  1  0
  2  3  2  0
  3  4  1  0
  4  5  1  0
  4  6  2  0
  6  7  1  0
  7  8  1  0
  7  9  1  0
  9 10  1  0
 10 11  1  0
 10 12  2  0
 12 13  1  0
 13 14  1  0
 13 15  1  0
 15 16  1  0
 16 17  2  0
 17 18  1  0
 17 19  1  0
 19 20  1  0
 19 21  2  0
 21 22  1  0
 21 23  1  0
 23 24  1  0
 24 25  2  0
 24 26  1  0
 26 27  1  0
 26 28  1  0
 23 29  2  0
 29 30  1  0
  6 31  1  0
 31 32  1  0
 31 33  2  0
 33 34  1  0
 33  2  1  0
 15  9  2  0
 29 16  1  0
M  END
>  <cnnaffinity>  (1) 
-5.70089

>  <filename>  (1) 
NC(=O)c1cccc(-c2[nH]ncc2Nc2cccnc2)c1

$$$$
