
     RDKit          3D

 31 33  0  0  0  0  0  0  0  0999 V2000
    4.9232    1.7822   16.9969 H   0  0  0  0  0  0  0  0  0  0  0  0
    5.4061    1.2932   17.8384 C   0  0  0  0  0  0  0  0  0  0  0  0
    6.5709    0.6805   17.5758 N   0  0  0  0  0  0  0  0  0  0  0  0
    7.1708    0.0509   18.5887 C   0  0  0  0  0  0  0  0  0  0  0  0
    8.1181   -0.4322   18.3654 H   0  0  0  0  0  0  0  0  0  0  0  0
    6.6482   -0.0100   19.8860 C   0  0  0  0  0  0  0  0  0  0  0  0
    7.3789   -0.7348   20.9335 C   0  0  0  0  0  0  0  0  0  0  0  0
    7.9610   -1.8844   20.7025 N   0  0  0  0  0  0  0  0  0  0  0  0
    8.4518   -2.3223   21.9120 O   0  0  0  0  0  0  0  0  0  0  0  0
    8.1651   -1.4164   22.8467 C   0  0  0  0  0  0  0  0  0  0  0  0
    8.5225   -1.6225   23.8477 H   0  0  0  0  0  0  0  0  0  0  0  0
    7.5087   -0.3596   22.3136 C   0  0  0  0  0  0  0  0  0  0  0  0
    7.1128    0.8772   23.0002 C   0  0  0  0  0  0  0  0  0  0  0  0
    7.2606    2.1280   22.3756 C   0  0  0  0  0  0  0  0  0  0  0  0
    7.6468    2.1648   21.3574 H   0  0  0  0  0  0  0  0  0  0  0  0
    6.8934    3.2870   23.0551 C   0  0  0  0  0  0  0  0  0  0  0  0
    7.0120    4.2488   22.5612 H   0  0  0  0  0  0  0  0  0  0  0  0
    6.3835    3.2088   24.3532 C   0  0  0  0  0  0  0  0  0  0  0  0
    6.1301    4.1219   24.8804 H   0  0  0  0  0  0  0  0  0  0  0  0
    6.2166    1.9642   24.9911 C   0  0  0  0  0  0  0  0  0  0  0  0
    5.7033    1.9320   26.4157 C   0  0  0  0  0  0  0  0  0  0  0  0
    5.7696    2.8672   27.1935 O   0  0  0  0  0  0  0  0  0  0  0  0
    5.1596    0.7702   26.8580 N   0  0  0  0  0  0  0  0  0  0  0  0
    4.8924    0.0096   26.2667 H   0  0  0  0  0  0  0  0  0  0  0  0
    4.8556    0.8220   27.8167 H   0  0  0  0  0  0  0  0  0  0  0  0
    6.6087    0.8053   24.3032 C   0  0  0  0  0  0  0  0  0  0  0  0
    6.5547   -0.1822   24.7643 H   0  0  0  0  0  0  0  0  0  0  0  0
    5.4273    0.6352   20.1477 C   0  0  0  0  0  0  0  0  0  0  0  0
    5.0030    0.6380   21.1573 H   0  0  0  0  0  0  0  0  0  0  0  0
    4.8030    1.3050   19.1019 C   0  0  0  0  0  0  0  0  0  0  0  0
    3.8745    1.8424   19.2560 H   0  0  0  0  0  0  0  0  0  0  0  0
  1  2  1  0
  2  3  2  0
  3  4  1  0
  4  5  1  0
  4  6  2  0
  6  7  1  0
  7  8  2  0
  8  9  1  0
  9 10  1  0
 10 11  1  0
 10 12  2  0
 12 13  1  0
 13 14  2  0
 14 15  1  0
 14 16  1  0
 16 17  1  0
 16 18  2  0
 18 19  1  0
 18 20  1  0
 20 21  1  0
 21 22  2  0
 21 23  1  0
 23 24  1  0
 23 25  1  0
 20 26  2  0
 26 27  1  0
  6 28  1  0
 28 29  1  0
 28 30  2  0
 30 31  1  0
 30  2  1  0
 12  7  1  0
 26 13  1  0
M  END
>  <cnnaffinity>  (1) 
-4.83604

>  <filename>  (1) 
NC(=O)c1cccc(-c2conc2-c2cccnc2)c1

$$$$
