
     RDKit          3D

 31 33  0  0  0  0  0  0  0  0999 V2000
    4.9162    1.7960   16.9798 H   0  0  0  0  0  0  0  0  0  0  0  0
    5.3905    1.3020   17.8245 C   0  0  0  0  0  0  0  0  0  0  0  0
    6.5536    0.6831   17.5641 N   0  0  0  0  0  0  0  0  0  0  0  0
    7.1603    0.0707   18.5885 C   0  0  0  0  0  0  0  0  0  0  0  0
    8.1062   -0.4213   18.3590 H   0  0  0  0  0  0  0  0  0  0  0  0
    6.6450    0.0058   19.8977 C   0  0  0  0  0  0  0  0  0  0  0  0
    7.3624   -0.7175   20.9799 C   0  0  0  0  0  0  0  0  0  0  0  0
    8.7730   -0.5618   21.1439 C   0  0  0  0  0  0  0  0  0  0  0  0
    9.3015    0.1051   20.4594 H   0  0  0  0  0  0  0  0  0  0  0  0
    9.4216   -1.2112   22.1481 C   0  0  0  0  0  0  0  0  0  0  0  0
   10.4872   -1.1477   22.3104 H   0  0  0  0  0  0  0  0  0  0  0  0
    8.7301   -2.0980   23.0731 C   0  0  0  0  0  0  0  0  0  0  0  0
    9.2920   -2.7561   23.9345 O   0  0  0  0  0  0  0  0  0  0  0  0
    7.3288   -2.1933   22.8759 N   0  0  0  0  0  0  0  0  0  0  0  0
    6.5773   -3.0547   23.7943 C   0  0  2  0  0  0  0  0  0  0  0  0
    5.5177   -2.8830   23.5819 H   0  0  0  0  0  0  0  0  0  0  0  0
    6.8221   -2.7547   25.1834 N   0  0  0  0  0  0  0  0  0  0  0  0
    7.2096   -3.8551   25.6934 C   0  0  0  0  0  0  0  0  0  0  0  0
    7.5010   -3.9903   26.9772 N   0  0  0  0  0  0  0  0  0  0  0  0
    7.8084   -4.8794   27.3139 H   0  0  0  0  0  0  0  0  0  0  0  0
    7.4370   -3.1233   27.4705 H   0  0  0  0  0  0  0  0  0  0  0  0
    7.2722   -4.9744   24.9621 O   0  0  0  0  0  0  0  0  0  0  0  0
    6.9147   -4.5645   23.6305 C   0  0  0  0  0  0  0  0  0  0  0  0
    6.0594   -5.1518   23.2919 H   0  0  0  0  0  0  0  0  0  0  0  0
    7.7616   -4.7320   22.9624 H   0  0  0  0  0  0  0  0  0  0  0  0
    6.6915   -1.5303   21.8510 C   0  0  0  0  0  0  0  0  0  0  0  0
    5.6200   -1.6894   21.7450 H   0  0  0  0  0  0  0  0  0  0  0  0
    5.4246    0.6516   20.1418 C   0  0  0  0  0  0  0  0  0  0  0  0
    5.0066    0.6415   21.1500 H   0  0  0  0  0  0  0  0  0  0  0  0
    4.7960    1.3204   19.0910 C   0  0  0  0  0  0  0  0  0  0  0  0
    3.8653    1.8521   19.2424 H   0  0  0  0  0  0  0  0  0  0  0  0
  1  2  1  0
  2  3  2  0
  3  4  1  0
  4  5  1  0
  4  6  2  0
  6  7  1  0
  7  8  1  0
  8  9  1  0
  8 10  2  0
 10 11  1  0
 10 12  1  0
 12 13  2  0
 12 14  1  0
 14 15  1  0
 15 16  1  6
 15 17  1  0
 17 18  2  0
 18 19  1  0
 19 20  1  0
 19 21  1  0
 18 22  1  0
 22 23  1  0
 23 24  1  0
 23 25  1  0
 14 26  1  0
 26 27  1  0
  6 28  1  0
 28 29  1  0
 28 30  2  0
 30 31  1  0
 30  2  1  0
 26  7  2  0
 23 15  1  0
M  END
>  <cnnaffinity>  (1) 
-4.71592

>  <filename>  (1) 
NC1=N[C@@H](n2cc(-c3cccnc3)ccc2=O)CO1

$$$$
