
     RDKit          3D

 29 31  0  0  0  0  0  0  0  0999 V2000
   10.1379   -0.2146   22.6970 H   0  0  0  0  0  0  0  0  0  0  0  0
    9.2315   -0.7142   22.3546 C   0  0  0  0  0  0  0  0  0  0  0  0
    8.8931   -1.8392   22.9795 N   0  0  0  0  0  0  0  0  0  0  0  0
    7.8047   -2.4642   22.5363 C   0  0  0  0  0  0  0  0  0  0  0  0
    7.5212   -3.3781   23.0573 H   0  0  0  0  0  0  0  0  0  0  0  0
    7.0430   -2.0047   21.4675 C   0  0  0  0  0  0  0  0  0  0  0  0
    5.9229   -2.8655   20.9488 C   0  0  2  0  0  0  0  0  0  0  0  0
    5.2773   -2.2134   20.3472 H   0  0  0  0  0  0  0  0  0  0  0  0
    5.1875   -3.4965   22.0398 N   0  0  0  0  0  0  0  0  0  0  0  0
    4.9179   -4.6623   21.6380 C   0  0  0  0  0  0  0  0  0  0  0  0
    4.1586   -5.5977   22.2606 N   0  0  0  0  0  0  0  0  0  0  0  0
    4.2433   -5.4665   23.2558 H   0  0  0  0  0  0  0  0  0  0  0  0
    4.4598   -6.5027   21.9427 H   0  0  0  0  0  0  0  0  0  0  0  0
    5.3805   -5.0941   20.4472 O   0  0  0  0  0  0  0  0  0  0  0  0
    6.2979   -4.0666   20.0435 C   0  0  0  0  0  0  0  0  0  0  0  0
    7.3076   -4.4367   20.2519 H   0  0  0  0  0  0  0  0  0  0  0  0
    6.1554   -3.8412   18.9860 H   0  0  0  0  0  0  0  0  0  0  0  0
    7.4241   -0.7450   20.9770 C   0  0  0  0  0  0  0  0  0  0  0  0
    6.6352   -0.0100   19.9649 C   0  0  0  0  0  0  0  0  0  0  0  0
    7.2068    0.0524   18.6910 C   0  0  0  0  0  0  0  0  0  0  0  0
    8.1763   -0.4037   18.4983 H   0  0  0  0  0  0  0  0  0  0  0  0
    6.6320    0.6489   17.6428 N   0  0  0  0  0  0  0  0  0  0  0  0
    5.4625    1.2703   17.8504 C   0  0  0  0  0  0  0  0  0  0  0  0
    5.0224    1.7645   16.9849 H   0  0  0  0  0  0  0  0  0  0  0  0
    4.8242    1.3093   19.0942 C   0  0  0  0  0  0  0  0  0  0  0  0
    3.8928    1.8559   19.1963 H   0  0  0  0  0  0  0  0  0  0  0  0
    5.4192    0.6611   20.1817 C   0  0  0  0  0  0  0  0  0  0  0  0
    4.9466    0.6978   21.1659 H   0  0  0  0  0  0  0  0  0  0  0  0
    8.5628   -0.1531   21.3448 N   0  0  0  0  0  0  0  0  0  0  0  0
  1  2  1  0
  2  3  2  0
  3  4  1  0
  4  5  1  0
  4  6  2  0
  6  7  1  0
  7  8  1  6
  7  9  1  0
  9 10  2  0
 10 11  1  0
 11 12  1  0
 11 13  1  0
 10 14  1  0
 14 15  1  0
 15 16  1  0
 15 17  1  0
  6 18  1  0
 18 19  1  0
 19 20  2  0
 20 21  1  0
 20 22  1  0
 22 23  2  0
 23 24  1  0
 23 25  1  0
 25 26  1  0
 25 27  2  0
 27 28  1  0
 18 29  2  0
 29  2  1  0
 15  7  1  0
 27 19  1  0
M  END
>  <cnnaffinity>  (1) 
-4.92133

>  <filename>  (1) 
NC1=N[C@@H](c2cncnc2-c2cccnc2)CO1

$$$$
