
     RDKit          3D

 30 32  0  0  0  0  0  0  0  0999 V2000
    4.9799    1.9645   16.8980 H   0  0  0  0  0  0  0  0  0  0  0  0
    5.4325    1.3987   17.7125 C   0  0  0  0  0  0  0  0  0  0  0  0
    6.6075    0.8101   17.4427 N   0  0  0  0  0  0  0  0  0  0  0  0
    7.1962    0.1334   18.4326 C   0  0  0  0  0  0  0  0  0  0  0  0
    8.1686   -0.2963   18.2020 H   0  0  0  0  0  0  0  0  0  0  0  0
    6.6204   -0.0577   19.7018 C   0  0  0  0  0  0  0  0  0  0  0  0
    7.3798   -0.8119   20.7167 C   0  0  0  0  0  0  0  0  0  0  0  0
    8.6554   -0.5113   20.8630 N   0  0  0  0  0  0  0  0  0  0  0  0
    9.3305   -1.0069   21.9632 C   0  0  0  0  0  0  0  0  0  0  0  0
   10.7818   -0.5719   22.1296 C   0  0  2  0  0  0  0  0  0  0  0  0
   11.3939   -1.1781   21.4421 H   0  0  0  0  0  0  0  0  0  0  0  0
   11.2904   -0.7409   23.4889 N   0  0  0  0  0  0  0  0  0  0  0  0
   11.9520    0.3108   23.7229 C   0  0  0  0  0  0  0  0  0  0  0  0
   12.6769    0.5394   24.8424 N   0  0  0  0  0  0  0  0  0  0  0  0
   12.7705   -0.3645   25.2785 H   0  0  0  0  0  0  0  0  0  0  0  0
   13.5353    0.9513   24.5259 H   0  0  0  0  0  0  0  0  0  0  0  0
   12.0290    1.2891   22.8149 O   0  0  0  0  0  0  0  0  0  0  0  0
   11.0574    0.9226   21.8181 C   0  0  0  0  0  0  0  0  0  0  0  0
   11.4832    1.0990   20.8325 H   0  0  0  0  0  0  0  0  0  0  0  0
   10.1761    1.5554   21.9481 H   0  0  0  0  0  0  0  0  0  0  0  0
    8.7567   -1.8631   22.8693 C   0  0  0  0  0  0  0  0  0  0  0  0
    9.2764   -2.1985   23.7643 H   0  0  0  0  0  0  0  0  0  0  0  0
    7.4730   -2.3044   22.6307 N   0  0  0  0  0  0  0  0  0  0  0  0
    6.9620   -3.0009   23.1650 H   0  0  0  0  0  0  0  0  0  0  0  0
    6.6876   -1.8726   21.5660 C   0  0  0  0  0  0  0  0  0  0  0  0
    5.5930   -2.3969   21.4287 O   0  0  0  0  0  0  0  0  0  0  0  0
    5.3754    0.5387   19.9618 C   0  0  0  0  0  0  0  0  0  0  0  0
    4.8771    0.4048   20.9250 H   0  0  0  0  0  0  0  0  0  0  0  0
    4.7882    1.3022   18.9497 C   0  0  0  0  0  0  0  0  0  0  0  0
    3.8476    1.8173   19.1033 H   0  0  0  0  0  0  0  0  0  0  0  0
  1  2  1  0
  2  3  2  0
  3  4  1  0
  4  5  1  0
  4  6  2  0
  6  7  1  0
  7  8  2  0
  8  9  1  0
  9 10  1  0
 10 11  1  6
 10 12  1  0
 12 13  2  0
 13 14  1  0
 14 15  1  0
 14 16  1  0
 13 17  1  0
 17 18  1  0
 18 19  1  0
 18 20  1  0
  9 21  2  0
 21 22  1  0
 21 23  1  0
 23 24  1  0
 23 25  1  0
 25 26  2  0
  6 27  1  0
 27 28  1  0
 27 29  2  0
 29 30  1  0
 29  2  1  0
 25  7  1  0
 18 10  1  0
M  END
>  <cnnaffinity>  (1) 
-5.06161

>  <filename>  (1) 
NC1=N[C@@H](c2c[nH]c(=O)c(-c3cccnc3)n2)CO1

$$$$
