
     RDKit          3D

 30 32  0  0  0  0  0  0  0  0999 V2000
    4.9284    1.8070   16.9910 H   0  0  0  0  0  0  0  0  0  0  0  0
    5.4040    1.2993   17.8275 C   0  0  0  0  0  0  0  0  0  0  0  0
    6.5598    0.6745   17.5596 N   0  0  0  0  0  0  0  0  0  0  0  0
    7.1676    0.0520   18.5820 C   0  0  0  0  0  0  0  0  0  0  0  0
    8.1174   -0.4300   18.3548 H   0  0  0  0  0  0  0  0  0  0  0  0
    6.6665    0.0058   19.8972 C   0  0  0  0  0  0  0  0  0  0  0  0
    7.4286   -0.7120   20.9927 C   0  0  0  0  0  0  0  0  0  0  0  0
    8.6061    0.0752   21.5976 C   0  0  0  0  0  0  0  0  0  0  0  0
    9.7454   -0.0328   21.1900 O   0  0  0  0  0  0  0  0  0  0  0  0
    8.3064    1.1008   22.7308 C   0  0  2  0  0  0  0  0  0  0  0  0
    9.0475    0.8468   23.4955 H   0  0  0  0  0  0  0  0  0  0  0  0
    6.9676    1.1212   23.3235 N   0  0  0  0  0  0  0  0  0  0  0  0
    6.4792    2.2617   23.0371 C   0  0  0  0  0  0  0  0  0  0  0  0
    5.1809    2.6072   23.2129 N   0  0  0  0  0  0  0  0  0  0  0  0
    4.8392    2.0378   23.9619 H   0  0  0  0  0  0  0  0  0  0  0  0
    5.1189    3.6008   23.3268 H   0  0  0  0  0  0  0  0  0  0  0  0
    7.2527    3.1994   22.4868 O   0  0  0  0  0  0  0  0  0  0  0  0
    8.5173    2.5637   22.2185 C   0  0  0  0  0  0  0  0  0  0  0  0
    9.3154    3.0856   22.7540 H   0  0  0  0  0  0  0  0  0  0  0  0
    8.7045    2.6660   21.1446 H   0  0  0  0  0  0  0  0  0  0  0  0
    6.6698   -1.6183   21.9377 C   0  0  0  0  0  0  0  0  0  0  0  0
    6.9728   -1.6401   22.9827 H   0  0  0  0  0  0  0  0  0  0  0  0
    5.5978   -1.6989   21.7647 H   0  0  0  0  0  0  0  0  0  0  0  0
    7.5468   -2.2174   20.8813 C   0  0  0  0  0  0  0  0  0  0  0  0
    8.4997   -2.6953   21.1009 H   0  0  0  0  0  0  0  0  0  0  0  0
    6.9813   -2.6667   20.0677 H   0  0  0  0  0  0  0  0  0  0  0  0
    5.4640    0.6759   20.1493 C   0  0  0  0  0  0  0  0  0  0  0  0
    5.0689    0.7034   21.1685 H   0  0  0  0  0  0  0  0  0  0  0  0
    4.8152    1.3239   19.0965 C   0  0  0  0  0  0  0  0  0  0  0  0
    3.8744    1.8466   19.2396 H   0  0  0  0  0  0  0  0  0  0  0  0
  1  2  1  0
  2  3  2  0
  3  4  1  0
  4  5  1  0
  4  6  2  0
  6  7  1  0
  7  8  1  0
  8  9  2  0
  8 10  1  0
 10 11  1  1
 10 12  1  0
 12 13  2  0
 13 14  1  0
 14 15  1  0
 14 16  1  0
 13 17  1  0
 17 18  1  0
 18 19  1  0
 18 20  1  0
  7 21  1  0
 21 22  1  0
 21 23  1  0
 21 24  1  0
 24 25  1  0
 24 26  1  0
  6 27  1  0
 27 28  1  0
 27 29  2  0
 29 30  1  0
 29  2  1  0
 24  7  1  0
 18 10  1  0
M  END
>  <cnnaffinity>  (1) 
-4.23434

>  <filename>  (1) 
NC1=N[C@@H](C(=O)C2(c3cccnc3)CC2)CO1

$$$$
