
     RDKit          3D

 34 36  0  0  0  0  0  0  0  0999 V2000
    9.3666    0.9362   20.4024 H   0  0  0  0  0  0  0  0  0  0  0  0
    9.6515    0.0764   21.0170 C   0  0  0  0  0  0  0  0  0  0  0  0
    8.7148   -0.8175   21.3780 C   0  0  0  0  0  0  0  0  0  0  0  0
    7.2707   -0.8315   21.0193 C   0  0  0  0  0  0  0  0  0  0  0  0
    6.6565   -0.0416   19.9331 C   0  0  0  0  0  0  0  0  0  0  0  0
    7.2598   -0.0012   18.6716 C   0  0  0  0  0  0  0  0  0  0  0  0
    8.2023   -0.5205   18.5071 H   0  0  0  0  0  0  0  0  0  0  0  0
    6.7422    0.6394   17.6163 N   0  0  0  0  0  0  0  0  0  0  0  0
    5.5827    1.2871   17.8029 C   0  0  0  0  0  0  0  0  0  0  0  0
    5.1920    1.8211   16.9396 H   0  0  0  0  0  0  0  0  0  0  0  0
    4.8894    1.3017   19.0228 C   0  0  0  0  0  0  0  0  0  0  0  0
    3.9552    1.8505   19.1034 H   0  0  0  0  0  0  0  0  0  0  0  0
    5.4233    0.6048   20.1037 C   0  0  0  0  0  0  0  0  0  0  0  0
    4.9012    0.5404   21.0629 H   0  0  0  0  0  0  0  0  0  0  0  0
    6.5633   -1.6153   21.7417 N   0  0  0  0  0  0  0  0  0  0  0  0
    7.4106   -2.2318   22.7636 C   0  0  0  0  0  0  0  0  0  0  0  0
    7.1867   -3.2975   22.8183 H   0  0  0  0  0  0  0  0  0  0  0  0
    7.1315   -1.7914   23.7286 H   0  0  0  0  0  0  0  0  0  0  0  0
    8.8868   -1.9329   22.3909 C   0  0  0  0  0  0  0  0  0  0  0  0
    9.3572   -2.7984   21.9078 H   0  0  0  0  0  0  0  0  0  0  0  0
    9.5229   -1.6388   23.2321 H   0  0  0  0  0  0  0  0  0  0  0  0
   11.0695    0.0647   21.4569 C   0  0  0  0  0  0  0  0  0  0  0  0
   11.6284    1.2435   21.9875 C   0  0  0  0  0  0  0  0  0  0  0  0
   11.0329    2.1488   22.0516 H   0  0  0  0  0  0  0  0  0  0  0  0
   12.9401    1.2466   22.4656 C   0  0  0  0  0  0  0  0  0  0  0  0
   13.3641    2.1554   22.8778 H   0  0  0  0  0  0  0  0  0  0  0  0
   13.7122    0.0865   22.4048 C   0  0  0  0  0  0  0  0  0  0  0  0
   14.7288    0.0502   22.7746 H   0  0  0  0  0  0  0  0  0  0  0  0
   13.2018   -1.0639   21.7991 C   0  0  0  0  0  0  0  0  0  0  0  0
   14.0495   -2.1391   21.5770 N   0  0  0  0  0  0  0  0  0  0  0  0
   13.5697   -3.0185   21.4684 H   0  0  0  0  0  0  0  0  0  0  0  0
   14.7860   -2.1874   22.2669 H   0  0  0  0  0  0  0  0  0  0  0  0
   11.8814   -1.0763   21.3440 C   0  0  0  0  0  0  0  0  0  0  0  0
   11.5106   -1.9807   20.8736 H   0  0  0  0  0  0  0  0  0  0  0  0
  1  2  1  0
  2  3  2  3
  3  4  1  0
  4  5  1  0
  5  6  2  0
  6  7  1  0
  6  8  1  0
  8  9  2  0
  9 10  1  0
  9 11  1  0
 11 12  1  0
 11 13  2  0
 13 14  1  0
  4 15  2  0
 15 16  1  0
 16 17  1  0
 16 18  1  0
 16 19  1  0
 19 20  1  0
 19 21  1  0
  2 22  1  0
 22 23  2  0
 23 24  1  0
 23 25  1  0
 25 26  1  0
 25 27  2  0
 27 28  1  0
 27 29  1  0
 29 30  1  0
 30 31  1  0
 30 32  1  0
 29 33  2  0
 33 34  1  0
 19  3  1  0
 33 22  1  0
 13  5  1  0
M  END
>  <cnnaffinity>  (1) 
-6.01787

>  <filename>  (1) 
Nc1cccc(C=C2CCN=C2c2cccnc2)c1

$$$$
