
     RDKit          3D

 36 39  0  0  0  0  0  0  0  0999 V2000
    5.0141    1.8217   16.9129 H   0  0  0  0  0  0  0  0  0  0  0  0
    5.4001    1.3008   17.7853 C   0  0  0  0  0  0  0  0  0  0  0  0
    6.5525    0.6324   17.6177 N   0  0  0  0  0  0  0  0  0  0  0  0
    7.0607    0.0158   18.6926 C   0  0  0  0  0  0  0  0  0  0  0  0
    7.9914   -0.5247   18.5293 H   0  0  0  0  0  0  0  0  0  0  0  0
    6.4657    0.0081   19.9691 C   0  0  0  0  0  0  0  0  0  0  0  0
    7.2297   -0.5765   21.0894 C   0  0  0  0  0  0  0  0  0  0  0  0
    8.5851   -0.5129   21.3309 C   0  0  0  0  0  0  0  0  0  0  0  0
    8.7938   -1.1194   22.5602 C   0  0  0  0  0  0  0  0  0  0  0  0
    7.6794   -1.5937   23.0869 N   0  0  0  0  0  0  0  0  0  0  0  0
    6.7306   -1.2378   22.1783 N   0  0  0  0  0  0  0  0  0  0  0  0
    5.7753   -1.5341   22.3332 H   0  0  0  0  0  0  0  0  0  0  0  0
   10.2324   -1.0896   22.9860 C   0  0  0  0  0  0  0  0  0  0  0  0
   10.3451   -0.6375   23.9768 H   0  0  0  0  0  0  0  0  0  0  0  0
   10.6436   -2.1025   23.0529 H   0  0  0  0  0  0  0  0  0  0  0  0
   10.9336   -0.2617   21.8433 C   0  0  2  0  0  0  0  0  0  0  0  0
   11.7284   -0.8855   21.4162 H   0  0  0  0  0  0  0  0  0  0  0  0
   11.5667    1.0204   22.3480 C   0  0  0  0  0  0  0  0  0  0  0  0
   10.7951    2.0647   22.8754 C   0  0  0  0  0  0  0  0  0  0  0  0
    9.7085    1.9707   22.9120 H   0  0  0  0  0  0  0  0  0  0  0  0
   11.2888    3.2092   23.3658 N   0  0  0  0  0  0  0  0  0  0  0  0
   12.6107    3.3505   23.3328 C   0  0  0  0  0  0  0  0  0  0  0  0
   13.0192    4.5321   23.8941 N   0  0  0  0  0  0  0  0  0  0  0  0
   13.7814    4.9479   23.3874 H   0  0  0  0  0  0  0  0  0  0  0  0
   12.1684    5.0799   23.8894 H   0  0  0  0  0  0  0  0  0  0  0  0
   13.5026    2.4113   22.8024 C   0  0  0  0  0  0  0  0  0  0  0  0
   14.5598    2.6441   22.7285 H   0  0  0  0  0  0  0  0  0  0  0  0
   12.9595    1.2261   22.3228 C   0  0  0  0  0  0  0  0  0  0  0  0
   13.6057    0.4467   21.9192 H   0  0  0  0  0  0  0  0  0  0  0  0
    9.8543   -0.0242   20.7243 C   0  0  0  0  0  0  0  0  0  0  0  0
    9.8060    1.0213   20.3904 H   0  0  0  0  0  0  0  0  0  0  0  0
   10.0800   -0.6234   19.8363 H   0  0  0  0  0  0  0  0  0  0  0  0
    5.2334    0.6731   20.1068 C   0  0  0  0  0  0  0  0  0  0  0  0
    4.7249    0.6892   21.0699 H   0  0  0  0  0  0  0  0  0  0  0  0
    4.7040    1.3409   19.0000 C   0  0  0  0  0  0  0  0  0  0  0  0
    3.7814    1.9058   19.0737 H   0  0  0  0  0  0  0  0  0  0  0  0
  1  2  1  0
  2  3  2  0
  3  4  1  0
  4  5  1  0
  4  6  2  0
  6  7  1  0
  7  8  2  0
  8  9  1  0
  9 10  2  0
 10 11  1  0
 11 12  1  0
  9 13  1  0
 13 14  1  0
 13 15  1  0
 13 16  1  0
 16 17  1  6
 16 18  1  0
 18 19  2  0
 19 20  1  0
 19 21  1  0
 21 22  2  0
 22 23  1  0
 23 24  1  0
 23 25  1  0
 22 26  1  0
 26 27  1  0
 26 28  2  0
 28 29  1  0
 16 30  1  0
 30 31  1  0
 30 32  1  0
  6 33  1  0
 33 34  1  0
 33 35  2  0
 35 36  1  0
 35  2  1  0
 11  7  1  0
 28 18  1  0
 30  8  1  0
M  END
>  <cnnaffinity>  (1) 
-5.89768

>  <filename>  (1) 
Nc1ccc([C@H]2Cc3n[nH]c(-c4cccnc4)c3C2)cn1

$$$$
