
     RDKit          3D

 30 32  0  0  0  0  0  0  0  0999 V2000
    9.8094   -1.4523   24.9486 N   0  0  0  0  0  0  0  0  0  0  0  0
    8.7238   -2.3146   25.0945 C   0  0  0  0  0  0  0  0  0  0  0  0
    8.6148   -3.0384   26.2876 C   0  0  0  0  0  0  0  0  0  0  0  0
    7.5975   -3.9705   26.4680 C   0  0  0  0  0  0  0  0  0  0  0  0
    6.6568   -4.1723   25.4577 C   0  0  0  0  0  0  0  0  0  0  0  0
    6.7671   -3.4290   24.2885 C   0  0  0  0  0  0  0  0  0  0  0  0
    5.8430   -3.6591   23.3327 F   0  0  0  0  0  0  0  0  0  0  0  0
    7.7886   -2.4955   24.0430 C   0  0  0  0  0  0  0  0  0  0  0  0
    7.8987   -1.7700   22.7523 C   0  0  0  0  0  0  0  0  0  0  0  0
    6.8849   -1.1677   22.0499 C   0  0  0  0  0  0  0  0  0  0  0  0
    7.4023   -0.6608   20.9048 N   0  0  0  0  0  0  0  0  0  0  0  0
    6.6905    0.0196   19.8873 C   0  0  0  0  0  0  0  0  0  0  0  0
    5.4711    0.6639   20.1472 C   0  0  0  0  0  0  0  0  0  0  0  0
    4.8258    1.3087   19.0910 C   0  0  0  0  0  0  0  0  0  0  0  0
    5.4178    1.2882   17.8244 C   0  0  0  0  0  0  0  0  0  0  0  0
    6.5800    0.6617   17.5688 N   0  0  0  0  0  0  0  0  0  0  0  0
    7.2015    0.0507   18.5803 C   0  0  0  0  0  0  0  0  0  0  0  0
    8.1489   -0.4401   18.3618 H   0  0  0  0  0  0  0  0  0  0  0  0
    4.9435    1.7909   16.9841 H   0  0  0  0  0  0  0  0  0  0  0  0
    3.8864    1.8315   19.2435 H   0  0  0  0  0  0  0  0  0  0  0  0
    5.0477    0.6858   21.1517 H   0  0  0  0  0  0  0  0  0  0  0  0
    8.7220   -0.9288   20.7942 N   0  0  0  0  0  0  0  0  0  0  0  0
    9.0270   -1.5750   21.9066 C   0  0  0  0  0  0  0  0  0  0  0  0
   10.0412   -1.9206   22.0612 H   0  0  0  0  0  0  0  0  0  0  0  0
    5.8346   -1.1043   22.2630 H   0  0  0  0  0  0  0  0  0  0  0  0
    5.8565   -4.8962   25.5431 H   0  0  0  0  0  0  0  0  0  0  0  0
    7.5435   -4.5509   27.3852 H   0  0  0  0  0  0  0  0  0  0  0  0
    9.3532   -2.8606   27.0645 H   0  0  0  0  0  0  0  0  0  0  0  0
    9.5864   -0.6259   24.4177 H   0  0  0  0  0  0  0  0  0  0  0  0
   10.2239   -1.1967   25.8254 H   0  0  0  0  0  0  0  0  0  0  0  0
  1  2  1  0
  2  3  2  0
  3  4  1  0
  4  5  2  0
  5  6  1  0
  6  7  1  0
  6  8  2  0
  8  9  1  0
  9 10  2  0
 10 11  1  0
 11 12  1  0
 12 13  2  0
 13 14  1  0
 14 15  2  0
 15 16  1  0
 16 17  2  0
 17 18  1  0
 15 19  1  0
 14 20  1  0
 13 21  1  0
 11 22  1  0
 22 23  2  0
 23 24  1  0
 10 25  1  0
  5 26  1  0
  4 27  1  0
  3 28  1  0
  1 29  1  0
  1 30  1  0
  8  2  1  0
 23  9  1  0
 17 12  1  0
M  END
>  <cnnaffinity>  (1) 
-5.15304

>  <filename>  (1) 
Nc1cccc(F)c1-c1cnn(-c2cccnc2)c1

$$$$
