
     RDKit          3D

 31 33  0  0  0  0  0  0  0  0999 V2000
    4.9313    1.7941   16.9965 H   0  0  0  0  0  0  0  0  0  0  0  0
    5.3981    1.2896   17.8368 C   0  0  0  0  0  0  0  0  0  0  0  0
    6.5539    0.6607   17.5731 N   0  0  0  0  0  0  0  0  0  0  0  0
    7.1726    0.0428   18.5856 C   0  0  0  0  0  0  0  0  0  0  0  0
    8.1255   -0.4324   18.3592 H   0  0  0  0  0  0  0  0  0  0  0  0
    6.6532   -0.0027   19.8956 C   0  0  0  0  0  0  0  0  0  0  0  0
    7.3323   -0.6900   20.9493 N   0  0  0  0  0  0  0  0  0  0  0  0
    6.7348   -1.6068   21.8021 C   0  0  0  0  0  0  0  0  0  0  0  0
    5.6867   -1.8437   21.7024 H   0  0  0  0  0  0  0  0  0  0  0  0
    7.6742   -2.0698   22.6653 C   0  0  0  0  0  0  0  0  0  0  0  0
    7.5649   -3.0131   23.7777 C   0  0  0  0  0  0  0  0  0  0  0  0
    8.6697   -3.6906   24.3360 C   0  0  0  0  0  0  0  0  0  0  0  0
    9.6703   -3.5157   23.9422 H   0  0  0  0  0  0  0  0  0  0  0  0
    8.5039   -4.6004   25.3753 C   0  0  0  0  0  0  0  0  0  0  0  0
    9.3475   -5.1275   25.8153 H   0  0  0  0  0  0  0  0  0  0  0  0
    7.2178   -4.8585   25.8891 C   0  0  0  0  0  0  0  0  0  0  0  0
    7.0513   -5.7425   26.9071 N   0  0  0  0  0  0  0  0  0  0  0  0
    7.8463   -6.2292   27.2786 H   0  0  0  0  0  0  0  0  0  0  0  0
    6.1302   -5.9322   27.2562 H   0  0  0  0  0  0  0  0  0  0  0  0
    6.1061   -4.1903   25.3462 C   0  0  0  0  0  0  0  0  0  0  0  0
    5.1210   -4.4037   25.7529 H   0  0  0  0  0  0  0  0  0  0  0  0
    6.2868   -3.2818   24.3122 C   0  0  0  0  0  0  0  0  0  0  0  0
    5.4260   -2.7554   23.9063 H   0  0  0  0  0  0  0  0  0  0  0  0
    8.8494   -1.4204   22.3071 N   0  0  0  0  0  0  0  0  0  0  0  0
    9.7473   -1.4153   22.7506 H   0  0  0  0  0  0  0  0  0  0  0  0
    8.6538   -0.5268   21.3054 C   0  0  0  0  0  0  0  0  0  0  0  0
    9.8113    0.5263   20.7698 S   0  0  0  0  0  0  0  0  0  0  0  0
    5.4428    0.6456   20.1581 C   0  0  0  0  0  0  0  0  0  0  0  0
    5.0362    0.6318   21.1717 H   0  0  0  0  0  0  0  0  0  0  0  0
    4.8080    1.3102   19.1058 C   0  0  0  0  0  0  0  0  0  0  0  0
    3.8768    1.8437   19.2581 H   0  0  0  0  0  0  0  0  0  0  0  0
  1  2  1  0
  2  3  2  0
  3  4  1  0
  4  5  1  0
  4  6  2  0
  6  7  1  0
  7  8  1  0
  8  9  1  0
  8 10  2  0
 10 11  1  0
 11 12  2  0
 12 13  1  0
 12 14  1  0
 14 15  1  0
 14 16  2  0
 16 17  1  0
 17 18  1  0
 17 19  1  0
 16 20  1  0
 20 21  1  0
 20 22  2  0
 22 23  1  0
 10 24  1  0
 24 25  1  0
 24 26  1  0
 26 27  2  0
  6 28  1  0
 28 29  1  0
 28 30  2  0
 30 31  1  0
 30  2  1  0
 26  7  1  0
 22 11  1  0
M  END
>  <cnnaffinity>  (1) 
-5.44631

>  <filename>  (1) 
Nc1ccc(-c2cn(-c3cccnc3)c(=S)[nH]2)cc1

$$$$
