
     RDKit          3D

 31 33  0  0  0  0  0  0  0  0999 V2000
    4.9070    1.7757   17.0017 H   0  0  0  0  0  0  0  0  0  0  0  0
    5.3980    1.2938   17.8427 C   0  0  0  0  0  0  0  0  0  0  0  0
    6.5632    0.6785   17.5792 N   0  0  0  0  0  0  0  0  0  0  0  0
    7.1807    0.0588   18.5925 C   0  0  0  0  0  0  0  0  0  0  0  0
    8.1294   -0.4309   18.3815 H   0  0  0  0  0  0  0  0  0  0  0  0
    6.6670    0.0022   19.9086 C   0  0  0  0  0  0  0  0  0  0  0  0
    7.3580   -0.6858   20.9497 N   0  0  0  0  0  0  0  0  0  0  0  0
    6.7694   -1.4501   21.9515 C   0  0  0  0  0  0  0  0  0  0  0  0
    5.7021   -1.5995   21.9863 H   0  0  0  0  0  0  0  0  0  0  0  0
    7.7412   -1.9416   22.7544 C   0  0  0  0  0  0  0  0  0  0  0  0
    7.6186   -2.7951   23.9382 C   0  0  0  0  0  0  0  0  0  0  0  0
    6.3705   -2.8591   24.5821 C   0  0  0  0  0  0  0  0  0  0  0  0
    5.5298   -2.2686   24.2232 H   0  0  0  0  0  0  0  0  0  0  0  0
    6.2194   -3.6708   25.7011 C   0  0  0  0  0  0  0  0  0  0  0  0
    5.2534   -3.7138   26.1962 H   0  0  0  0  0  0  0  0  0  0  0  0
    7.2926   -4.4214   26.1856 C   0  0  0  0  0  0  0  0  0  0  0  0
    7.1613   -5.0492   27.0575 H   0  0  0  0  0  0  0  0  0  0  0  0
    8.5478   -4.3720   25.5509 C   0  0  0  0  0  0  0  0  0  0  0  0
    9.6055   -5.1091   26.0230 N   0  0  0  0  0  0  0  0  0  0  0  0
    9.5105   -5.7025   26.8264 H   0  0  0  0  0  0  0  0  0  0  0  0
   10.5056   -5.0841   25.5805 H   0  0  0  0  0  0  0  0  0  0  0  0
    8.6961   -3.5536   24.4237 C   0  0  0  0  0  0  0  0  0  0  0  0
    9.6566   -3.5245   23.9218 H   0  0  0  0  0  0  0  0  0  0  0  0
    8.9453   -1.4762   22.2320 N   0  0  0  0  0  0  0  0  0  0  0  0
    9.8719   -1.6046   22.5918 H   0  0  0  0  0  0  0  0  0  0  0  0
    8.7516   -0.6802   21.1338 C   0  0  0  0  0  0  0  0  0  0  0  0
    9.5945   -0.1069   20.4742 O   0  0  0  0  0  0  0  0  0  0  0  0
    5.4468    0.6455   20.1622 C   0  0  0  0  0  0  0  0  0  0  0  0
    5.0159    0.6293   21.1632 H   0  0  0  0  0  0  0  0  0  0  0  0
    4.8075    1.3117   19.1112 C   0  0  0  0  0  0  0  0  0  0  0  0
    3.8725    1.8445   19.2672 H   0  0  0  0  0  0  0  0  0  0  0  0
  1  2  1  0
  2  3  2  0
  3  4  1  0
  4  5  1  0
  4  6  2  0
  6  7  1  0
  7  8  1  0
  8  9  1  0
  8 10  2  0
 10 11  1  0
 11 12  2  0
 12 13  1  0
 12 14  1  0
 14 15  1  0
 14 16  2  0
 16 17  1  0
 16 18  1  0
 18 19  1  0
 19 20  1  0
 19 21  1  0
 18 22  2  0
 22 23  1  0
 10 24  1  0
 24 25  1  0
 24 26  1  0
 26 27  2  0
  6 28  1  0
 28 29  1  0
 28 30  2  0
 30 31  1  0
 30  2  1  0
 26  7  1  0
 22 11  1  0
M  END
>  <cnnaffinity>  (1) 
-5.22958

>  <filename>  (1) 
Nc1cccc(-c2cn(-c3cccnc3)c(=O)[nH]2)c1

$$$$
