
     RDKit          3D

 32 34  0  0  0  0  0  0  0  0999 V2000
    4.9115    1.7974   16.9803 H   0  0  0  0  0  0  0  0  0  0  0  0
    5.3890    1.3048   17.8207 C   0  0  0  0  0  0  0  0  0  0  0  0
    6.5544    0.6907   17.5493 N   0  0  0  0  0  0  0  0  0  0  0  0
    7.1577    0.0655   18.5662 C   0  0  0  0  0  0  0  0  0  0  0  0
    8.1156   -0.4009   18.3368 H   0  0  0  0  0  0  0  0  0  0  0  0
    6.6500    0.0122   19.8818 C   0  0  0  0  0  0  0  0  0  0  0  0
    7.3678   -0.6569   20.9733 C   0  0  0  0  0  0  0  0  0  0  0  0
    7.5142   -0.3202   22.3154 C   0  0  0  0  0  0  0  0  0  0  0  0
    7.0289    0.8369   22.9302 N   0  0  0  0  0  0  0  0  0  0  0  0
    6.9845    1.6422   22.3260 H   0  0  0  0  0  0  0  0  0  0  0  0
    6.8192    1.0345   24.2991 C   0  0  0  0  0  0  0  0  0  0  0  0
    6.3559   -0.0090   25.1111 C   0  0  0  0  0  0  0  0  0  0  0  0
    6.1768   -0.9655   24.6367 H   0  0  0  0  0  0  0  0  0  0  0  0
    6.1412    0.1756   26.4733 C   0  0  0  0  0  0  0  0  0  0  0  0
    5.7903   -0.6419   27.0921 H   0  0  0  0  0  0  0  0  0  0  0  0
    6.3733    1.4281   27.0668 C   0  0  0  0  0  0  0  0  0  0  0  0
    6.1459    1.6140   28.4055 N   0  0  0  0  0  0  0  0  0  0  0  0
    5.8392    0.8512   28.9824 H   0  0  0  0  0  0  0  0  0  0  0  0
    6.3169    2.5016   28.8387 H   0  0  0  0  0  0  0  0  0  0  0  0
    6.8276    2.4847   26.2553 C   0  0  0  0  0  0  0  0  0  0  0  0
    6.9958    3.4520   26.7179 H   0  0  0  0  0  0  0  0  0  0  0  0
    7.0386    2.2887   24.8886 C   0  0  0  0  0  0  0  0  0  0  0  0
    7.3917    3.1074   24.2719 H   0  0  0  0  0  0  0  0  0  0  0  0
    8.2877   -1.3763   22.8601 C   0  0  0  0  0  0  0  0  0  0  0  0
    8.6245   -1.4661   23.8794 H   0  0  0  0  0  0  0  0  0  0  0  0
    8.6039   -2.2909   21.9506 N   0  0  0  0  0  0  0  0  0  0  0  0
    8.0481   -1.8243   20.8238 N   0  0  0  0  0  0  0  0  0  0  0  0
    8.1334   -2.3620   19.9783 H   0  0  0  0  0  0  0  0  0  0  0  0
    5.4319    0.6618   20.1422 C   0  0  0  0  0  0  0  0  0  0  0  0
    5.0174    0.6253   21.1523 H   0  0  0  0  0  0  0  0  0  0  0  0
    4.7946    1.3184   19.0890 C   0  0  0  0  0  0  0  0  0  0  0  0
    3.8642    1.8487   19.2465 H   0  0  0  0  0  0  0  0  0  0  0  0
  1  2  1  0
  2  3  2  0
  3  4  1  0
  4  5  1  0
  4  6  2  0
  6  7  1  0
  7  8  2  0
  8  9  1  0
  9 10  1  0
  9 11  1  0
 11 12  2  0
 12 13  1  0
 12 14  1  0
 14 15  1  0
 14 16  2  0
 16 17  1  0
 17 18  1  0
 17 19  1  0
 16 20  1  0
 20 21  1  0
 20 22  2  0
 22 23  1  0
  8 24  1  0
 24 25  1  0
 24 26  2  0
 26 27  1  0
 27 28  1  0
  6 29  1  0
 29 30  1  0
 29 31  2  0
 31 32  1  0
 31  2  1  0
 27  7  1  0
 22 11  1  0
M  END
>  <cnnaffinity>  (1) 
-5.24743

>  <filename>  (1) 
Nc1ccc(Nc2cn[nH]c2-c2cccnc2)cc1

$$$$
