
     RDKit          3D

 29 31  0  0  0  0  0  0  0  0999 V2000
    7.3443   -3.1523   21.2681 H   0  0  0  0  0  0  0  0  0  0  0  0
    7.8321   -3.5260   22.1603 C   0  0  0  0  0  0  0  0  0  0  0  0
    8.0988   -4.8494   22.2110 N   0  0  0  0  0  0  0  0  0  0  0  0
    8.6753   -5.2741   23.3463 C   0  0  0  0  0  0  0  0  0  0  0  0
    8.8131   -6.6317   23.3527 N   0  0  0  0  0  0  0  0  0  0  0  0
    8.7229   -6.9074   22.3875 H   0  0  0  0  0  0  0  0  0  0  0  0
    9.5947   -7.0282   23.8472 H   0  0  0  0  0  0  0  0  0  0  0  0
    9.0610   -4.3747   24.3984 C   0  0  0  0  0  0  0  0  0  0  0  0
    9.6136   -4.7626   25.2543 H   0  0  0  0  0  0  0  0  0  0  0  0
    8.7769   -3.0780   24.3466 N   0  0  0  0  0  0  0  0  0  0  0  0
    8.1422   -2.6361   23.2140 C   0  0  0  0  0  0  0  0  0  0  0  0
    7.7867   -1.2230   23.1889 C   0  0  0  0  0  0  0  0  0  0  0  0
    7.4003   -0.3703   22.1732 C   0  0  0  0  0  0  0  0  0  0  0  0
    7.3075   -0.7771   20.8714 O   0  0  0  0  0  0  0  0  0  0  0  0
    6.6386   -0.0219   19.9301 C   0  0  0  0  0  0  0  0  0  0  0  0
    7.1869    0.0286   18.6379 C   0  0  0  0  0  0  0  0  0  0  0  0
    8.1383   -0.4656   18.4401 H   0  0  0  0  0  0  0  0  0  0  0  0
    6.6006    0.6652   17.6144 N   0  0  0  0  0  0  0  0  0  0  0  0
    5.4310    1.2876   17.8468 C   0  0  0  0  0  0  0  0  0  0  0  0
    4.9691    1.7919   16.9985 H   0  0  0  0  0  0  0  0  0  0  0  0
    4.8125    1.2911   19.0995 C   0  0  0  0  0  0  0  0  0  0  0  0
    3.8775    1.8199   19.2377 H   0  0  0  0  0  0  0  0  0  0  0  0
    5.4222    0.6240   20.1677 C   0  0  0  0  0  0  0  0  0  0  0  0
    4.9890    0.6213   21.1665 H   0  0  0  0  0  0  0  0  0  0  0  0
    7.2170    0.8900   22.7859 C   0  0  0  0  0  0  0  0  0  0  0  0
    6.9483    1.8311   22.3302 H   0  0  0  0  0  0  0  0  0  0  0  0
    7.4525    0.8129   24.0924 N   0  0  0  0  0  0  0  0  0  0  0  0
    7.7808   -0.4557   24.3117 N   0  0  0  0  0  0  0  0  0  0  0  0
    8.0409   -0.7822   25.2358 H   0  0  0  0  0  0  0  0  0  0  0  0
  1  2  1  0
  2  3  2  0
  3  4  1  0
  4  5  1  0
  5  6  1  0
  5  7  1  0
  4  8  2  0
  8  9  1  0
  8 10  1  0
 10 11  2  0
 11 12  1  0
 12 13  2  0
 13 14  1  0
 14 15  1  0
 15 16  2  0
 16 17  1  0
 16 18  1  0
 18 19  2  0
 19 20  1  0
 19 21  1  0
 21 22  1  0
 21 23  2  0
 23 24  1  0
 13 25  1  0
 25 26  1  0
 25 27  2  0
 27 28  1  0
 28 29  1  0
 11  2  1  0
 28 12  1  0
 23 15  1  0
M  END
>  <cnnaffinity>  (1) 
-5.51169

>  <filename>  (1) 
Nc1cnc(-c2[nH]ncc2Oc2cccnc2)cn1

$$$$
