
     RDKit          3D

 31 33  0  0  0  0  0  0  0  0999 V2000
    4.9219    1.8042   16.9677 H   0  0  0  0  0  0  0  0  0  0  0  0
    5.3941    1.3048   17.8146 C   0  0  0  0  0  0  0  0  0  0  0  0
    6.5583    0.6845   17.5634 N   0  0  0  0  0  0  0  0  0  0  0  0
    7.1712    0.0687   18.5824 C   0  0  0  0  0  0  0  0  0  0  0  0
    8.1072   -0.4231   18.3223 H   0  0  0  0  0  0  0  0  0  0  0  0
    6.6682    0.0132   19.8967 C   0  0  0  0  0  0  0  0  0  0  0  0
    7.3398   -0.7090   20.9829 C   0  0  0  0  0  0  0  0  0  0  0  0
    6.8244   -1.2418   22.1085 C   0  0  0  0  0  0  0  0  0  0  0  0
    5.8056   -1.3167   22.4177 H   0  0  0  0  0  0  0  0  0  0  0  0
    7.8444   -1.8026   22.8599 N   0  0  0  0  0  0  0  0  0  0  0  0
    7.6503   -2.4599   24.1199 C   0  0  0  0  0  0  0  0  0  0  0  0
    6.8390   -1.8535   25.0922 C   0  0  0  0  0  0  0  0  0  0  0  0
    6.3706   -0.9009   24.8676 H   0  0  0  0  0  0  0  0  0  0  0  0
    6.6636   -2.4821   26.3285 C   0  0  0  0  0  0  0  0  0  0  0  0
    6.0403   -2.0176   27.0895 H   0  0  0  0  0  0  0  0  0  0  0  0
    7.2776   -3.7078   26.5832 C   0  0  0  0  0  0  0  0  0  0  0  0
    7.1626   -4.2202   27.5322 H   0  0  0  0  0  0  0  0  0  0  0  0
    8.0687   -4.3172   25.5954 C   0  0  0  0  0  0  0  0  0  0  0  0
    8.6479   -5.5261   25.8331 N   0  0  0  0  0  0  0  0  0  0  0  0
    8.5629   -5.9469   26.7389 H   0  0  0  0  0  0  0  0  0  0  0  0
    9.2701   -5.9220   25.1552 H   0  0  0  0  0  0  0  0  0  0  0  0
    8.2577   -3.6898   24.3572 C   0  0  0  0  0  0  0  0  0  0  0  0
    8.8969   -4.1459   23.6097 H   0  0  0  0  0  0  0  0  0  0  0  0
    9.0408   -1.6211   22.2034 C   0  0  0  0  0  0  0  0  0  0  0  0
   10.6067   -1.9995   22.6029 S   0  0  0  0  0  0  0  0  0  0  0  0
    8.6965   -0.9804   21.0513 N   0  0  0  0  0  0  0  0  0  0  0  0
    9.4397   -0.6770   20.4471 H   0  0  0  0  0  0  0  0  0  0  0  0
    5.4424    0.6652   20.1303 C   0  0  0  0  0  0  0  0  0  0  0  0
    5.0096    0.6645   21.1309 H   0  0  0  0  0  0  0  0  0  0  0  0
    4.8002    1.3212   19.0806 C   0  0  0  0  0  0  0  0  0  0  0  0
    3.8650    1.8514   19.2266 H   0  0  0  0  0  0  0  0  0  0  0  0
  1  2  1  0
  2  3  2  0
  3  4  1  0
  4  5  1  0
  4  6  2  0
  6  7  1  0
  7  8  2  0
  8  9  1  0
  8 10  1  0
 10 11  1  0
 11 12  2  0
 12 13  1  0
 12 14  1  0
 14 15  1  0
 14 16  2  0
 16 17  1  0
 16 18  1  0
 18 19  1  0
 19 20  1  0
 19 21  1  0
 18 22  2  0
 22 23  1  0
 10 24  1  0
 24 25  2  0
 24 26  1  0
 26 27  1  0
  6 28  1  0
 28 29  1  0
 28 30  2  0
 30 31  1  0
 30  2  1  0
 26  7  1  0
 22 11  1  0
M  END
>  <cnnaffinity>  (1) 
-5.53213

>  <filename>  (1) 
Nc1cccc(-n2cc(-c3cccnc3)[nH]c2=S)c1

$$$$
