
     RDKit          3D

 33 35  0  0  0  0  0  0  0  0999 V2000
    4.9989    1.8344   16.9350 H   0  0  0  0  0  0  0  0  0  0  0  0
    5.4597    1.3134   17.7697 C   0  0  0  0  0  0  0  0  0  0  0  0
    6.6119    0.6783   17.5069 N   0  0  0  0  0  0  0  0  0  0  0  0
    7.2092    0.0435   18.5258 C   0  0  0  0  0  0  0  0  0  0  0  0
    8.1363   -0.4727   18.2739 H   0  0  0  0  0  0  0  0  0  0  0  0
    6.7080   -0.0081   19.8470 C   0  0  0  0  0  0  0  0  0  0  0  0
    7.4546   -0.7161   20.9416 C   0  0  0  0  0  0  0  0  0  0  0  0
    6.7892   -1.5665   21.8894 C   0  0  0  0  0  0  0  0  0  0  0  0
    5.7089   -1.7112   21.8091 H   0  0  0  0  0  0  0  0  0  0  0  0
    7.4963   -2.2167   22.8594 C   0  0  0  0  0  0  0  0  0  0  0  0
    7.0431   -2.8706   23.5930 H   0  0  0  0  0  0  0  0  0  0  0  0
    8.9449   -2.0998   22.9902 C   0  0  0  0  0  0  0  0  0  0  0  0
    9.5885   -2.7334   23.8110 O   0  0  0  0  0  0  0  0  0  0  0  0
    9.5400   -1.1715   22.0835 N   0  0  0  0  0  0  0  0  0  0  0  0
   10.9355   -0.8601   22.2301 C   0  0  0  0  0  0  0  0  0  0  0  0
   11.3192    0.4676   22.4493 C   0  0  0  0  0  0  0  0  0  0  0  0
   10.5439    1.2149   22.5591 H   0  0  0  0  0  0  0  0  0  0  0  0
   12.6765    0.7962   22.4893 C   0  0  0  0  0  0  0  0  0  0  0  0
   12.9820    1.8221   22.6745 H   0  0  0  0  0  0  0  0  0  0  0  0
   13.6343   -0.1936   22.2647 C   0  0  0  0  0  0  0  0  0  0  0  0
   14.6913    0.0388   22.2027 H   0  0  0  0  0  0  0  0  0  0  0  0
   13.2402   -1.5255   22.0859 C   0  0  0  0  0  0  0  0  0  0  0  0
   14.2228   -2.4859   21.8593 N   0  0  0  0  0  0  0  0  0  0  0  0
   14.9384   -2.4545   22.5754 H   0  0  0  0  0  0  0  0  0  0  0  0
   13.8475   -3.4233   21.7613 H   0  0  0  0  0  0  0  0  0  0  0  0
   11.8879   -1.8721   22.1319 C   0  0  0  0  0  0  0  0  0  0  0  0
   11.5834   -2.9103   22.1922 H   0  0  0  0  0  0  0  0  0  0  0  0
    8.8081   -0.5526   21.0843 C   0  0  0  0  0  0  0  0  0  0  0  0
    9.3788    0.0897   20.4177 H   0  0  0  0  0  0  0  0  0  0  0  0
    5.4882    0.6520   20.0815 C   0  0  0  0  0  0  0  0  0  0  0  0
    5.0652    0.6682   21.0854 H   0  0  0  0  0  0  0  0  0  0  0  0
    4.8565    1.3217   19.0304 C   0  0  0  0  0  0  0  0  0  0  0  0
    3.9186    1.8466   19.1758 H   0  0  0  0  0  0  0  0  0  0  0  0
  1  2  1  0
  2  3  2  0
  3  4  1  0
  4  5  1  0
  4  6  2  0
  6  7  1  0
  7  8  1  0
  8  9  1  0
  8 10  2  0
 10 11  1  0
 10 12  1  0
 12 13  2  0
 12 14  1  0
 14 15  1  0
 15 16  2  0
 16 17  1  0
 16 18  1  0
 18 19  1  0
 18 20  2  0
 20 21  1  0
 20 22  1  0
 22 23  1  0
 23 24  1  0
 23 25  1  0
 22 26  2  0
 26 27  1  0
 14 28  1  0
 28 29  1  0
  6 30  1  0
 30 31  1  0
 30 32  2  0
 32 33  1  0
 32  2  1  0
 28  7  2  0
 26 15  1  0
M  END
>  <cnnaffinity>  (1) 
-5.77256

>  <filename>  (1) 
Nc1cccc(-n2cc(-c3cccnc3)ccc2=O)c1

$$$$
