
     RDKit          3D

 32 34  0  0  0  0  0  0  0  0999 V2000
   12.0771   -0.9775   22.8420 H   0  0  0  0  0  0  0  0  0  0  0  0
   11.4062   -0.1937   22.5144 C   0  0  0  0  0  0  0  0  0  0  0  0
   10.0966   -0.4630   22.4712 N   0  0  0  0  0  0  0  0  0  0  0  0
    9.2871    0.5388   22.0608 C   0  0  0  0  0  0  0  0  0  0  0  0
    7.8290    0.2079   22.1112 C   0  0  2  0  0  0  0  0  0  0  0  0
    7.2503    1.1370   22.1349 H   0  0  0  0  0  0  0  0  0  0  0  0
    7.4985   -0.5438   23.3971 C   0  0  0  0  0  0  0  0  0  0  0  0
    7.6651   -0.1761   24.5392 O   0  0  0  0  0  0  0  0  0  0  0  0
    6.9225   -1.7221   23.0530 N   0  0  0  0  0  0  0  0  0  0  0  0
    6.4527   -2.1814   23.8171 H   0  0  0  0  0  0  0  0  0  0  0  0
    6.5906   -1.8728   21.6486 C   0  0  0  0  0  0  0  0  0  0  0  0
    5.5099   -1.7600   21.4671 H   0  0  0  0  0  0  0  0  0  0  0  0
    6.8907   -2.8639   21.2808 H   0  0  0  0  0  0  0  0  0  0  0  0
    7.3979   -0.7378   20.9588 C   0  0  1  0  0  0  0  0  0  0  0  0
    8.2965   -1.1980   20.5329 H   0  0  0  0  0  0  0  0  0  0  0  0
    6.6656   -0.0069   19.8571 C   0  0  0  0  0  0  0  0  0  0  0  0
    7.1714    0.0668   18.5451 C   0  0  0  0  0  0  0  0  0  0  0  0
    8.1236   -0.4104   18.2999 H   0  0  0  0  0  0  0  0  0  0  0  0
    6.5632    0.6973   17.5328 N   0  0  0  0  0  0  0  0  0  0  0  0
    5.4007    1.3105   17.8031 C   0  0  0  0  0  0  0  0  0  0  0  0
    4.9216    1.8222   16.9721 H   0  0  0  0  0  0  0  0  0  0  0  0
    4.8114    1.3164   19.0704 C   0  0  0  0  0  0  0  0  0  0  0  0
    3.8772    1.8409   19.2294 H   0  0  0  0  0  0  0  0  0  0  0  0
    5.4551    0.6512   20.1125 C   0  0  0  0  0  0  0  0  0  0  0  0
    5.0316    0.6463   21.1195 H   0  0  0  0  0  0  0  0  0  0  0  0
    9.8259    1.7489   21.5619 C   0  0  0  0  0  0  0  0  0  0  0  0
    9.1695    2.5034   21.1318 H   0  0  0  0  0  0  0  0  0  0  0  0
   11.1439    2.0258   21.5843 N   0  0  0  0  0  0  0  0  0  0  0  0
   11.9239    1.0789   22.1249 C   0  0  0  0  0  0  0  0  0  0  0  0
   13.2202    1.5215   22.2662 N   0  0  0  0  0  0  0  0  0  0  0  0
   13.9250    0.8614   21.9777 H   0  0  0  0  0  0  0  0  0  0  0  0
   13.2359    2.3505   21.6757 H   0  0  0  0  0  0  0  0  0  0  0  0
  1  2  1  0
  2  3  2  0
  3  4  1  0
  4  5  1  0
  5  6  1  1
  5  7  1  0
  7  8  2  0
  7  9  1  0
  9 10  1  0
  9 11  1  0
 11 12  1  0
 11 13  1  0
 11 14  1  0
 14 15  1  6
 14 16  1  0
 16 17  2  0
 17 18  1  0
 17 19  1  0
 19 20  2  0
 20 21  1  0
 20 22  1  0
 22 23  1  0
 22 24  2  0
 24 25  1  0
  4 26  2  0
 26 27  1  0
 26 28  1  0
 28 29  2  0
 29 30  1  0
 30 31  1  0
 30 32  1  0
 29  2  1  0
 14  5  1  0
 24 16  1  0
M  END
>  <cnnaffinity>  (1) 
-5.28272

>  <filename>  (1) 
Nc1cnc([C@@H]2C(=O)NC[C@H]2c2cccnc2)cn1

$$$$
