
     RDKit          3D

 31 34  0  0  0  0  0  0  0  0999 V2000
    5.0363    1.7801   16.9694 H   0  0  0  0  0  0  0  0  0  0  0  0
    5.4559    1.2699   17.8354 C   0  0  0  0  0  0  0  0  0  0  0  0
    6.6119    0.6228   17.6342 N   0  0  0  0  0  0  0  0  0  0  0  0
    7.1661    0.0036   18.6795 C   0  0  0  0  0  0  0  0  0  0  0  0
    8.1073   -0.5044   18.4848 H   0  0  0  0  0  0  0  0  0  0  0  0
    6.6033   -0.0104   19.9638 C   0  0  0  0  0  0  0  0  0  0  0  0
    7.3388   -0.7023   21.0289 C   0  0  0  0  0  0  0  0  0  0  0  0
    8.5316   -1.3298   20.8034 N   0  0  0  0  0  0  0  0  0  0  0  0
    8.8301   -1.7755   22.0039 C   0  0  0  0  0  0  0  0  0  0  0  0
   10.1094   -2.6758   22.7743 S   0  0  0  0  0  0  0  0  0  0  0  0
    9.2815   -2.5373   24.2995 C   0  0  0  0  0  0  0  0  0  0  0  0
    9.6817   -3.0118   25.1848 H   0  0  0  0  0  0  0  0  0  0  0  0
    8.1211   -1.8565   24.2248 C   0  0  0  0  0  0  0  0  0  0  0  0
    7.1976   -1.5997   25.3420 C   0  0  0  0  0  0  0  0  0  0  0  0
    5.8104   -1.7358   25.1800 C   0  0  0  0  0  0  0  0  0  0  0  0
    5.4514   -2.1285   24.2370 H   0  0  0  0  0  0  0  0  0  0  0  0
    4.8981   -1.4334   26.1100 N   0  0  0  0  0  0  0  0  0  0  0  0
    5.3665   -0.9276   27.2448 C   0  0  0  0  0  0  0  0  0  0  0  0
    4.3737   -0.4905   28.0754 N   0  0  0  0  0  0  0  0  0  0  0  0
    3.5449   -0.9216   27.6897 H   0  0  0  0  0  0  0  0  0  0  0  0
    4.5452   -0.7346   29.0360 H   0  0  0  0  0  0  0  0  0  0  0  0
    6.7217   -0.8220   27.5721 C   0  0  0  0  0  0  0  0  0  0  0  0
    6.9780   -0.3799   28.5231 H   0  0  0  0  0  0  0  0  0  0  0  0
    7.6518   -1.1995   26.6173 C   0  0  0  0  0  0  0  0  0  0  0  0
    8.7147   -1.1630   26.8560 H   0  0  0  0  0  0  0  0  0  0  0  0
    7.8795   -1.4467   22.9017 N   0  0  0  0  0  0  0  0  0  0  0  0
    6.8944   -0.7457   22.2776 N   0  0  0  0  0  0  0  0  0  0  0  0
    5.3850    0.6632   20.1658 C   0  0  0  0  0  0  0  0  0  0  0  0
    4.9139    0.6903   21.1506 H   0  0  0  0  0  0  0  0  0  0  0  0
    4.8064    1.3072   19.0740 C   0  0  0  0  0  0  0  0  0  0  0  0
    3.8755    1.8540   19.1648 H   0  0  0  0  0  0  0  0  0  0  0  0
  1  2  1  0
  2  3  2  0
  3  4  1  0
  4  5  1  0
  4  6  2  0
  6  7  1  0
  7  8  1  0
  8  9  2  0
  9 10  1  0
 10 11  1  0
 11 12  1  0
 11 13  2  0
 13 14  1  0
 14 15  2  0
 15 16  1  0
 15 17  1  0
 17 18  2  0
 18 19  1  0
 19 20  1  0
 19 21  1  0
 18 22  1  0
 22 23  1  0
 22 24  2  0
 24 25  1  0
 13 26  1  0
 26 27  1  0
  6 28  1  0
 28 29  1  0
 28 30  2  0
 30 31  1  0
 30  2  1  0
 27  7  2  0
 26  9  1  0
 24 14  1  0
M  END
>  <cnnaffinity>  (1) 
-5.50259

>  <filename>  (1) 
Nc1ccc(-c2csc3nc(-c4cccnc4)nn23)cn1

$$$$
