
     RDKit          3D

 36 39  0  0  0  0  0  0  0  0999 V2000
    4.9145    1.9838   16.5253 H   0  0  0  0  0  0  0  0  0  0  0  0
    5.2245    1.5341   17.4646 C   0  0  0  0  0  0  0  0  0  0  0  0
    6.3687    0.8337   17.4205 N   0  0  0  0  0  0  0  0  0  0  0  0
    6.8050    0.3137   18.5731 C   0  0  0  0  0  0  0  0  0  0  0  0
    7.7413   -0.2445   18.5098 H   0  0  0  0  0  0  0  0  0  0  0  0
    6.1499    0.4544   19.8118 C   0  0  0  0  0  0  0  0  0  0  0  0
    6.7559   -0.1200   21.0680 C   0  0  1  0  0  0  0  0  0  0  0  0
    6.1446    0.1939   21.9205 H   0  0  0  0  0  0  0  0  0  0  0  0
    6.7826   -1.6847   21.0677 C   0  0  0  0  0  0  0  0  0  0  0  0
    6.5632   -2.0965   20.0750 H   0  0  0  0  0  0  0  0  0  0  0  0
    6.0580   -2.1171   21.7679 H   0  0  0  0  0  0  0  0  0  0  0  0
    8.1900   -1.9872   21.4548 C   0  0  0  0  0  0  0  0  0  0  0  0
    8.8248   -3.1196   21.6734 N   0  0  0  0  0  0  0  0  0  0  0  0
   10.0822   -2.7074   21.9455 N   0  0  0  0  0  0  0  0  0  0  0  0
   10.7924   -3.4050   22.1120 H   0  0  0  0  0  0  0  0  0  0  0  0
   10.2664   -1.3622   21.8544 C   0  0  0  0  0  0  0  0  0  0  0  0
   11.5674   -0.7216   22.0256 C   0  0  0  0  0  0  0  0  0  0  0  0
   11.6356    0.6726   22.0964 C   0  0  0  0  0  0  0  0  0  0  0  0
   10.7303    1.2748   22.0223 H   0  0  0  0  0  0  0  0  0  0  0  0
   12.7618    1.3575   22.3040 N   0  0  0  0  0  0  0  0  0  0  0  0
   13.8772    0.6478   22.4316 C   0  0  0  0  0  0  0  0  0  0  0  0
   14.9772    1.4351   22.6368 N   0  0  0  0  0  0  0  0  0  0  0  0
   15.3906    1.2369   23.5338 H   0  0  0  0  0  0  0  0  0  0  0  0
   14.5524    2.3564   22.6580 H   0  0  0  0  0  0  0  0  0  0  0  0
   13.9576   -0.7459   22.3555 C   0  0  0  0  0  0  0  0  0  0  0  0
   14.9169   -1.2337   22.4654 H   0  0  0  0  0  0  0  0  0  0  0  0
   12.7800   -1.4378   22.1453 C   0  0  0  0  0  0  0  0  0  0  0  0
   12.7758   -2.5266   22.1101 H   0  0  0  0  0  0  0  0  0  0  0  0
    9.0068   -0.8627   21.5671 C   0  0  0  0  0  0  0  0  0  0  0  0
    8.2234    0.3933   21.3150 C   0  0  0  0  0  0  0  0  0  0  0  0
    8.5985    0.9457   20.4422 H   0  0  0  0  0  0  0  0  0  0  0  0
    8.2507    1.1154   22.1428 H   0  0  0  0  0  0  0  0  0  0  0  0
    4.9347    1.1499   19.8206 C   0  0  0  0  0  0  0  0  0  0  0  0
    4.3855    1.2596   20.7583 H   0  0  0  0  0  0  0  0  0  0  0  0
    4.4672    1.7034   18.6274 C   0  0  0  0  0  0  0  0  0  0  0  0
    3.5498    2.2795   18.5942 H   0  0  0  0  0  0  0  0  0  0  0  0
  1  2  1  0
  2  3  2  0
  3  4  1  0
  4  5  1  0
  4  6  2  0
  6  7  1  0
  7  8  1  1
  7  9  1  0
  9 10  1  0
  9 11  1  0
  9 12  1  0
 12 13  2  0
 13 14  1  0
 14 15  1  0
 14 16  1  0
 16 17  1  0
 17 18  2  0
 18 19  1  0
 18 20  1  0
 20 21  2  0
 21 22  1  0
 22 23  1  0
 22 24  1  0
 21 25  1  0
 25 26  1  0
 25 27  2  0
 27 28  1  0
 16 29  2  0
 29 30  1  0
 30 31  1  0
 30 32  1  0
  6 33  1  0
 33 34  1  0
 33 35  2  0
 35 36  1  0
 35  2  1  0
 30  7  1  0
 29 12  1  0
 27 17  1  0
M  END
>  <cnnaffinity>  (1) 
-5.87697

>  <filename>  (1) 
Nc1ccc(-c2[nH]nc3c2C[C@@H](c2cccnc2)C3)cn1

$$$$
