
     RDKit          3D

 34 36  0  0  0  0  0  0  0  0999 V2000
    5.0441    1.8911   16.8589 H   0  0  0  0  0  0  0  0  0  0  0  0
    5.4543    1.3392   17.7028 C   0  0  0  0  0  0  0  0  0  0  0  0
    6.6143    0.7026   17.4800 N   0  0  0  0  0  0  0  0  0  0  0  0
    7.1476    0.0341   18.5106 C   0  0  0  0  0  0  0  0  0  0  0  0
    8.0914   -0.4781   18.3198 H   0  0  0  0  0  0  0  0  0  0  0  0
    6.5659   -0.0423   19.7899 C   0  0  0  0  0  0  0  0  0  0  0  0
    7.2749   -0.7342   20.9396 C   0  0  2  0  0  0  0  0  0  0  0  0
    8.0526   -1.3827   20.5144 H   0  0  0  0  0  0  0  0  0  0  0  0
    6.3837   -1.6737   21.7574 C   0  0  0  0  0  0  0  0  0  0  0  0
    5.5895   -2.5050   21.3647 O   0  0  0  0  0  0  0  0  0  0  0  0
    6.6605   -1.4604   23.0662 N   0  0  0  0  0  0  0  0  0  0  0  0
    6.0112   -1.9023   23.6932 H   0  0  0  0  0  0  0  0  0  0  0  0
    7.4748   -0.3075   23.3727 C   0  0  0  0  0  0  0  0  0  0  0  0
    8.3428   -0.6015   23.9850 H   0  0  0  0  0  0  0  0  0  0  0  0
    6.9294    0.4523   23.9461 H   0  0  0  0  0  0  0  0  0  0  0  0
    7.8927    0.2492   21.9796 C   0  0  1  0  0  0  0  0  0  0  0  0
    7.4526    1.2503   21.8567 H   0  0  0  0  0  0  0  0  0  0  0  0
    9.3992    0.4102   21.8758 C   0  0  0  0  0  0  0  0  0  0  0  0
   10.2383   -0.6960   22.0743 C   0  0  0  0  0  0  0  0  0  0  0  0
    9.7924   -1.6835   22.1741 H   0  0  0  0  0  0  0  0  0  0  0  0
   11.6171   -0.5462   22.2367 C   0  0  0  0  0  0  0  0  0  0  0  0
   12.2352   -1.4057   22.4624 H   0  0  0  0  0  0  0  0  0  0  0  0
   12.1997    0.7323   22.1926 C   0  0  0  0  0  0  0  0  0  0  0  0
   13.5616    0.8701   22.3928 N   0  0  0  0  0  0  0  0  0  0  0  0
   13.9938    0.1101   22.8929 H   0  0  0  0  0  0  0  0  0  0  0  0
   13.8645    1.7783   22.7056 H   0  0  0  0  0  0  0  0  0  0  0  0
   11.3815    1.8347   21.9029 C   0  0  0  0  0  0  0  0  0  0  0  0
   11.8328    2.8190   21.8412 H   0  0  0  0  0  0  0  0  0  0  0  0
    9.9990    1.6730   21.7462 C   0  0  0  0  0  0  0  0  0  0  0  0
    9.3754    2.5500   21.5659 H   0  0  0  0  0  0  0  0  0  0  0  0
    5.3383    0.5972   19.9896 C   0  0  0  0  0  0  0  0  0  0  0  0
    4.8396    0.5341   20.9610 H   0  0  0  0  0  0  0  0  0  0  0  0
    4.7761    1.3114   18.9274 C   0  0  0  0  0  0  0  0  0  0  0  0
    3.8466    1.8563   19.0386 H   0  0  0  0  0  0  0  0  0  0  0  0
  1  2  1  0
  2  3  2  0
  3  4  1  0
  4  5  1  0
  4  6  2  0
  6  7  1  0
  7  8  1  6
  7  9  1  0
  9 10  2  0
  9 11  1  0
 11 12  1  0
 11 13  1  0
 13 14  1  0
 13 15  1  0
 13 16  1  0
 16 17  1  6
 16 18  1  0
 18 19  2  0
 19 20  1  0
 19 21  1  0
 21 22  1  0
 21 23  2  0
 23 24  1  0
 24 25  1  0
 24 26  1  0
 23 27  1  0
 27 28  1  0
 27 29  2  0
 29 30  1  0
  6 31  1  0
 31 32  1  0
 31 33  2  0
 33 34  1  0
 33  2  1  0
 16  7  1  0
 29 18  1  0
M  END
>  <cnnaffinity>  (1) 
-4.96899

>  <filename>  (1) 
Nc1ccc([C@@H]2CNC(=O)[C@H]2c2cccnc2)cc1

$$$$
