
     RDKit          3D

 37 40  0  0  0  0  0  0  0  0999 V2000
    4.9918    1.8375   16.9173 H   0  0  0  0  0  0  0  0  0  0  0  0
    5.3906    1.3073   17.7842 C   0  0  0  0  0  0  0  0  0  0  0  0
    6.5433    0.6488   17.5957 N   0  0  0  0  0  0  0  0  0  0  0  0
    7.0715    0.0278   18.6590 C   0  0  0  0  0  0  0  0  0  0  0  0
    8.0105   -0.4920   18.4756 H   0  0  0  0  0  0  0  0  0  0  0  0
    6.4907   -0.0068   19.9449 C   0  0  0  0  0  0  0  0  0  0  0  0
    7.2447   -0.6231   21.0602 C   0  0  0  0  0  0  0  0  0  0  0  0
    8.5988   -0.5654   21.2951 C   0  0  0  0  0  0  0  0  0  0  0  0
    8.8102   -1.1620   22.5271 C   0  0  0  0  0  0  0  0  0  0  0  0
    7.6961   -1.6154   23.0701 N   0  0  0  0  0  0  0  0  0  0  0  0
    6.7485   -1.2702   22.1591 N   0  0  0  0  0  0  0  0  0  0  0  0
    5.7844   -1.5065   22.3655 H   0  0  0  0  0  0  0  0  0  0  0  0
   10.2450   -1.1142   22.9596 C   0  0  0  0  0  0  0  0  0  0  0  0
   10.3601   -0.6436   23.9413 H   0  0  0  0  0  0  0  0  0  0  0  0
   10.6738   -2.1199   23.0403 H   0  0  0  0  0  0  0  0  0  0  0  0
   10.9373   -0.2745   21.8216 C   0  0  2  0  0  0  0  0  0  0  0  0
   11.7474   -0.8831   21.4074 H   0  0  0  0  0  0  0  0  0  0  0  0
   11.5154    1.0378   22.3270 C   0  0  0  0  0  0  0  0  0  0  0  0
   10.6690    2.0270   22.8546 C   0  0  0  0  0  0  0  0  0  0  0  0
    9.5990    1.8317   22.8894 H   0  0  0  0  0  0  0  0  0  0  0  0
   11.1710    3.2343   23.3442 C   0  0  0  0  0  0  0  0  0  0  0  0
   10.4953    3.9801   23.7496 H   0  0  0  0  0  0  0  0  0  0  0  0
   12.5516    3.4883   23.3282 C   0  0  0  0  0  0  0  0  0  0  0  0
   13.0807    4.6296   23.9230 N   0  0  0  0  0  0  0  0  0  0  0  0
   13.9571    4.9076   23.5044 H   0  0  0  0  0  0  0  0  0  0  0  0
   12.4283    5.4000   23.9404 H   0  0  0  0  0  0  0  0  0  0  0  0
   13.4008    2.5263   22.7695 C   0  0  0  0  0  0  0  0  0  0  0  0
   14.4631    2.7384   22.6965 H   0  0  0  0  0  0  0  0  0  0  0  0
   12.8923    1.3130   22.2996 C   0  0  0  0  0  0  0  0  0  0  0  0
   13.5735    0.5605   21.9115 H   0  0  0  0  0  0  0  0  0  0  0  0
    9.8625   -0.0605   20.6983 C   0  0  0  0  0  0  0  0  0  0  0  0
   10.1171   -0.6414   19.8091 H   0  0  0  0  0  0  0  0  0  0  0  0
    9.7792    0.9843   20.3768 H   0  0  0  0  0  0  0  0  0  0  0  0
    5.2684    0.6655   20.1105 C   0  0  0  0  0  0  0  0  0  0  0  0
    4.7736    0.6999   21.0854 H   0  0  0  0  0  0  0  0  0  0  0  0
    4.7218    1.3347   19.0147 C   0  0  0  0  0  0  0  0  0  0  0  0
    3.8043    1.9039   19.1009 H   0  0  0  0  0  0  0  0  0  0  0  0
  1  2  1  0
  2  3  2  0
  3  4  1  0
  4  5  1  0
  4  6  2  0
  6  7  1  0
  7  8  2  0
  8  9  1  0
  9 10  2  0
 10 11  1  0
 11 12  1  0
  9 13  1  0
 13 14  1  0
 13 15  1  0
 13 16  1  0
 16 17  1  6
 16 18  1  0
 18 19  2  0
 19 20  1  0
 19 21  1  0
 21 22  1  0
 21 23  2  0
 23 24  1  0
 24 25  1  0
 24 26  1  0
 23 27  1  0
 27 28  1  0
 27 29  2  0
 29 30  1  0
 16 31  1  0
 31 32  1  0
 31 33  1  0
  6 34  1  0
 34 35  1  0
 34 36  2  0
 36 37  1  0
 36  2  1  0
 11  7  1  0
 29 18  1  0
 31  8  1  0
M  END
>  <cnnaffinity>  (1) 
-5.57135

>  <filename>  (1) 
Nc1ccc([C@H]2Cc3n[nH]c(-c4cccnc4)c3C2)cc1

$$$$
