
     RDKit          3D

 32 34  0  0  0  0  0  0  0  0999 V2000
    4.9935    1.8372   16.9485 H   0  0  0  0  0  0  0  0  0  0  0  0
    5.4673    1.3323   17.7893 C   0  0  0  0  0  0  0  0  0  0  0  0
    6.6545    0.7582   17.5391 N   0  0  0  0  0  0  0  0  0  0  0  0
    7.2552    0.1278   18.5547 C   0  0  0  0  0  0  0  0  0  0  0  0
    8.2358   -0.2973   18.3535 H   0  0  0  0  0  0  0  0  0  0  0  0
    6.6864   -0.0219   19.8328 C   0  0  0  0  0  0  0  0  0  0  0  0
    7.4271   -0.8319   20.8525 C   0  0  0  0  0  0  0  0  0  0  0  0
    8.7113   -0.5862   20.9158 N   0  0  0  0  0  0  0  0  0  0  0  0
    9.4585   -1.1931   21.8910 N   0  0  0  0  0  0  0  0  0  0  0  0
   10.8537   -0.8453   21.9400 C   0  0  0  0  0  0  0  0  0  0  0  0
   11.8304   -1.8480   22.0548 C   0  0  0  0  0  0  0  0  0  0  0  0
   11.5046   -2.8805   22.0525 H   0  0  0  0  0  0  0  0  0  0  0  0
   13.1789   -1.4847   22.1433 C   0  0  0  0  0  0  0  0  0  0  0  0
   13.9687   -2.2343   22.1701 H   0  0  0  0  0  0  0  0  0  0  0  0
   13.5254   -0.1371   22.2360 C   0  0  0  0  0  0  0  0  0  0  0  0
   14.5602    0.1700   22.3629 H   0  0  0  0  0  0  0  0  0  0  0  0
   12.5455    0.8569   22.1202 C   0  0  0  0  0  0  0  0  0  0  0  0
   12.8993    2.2042   22.2122 N   0  0  0  0  0  0  0  0  0  0  0  0
   13.9072    2.2899   22.2522 H   0  0  0  0  0  0  0  0  0  0  0  0
   12.5560    2.7474   21.4291 H   0  0  0  0  0  0  0  0  0  0  0  0
   11.2113    0.5046   21.9180 C   0  0  0  0  0  0  0  0  0  0  0  0
   10.4698    1.2840   21.7839 H   0  0  0  0  0  0  0  0  0  0  0  0
    8.8749   -1.9632   22.8729 C   0  0  0  0  0  0  0  0  0  0  0  0
    9.5497   -2.2962   23.6642 H   0  0  0  0  0  0  0  0  0  0  0  0
    7.5667   -2.2787   22.8575 C   0  0  0  0  0  0  0  0  0  0  0  0
    7.0953   -2.8824   23.6213 H   0  0  0  0  0  0  0  0  0  0  0  0
    6.7290   -1.8635   21.7387 C   0  0  0  0  0  0  0  0  0  0  0  0
    5.6091   -2.3172   21.5443 O   0  0  0  0  0  0  0  0  0  0  0  0
    5.4600    0.6181   20.0871 C   0  0  0  0  0  0  0  0  0  0  0  0
    5.0071    0.5804   21.0809 H   0  0  0  0  0  0  0  0  0  0  0  0
    4.8435    1.3075   19.0408 C   0  0  0  0  0  0  0  0  0  0  0  0
    3.9052    1.8351   19.1811 H   0  0  0  0  0  0  0  0  0  0  0  0
  1  2  1  0
  2  3  2  0
  3  4  1  0
  4  5  1  0
  4  6  2  0
  6  7  1  0
  7  8  2  0
  8  9  1  0
  9 10  1  0
 10 11  2  0
 11 12  1  0
 11 13  1  0
 13 14  1  0
 13 15  2  0
 15 16  1  0
 15 17  1  0
 17 18  1  0
 18 19  1  0
 18 20  1  0
 17 21  2  0
 21 22  1  0
  9 23  1  0
 23 24  1  0
 23 25  2  0
 25 26  1  0
 25 27  1  0
 27 28  2  0
  6 29  1  0
 29 30  1  0
 29 31  2  0
 31 32  1  0
 31  2  1  0
 27  7  1  0
 21 10  1  0
M  END
>  <cnnaffinity>  (1) 
-5.69303

>  <filename>  (1) 
Nc1cccc(-n2ccc(=O)c(-c3cccnc3)n2)c1

$$$$
