
     RDKit          3D

 32 34  0  0  0  0  0  0  0  0999 V2000
    4.9115    1.7963   16.9814 H   0  0  0  0  0  0  0  0  0  0  0  0
    5.3891    1.3042   17.8223 C   0  0  0  0  0  0  0  0  0  0  0  0
    6.5546    0.6898   17.5531 N   0  0  0  0  0  0  0  0  0  0  0  0
    7.1588    0.0648   18.5688 C   0  0  0  0  0  0  0  0  0  0  0  0
    8.1164   -0.4021   18.3370 H   0  0  0  0  0  0  0  0  0  0  0  0
    6.6506    0.0137   19.8840 C   0  0  0  0  0  0  0  0  0  0  0  0
    7.3661   -0.6556   20.9770 C   0  0  0  0  0  0  0  0  0  0  0  0
    7.5095   -0.3263   22.3211 C   0  0  0  0  0  0  0  0  0  0  0  0
    7.0205    0.8213   22.9480 N   0  0  0  0  0  0  0  0  0  0  0  0
    6.9796    1.6424   22.3722 H   0  0  0  0  0  0  0  0  0  0  0  0
    6.8138    1.0196   24.3128 C   0  0  0  0  0  0  0  0  0  0  0  0
    7.0440    2.2846   24.8765 C   0  0  0  0  0  0  0  0  0  0  0  0
    7.4016    3.0958   24.2535 H   0  0  0  0  0  0  0  0  0  0  0  0
    6.8353    2.4678   26.2464 C   0  0  0  0  0  0  0  0  0  0  0  0
    7.0140    3.4377   26.6962 H   0  0  0  0  0  0  0  0  0  0  0  0
    6.3864    1.4214   27.0499 C   0  0  0  0  0  0  0  0  0  0  0  0
    6.2120    1.5406   28.1143 H   0  0  0  0  0  0  0  0  0  0  0  0
    6.1422    0.1676   26.4692 C   0  0  0  0  0  0  0  0  0  0  0  0
    5.6988   -0.8705   27.2356 N   0  0  0  0  0  0  0  0  0  0  0  0
    5.5386   -0.7428   28.2161 H   0  0  0  0  0  0  0  0  0  0  0  0
    5.5261   -1.7685   26.8235 H   0  0  0  0  0  0  0  0  0  0  0  0
    6.3488   -0.0293   25.1007 C   0  0  0  0  0  0  0  0  0  0  0  0
    6.1637   -0.9943   24.6429 H   0  0  0  0  0  0  0  0  0  0  0  0
    8.2864   -1.3800   22.8623 C   0  0  0  0  0  0  0  0  0  0  0  0
    8.6223   -1.4650   23.8834 H   0  0  0  0  0  0  0  0  0  0  0  0
    8.6035   -2.2904   21.9496 N   0  0  0  0  0  0  0  0  0  0  0  0
    8.0469   -1.8225   20.8233 N   0  0  0  0  0  0  0  0  0  0  0  0
    8.1318   -2.3588   19.9763 H   0  0  0  0  0  0  0  0  0  0  0  0
    5.4324    0.6621   20.1436 C   0  0  0  0  0  0  0  0  0  0  0  0
    5.0185    0.6251   21.1539 H   0  0  0  0  0  0  0  0  0  0  0  0
    4.7952    1.3185   19.0901 C   0  0  0  0  0  0  0  0  0  0  0  0
    3.8643    1.8491   19.2463 H   0  0  0  0  0  0  0  0  0  0  0  0
  1  2  1  0
  2  3  2  0
  3  4  1  0
  4  5  1  0
  4  6  2  0
  6  7  1  0
  7  8  2  0
  8  9  1  0
  9 10  1  0
  9 11  1  0
 11 12  2  0
 12 13  1  0
 12 14  1  0
 14 15  1  0
 14 16  2  0
 16 17  1  0
 16 18  1  0
 18 19  1  0
 19 20  1  0
 19 21  1  0
 18 22  2  0
 22 23  1  0
  8 24  1  0
 24 25  1  0
 24 26  2  0
 26 27  1  0
 27 28  1  0
  6 29  1  0
 29 30  1  0
 29 31  2  0
 31 32  1  0
 31  2  1  0
 27  7  1  0
 22 11  1  0
M  END
>  <cnnaffinity>  (1) 
-5.25752

>  <filename>  (1) 
Nc1cccc(Nc2cn[nH]c2-c2cccnc2)c1

$$$$
