
     RDKit          3D

 32 35  0  0  0  0  0  0  0  0999 V2000
    9.7180   -0.1968   28.2932 H   0  0  0  0  0  0  0  0  0  0  0  0
    8.9535   -0.3107   27.5311 C   0  0  0  0  0  0  0  0  0  0  0  0
    9.3323   -0.8865   26.3769 N   0  0  0  0  0  0  0  0  0  0  0  0
    8.3830   -0.9988   25.4210 C   0  0  0  0  0  0  0  0  0  0  0  0
    8.7800   -1.4234   24.1445 N   0  0  0  0  0  0  0  0  0  0  0  0
    9.9857   -2.0571   23.8091 C   0  0  0  0  0  0  0  0  0  0  0  0
   10.6897   -2.2940   24.5940 H   0  0  0  0  0  0  0  0  0  0  0  0
   10.0604   -2.1944   22.4663 C   0  0  0  0  0  0  0  0  0  0  0  0
   10.7929   -2.6284   21.8081 H   0  0  0  0  0  0  0  0  0  0  0  0
    8.9039   -1.6225   21.9542 N   0  0  0  0  0  0  0  0  0  0  0  0
    8.4558   -1.3488   20.7147 N   0  0  0  0  0  0  0  0  0  0  0  0
    7.3361   -0.6486   20.9479 C   0  0  0  0  0  0  0  0  0  0  0  0
    6.5956   -0.0202   19.8373 C   0  0  0  0  0  0  0  0  0  0  0  0
    7.1325    0.0037   18.5341 C   0  0  0  0  0  0  0  0  0  0  0  0
    8.0627   -0.5185   18.3244 H   0  0  0  0  0  0  0  0  0  0  0  0
    6.5650    0.6388   17.5032 N   0  0  0  0  0  0  0  0  0  0  0  0
    5.4189    1.2961   17.7398 C   0  0  0  0  0  0  0  0  0  0  0  0
    4.9944    1.8432   16.8990 H   0  0  0  0  0  0  0  0  0  0  0  0
    4.7832    1.3058   18.9878 C   0  0  0  0  0  0  0  0  0  0  0  0
    3.8650    1.8643   19.1230 H   0  0  0  0  0  0  0  0  0  0  0  0
    5.3728    0.6343   20.0550 C   0  0  0  0  0  0  0  0  0  0  0  0
    4.8989    0.6222   21.0413 H   0  0  0  0  0  0  0  0  0  0  0  0
    7.0568   -0.5040   22.3320 C   0  0  0  0  0  0  0  0  0  0  0  0
    6.2220    0.0185   22.7637 H   0  0  0  0  0  0  0  0  0  0  0  0
    8.1260   -1.1399   22.9397 C   0  0  0  0  0  0  0  0  0  0  0  0
    7.0337   -0.6725   25.6956 C   0  0  0  0  0  0  0  0  0  0  0  0
    6.2880   -0.8724   24.9324 H   0  0  0  0  0  0  0  0  0  0  0  0
    6.6397   -0.1150   26.8498 N   0  0  0  0  0  0  0  0  0  0  0  0
    7.6106    0.1393   27.7554 C   0  0  0  0  0  0  0  0  0  0  0  0
    7.1022    0.8719   28.7853 N   0  0  0  0  0  0  0  0  0  0  0  0
    6.0963    0.8157   28.7196 H   0  0  0  0  0  0  0  0  0  0  0  0
    7.5737    0.9670   29.6683 H   0  0  0  0  0  0  0  0  0  0  0  0
  1  2  1  0
  2  3  2  0
  3  4  1  0
  4  5  1  0
  5  6  1  0
  6  7  1  0
  6  8  2  0
  8  9  1  0
  8 10  1  0
 10 11  1  0
 11 12  2  0
 12 13  1  0
 13 14  2  0
 14 15  1  0
 14 16  1  0
 16 17  2  0
 17 18  1  0
 17 19  1  0
 19 20  1  0
 19 21  2  0
 21 22  1  0
 12 23  1  0
 23 24  1  0
 23 25  2  0
  4 26  2  0
 26 27  1  0
 26 28  1  0
 28 29  2  0
 29 30  1  0
 30 31  1  0
 30 32  1  0
 29  2  1  0
 25  5  1  0
 25 10  1  0
 21 13  1  0
M  END
>  <cnnaffinity>  (1) 
-5.10462

>  <filename>  (1) 
Nc1cnc(-n2ccn3nc(-c4cccnc4)cc23)cn1

$$$$
