
     RDKit          3D

 32 35  0  0  0  0  0  0  0  0999 V2000
    5.0359    1.7660   16.9868 H   0  0  0  0  0  0  0  0  0  0  0  0
    5.4584    1.2620   17.8520 C   0  0  0  0  0  0  0  0  0  0  0  0
    6.6153    0.6169   17.6410 N   0  0  0  0  0  0  0  0  0  0  0  0
    7.1777   -0.0020   18.6806 C   0  0  0  0  0  0  0  0  0  0  0  0
    8.1176   -0.5133   18.4805 H   0  0  0  0  0  0  0  0  0  0  0  0
    6.6239   -0.0162   19.9668 C   0  0  0  0  0  0  0  0  0  0  0  0
    7.3661   -0.7078   21.0235 C   0  0  0  0  0  0  0  0  0  0  0  0
    8.5586   -1.3325   20.7884 N   0  0  0  0  0  0  0  0  0  0  0  0
    8.8619   -1.7814   21.9862 C   0  0  0  0  0  0  0  0  0  0  0  0
   10.1598   -2.6528   22.7483 S   0  0  0  0  0  0  0  0  0  0  0  0
    9.3309   -2.5347   24.2768 C   0  0  0  0  0  0  0  0  0  0  0  0
    9.7603   -2.9993   25.1530 H   0  0  0  0  0  0  0  0  0  0  0  0
    8.1553   -1.8738   24.2106 C   0  0  0  0  0  0  0  0  0  0  0  0
    7.1887   -1.6015   25.3001 C   0  0  0  0  0  0  0  0  0  0  0  0
    7.6125   -1.1874   26.5796 C   0  0  0  0  0  0  0  0  0  0  0  0
    8.6734   -1.1164   26.8049 H   0  0  0  0  0  0  0  0  0  0  0  0
    6.6827   -0.8177   27.5518 C   0  0  0  0  0  0  0  0  0  0  0  0
    6.9807   -0.3998   28.5112 H   0  0  0  0  0  0  0  0  0  0  0  0
    5.3096   -0.8970   27.2876 C   0  0  0  0  0  0  0  0  0  0  0  0
    4.4137   -0.4534   28.2575 N   0  0  0  0  0  0  0  0  0  0  0  0
    4.7407   -0.6373   29.1987 H   0  0  0  0  0  0  0  0  0  0  0  0
    3.4839   -0.8249   28.1425 H   0  0  0  0  0  0  0  0  0  0  0  0
    4.8723   -1.3650   26.0402 C   0  0  0  0  0  0  0  0  0  0  0  0
    3.8048   -1.4151   25.8327 H   0  0  0  0  0  0  0  0  0  0  0  0
    5.8048   -1.7263   25.0686 C   0  0  0  0  0  0  0  0  0  0  0  0
    5.4925   -2.1199   24.1086 H   0  0  0  0  0  0  0  0  0  0  0  0
    7.9126   -1.4650   22.8875 N   0  0  0  0  0  0  0  0  0  0  0  0
    6.9259   -0.7591   22.2725 N   0  0  0  0  0  0  0  0  0  0  0  0
    5.4028    0.6533   20.1787 C   0  0  0  0  0  0  0  0  0  0  0  0
    4.9347    0.6680   21.1630 H   0  0  0  0  0  0  0  0  0  0  0  0
    4.8163    1.2997   19.0931 C   0  0  0  0  0  0  0  0  0  0  0  0
    3.8849    1.8471   19.1884 H   0  0  0  0  0  0  0  0  0  0  0  0
  1  2  1  0
  2  3  2  0
  3  4  1  0
  4  5  1  0
  4  6  2  0
  6  7  1  0
  7  8  1  0
  8  9  2  0
  9 10  1  0
 10 11  1  0
 11 12  1  0
 11 13  2  0
 13 14  1  0
 14 15  2  0
 15 16  1  0
 15 17  1  0
 17 18  1  0
 17 19  2  0
 19 20  1  0
 20 21  1  0
 20 22  1  0
 19 23  1  0
 23 24  1  0
 23 25  2  0
 25 26  1  0
 13 27  1  0
 27 28  1  0
  6 29  1  0
 29 30  1  0
 29 31  2  0
 31 32  1  0
 31  2  1  0
 28  7  2  0
 27  9  1  0
 25 14  1  0
M  END
>  <cnnaffinity>  (1) 
-5.4221

>  <filename>  (1) 
Nc1ccc(-c2csc3nc(-c4cccnc4)nn23)cc1

$$$$
