
     RDKit          3D

 31 33  0  0  0  0  0  0  0  0999 V2000
    4.9908    1.7814   16.9636 H   0  0  0  0  0  0  0  0  0  0  0  0
    5.4463    1.2879   17.8199 C   0  0  0  0  0  0  0  0  0  0  0  0
    6.6200    0.6689   17.5952 N   0  0  0  0  0  0  0  0  0  0  0  0
    7.1975    0.0457   18.6294 C   0  0  0  0  0  0  0  0  0  0  0  0
    8.1631   -0.4285   18.4726 H   0  0  0  0  0  0  0  0  0  0  0  0
    6.6245   -0.0267   19.9087 C   0  0  0  0  0  0  0  0  0  0  0  0
    7.2909   -0.7614   20.9277 N   0  0  0  0  0  0  0  0  0  0  0  0
    8.6551   -0.6576   20.9171 N   0  0  0  0  0  0  0  0  0  0  0  0
    9.3369   -1.2361   21.8698 C   0  0  0  0  0  0  0  0  0  0  0  0
   10.7796   -0.9080   21.8776 C   0  0  0  0  0  0  0  0  0  0  0  0
   11.7422   -1.8968   22.0810 C   0  0  0  0  0  0  0  0  0  0  0  0
   11.4194   -2.9283   22.1725 H   0  0  0  0  0  0  0  0  0  0  0  0
   13.0390   -1.6426   22.2381 N   0  0  0  0  0  0  0  0  0  0  0  0
   13.3944   -0.3649   22.2671 C   0  0  0  0  0  0  0  0  0  0  0  0
   14.7175   -0.2134   22.5534 N   0  0  0  0  0  0  0  0  0  0  0  0
   15.1832    0.4383   21.9416 H   0  0  0  0  0  0  0  0  0  0  0  0
   15.0704   -1.1595   22.4657 H   0  0  0  0  0  0  0  0  0  0  0  0
   12.5279    0.7170   22.0640 C   0  0  0  0  0  0  0  0  0  0  0  0
   12.9251    1.7213   22.1175 H   0  0  0  0  0  0  0  0  0  0  0  0
   11.2051    0.4268   21.7853 C   0  0  0  0  0  0  0  0  0  0  0  0
   10.4790    1.1905   21.5094 H   0  0  0  0  0  0  0  0  0  0  0  0
    8.7015   -2.0871   22.9452 C   0  0  0  0  0  0  0  0  0  0  0  0
    9.3232   -2.6493   23.8376 O   0  0  0  0  0  0  0  0  0  0  0  0
    7.2490   -2.1690   22.8397 C   0  0  0  0  0  0  0  0  0  0  0  0
    6.7406   -2.7546   23.5928 H   0  0  0  0  0  0  0  0  0  0  0  0
    6.6139   -1.5140   21.8588 C   0  0  0  0  0  0  0  0  0  0  0  0
    5.5330   -1.5511   21.7280 H   0  0  0  0  0  0  0  0  0  0  0  0
    5.4255    0.6549   20.1483 C   0  0  0  0  0  0  0  0  0  0  0  0
    5.0149    0.6867   21.1572 H   0  0  0  0  0  0  0  0  0  0  0  0
    4.8242    1.3164   19.0735 C   0  0  0  0  0  0  0  0  0  0  0  0
    3.8881    1.8497   19.2004 H   0  0  0  0  0  0  0  0  0  0  0  0
  1  2  1  0
  2  3  2  0
  3  4  1  0
  4  5  1  0
  4  6  2  0
  6  7  1  0
  7  8  1  0
  8  9  2  0
  9 10  1  0
 10 11  2  0
 11 12  1  0
 11 13  1  0
 13 14  2  0
 14 15  1  0
 15 16  1  0
 15 17  1  0
 14 18  1  0
 18 19  1  0
 18 20  2  0
 20 21  1  0
  9 22  1  0
 22 23  2  0
 22 24  1  0
 24 25  1  0
 24 26  2  0
 26 27  1  0
  6 28  1  0
 28 29  1  0
 28 30  2  0
 30 31  1  0
 30  2  1  0
 26  7  1  0
 20 10  1  0
M  END
>  <cnnaffinity>  (1) 
-5.92483

>  <filename>  (1) 
Nc1ccc(-c2nn(-c3cccnc3)ccc2=O)cn1

$$$$
