
     RDKit          3D

 28 30  0  0  0  0  0  0  0  0999 V2000
    6.0138    2.0739   25.7623 H   0  0  0  0  0  0  0  0  0  0  0  0
    6.4338    2.0860   24.7584 C   0  0  0  0  0  0  0  0  0  0  0  0
    6.7607    0.9314   24.1745 N   0  0  0  0  0  0  0  0  0  0  0  0
    7.2622    1.0253   22.9242 C   0  0  0  0  0  0  0  0  0  0  0  0
    7.6164   -0.1816   22.3355 N   0  0  0  0  0  0  0  0  0  0  0  0
    7.3736   -0.6173   21.0113 C   0  0  0  0  0  0  0  0  0  0  0  0
    6.6487    0.1112   19.9474 C   0  0  0  0  0  0  0  0  0  0  0  0
    7.1515    0.1054   18.6277 C   0  0  0  0  0  0  0  0  0  0  0  0
    8.0908   -0.3983   18.4032 H   0  0  0  0  0  0  0  0  0  0  0  0
    6.5531    0.6883   17.5811 N   0  0  0  0  0  0  0  0  0  0  0  0
    5.3893    1.3139   17.8116 C   0  0  0  0  0  0  0  0  0  0  0  0
    4.9378    1.8060   16.9551 H   0  0  0  0  0  0  0  0  0  0  0  0
    4.7668    1.3491   19.0633 C   0  0  0  0  0  0  0  0  0  0  0  0
    3.8172    1.8634   19.1749 H   0  0  0  0  0  0  0  0  0  0  0  0
    5.3939    0.7290   20.1449 C   0  0  0  0  0  0  0  0  0  0  0  0
    4.9170    0.7013   21.1256 H   0  0  0  0  0  0  0  0  0  0  0  0
    7.7947   -1.8835   20.9935 C   0  0  0  0  0  0  0  0  0  0  0  0
    7.6450   -2.6394   20.2535 H   0  0  0  0  0  0  0  0  0  0  0  0
    8.3058   -2.2722   22.1978 O   0  0  0  0  0  0  0  0  0  0  0  0
    8.1769   -1.2274   23.0837 C   0  0  0  0  0  0  0  0  0  0  0  0
    8.5199   -1.2668   24.2258 O   0  0  0  0  0  0  0  0  0  0  0  0
    7.4170    2.2722   22.2610 C   0  0  0  0  0  0  0  0  0  0  0  0
    7.7858    2.2881   21.2385 H   0  0  0  0  0  0  0  0  0  0  0  0
    7.1160    3.4395   22.8485 N   0  0  0  0  0  0  0  0  0  0  0  0
    6.6304    3.3436   24.1024 C   0  0  0  0  0  0  0  0  0  0  0  0
    6.3791    4.5660   24.6070 N   0  0  0  0  0  0  0  0  0  0  0  0
    6.5852    5.2668   23.9163 H   0  0  0  0  0  0  0  0  0  0  0  0
    5.9888    4.7428   25.5074 H   0  0  0  0  0  0  0  0  0  0  0  0
  1  2  1  0
  2  3  2  0
  3  4  1  0
  4  5  1  0
  5  6  1  0
  6  7  1  0
  7  8  2  0
  8  9  1  0
  8 10  1  0
 10 11  2  0
 11 12  1  0
 11 13  1  0
 13 14  1  0
 13 15  2  0
 15 16  1  0
  6 17  2  0
 17 18  1  0
 17 19  1  0
 19 20  1  0
 20 21  2  0
  4 22  2  0
 22 23  1  0
 22 24  1  0
 24 25  2  0
 25 26  1  0
 26 27  1  0
 26 28  1  0
 25  2  1  0
 20  5  1  0
 15  7  1  0
M  END
>  <cnnaffinity>  (1) 
-4.75229

>  <filename>  (1) 
Nc1cnc(-n2c(-c3cccnc3)coc2=O)cn1

$$$$
