
     RDKit          3D

 33 36  0  0  0  0  0  0  0  0999 V2000
    5.0001    1.8254   16.9105 H   0  0  0  0  0  0  0  0  0  0  0  0
    5.4279    1.2846   17.7519 C   0  0  0  0  0  0  0  0  0  0  0  0
    6.5739    0.6301   17.5152 N   0  0  0  0  0  0  0  0  0  0  0  0
    7.1492   -0.0098   18.5368 C   0  0  0  0  0  0  0  0  0  0  0  0
    8.0812   -0.5303   18.3198 H   0  0  0  0  0  0  0  0  0  0  0  0
    6.6203   -0.0293   19.8368 C   0  0  0  0  0  0  0  0  0  0  0  0
    7.3844   -0.6425   20.9347 C   0  0  0  0  0  0  0  0  0  0  0  0
    8.5152   -1.3347   20.7105 N   0  0  0  0  0  0  0  0  0  0  0  0
    8.9456   -1.6090   21.9627 N   0  0  0  0  0  0  0  0  0  0  0  0
   10.0708   -2.2107   22.5129 C   0  0  0  0  0  0  0  0  0  0  0  0
   10.8140   -2.6648   21.8830 H   0  0  0  0  0  0  0  0  0  0  0  0
    9.9524   -2.0459   23.8572 C   0  0  0  0  0  0  0  0  0  0  0  0
   10.5827   -2.3758   24.6620 H   0  0  0  0  0  0  0  0  0  0  0  0
    8.7655   -1.3716   24.1429 N   0  0  0  0  0  0  0  0  0  0  0  0
    8.2765   -0.9348   25.3945 C   0  0  0  0  0  0  0  0  0  0  0  0
    9.1182   -0.4163   26.3849 C   0  0  0  0  0  0  0  0  0  0  0  0
   10.1963   -0.3848   26.2322 H   0  0  0  0  0  0  0  0  0  0  0  0
    8.6724    0.1226   27.5236 N   0  0  0  0  0  0  0  0  0  0  0  0
    7.3578    0.2102   27.6948 C   0  0  0  0  0  0  0  0  0  0  0  0
    7.0335    0.9497   28.8008 N   0  0  0  0  0  0  0  0  0  0  0  0
    7.8934    0.9560   29.3354 H   0  0  0  0  0  0  0  0  0  0  0  0
    6.2460    0.5884   29.3102 H   0  0  0  0  0  0  0  0  0  0  0  0
    6.4132   -0.3615   26.8245 C   0  0  0  0  0  0  0  0  0  0  0  0
    5.3540   -0.3147   27.0653 H   0  0  0  0  0  0  0  0  0  0  0  0
    6.8899   -0.9392   25.6532 C   0  0  0  0  0  0  0  0  0  0  0  0
    6.2157   -1.3788   24.9156 H   0  0  0  0  0  0  0  0  0  0  0  0
    8.1526   -1.1140   22.9295 C   0  0  0  0  0  0  0  0  0  0  0  0
    7.0843   -0.4925   22.3089 C   0  0  0  0  0  0  0  0  0  0  0  0
    6.2465    0.0055   22.7620 H   0  0  0  0  0  0  0  0  0  0  0  0
    5.3967    0.6240   20.0556 C   0  0  0  0  0  0  0  0  0  0  0  0
    4.9234    0.6019   21.0383 H   0  0  0  0  0  0  0  0  0  0  0  0
    4.7979    1.2986   18.9986 C   0  0  0  0  0  0  0  0  0  0  0  0
    3.8759    1.8476   19.1335 H   0  0  0  0  0  0  0  0  0  0  0  0
  1  2  1  0
  2  3  2  0
  3  4  1  0
  4  5  1  0
  4  6  2  0
  6  7  1  0
  7  8  2  0
  8  9  1  0
  9 10  1  0
 10 11  1  0
 10 12  2  0
 12 13  1  0
 12 14  1  0
 14 15  1  0
 15 16  2  0
 16 17  1  0
 16 18  1  0
 18 19  2  0
 19 20  1  0
 20 21  1  0
 20 22  1  0
 19 23  1  0
 23 24  1  0
 23 25  2  0
 25 26  1  0
 14 27  1  0
 27 28  2  0
 28 29  1  0
  6 30  1  0
 30 31  1  0
 30 32  2  0
 32 33  1  0
 32  2  1  0
 28  7  1  0
 27  9  1  0
 25 15  1  0
M  END
>  <cnnaffinity>  (1) 
-5.4211

>  <filename>  (1) 
Nc1ccc(-n2ccn3nc(-c4cccnc4)cc23)cn1

$$$$
