
     RDKit          3D

 32 34  0  0  0  0  0  0  0  0999 V2000
    4.9670    1.8103   16.9384 H   0  0  0  0  0  0  0  0  0  0  0  0
    5.4517    1.3299   17.7875 C   0  0  0  0  0  0  0  0  0  0  0  0
    6.6429    0.7604   17.5433 N   0  0  0  0  0  0  0  0  0  0  0  0
    7.2421    0.1384   18.5643 C   0  0  0  0  0  0  0  0  0  0  0  0
    8.2188   -0.2928   18.3593 H   0  0  0  0  0  0  0  0  0  0  0  0
    6.6662   -0.0058   19.8405 C   0  0  0  0  0  0  0  0  0  0  0  0
    7.3866   -0.8168   20.8676 C   0  0  0  0  0  0  0  0  0  0  0  0
    8.6612   -0.5427   20.9575 N   0  0  0  0  0  0  0  0  0  0  0  0
    9.4023   -1.1735   21.9138 N   0  0  0  0  0  0  0  0  0  0  0  0
   10.7828   -0.8261   21.9466 C   0  0  0  0  0  0  0  0  0  0  0  0
   11.7673   -1.8117   22.0900 C   0  0  0  0  0  0  0  0  0  0  0  0
   11.4529   -2.8498   22.1483 H   0  0  0  0  0  0  0  0  0  0  0  0
   13.1078   -1.4403   22.1933 C   0  0  0  0  0  0  0  0  0  0  0  0
   13.8977   -2.1881   22.2558 H   0  0  0  0  0  0  0  0  0  0  0  0
   13.4520   -0.0819   22.2225 C   0  0  0  0  0  0  0  0  0  0  0  0
   14.7613    0.3093   22.4654 N   0  0  0  0  0  0  0  0  0  0  0  0
   15.0917    1.0509   21.8592 H   0  0  0  0  0  0  0  0  0  0  0  0
   15.3863   -0.4807   22.4465 H   0  0  0  0  0  0  0  0  0  0  0  0
   12.4643    0.8988   22.0528 C   0  0  0  0  0  0  0  0  0  0  0  0
   12.7716    1.9373   22.1240 H   0  0  0  0  0  0  0  0  0  0  0  0
   11.1391    0.5243   21.8529 C   0  0  0  0  0  0  0  0  0  0  0  0
   10.3574    1.2395   21.6136 H   0  0  0  0  0  0  0  0  0  0  0  0
    8.8321   -1.9400   22.9016 C   0  0  0  0  0  0  0  0  0  0  0  0
    9.5087   -2.2603   23.6946 H   0  0  0  0  0  0  0  0  0  0  0  0
    7.5265   -2.2702   22.8742 C   0  0  0  0  0  0  0  0  0  0  0  0
    7.0715   -2.8687   23.6469 H   0  0  0  0  0  0  0  0  0  0  0  0
    6.7059   -1.8690   21.7388 C   0  0  0  0  0  0  0  0  0  0  0  0
    5.6018   -2.3559   21.5263 O   0  0  0  0  0  0  0  0  0  0  0  0
    5.4526    0.6496   20.0966 C   0  0  0  0  0  0  0  0  0  0  0  0
    5.0110    0.6265   21.0957 H   0  0  0  0  0  0  0  0  0  0  0  0
    4.8334    1.3245   19.0420 C   0  0  0  0  0  0  0  0  0  0  0  0
    3.8898    1.8419   19.1779 H   0  0  0  0  0  0  0  0  0  0  0  0
  1  2  1  0
  2  3  2  0
  3  4  1  0
  4  5  1  0
  4  6  2  0
  6  7  1  0
  7  8  2  0
  8  9  1  0
  9 10  1  0
 10 11  2  0
 11 12  1  0
 11 13  1  0
 13 14  1  0
 13 15  2  0
 15 16  1  0
 16 17  1  0
 16 18  1  0
 15 19  1  0
 19 20  1  0
 19 21  2  0
 21 22  1  0
  9 23  1  0
 23 24  1  0
 23 25  2  0
 25 26  1  0
 25 27  1  0
 27 28  2  0
  6 29  1  0
 29 30  1  0
 29 31  2  0
 31 32  1  0
 31  2  1  0
 27  7  1  0
 21 10  1  0
M  END
>  <cnnaffinity>  (1) 
-5.80122

>  <filename>  (1) 
Nc1ccc(-n2ccc(=O)c(-c3cccnc3)n2)cc1

$$$$
