
     RDKit          3D

 33 35  0  0  0  0  0  0  0  0999 V2000
    4.9601    1.8657   16.9495 H   0  0  0  0  0  0  0  0  0  0  0  0
    5.4142    1.3389   17.7846 C   0  0  0  0  0  0  0  0  0  0  0  0
    6.5747    0.7137   17.5255 N   0  0  0  0  0  0  0  0  0  0  0  0
    7.1605    0.0596   18.5355 C   0  0  0  0  0  0  0  0  0  0  0  0
    8.1102   -0.4293   18.3184 H   0  0  0  0  0  0  0  0  0  0  0  0
    6.6078   -0.0340   19.8286 C   0  0  0  0  0  0  0  0  0  0  0  0
    7.2953   -0.7282   20.8886 N   0  0  0  0  0  0  0  0  0  0  0  0
    8.5530   -0.2700   21.2270 C   0  0  0  0  0  0  0  0  0  0  0  0
    8.9004    0.5871   20.6562 H   0  0  0  0  0  0  0  0  0  0  0  0
    9.3163   -0.8496   22.2001 C   0  0  0  0  0  0  0  0  0  0  0  0
   10.6894   -0.3583   22.4672 C   0  0  0  0  0  0  0  0  0  0  0  0
   11.7793   -1.2441   22.4212 C   0  0  0  0  0  0  0  0  0  0  0  0
   11.5872   -2.2886   22.1914 H   0  0  0  0  0  0  0  0  0  0  0  0
   13.0794   -0.7974   22.6455 C   0  0  0  0  0  0  0  0  0  0  0  0
   13.9295   -1.4743   22.6604 H   0  0  0  0  0  0  0  0  0  0  0  0
   13.3032    0.5557   22.9182 C   0  0  0  0  0  0  0  0  0  0  0  0
   14.6064    0.9912   23.0955 N   0  0  0  0  0  0  0  0  0  0  0  0
   15.1461    0.3239   23.6265 H   0  0  0  0  0  0  0  0  0  0  0  0
   14.6484    1.8999   23.5290 H   0  0  0  0  0  0  0  0  0  0  0  0
   12.2321    1.4569   22.9509 C   0  0  0  0  0  0  0  0  0  0  0  0
   12.4400    2.5061   23.1293 H   0  0  0  0  0  0  0  0  0  0  0  0
   10.9331    1.0048   22.7144 C   0  0  0  0  0  0  0  0  0  0  0  0
   10.1011    1.7073   22.7037 H   0  0  0  0  0  0  0  0  0  0  0  0
    8.7458   -1.9361   22.9377 C   0  0  0  0  0  0  0  0  0  0  0  0
    9.3348   -2.3796   23.7426 H   0  0  0  0  0  0  0  0  0  0  0  0
    7.4924   -2.3852   22.6577 C   0  0  0  0  0  0  0  0  0  0  0  0
    7.0214   -3.2042   23.1814 H   0  0  0  0  0  0  0  0  0  0  0  0
    6.6756   -1.8289   21.5865 C   0  0  0  0  0  0  0  0  0  0  0  0
    5.5809   -2.2736   21.2798 O   0  0  0  0  0  0  0  0  0  0  0  0
    5.4064    0.6312   20.0882 C   0  0  0  0  0  0  0  0  0  0  0  0
    4.9873    0.5914   21.0931 H   0  0  0  0  0  0  0  0  0  0  0  0
    4.7988    1.3324   19.0416 C   0  0  0  0  0  0  0  0  0  0  0  0
    3.8705    1.8733   19.1919 H   0  0  0  0  0  0  0  0  0  0  0  0
  1  2  1  0
  2  3  2  0
  3  4  1  0
  4  5  1  0
  4  6  2  0
  6  7  1  0
  7  8  1  0
  8  9  1  0
  8 10  2  0
 10 11  1  0
 11 12  2  0
 12 13  1  0
 12 14  1  0
 14 15  1  0
 14 16  2  0
 16 17  1  0
 17 18  1  0
 17 19  1  0
 16 20  1  0
 20 21  1  0
 20 22  2  0
 22 23  1  0
 10 24  1  0
 24 25  1  0
 24 26  2  0
 26 27  1  0
 26 28  1  0
 28 29  2  0
  6 30  1  0
 30 31  1  0
 30 32  2  0
 32 33  1  0
 32  2  1  0
 28  7  1  0
 22 11  1  0
M  END
>  <cnnaffinity>  (1) 
-5.50452

>  <filename>  (1) 
Nc1ccc(-c2ccc(=O)n(-c3cccnc3)c2)cc1

$$$$
