
     RDKit          3D

 33 35  0  0  0  0  0  0  0  0999 V2000
    4.9462    1.8435   16.9613 H   0  0  0  0  0  0  0  0  0  0  0  0
    5.4139    1.3281   17.7983 C   0  0  0  0  0  0  0  0  0  0  0  0
    6.5770    0.7096   17.5374 N   0  0  0  0  0  0  0  0  0  0  0  0
    7.1792    0.0730   18.5493 C   0  0  0  0  0  0  0  0  0  0  0  0
    8.1216   -0.4229   18.3216 H   0  0  0  0  0  0  0  0  0  0  0  0
    6.6458   -0.0058   19.8511 C   0  0  0  0  0  0  0  0  0  0  0  0
    7.3370   -0.6995   20.9080 N   0  0  0  0  0  0  0  0  0  0  0  0
    8.5953   -0.2511   21.2514 C   0  0  0  0  0  0  0  0  0  0  0  0
    8.9643    0.5951   20.6825 H   0  0  0  0  0  0  0  0  0  0  0  0
    9.3561   -0.8276   22.2274 C   0  0  0  0  0  0  0  0  0  0  0  0
   10.7425   -0.3271   22.4737 C   0  0  0  0  0  0  0  0  0  0  0  0
   11.8350   -1.2143   22.4571 C   0  0  0  0  0  0  0  0  0  0  0  0
   11.6508   -2.2754   22.2998 H   0  0  0  0  0  0  0  0  0  0  0  0
   13.1293   -0.7409   22.7037 C   0  0  0  0  0  0  0  0  0  0  0  0
   13.9829   -1.4161   22.7096 H   0  0  0  0  0  0  0  0  0  0  0  0
   13.3378    0.6012   23.0134 C   0  0  0  0  0  0  0  0  0  0  0  0
   14.3428    0.9677   23.1993 H   0  0  0  0  0  0  0  0  0  0  0  0
   12.2599    1.4952   23.0384 C   0  0  0  0  0  0  0  0  0  0  0  0
   12.4862    2.8369   23.3514 N   0  0  0  0  0  0  0  0  0  0  0  0
   13.4518    3.0719   23.1709 H   0  0  0  0  0  0  0  0  0  0  0  0
   11.8820    3.4463   22.8165 H   0  0  0  0  0  0  0  0  0  0  0  0
   10.9745    1.0354   22.7354 C   0  0  0  0  0  0  0  0  0  0  0  0
   10.1648    1.7601   22.6856 H   0  0  0  0  0  0  0  0  0  0  0  0
    8.7816   -1.9219   22.9581 C   0  0  0  0  0  0  0  0  0  0  0  0
    9.3541   -2.3922   23.7605 H   0  0  0  0  0  0  0  0  0  0  0  0
    7.5283   -2.3678   22.6675 C   0  0  0  0  0  0  0  0  0  0  0  0
    7.0488   -3.1928   23.1762 H   0  0  0  0  0  0  0  0  0  0  0  0
    6.7147   -1.7992   21.5999 C   0  0  0  0  0  0  0  0  0  0  0  0
    5.6184   -2.2327   21.2884 O   0  0  0  0  0  0  0  0  0  0  0  0
    5.4342    0.6398   20.1106 C   0  0  0  0  0  0  0  0  0  0  0  0
    5.0131    0.6016   21.1147 H   0  0  0  0  0  0  0  0  0  0  0  0
    4.8115    1.3221   19.0612 C   0  0  0  0  0  0  0  0  0  0  0  0
    3.8808    1.8552   19.2123 H   0  0  0  0  0  0  0  0  0  0  0  0
  1  2  1  0
  2  3  2  0
  3  4  1  0
  4  5  1  0
  4  6  2  0
  6  7  1  0
  7  8  1  0
  8  9  1  0
  8 10  2  0
 10 11  1  0
 11 12  2  0
 12 13  1  0
 12 14  1  0
 14 15  1  0
 14 16  2  0
 16 17  1  0
 16 18  1  0
 18 19  1  0
 19 20  1  0
 19 21  1  0
 18 22  2  0
 22 23  1  0
 10 24  1  0
 24 25  1  0
 24 26  2  0
 26 27  1  0
 26 28  1  0
 28 29  2  0
  6 30  1  0
 30 31  1  0
 30 32  2  0
 32 33  1  0
 32  2  1  0
 28  7  1  0
 22 11  1  0
M  END
>  <cnnaffinity>  (1) 
-5.26134

>  <filename>  (1) 
Nc1cccc(-c2ccc(=O)n(-c3cccnc3)c2)c1

$$$$
