
     RDKit          3D

 37 40  0  0  0  0  0  0  0  0999 V2000
    4.9452    1.8194   16.9779 H   0  0  0  0  0  0  0  0  0  0  0  0
    5.4030    1.2936   17.8137 C   0  0  0  0  0  0  0  0  0  0  0  0
    6.5627    0.6655   17.5590 N   0  0  0  0  0  0  0  0  0  0  0  0
    7.1522    0.0193   18.5683 C   0  0  0  0  0  0  0  0  0  0  0  0
    8.1058   -0.4558   18.3335 H   0  0  0  0  0  0  0  0  0  0  0  0
    6.6246   -0.0291   19.8702 C   0  0  0  0  0  0  0  0  0  0  0  0
    7.3571   -0.6902   20.9553 C   0  0  0  0  0  0  0  0  0  0  0  0
    8.0769   -1.7891   20.7354 N   0  0  0  0  0  0  0  0  0  0  0  0
    8.5549   -2.0935   21.9387 N   0  0  0  0  0  0  0  0  0  0  0  0
    8.2322   -1.2576   22.9203 C   0  0  0  0  0  0  0  0  0  0  0  0
    7.4493   -0.2862   22.3273 C   0  0  0  0  0  0  0  0  0  0  0  0
    7.0818    0.9604   22.9745 C   0  0  0  0  0  0  0  0  0  0  0  0
    6.6024    0.9326   24.2941 C   0  0  0  0  0  0  0  0  0  0  0  0
    6.4728   -0.0311   24.7923 H   0  0  0  0  0  0  0  0  0  0  0  0
    6.2837    2.1146   24.9474 C   0  0  0  0  0  0  0  0  0  0  0  0
    5.8983    2.1199   25.9600 H   0  0  0  0  0  0  0  0  0  0  0  0
    6.4665    3.3454   24.2963 C   0  0  0  0  0  0  0  0  0  0  0  0
    6.1657    4.5096   24.9332 N   0  0  0  0  0  0  0  0  0  0  0  0
    5.7826    4.4851   25.8580 H   0  0  0  0  0  0  0  0  0  0  0  0
    6.2706    5.3729   24.4362 H   0  0  0  0  0  0  0  0  0  0  0  0
    6.9683    3.3786   22.9843 C   0  0  0  0  0  0  0  0  0  0  0  0
    7.1052    4.3404   22.5035 H   0  0  0  0  0  0  0  0  0  0  0  0
    7.2756    2.1983   22.3279 C   0  0  0  0  0  0  0  0  0  0  0  0
    7.6755    2.2122   21.3123 H   0  0  0  0  0  0  0  0  0  0  0  0
    9.0718   -1.5049   24.1471 C   0  0  0  0  0  0  0  0  0  0  0  0
    9.6713   -0.6108   24.3592 H   0  0  0  0  0  0  0  0  0  0  0  0
    8.4615   -1.7074   25.0344 H   0  0  0  0  0  0  0  0  0  0  0  0
    9.9410   -2.7226   23.7239 C   0  0  0  0  0  0  0  0  0  0  0  0
    9.7560   -3.5923   24.3515 H   0  0  0  0  0  0  0  0  0  0  0  0
   11.0004   -2.4918   23.7827 H   0  0  0  0  0  0  0  0  0  0  0  0
    9.5687   -3.0554   22.2548 C   0  0  0  0  0  0  0  0  0  0  0  0
    9.1525   -4.0587   22.1448 H   0  0  0  0  0  0  0  0  0  0  0  0
   10.4055   -2.9011   21.5712 H   0  0  0  0  0  0  0  0  0  0  0  0
    5.4104    0.6273   20.1156 C   0  0  0  0  0  0  0  0  0  0  0  0
    4.9970    0.6509   21.1261 H   0  0  0  0  0  0  0  0  0  0  0  0
    4.7882    1.2985   19.0691 C   0  0  0  0  0  0  0  0  0  0  0  0
    3.8635    1.8464   19.2244 H   0  0  0  0  0  0  0  0  0  0  0  0
  1  2  1  0
  2  3  2  0
  3  4  1  0
  4  5  1  0
  4  6  2  0
  6  7  1  0
  7  8  2  0
  8  9  1  0
  9 10  1  0
 10 11  2  0
 11 12  1  0
 12 13  2  0
 13 14  1  0
 13 15  1  0
 15 16  1  0
 15 17  2  0
 17 18  1  0
 18 19  1  0
 18 20  1  0
 17 21  1  0
 21 22  1  0
 21 23  2  0
 23 24  1  0
 10 25  1  0
 25 26  1  0
 25 27  1  0
 25 28  1  0
 28 29  1  0
 28 30  1  0
 28 31  1  0
 31 32  1  0
 31 33  1  0
  6 34  1  0
 34 35  1  0
 34 36  2  0
 36 37  1  0
 36  2  1  0
 11  7  1  0
 23 12  1  0
 31  9  1  0
M  END
>  <cnnaffinity>  (1) 
-5.45792

>  <filename>  (1) 
Nc1ccc(-c2c(-c3cccnc3)nn3c2CCC3)cc1

$$$$
