
     RDKit          3D

 31 33  0  0  0  0  0  0  0  0999 V2000
    4.9086    1.7782   16.9998 H   0  0  0  0  0  0  0  0  0  0  0  0
    5.3974    1.2939   17.8418 C   0  0  0  0  0  0  0  0  0  0  0  0
    6.5619    0.6765   17.5777 N   0  0  0  0  0  0  0  0  0  0  0  0
    7.1785    0.0581   18.5920 C   0  0  0  0  0  0  0  0  0  0  0  0
    8.1282   -0.4287   18.3823 H   0  0  0  0  0  0  0  0  0  0  0  0
    6.6671    0.0028   19.9073 C   0  0  0  0  0  0  0  0  0  0  0  0
    7.3589   -0.6825   20.9475 N   0  0  0  0  0  0  0  0  0  0  0  0
    6.7698   -1.4542   21.9423 C   0  0  0  0  0  0  0  0  0  0  0  0
    5.7017   -1.5831   21.9934 H   0  0  0  0  0  0  0  0  0  0  0  0
    7.7372   -1.9404   22.7519 C   0  0  0  0  0  0  0  0  0  0  0  0
    7.6172   -2.7921   23.9303 C   0  0  0  0  0  0  0  0  0  0  0  0
    6.4302   -3.5227   24.1285 C   0  0  0  0  0  0  0  0  0  0  0  0
    5.6318   -3.4588   23.3917 H   0  0  0  0  0  0  0  0  0  0  0  0
    6.2636   -4.3346   25.2430 C   0  0  0  0  0  0  0  0  0  0  0  0
    5.3431   -4.8887   25.3754 H   0  0  0  0  0  0  0  0  0  0  0  0
    7.2853   -4.4400   26.2055 C   0  0  0  0  0  0  0  0  0  0  0  0
    7.1247   -5.2340   27.3078 N   0  0  0  0  0  0  0  0  0  0  0  0
    7.8514   -5.3257   27.9915 H   0  0  0  0  0  0  0  0  0  0  0  0
    6.2872   -5.7654   27.4501 H   0  0  0  0  0  0  0  0  0  0  0  0
    8.4734   -3.7079   26.0148 C   0  0  0  0  0  0  0  0  0  0  0  0
    9.2688   -3.7782   26.7458 H   0  0  0  0  0  0  0  0  0  0  0  0
    8.6323   -2.8977   24.8962 C   0  0  0  0  0  0  0  0  0  0  0  0
    9.5514   -2.3281   24.7783 H   0  0  0  0  0  0  0  0  0  0  0  0
    8.9393   -1.4573   22.2441 N   0  0  0  0  0  0  0  0  0  0  0  0
    9.8708   -1.6249   22.5707 H   0  0  0  0  0  0  0  0  0  0  0  0
    8.7516   -0.6728   21.1376 C   0  0  0  0  0  0  0  0  0  0  0  0
    9.6007   -0.1080   20.4789 O   0  0  0  0  0  0  0  0  0  0  0  0
    5.4476    0.6444   20.1624 C   0  0  0  0  0  0  0  0  0  0  0  0
    5.0154    0.6312   21.1638 H   0  0  0  0  0  0  0  0  0  0  0  0
    4.8089    1.3105   19.1111 C   0  0  0  0  0  0  0  0  0  0  0  0
    3.8746    1.8426   19.2671 H   0  0  0  0  0  0  0  0  0  0  0  0
  1  2  1  0
  2  3  2  0
  3  4  1  0
  4  5  1  0
  4  6  2  0
  6  7  1  0
  7  8  1  0
  8  9  1  0
  8 10  2  0
 10 11  1  0
 11 12  2  0
 12 13  1  0
 12 14  1  0
 14 15  1  0
 14 16  2  0
 16 17  1  0
 17 18  1  0
 17 19  1  0
 16 20  1  0
 20 21  1  0
 20 22  2  0
 22 23  1  0
 10 24  1  0
 24 25  1  0
 24 26  1  0
 26 27  2  0
  6 28  1  0
 28 29  1  0
 28 30  2  0
 30 31  1  0
 30  2  1  0
 26  7  1  0
 22 11  1  0
M  END
>  <cnnaffinity>  (1) 
-5.23634

>  <filename>  (1) 
Nc1ccc(-c2cn(-c3cccnc3)c(=O)[nH]2)cc1

$$$$
