
     RDKit          3D

 37 40  0  0  0  0  0  0  0  0999 V2000
    4.9122    1.8402   16.9540 H   0  0  0  0  0  0  0  0  0  0  0  0
    5.3979    1.3228   17.7804 C   0  0  0  0  0  0  0  0  0  0  0  0
    6.5548    0.7060   17.4973 N   0  0  0  0  0  0  0  0  0  0  0  0
    7.1741    0.0855   18.5101 C   0  0  0  0  0  0  0  0  0  0  0  0
    8.1103   -0.4058   18.2507 H   0  0  0  0  0  0  0  0  0  0  0  0
    6.7022    0.0315   19.8371 C   0  0  0  0  0  0  0  0  0  0  0  0
    7.4648   -0.6795   20.9380 C   0  0  1  0  0  0  0  0  0  0  0  0
    8.3990   -1.0625   20.5166 H   0  0  0  0  0  0  0  0  0  0  0  0
    7.8508    0.2518   22.1384 C   0  0  0  0  0  0  0  0  0  0  0  0
    7.4023    1.2469   22.0685 H   0  0  0  0  0  0  0  0  0  0  0  0
    8.9339    0.3999   22.1835 H   0  0  0  0  0  0  0  0  0  0  0  0
    7.3425   -0.4844   23.3362 C   0  0  0  0  0  0  0  0  0  0  0  0
    7.2905   -0.2155   24.6272 N   0  0  0  0  0  0  0  0  0  0  0  0
    6.6617   -1.2965   25.1488 N   0  0  0  0  0  0  0  0  0  0  0  0
    6.4880   -1.3096   26.1490 H   0  0  0  0  0  0  0  0  0  0  0  0
    6.2966   -2.2291   24.2115 C   0  0  0  0  0  0  0  0  0  0  0  0
    5.6428   -3.5357   24.4786 C   0  0  0  0  0  0  0  0  0  0  0  0
    4.7142   -4.0416   23.5489 C   0  0  0  0  0  0  0  0  0  0  0  0
    4.3956   -3.4178   22.7174 H   0  0  0  0  0  0  0  0  0  0  0  0
    4.2012   -5.3351   23.6893 C   0  0  0  0  0  0  0  0  0  0  0  0
    3.5031   -5.7228   22.9493 H   0  0  0  0  0  0  0  0  0  0  0  0
    4.5915   -6.1404   24.7634 C   0  0  0  0  0  0  0  0  0  0  0  0
    4.2201   -7.1553   24.8732 H   0  0  0  0  0  0  0  0  0  0  0  0
    5.4959   -5.6383   25.7153 C   0  0  0  0  0  0  0  0  0  0  0  0
    5.8745   -6.3809   26.8058 N   0  0  0  0  0  0  0  0  0  0  0  0
    6.6323   -6.0455   27.3718 H   0  0  0  0  0  0  0  0  0  0  0  0
    5.6578   -7.3579   26.8752 H   0  0  0  0  0  0  0  0  0  0  0  0
    6.0087   -4.3393   25.5682 C   0  0  0  0  0  0  0  0  0  0  0  0
    6.7245   -3.9991   26.3090 H   0  0  0  0  0  0  0  0  0  0  0  0
    6.7504   -1.7018   23.0140 C   0  0  0  0  0  0  0  0  0  0  0  0
    6.6880   -1.9038   21.5322 C   0  0  0  0  0  0  0  0  0  0  0  0
    7.1328   -2.8505   21.2075 H   0  0  0  0  0  0  0  0  0  0  0  0
    5.6459   -1.9251   21.1877 H   0  0  0  0  0  0  0  0  0  0  0  0
    5.4780    0.6688   20.0971 C   0  0  0  0  0  0  0  0  0  0  0  0
    5.0474    0.6689   21.1021 H   0  0  0  0  0  0  0  0  0  0  0  0
    4.8196    1.3213   19.0532 C   0  0  0  0  0  0  0  0  0  0  0  0
    3.8809    1.8353   19.2125 H   0  0  0  0  0  0  0  0  0  0  0  0
  1  2  1  0
  2  3  2  0
  3  4  1  0
  4  5  1  0
  4  6  2  0
  6  7  1  0
  7  8  1  6
  7  9  1  0
  9 10  1  0
  9 11  1  0
  9 12  1  0
 12 13  2  0
 13 14  1  0
 14 15  1  0
 14 16  1  0
 16 17  1  0
 17 18  2  0
 18 19  1  0
 18 20  1  0
 20 21  1  0
 20 22  2  0
 22 23  1  0
 22 24  1  0
 24 25  1  0
 25 26  1  0
 25 27  1  0
 24 28  2  0
 28 29  1  0
 16 30  2  0
 30 31  1  0
 31 32  1  0
 31 33  1  0
  6 34  1  0
 34 35  1  0
 34 36  2  0
 36 37  1  0
 36  2  1  0
 31  7  1  0
 30 12  1  0
 28 17  1  0
M  END
>  <cnnaffinity>  (1) 
-5.2454

>  <filename>  (1) 
Nc1cccc(-c2[nH]nc3c2C[C@@H](c2cccnc2)C3)c1

$$$$
