
     RDKit          3D

 23 24  0  0  0  0  0  0  0  0999 V2000
    4.9097    1.7821   16.9940 H   0  0  0  0  0  0  0  0  0  0  0  0
    5.3983    1.2963   17.8353 C   0  0  0  0  0  0  0  0  0  0  0  0
    6.5636    0.6822   17.5700 N   0  0  0  0  0  0  0  0  0  0  0  0
    7.1833    0.0751   18.5880 C   0  0  0  0  0  0  0  0  0  0  0  0
    8.1210   -0.4311   18.3685 H   0  0  0  0  0  0  0  0  0  0  0  0
    6.6692    0.0225   19.8968 C   0  0  0  0  0  0  0  0  0  0  0  0
    7.3633   -0.6737   20.9447 N   0  0  0  0  0  0  0  0  0  0  0  0
    8.6692   -0.2682   21.2766 C   0  0  0  0  0  0  0  0  0  0  0  0
    9.0782    0.5696   20.7050 H   0  0  0  0  0  0  0  0  0  0  0  0
    9.3881   -0.8601   22.2544 C   0  0  0  0  0  0  0  0  0  0  0  0
   10.6746   -0.4464   22.5752 N   0  0  0  0  0  0  0  0  0  0  0  0
   11.1647   -0.9236   23.3186 H   0  0  0  0  0  0  0  0  0  0  0  0
   11.1323    0.3162   22.0936 H   0  0  0  0  0  0  0  0  0  0  0  0
    8.7316   -2.0074   23.0051 C   0  0  0  0  0  0  0  0  0  0  0  0
    9.2167   -2.6555   23.9071 O   0  0  0  0  0  0  0  0  0  0  0  0
    7.4594   -2.3213   22.5897 N   0  0  0  0  0  0  0  0  0  0  0  0
    7.0098   -3.0745   23.0720 H   0  0  0  0  0  0  0  0  0  0  0  0
    6.7157   -1.7442   21.6120 C   0  0  0  0  0  0  0  0  0  0  0  0
    5.6152   -2.1686   21.3503 O   0  0  0  0  0  0  0  0  0  0  0  0
    5.4468    0.6500   20.1605 C   0  0  0  0  0  0  0  0  0  0  0  0
    5.0109    0.6168   21.1618 H   0  0  0  0  0  0  0  0  0  0  0  0
    4.8105    1.3132   19.1058 C   0  0  0  0  0  0  0  0  0  0  0  0
    3.8756    1.8420   19.2618 H   0  0  0  0  0  0  0  0  0  0  0  0
  1  2  1  0
  2  3  2  0
  3  4  1  0
  4  5  1  0
  4  6  2  0
  6  7  1  0
  7  8  1  0
  8  9  1  0
  8 10  2  0
 10 11  1  0
 11 12  1  0
 11 13  1  0
 10 14  1  0
 14 15  2  0
 14 16  1  0
 16 17  1  0
 16 18  1  0
 18 19  2  0
  6 20  1  0
 20 21  1  0
 20 22  2  0
 22 23  1  0
 22  2  1  0
 18  7  1  0
M  END
>  <cnnaffinity>  (1) 
-4.47147

>  <filename>  (1) 
Nc1cn(-c2cccnc2)c(=O)[nH]c1=O

$$$$
