
     RDKit          3D

 32 34  0  0  0  0  0  0  0  0999 V2000
    4.9124    1.7866   16.9945 H   0  0  0  0  0  0  0  0  0  0  0  0
    5.3960    1.2978   17.8369 C   0  0  0  0  0  0  0  0  0  0  0  0
    6.5600    0.6832   17.5695 N   0  0  0  0  0  0  0  0  0  0  0  0
    7.1713    0.0613   18.5884 C   0  0  0  0  0  0  0  0  0  0  0  0
    8.1190   -0.4289   18.3742 H   0  0  0  0  0  0  0  0  0  0  0  0
    6.6650   -0.0111   19.9111 C   0  0  0  0  0  0  0  0  0  0  0  0
    7.3247   -0.7197   20.9246 N   0  0  0  0  0  0  0  0  0  0  0  0
    6.7715   -1.0672   21.6970 H   0  0  0  0  0  0  0  0  0  0  0  0
    8.7100   -0.7680   21.1121 C   0  0  0  0  0  0  0  0  0  0  0  0
    9.6971    0.1428   20.6738 C   0  0  0  0  0  0  0  0  0  0  0  0
    9.5331    1.0209   20.0714 H   0  0  0  0  0  0  0  0  0  0  0  0
   10.9081   -0.1823   21.1049 N   0  0  0  0  0  0  0  0  0  0  0  0
   10.7084   -1.2989   21.8154 N   0  0  0  0  0  0  0  0  0  0  0  0
   11.5044   -1.7503   22.2370 H   0  0  0  0  0  0  0  0  0  0  0  0
    9.4107   -1.7127   21.8505 C   0  0  0  0  0  0  0  0  0  0  0  0
    8.9375   -2.9091   22.5495 C   0  0  0  0  0  0  0  0  0  0  0  0
    7.8866   -3.6577   21.9956 C   0  0  0  0  0  0  0  0  0  0  0  0
    7.4659   -3.3528   21.0417 H   0  0  0  0  0  0  0  0  0  0  0  0
    7.4131   -4.7854   22.6655 C   0  0  0  0  0  0  0  0  0  0  0  0
    6.5993   -5.3592   22.2366 H   0  0  0  0  0  0  0  0  0  0  0  0
    7.9744   -5.1733   23.8833 C   0  0  0  0  0  0  0  0  0  0  0  0
    7.6112   -6.0448   24.4153 H   0  0  0  0  0  0  0  0  0  0  0  0
    9.0292   -4.4307   24.4447 C   0  0  0  0  0  0  0  0  0  0  0  0
    9.5891   -4.8059   25.6372 N   0  0  0  0  0  0  0  0  0  0  0  0
    9.2614   -5.6171   26.1272 H   0  0  0  0  0  0  0  0  0  0  0  0
   10.3476   -4.2867   26.0387 H   0  0  0  0  0  0  0  0  0  0  0  0
    9.5067   -3.2996   23.7708 C   0  0  0  0  0  0  0  0  0  0  0  0
   10.3121   -2.7246   24.2191 H   0  0  0  0  0  0  0  0  0  0  0  0
    5.4435    0.6324   20.1641 C   0  0  0  0  0  0  0  0  0  0  0  0
    5.0189    0.6213   21.1687 H   0  0  0  0  0  0  0  0  0  0  0  0
    4.8124    1.3054   19.1093 C   0  0  0  0  0  0  0  0  0  0  0  0
    3.8814    1.8377   19.2641 H   0  0  0  0  0  0  0  0  0  0  0  0
  1  2  1  0
  2  3  2  0
  3  4  1  0
  4  5  1  0
  4  6  2  0
  6  7  1  0
  7  8  1  0
  7  9  1  0
  9 10  1  0
 10 11  1  0
 10 12  2  0
 12 13  1  0
 13 14  1  0
 13 15  1  0
 15 16  1  0
 16 17  2  0
 17 18  1  0
 17 19  1  0
 19 20  1  0
 19 21  2  0
 21 22  1  0
 21 23  1  0
 23 24  1  0
 24 25  1  0
 24 26  1  0
 23 27  2  0
 27 28  1  0
  6 29  1  0
 29 30  1  0
 29 31  2  0
 31 32  1  0
 31  2  1  0
 15  9  2  0
 27 16  1  0
M  END
>  <cnnaffinity>  (1) 
-5.61199

>  <filename>  (1) 
Nc1cccc(-c2[nH]ncc2Nc2cccnc2)c1

$$$$
