
     RDKit          3D

 31 34  0  0  0  0  0  0  0  0999 V2000
    4.9187    1.7772   17.0002 H   0  0  0  0  0  0  0  0  0  0  0  0
    5.4049    1.2902   17.8412 C   0  0  0  0  0  0  0  0  0  0  0  0
    6.5695    0.6772   17.5740 N   0  0  0  0  0  0  0  0  0  0  0  0
    7.1728    0.0564   18.5889 C   0  0  0  0  0  0  0  0  0  0  0  0
    8.1225   -0.4335   18.3723 H   0  0  0  0  0  0  0  0  0  0  0  0
    6.6469    0.0109   19.8915 C   0  0  0  0  0  0  0  0  0  0  0  0
    7.4040   -0.6984   20.9197 C   0  0  0  0  0  0  0  0  0  0  0  0
    8.3292   -1.6004   20.6986 N   0  0  0  0  0  0  0  0  0  0  0  0
    8.8305   -2.0367   21.9060 N   0  0  0  0  0  0  0  0  0  0  0  0
    8.2004   -1.3533   22.8220 C   0  0  0  0  0  0  0  0  0  0  0  0
    8.2610   -1.0958   24.5422 S   0  0  0  0  0  0  0  0  0  0  0  0
    7.0296    0.1790   24.3314 C   0  0  0  0  0  0  0  0  0  0  0  0
    6.5331    0.9695   25.4770 C   0  0  0  0  0  0  0  0  0  0  0  0
    7.0020    0.7572   26.7917 C   0  0  0  0  0  0  0  0  0  0  0  0
    7.7513   -0.0052   26.9972 H   0  0  0  0  0  0  0  0  0  0  0  0
    6.5205    1.5152   27.8524 C   0  0  0  0  0  0  0  0  0  0  0  0
    6.8869    1.3435   28.8579 H   0  0  0  0  0  0  0  0  0  0  0  0
    5.5537    2.5122   27.6356 C   0  0  0  0  0  0  0  0  0  0  0  0
    5.0805    3.2600   28.6740 N   0  0  0  0  0  0  0  0  0  0  0  0
    4.3898    3.9691   28.5296 H   0  0  0  0  0  0  0  0  0  0  0  0
    5.4026    3.1124   29.6094 H   0  0  0  0  0  0  0  0  0  0  0  0
    5.0815    2.7301   26.3303 C   0  0  0  0  0  0  0  0  0  0  0  0
    4.3372    3.4972   26.1552 H   0  0  0  0  0  0  0  0  0  0  0  0
    5.5637    1.9721   25.2714 C   0  0  0  0  0  0  0  0  0  0  0  0
    5.1974    2.1469   24.2642 H   0  0  0  0  0  0  0  0  0  0  0  0
    6.6210    0.3541   23.1094 N   0  0  0  0  0  0  0  0  0  0  0  0
    7.2735   -0.5181   22.2836 N   0  0  0  0  0  0  0  0  0  0  0  0
    5.4320    0.6521   20.1621 C   0  0  0  0  0  0  0  0  0  0  0  0
    5.0092    0.6364   21.1706 H   0  0  0  0  0  0  0  0  0  0  0  0
    4.8045    1.3078   19.1075 C   0  0  0  0  0  0  0  0  0  0  0  0
    3.8738    1.8436   19.2597 H   0  0  0  0  0  0  0  0  0  0  0  0
  1  2  1  0
  2  3  2  0
  3  4  1  0
  4  5  1  0
  4  6  2  0
  6  7  1  0
  7  8  2  0
  8  9  1  0
  9 10  2  0
 10 11  1  0
 11 12  1  0
 12 13  1  0
 13 14  2  0
 14 15  1  0
 14 16  1  0
 16 17  1  0
 16 18  2  0
 18 19  1  0
 19 20  1  0
 19 21  1  0
 18 22  1  0
 22 23  1  0
 22 24  2  0
 24 25  1  0
 12 26  2  0
 26 27  1  0
  6 28  1  0
 28 29  1  0
 28 30  2  0
 30 31  1  0
 30  2  1  0
 27  7  1  0
 27 10  1  0
 24 13  1  0
M  END
>  <cnnaffinity>  (1) 
-5.2238

>  <filename>  (1) 
Nc1ccc(-c2nn3c(-c4cccnc4)nnc3s2)cc1

$$$$
