
     RDKit          3D

 33 35  0  0  0  0  0  0  0  0999 V2000
    4.9124    1.7831   16.9921 H   0  0  0  0  0  0  0  0  0  0  0  0
    5.3985    1.2973   17.8318 C   0  0  0  0  0  0  0  0  0  0  0  0
    6.5618    0.6806   17.5616 N   0  0  0  0  0  0  0  0  0  0  0  0
    7.1685    0.0750   18.5891 C   0  0  0  0  0  0  0  0  0  0  0  0
    8.1103   -0.4250   18.3704 H   0  0  0  0  0  0  0  0  0  0  0  0
    6.6511    0.0125   19.8966 C   0  0  0  0  0  0  0  0  0  0  0  0
    7.3662   -0.7070   20.9726 C   0  0  0  0  0  0  0  0  0  0  0  0
    8.7811   -0.5530   21.1232 C   0  0  0  0  0  0  0  0  0  0  0  0
    9.3143    0.1183   20.4423 H   0  0  0  0  0  0  0  0  0  0  0  0
    9.4275   -1.2030   22.1219 C   0  0  0  0  0  0  0  0  0  0  0  0
   10.4921   -1.1277   22.2834 H   0  0  0  0  0  0  0  0  0  0  0  0
    8.7449   -2.0864   23.0612 C   0  0  0  0  0  0  0  0  0  0  0  0
    9.3320   -2.6904   23.9446 O   0  0  0  0  0  0  0  0  0  0  0  0
    7.3264   -2.2040   22.8621 N   0  0  0  0  0  0  0  0  0  0  0  0
    6.5503   -3.0363   23.7499 C   0  0  0  0  0  0  0  0  0  0  0  0
    5.7803   -4.0893   23.2429 C   0  0  0  0  0  0  0  0  0  0  0  0
    5.7822   -4.2598   22.1718 H   0  0  0  0  0  0  0  0  0  0  0  0
    5.0484   -4.9134   24.0973 C   0  0  0  0  0  0  0  0  0  0  0  0
    4.4445   -5.7214   23.7000 H   0  0  0  0  0  0  0  0  0  0  0  0
    5.0681   -4.6841   25.4857 C   0  0  0  0  0  0  0  0  0  0  0  0
    4.3353   -5.4753   26.3273 N   0  0  0  0  0  0  0  0  0  0  0  0
    4.3524   -5.3314   27.3186 H   0  0  0  0  0  0  0  0  0  0  0  0
    3.7842   -6.2348   25.9783 H   0  0  0  0  0  0  0  0  0  0  0  0
    5.8414   -3.6245   25.9928 C   0  0  0  0  0  0  0  0  0  0  0  0
    5.8642   -3.4515   27.0634 H   0  0  0  0  0  0  0  0  0  0  0  0
    6.5771   -2.8146   25.1310 C   0  0  0  0  0  0  0  0  0  0  0  0
    7.1878   -2.0091   25.5201 H   0  0  0  0  0  0  0  0  0  0  0  0
    6.6946   -1.5219   21.8417 C   0  0  0  0  0  0  0  0  0  0  0  0
    5.6200   -1.6768   21.7497 H   0  0  0  0  0  0  0  0  0  0  0  0
    5.4278    0.6508   20.1489 C   0  0  0  0  0  0  0  0  0  0  0  0
    5.0097    0.6377   21.1602 H   0  0  0  0  0  0  0  0  0  0  0  0
    4.8004    1.3189   19.0988 C   0  0  0  0  0  0  0  0  0  0  0  0
    3.8679    1.8483   19.2567 H   0  0  0  0  0  0  0  0  0  0  0  0
  1  2  1  0
  2  3  2  0
  3  4  1  0
  4  5  1  0
  4  6  2  0
  6  7  1  0
  7  8  1  0
  8  9  1  0
  8 10  2  0
 10 11  1  0
 10 12  1  0
 12 13  2  0
 12 14  1  0
 14 15  1  0
 15 16  2  0
 16 17  1  0
 16 18  1  0
 18 19  1  0
 18 20  2  0
 20 21  1  0
 21 22  1  0
 21 23  1  0
 20 24  1  0
 24 25  1  0
 24 26  2  0
 26 27  1  0
 14 28  1  0
 28 29  1  0
  6 30  1  0
 30 31  1  0
 30 32  2  0
 32 33  1  0
 32  2  1  0
 28  7  2  0
 26 15  1  0
M  END
>  <cnnaffinity>  (1) 
-5.73501

>  <filename>  (1) 
Nc1ccc(-n2cc(-c3cccnc3)ccc2=O)cc1

$$$$
