
     RDKit          3D

 31 34  0  0  0  0  0  0  0  0999 V2000
    4.9307    1.7928   16.9836 H   0  0  0  0  0  0  0  0  0  0  0  0
    5.3942    1.2899   17.8334 C   0  0  0  0  0  0  0  0  0  0  0  0
    6.5566    0.6646   17.5892 N   0  0  0  0  0  0  0  0  0  0  0  0
    7.1615    0.0611   18.6203 C   0  0  0  0  0  0  0  0  0  0  0  0
    8.1118   -0.4080   18.3662 H   0  0  0  0  0  0  0  0  0  0  0  0
    6.6573    0.0394   19.9413 C   0  0  0  0  0  0  0  0  0  0  0  0
    7.3936   -0.6387   21.0344 C   0  0  0  0  0  0  0  0  0  0  0  0
    8.1552   -1.7277   20.8997 C   0  0  0  0  0  0  0  0  0  0  0  0
    8.3804   -2.1331   19.9476 H   0  0  0  0  0  0  0  0  0  0  0  0
    8.8333   -2.3491   22.3653 S   0  0  0  0  0  0  0  0  0  0  0  0
    8.1227   -1.0141   23.2209 C   0  0  0  0  0  0  0  0  0  0  0  0
    8.1432   -0.5051   24.4345 N   0  0  0  0  0  0  0  0  0  0  0  0
    7.3771    0.6067   24.2592 C   0  0  0  0  0  0  0  0  0  0  0  0
    7.0877    1.5496   25.3067 C   0  0  0  0  0  0  0  0  0  0  0  0
    7.5993    1.3338   26.5877 C   0  0  0  0  0  0  0  0  0  0  0  0
    8.2174    0.4580   26.7967 H   0  0  0  0  0  0  0  0  0  0  0  0
    7.3702    2.1593   27.6109 N   0  0  0  0  0  0  0  0  0  0  0  0
    6.6211    3.2266   27.3489 C   0  0  0  0  0  0  0  0  0  0  0  0
    6.4263    4.0391   28.3900 N   0  0  0  0  0  0  0  0  0  0  0  0
    5.8482    4.8374   28.2707 H   0  0  0  0  0  0  0  0  0  0  0  0
    6.8330    3.7119   29.2409 H   0  0  0  0  0  0  0  0  0  0  0  0
    6.0562    3.5425   26.1017 C   0  0  0  0  0  0  0  0  0  0  0  0
    5.4632    4.4411   26.0183 H   0  0  0  0  0  0  0  0  0  0  0  0
    6.2935    2.6901   25.0511 C   0  0  0  0  0  0  0  0  0  0  0  0
    5.8907    2.8751   24.0490 H   0  0  0  0  0  0  0  0  0  0  0  0
    6.8965    0.8079   23.0380 N   0  0  0  0  0  0  0  0  0  0  0  0
    7.3856   -0.2583   22.3768 N   0  0  0  0  0  0  0  0  0  0  0  0
    5.4260    0.6756   20.1638 C   0  0  0  0  0  0  0  0  0  0  0  0
    5.0042    0.6737   21.1669 H   0  0  0  0  0  0  0  0  0  0  0  0
    4.7914    1.3115   19.0949 C   0  0  0  0  0  0  0  0  0  0  0  0
    3.8599    1.8478   19.2350 H   0  0  0  0  0  0  0  0  0  0  0  0
  1  2  1  0
  2  3  2  0
  3  4  1  0
  4  5  1  0
  4  6  2  0
  6  7  1  0
  7  8  2  0
  8  9  1  0
  8 10  1  0
 10 11  1  0
 11 12  2  0
 12 13  1  0
 13 14  1  0
 14 15  2  0
 15 16  1  0
 15 17  1  0
 17 18  2  0
 18 19  1  0
 19 20  1  0
 19 21  1  0
 18 22  1  0
 22 23  1  0
 22 24  2  0
 24 25  1  0
 13 26  2  0
 26 27  1  0
  6 28  1  0
 28 29  1  0
 28 30  2  0
 30 31  1  0
 30  2  1  0
 27  7  1  0
 27 11  1  0
 24 14  1  0
M  END
>  <cnnaffinity>  (1) 
-5.22395

>  <filename>  (1) 
Nc1ccc(-c2nc3scc(-c4cccnc4)n3n2)cn1

$$$$
