
     RDKit          3D

 35 38  0  0  0  0  0  0  0  0999 V2000
   14.6099    2.2567   22.6767 H   0  0  0  0  0  0  0  0  0  0  0  0
   13.5214    2.2049   22.7485 C   0  0  0  0  0  0  0  0  0  0  0  0
   12.9461    1.0907   22.2752 N   0  0  0  0  0  0  0  0  0  0  0  0
   11.5878    1.0159   22.3376 C   0  0  0  0  0  0  0  0  0  0  0  0
   10.9368   -0.2613   21.8429 C   0  0  1  0  0  0  0  0  0  0  0  0
   11.7519   -0.8618   21.4295 H   0  0  0  0  0  0  0  0  0  0  0  0
   10.2323   -1.0999   22.9842 C   0  0  0  0  0  0  0  0  0  0  0  0
   10.3334   -0.6564   23.9799 H   0  0  0  0  0  0  0  0  0  0  0  0
   10.6504   -2.1105   23.0453 H   0  0  0  0  0  0  0  0  0  0  0  0
    8.7949   -1.1381   22.5545 C   0  0  0  0  0  0  0  0  0  0  0  0
    7.6762   -1.6083   23.0770 N   0  0  0  0  0  0  0  0  0  0  0  0
    6.7332   -1.2438   22.1688 N   0  0  0  0  0  0  0  0  0  0  0  0
    5.7739   -1.5330   22.3265 H   0  0  0  0  0  0  0  0  0  0  0  0
    7.2360   -0.5804   21.0847 C   0  0  0  0  0  0  0  0  0  0  0  0
    6.4775    0.0112   19.9658 C   0  0  0  0  0  0  0  0  0  0  0  0
    7.0691    0.0218   18.6869 C   0  0  0  0  0  0  0  0  0  0  0  0
    8.0014   -0.5145   18.5187 H   0  0  0  0  0  0  0  0  0  0  0  0
    6.5538    0.6367   17.6141 N   0  0  0  0  0  0  0  0  0  0  0  0
    5.4015    1.3002   17.7877 C   0  0  0  0  0  0  0  0  0  0  0  0
    5.0073    1.8183   16.9157 H   0  0  0  0  0  0  0  0  0  0  0  0
    4.7129    1.3422   19.0060 C   0  0  0  0  0  0  0  0  0  0  0  0
    3.7900    1.9031   19.0834 H   0  0  0  0  0  0  0  0  0  0  0  0
    5.2491    0.6774   20.1105 C   0  0  0  0  0  0  0  0  0  0  0  0
    4.7480    0.6954   21.0802 H   0  0  0  0  0  0  0  0  0  0  0  0
    8.5919   -0.5196   21.3290 C   0  0  0  0  0  0  0  0  0  0  0  0
    9.8576   -0.0275   20.7213 C   0  0  0  0  0  0  0  0  0  0  0  0
   10.0989   -0.6263   19.8366 H   0  0  0  0  0  0  0  0  0  0  0  0
    9.7920    1.0138   20.3758 H   0  0  0  0  0  0  0  0  0  0  0  0
   10.8465    2.0897   22.8610 C   0  0  0  0  0  0  0  0  0  0  0  0
    9.7620    2.0328   22.9217 H   0  0  0  0  0  0  0  0  0  0  0  0
   11.4060    3.2274   23.3307 N   0  0  0  0  0  0  0  0  0  0  0  0
   12.7450    3.2812   23.2891 C   0  0  0  0  0  0  0  0  0  0  0  0
   13.2036    4.4584   23.8488 N   0  0  0  0  0  0  0  0  0  0  0  0
   12.3653    5.0333   23.8714 H   0  0  0  0  0  0  0  0  0  0  0  0
   13.9746    4.8967   23.3725 H   0  0  0  0  0  0  0  0  0  0  0  0
  1  2  1  0
  2  3  2  0
  3  4  1  0
  4  5  1  0
  5  6  1  6
  5  7  1  0
  7  8  1  0
  7  9  1  0
  7 10  1  0
 10 11  2  0
 11 12  1  0
 12 13  1  0
 12 14  1  0
 14 15  1  0
 15 16  2  0
 16 17  1  0
 16 18  1  0
 18 19  2  0
 19 20  1  0
 19 21  1  0
 21 22  1  0
 21 23  2  0
 23 24  1  0
 14 25  2  0
 25 26  1  0
 26 27  1  0
 26 28  1  0
  4 29  2  0
 29 30  1  0
 29 31  1  0
 31 32  2  0
 32 33  1  0
 33 34  1  0
 33 35  1  0
 32  2  1  0
 26  5  1  0
 25 10  1  0
 23 15  1  0
M  END
>  <cnnaffinity>  (1) 
-5.49825

>  <filename>  (1) 
Nc1cnc([C@H]2Cc3n[nH]c(-c4cccnc4)c3C2)cn1

$$$$
