
     RDKit          3D

 31 33  0  0  0  0  0  0  0  0999 V2000
    4.9321    1.7940   16.9962 H   0  0  0  0  0  0  0  0  0  0  0  0
    5.3986    1.2892   17.8384 C   0  0  0  0  0  0  0  0  0  0  0  0
    6.5538    0.6600   17.5748 N   0  0  0  0  0  0  0  0  0  0  0  0
    7.1715    0.0418   18.5862 C   0  0  0  0  0  0  0  0  0  0  0  0
    8.1246   -0.4314   18.3597 H   0  0  0  0  0  0  0  0  0  0  0  0
    6.6521   -0.0046   19.8960 C   0  0  0  0  0  0  0  0  0  0  0  0
    7.3352   -0.6875   20.9472 N   0  0  0  0  0  0  0  0  0  0  0  0
    6.7399   -1.6076   21.8023 C   0  0  0  0  0  0  0  0  0  0  0  0
    5.6924   -1.8443   21.7056 H   0  0  0  0  0  0  0  0  0  0  0  0
    7.6842   -2.0663   22.6606 C   0  0  0  0  0  0  0  0  0  0  0  0
    7.5723   -3.0175   23.7801 C   0  0  0  0  0  0  0  0  0  0  0  0
    6.2962   -3.2711   24.3132 C   0  0  0  0  0  0  0  0  0  0  0  0
    5.4449   -2.7352   23.9068 H   0  0  0  0  0  0  0  0  0  0  0  0
    6.1212   -4.1851   25.3546 C   0  0  0  0  0  0  0  0  0  0  0  0
    5.1229   -4.3723   25.7470 H   0  0  0  0  0  0  0  0  0  0  0  0
    7.2229   -4.8574   25.8871 C   0  0  0  0  0  0  0  0  0  0  0  0
    7.1228   -5.5735   26.6988 H   0  0  0  0  0  0  0  0  0  0  0  0
    8.5061   -4.6085   25.3702 C   0  0  0  0  0  0  0  0  0  0  0  0
    9.5911   -5.2597   25.8872 N   0  0  0  0  0  0  0  0  0  0  0  0
    9.4753   -5.9161   26.6365 H   0  0  0  0  0  0  0  0  0  0  0  0
   10.5076   -5.0796   25.5241 H   0  0  0  0  0  0  0  0  0  0  0  0
    8.6762   -3.6941   24.3209 C   0  0  0  0  0  0  0  0  0  0  0  0
    9.6814   -3.5449   23.9417 H   0  0  0  0  0  0  0  0  0  0  0  0
    8.8535   -1.4128   22.2977 N   0  0  0  0  0  0  0  0  0  0  0  0
    9.7588   -1.4034   22.7406 H   0  0  0  0  0  0  0  0  0  0  0  0
    8.6567   -0.5211   21.3011 C   0  0  0  0  0  0  0  0  0  0  0  0
    9.8138    0.5332   20.7640 S   0  0  0  0  0  0  0  0  0  0  0  0
    5.4418    0.6441   20.1596 C   0  0  0  0  0  0  0  0  0  0  0  0
    5.0356    0.6314   21.1736 H   0  0  0  0  0  0  0  0  0  0  0  0
    4.8085    1.3095   19.1069 C   0  0  0  0  0  0  0  0  0  0  0  0
    3.8790    1.8421   19.2583 H   0  0  0  0  0  0  0  0  0  0  0  0
  1  2  1  0
  2  3  2  0
  3  4  1  0
  4  5  1  0
  4  6  2  0
  6  7  1  0
  7  8  1  0
  8  9  1  0
  8 10  2  0
 10 11  1  0
 11 12  2  0
 12 13  1  0
 12 14  1  0
 14 15  1  0
 14 16  2  0
 16 17  1  0
 16 18  1  0
 18 19  1  0
 19 20  1  0
 19 21  1  0
 18 22  2  0
 22 23  1  0
 10 24  1  0
 24 25  1  0
 24 26  1  0
 26 27  2  0
  6 28  1  0
 28 29  1  0
 28 30  2  0
 30 31  1  0
 30  2  1  0
 26  7  1  0
 22 11  1  0
M  END
>  <cnnaffinity>  (1) 
-5.3881

>  <filename>  (1) 
Nc1cccc(-c2cn(-c3cccnc3)c(=S)[nH]2)c1

$$$$
