
     RDKit          3D

 27 29  0  0  0  0  0  0  0  0999 V2000
    4.9177    1.7894   17.0019 H   0  0  0  0  0  0  0  0  0  0  0  0
    5.3969    1.2879   17.8399 C   0  0  0  0  0  0  0  0  0  0  0  0
    6.5526    0.6653   17.5704 N   0  0  0  0  0  0  0  0  0  0  0  0
    7.1908    0.0580   18.5774 C   0  0  0  0  0  0  0  0  0  0  0  0
    8.1411   -0.4167   18.3447 H   0  0  0  0  0  0  0  0  0  0  0  0
    6.6889    0.0278   19.8946 C   0  0  0  0  0  0  0  0  0  0  0  0
    7.2861   -0.6630   20.9594 O   0  0  0  0  0  0  0  0  0  0  0  0
    8.6158   -0.7745   21.0837 C   0  0  0  0  0  0  0  0  0  0  0  0
    9.5532   -0.1005   20.4738 N   0  0  0  0  0  0  0  0  0  0  0  0
   10.7172   -0.5815   20.9812 N   0  0  0  0  0  0  0  0  0  0  0  0
   10.5166   -1.5022   21.8428 N   0  0  0  0  0  0  0  0  0  0  0  0
    9.1694   -1.6651   21.9568 N   0  0  0  0  0  0  0  0  0  0  0  0
    8.6330   -2.6329   22.8698 C   0  0  0  0  0  0  0  0  0  0  0  0
    7.3601   -2.5111   23.4330 C   0  0  0  0  0  0  0  0  0  0  0  0
    6.7486   -1.6435   23.1923 H   0  0  0  0  0  0  0  0  0  0  0  0
    6.8380   -3.4101   24.2566 N   0  0  0  0  0  0  0  0  0  0  0  0
    7.6178   -4.4530   24.5092 C   0  0  0  0  0  0  0  0  0  0  0  0
    7.0950   -5.3608   25.3005 N   0  0  0  0  0  0  0  0  0  0  0  0
    7.7185   -6.1029   25.5274 H   0  0  0  0  0  0  0  0  0  0  0  0
    6.1941   -5.1048   25.6388 H   0  0  0  0  0  0  0  0  0  0  0  0
    8.8464   -4.7045   24.0698 N   0  0  0  0  0  0  0  0  0  0  0  0
    9.3507   -3.7705   23.2771 C   0  0  0  0  0  0  0  0  0  0  0  0
   10.3769   -3.9068   22.9436 H   0  0  0  0  0  0  0  0  0  0  0  0
    5.4686    0.6446   20.1673 C   0  0  0  0  0  0  0  0  0  0  0  0
    5.0532    0.6043   21.1745 H   0  0  0  0  0  0  0  0  0  0  0  0
    4.8221    1.3010   19.1157 C   0  0  0  0  0  0  0  0  0  0  0  0
    3.8882    1.8269   19.2702 H   0  0  0  0  0  0  0  0  0  0  0  0
  1  2  1  0
  2  3  2  0
  3  4  1  0
  4  5  1  0
  4  6  2  0
  6  7  1  0
  7  8  1  0
  8  9  2  0
  9 10  1  0
 10 11  2  0
 11 12  1  0
 12 13  1  0
 13 14  2  0
 14 15  1  0
 14 16  1  0
 16 17  2  0
 17 18  1  0
 18 19  1  0
 18 20  1  0
 17 21  1  0
 21 22  2  0
 22 23  1  0
  6 24  1  0
 24 25  1  0
 24 26  2  0
 26 27  1  0
 26  2  1  0
 12  8  1  0
 22 13  1  0
M  END
>  <cnnaffinity>  (1) 
-5.03051

>  <filename>  (1) 
Nc1ncc(-n2nnnc2Oc2cccnc2)cn1

$$$$
