
     RDKit          3D

 35 38  0  0  0  0  0  0  0  0999 V2000
    5.0358    1.7995   16.9241 H   0  0  0  0  0  0  0  0  0  0  0  0
    5.4094    1.2795   17.8039 C   0  0  0  0  0  0  0  0  0  0  0  0
    6.5577    0.6039   17.6389 N   0  0  0  0  0  0  0  0  0  0  0  0
    7.0538   -0.0183   18.7145 C   0  0  0  0  0  0  0  0  0  0  0  0
    7.9800   -0.5728   18.5674 H   0  0  0  0  0  0  0  0  0  0  0  0
    6.4509   -0.0249   19.9869 C   0  0  0  0  0  0  0  0  0  0  0  0
    7.2054   -0.6314   21.0967 C   0  0  0  0  0  0  0  0  0  0  0  0
    8.5625   -0.5830   21.3216 C   0  0  0  0  0  0  0  0  0  0  0  0
    8.7699   -1.1437   22.5720 C   0  0  0  0  0  0  0  0  0  0  0  0
    7.6533   -1.5933   23.1202 N   0  0  0  0  0  0  0  0  0  0  0  0
    6.7075   -1.2565   22.2039 N   0  0  0  0  0  0  0  0  0  0  0  0
    5.7608   -1.5856   22.3381 H   0  0  0  0  0  0  0  0  0  0  0  0
   10.1900   -1.0164   23.0296 C   0  0  0  0  0  0  0  0  0  0  0  0
   10.2363   -0.4060   23.9376 H   0  0  0  0  0  0  0  0  0  0  0  0
   10.6348   -1.9835   23.2793 H   0  0  0  0  0  0  0  0  0  0  0  0
   10.9147   -0.3439   21.7986 C   0  0  2  0  0  0  0  0  0  0  0  0
   11.5973   -1.1039   21.3921 H   0  0  0  0  0  0  0  0  0  0  0  0
   11.7436    0.8835   22.1586 C   0  0  0  0  0  0  0  0  0  0  0  0
   11.8382    2.0553   21.3916 C   0  0  0  0  0  0  0  0  0  0  0  0
   11.3287    2.1312   20.4270 H   0  0  0  0  0  0  0  0  0  0  0  0
   12.5625    3.1191   21.7195 N   0  0  0  0  0  0  0  0  0  0  0  0
   13.2424    2.9928   22.8460 C   0  0  0  0  0  0  0  0  0  0  0  0
   13.9669    4.0673   23.2010 N   0  0  0  0  0  0  0  0  0  0  0  0
   14.7662    3.7013   23.6911 H   0  0  0  0  0  0  0  0  0  0  0  0
   14.1371    4.5634   22.3426 H   0  0  0  0  0  0  0  0  0  0  0  0
   13.3323    1.9418   23.6464 N   0  0  0  0  0  0  0  0  0  0  0  0
   12.5626    0.9150   23.2959 C   0  0  0  0  0  0  0  0  0  0  0  0
   12.5980    0.0541   23.9729 H   0  0  0  0  0  0  0  0  0  0  0  0
    9.8193   -0.0761   20.7114 C   0  0  0  0  0  0  0  0  0  0  0  0
    9.7201    0.9778   20.4421 H   0  0  0  0  0  0  0  0  0  0  0  0
   10.0571   -0.5972   19.7801 H   0  0  0  0  0  0  0  0  0  0  0  0
    5.2262    0.6519   20.1265 C   0  0  0  0  0  0  0  0  0  0  0  0
    4.7058    0.6759   21.0869 H   0  0  0  0  0  0  0  0  0  0  0  0
    4.7082    1.3235   19.0165 C   0  0  0  0  0  0  0  0  0  0  0  0
    3.7895    1.8984   19.0768 H   0  0  0  0  0  0  0  0  0  0  0  0
  1  2  1  0
  2  3  2  0
  3  4  1  0
  4  5  1  0
  4  6  2  0
  6  7  1  0
  7  8  2  0
  8  9  1  0
  9 10  2  0
 10 11  1  0
 11 12  1  0
  9 13  1  0
 13 14  1  0
 13 15  1  0
 13 16  1  0
 16 17  1  6
 16 18  1  0
 18 19  2  0
 19 20  1  0
 19 21  1  0
 21 22  2  0
 22 23  1  0
 23 24  1  0
 23 25  1  0
 22 26  1  0
 26 27  2  0
 27 28  1  0
 16 29  1  0
 29 30  1  0
 29 31  1  0
  6 32  1  0
 32 33  1  0
 32 34  2  0
 34 35  1  0
 34  2  1  0
 11  7  1  0
 27 18  1  0
 29  8  1  0
M  END
>  <cnnaffinity>  (1) 
-5.90065

>  <filename>  (1) 
Nc1ncc([C@H]2Cc3n[nH]c(-c4cccnc4)c3C2)cn1

$$$$
