
     RDKit          3D

 33 35  0  0  0  0  0  0  0  0999 V2000
    5.0304    1.7529   17.0154 H   0  0  0  0  0  0  0  0  0  0  0  0
    5.4648    1.2232   17.8591 C   0  0  0  0  0  0  0  0  0  0  0  0
    6.5904    0.5364   17.6077 N   0  0  0  0  0  0  0  0  0  0  0  0
    7.1519   -0.1169   18.6310 C   0  0  0  0  0  0  0  0  0  0  0  0
    8.0648   -0.6683   18.3965 H   0  0  0  0  0  0  0  0  0  0  0  0
    6.6529   -0.1085   19.9431 C   0  0  0  0  0  0  0  0  0  0  0  0
    7.3683   -0.9087   21.0082 C   0  0  0  0  0  0  0  0  0  0  0  0
    6.8511   -2.2624   20.8901 N   0  0  0  0  0  0  0  0  0  0  0  0
    6.0990   -2.3293   20.2164 H   0  0  0  0  0  0  0  0  0  0  0  0
    7.3702   -3.4490   21.4454 C   0  0  0  0  0  0  0  0  0  0  0  0
    7.1792   -4.7029   20.8172 C   0  0  0  0  0  0  0  0  0  0  0  0
    6.5882   -4.7230   19.8955 H   0  0  0  0  0  0  0  0  0  0  0  0
    7.6924   -5.8599   21.2363 N   0  0  0  0  0  0  0  0  0  0  0  0
    8.3150   -5.7888   22.4066 C   0  0  0  0  0  0  0  0  0  0  0  0
    8.7830   -6.9246   22.9381 N   0  0  0  0  0  0  0  0  0  0  0  0
    9.4092   -6.6363   23.6685 H   0  0  0  0  0  0  0  0  0  0  0  0
    9.1074   -7.5425   22.2201 H   0  0  0  0  0  0  0  0  0  0  0  0
    8.5628   -4.7195   23.1484 N   0  0  0  0  0  0  0  0  0  0  0  0
    8.1038   -3.5697   22.6438 C   0  0  0  0  0  0  0  0  0  0  0  0
    8.3212   -2.6915   23.2441 H   0  0  0  0  0  0  0  0  0  0  0  0
    7.3241   -0.3151   22.4471 C   0  0  0  0  0  0  0  0  0  0  0  0
    6.8080    0.6466   22.4944 H   0  0  0  0  0  0  0  0  0  0  0  0
    6.8593   -0.9801   23.1825 H   0  0  0  0  0  0  0  0  0  0  0  0
    8.8702   -0.1848   22.4594 C   0  0  0  0  0  0  0  0  0  0  0  0
    9.3910   -0.7890   23.2139 H   0  0  0  0  0  0  0  0  0  0  0  0
    9.2237    0.8473   22.5590 H   0  0  0  0  0  0  0  0  0  0  0  0
    8.9231   -0.7392   21.0115 C   0  0  0  0  0  0  0  0  0  0  0  0
    9.2645    0.0007   20.2806 H   0  0  0  0  0  0  0  0  0  0  0  0
    9.4845   -1.6647   20.8479 H   0  0  0  0  0  0  0  0  0  0  0  0
    5.4445    0.5662   20.1675 C   0  0  0  0  0  0  0  0  0  0  0  0
    4.9920    0.5452   21.1597 H   0  0  0  0  0  0  0  0  0  0  0  0
    4.8436    1.2538   19.1125 C   0  0  0  0  0  0  0  0  0  0  0  0
    3.9247    1.8167   19.2502 H   0  0  0  0  0  0  0  0  0  0  0  0
  1  2  1  0
  2  3  2  0
  3  4  1  0
  4  5  1  0
  4  6  2  0
  6  7  1  0
  7  8  1  0
  8  9  1  0
  8 10  1  0
 10 11  2  0
 11 12  1  0
 11 13  1  0
 13 14  2  0
 14 15  1  0
 15 16  1  0
 15 17  1  0
 14 18  1  0
 18 19  2  0
 19 20  1  0
  7 21  1  0
 21 22  1  0
 21 23  1  0
 21 24  1  0
 24 25  1  0
 24 26  1  0
 24 27  1  0
 27 28  1  0
 27 29  1  0
  6 30  1  0
 30 31  1  0
 30 32  2  0
 32 33  1  0
 32  2  1  0
 27  7  1  0
 19 10  1  0
M  END
>  <cnnaffinity>  (1) 
-5.50562

>  <filename>  (1) 
Nc1ncc(NC2(c3cccnc3)CCC2)cn1

$$$$
