
     RDKit          3D

 28 30  0  0  0  0  0  0  0  0999 V2000
    4.9263    1.7953   16.9885 H   0  0  0  0  0  0  0  0  0  0  0  0
    5.4002    1.2970   17.8335 C   0  0  0  0  0  0  0  0  0  0  0  0
    6.5632    0.6791   17.5737 N   0  0  0  0  0  0  0  0  0  0  0  0
    7.1610    0.0472   18.5886 C   0  0  0  0  0  0  0  0  0  0  0  0
    8.1094   -0.4368   18.3593 H   0  0  0  0  0  0  0  0  0  0  0  0
    6.6388    0.0081   19.8914 C   0  0  0  0  0  0  0  0  0  0  0  0
    7.3738   -0.7156   20.9219 C   0  0  0  0  0  0  0  0  0  0  0  0
    7.9646   -1.8505   20.7060 N   0  0  0  0  0  0  0  0  0  0  0  0
    8.4710   -2.1899   21.9177 N   0  0  0  0  0  0  0  0  0  0  0  0
    9.0097   -3.0312   22.0717 H   0  0  0  0  0  0  0  0  0  0  0  0
    8.2573   -1.2924   22.8934 C   0  0  0  0  0  0  0  0  0  0  0  0
    8.8044   -1.4194   24.4537 S   0  0  0  0  0  0  0  0  0  0  0  0
    7.5133   -0.2927   22.2503 N   0  0  0  0  0  0  0  0  0  0  0  0
    7.1090    0.9844   22.8366 C   0  0  0  0  0  0  0  0  0  0  0  0
    6.3638    1.0722   24.0236 C   0  0  0  0  0  0  0  0  0  0  0  0
    6.0617    0.1582   24.5391 H   0  0  0  0  0  0  0  0  0  0  0  0
    5.9942    2.2196   24.5847 N   0  0  0  0  0  0  0  0  0  0  0  0
    6.4063    3.3058   23.9420 C   0  0  0  0  0  0  0  0  0  0  0  0
    6.0651    4.4505   24.4876 N   0  0  0  0  0  0  0  0  0  0  0  0
    5.5324    4.3570   25.3231 H   0  0  0  0  0  0  0  0  0  0  0  0
    6.3652    5.2417   23.9619 H   0  0  0  0  0  0  0  0  0  0  0  0
    7.1184    3.3988   22.8280 N   0  0  0  0  0  0  0  0  0  0  0  0
    7.4530    2.2302   22.2892 C   0  0  0  0  0  0  0  0  0  0  0  0
    8.0258    2.2666   21.3607 H   0  0  0  0  0  0  0  0  0  0  0  0
    5.4218    0.6511   20.1490 C   0  0  0  0  0  0  0  0  0  0  0  0
    5.0073    0.6378   21.1581 H   0  0  0  0  0  0  0  0  0  0  0  0
    4.7964    1.3117   19.0961 C   0  0  0  0  0  0  0  0  0  0  0  0
    3.8685    1.8475   19.2453 H   0  0  0  0  0  0  0  0  0  0  0  0
  1  2  1  0
  2  3  2  0
  3  4  1  0
  4  5  1  0
  4  6  2  0
  6  7  1  0
  7  8  2  0
  8  9  1  0
  9 10  1  0
  9 11  1  0
 11 12  2  0
 11 13  1  0
 13 14  1  0
 14 15  2  0
 15 16  1  0
 15 17  1  0
 17 18  2  0
 18 19  1  0
 19 20  1  0
 19 21  1  0
 18 22  1  0
 22 23  2  0
 23 24  1  0
  6 25  1  0
 25 26  1  0
 25 27  2  0
 27 28  1  0
 27  2  1  0
 13  7  1  0
 23 14  1  0
M  END
>  <cnnaffinity>  (1) 
-5.02581

>  <filename>  (1) 
Nc1ncc(-n2c(-c3cccnc3)n[nH]c2=S)cn1

$$$$
