
     RDKit          3D

 31 33  0  0  0  0  0  0  0  0999 V2000
    4.9155    1.7980   16.9791 H   0  0  0  0  0  0  0  0  0  0  0  0
    5.3932    1.3008   17.8223 C   0  0  0  0  0  0  0  0  0  0  0  0
    6.5561    0.6826   17.5586 N   0  0  0  0  0  0  0  0  0  0  0  0
    7.1706    0.0749   18.5829 C   0  0  0  0  0  0  0  0  0  0  0  0
    8.1112   -0.4216   18.3463 H   0  0  0  0  0  0  0  0  0  0  0  0
    6.6694    0.0187   19.8972 C   0  0  0  0  0  0  0  0  0  0  0  0
    7.3980   -0.6974   20.9733 C   0  0  0  0  0  0  0  0  0  0  0  0
    6.6830   -1.5485   21.8672 C   0  0  0  0  0  0  0  0  0  0  0  0
    5.6130   -1.6719   21.7157 H   0  0  0  0  0  0  0  0  0  0  0  0
    7.3336   -2.2090   22.8594 C   0  0  0  0  0  0  0  0  0  0  0  0
    6.8477   -2.8555   23.5693 H   0  0  0  0  0  0  0  0  0  0  0  0
    8.7648   -2.0859   23.0740 C   0  0  0  0  0  0  0  0  0  0  0  0
    9.3565   -2.6682   23.9653 O   0  0  0  0  0  0  0  0  0  0  0  0
    9.4525   -1.2099   22.1324 N   0  0  0  0  0  0  0  0  0  0  0  0
   10.8862   -1.0006   22.1979 C   0  0  0  0  0  0  0  0  0  0  0  0
   11.4795    0.2668   22.3354 C   0  0  0  0  0  0  0  0  0  0  0  0
   10.8561    1.1624   22.3915 H   0  0  0  0  0  0  0  0  0  0  0  0
   12.7879    0.4590   22.4544 N   0  0  0  0  0  0  0  0  0  0  0  0
   13.5036   -0.6557   22.4120 C   0  0  0  0  0  0  0  0  0  0  0  0
   14.7819   -0.5137   22.6593 N   0  0  0  0  0  0  0  0  0  0  0  0
   15.0764    0.4374   22.6091 H   0  0  0  0  0  0  0  0  0  0  0  0
   15.2783   -1.3664   22.4948 H   0  0  0  0  0  0  0  0  0  0  0  0
   13.1168   -1.9022   22.1842 N   0  0  0  0  0  0  0  0  0  0  0  0
   11.8017   -2.0657   22.1601 C   0  0  0  0  0  0  0  0  0  0  0  0
   11.4250   -3.0883   22.1569 H   0  0  0  0  0  0  0  0  0  0  0  0
    8.7490   -0.5631   21.1328 C   0  0  0  0  0  0  0  0  0  0  0  0
    9.3392    0.0754   20.4835 H   0  0  0  0  0  0  0  0  0  0  0  0
    5.4423    0.6555   20.1400 C   0  0  0  0  0  0  0  0  0  0  0  0
    5.0167    0.6435   21.1439 H   0  0  0  0  0  0  0  0  0  0  0  0
    4.8014    1.3181   19.0914 C   0  0  0  0  0  0  0  0  0  0  0  0
    3.8668    1.8482   19.2425 H   0  0  0  0  0  0  0  0  0  0  0  0
  1  2  1  0
  2  3  2  0
  3  4  1  0
  4  5  1  0
  4  6  2  0
  6  7  1  0
  7  8  1  0
  8  9  1  0
  8 10  2  0
 10 11  1  0
 10 12  1  0
 12 13  2  0
 12 14  1  0
 14 15  1  0
 15 16  2  0
 16 17  1  0
 16 18  1  0
 18 19  2  0
 19 20  1  0
 20 21  1  0
 20 22  1  0
 19 23  1  0
 23 24  2  0
 24 25  1  0
 14 26  1  0
 26 27  1  0
  6 28  1  0
 28 29  1  0
 28 30  2  0
 30 31  1  0
 30  2  1  0
 26  7  2  0
 24 15  1  0
M  END
>  <cnnaffinity>  (1) 
-5.91077

>  <filename>  (1) 
Nc1ncc(-n2cc(-c3cccnc3)ccc2=O)cn1

$$$$
