
     RDKit          3D

 30 32  0  0  0  0  0  0  0  0999 V2000
    4.9237    1.8163   16.9944 H   0  0  0  0  0  0  0  0  0  0  0  0
    5.3958    1.3042   17.8292 C   0  0  0  0  0  0  0  0  0  0  0  0
    6.5570    0.6854   17.5601 N   0  0  0  0  0  0  0  0  0  0  0  0
    7.1693    0.0459   18.5696 C   0  0  0  0  0  0  0  0  0  0  0  0
    8.1178   -0.4367   18.3364 H   0  0  0  0  0  0  0  0  0  0  0  0
    6.6602   -0.0319   19.8926 C   0  0  0  0  0  0  0  0  0  0  0  0
    7.3037   -0.7419   20.9157 N   0  0  0  0  0  0  0  0  0  0  0  0
    6.7339   -0.9852   21.7170 H   0  0  0  0  0  0  0  0  0  0  0  0
    8.6963   -0.7799   21.1272 C   0  0  0  0  0  0  0  0  0  0  0  0
    9.6899    0.1384   20.7044 C   0  0  0  0  0  0  0  0  0  0  0  0
    9.5394    1.0247   20.1071 H   0  0  0  0  0  0  0  0  0  0  0  0
   10.9037   -0.1924   21.1336 N   0  0  0  0  0  0  0  0  0  0  0  0
   10.6982   -1.3181   21.8337 N   0  0  0  0  0  0  0  0  0  0  0  0
   11.4853   -1.8251   22.2131 H   0  0  0  0  0  0  0  0  0  0  0  0
    9.4027   -1.7285   21.8571 C   0  0  0  0  0  0  0  0  0  0  0  0
    8.9603   -2.9279   22.5493 C   0  0  0  0  0  0  0  0  0  0  0  0
    7.9024   -3.7068   22.0608 C   0  0  0  0  0  0  0  0  0  0  0  0
    7.4156   -3.4456   21.1162 H   0  0  0  0  0  0  0  0  0  0  0  0
    7.4368   -4.7875   22.6724 N   0  0  0  0  0  0  0  0  0  0  0  0
    7.9979   -5.0165   23.8527 C   0  0  0  0  0  0  0  0  0  0  0  0
    7.4073   -5.9451   24.5853 N   0  0  0  0  0  0  0  0  0  0  0  0
    8.0868   -6.3278   25.2145 H   0  0  0  0  0  0  0  0  0  0  0  0
    6.8977   -6.5440   23.9709 H   0  0  0  0  0  0  0  0  0  0  0  0
    9.0639   -4.4543   24.4009 N   0  0  0  0  0  0  0  0  0  0  0  0
    9.5130   -3.3922   23.7539 C   0  0  0  0  0  0  0  0  0  0  0  0
   10.3404   -2.8623   24.2410 H   0  0  0  0  0  0  0  0  0  0  0  0
    5.4428    0.6199   20.1432 C   0  0  0  0  0  0  0  0  0  0  0  0
    5.0294    0.6068   21.1511 H   0  0  0  0  0  0  0  0  0  0  0  0
    4.8073    1.3022   19.0989 C   0  0  0  0  0  0  0  0  0  0  0  0
    3.8769    1.8354   19.2570 H   0  0  0  0  0  0  0  0  0  0  0  0
  1  2  1  0
  2  3  2  0
  3  4  1  0
  4  5  1  0
  4  6  2  0
  6  7  1  0
  7  8  1  0
  7  9  1  0
  9 10  1  0
 10 11  1  0
 10 12  2  0
 12 13  1  0
 13 14  1  0
 13 15  1  0
 15 16  1  0
 16 17  2  0
 17 18  1  0
 17 19  1  0
 19 20  2  0
 20 21  1  0
 21 22  1  0
 21 23  1  0
 20 24  1  0
 24 25  2  0
 25 26  1  0
  6 27  1  0
 27 28  1  0
 27 29  2  0
 29 30  1  0
 29  2  1  0
 15  9  2  0
 25 16  1  0
M  END
>  <cnnaffinity>  (1) 
-5.63748

>  <filename>  (1) 
Nc1ncc(-c2[nH]ncc2Nc2cccnc2)cn1

$$$$
