
     RDKit          3D

 32 34  0  0  0  0  0  0  0  0999 V2000
   11.7543    3.1361   24.4001 H   0  0  0  0  0  0  0  0  0  0  0  0
   11.0219    2.5859   23.8125 C   0  0  0  0  0  0  0  0  0  0  0  0
   10.3714    3.2920   22.8994 N   0  0  0  0  0  0  0  0  0  0  0  0
    9.4418    2.6010   22.2595 C   0  0  0  0  0  0  0  0  0  0  0  0
    8.5953    3.3046   21.4902 N   0  0  0  0  0  0  0  0  0  0  0  0
    9.1081    4.1236   21.2185 H   0  0  0  0  0  0  0  0  0  0  0  0
    8.3332    2.6881   20.7450 H   0  0  0  0  0  0  0  0  0  0  0  0
    9.2332    1.3003   22.2628 N   0  0  0  0  0  0  0  0  0  0  0  0
    9.8525    0.6038   23.2283 C   0  0  0  0  0  0  0  0  0  0  0  0
    9.4954   -0.8936   23.4217 C   0  0  0  0  0  0  0  0  0  0  0  0
   10.0341   -1.5574   24.2849 O   0  0  0  0  0  0  0  0  0  0  0  0
    8.4563   -1.5356   22.5189 C   0  0  0  0  0  0  0  0  0  0  0  0
    8.3899   -2.5764   22.8392 H   0  0  0  0  0  0  0  0  0  0  0  0
    7.0616   -0.8463   22.3675 C   0  0  0  0  0  0  0  0  0  0  0  0
    6.9404    0.1257   22.8735 H   0  0  0  0  0  0  0  0  0  0  0  0
    6.1970   -1.4874   22.5967 H   0  0  0  0  0  0  0  0  0  0  0  0
    7.3353   -0.7495   20.9456 N   0  0  0  0  0  0  0  0  0  0  0  0
    6.6993   -0.0533   19.9520 C   0  0  0  0  0  0  0  0  0  0  0  0
    7.2054    0.0192   18.6161 C   0  0  0  0  0  0  0  0  0  0  0  0
    8.1526   -0.4667   18.3749 H   0  0  0  0  0  0  0  0  0  0  0  0
    6.5970    0.6539   17.6052 N   0  0  0  0  0  0  0  0  0  0  0  0
    5.4339    1.2744   17.8677 C   0  0  0  0  0  0  0  0  0  0  0  0
    4.9561    1.7780   17.0310 H   0  0  0  0  0  0  0  0  0  0  0  0
    4.8472    1.2773   19.1381 C   0  0  0  0  0  0  0  0  0  0  0  0
    3.9110    1.8057   19.2921 H   0  0  0  0  0  0  0  0  0  0  0  0
    5.4758    0.6116   20.1943 C   0  0  0  0  0  0  0  0  0  0  0  0
    5.0431    0.5996   21.1951 H   0  0  0  0  0  0  0  0  0  0  0  0
    8.6432   -1.3740   20.9817 C   0  0  0  0  0  0  0  0  0  0  0  0
    8.6868   -2.3193   20.4293 H   0  0  0  0  0  0  0  0  0  0  0  0
    9.4632   -0.7178   20.6490 H   0  0  0  0  0  0  0  0  0  0  0  0
   10.7903    1.2316   24.0563 C   0  0  0  0  0  0  0  0  0  0  0  0
   11.2905    0.6950   24.8436 H   0  0  0  0  0  0  0  0  0  0  0  0
  1  2  1  0
  2  3  2  0
  3  4  1  0
  4  5  1  0
  5  6  1  0
  5  7  1  0
  4  8  2  0
  8  9  1  0
  9 10  1  0
 10 11  2  0
 10 12  1  0
 12 13  1  0
 12 14  1  0
 14 15  1  0
 14 16  1  0
 14 17  1  0
 17 18  1  0
 18 19  2  0
 19 20  1  0
 19 21  1  0
 21 22  2  0
 22 23  1  0
 22 24  1  0
 24 25  1  0
 24 26  2  0
 26 27  1  0
 17 28  1  0
 28 29  1  0
 28 30  1  0
  9 31  2  0
 31 32  1  0
 31  2  1  0
 28 12  1  0
 26 18  1  0
M  END
>  <cnnaffinity>  (1) 
-5.05514

>  <filename>  (1) 
Nc1nccc(C(=O)C2CN(c3cccnc3)C2)n1

$$$$
