
     RDKit          3D

 29 31  0  0  0  0  0  0  0  0999 V2000
    9.8897   -2.6875   27.0040 H   0  0  0  0  0  0  0  0  0  0  0  0
    9.1341   -2.1450   26.4388 C   0  0  0  0  0  0  0  0  0  0  0  0
    8.1469   -1.6312   27.1714 N   0  0  0  0  0  0  0  0  0  0  0  0
    7.2592   -0.9621   26.4577 C   0  0  0  0  0  0  0  0  0  0  0  0
    6.3416   -0.2844   27.1622 N   0  0  0  0  0  0  0  0  0  0  0  0
    6.2841   -0.6928   28.0711 H   0  0  0  0  0  0  0  0  0  0  0  0
    5.5069   -0.2291   26.6104 H   0  0  0  0  0  0  0  0  0  0  0  0
    7.1438   -0.8532   25.1504 N   0  0  0  0  0  0  0  0  0  0  0  0
    8.1409   -1.3792   24.4667 C   0  0  0  0  0  0  0  0  0  0  0  0
    8.0410   -1.2107   23.0957 N   0  0  0  0  0  0  0  0  0  0  0  0
    7.1777   -0.3541   22.3961 C   0  0  0  0  0  0  0  0  0  0  0  0
    6.5539    0.3443   22.9380 H   0  0  0  0  0  0  0  0  0  0  0  0
    7.3131   -0.6031   21.0750 C   0  0  0  0  0  0  0  0  0  0  0  0
    6.6359    0.0131   19.9316 C   0  0  0  0  0  0  0  0  0  0  0  0
    7.1804    0.0326   18.6327 C   0  0  0  0  0  0  0  0  0  0  0  0
    8.1339   -0.4516   18.4266 H   0  0  0  0  0  0  0  0  0  0  0  0
    6.6073    0.6431   17.5868 N   0  0  0  0  0  0  0  0  0  0  0  0
    5.4421    1.2768   17.8016 C   0  0  0  0  0  0  0  0  0  0  0  0
    4.9989    1.7794   16.9436 H   0  0  0  0  0  0  0  0  0  0  0  0
    4.8020    1.3085   19.0452 C   0  0  0  0  0  0  0  0  0  0  0  0
    3.8658    1.8435   19.1591 H   0  0  0  0  0  0  0  0  0  0  0  0
    5.4053    0.6676   20.1238 C   0  0  0  0  0  0  0  0  0  0  0  0
    4.9355    0.6637   21.1078 H   0  0  0  0  0  0  0  0  0  0  0  0
    8.2759   -1.6025   20.9614 N   0  0  0  0  0  0  0  0  0  0  0  0
    8.4887   -2.1944   20.1801 H   0  0  0  0  0  0  0  0  0  0  0  0
    8.6832   -2.0484   22.1916 C   0  0  0  0  0  0  0  0  0  0  0  0
    9.4074   -2.9963   22.4013 O   0  0  0  0  0  0  0  0  0  0  0  0
    9.2248   -2.0327   25.0592 C   0  0  0  0  0  0  0  0  0  0  0  0
   10.0330   -2.4312   24.4650 H   0  0  0  0  0  0  0  0  0  0  0  0
  1  2  1  0
  2  3  2  0
  3  4  1  0
  4  5  1  0
  5  6  1  0
  5  7  1  0
  4  8  2  0
  8  9  1  0
  9 10  1  0
 10 11  1  0
 11 12  1  0
 11 13  2  0
 13 14  1  0
 14 15  2  0
 15 16  1  0
 15 17  1  0
 17 18  2  0
 18 19  1  0
 18 20  1  0
 20 21  1  0
 20 22  2  0
 22 23  1  0
 13 24  1  0
 24 25  1  0
 24 26  1  0
 26 27  2  0
  9 28  2  0
 28 29  1  0
 28  2  1  0
 26 10  1  0
 22 14  1  0
M  END
>  <cnnaffinity>  (1) 
-5.1251

>  <filename>  (1) 
Nc1nccc(-n2cc(-c3cccnc3)[nH]c2=O)n1

$$$$
