
     RDKit          3D

 32 35  0  0  0  0  0  0  0  0999 V2000
    4.5406   -1.9580   26.6311 H   0  0  0  0  0  0  0  0  0  0  0  0
    5.2568   -2.6520   26.1898 C   0  0  0  0  0  0  0  0  0  0  0  0
    5.1847   -3.9159   26.5982 N   0  0  0  0  0  0  0  0  0  0  0  0
    6.0439   -4.7206   25.9980 C   0  0  0  0  0  0  0  0  0  0  0  0
    5.9000   -6.0253   26.2575 N   0  0  0  0  0  0  0  0  0  0  0  0
    6.7999   -6.4430   26.1109 H   0  0  0  0  0  0  0  0  0  0  0  0
    5.4475   -6.1103   27.1484 H   0  0  0  0  0  0  0  0  0  0  0  0
    7.0383   -4.4304   25.1744 N   0  0  0  0  0  0  0  0  0  0  0  0
    7.0351   -3.1790   24.7452 C   0  0  0  0  0  0  0  0  0  0  0  0
    7.9524   -2.8510   23.7391 N   0  0  0  0  0  0  0  0  0  0  0  0
    9.1925   -3.4483   23.4600 C   0  0  0  0  0  0  0  0  0  0  0  0
    9.5520   -4.2897   24.0382 H   0  0  0  0  0  0  0  0  0  0  0  0
    9.7270   -2.8478   22.3693 C   0  0  0  0  0  0  0  0  0  0  0  0
   10.6752   -2.9235   21.8773 H   0  0  0  0  0  0  0  0  0  0  0  0
    8.8014   -1.9223   21.9212 N   0  0  0  0  0  0  0  0  0  0  0  0
    8.6424   -1.2077   20.7836 N   0  0  0  0  0  0  0  0  0  0  0  0
    7.4157   -0.6828   20.9451 C   0  0  0  0  0  0  0  0  0  0  0  0
    6.7145    0.0639   19.8826 C   0  0  0  0  0  0  0  0  0  0  0  0
    7.2199    0.0904   18.5714 C   0  0  0  0  0  0  0  0  0  0  0  0
    8.1617   -0.4056   18.3462 H   0  0  0  0  0  0  0  0  0  0  0  0
    6.6033    0.6885   17.5483 N   0  0  0  0  0  0  0  0  0  0  0  0
    5.4356    1.2996   17.7998 C   0  0  0  0  0  0  0  0  0  0  0  0
    4.9576    1.7842   16.9506 H   0  0  0  0  0  0  0  0  0  0  0  0
    4.8392    1.3293   19.0656 C   0  0  0  0  0  0  0  0  0  0  0  0
    3.8887    1.8337   19.2035 H   0  0  0  0  0  0  0  0  0  0  0  0
    5.4831    0.7025   20.1271 C   0  0  0  0  0  0  0  0  0  0  0  0
    5.0282    0.7130   21.1210 H   0  0  0  0  0  0  0  0  0  0  0  0
    6.8230   -1.0358   22.1787 C   0  0  0  0  0  0  0  0  0  0  0  0
    5.9192   -0.6253   22.5764 H   0  0  0  0  0  0  0  0  0  0  0  0
    7.7399   -1.8905   22.7441 C   0  0  0  0  0  0  0  0  0  0  0  0
    6.1631   -2.2070   25.2506 C   0  0  0  0  0  0  0  0  0  0  0  0
    6.2057   -1.1828   24.9195 H   0  0  0  0  0  0  0  0  0  0  0  0
  1  2  1  0
  2  3  2  0
  3  4  1  0
  4  5  1  0
  5  6  1  0
  5  7  1  0
  4  8  2  0
  8  9  1  0
  9 10  1  0
 10 11  1  0
 11 12  1  0
 11 13  2  0
 13 14  1  0
 13 15  1  0
 15 16  1  0
 16 17  2  0
 17 18  1  0
 18 19  2  0
 19 20  1  0
 19 21  1  0
 21 22  2  0
 22 23  1  0
 22 24  1  0
 24 25  1  0
 24 26  2  0
 26 27  1  0
 17 28  1  0
 28 29  1  0
 28 30  2  0
  9 31  2  0
 31 32  1  0
 31  2  1  0
 30 10  1  0
 30 15  1  0
 26 18  1  0
M  END
>  <cnnaffinity>  (1) 
-5.35442

>  <filename>  (1) 
Nc1nccc(-n2ccn3nc(-c4cccnc4)cc23)n1

$$$$
