
     RDKit          3D

 30 32  0  0  0  0  0  0  0  0999 V2000
    4.9105    1.8041   16.9774 H   0  0  0  0  0  0  0  0  0  0  0  0
    5.3865    1.3055   17.8200 C   0  0  0  0  0  0  0  0  0  0  0  0
    6.5501    0.6891   17.5541 N   0  0  0  0  0  0  0  0  0  0  0  0
    7.1599    0.0661   18.5689 C   0  0  0  0  0  0  0  0  0  0  0  0
    8.1155   -0.3999   18.3280 H   0  0  0  0  0  0  0  0  0  0  0  0
    6.6555    0.0164   19.8861 C   0  0  0  0  0  0  0  0  0  0  0  0
    7.3720   -0.6519   20.9824 C   0  0  0  0  0  0  0  0  0  0  0  0
    7.5083   -0.3221   22.3294 C   0  0  0  0  0  0  0  0  0  0  0  0
    7.0274    0.8472   22.9374 N   0  0  0  0  0  0  0  0  0  0  0  0
    6.9772    1.6299   22.2895 H   0  0  0  0  0  0  0  0  0  0  0  0
    6.8028    1.0399   24.3260 C   0  0  0  0  0  0  0  0  0  0  0  0
    6.9781    2.2765   24.9882 C   0  0  0  0  0  0  0  0  0  0  0  0
    7.3168    3.1479   24.4193 H   0  0  0  0  0  0  0  0  0  0  0  0
    6.7656    2.4784   26.2883 N   0  0  0  0  0  0  0  0  0  0  0  0
    6.3506    1.4034   26.9573 C   0  0  0  0  0  0  0  0  0  0  0  0
    6.1178    1.5844   28.2368 N   0  0  0  0  0  0  0  0  0  0  0  0
    6.3036    2.5062   28.5639 H   0  0  0  0  0  0  0  0  0  0  0  0
    5.8324    0.7593   28.7175 H   0  0  0  0  0  0  0  0  0  0  0  0
    6.1267    0.1746   26.5011 N   0  0  0  0  0  0  0  0  0  0  0  0
    6.3560    0.0206   25.1946 C   0  0  0  0  0  0  0  0  0  0  0  0
    6.1750   -0.9746   24.7825 H   0  0  0  0  0  0  0  0  0  0  0  0
    8.2856   -1.3717   22.8752 C   0  0  0  0  0  0  0  0  0  0  0  0
    8.6322   -1.4691   23.8948 H   0  0  0  0  0  0  0  0  0  0  0  0
    8.6040   -2.2821   21.9586 N   0  0  0  0  0  0  0  0  0  0  0  0
    8.0501   -1.8214   20.8296 N   0  0  0  0  0  0  0  0  0  0  0  0
    8.1307   -2.3626   19.9794 H   0  0  0  0  0  0  0  0  0  0  0  0
    5.4346    0.6622   20.1369 C   0  0  0  0  0  0  0  0  0  0  0  0
    5.0179    0.6308   21.1433 H   0  0  0  0  0  0  0  0  0  0  0  0
    4.7917    1.3180   19.0869 C   0  0  0  0  0  0  0  0  0  0  0  0
    3.8612    1.8508   19.2406 H   0  0  0  0  0  0  0  0  0  0  0  0
  1  2  1  0
  2  3  2  0
  3  4  1  0
  4  5  1  0
  4  6  2  0
  6  7  1  0
  7  8  2  0
  8  9  1  0
  9 10  1  0
  9 11  1  0
 11 12  2  0
 12 13  1  0
 12 14  1  0
 14 15  2  0
 15 16  1  0
 16 17  1  0
 16 18  1  0
 15 19  1  0
 19 20  2  0
 20 21  1  0
  8 22  1  0
 22 23  1  0
 22 24  2  0
 24 25  1  0
 25 26  1  0
  6 27  1  0
 27 28  1  0
 27 29  2  0
 29 30  1  0
 29  2  1  0
 25  7  1  0
 20 11  1  0
M  END
>  <cnnaffinity>  (1) 
-5.45679

>  <filename>  (1) 
Nc1ncc(Nc2cn[nH]c2-c2cccnc2)cn1

$$$$
