
     RDKit          3D

 31 33  0  0  0  0  0  0  0  0999 V2000
    4.9356    1.8616   16.9411 H   0  0  0  0  0  0  0  0  0  0  0  0
    5.4148    1.3467   17.7725 C   0  0  0  0  0  0  0  0  0  0  0  0
    6.5872    0.7512   17.5051 N   0  0  0  0  0  0  0  0  0  0  0  0
    7.1993    0.1145   18.5119 C   0  0  0  0  0  0  0  0  0  0  0  0
    8.1459   -0.3582   18.2514 H   0  0  0  0  0  0  0  0  0  0  0  0
    6.6766   -0.0017   19.8237 C   0  0  0  0  0  0  0  0  0  0  0  0
    7.3957   -0.7302   20.9156 C   0  0  0  0  0  0  0  0  0  0  0  0
    8.6908   -0.4510   21.1946 C   0  0  0  0  0  0  0  0  0  0  0  0
    9.2598    0.2784   20.6201 H   0  0  0  0  0  0  0  0  0  0  0  0
    9.4116   -1.0601   22.2191 N   0  0  0  0  0  0  0  0  0  0  0  0
   10.8243   -0.7212   22.3394 C   0  0  0  0  0  0  0  0  0  0  0  0
   11.2609    0.5894   22.5620 C   0  0  0  0  0  0  0  0  0  0  0  0
   10.5123    1.3792   22.6554 H   0  0  0  0  0  0  0  0  0  0  0  0
   12.5403    0.9265   22.6873 N   0  0  0  0  0  0  0  0  0  0  0  0
   13.3869   -0.0784   22.5159 C   0  0  0  0  0  0  0  0  0  0  0  0
   14.6820    0.2326   22.5858 N   0  0  0  0  0  0  0  0  0  0  0  0
   15.1529   -0.5951   22.8936 H   0  0  0  0  0  0  0  0  0  0  0  0
   14.7785    1.0679   23.1355 H   0  0  0  0  0  0  0  0  0  0  0  0
   13.1372   -1.3637   22.3127 N   0  0  0  0  0  0  0  0  0  0  0  0
   11.8472   -1.6708   22.2228 C   0  0  0  0  0  0  0  0  0  0  0  0
   11.5788   -2.7140   22.0614 H   0  0  0  0  0  0  0  0  0  0  0  0
    8.7742   -2.0286   23.0579 C   0  0  0  0  0  0  0  0  0  0  0  0
    9.3211   -2.6914   23.9057 O   0  0  0  0  0  0  0  0  0  0  0  0
    7.4429   -2.1803   22.8391 N   0  0  0  0  0  0  0  0  0  0  0  0
    7.0516   -2.9561   23.3389 H   0  0  0  0  0  0  0  0  0  0  0  0
    6.7224   -1.7839   21.7324 C   0  0  0  0  0  0  0  0  0  0  0  0
    5.6641   -2.3414   21.5290 O   0  0  0  0  0  0  0  0  0  0  0  0
    5.4490    0.6357   20.0702 C   0  0  0  0  0  0  0  0  0  0  0  0
    5.0161    0.5885   21.0691 H   0  0  0  0  0  0  0  0  0  0  0  0
    4.8139    1.3212   19.0320 C   0  0  0  0  0  0  0  0  0  0  0  0
    3.8769    1.8411   19.1874 H   0  0  0  0  0  0  0  0  0  0  0  0
  1  2  1  0
  2  3  2  0
  3  4  1  0
  4  5  1  0
  4  6  2  0
  6  7  1  0
  7  8  2  0
  8  9  1  0
  8 10  1  0
 10 11  1  0
 11 12  2  0
 12 13  1  0
 12 14  1  0
 14 15  2  0
 15 16  1  0
 16 17  1  0
 16 18  1  0
 15 19  1  0
 19 20  2  0
 20 21  1  0
 10 22  1  0
 22 23  2  0
 22 24  1  0
 24 25  1  0
 24 26  1  0
 26 27  2  0
  6 28  1  0
 28 29  1  0
 28 30  2  0
 30 31  1  0
 30  2  1  0
 26  7  1  0
 20 11  1  0
M  END
>  <cnnaffinity>  (1) 
-5.81961

>  <filename>  (1) 
Nc1ncc(-n2cc(-c3cccnc3)c(=O)[nH]c2=O)cn1

$$$$
