
     RDKit          3D

 30 32  0  0  0  0  0  0  0  0999 V2000
    5.0315    1.7564   16.9508 H   0  0  0  0  0  0  0  0  0  0  0  0
    5.4896    1.2799   17.8146 C   0  0  0  0  0  0  0  0  0  0  0  0
    6.6712    0.6701   17.6050 N   0  0  0  0  0  0  0  0  0  0  0  0
    7.2514    0.0606   18.6466 C   0  0  0  0  0  0  0  0  0  0  0  0
    8.2201   -0.4106   18.4912 H   0  0  0  0  0  0  0  0  0  0  0  0
    6.6686    0.0003   19.9217 C   0  0  0  0  0  0  0  0  0  0  0  0
    7.3127   -0.7232   20.9613 N   0  0  0  0  0  0  0  0  0  0  0  0
    8.6745   -0.5880   21.0091 N   0  0  0  0  0  0  0  0  0  0  0  0
    9.3372   -1.2213   21.9403 C   0  0  0  0  0  0  0  0  0  0  0  0
   10.7776   -0.9213   21.9419 C   0  0  0  0  0  0  0  0  0  0  0  0
   11.7505   -1.9027   22.1022 C   0  0  0  0  0  0  0  0  0  0  0  0
   11.4293   -2.9438   22.1568 H   0  0  0  0  0  0  0  0  0  0  0  0
   13.0362   -1.6239   22.2226 N   0  0  0  0  0  0  0  0  0  0  0  0
   13.3157   -0.3281   22.2780 C   0  0  0  0  0  0  0  0  0  0  0  0
   14.5899   -0.0523   22.5599 N   0  0  0  0  0  0  0  0  0  0  0  0
   15.0951   -0.8873   22.3279 H   0  0  0  0  0  0  0  0  0  0  0  0
   14.8427    0.8096   22.1084 H   0  0  0  0  0  0  0  0  0  0  0  0
   12.5183    0.7056   22.0438 N   0  0  0  0  0  0  0  0  0  0  0  0
   11.2495    0.3884   21.8377 C   0  0  0  0  0  0  0  0  0  0  0  0
   10.5587    1.1919   21.5752 H   0  0  0  0  0  0  0  0  0  0  0  0
    8.6670   -2.1313   22.9690 C   0  0  0  0  0  0  0  0  0  0  0  0
    9.2570   -2.7595   23.8403 O   0  0  0  0  0  0  0  0  0  0  0  0
    7.2154   -2.1775   22.8379 C   0  0  0  0  0  0  0  0  0  0  0  0
    6.6823   -2.7839   23.5551 H   0  0  0  0  0  0  0  0  0  0  0  0
    6.6044   -1.4906   21.8584 C   0  0  0  0  0  0  0  0  0  0  0  0
    5.5252   -1.5209   21.6955 H   0  0  0  0  0  0  0  0  0  0  0  0
    5.4637    0.6758   20.1448 C   0  0  0  0  0  0  0  0  0  0  0  0
    5.0591    0.7143   21.1551 H   0  0  0  0  0  0  0  0  0  0  0  0
    4.8584    1.3173   19.0626 C   0  0  0  0  0  0  0  0  0  0  0  0
    3.9135    1.8358   19.1811 H   0  0  0  0  0  0  0  0  0  0  0  0
  1  2  1  0
  2  3  2  0
  3  4  1  0
  4  5  1  0
  4  6  2  0
  6  7  1  0
  7  8  1  0
  8  9  2  0
  9 10  1  0
 10 11  2  0
 11 12  1  0
 11 13  1  0
 13 14  2  0
 14 15  1  0
 15 16  1  0
 15 17  1  0
 14 18  1  0
 18 19  2  0
 19 20  1  0
  9 21  1  0
 21 22  2  0
 21 23  1  0
 23 24  1  0
 23 25  2  0
 25 26  1  0
  6 27  1  0
 27 28  1  0
 27 29  2  0
 29 30  1  0
 29  2  1  0
 25  7  1  0
 19 10  1  0
M  END
>  <cnnaffinity>  (1) 
-5.85063

>  <filename>  (1) 
Nc1ncc(-c2nn(-c3cccnc3)ccc2=O)cn1

$$$$
