
     RDKit          3D

 35 38  0  0  0  0  0  0  0  0999 V2000
   10.5682    3.9063   23.7377 H   0  0  0  0  0  0  0  0  0  0  0  0
   11.1095    3.0460   23.3299 C   0  0  0  0  0  0  0  0  0  0  0  0
   12.4342    3.1476   23.2995 N   0  0  0  0  0  0  0  0  0  0  0  0
   13.0305    2.0667   22.8206 C   0  0  0  0  0  0  0  0  0  0  0  0
   14.3617    2.0458   22.8028 N   0  0  0  0  0  0  0  0  0  0  0  0
   14.6182    1.3580   22.1192 H   0  0  0  0  0  0  0  0  0  0  0  0
   14.7196    2.9772   22.7207 H   0  0  0  0  0  0  0  0  0  0  0  0
   12.5131    0.9654   22.3253 N   0  0  0  0  0  0  0  0  0  0  0  0
   11.1897    0.8741   22.3868 C   0  0  0  0  0  0  0  0  0  0  0  0
   10.6404   -0.4339   21.8622 C   0  0  1  0  0  0  0  0  0  0  0  0
   11.5224   -0.9392   21.4536 H   0  0  0  0  0  0  0  0  0  0  0  0
    9.9555   -1.3703   22.9344 C   0  0  0  0  0  0  0  0  0  0  0  0
   10.2719   -2.4066   22.7669 H   0  0  0  0  0  0  0  0  0  0  0  0
   10.2026   -1.1204   23.9707 H   0  0  0  0  0  0  0  0  0  0  0  0
    8.4987   -1.2350   22.6072 C   0  0  0  0  0  0  0  0  0  0  0  0
    7.3656   -1.6103   23.1763 N   0  0  0  0  0  0  0  0  0  0  0  0
    6.4272   -1.1805   22.2910 N   0  0  0  0  0  0  0  0  0  0  0  0
    5.4580   -1.3747   22.4851 H   0  0  0  0  0  0  0  0  0  0  0  0
    6.9381   -0.5649   21.1845 C   0  0  0  0  0  0  0  0  0  0  0  0
    6.2427    0.0203   20.0262 C   0  0  0  0  0  0  0  0  0  0  0  0
    6.9237   -0.0202   18.7900 C   0  0  0  0  0  0  0  0  0  0  0  0
    7.8594   -0.5764   18.7179 H   0  0  0  0  0  0  0  0  0  0  0  0
    6.5061    0.5716   17.6689 N   0  0  0  0  0  0  0  0  0  0  0  0
    5.3605    1.2649   17.7358 C   0  0  0  0  0  0  0  0  0  0  0  0
    5.0671    1.7750   16.8200 H   0  0  0  0  0  0  0  0  0  0  0  0
    4.5809    1.3452   18.8938 C   0  0  0  0  0  0  0  0  0  0  0  0
    3.6661    1.9253   18.8662 H   0  0  0  0  0  0  0  0  0  0  0  0
    5.0190    0.7132   20.0606 C   0  0  0  0  0  0  0  0  0  0  0  0
    4.4358    0.7926   20.9789 H   0  0  0  0  0  0  0  0  0  0  0  0
    8.2978   -0.5940   21.3964 C   0  0  0  0  0  0  0  0  0  0  0  0
    9.5763   -0.2127   20.7413 C   0  0  0  0  0  0  0  0  0  0  0  0
    9.7891   -0.8818   19.9001 H   0  0  0  0  0  0  0  0  0  0  0  0
    9.5543    0.8058   20.3339 H   0  0  0  0  0  0  0  0  0  0  0  0
   10.4140    1.9269   22.8781 C   0  0  0  0  0  0  0  0  0  0  0  0
    9.3359    1.8894   22.8957 H   0  0  0  0  0  0  0  0  0  0  0  0
  1  2  1  0
  2  3  2  0
  3  4  1  0
  4  5  1  0
  5  6  1  0
  5  7  1  0
  4  8  2  0
  8  9  1  0
  9 10  1  0
 10 11  1  6
 10 12  1  0
 12 13  1  0
 12 14  1  0
 12 15  1  0
 15 16  2  0
 16 17  1  0
 17 18  1  0
 17 19  1  0
 19 20  1  0
 20 21  2  0
 21 22  1  0
 21 23  1  0
 23 24  2  0
 24 25  1  0
 24 26  1  0
 26 27  1  0
 26 28  2  0
 28 29  1  0
 19 30  2  0
 30 31  1  0
 31 32  1  0
 31 33  1  0
  9 34  2  0
 34 35  1  0
 34  2  1  0
 31 10  1  0
 30 15  1  0
 28 20  1  0
M  END
>  <cnnaffinity>  (1) 
-5.79769

>  <filename>  (1) 
Nc1nccc([C@H]2Cc3n[nH]c(-c4cccnc4)c3C2)n1

$$$$
