
     RDKit          3D

 29 31  0  0  0  0  0  0  0  0999 V2000
    4.9266    1.7874   16.9989 H   0  0  0  0  0  0  0  0  0  0  0  0
    5.3994    1.2897   17.8425 C   0  0  0  0  0  0  0  0  0  0  0  0
    6.5591    0.6634   17.5839 N   0  0  0  0  0  0  0  0  0  0  0  0
    7.1730    0.0422   18.5996 C   0  0  0  0  0  0  0  0  0  0  0  0
    8.1270   -0.4330   18.3706 H   0  0  0  0  0  0  0  0  0  0  0  0
    6.6544   -0.0128   19.9124 C   0  0  0  0  0  0  0  0  0  0  0  0
    7.3301   -0.7138   20.9669 N   0  0  0  0  0  0  0  0  0  0  0  0
    6.7353   -1.6376   21.8224 C   0  0  0  0  0  0  0  0  0  0  0  0
    5.6827   -1.8388   21.7417 H   0  0  0  0  0  0  0  0  0  0  0  0
    7.6704   -2.0886   22.6929 C   0  0  0  0  0  0  0  0  0  0  0  0
    7.5679   -3.0352   23.7957 C   0  0  0  0  0  0  0  0  0  0  0  0
    6.4565   -3.8810   23.9008 C   0  0  0  0  0  0  0  0  0  0  0  0
    5.6798   -3.8395   23.1335 H   0  0  0  0  0  0  0  0  0  0  0  0
    6.2646   -4.7623   24.8678 N   0  0  0  0  0  0  0  0  0  0  0  0
    7.2277   -4.7807   25.7836 C   0  0  0  0  0  0  0  0  0  0  0  0
    7.0575   -5.6345   26.7626 N   0  0  0  0  0  0  0  0  0  0  0  0
    7.8117   -5.6485   27.4139 H   0  0  0  0  0  0  0  0  0  0  0  0
    6.2300   -6.1843   26.6816 H   0  0  0  0  0  0  0  0  0  0  0  0
    8.3366   -4.0508   25.8455 N   0  0  0  0  0  0  0  0  0  0  0  0
    8.4854   -3.1894   24.8498 C   0  0  0  0  0  0  0  0  0  0  0  0
    9.3860   -2.5716   24.9015 H   0  0  0  0  0  0  0  0  0  0  0  0
    8.8343   -1.4216   22.3584 N   0  0  0  0  0  0  0  0  0  0  0  0
    9.7568   -1.4844   22.7498 H   0  0  0  0  0  0  0  0  0  0  0  0
    8.6501   -0.5527   21.3349 C   0  0  0  0  0  0  0  0  0  0  0  0
    9.8026    0.4823   20.7488 S   0  0  0  0  0  0  0  0  0  0  0  0
    5.4459    0.6412   20.1644 C   0  0  0  0  0  0  0  0  0  0  0  0
    5.0243    0.6304   21.1694 H   0  0  0  0  0  0  0  0  0  0  0  0
    4.8125    1.3077   19.1109 C   0  0  0  0  0  0  0  0  0  0  0  0
    3.8806    1.8391   19.2638 H   0  0  0  0  0  0  0  0  0  0  0  0
  1  2  1  0
  2  3  2  0
  3  4  1  0
  4  5  1  0
  4  6  2  0
  6  7  1  0
  7  8  1  0
  8  9  1  0
  8 10  2  0
 10 11  1  0
 11 12  2  0
 12 13  1  0
 12 14  1  0
 14 15  2  0
 15 16  1  0
 16 17  1  0
 16 18  1  0
 15 19  1  0
 19 20  2  0
 20 21  1  0
 10 22  1  0
 22 23  1  0
 22 24  1  0
 24 25  2  0
  6 26  1  0
 26 27  1  0
 26 28  2  0
 28 29  1  0
 28  2  1  0
 24  7  1  0
 20 11  1  0
M  END
>  <cnnaffinity>  (1) 
-5.41538

>  <filename>  (1) 
Nc1ncc(-c2cn(-c3cccnc3)c(=S)[nH]2)cn1

$$$$
