
     RDKit          3D

 30 33  0  0  0  0  0  0  0  0999 V2000
    4.9269    1.7927   16.9820 H   0  0  0  0  0  0  0  0  0  0  0  0
    5.3940    1.2918   17.8311 C   0  0  0  0  0  0  0  0  0  0  0  0
    6.5565    0.6673   17.5867 N   0  0  0  0  0  0  0  0  0  0  0  0
    7.1600    0.0594   18.6158 C   0  0  0  0  0  0  0  0  0  0  0  0
    8.1117   -0.4067   18.3613 H   0  0  0  0  0  0  0  0  0  0  0  0
    6.6537    0.0372   19.9365 C   0  0  0  0  0  0  0  0  0  0  0  0
    7.3865   -0.6333   21.0355 C   0  0  0  0  0  0  0  0  0  0  0  0
    8.1452   -1.7283   20.9061 C   0  0  0  0  0  0  0  0  0  0  0  0
    8.3618   -2.1453   19.9556 H   0  0  0  0  0  0  0  0  0  0  0  0
    8.8213   -2.3298   22.3817 S   0  0  0  0  0  0  0  0  0  0  0  0
    8.1111   -0.9864   23.2289 C   0  0  0  0  0  0  0  0  0  0  0  0
    8.1283   -0.4740   24.4411 N   0  0  0  0  0  0  0  0  0  0  0  0
    7.3648    0.6324   24.2598 C   0  0  0  0  0  0  0  0  0  0  0  0
    7.1025    1.5402   25.3226 C   0  0  0  0  0  0  0  0  0  0  0  0
    7.6118    1.3233   26.5981 C   0  0  0  0  0  0  0  0  0  0  0  0
    8.2297    0.4504   26.8184 H   0  0  0  0  0  0  0  0  0  0  0  0
    7.3745    2.1503   27.5996 N   0  0  0  0  0  0  0  0  0  0  0  0
    6.6225    3.1979   27.2840 C   0  0  0  0  0  0  0  0  0  0  0  0
    6.3903    4.0343   28.2661 N   0  0  0  0  0  0  0  0  0  0  0  0
    6.7892    3.7433   29.1293 H   0  0  0  0  0  0  0  0  0  0  0  0
    5.8064    4.7936   27.9982 H   0  0  0  0  0  0  0  0  0  0  0  0
    6.0739    3.5253   26.1191 N   0  0  0  0  0  0  0  0  0  0  0  0
    6.3280    2.6799   25.1361 C   0  0  0  0  0  0  0  0  0  0  0  0
    5.8970    2.9176   24.1605 H   0  0  0  0  0  0  0  0  0  0  0  0
    6.8835    0.8372   23.0425 N   0  0  0  0  0  0  0  0  0  0  0  0
    7.3767   -0.2364   22.3778 N   0  0  0  0  0  0  0  0  0  0  0  0
    5.4239    0.6714   20.1606 C   0  0  0  0  0  0  0  0  0  0  0  0
    5.0088    0.6668   21.1681 H   0  0  0  0  0  0  0  0  0  0  0  0
    4.7931    1.3111   19.0941 C   0  0  0  0  0  0  0  0  0  0  0  0
    3.8637    1.8479   19.2380 H   0  0  0  0  0  0  0  0  0  0  0  0
  1  2  1  0
  2  3  2  0
  3  4  1  0
  4  5  1  0
  4  6  2  0
  6  7  1  0
  7  8  2  0
  8  9  1  0
  8 10  1  0
 10 11  1  0
 11 12  2  0
 12 13  1  0
 13 14  1  0
 14 15  2  0
 15 16  1  0
 15 17  1  0
 17 18  2  0
 18 19  1  0
 19 20  1  0
 19 21  1  0
 18 22  1  0
 22 23  2  0
 23 24  1  0
 13 25  2  0
 25 26  1  0
  6 27  1  0
 27 28  1  0
 27 29  2  0
 29 30  1  0
 29  2  1  0
 26  7  1  0
 26 11  1  0
 23 14  1  0
M  END
>  <cnnaffinity>  (1) 
-5.25749

>  <filename>  (1) 
Nc1ncc(-c2nc3scc(-c4cccnc4)n3n2)cn1

$$$$
