
     RDKit          3D

 29 31  0  0  0  0  0  0  0  0999 V2000
    5.4335   -4.9858   25.4175 H   0  0  0  0  0  0  0  0  0  0  0  0
    6.3785   -4.5025   25.1657 C   0  0  0  0  0  0  0  0  0  0  0  0
    7.4324   -4.8116   25.9050 N   0  0  0  0  0  0  0  0  0  0  0  0
    8.5400   -4.1750   25.5320 C   0  0  0  0  0  0  0  0  0  0  0  0
    9.6076   -4.4473   26.2529 N   0  0  0  0  0  0  0  0  0  0  0  0
   10.4426   -3.9899   25.9624 H   0  0  0  0  0  0  0  0  0  0  0  0
    9.4649   -5.1189   26.9734 H   0  0  0  0  0  0  0  0  0  0  0  0
    8.7368   -3.3073   24.5486 N   0  0  0  0  0  0  0  0  0  0  0  0
    7.6442   -3.0285   23.8309 C   0  0  0  0  0  0  0  0  0  0  0  0
    7.7165   -2.0703   22.6936 C   0  0  0  0  0  0  0  0  0  0  0  0
    6.7626   -1.6221   21.8314 C   0  0  0  0  0  0  0  0  0  0  0  0
    5.7068   -1.8298   21.7282 H   0  0  0  0  0  0  0  0  0  0  0  0
    7.3451   -0.7087   20.9615 N   0  0  0  0  0  0  0  0  0  0  0  0
    6.6561   -0.0155   19.9136 C   0  0  0  0  0  0  0  0  0  0  0  0
    7.1726    0.0430   18.6026 C   0  0  0  0  0  0  0  0  0  0  0  0
    8.1242   -0.4293   18.3728 H   0  0  0  0  0  0  0  0  0  0  0  0
    6.5594    0.6661   17.5890 N   0  0  0  0  0  0  0  0  0  0  0  0
    5.3985    1.2917   17.8431 C   0  0  0  0  0  0  0  0  0  0  0  0
    4.9219    1.7856   16.9964 H   0  0  0  0  0  0  0  0  0  0  0  0
    4.8141    1.3072   19.1126 C   0  0  0  0  0  0  0  0  0  0  0  0
    3.8834    1.8374   19.2635 H   0  0  0  0  0  0  0  0  0  0  0  0
    5.4464    0.6388   20.1665 C   0  0  0  0  0  0  0  0  0  0  0  0
    5.0208    0.6288   21.1707 H   0  0  0  0  0  0  0  0  0  0  0  0
    8.6735   -0.5315   21.3003 C   0  0  0  0  0  0  0  0  0  0  0  0
    9.8031    0.5105   20.7007 S   0  0  0  0  0  0  0  0  0  0  0  0
    8.8794   -1.3993   22.3141 N   0  0  0  0  0  0  0  0  0  0  0  0
    9.7882   -1.4534   22.7499 H   0  0  0  0  0  0  0  0  0  0  0  0
    6.4166   -3.6130   24.1052 C   0  0  0  0  0  0  0  0  0  0  0  0
    5.5453   -3.3750   23.5268 H   0  0  0  0  0  0  0  0  0  0  0  0
  1  2  1  0
  2  3  2  0
  3  4  1  0
  4  5  1  0
  5  6  1  0
  5  7  1  0
  4  8  2  0
  8  9  1  0
  9 10  1  0
 10 11  2  0
 11 12  1  0
 11 13  1  0
 13 14  1  0
 14 15  2  0
 15 16  1  0
 15 17  1  0
 17 18  2  0
 18 19  1  0
 18 20  1  0
 20 21  1  0
 20 22  2  0
 22 23  1  0
 13 24  1  0
 24 25  2  0
 24 26  1  0
 26 27  1  0
  9 28  2  0
 28 29  1  0
 28  2  1  0
 26 10  1  0
 22 14  1  0
M  END
>  <cnnaffinity>  (1) 
-5.34814

>  <filename>  (1) 
Nc1nccc(-c2cn(-c3cccnc3)c(=S)[nH]2)n1

$$$$
