
     RDKit          3D

 35 38  0  0  0  0  0  0  0  0999 V2000
    4.9494    1.8221   16.9730 H   0  0  0  0  0  0  0  0  0  0  0  0
    5.4034    1.2968   17.8101 C   0  0  0  0  0  0  0  0  0  0  0  0
    6.5594    0.6633   17.5568 N   0  0  0  0  0  0  0  0  0  0  0  0
    7.1521    0.0254   18.5712 C   0  0  0  0  0  0  0  0  0  0  0  0
    8.0964   -0.4688   18.3392 H   0  0  0  0  0  0  0  0  0  0  0  0
    6.6287   -0.0088   19.8760 C   0  0  0  0  0  0  0  0  0  0  0  0
    7.3581   -0.6761   20.9594 C   0  0  0  0  0  0  0  0  0  0  0  0
    8.0534   -1.7904   20.7505 N   0  0  0  0  0  0  0  0  0  0  0  0
    8.5346   -2.0873   21.9546 N   0  0  0  0  0  0  0  0  0  0  0  0
    8.2384   -1.2282   22.9244 C   0  0  0  0  0  0  0  0  0  0  0  0
    7.4616   -0.2516   22.3326 C   0  0  0  0  0  0  0  0  0  0  0  0
    7.0933    0.9891   22.9864 C   0  0  0  0  0  0  0  0  0  0  0  0
    6.6376    1.0223   24.3121 C   0  0  0  0  0  0  0  0  0  0  0  0
    6.4914    0.0937   24.8722 H   0  0  0  0  0  0  0  0  0  0  0  0
    6.3351    2.1369   24.9608 N   0  0  0  0  0  0  0  0  0  0  0  0
    6.5365    3.2423   24.2450 C   0  0  0  0  0  0  0  0  0  0  0  0
    6.2544    4.3670   24.8622 N   0  0  0  0  0  0  0  0  0  0  0  0
    6.3746    5.1770   24.2974 H   0  0  0  0  0  0  0  0  0  0  0  0
    5.8877    4.2698   25.7810 H   0  0  0  0  0  0  0  0  0  0  0  0
    6.9843    3.3910   23.0012 N   0  0  0  0  0  0  0  0  0  0  0  0
    7.2485    2.2497   22.3858 C   0  0  0  0  0  0  0  0  0  0  0  0
    7.6239    2.3315   21.3601 H   0  0  0  0  0  0  0  0  0  0  0  0
    9.0698   -1.4975   24.1492 C   0  0  0  0  0  0  0  0  0  0  0  0
    8.4517   -1.7048   25.0253 H   0  0  0  0  0  0  0  0  0  0  0  0
    9.6916   -0.6278   24.3888 H   0  0  0  0  0  0  0  0  0  0  0  0
    9.9196   -2.7298   23.7259 C   0  0  0  0  0  0  0  0  0  0  0  0
    9.7199   -3.5927   24.3585 H   0  0  0  0  0  0  0  0  0  0  0  0
   10.9811   -2.5091   23.7818 H   0  0  0  0  0  0  0  0  0  0  0  0
    9.5461   -3.0580   22.2593 C   0  0  0  0  0  0  0  0  0  0  0  0
   10.3791   -2.9006   21.5736 H   0  0  0  0  0  0  0  0  0  0  0  0
    9.1284   -4.0563   22.1294 H   0  0  0  0  0  0  0  0  0  0  0  0
    5.4058    0.6363   20.1150 C   0  0  0  0  0  0  0  0  0  0  0  0
    4.9726    0.6331   21.1162 H   0  0  0  0  0  0  0  0  0  0  0  0
    4.7854    1.3049   19.0637 C   0  0  0  0  0  0  0  0  0  0  0  0
    3.8609    1.8499   19.2138 H   0  0  0  0  0  0  0  0  0  0  0  0
  1  2  1  0
  2  3  2  0
  3  4  1  0
  4  5  1  0
  4  6  2  0
  6  7  1  0
  7  8  2  0
  8  9  1  0
  9 10  1  0
 10 11  2  0
 11 12  1  0
 12 13  2  0
 13 14  1  0
 13 15  1  0
 15 16  2  0
 16 17  1  0
 17 18  1  0
 17 19  1  0
 16 20  1  0
 20 21  2  0
 21 22  1  0
 10 23  1  0
 23 24  1  0
 23 25  1  0
 23 26  1  0
 26 27  1  0
 26 28  1  0
 26 29  1  0
 29 30  1  0
 29 31  1  0
  6 32  1  0
 32 33  1  0
 32 34  2  0
 34 35  1  0
 34  2  1  0
 11  7  1  0
 21 12  1  0
 29  9  1  0
M  END
>  <cnnaffinity>  (1) 
-5.42445

>  <filename>  (1) 
Nc1ncc(-c2c(-c3cccnc3)nn3c2CCC3)cn1

$$$$
