
     RDKit          3D

 31 33  0  0  0  0  0  0  0  0999 V2000
   14.0121   -0.0907   21.4446 H   0  0  0  0  0  0  0  0  0  0  0  0
   13.1531   -0.1446   22.1167 C   0  0  0  0  0  0  0  0  0  0  0  0
   13.4258    0.1531   23.3780 N   0  0  0  0  0  0  0  0  0  0  0  0
   12.3742    0.1111   24.1772 C   0  0  0  0  0  0  0  0  0  0  0  0
   12.6308    0.3985   25.4520 N   0  0  0  0  0  0  0  0  0  0  0  0
   11.9864   -0.1437   25.9996 H   0  0  0  0  0  0  0  0  0  0  0  0
   13.6105    0.2348   25.5790 H   0  0  0  0  0  0  0  0  0  0  0  0
   11.1339   -0.2511   23.9247 N   0  0  0  0  0  0  0  0  0  0  0  0
   10.8779   -0.4964   22.6426 C   0  0  0  0  0  0  0  0  0  0  0  0
    9.4871   -0.8731   22.2892 C   0  0  0  0  0  0  0  0  0  0  0  0
    8.7773   -0.3416   21.1686 C   0  0  0  0  0  0  0  0  0  0  0  0
    9.2204    0.4387   20.5451 H   0  0  0  0  0  0  0  0  0  0  0  0
    7.4793   -0.7153   20.8835 C   0  0  0  0  0  0  0  0  0  0  0  0
    6.7198   -0.0231   19.8070 C   0  0  0  0  0  0  0  0  0  0  0  0
    7.2387    0.1083   18.4979 C   0  0  0  0  0  0  0  0  0  0  0  0
    8.1939   -0.3557   18.2500 H   0  0  0  0  0  0  0  0  0  0  0  0
    6.6238    0.7487   17.4951 N   0  0  0  0  0  0  0  0  0  0  0  0
    5.4484    1.3370   17.7746 C   0  0  0  0  0  0  0  0  0  0  0  0
    4.9739    1.8679   16.9501 H   0  0  0  0  0  0  0  0  0  0  0  0
    4.8412    1.2841   19.0333 C   0  0  0  0  0  0  0  0  0  0  0  0
    3.8975    1.7952   19.1942 H   0  0  0  0  0  0  0  0  0  0  0  0
    5.4785    0.5824   20.0612 C   0  0  0  0  0  0  0  0  0  0  0  0
    5.0427    0.5114   21.0582 H   0  0  0  0  0  0  0  0  0  0  0  0
    6.8496   -1.7939   21.6796 C   0  0  0  0  0  0  0  0  0  0  0  0
    5.7744   -2.3543   21.5381 O   0  0  0  0  0  0  0  0  0  0  0  0
    7.6407   -2.2500   22.7366 N   0  0  0  0  0  0  0  0  0  0  0  0
    7.1269   -2.9747   23.2134 H   0  0  0  0  0  0  0  0  0  0  0  0
    8.8789   -1.8177   23.0705 C   0  0  0  0  0  0  0  0  0  0  0  0
    9.3406   -2.2336   23.9664 H   0  0  0  0  0  0  0  0  0  0  0  0
   11.8799   -0.4904   21.6737 C   0  0  0  0  0  0  0  0  0  0  0  0
   11.6699   -0.7796   20.6563 H   0  0  0  0  0  0  0  0  0  0  0  0
  1  2  1  0
  2  3  2  0
  3  4  1  0
  4  5  1  0
  5  6  1  0
  5  7  1  0
  4  8  2  0
  8  9  1  0
  9 10  1  0
 10 11  1  0
 11 12  1  0
 11 13  2  0
 13 14  1  0
 14 15  2  0
 15 16  1  0
 15 17  1  0
 17 18  2  0
 18 19  1  0
 18 20  1  0
 20 21  1  0
 20 22  2  0
 22 23  1  0
 13 24  1  0
 24 25  2  0
 24 26  1  0
 26 27  1  0
 26 28  1  0
 28 29  1  0
  9 30  2  0
 30 31  1  0
 30  2  1  0
 28 10  2  0
 22 14  1  0
M  END
>  <cnnaffinity>  (1) 
-5.47507

>  <filename>  (1) 
Nc1nccc(-c2c[nH]c(=O)c(-c3cccnc3)c2)n1

$$$$
