
     RDKit          3D

 31 33  0  0  0  0  0  0  0  0999 V2000
    7.7511    3.0927   25.6640 H   0  0  0  0  0  0  0  0  0  0  0  0
    8.2650    2.1594   25.4250 C   0  0  0  0  0  0  0  0  0  0  0  0
    9.2608    1.7940   26.2246 N   0  0  0  0  0  0  0  0  0  0  0  0
    9.8161    0.6362   25.8995 C   0  0  0  0  0  0  0  0  0  0  0  0
   10.7442    0.1723   26.7433 N   0  0  0  0  0  0  0  0  0  0  0  0
   11.0254    0.9647   27.2934 H   0  0  0  0  0  0  0  0  0  0  0  0
   11.4251   -0.3260   26.2049 H   0  0  0  0  0  0  0  0  0  0  0  0
    9.6109   -0.1263   24.8460 N   0  0  0  0  0  0  0  0  0  0  0  0
    8.6319    0.2779   24.0503 C   0  0  0  0  0  0  0  0  0  0  0  0
    8.3030   -0.5615   22.8826 C   0  0  0  0  0  0  0  0  0  0  0  0
    8.5702   -1.9717   22.8645 C   0  0  0  0  0  0  0  0  0  0  0  0
    9.2398   -2.3957   23.6229 H   0  0  0  0  0  0  0  0  0  0  0  0
    7.9626   -2.7446   21.9274 C   0  0  0  0  0  0  0  0  0  0  0  0
    8.0149   -3.8222   21.9329 H   0  0  0  0  0  0  0  0  0  0  0  0
    7.0529   -2.1943   20.9173 C   0  0  0  0  0  0  0  0  0  0  0  0
    6.3369   -2.8736   20.2100 O   0  0  0  0  0  0  0  0  0  0  0  0
    7.0852   -0.7617   20.8222 N   0  0  0  0  0  0  0  0  0  0  0  0
    6.4459   -0.0515   19.7360 C   0  0  0  0  0  0  0  0  0  0  0  0
    7.0463    0.0275   18.4665 C   0  0  0  0  0  0  0  0  0  0  0  0
    7.9722   -0.5169   18.2841 H   0  0  0  0  0  0  0  0  0  0  0  0
    6.5401    0.7428   17.4543 N   0  0  0  0  0  0  0  0  0  0  0  0
    5.4013    1.4204   17.6710 C   0  0  0  0  0  0  0  0  0  0  0  0
    5.0240    2.0056   16.8344 H   0  0  0  0  0  0  0  0  0  0  0  0
    4.7172    1.3943   18.8915 C   0  0  0  0  0  0  0  0  0  0  0  0
    3.8266    1.9993   19.0168 H   0  0  0  0  0  0  0  0  0  0  0  0
    5.2501    0.6437   19.9453 C   0  0  0  0  0  0  0  0  0  0  0  0
    4.7559    0.5812   20.9149 H   0  0  0  0  0  0  0  0  0  0  0  0
    7.6512   -0.0062   21.8139 C   0  0  0  0  0  0  0  0  0  0  0  0
    7.5616    1.0651   21.6496 H   0  0  0  0  0  0  0  0  0  0  0  0
    7.8843    1.4312   24.3146 C   0  0  0  0  0  0  0  0  0  0  0  0
    7.0353    1.7246   23.7186 H   0  0  0  0  0  0  0  0  0  0  0  0
  1  2  1  0
  2  3  2  0
  3  4  1  0
  4  5  1  0
  5  6  1  0
  5  7  1  0
  4  8  2  0
  8  9  1  0
  9 10  1  0
 10 11  1  0
 11 12  1  0
 11 13  2  0
 13 14  1  0
 13 15  1  0
 15 16  2  0
 15 17  1  0
 17 18  1  0
 18 19  2  0
 19 20  1  0
 19 21  1  0
 21 22  2  0
 22 23  1  0
 22 24  1  0
 24 25  1  0
 24 26  2  0
 26 27  1  0
 17 28  1  0
 28 29  1  0
  9 30  2  0
 30 31  1  0
 30  2  1  0
 28 10  2  0
 26 18  1  0
M  END
>  <cnnaffinity>  (1) 
-5.43952

>  <filename>  (1) 
Nc1nccc(-c2ccc(=O)n(-c3cccnc3)c2)n1

$$$$
