
     RDKit          3D

 29 31  0  0  0  0  0  0  0  0999 V2000
    6.1459   -4.8670   23.0935 H   0  0  0  0  0  0  0  0  0  0  0  0
    7.1358   -4.4358   23.2463 C   0  0  0  0  0  0  0  0  0  0  0  0
    7.8815   -4.9701   24.1991 N   0  0  0  0  0  0  0  0  0  0  0  0
    9.0745   -4.3943   24.3326 C   0  0  0  0  0  0  0  0  0  0  0  0
    9.8324   -4.9147   25.2745 N   0  0  0  0  0  0  0  0  0  0  0  0
    9.4245   -5.6702   25.7790 H   0  0  0  0  0  0  0  0  0  0  0  0
   10.7269   -4.4937   25.3845 H   0  0  0  0  0  0  0  0  0  0  0  0
    9.6093   -3.3891   23.6497 N   0  0  0  0  0  0  0  0  0  0  0  0
    8.8105   -2.8659   22.7139 C   0  0  0  0  0  0  0  0  0  0  0  0
    9.2888   -1.7276   21.9117 C   0  0  0  0  0  0  0  0  0  0  0  0
    8.6379   -0.7867   21.1153 C   0  0  0  0  0  0  0  0  0  0  0  0
    7.2751   -0.7147   20.9465 O   0  0  0  0  0  0  0  0  0  0  0  0
    6.6889    0.0053   19.9196 C   0  0  0  0  0  0  0  0  0  0  0  0
    7.1905    0.0493   18.6024 C   0  0  0  0  0  0  0  0  0  0  0  0
    8.1304   -0.4380   18.3589 H   0  0  0  0  0  0  0  0  0  0  0  0
    6.5669    0.6660   17.5879 N   0  0  0  0  0  0  0  0  0  0  0  0
    5.4064    1.2868   17.8445 C   0  0  0  0  0  0  0  0  0  0  0  0
    4.9245    1.7816   17.0019 H   0  0  0  0  0  0  0  0  0  0  0  0
    4.8271    1.2987   19.1189 C   0  0  0  0  0  0  0  0  0  0  0  0
    3.8922    1.8260   19.2679 H   0  0  0  0  0  0  0  0  0  0  0  0
    5.4671    0.6404   20.1758 C   0  0  0  0  0  0  0  0  0  0  0  0
    5.0383    0.6107   21.1758 H   0  0  0  0  0  0  0  0  0  0  0  0
    9.6483    0.0701   20.6430 C   0  0  0  0  0  0  0  0  0  0  0  0
    9.5623    0.9394   20.0118 H   0  0  0  0  0  0  0  0  0  0  0  0
   10.8386   -0.3132   21.0907 N   0  0  0  0  0  0  0  0  0  0  0  0
   10.6098   -1.3877   21.8335 N   0  0  0  0  0  0  0  0  0  0  0  0
   11.3863   -1.8492   22.2970 H   0  0  0  0  0  0  0  0  0  0  0  0
    7.5469   -3.3778   22.4526 C   0  0  0  0  0  0  0  0  0  0  0  0
    6.9346   -2.9518   21.6841 H   0  0  0  0  0  0  0  0  0  0  0  0
  1  2  1  0
  2  3  2  0
  3  4  1  0
  4  5  1  0
  5  6  1  0
  5  7  1  0
  4  8  2  0
  8  9  1  0
  9 10  1  0
 10 11  2  0
 11 12  1  0
 12 13  1  0
 13 14  2  0
 14 15  1  0
 14 16  1  0
 16 17  2  0
 17 18  1  0
 17 19  1  0
 19 20  1  0
 19 21  2  0
 21 22  1  0
 11 23  1  0
 23 24  1  0
 23 25  2  0
 25 26  1  0
 26 27  1  0
  9 28  2  0
 28 29  1  0
 28  2  1  0
 26 10  1  0
 21 13  1  0
M  END
>  <cnnaffinity>  (1) 
-5.4876

>  <filename>  (1) 
Nc1nccc(-c2[nH]ncc2Oc2cccnc2)n1

$$$$
