
     RDKit          3D

 30 32  0  0  0  0  0  0  0  0999 V2000
    4.9972    1.8143   16.9451 H   0  0  0  0  0  0  0  0  0  0  0  0
    5.4852    1.3233   17.7864 C   0  0  0  0  0  0  0  0  0  0  0  0
    6.6869    0.7749   17.5465 N   0  0  0  0  0  0  0  0  0  0  0  0
    7.2974    0.1545   18.5623 C   0  0  0  0  0  0  0  0  0  0  0  0
    8.2848   -0.2485   18.3467 H   0  0  0  0  0  0  0  0  0  0  0  0
    6.7206   -0.0067   19.8357 C   0  0  0  0  0  0  0  0  0  0  0  0
    7.4412   -0.8145   20.8669 C   0  0  0  0  0  0  0  0  0  0  0  0
    8.7217   -0.5587   20.9523 N   0  0  0  0  0  0  0  0  0  0  0  0
    9.4475   -1.1730   21.9286 N   0  0  0  0  0  0  0  0  0  0  0  0
   10.8207   -0.8190   21.9740 C   0  0  0  0  0  0  0  0  0  0  0  0
   11.2439    0.5034   21.8333 C   0  0  0  0  0  0  0  0  0  0  0  0
   10.5046    1.2624   21.5697 H   0  0  0  0  0  0  0  0  0  0  0  0
   12.5103    0.8778   21.9998 N   0  0  0  0  0  0  0  0  0  0  0  0
   13.3493   -0.1151   22.2630 C   0  0  0  0  0  0  0  0  0  0  0  0
   14.6241    0.2144   22.4904 N   0  0  0  0  0  0  0  0  0  0  0  0
   14.8425    1.0341   21.9521 H   0  0  0  0  0  0  0  0  0  0  0  0
   15.1301   -0.6331   22.2976 H   0  0  0  0  0  0  0  0  0  0  0  0
   13.1149   -1.4244   22.2765 N   0  0  0  0  0  0  0  0  0  0  0  0
   11.8334   -1.7569   22.1660 C   0  0  0  0  0  0  0  0  0  0  0  0
   11.5539   -2.8105   22.2338 H   0  0  0  0  0  0  0  0  0  0  0  0
    8.8627   -1.9306   22.9199 C   0  0  0  0  0  0  0  0  0  0  0  0
    9.5458   -2.2351   23.7163 H   0  0  0  0  0  0  0  0  0  0  0  0
    7.5574   -2.2641   22.8781 C   0  0  0  0  0  0  0  0  0  0  0  0
    7.0984   -2.8894   23.6296 H   0  0  0  0  0  0  0  0  0  0  0  0
    6.7352   -1.8525   21.7387 C   0  0  0  0  0  0  0  0  0  0  0  0
    5.6228   -2.3167   21.5158 O   0  0  0  0  0  0  0  0  0  0  0  0
    5.5006    0.6375   20.0877 C   0  0  0  0  0  0  0  0  0  0  0  0
    5.0691    0.6051   21.0880 H   0  0  0  0  0  0  0  0  0  0  0  0
    4.8685    1.3048   19.0397 C   0  0  0  0  0  0  0  0  0  0  0  0
    3.9252    1.8177   19.1879 H   0  0  0  0  0  0  0  0  0  0  0  0
  1  2  1  0
  2  3  2  0
  3  4  1  0
  4  5  1  0
  4  6  2  0
  6  7  1  0
  7  8  2  0
  8  9  1  0
  9 10  1  0
 10 11  2  0
 11 12  1  0
 11 13  1  0
 13 14  2  0
 14 15  1  0
 15 16  1  0
 15 17  1  0
 14 18  1  0
 18 19  2  0
 19 20  1  0
  9 21  1  0
 21 22  1  0
 21 23  2  0
 23 24  1  0
 23 25  1  0
 25 26  2  0
  6 27  1  0
 27 28  1  0
 27 29  2  0
 29 30  1  0
 29  2  1  0
 25  7  1  0
 19 10  1  0
M  END
>  <cnnaffinity>  (1) 
-5.91433

>  <filename>  (1) 
Nc1ncc(-n2ccc(=O)c(-c3cccnc3)n2)cn1

$$$$
