
     RDKit          3D

 35 38  0  0  0  0  0  0  0  0999 V2000
    4.9258    1.9900   16.4956 H   0  0  0  0  0  0  0  0  0  0  0  0
    5.2275    1.5362   17.4355 C   0  0  0  0  0  0  0  0  0  0  0  0
    6.3590    0.8138   17.4014 N   0  0  0  0  0  0  0  0  0  0  0  0
    6.7808    0.2887   18.5574 C   0  0  0  0  0  0  0  0  0  0  0  0
    7.7146   -0.2772   18.5014 H   0  0  0  0  0  0  0  0  0  0  0  0
    6.1162    0.4477   19.7886 C   0  0  0  0  0  0  0  0  0  0  0  0
    6.7008   -0.1048   21.0598 C   0  0  1  0  0  0  0  0  0  0  0  0
    6.0862    0.2327   21.9045 H   0  0  0  0  0  0  0  0  0  0  0  0
    6.7235   -1.6690   21.0806 C   0  0  0  0  0  0  0  0  0  0  0  0
    6.4538   -2.1085   20.1126 H   0  0  0  0  0  0  0  0  0  0  0  0
    6.0207   -2.0787   21.8135 H   0  0  0  0  0  0  0  0  0  0  0  0
    8.1437   -1.9721   21.4266 C   0  0  0  0  0  0  0  0  0  0  0  0
    8.7935   -3.1032   21.6089 N   0  0  0  0  0  0  0  0  0  0  0  0
   10.0576   -2.6855   21.8523 N   0  0  0  0  0  0  0  0  0  0  0  0
   10.7653   -3.3796   22.0589 H   0  0  0  0  0  0  0  0  0  0  0  0
   10.2160   -1.3334   21.8211 C   0  0  0  0  0  0  0  0  0  0  0  0
   11.4848   -0.6506   22.0428 C   0  0  0  0  0  0  0  0  0  0  0  0
   11.5235    0.7430   22.1820 C   0  0  0  0  0  0  0  0  0  0  0  0
   10.6104    1.3428   22.1085 H   0  0  0  0  0  0  0  0  0  0  0  0
   12.6326    1.4243   22.4176 N   0  0  0  0  0  0  0  0  0  0  0  0
   13.7266    0.6805   22.4991 C   0  0  0  0  0  0  0  0  0  0  0  0
   14.8494    1.3571   22.7235 N   0  0  0  0  0  0  0  0  0  0  0  0
   14.5605    2.2503   23.0831 H   0  0  0  0  0  0  0  0  0  0  0  0
   15.4325    0.7886   23.3011 H   0  0  0  0  0  0  0  0  0  0  0  0
   13.8593   -0.6382   22.4352 N   0  0  0  0  0  0  0  0  0  0  0  0
   12.7355   -1.2849   22.1701 C   0  0  0  0  0  0  0  0  0  0  0  0
   12.8230   -2.3719   22.0726 H   0  0  0  0  0  0  0  0  0  0  0  0
    8.9518   -0.8443   21.5579 C   0  0  0  0  0  0  0  0  0  0  0  0
    8.1683    0.4102   21.2967 C   0  0  0  0  0  0  0  0  0  0  0  0
    8.2012    1.1369   22.1178 H   0  0  0  0  0  0  0  0  0  0  0  0
    8.5542    0.9514   20.4196 H   0  0  0  0  0  0  0  0  0  0  0  0
    4.9159    1.1627   19.7859 C   0  0  0  0  0  0  0  0  0  0  0  0
    4.3719    1.2824   20.7234 H   0  0  0  0  0  0  0  0  0  0  0  0
    4.4650    1.7214   18.5914 C   0  0  0  0  0  0  0  0  0  0  0  0
    3.5584    2.3133   18.5579 H   0  0  0  0  0  0  0  0  0  0  0  0
  1  2  1  0
  2  3  2  0
  3  4  1  0
  4  5  1  0
  4  6  2  0
  6  7  1  0
  7  8  1  1
  7  9  1  0
  9 10  1  0
  9 11  1  0
  9 12  1  0
 12 13  2  0
 13 14  1  0
 14 15  1  0
 14 16  1  0
 16 17  1  0
 17 18  2  0
 18 19  1  0
 18 20  1  0
 20 21  2  0
 21 22  1  0
 22 23  1  0
 22 24  1  0
 21 25  1  0
 25 26  2  0
 26 27  1  0
 16 28  2  0
 28 29  1  0
 29 30  1  0
 29 31  1  0
  6 32  1  0
 32 33  1  0
 32 34  2  0
 34 35  1  0
 34  2  1  0
 29  7  1  0
 28 12  1  0
 26 17  1  0
M  END
>  <cnnaffinity>  (1) 
-5.89855

>  <filename>  (1) 
Nc1ncc(-c2[nH]nc3c2C[C@@H](c2cccnc2)C3)cn1

$$$$
