
     RDKit          3D

 34 36  0  0  0  0  0  0  0  0999 V2000
    3.5044   -4.7679   23.7627 N   0  0  0  0  0  0  0  0  0  0  0  0
    4.1901   -3.7562   24.2960 C   0  0  0  0  0  0  0  0  0  0  0  0
    3.7172   -3.3378   25.4480 N   0  0  0  0  0  0  0  0  0  0  0  0
    4.3914   -2.2997   25.8882 C   0  0  0  0  0  0  0  0  0  0  0  0
    3.8908   -1.8146   27.0144 O   0  0  0  0  0  0  0  0  0  0  0  0
    3.1711   -2.4603   27.1173 H   0  0  0  0  0  0  0  0  0  0  0  0
    5.4508   -1.6929   25.2821 C   0  0  0  0  0  0  0  0  0  0  0  0
    5.7871   -2.2595   24.0604 C   0  0  0  0  0  0  0  0  0  0  0  0
    6.6577   -1.6344   23.2197 N   0  0  0  0  0  0  0  0  0  0  0  0
    6.9777   -0.2185   23.4049 C   0  0  0  0  0  0  0  0  0  0  0  0
    7.8540    0.1228   22.2063 C   0  0  0  0  0  0  0  0  0  0  0  0
    7.4001   -0.8209   21.0671 C   0  0  0  0  0  0  0  0  0  0  0  0
    6.6340   -0.1077   19.9605 C   0  0  0  0  0  0  0  0  0  0  0  0
    5.4166    0.5511   20.1847 C   0  0  0  0  0  0  0  0  0  0  0  0
    4.8171    1.2519   19.1326 C   0  0  0  0  0  0  0  0  0  0  0  0
    5.4500    1.2578   17.8841 C   0  0  0  0  0  0  0  0  0  0  0  0
    6.6027    0.6191   17.6374 N   0  0  0  0  0  0  0  0  0  0  0  0
    7.1676   -0.0340   18.6601 C   0  0  0  0  0  0  0  0  0  0  0  0
    8.1112   -0.5367   18.4471 H   0  0  0  0  0  0  0  0  0  0  0  0
    5.0122    1.7898   17.0412 H   0  0  0  0  0  0  0  0  0  0  0  0
    3.8894    1.7983   19.2627 H   0  0  0  0  0  0  0  0  0  0  0  0
    4.9455    0.5341   21.1713 H   0  0  0  0  0  0  0  0  0  0  0  0
    6.6102   -1.9439   21.7820 C   0  0  0  0  0  0  0  0  0  0  0  0
    7.0422   -2.9350   21.6074 H   0  0  0  0  0  0  0  0  0  0  0  0
    5.5660   -1.9969   21.4320 H   0  0  0  0  0  0  0  0  0  0  0  0
    8.2888   -1.2645   20.6051 H   0  0  0  0  0  0  0  0  0  0  0  0
    7.7703    1.1804   21.9404 H   0  0  0  0  0  0  0  0  0  0  0  0
    8.9027   -0.0707   22.4490 H   0  0  0  0  0  0  0  0  0  0  0  0
    7.4995   -0.0471   24.3508 H   0  0  0  0  0  0  0  0  0  0  0  0
    6.0622    0.3979   23.4201 H   0  0  0  0  0  0  0  0  0  0  0  0
    5.2252   -3.3728   23.5968 N   0  0  0  0  0  0  0  0  0  0  0  0
    5.8419   -0.7695   25.6564 H   0  0  0  0  0  0  0  0  0  0  0  0
    3.0795   -5.2155   24.5555 H   0  0  0  0  0  0  0  0  0  0  0  0
    4.2074   -5.2724   23.2582 H   0  0  0  0  0  0  0  0  0  0  0  0
  1  2  1  0
  2  3  2  0
  3  4  1  0
  4  5  1  0
  5  6  1  0
  4  7  2  0
  7  8  1  0
  8  9  1  0
  9 10  1  0
 10 11  1  0
 11 12  1  0
 12 13  1  0
 13 14  2  0
 14 15  1  0
 15 16  2  0
 16 17  1  0
 17 18  2  0
 18 19  1  0
 16 20  1  0
 15 21  1  0
 14 22  1  0
 12 23  1  0
 23 24  1  0
 23 25  1  0
 12 26  1  0
 11 27  1  0
 11 28  1  0
 10 29  1  0
 10 30  1  0
  8 31  2  0
  7 32  1  0
  1 33  1  0
  1 34  1  0
 31  2  1  0
 23  9  1  0
 18 13  1  0
M  END
>  <cnnaffinity>  (1) 
-4.89983

>  <filename>  (1) 
Nc1nc(O)cc(N2CCC(c3cccnc3)C2)n1

$$$$
