
     RDKit          3D

 29 31  0  0  0  0  0  0  0  0999 V2000
    5.4629   -4.3921   25.9353 H   0  0  0  0  0  0  0  0  0  0  0  0
    6.4210   -4.0404   25.5498 C   0  0  0  0  0  0  0  0  0  0  0  0
    7.5104   -4.4188   26.2032 N   0  0  0  0  0  0  0  0  0  0  0  0
    8.6361   -3.9478   25.6736 C   0  0  0  0  0  0  0  0  0  0  0  0
    9.7376   -4.2960   26.3080 N   0  0  0  0  0  0  0  0  0  0  0  0
   10.5794   -3.9628   25.8967 H   0  0  0  0  0  0  0  0  0  0  0  0
    9.5942   -4.8968   27.0879 H   0  0  0  0  0  0  0  0  0  0  0  0
    8.8195   -3.1812   24.6095 N   0  0  0  0  0  0  0  0  0  0  0  0
    7.6962   -2.8197   23.9789 C   0  0  0  0  0  0  0  0  0  0  0  0
    7.7681   -1.9523   22.7656 C   0  0  0  0  0  0  0  0  0  0  0  0
    6.7883   -1.4627   21.9554 C   0  0  0  0  0  0  0  0  0  0  0  0
    5.7154   -1.5882   21.9632 H   0  0  0  0  0  0  0  0  0  0  0  0
    7.3638   -0.6857   20.9555 N   0  0  0  0  0  0  0  0  0  0  0  0
    6.6634   -0.0058   19.9121 C   0  0  0  0  0  0  0  0  0  0  0  0
    7.1722    0.0493   18.5939 C   0  0  0  0  0  0  0  0  0  0  0  0
    8.1277   -0.4213   18.3750 H   0  0  0  0  0  0  0  0  0  0  0  0
    6.5558    0.6660   17.5794 N   0  0  0  0  0  0  0  0  0  0  0  0
    5.3964    1.2906   17.8410 C   0  0  0  0  0  0  0  0  0  0  0  0
    4.9200    1.7873   16.9974 H   0  0  0  0  0  0  0  0  0  0  0  0
    4.8134    1.3051   19.1114 C   0  0  0  0  0  0  0  0  0  0  0  0
    3.8825    1.8365   19.2643 H   0  0  0  0  0  0  0  0  0  0  0  0
    5.4471    0.6397   20.1659 C   0  0  0  0  0  0  0  0  0  0  0  0
    5.0212    0.6358   21.1688 H   0  0  0  0  0  0  0  0  0  0  0  0
    8.7602   -0.6691   21.1323 C   0  0  0  0  0  0  0  0  0  0  0  0
    9.6177   -0.1072   20.4809 O   0  0  0  0  0  0  0  0  0  0  0  0
    8.9619   -1.4547   22.2286 N   0  0  0  0  0  0  0  0  0  0  0  0
    9.9018   -1.5920   22.5574 H   0  0  0  0  0  0  0  0  0  0  0  0
    6.4452   -3.2357   24.4207 C   0  0  0  0  0  0  0  0  0  0  0  0
    5.5440   -2.9388   23.9164 H   0  0  0  0  0  0  0  0  0  0  0  0
  1  2  1  0
  2  3  2  0
  3  4  1  0
  4  5  1  0
  5  6  1  0
  5  7  1  0
  4  8  2  0
  8  9  1  0
  9 10  1  0
 10 11  2  0
 11 12  1  0
 11 13  1  0
 13 14  1  0
 14 15  2  0
 15 16  1  0
 15 17  1  0
 17 18  2  0
 18 19  1  0
 18 20  1  0
 20 21  1  0
 20 22  2  0
 22 23  1  0
 13 24  1  0
 24 25  2  0
 24 26  1  0
 26 27  1  0
  9 28  2  0
 28 29  1  0
 28  2  1  0
 26 10  1  0
 22 14  1  0
M  END
>  <cnnaffinity>  (1) 
-5.20146

>  <filename>  (1) 
Nc1nccc(-c2cn(-c3cccnc3)c(=O)[nH]2)n1

$$$$
