
     RDKit          3D

 30 32  0  0  0  0  0  0  0  0999 V2000
    3.2329   -4.6116   23.6799 H   0  0  0  0  0  0  0  0  0  0  0  0
    4.2899   -4.4390   23.8841 C   0  0  0  0  0  0  0  0  0  0  0  0
    4.8270   -5.1450   24.8678 N   0  0  0  0  0  0  0  0  0  0  0  0
    6.1114   -4.8825   25.0685 C   0  0  0  0  0  0  0  0  0  0  0  0
    6.6760   -5.5788   26.0383 N   0  0  0  0  0  0  0  0  0  0  0  0
    6.0651   -6.2115   26.5073 H   0  0  0  0  0  0  0  0  0  0  0  0
    7.6383   -5.3810   26.1979 H   0  0  0  0  0  0  0  0  0  0  0  0
    6.9052   -4.0261   24.4302 N   0  0  0  0  0  0  0  0  0  0  0  0
    6.3359   -3.3205   23.4422 C   0  0  0  0  0  0  0  0  0  0  0  0
    7.1735   -2.2978   22.6501 C   0  0  0  0  0  0  0  0  0  0  0  0
    6.5897   -1.6129   21.6853 N   0  0  0  0  0  0  0  0  0  0  0  0
    7.3333   -0.7333   20.9522 N   0  0  0  0  0  0  0  0  0  0  0  0
    6.6355   -0.0318   19.9050 C   0  0  0  0  0  0  0  0  0  0  0  0
    7.1637    0.0373   18.6021 C   0  0  0  0  0  0  0  0  0  0  0  0
    8.1215   -0.4229   18.3810 H   0  0  0  0  0  0  0  0  0  0  0  0
    6.5575    0.6647   17.5885 N   0  0  0  0  0  0  0  0  0  0  0  0
    5.4003    1.2929   17.8461 C   0  0  0  0  0  0  0  0  0  0  0  0
    4.9270    1.7859   16.9978 H   0  0  0  0  0  0  0  0  0  0  0  0
    4.8110    1.3117   19.1158 C   0  0  0  0  0  0  0  0  0  0  0  0
    3.8800    1.8460   19.2595 H   0  0  0  0  0  0  0  0  0  0  0  0
    5.4316    0.6281   20.1690 C   0  0  0  0  0  0  0  0  0  0  0  0
    5.0209    0.5921   21.1777 H   0  0  0  0  0  0  0  0  0  0  0  0
    8.7134   -0.4130   21.2088 C   0  0  0  0  0  0  0  0  0  0  0  0
    9.3219    0.4280   20.5628 O   0  0  0  0  0  0  0  0  0  0  0  0
    9.2908   -1.1983   22.2864 C   0  0  0  0  0  0  0  0  0  0  0  0
   10.3353   -0.9905   22.4762 H   0  0  0  0  0  0  0  0  0  0  0  0
    8.5614   -2.1054   22.9781 C   0  0  0  0  0  0  0  0  0  0  0  0
    8.9753   -2.6993   23.7880 H   0  0  0  0  0  0  0  0  0  0  0  0
    4.9931   -3.5173   23.1207 C   0  0  0  0  0  0  0  0  0  0  0  0
    4.5411   -2.9546   22.3272 H   0  0  0  0  0  0  0  0  0  0  0  0
  1  2  1  0
  2  3  2  0
  3  4  1  0
  4  5  1  0
  5  6  1  0
  5  7  1  0
  4  8  2  0
  8  9  1  0
  9 10  1  0
 10 11  2  0
 11 12  1  0
 12 13  1  0
 13 14  2  0
 14 15  1  0
 14 16  1  0
 16 17  2  0
 17 18  1  0
 17 19  1  0
 19 20  1  0
 19 21  2  0
 21 22  1  0
 12 23  1  0
 23 24  2  0
 23 25  1  0
 25 26  1  0
 25 27  2  0
 27 28  1  0
  9 29  2  0
 29 30  1  0
 29  2  1  0
 27 10  1  0
 21 13  1  0
M  END
>  <cnnaffinity>  (1) 
-5.15094

>  <filename>  (1) 
Nc1nccc(-c2ccc(=O)n(-c3cccnc3)n2)n1

$$$$
