
     RDKit          3D

 38 40  0  0  0  0  0  0  0  0999 V2000
    8.9521   -3.5093   27.6269 H   0  0  0  0  0  0  0  0  0  0  0  0
    8.8908   -2.6577   26.9454 C   0  0  0  0  0  0  0  0  0  0  0  0
    9.5866   -1.5701   27.2777 N   0  0  0  0  0  0  0  0  0  0  0  0
    9.5963   -0.6456   26.3415 C   0  0  0  0  0  0  0  0  0  0  0  0
   10.4515    0.3835   26.4789 N   0  0  0  0  0  0  0  0  0  0  0  0
   10.4707    0.6008   27.4629 H   0  0  0  0  0  0  0  0  0  0  0  0
   10.0432    1.0849   25.8837 H   0  0  0  0  0  0  0  0  0  0  0  0
    8.8710   -0.5480   25.2565 N   0  0  0  0  0  0  0  0  0  0  0  0
    8.1268   -1.6118   25.0053 C   0  0  0  0  0  0  0  0  0  0  0  0
    7.2943   -1.5223   23.9305 N   0  0  0  0  0  0  0  0  0  0  0  0
    7.0023   -0.1987   23.3599 C   0  0  0  0  0  0  0  0  0  0  0  0
    5.9452   -0.1612   23.0920 H   0  0  0  0  0  0  0  0  0  0  0  0
    7.1547    0.5437   24.1461 H   0  0  0  0  0  0  0  0  0  0  0  0
    7.8441    0.2415   22.1437 C   0  0  0  0  0  0  0  0  0  0  0  0
    8.9001    0.1153   22.4232 H   0  0  0  0  0  0  0  0  0  0  0  0
    7.6783    1.3145   21.9856 H   0  0  0  0  0  0  0  0  0  0  0  0
    7.5736   -0.4565   20.8961 N   0  0  0  0  0  0  0  0  0  0  0  0
    6.8255    0.1240   19.8509 C   0  0  0  0  0  0  0  0  0  0  0  0
    7.2126    0.0423   18.4853 C   0  0  0  0  0  0  0  0  0  0  0  0
    8.1125   -0.5087   18.2132 H   0  0  0  0  0  0  0  0  0  0  0  0
    6.5482    0.6036   17.4640 N   0  0  0  0  0  0  0  0  0  0  0  0
    5.4171    1.2701   17.7477 C   0  0  0  0  0  0  0  0  0  0  0  0
    4.9036    1.7325   16.9061 H   0  0  0  0  0  0  0  0  0  0  0  0
    4.9087    1.3726   19.0452 C   0  0  0  0  0  0  0  0  0  0  0  0
    3.9781    1.9001   19.2194 H   0  0  0  0  0  0  0  0  0  0  0  0
    5.6190    0.8022   20.1079 C   0  0  0  0  0  0  0  0  0  0  0  0
    5.2594    0.8567   21.1318 H   0  0  0  0  0  0  0  0  0  0  0  0
    8.0761   -1.8041   20.7035 C   0  0  0  0  0  0  0  0  0  0  0  0
    7.3224   -2.3153   20.0873 H   0  0  0  0  0  0  0  0  0  0  0  0
    9.0132   -1.7844   20.1168 H   0  0  0  0  0  0  0  0  0  0  0  0
    8.3202   -2.6511   21.9592 C   0  0  0  0  0  0  0  0  0  0  0  0
    9.2521   -2.3281   22.4429 H   0  0  0  0  0  0  0  0  0  0  0  0
    8.4913   -3.6746   21.6058 H   0  0  0  0  0  0  0  0  0  0  0  0
    7.1957   -2.6517   23.0065 C   0  0  0  0  0  0  0  0  0  0  0  0
    6.1965   -2.6434   22.5436 H   0  0  0  0  0  0  0  0  0  0  0  0
    7.2480   -3.5866   23.5743 H   0  0  0  0  0  0  0  0  0  0  0  0
    8.1313   -2.7609   25.8102 C   0  0  0  0  0  0  0  0  0  0  0  0
    7.5025   -3.6078   25.5998 H   0  0  0  0  0  0  0  0  0  0  0  0
  1  2  1  0
  2  3  2  0
  3  4  1  0
  4  5  1  0
  5  6  1  0
  5  7  1  0
  4  8  2  0
  8  9  1  0
  9 10  1  0
 10 11  1  0
 11 12  1  0
 11 13  1  0
 11 14  1  0
 14 15  1  0
 14 16  1  0
 14 17  1  0
 17 18  1  0
 18 19  2  0
 19 20  1  0
 19 21  1  0
 21 22  2  0
 22 23  1  0
 22 24  1  0
 24 25  1  0
 24 26  2  0
 26 27  1  0
 17 28  1  0
 28 29  1  0
 28 30  1  0
 28 31  1  0
 31 32  1  0
 31 33  1  0
 31 34  1  0
 34 35  1  0
 34 36  1  0
  9 37  2  0
 37 38  1  0
 37  2  1  0
 34 10  1  0
 26 18  1  0
M  END
>  <cnnaffinity>  (1) 
-4.95976

>  <filename>  (1) 
Nc1nccc(N2CCCN(c3cccnc3)CC2)n1

$$$$
