
     RDKit          3D

 30 33  0  0  0  0  0  0  0  0999 V2000
    5.0440    1.7675   16.9812 H   0  0  0  0  0  0  0  0  0  0  0  0
    5.4637    1.2600   17.8492 C   0  0  0  0  0  0  0  0  0  0  0  0
    6.6207    0.6127   17.6518 N   0  0  0  0  0  0  0  0  0  0  0  0
    7.1719   -0.0049   18.6996 C   0  0  0  0  0  0  0  0  0  0  0  0
    8.1130   -0.5150   18.5109 H   0  0  0  0  0  0  0  0  0  0  0  0
    6.6061   -0.0150   19.9819 C   0  0  0  0  0  0  0  0  0  0  0  0
    7.3446   -0.6970   21.0485 C   0  0  0  0  0  0  0  0  0  0  0  0
    8.5292   -1.3415   20.8251 N   0  0  0  0  0  0  0  0  0  0  0  0
    8.8348   -1.7685   22.0311 C   0  0  0  0  0  0  0  0  0  0  0  0
   10.1153   -2.6627   22.8143 S   0  0  0  0  0  0  0  0  0  0  0  0
    9.2915   -2.4923   24.3413 C   0  0  0  0  0  0  0  0  0  0  0  0
    9.6690   -2.9582   25.2418 H   0  0  0  0  0  0  0  0  0  0  0  0
    8.1369   -1.8086   24.2524 C   0  0  0  0  0  0  0  0  0  0  0  0
    7.2044   -1.5809   25.3560 C   0  0  0  0  0  0  0  0  0  0  0  0
    5.8132   -1.6449   25.2077 C   0  0  0  0  0  0  0  0  0  0  0  0
    5.4446   -1.9624   24.2375 H   0  0  0  0  0  0  0  0  0  0  0  0
    4.9478   -1.3757   26.1745 N   0  0  0  0  0  0  0  0  0  0  0  0
    5.5145   -1.0087   27.3174 C   0  0  0  0  0  0  0  0  0  0  0  0
    4.6781   -0.5454   28.2464 N   0  0  0  0  0  0  0  0  0  0  0  0
    5.0681   -0.7568   29.1413 H   0  0  0  0  0  0  0  0  0  0  0  0
    3.7670   -0.8808   28.0178 H   0  0  0  0  0  0  0  0  0  0  0  0
    6.7959   -1.0665   27.6655 N   0  0  0  0  0  0  0  0  0  0  0  0
    7.6253   -1.3277   26.6658 C   0  0  0  0  0  0  0  0  0  0  0  0
    8.6925   -1.3286   26.8971 H   0  0  0  0  0  0  0  0  0  0  0  0
    7.8935   -1.4128   22.9283 N   0  0  0  0  0  0  0  0  0  0  0  0
    6.9105   -0.7129   22.3003 N   0  0  0  0  0  0  0  0  0  0  0  0
    5.3858    0.6565   20.1802 C   0  0  0  0  0  0  0  0  0  0  0  0
    4.9117    0.6844   21.1635 H   0  0  0  0  0  0  0  0  0  0  0  0
    4.8112    1.2994   19.0862 C   0  0  0  0  0  0  0  0  0  0  0  0
    3.8817    1.8486   19.1754 H   0  0  0  0  0  0  0  0  0  0  0  0
  1  2  1  0
  2  3  2  0
  3  4  1  0
  4  5  1  0
  4  6  2  0
  6  7  1  0
  7  8  1  0
  8  9  2  0
  9 10  1  0
 10 11  1  0
 11 12  1  0
 11 13  2  0
 13 14  1  0
 14 15  2  0
 15 16  1  0
 15 17  1  0
 17 18  2  0
 18 19  1  0
 19 20  1  0
 19 21  1  0
 18 22  1  0
 22 23  2  0
 23 24  1  0
 13 25  1  0
 25 26  1  0
  6 27  1  0
 27 28  1  0
 27 29  2  0
 29 30  1  0
 29  2  1  0
 26  7  2  0
 25  9  1  0
 23 14  1  0
M  END
>  <cnnaffinity>  (1) 
-5.53914

>  <filename>  (1) 
Nc1ncc(-c2csc3nc(-c4cccnc4)nn23)cn1

$$$$
