
     RDKit          3D

 37 39  0  0  0  0  0  0  0  0999 V2000
    4.9937    1.8688   16.9055 H   0  0  0  0  0  0  0  0  0  0  0  0
    5.4263    1.3433   17.7574 C   0  0  0  0  0  0  0  0  0  0  0  0
    6.5892    0.7135   17.5361 N   0  0  0  0  0  0  0  0  0  0  0  0
    7.1435    0.0649   18.5686 C   0  0  0  0  0  0  0  0  0  0  0  0
    8.0947   -0.4248   18.3601 H   0  0  0  0  0  0  0  0  0  0  0  0
    6.5750   -0.0153   19.8577 C   0  0  0  0  0  0  0  0  0  0  0  0
    7.2739   -0.7386   21.0041 C   0  0  2  0  0  0  0  0  0  0  0  0
    8.1024   -1.3097   20.5655 H   0  0  0  0  0  0  0  0  0  0  0  0
    6.4206   -1.7819   21.7384 C   0  0  0  0  0  0  0  0  0  0  0  0
    5.7498   -2.6797   21.2732 O   0  0  0  0  0  0  0  0  0  0  0  0
    6.5675   -1.5712   23.0821 N   0  0  0  0  0  0  0  0  0  0  0  0
    5.8187   -2.0164   23.5932 H   0  0  0  0  0  0  0  0  0  0  0  0
    7.0042   -0.2214   23.3973 C   0  0  0  0  0  0  0  0  0  0  0  0
    6.1564    0.4696   23.5636 H   0  0  0  0  0  0  0  0  0  0  0  0
    7.6291   -0.2142   24.3011 H   0  0  0  0  0  0  0  0  0  0  0  0
    7.7874    0.2057   22.1356 C   0  0  1  0  0  0  0  0  0  0  0  0
    7.5497    1.2493   21.9043 H   0  0  0  0  0  0  0  0  0  0  0  0
    9.2967    0.1663   22.2996 C   0  0  0  0  0  0  0  0  0  0  0  0
    9.9934   -1.0247   22.5485 C   0  0  0  0  0  0  0  0  0  0  0  0
    9.4621   -1.9655   22.6698 H   0  0  0  0  0  0  0  0  0  0  0  0
   11.3897   -1.0191   22.6193 C   0  0  0  0  0  0  0  0  0  0  0  0
   11.9119   -1.9543   22.7964 H   0  0  0  0  0  0  0  0  0  0  0  0
   12.1047    0.1748   22.4690 C   0  0  0  0  0  0  0  0  0  0  0  0
   13.1912    0.1771   22.5301 H   0  0  0  0  0  0  0  0  0  0  0  0
   11.4267    1.3829   22.2271 C   0  0  0  0  0  0  0  0  0  0  0  0
   12.1339    2.7090   21.9938 C   0  0  0  0  0  0  0  0  0  0  0  0
   13.1932    2.6412   22.2753 H   0  0  0  0  0  0  0  0  0  0  0  0
   11.6755    3.4548   22.6573 H   0  0  0  0  0  0  0  0  0  0  0  0
   12.0624    3.2292   20.6198 N   0  0  0  0  0  0  0  0  0  0  0  0
   12.5696    2.6062   20.0001 H   0  0  0  0  0  0  0  0  0  0  0  0
   11.0936    3.2301   20.2983 H   0  0  0  0  0  0  0  0  0  0  0  0
   10.0259    1.3541   22.1730 C   0  0  0  0  0  0  0  0  0  0  0  0
    9.4891    2.2940   22.0366 H   0  0  0  0  0  0  0  0  0  0  0  0
    5.3609    0.6449   20.0593 C   0  0  0  0  0  0  0  0  0  0  0  0
    4.8862    0.6298   21.0426 H   0  0  0  0  0  0  0  0  0  0  0  0
    4.7731    1.3347   18.9940 C   0  0  0  0  0  0  0  0  0  0  0  0
    3.8412    1.8717   19.1132 H   0  0  0  0  0  0  0  0  0  0  0  0
  1  2  1  0
  2  3  2  0
  3  4  1  0
  4  5  1  0
  4  6  2  0
  6  7  1  0
  7  8  1  6
  7  9  1  0
  9 10  2  0
  9 11  1  0
 11 12  1  0
 11 13  1  0
 13 14  1  0
 13 15  1  0
 13 16  1  0
 16 17  1  6
 16 18  1  0
 18 19  2  0
 19 20  1  0
 19 21  1  0
 21 22  1  0
 21 23  2  0
 23 24  1  0
 23 25  1  0
 25 26  1  0
 26 27  1  0
 26 28  1  0
 26 29  1  0
 29 30  1  0
 29 31  1  0
 25 32  2  0
 32 33  1  0
  6 34  1  0
 34 35  1  0
 34 36  2  0
 36 37  1  0
 36  2  1  0
 16  7  1  0
 32 18  1  0
M  END
>  <cnnaffinity>  (1) 
-5.40895

>  <filename>  (1) 
NCc1cccc([C@@H]2CNC(=O)[C@H]2c2cccnc2)c1

$$$$
