
     RDKit          3D

 34 36  0  0  0  0  0  0  0  0999 V2000
    4.9339    1.7998   16.9957 H   0  0  0  0  0  0  0  0  0  0  0  0
    5.3974    1.2897   17.8338 C   0  0  0  0  0  0  0  0  0  0  0  0
    6.5524    0.6588   17.5663 N   0  0  0  0  0  0  0  0  0  0  0  0
    7.1705    0.0421   18.5810 C   0  0  0  0  0  0  0  0  0  0  0  0
    8.1256   -0.4344   18.3626 H   0  0  0  0  0  0  0  0  0  0  0  0
    6.6503   -0.0016   19.8908 C   0  0  0  0  0  0  0  0  0  0  0  0
    7.3327   -0.6856   20.9448 N   0  0  0  0  0  0  0  0  0  0  0  0
    6.7352   -1.6065   21.7953 C   0  0  0  0  0  0  0  0  0  0  0  0
    5.6857   -1.8391   21.6920 H   0  0  0  0  0  0  0  0  0  0  0  0
    7.6795   -2.0696   22.6540 C   0  0  0  0  0  0  0  0  0  0  0  0
    7.5809   -3.0204   23.7680 C   0  0  0  0  0  0  0  0  0  0  0  0
    8.6906   -3.6893   24.3154 C   0  0  0  0  0  0  0  0  0  0  0  0
    9.6842   -3.5102   23.9118 H   0  0  0  0  0  0  0  0  0  0  0  0
    8.5178   -4.5983   25.3626 C   0  0  0  0  0  0  0  0  0  0  0  0
    9.3803   -5.1079   25.7886 H   0  0  0  0  0  0  0  0  0  0  0  0
    7.2375   -4.8515   25.8739 C   0  0  0  0  0  0  0  0  0  0  0  0
    7.1092   -5.5631   26.6905 H   0  0  0  0  0  0  0  0  0  0  0  0
    6.1106   -4.1936   25.3468 C   0  0  0  0  0  0  0  0  0  0  0  0
    4.7201   -4.4034   25.9323 C   0  0  0  0  0  0  0  0  0  0  0  0
    3.9574   -4.3004   25.1465 H   0  0  0  0  0  0  0  0  0  0  0  0
    4.6214   -5.4297   26.3135 H   0  0  0  0  0  0  0  0  0  0  0  0
    4.3912   -3.4660   27.0163 N   0  0  0  0  0  0  0  0  0  0  0  0
    4.5023   -2.5201   26.6499 H   0  0  0  0  0  0  0  0  0  0  0  0
    5.1235   -3.5460   27.7221 H   0  0  0  0  0  0  0  0  0  0  0  0
    6.3093   -3.2795   24.3037 C   0  0  0  0  0  0  0  0  0  0  0  0
    5.4633   -2.7337   23.8925 H   0  0  0  0  0  0  0  0  0  0  0  0
    8.8484   -1.4114   22.2975 N   0  0  0  0  0  0  0  0  0  0  0  0
    9.7485   -1.3962   22.7438 H   0  0  0  0  0  0  0  0  0  0  0  0
    8.6516   -0.5136   21.3039 C   0  0  0  0  0  0  0  0  0  0  0  0
    9.8105    0.5498   20.7844 S   0  0  0  0  0  0  0  0  0  0  0  0
    5.4402    0.6457   20.1540 C   0  0  0  0  0  0  0  0  0  0  0  0
    5.0329    0.6345   21.1673 H   0  0  0  0  0  0  0  0  0  0  0  0
    4.8056    1.3103   19.1024 C   0  0  0  0  0  0  0  0  0  0  0  0
    3.8747    1.8438   19.2597 H   0  0  0  0  0  0  0  0  0  0  0  0
  1  2  1  0
  2  3  2  0
  3  4  1  0
  4  5  1  0
  4  6  2  0
  6  7  1  0
  7  8  1  0
  8  9  1  0
  8 10  2  0
 10 11  1  0
 11 12  2  0
 12 13  1  0
 12 14  1  0
 14 15  1  0
 14 16  2  0
 16 17  1  0
 16 18  1  0
 18 19  1  0
 19 20  1  0
 19 21  1  0
 19 22  1  0
 22 23  1  0
 22 24  1  0
 18 25  2  0
 25 26  1  0
 10 27  1  0
 27 28  1  0
 27 29  1  0
 29 30  2  0
  6 31  1  0
 31 32  1  0
 31 33  2  0
 33 34  1  0
 33  2  1  0
 29  7  1  0
 25 11  1  0
M  END
>  <cnnaffinity>  (1) 
-5.34003

>  <filename>  (1) 
NCc1cccc(-c2cn(-c3cccnc3)c(=S)[nH]2)c1

$$$$
