
     RDKit          3D

 35 37  0  0  0  0  0  0  0  0999 V2000
    4.9192    1.7775   16.9983 H   0  0  0  0  0  0  0  0  0  0  0  0
    5.4034    1.2922   17.8417 C   0  0  0  0  0  0  0  0  0  0  0  0
    6.5641    0.6703   17.5836 N   0  0  0  0  0  0  0  0  0  0  0  0
    7.1612    0.0506   18.6059 C   0  0  0  0  0  0  0  0  0  0  0  0
    8.1175   -0.4189   18.3831 H   0  0  0  0  0  0  0  0  0  0  0  0
    6.6272   -0.0133   19.9058 C   0  0  0  0  0  0  0  0  0  0  0  0
    7.3075   -0.7382   20.9894 C   0  0  0  0  0  0  0  0  0  0  0  0
    6.5756   -1.5062   21.7714 N   0  0  0  0  0  0  0  0  0  0  0  0
    7.1803   -2.1961   22.8080 C   0  0  0  0  0  0  0  0  0  0  0  0
    6.2917   -3.0457   23.6651 C   0  0  0  0  0  0  0  0  0  0  0  0
    5.1158   -3.6093   23.1339 C   0  0  0  0  0  0  0  0  0  0  0  0
    4.8516   -3.3927   22.1039 H   0  0  0  0  0  0  0  0  0  0  0  0
    4.2923   -4.4094   23.9229 C   0  0  0  0  0  0  0  0  0  0  0  0
    3.3849   -4.8335   23.5039 H   0  0  0  0  0  0  0  0  0  0  0  0
    4.6236   -4.6555   25.2561 C   0  0  0  0  0  0  0  0  0  0  0  0
    3.9847   -5.2941   25.8645 H   0  0  0  0  0  0  0  0  0  0  0  0
    5.7807   -4.0928   25.8193 C   0  0  0  0  0  0  0  0  0  0  0  0
    6.1750   -4.4159   27.2451 C   0  0  0  0  0  0  0  0  0  0  0  0
    6.7011   -3.5653   27.6886 H   0  0  0  0  0  0  0  0  0  0  0  0
    5.2791   -4.5690   27.8555 H   0  0  0  0  0  0  0  0  0  0  0  0
    7.0287   -5.6042   27.3685 N   0  0  0  0  0  0  0  0  0  0  0  0
    6.5420   -6.3786   26.9213 H   0  0  0  0  0  0  0  0  0  0  0  0
    7.8400   -5.4612   26.7717 H   0  0  0  0  0  0  0  0  0  0  0  0
    6.6095   -3.3012   25.0106 C   0  0  0  0  0  0  0  0  0  0  0  0
    7.5057   -2.8678   25.4526 H   0  0  0  0  0  0  0  0  0  0  0  0
    8.5339   -2.1205   23.0275 C   0  0  0  0  0  0  0  0  0  0  0  0
    9.0481   -2.6824   23.8029 H   0  0  0  0  0  0  0  0  0  0  0  0
    9.3089   -1.3193   22.2141 N   0  0  0  0  0  0  0  0  0  0  0  0
   10.3103   -1.1850   22.3206 H   0  0  0  0  0  0  0  0  0  0  0  0
    8.8015   -0.5517   21.1701 C   0  0  0  0  0  0  0  0  0  0  0  0
    9.5734    0.1538   20.5381 O   0  0  0  0  0  0  0  0  0  0  0  0
    5.4201    0.6509   20.1578 C   0  0  0  0  0  0  0  0  0  0  0  0
    4.9910    0.6310   21.1640 H   0  0  0  0  0  0  0  0  0  0  0  0
    4.8024    1.3199   19.1060 C   0  0  0  0  0  0  0  0  0  0  0  0
    3.8688    1.8504   19.2577 H   0  0  0  0  0  0  0  0  0  0  0  0
  1  2  1  0
  2  3  2  0
  3  4  1  0
  4  5  1  0
  4  6  2  0
  6  7  1  0
  7  8  2  0
  8  9  1  0
  9 10  1  0
 10 11  2  0
 11 12  1  0
 11 13  1  0
 13 14  1  0
 13 15  2  0
 15 16  1  0
 15 17  1  0
 17 18  1  0
 18 19  1  0
 18 20  1  0
 18 21  1  0
 21 22  1  0
 21 23  1  0
 17 24  2  0
 24 25  1  0
  9 26  2  0
 26 27  1  0
 26 28  1  0
 28 29  1  0
 28 30  1  0
 30 31  2  0
  6 32  1  0
 32 33  1  0
 32 34  2  0
 34 35  1  0
 34  2  1  0
 30  7  1  0
 24 10  1  0
M  END
>  <cnnaffinity>  (1) 
-5.26862

>  <filename>  (1) 
NCc1cccc(-c2c[nH]c(=O)c(-c3cccnc3)n2)c1

$$$$
