
     RDKit          3D

 37 39  0  0  0  0  0  0  0  0999 V2000
    6.5864   -1.2139   21.7434 H   0  0  0  0  0  0  0  0  0  0  0  0
    7.2388   -0.6780   21.0498 C   0  0  0  0  0  0  0  0  0  0  0  0
    8.5361   -0.4958   21.3783 C   0  0  0  0  0  0  0  0  0  0  0  0
    9.3341   -1.1675   22.4336 C   0  0  0  0  0  0  0  0  0  0  0  0
    8.8312   -2.3506   23.1942 C   0  0  0  0  0  0  0  0  0  0  0  0
    8.1890   -3.4061   22.5211 C   0  0  0  0  0  0  0  0  0  0  0  0
    8.0357   -3.3486   21.4449 H   0  0  0  0  0  0  0  0  0  0  0  0
    7.7489   -4.5226   23.2301 C   0  0  0  0  0  0  0  0  0  0  0  0
    7.2664   -5.3415   22.7037 H   0  0  0  0  0  0  0  0  0  0  0  0
    7.9246   -4.5892   24.6131 C   0  0  0  0  0  0  0  0  0  0  0  0
    7.5395   -5.4487   25.1598 H   0  0  0  0  0  0  0  0  0  0  0  0
    8.5698   -3.5483   25.3117 C   0  0  0  0  0  0  0  0  0  0  0  0
    8.8357   -3.6827   26.8030 C   0  0  0  0  0  0  0  0  0  0  0  0
    7.9469   -4.0999   27.2895 H   0  0  0  0  0  0  0  0  0  0  0  0
    8.9975   -2.6972   27.2596 H   0  0  0  0  0  0  0  0  0  0  0  0
    9.9745   -4.5518   27.1311 N   0  0  0  0  0  0  0  0  0  0  0  0
   10.8157   -4.1325   26.7417 H   0  0  0  0  0  0  0  0  0  0  0  0
    9.8700   -5.4181   26.6041 H   0  0  0  0  0  0  0  0  0  0  0  0
    9.0123   -2.4332   24.5862 C   0  0  0  0  0  0  0  0  0  0  0  0
    9.5247   -1.6174   25.0987 H   0  0  0  0  0  0  0  0  0  0  0  0
   10.4908   -0.6456   22.6242 N   0  0  0  0  0  0  0  0  0  0  0  0
   10.6699    0.4941   21.7165 C   0  0  0  0  0  0  0  0  0  0  0  0
   11.6046    0.3767   21.1625 H   0  0  0  0  0  0  0  0  0  0  0  0
   10.7527    1.4005   22.3261 H   0  0  0  0  0  0  0  0  0  0  0  0
    9.4443    0.5411   20.7724 C   0  0  0  0  0  0  0  0  0  0  0  0
    9.6968    0.2142   19.7641 H   0  0  0  0  0  0  0  0  0  0  0  0
    8.9739    1.5254   20.6994 H   0  0  0  0  0  0  0  0  0  0  0  0
    6.5515   -0.0562   19.9017 C   0  0  0  0  0  0  0  0  0  0  0  0
    7.0961   -0.0046   18.6030 C   0  0  0  0  0  0  0  0  0  0  0  0
    8.0230   -0.5341   18.3907 H   0  0  0  0  0  0  0  0  0  0  0  0
    6.5505    0.6565   17.5696 N   0  0  0  0  0  0  0  0  0  0  0  0
    5.4057    1.3164   17.8006 C   0  0  0  0  0  0  0  0  0  0  0  0
    5.0015    1.8882   16.9638 H   0  0  0  0  0  0  0  0  0  0  0  0
    4.7452    1.2909   19.0336 C   0  0  0  0  0  0  0  0  0  0  0  0
    3.8241    1.8450   19.1552 H   0  0  0  0  0  0  0  0  0  0  0  0
    5.3121    0.5794   20.0934 C   0  0  0  0  0  0  0  0  0  0  0  0
    4.8333    0.5532   21.0735 H   0  0  0  0  0  0  0  0  0  0  0  0
  1  2  1  0
  2  3  2  3
  3  4  1  0
  4  5  1  0
  5  6  2  0
  6  7  1  0
  6  8  1  0
  8  9  1  0
  8 10  2  0
 10 11  1  0
 10 12  1  0
 12 13  1  0
 13 14  1  0
 13 15  1  0
 13 16  1  0
 16 17  1  0
 16 18  1  0
 12 19  2  0
 19 20  1  0
  4 21  2  0
 21 22  1  0
 22 23  1  0
 22 24  1  0
 22 25  1  0
 25 26  1  0
 25 27  1  0
  2 28  1  0
 28 29  2  0
 29 30  1  0
 29 31  1  0
 31 32  2  0
 32 33  1  0
 32 34  1  0
 34 35  1  0
 34 36  2  0
 36 37  1  0
 25  3  1  0
 36 28  1  0
 19  5  1  0
M  END
>  <cnnaffinity>  (1) 
-4.93096

>  <filename>  (1) 
NCc1cccc(C2=NCCC2=Cc2cccnc2)c1

$$$$
