
     RDKit          3D

 34 37  0  0  0  0  0  0  0  0999 V2000
    4.9161    1.7755   17.0022 H   0  0  0  0  0  0  0  0  0  0  0  0
    5.4045    1.2899   17.8428 C   0  0  0  0  0  0  0  0  0  0  0  0
    6.5701    0.6779   17.5775 N   0  0  0  0  0  0  0  0  0  0  0  0
    7.1749    0.0566   18.5905 C   0  0  0  0  0  0  0  0  0  0  0  0
    8.1246   -0.4347   18.3744 H   0  0  0  0  0  0  0  0  0  0  0  0
    6.6478    0.0111   19.8914 C   0  0  0  0  0  0  0  0  0  0  0  0
    7.4035   -0.7014   20.9179 C   0  0  0  0  0  0  0  0  0  0  0  0
    8.3317   -1.6000   20.6992 N   0  0  0  0  0  0  0  0  0  0  0  0
    8.8319   -2.0331   21.9063 N   0  0  0  0  0  0  0  0  0  0  0  0
    8.1958   -1.3534   22.8192 C   0  0  0  0  0  0  0  0  0  0  0  0
    8.2618   -1.0955   24.5343 S   0  0  0  0  0  0  0  0  0  0  0  0
    7.0301    0.1735   24.3216 C   0  0  0  0  0  0  0  0  0  0  0  0
    6.5377    0.9589   25.4736 C   0  0  0  0  0  0  0  0  0  0  0  0
    7.0176    0.7411   26.7827 C   0  0  0  0  0  0  0  0  0  0  0  0
    7.7667   -0.0211   26.9898 H   0  0  0  0  0  0  0  0  0  0  0  0
    6.5346    1.5099   27.8413 C   0  0  0  0  0  0  0  0  0  0  0  0
    6.9091    1.3435   28.8465 H   0  0  0  0  0  0  0  0  0  0  0  0
    5.5673    2.4927   27.6180 C   0  0  0  0  0  0  0  0  0  0  0  0
    5.2041    3.0968   28.4482 H   0  0  0  0  0  0  0  0  0  0  0  0
    5.0625    2.7135   26.3262 C   0  0  0  0  0  0  0  0  0  0  0  0
    4.0648    3.8213   26.0670 C   0  0  0  0  0  0  0  0  0  0  0  0
    3.4031    3.5413   25.2387 H   0  0  0  0  0  0  0  0  0  0  0  0
    3.4184    3.9499   26.9418 H   0  0  0  0  0  0  0  0  0  0  0  0
    4.6967    5.1100   25.7528 N   0  0  0  0  0  0  0  0  0  0  0  0
    5.3366    5.3280   26.5148 H   0  0  0  0  0  0  0  0  0  0  0  0
    5.3158    4.9551   24.9573 H   0  0  0  0  0  0  0  0  0  0  0  0
    5.5634    1.9505   25.2624 C   0  0  0  0  0  0  0  0  0  0  0  0
    5.2078    2.1265   24.2485 H   0  0  0  0  0  0  0  0  0  0  0  0
    6.6183    0.3539   23.1035 N   0  0  0  0  0  0  0  0  0  0  0  0
    7.2682   -0.5205   22.2790 N   0  0  0  0  0  0  0  0  0  0  0  0
    5.4332    0.6523   20.1616 C   0  0  0  0  0  0  0  0  0  0  0  0
    5.0089    0.6348   21.1683 H   0  0  0  0  0  0  0  0  0  0  0  0
    4.8048    1.3085   19.1088 C   0  0  0  0  0  0  0  0  0  0  0  0
    3.8740    1.8435   19.2619 H   0  0  0  0  0  0  0  0  0  0  0  0
  1  2  1  0
  2  3  2  0
  3  4  1  0
  4  5  1  0
  4  6  2  0
  6  7  1  0
  7  8  2  0
  8  9  1  0
  9 10  2  0
 10 11  1  0
 11 12  1  0
 12 13  1  0
 13 14  2  0
 14 15  1  0
 14 16  1  0
 16 17  1  0
 16 18  2  0
 18 19  1  0
 18 20  1  0
 20 21  1  0
 21 22  1  0
 21 23  1  0
 21 24  1  0
 24 25  1  0
 24 26  1  0
 20 27  2  0
 27 28  1  0
 12 29  2  0
 29 30  1  0
  6 31  1  0
 31 32  1  0
 31 33  2  0
 33 34  1  0
 33  2  1  0
 30  7  1  0
 30 10  1  0
 27 13  1  0
M  END
>  <cnnaffinity>  (1) 
-5.16415

>  <filename>  (1) 
NCc1cccc(-c2nn3c(-c4cccnc4)nnc3s2)c1

$$$$
