
     RDKit          3D

 37 39  0  0  0  0  0  0  0  0999 V2000
    9.2669    0.7132   20.3761 H   0  0  0  0  0  0  0  0  0  0  0  0
    9.5682   -0.1505   20.9713 C   0  0  0  0  0  0  0  0  0  0  0  0
    8.6274   -1.0409   21.3329 C   0  0  0  0  0  0  0  0  0  0  0  0
    7.1802   -0.9796   21.0010 C   0  0  0  0  0  0  0  0  0  0  0  0
    6.6380   -0.1493   19.9012 C   0  0  0  0  0  0  0  0  0  0  0  0
    7.3239   -0.0581   18.6844 C   0  0  0  0  0  0  0  0  0  0  0  0
    8.2876   -0.5533   18.5650 H   0  0  0  0  0  0  0  0  0  0  0  0
    6.8805    0.6302   17.6270 N   0  0  0  0  0  0  0  0  0  0  0  0
    5.7244    1.2939   17.7696 C   0  0  0  0  0  0  0  0  0  0  0  0
    5.3934    1.8503   16.8955 H   0  0  0  0  0  0  0  0  0  0  0  0
    4.9646    1.2784   18.9440 C   0  0  0  0  0  0  0  0  0  0  0  0
    4.0466    1.8536   18.9919 H   0  0  0  0  0  0  0  0  0  0  0  0
    5.4216    0.5350   20.0314 C   0  0  0  0  0  0  0  0  0  0  0  0
    4.8611    0.4801   20.9648 H   0  0  0  0  0  0  0  0  0  0  0  0
    6.4403   -1.6920   21.7613 N   0  0  0  0  0  0  0  0  0  0  0  0
    7.2756   -2.3410   22.7812 C   0  0  0  0  0  0  0  0  0  0  0  0
    6.9822   -3.3890   22.8789 H   0  0  0  0  0  0  0  0  0  0  0  0
    7.0748   -1.8597   23.7486 H   0  0  0  0  0  0  0  0  0  0  0  0
    8.7568   -2.1518   22.3543 C   0  0  0  0  0  0  0  0  0  0  0  0
    9.1310   -3.0654   21.8719 H   0  0  0  0  0  0  0  0  0  0  0  0
    9.4180   -1.8952   23.1918 H   0  0  0  0  0  0  0  0  0  0  0  0
   10.9658   -0.0914   21.4225 C   0  0  0  0  0  0  0  0  0  0  0  0
   11.7564   -1.2255   21.6614 C   0  0  0  0  0  0  0  0  0  0  0  0
   11.3619   -2.2104   21.4331 H   0  0  0  0  0  0  0  0  0  0  0  0
   13.0510   -1.0880   22.1616 C   0  0  0  0  0  0  0  0  0  0  0  0
   13.6604   -1.9733   22.3003 H   0  0  0  0  0  0  0  0  0  0  0  0
   13.5516    0.1781   22.4841 C   0  0  0  0  0  0  0  0  0  0  0  0
   14.5560    0.2667   22.8877 H   0  0  0  0  0  0  0  0  0  0  0  0
   12.7837    1.3336   22.2444 C   0  0  0  0  0  0  0  0  0  0  0  0
   13.2354    2.7407   22.6122 C   0  0  0  0  0  0  0  0  0  0  0  0
   14.3108    2.7647   22.8144 H   0  0  0  0  0  0  0  0  0  0  0  0
   13.0650    3.3903   21.7433 H   0  0  0  0  0  0  0  0  0  0  0  0
   12.5332    3.3437   23.7507 N   0  0  0  0  0  0  0  0  0  0  0  0
   11.5394    3.3750   23.5413 H   0  0  0  0  0  0  0  0  0  0  0  0
   12.6325    2.7357   24.5605 H   0  0  0  0  0  0  0  0  0  0  0  0
   11.5294    1.1741   21.6472 C   0  0  0  0  0  0  0  0  0  0  0  0
   10.9629    2.0615   21.3681 H   0  0  0  0  0  0  0  0  0  0  0  0
  1  2  1  0
  2  3  2  3
  3  4  1  0
  4  5  1  0
  5  6  2  0
  6  7  1  0
  6  8  1  0
  8  9  2  0
  9 10  1  0
  9 11  1  0
 11 12  1  0
 11 13  2  0
 13 14  1  0
  4 15  2  0
 15 16  1  0
 16 17  1  0
 16 18  1  0
 16 19  1  0
 19 20  1  0
 19 21  1  0
  2 22  1  0
 22 23  2  0
 23 24  1  0
 23 25  1  0
 25 26  1  0
 25 27  2  0
 27 28  1  0
 27 29  1  0
 29 30  1  0
 30 31  1  0
 30 32  1  0
 30 33  1  0
 33 34  1  0
 33 35  1  0
 29 36  2  0
 36 37  1  0
 19  3  1  0
 36 22  1  0
 13  5  1  0
M  END
>  <cnnaffinity>  (1) 
-6.00612

>  <filename>  (1) 
NCc1cccc(C=C2CCN=C2c2cccnc2)c1

$$$$
