
     RDKit          3D

 32 33  0  0  0  0  0  0  0  0999 V2000
    4.8944    1.9359   16.8443 H   0  0  0  0  0  0  0  0  0  0  0  0
    5.3611    1.4018   17.6695 C   0  0  0  0  0  0  0  0  0  0  0  0
    6.5171    0.7802   17.3833 N   0  0  0  0  0  0  0  0  0  0  0  0
    7.1266    0.1267   18.3799 C   0  0  0  0  0  0  0  0  0  0  0  0
    8.0660   -0.3660   18.1465 H   0  0  0  0  0  0  0  0  0  0  0  0
    6.6132    0.0450   19.6904 C   0  0  0  0  0  0  0  0  0  0  0  0
    7.3149   -0.6476   20.7585 N   0  0  0  0  0  0  0  0  0  0  0  0
    8.5701   -0.1697   21.2348 C   0  0  0  0  0  0  0  0  0  0  0  0
    9.1308    0.7411   20.6616 O   0  0  0  0  0  0  0  0  0  0  0  0
    9.1081   -0.8201   22.4164 C   0  0  0  0  0  0  0  0  0  0  0  0
   10.0311   -0.3965   22.7742 H   0  0  0  0  0  0  0  0  0  0  0  0
    8.5046   -1.8664   23.0014 C   0  0  0  0  0  0  0  0  0  0  0  0
    9.0264   -2.6768   24.1553 C   0  0  0  0  0  0  0  0  0  0  0  0
    9.8075   -2.1044   24.6744 H   0  0  0  0  0  0  0  0  0  0  0  0
    8.1896   -2.8183   24.8507 H   0  0  0  0  0  0  0  0  0  0  0  0
    9.6171   -4.0489   23.7657 C   0  0  0  0  0  0  0  0  0  0  0  0
   10.5714   -3.8736   23.2511 H   0  0  0  0  0  0  0  0  0  0  0  0
    8.9467   -4.5366   23.0444 H   0  0  0  0  0  0  0  0  0  0  0  0
    9.8600   -5.0120   24.9479 C   0  0  0  0  0  0  0  0  0  0  0  0
    8.9058   -5.4203   25.3168 H   0  0  0  0  0  0  0  0  0  0  0  0
   10.4234   -5.8806   24.5834 H   0  0  0  0  0  0  0  0  0  0  0  0
   10.5856   -4.4821   26.0941 N   0  0  0  0  0  0  0  0  0  0  0  0
   10.2036   -3.6029   26.4346 H   0  0  0  0  0  0  0  0  0  0  0  0
   11.5670   -4.3226   25.8713 H   0  0  0  0  0  0  0  0  0  0  0  0
    7.3091   -2.2621   22.4527 N   0  0  0  0  0  0  0  0  0  0  0  0
    6.7248   -2.9966   22.8042 H   0  0  0  0  0  0  0  0  0  0  0  0
    6.6934   -1.7381   21.3494 C   0  0  0  0  0  0  0  0  0  0  0  0
    5.6664   -2.2530   20.9597 O   0  0  0  0  0  0  0  0  0  0  0  0
    5.3907    0.6625   19.9629 C   0  0  0  0  0  0  0  0  0  0  0  0
    4.9573    0.5857   20.9610 H   0  0  0  0  0  0  0  0  0  0  0  0
    4.7572    1.3705   18.9324 C   0  0  0  0  0  0  0  0  0  0  0  0
    3.8187    1.8947   19.0953 H   0  0  0  0  0  0  0  0  0  0  0  0
  1  2  1  0
  2  3  2  0
  3  4  1  0
  4  5  1  0
  4  6  2  0
  6  7  1  0
  7  8  1  0
  8  9  2  0
  8 10  1  0
 10 11  1  0
 10 12  2  0
 12 13  1  0
 13 14  1  0
 13 15  1  0
 13 16  1  0
 16 17  1  0
 16 18  1  0
 16 19  1  0
 19 20  1  0
 19 21  1  0
 19 22  1  0
 22 23  1  0
 22 24  1  0
 12 25  1  0
 25 26  1  0
 25 27  1  0
 27 28  2  0
  6 29  1  0
 29 30  1  0
 29 31  2  0
 31 32  1  0
 31  2  1  0
 27  7  1  0
M  END
>  <cnnaffinity>  (1) 
-5.00022

>  <filename>  (1) 
NCCCc1cc(=O)n(-c2cccnc2)c(=O)[nH]1

$$$$
