
     RDKit          3D

 31 33  0  0  0  0  0  0  0  0999 V2000
    4.9241    1.7722   17.0028 H   0  0  0  0  0  0  0  0  0  0  0  0
    5.4100    1.2857   17.8460 C   0  0  0  0  0  0  0  0  0  0  0  0
    6.5747    0.6678   17.5959 N   0  0  0  0  0  0  0  0  0  0  0  0
    7.1804    0.0529   18.6173 C   0  0  0  0  0  0  0  0  0  0  0  0
    8.1262   -0.4327   18.3844 H   0  0  0  0  0  0  0  0  0  0  0  0
    6.6453    0.0144   19.9140 C   0  0  0  0  0  0  0  0  0  0  0  0
    7.3596   -0.6894   20.9772 C   0  0  0  0  0  0  0  0  0  0  0  0
    8.5477   -1.3225   20.7597 N   0  0  0  0  0  0  0  0  0  0  0  0
    8.8173   -1.7950   21.9608 C   0  0  0  0  0  0  0  0  0  0  0  0
   10.0751   -2.7031   22.7571 S   0  0  0  0  0  0  0  0  0  0  0  0
    9.1819   -2.5964   24.2582 C   0  0  0  0  0  0  0  0  0  0  0  0
    9.6027   -3.0259   25.1590 H   0  0  0  0  0  0  0  0  0  0  0  0
    8.0198   -1.9243   24.1478 C   0  0  0  0  0  0  0  0  0  0  0  0
    7.0502   -1.5703   25.2336 C   0  0  0  0  0  0  0  0  0  0  0  0
    6.0279   -1.7406   24.8782 H   0  0  0  0  0  0  0  0  0  0  0  0
    7.2226   -2.2540   26.0739 H   0  0  0  0  0  0  0  0  0  0  0  0
    7.2051   -0.1185   25.7218 C   0  0  0  0  0  0  0  0  0  0  0  0
    7.0369    0.5537   24.8740 H   0  0  0  0  0  0  0  0  0  0  0  0
    6.4130    0.0940   26.4500 H   0  0  0  0  0  0  0  0  0  0  0  0
    8.5541    0.2014   26.3607 C   0  0  0  0  0  0  0  0  0  0  0  0
    9.3515    0.0182   25.6326 H   0  0  0  0  0  0  0  0  0  0  0  0
    8.5963    1.2805   26.5918 H   0  0  0  0  0  0  0  0  0  0  0  0
    8.7913   -0.6521   27.5264 N   0  0  0  0  0  0  0  0  0  0  0  0
    8.1582   -0.3531   28.2645 H   0  0  0  0  0  0  0  0  0  0  0  0
    9.7181   -0.4532   27.8987 H   0  0  0  0  0  0  0  0  0  0  0  0
    7.8493   -1.4751   22.8381 N   0  0  0  0  0  0  0  0  0  0  0  0
    6.8885   -0.7497   22.2182 N   0  0  0  0  0  0  0  0  0  0  0  0
    5.4250    0.6596   20.1651 C   0  0  0  0  0  0  0  0  0  0  0  0
    4.9948    0.6370   21.1711 H   0  0  0  0  0  0  0  0  0  0  0  0
    4.8034    1.3112   19.1076 C   0  0  0  0  0  0  0  0  0  0  0  0
    3.8729    1.8443   19.2587 H   0  0  0  0  0  0  0  0  0  0  0  0
  1  2  1  0
  2  3  2  0
  3  4  1  0
  4  5  1  0
  4  6  2  0
  6  7  1  0
  7  8  1  0
  8  9  2  0
  9 10  1  0
 10 11  1  0
 11 12  1  0
 11 13  2  0
 13 14  1  0
 14 15  1  0
 14 16  1  0
 14 17  1  0
 17 18  1  0
 17 19  1  0
 17 20  1  0
 20 21  1  0
 20 22  1  0
 20 23  1  0
 23 24  1  0
 23 25  1  0
 13 26  1  0
 26 27  1  0
  6 28  1  0
 28 29  1  0
 28 30  2  0
 30 31  1  0
 30  2  1  0
 27  7  2  0
 26  9  1  0
M  END
>  <cnnaffinity>  (1) 
-5.13511

>  <filename>  (1) 
NCCCc1csc2nc(-c3cccnc3)nn12

$$$$
