
     RDKit          3D

 34 36  0  0  0  0  0  0  0  0999 V2000
    4.9713    1.8127   16.9568 H   0  0  0  0  0  0  0  0  0  0  0  0
    5.4155    1.2939   17.8038 C   0  0  0  0  0  0  0  0  0  0  0  0
    6.5633    0.6368   17.5720 N   0  0  0  0  0  0  0  0  0  0  0  0
    7.1448    0.0179   18.6033 C   0  0  0  0  0  0  0  0  0  0  0  0
    8.0663   -0.5185   18.3853 H   0  0  0  0  0  0  0  0  0  0  0  0
    6.6470    0.0484   19.9167 C   0  0  0  0  0  0  0  0  0  0  0  0
    7.4194   -0.5981   20.9807 C   0  0  0  0  0  0  0  0  0  0  0  0
    8.0046   -1.8352   20.8009 N   0  0  0  0  0  0  0  0  0  0  0  0
    8.4872   -2.1222   21.9751 C   0  0  0  0  0  0  0  0  0  0  0  0
    8.3357   -1.1347   22.8919 N   0  0  0  0  0  0  0  0  0  0  0  0
    7.6500   -0.1209   22.2656 C   0  0  0  0  0  0  0  0  0  0  0  0
    7.4892    1.2521   22.8233 C   0  0  0  0  0  0  0  0  0  0  0  0
    6.4309    1.5379   22.7969 H   0  0  0  0  0  0  0  0  0  0  0  0
    7.7848    1.2786   23.8811 H   0  0  0  0  0  0  0  0  0  0  0  0
    8.3099    2.2774   22.0161 C   0  0  0  0  0  0  0  0  0  0  0  0
    8.0031    2.2205   20.9635 H   0  0  0  0  0  0  0  0  0  0  0  0
    8.0684    3.2911   22.3551 H   0  0  0  0  0  0  0  0  0  0  0  0
    9.8204    2.0696   22.1114 C   0  0  0  0  0  0  0  0  0  0  0  0
   10.0666    1.0569   21.7688 H   0  0  0  0  0  0  0  0  0  0  0  0
   10.3222    2.7605   21.4115 H   0  0  0  0  0  0  0  0  0  0  0  0
   10.2689    2.1884   23.5036 N   0  0  0  0  0  0  0  0  0  0  0  0
   10.0963    3.1368   23.8312 H   0  0  0  0  0  0  0  0  0  0  0  0
   11.2752    2.0586   23.5517 H   0  0  0  0  0  0  0  0  0  0  0  0
    9.1468   -1.1767   24.0948 C   0  0  0  0  0  0  0  0  0  0  0  0
    8.5319   -0.9630   24.9718 H   0  0  0  0  0  0  0  0  0  0  0  0
    9.9274   -0.4051   24.0444 H   0  0  0  0  0  0  0  0  0  0  0  0
    9.7422   -2.6066   24.1711 C   0  0  0  0  0  0  0  0  0  0  0  0
   10.8317   -2.5896   24.1861 H   0  0  0  0  0  0  0  0  0  0  0  0
    9.3888   -3.1343   25.0583 H   0  0  0  0  0  0  0  0  0  0  0  0
    9.2114   -3.5493   22.6897 S   0  0  0  0  0  0  0  0  0  0  0  0
    5.4189    0.7020   20.1300 C   0  0  0  0  0  0  0  0  0  0  0  0
    4.9473    0.7014   21.1143 H   0  0  0  0  0  0  0  0  0  0  0  0
    4.7940    1.3290   19.0566 C   0  0  0  0  0  0  0  0  0  0  0  0
    3.8554    1.8578   19.1779 H   0  0  0  0  0  0  0  0  0  0  0  0
  1  2  1  0
  2  3  2  0
  3  4  1  0
  4  5  1  0
  4  6  2  0
  6  7  1  0
  7  8  1  0
  8  9  2  0
  9 10  1  0
 10 11  1  0
 11 12  1  0
 12 13  1  0
 12 14  1  0
 12 15  1  0
 15 16  1  0
 15 17  1  0
 15 18  1  0
 18 19  1  0
 18 20  1  0
 18 21  1  0
 21 22  1  0
 21 23  1  0
 10 24  1  0
 24 25  1  0
 24 26  1  0
 24 27  1  0
 27 28  1  0
 27 29  1  0
 27 30  1  0
  6 31  1  0
 31 32  1  0
 31 33  2  0
 33 34  1  0
 33  2  1  0
 11  7  2  0
 30  9  1  0
M  END
>  <cnnaffinity>  (1) 
-5.13338

>  <filename>  (1) 
NCCCc1c(-c2cccnc2)nc2n1CCS2

$$$$
