
     RDKit          3D

 33 35  0  0  0  0  0  0  0  0999 V2000
    5.0209    1.8379   16.9771 H   0  0  0  0  0  0  0  0  0  0  0  0
    5.4322    1.2914   17.8211 C   0  0  0  0  0  0  0  0  0  0  0  0
    6.5756    0.6242   17.6014 N   0  0  0  0  0  0  0  0  0  0  0  0
    7.1053   -0.0391   18.6357 C   0  0  0  0  0  0  0  0  0  0  0  0
    8.0621   -0.5242   18.4418 H   0  0  0  0  0  0  0  0  0  0  0  0
    6.5411   -0.0977   19.9214 C   0  0  0  0  0  0  0  0  0  0  0  0
    7.2814   -0.7857   21.0051 C   0  0  0  0  0  0  0  0  0  0  0  0
    6.6618   -1.5373   21.9185 N   0  0  0  0  0  0  0  0  0  0  0  0
    7.6313   -1.8582   22.7859 N   0  0  0  0  0  0  0  0  0  0  0  0
    8.8318   -1.3417   22.4917 C   0  0  0  0  0  0  0  0  0  0  0  0
    8.6765   -0.6515   21.3022 C   0  0  0  0  0  0  0  0  0  0  0  0
    9.6535    0.3549   20.7699 C   0  0  0  0  0  0  0  0  0  0  0  0
    9.5450    0.4911   19.6932 H   0  0  0  0  0  0  0  0  0  0  0  0
   10.6752   -0.0168   20.9239 H   0  0  0  0  0  0  0  0  0  0  0  0
    9.4713    1.7236   21.4531 C   0  0  0  0  0  0  0  0  0  0  0  0
    9.3094    1.5631   22.5264 H   0  0  0  0  0  0  0  0  0  0  0  0
    8.5447    2.1820   21.0746 H   0  0  0  0  0  0  0  0  0  0  0  0
   10.5680    2.6544   21.3090 N   0  0  0  0  0  0  0  0  0  0  0  0
   11.4523    2.1747   21.4111 H   0  0  0  0  0  0  0  0  0  0  0  0
   10.5713    3.0979   20.3959 H   0  0  0  0  0  0  0  0  0  0  0  0
    9.7414   -1.4307   23.6812 C   0  0  0  0  0  0  0  0  0  0  0  0
   10.6736   -1.9524   23.4605 H   0  0  0  0  0  0  0  0  0  0  0  0
   10.0148   -0.4182   23.9955 H   0  0  0  0  0  0  0  0  0  0  0  0
    8.8855   -2.1712   24.7475 C   0  0  0  0  0  0  0  0  0  0  0  0
    9.3133   -3.1463   24.9756 H   0  0  0  0  0  0  0  0  0  0  0  0
    8.8408   -1.6104   25.6825 H   0  0  0  0  0  0  0  0  0  0  0  0
    7.4674   -2.3537   24.1362 C   0  0  0  0  0  0  0  0  0  0  0  0
    6.7049   -1.7635   24.6504 H   0  0  0  0  0  0  0  0  0  0  0  0
    7.1289   -3.3899   24.1117 H   0  0  0  0  0  0  0  0  0  0  0  0
    5.3318    0.6000   20.1237 C   0  0  0  0  0  0  0  0  0  0  0  0
    4.8661    0.6310   21.1101 H   0  0  0  0  0  0  0  0  0  0  0  0
    4.7782    1.3054   19.0564 C   0  0  0  0  0  0  0  0  0  0  0  0
    3.8683    1.8865   19.1689 H   0  0  0  0  0  0  0  0  0  0  0  0
  1  2  1  0
  2  3  2  0
  3  4  1  0
  4  5  1  0
  4  6  2  0
  6  7  1  0
  7  8  2  0
  8  9  1  0
  9 10  1  0
 10 11  2  0
 11 12  1  0
 12 13  1  0
 12 14  1  0
 12 15  1  0
 15 16  1  0
 15 17  1  0
 15 18  1  0
 18 19  1  0
 18 20  1  0
 10 21  1  0
 21 22  1  0
 21 23  1  0
 21 24  1  0
 24 25  1  0
 24 26  1  0
 24 27  1  0
 27 28  1  0
 27 29  1  0
  6 30  1  0
 30 31  1  0
 30 32  2  0
 32 33  1  0
 32  2  1  0
 11  7  1  0
 27  9  1  0
M  END
>  <cnnaffinity>  (1) 
-5.0829

>  <filename>  (1) 
NCCc1c(-c2cccnc2)nn2c1CCC2

$$$$
