
     RDKit          3D

 36 38  0  0  0  0  0  0  0  0999 V2000
    4.9312    1.7836   16.9905 H   0  0  0  0  0  0  0  0  0  0  0  0
    5.4064    1.2941   17.8370 C   0  0  0  0  0  0  0  0  0  0  0  0
    6.5669    0.6713   17.5841 N   0  0  0  0  0  0  0  0  0  0  0  0
    7.1617    0.0538   18.6147 C   0  0  0  0  0  0  0  0  0  0  0  0
    8.1117   -0.4278   18.3855 H   0  0  0  0  0  0  0  0  0  0  0  0
    6.6272   -0.0054   19.9105 C   0  0  0  0  0  0  0  0  0  0  0  0
    7.3363   -0.7209   20.9734 C   0  0  0  0  0  0  0  0  0  0  0  0
    6.6939   -1.5223   21.8304 N   0  0  0  0  0  0  0  0  0  0  0  0
    7.6585   -1.8963   22.6832 N   0  0  0  0  0  0  0  0  0  0  0  0
    8.8519   -1.3501   22.4237 C   0  0  0  0  0  0  0  0  0  0  0  0
    8.7172   -0.5741   21.2981 C   0  0  0  0  0  0  0  0  0  0  0  0
    9.7386    0.4329   20.8541 C   0  0  0  0  0  0  0  0  0  0  0  0
    9.5747    0.6724   19.7995 H   0  0  0  0  0  0  0  0  0  0  0  0
   10.7405   -0.0082   20.9290 H   0  0  0  0  0  0  0  0  0  0  0  0
    9.7076    1.7359   21.6750 C   0  0  0  0  0  0  0  0  0  0  0  0
    9.8395    1.5187   22.7432 H   0  0  0  0  0  0  0  0  0  0  0  0
   10.5514    2.3761   21.3769 H   0  0  0  0  0  0  0  0  0  0  0  0
    8.4214    2.5302   21.4971 C   0  0  0  0  0  0  0  0  0  0  0  0
    7.5510    1.9892   21.8844 H   0  0  0  0  0  0  0  0  0  0  0  0
    8.2396    2.5948   20.4217 H   0  0  0  0  0  0  0  0  0  0  0  0
    8.4538    3.8517   22.1212 N   0  0  0  0  0  0  0  0  0  0  0  0
    9.2447    4.3672   21.7355 H   0  0  0  0  0  0  0  0  0  0  0  0
    8.6778    3.7348   23.1052 H   0  0  0  0  0  0  0  0  0  0  0  0
    9.7967   -1.5505   23.5518 C   0  0  0  0  0  0  0  0  0  0  0  0
   10.7148   -2.0380   23.2240 H   0  0  0  0  0  0  0  0  0  0  0  0
   10.0933   -0.5764   23.9540 H   0  0  0  0  0  0  0  0  0  0  0  0
    8.9718   -2.3948   24.5612 C   0  0  0  0  0  0  0  0  0  0  0  0
    9.4170   -3.3808   24.6874 H   0  0  0  0  0  0  0  0  0  0  0  0
    8.9416   -1.9204   25.5404 H   0  0  0  0  0  0  0  0  0  0  0  0
    7.5306   -2.5239   23.9799 C   0  0  0  0  0  0  0  0  0  0  0  0
    6.7793   -1.9926   24.5678 H   0  0  0  0  0  0  0  0  0  0  0  0
    7.1999   -3.5567   23.8800 H   0  0  0  0  0  0  0  0  0  0  0  0
    5.4149    0.6543   20.1563 C   0  0  0  0  0  0  0  0  0  0  0  0
    4.9881    0.6342   21.1637 H   0  0  0  0  0  0  0  0  0  0  0  0
    4.8014    1.3195   19.0977 C   0  0  0  0  0  0  0  0  0  0  0  0
    3.8720    1.8481   19.2469 H   0  0  0  0  0  0  0  0  0  0  0  0
  1  2  1  0
  2  3  2  0
  3  4  1  0
  4  5  1  0
  4  6  2  0
  6  7  1  0
  7  8  2  0
  8  9  1  0
  9 10  1  0
 10 11  2  0
 11 12  1  0
 12 13  1  0
 12 14  1  0
 12 15  1  0
 15 16  1  0
 15 17  1  0
 15 18  1  0
 18 19  1  0
 18 20  1  0
 18 21  1  0
 21 22  1  0
 21 23  1  0
 10 24  1  0
 24 25  1  0
 24 26  1  0
 24 27  1  0
 27 28  1  0
 27 29  1  0
 27 30  1  0
 30 31  1  0
 30 32  1  0
  6 33  1  0
 33 34  1  0
 33 35  2  0
 35 36  1  0
 35  2  1  0
 11  7  1  0
 30  9  1  0
M  END
>  <cnnaffinity>  (1) 
-5.19577

>  <filename>  (1) 
NCCCc1c(-c2cccnc2)nn2c1CCC2

$$$$
