
     RDKit          3D

 30 32  0  0  0  0  0  0  0  0999 V2000
    4.9815    1.8015   16.9819 H   0  0  0  0  0  0  0  0  0  0  0  0
    5.4282    1.2874   17.8298 C   0  0  0  0  0  0  0  0  0  0  0  0
    6.5876    0.6484   17.6045 N   0  0  0  0  0  0  0  0  0  0  0  0
    7.1662    0.0327   18.6391 C   0  0  0  0  0  0  0  0  0  0  0  0
    8.1159   -0.4605   18.4233 H   0  0  0  0  0  0  0  0  0  0  0  0
    6.6261    0.0059   19.9355 C   0  0  0  0  0  0  0  0  0  0  0  0
    7.3471   -0.6903   21.0222 C   0  0  0  0  0  0  0  0  0  0  0  0
    6.8980   -0.7439   22.2317 N   0  0  0  0  0  0  0  0  0  0  0  0
    7.7715   -1.4410   23.0060 N   0  0  0  0  0  0  0  0  0  0  0  0
    7.8055   -1.8021   24.3438 C   0  0  0  0  0  0  0  0  0  0  0  0
    6.8717   -1.3749   25.2669 N   0  0  0  0  0  0  0  0  0  0  0  0
    6.0388   -0.9689   24.8558 H   0  0  0  0  0  0  0  0  0  0  0  0
    6.7876   -2.0015   26.5859 C   0  0  0  0  0  0  0  0  0  0  0  0
    6.0747   -1.4435   27.2022 H   0  0  0  0  0  0  0  0  0  0  0  0
    7.7667   -1.9013   27.0707 H   0  0  0  0  0  0  0  0  0  0  0  0
    6.4072   -3.4947   26.5791 C   0  0  0  0  0  0  0  0  0  0  0  0
    7.0695   -4.0107   25.8627 H   0  0  0  0  0  0  0  0  0  0  0  0
    5.3991   -3.5879   26.1627 H   0  0  0  0  0  0  0  0  0  0  0  0
    6.3692   -4.0826   27.9250 N   0  0  0  0  0  0  0  0  0  0  0  0
    7.2830   -4.1032   28.3787 H   0  0  0  0  0  0  0  0  0  0  0  0
    6.0714   -5.0486   27.8489 H   0  0  0  0  0  0  0  0  0  0  0  0
    8.9579   -2.5560   24.4420 C   0  0  0  0  0  0  0  0  0  0  0  0
    9.3309   -3.0239   25.3436 H   0  0  0  0  0  0  0  0  0  0  0  0
    9.6276   -2.6682   23.2357 N   0  0  0  0  0  0  0  0  0  0  0  0
    8.8804   -1.9721   22.4187 C   0  0  0  0  0  0  0  0  0  0  0  0
    8.9031   -1.5102   20.7509 S   0  0  0  0  0  0  0  0  0  0  0  0
    5.4016    0.6701   20.1518 C   0  0  0  0  0  0  0  0  0  0  0  0
    4.9540    0.6868   21.1459 H   0  0  0  0  0  0  0  0  0  0  0  0
    4.7952    1.3163   19.0764 C   0  0  0  0  0  0  0  0  0  0  0  0
    3.8603    1.8531   19.1978 H   0  0  0  0  0  0  0  0  0  0  0  0
  1  2  1  0
  2  3  2  0
  3  4  1  0
  4  5  1  0
  4  6  2  0
  6  7  1  0
  7  8  2  0
  8  9  1  0
  9 10  1  0
 10 11  1  0
 11 12  1  0
 11 13  1  0
 13 14  1  0
 13 15  1  0
 13 16  1  0
 16 17  1  0
 16 18  1  0
 16 19  1  0
 19 20  1  0
 19 21  1  0
 10 22  2  0
 22 23  1  0
 22 24  1  0
 24 25  2  0
 25 26  1  0
  6 27  1  0
 27 28  1  0
 27 29  2  0
 29 30  1  0
 29  2  1  0
 26  7  1  0
 25  9  1  0
M  END
>  <cnnaffinity>  (1) 
-4.68652

>  <filename>  (1) 
NCCNc1cnc2sc(-c3cccnc3)nn12

$$$$
