
     RDKit          3D

 30 31  0  0  0  0  0  0  0  0999 V2000
    4.9671    1.8042   16.9106 H   0  0  0  0  0  0  0  0  0  0  0  0
    5.4051    1.2915   17.7657 C   0  0  0  0  0  0  0  0  0  0  0  0
    6.5720    0.6616   17.5577 N   0  0  0  0  0  0  0  0  0  0  0  0
    7.1553    0.0751   18.6188 C   0  0  0  0  0  0  0  0  0  0  0  0
    8.1041   -0.4168   18.4104 H   0  0  0  0  0  0  0  0  0  0  0  0
    6.6119    0.0625   19.9374 C   0  0  0  0  0  0  0  0  0  0  0  0
    7.2543   -0.4660   21.0920 N   0  0  0  0  0  0  0  0  0  0  0  0
    6.6191   -1.5896   21.7987 C   0  0  0  0  0  0  0  0  0  0  0  0
    5.5372   -1.4997   21.6681 H   0  0  0  0  0  0  0  0  0  0  0  0
    6.8329   -1.5253   22.8798 H   0  0  0  0  0  0  0  0  0  0  0  0
    6.9879   -3.0005   21.2679 C   0  0  0  0  0  0  0  0  0  0  0  0
    6.1962   -3.7013   21.5685 H   0  0  0  0  0  0  0  0  0  0  0  0
    6.9638   -2.9308   20.1745 H   0  0  0  0  0  0  0  0  0  0  0  0
    8.2890   -3.5713   21.6588 N   0  0  0  0  0  0  0  0  0  0  0  0
    8.1463   -4.6243   22.5891 N   0  0  0  0  0  0  0  0  0  0  0  0
    8.9847   -5.2027   22.5458 H   0  0  0  0  0  0  0  0  0  0  0  0
    8.0729   -4.2664   23.5455 H   0  0  0  0  0  0  0  0  0  0  0  0
    9.3278   -2.6045   22.0411 C   0  0  0  0  0  0  0  0  0  0  0  0
    9.0787   -2.1666   23.0273 H   0  0  0  0  0  0  0  0  0  0  0  0
   10.2562   -3.1608   22.2154 H   0  0  0  0  0  0  0  0  0  0  0  0
    9.5485   -1.4910   21.0109 C   0  0  0  0  0  0  0  0  0  0  0  0
    9.3122   -1.8769   20.0142 H   0  0  0  0  0  0  0  0  0  0  0  0
   10.6028   -1.1893   20.9982 H   0  0  0  0  0  0  0  0  0  0  0  0
    8.6846   -0.2558   21.2914 C   0  0  0  0  0  0  0  0  0  0  0  0
    9.0041    0.5857   20.6618 H   0  0  0  0  0  0  0  0  0  0  0  0
    8.8599    0.0623   22.3348 H   0  0  0  0  0  0  0  0  0  0  0  0
    5.3573    0.6755   20.0972 C   0  0  0  0  0  0  0  0  0  0  0  0
    4.9119    0.6841   21.0939 H   0  0  0  0  0  0  0  0  0  0  0  0
    4.7598    1.3112   19.0068 C   0  0  0  0  0  0  0  0  0  0  0  0
    3.8153    1.8326   19.1204 H   0  0  0  0  0  0  0  0  0  0  0  0
  1  2  1  0
  2  3  2  0
  3  4  1  0
  4  5  1  0
  4  6  2  0
  6  7  1  0
  7  8  1  0
  8  9  1  0
  8 10  1  0
  8 11  1  0
 11 12  1  0
 11 13  1  0
 11 14  1  0
 14 15  1  0
 15 16  1  0
 15 17  1  0
 14 18  1  0
 18 19  1  0
 18 20  1  0
 18 21  1  0
 21 22  1  0
 21 23  1  0
 21 24  1  0
 24 25  1  0
 24 26  1  0
  6 27  1  0
 27 28  1  0
 27 29  2  0
 29 30  1  0
 29  2  1  0
 24  7  1  0
M  END
>  <cnnaffinity>  (1) 
-4.46179

>  <filename>  (1) 
NN1CCCN(c2cccnc2)CC1

$$$$
