
     RDKit          3D

 24 26  0  0  0  0  0  0  0  0999 V2000
    5.0343    1.7833   16.8308 H   0  0  0  0  0  0  0  0  0  0  0  0
    5.5084    1.3318   17.7017 C   0  0  0  0  0  0  0  0  0  0  0  0
    6.6873    0.7249   17.4841 N   0  0  0  0  0  0  0  0  0  0  0  0
    7.2798    0.1359   18.5288 C   0  0  0  0  0  0  0  0  0  0  0  0
    8.2344   -0.3448   18.3229 H   0  0  0  0  0  0  0  0  0  0  0  0
    6.7303    0.0982   19.8266 C   0  0  0  0  0  0  0  0  0  0  0  0
    7.3509   -0.7079   20.8983 C   0  0  0  0  0  0  0  0  0  0  0  0
    8.5187   -1.3360   20.6832 N   0  0  0  0  0  0  0  0  0  0  0  0
    8.7177   -2.0064   21.8340 N   0  0  0  0  0  0  0  0  0  0  0  0
    9.7424   -2.7931   22.3408 C   0  0  0  0  0  0  0  0  0  0  0  0
   10.6734   -2.8938   21.8149 H   0  0  0  0  0  0  0  0  0  0  0  0
    9.3006   -3.2259   23.5498 C   0  0  0  0  0  0  0  0  0  0  0  0
    9.7206   -3.8408   24.3314 H   0  0  0  0  0  0  0  0  0  0  0  0
    8.0499   -2.7078   23.7813 N   0  0  0  0  0  0  0  0  0  0  0  0
    7.2969   -3.0899   24.9050 N   0  0  0  0  0  0  0  0  0  0  0  0
    7.1300   -4.0945   24.8307 H   0  0  0  0  0  0  0  0  0  0  0  0
    6.3860   -2.6488   24.7974 H   0  0  0  0  0  0  0  0  0  0  0  0
    7.7087   -1.8925   22.7283 C   0  0  0  0  0  0  0  0  0  0  0  0
    6.8118   -0.9761   22.1842 C   0  0  0  0  0  0  0  0  0  0  0  0
    5.9871   -0.5142   22.6916 H   0  0  0  0  0  0  0  0  0  0  0  0
    5.5183    0.7796   20.0401 C   0  0  0  0  0  0  0  0  0  0  0  0
    5.0645    0.8243   21.0320 H   0  0  0  0  0  0  0  0  0  0  0  0
    4.8935    1.3933   18.9565 C   0  0  0  0  0  0  0  0  0  0  0  0
    3.9471    1.9178   19.0659 H   0  0  0  0  0  0  0  0  0  0  0  0
  1  2  1  0
  2  3  2  0
  3  4  1  0
  4  5  1  0
  4  6  2  0
  6  7  1  0
  7  8  2  0
  8  9  1  0
  9 10  1  0
 10 11  1  0
 10 12  2  0
 12 13  1  0
 12 14  1  0
 14 15  1  0
 15 16  1  0
 15 17  1  0
 14 18  1  0
 18 19  2  0
 19 20  1  0
  6 21  1  0
 21 22  1  0
 21 23  2  0
 23 24  1  0
 23  2  1  0
 19  7  1  0
 18  9  1  0
M  END
>  <cnnaffinity>  (1) 
-4.64289

>  <filename>  (1) 
Nn1ccn2nc(-c3cccnc3)cc12

$$$$
