
     RDKit          3D

 25 26  0  0  0  0  0  0  0  0999 V2000
    4.9346    1.8021   17.0019 H   0  0  0  0  0  0  0  0  0  0  0  0
    5.3994    1.2848   17.8381 C   0  0  0  0  0  0  0  0  0  0  0  0
    6.5545    0.6517   17.5746 N   0  0  0  0  0  0  0  0  0  0  0  0
    7.1751    0.0317   18.5865 C   0  0  0  0  0  0  0  0  0  0  0  0
    8.1264   -0.4466   18.3596 H   0  0  0  0  0  0  0  0  0  0  0  0
    6.6593   -0.0130   19.8999 C   0  0  0  0  0  0  0  0  0  0  0  0
    7.3458   -0.6900   20.9660 N   0  0  0  0  0  0  0  0  0  0  0  0
    6.7755   -1.6130   21.8255 C   0  0  0  0  0  0  0  0  0  0  0  0
    5.7214   -1.8590   21.7552 H   0  0  0  0  0  0  0  0  0  0  0  0
    7.7281   -2.0680   22.6809 C   0  0  0  0  0  0  0  0  0  0  0  0
    7.4302   -3.0562   23.7749 C   0  0  0  0  0  0  0  0  0  0  0  0
    6.2963   -3.4800   23.9191 O   0  0  0  0  0  0  0  0  0  0  0  0
    8.4862   -3.4336   24.5703 N   0  0  0  0  0  0  0  0  0  0  0  0
    9.3883   -3.0475   24.3411 H   0  0  0  0  0  0  0  0  0  0  0  0
    8.4624   -4.3288   25.6633 N   0  0  0  0  0  0  0  0  0  0  0  0
    7.8250   -3.9987   26.3943 H   0  0  0  0  0  0  0  0  0  0  0  0
    8.1127   -5.2482   25.3774 H   0  0  0  0  0  0  0  0  0  0  0  0
    8.8971   -1.3767   22.3136 N   0  0  0  0  0  0  0  0  0  0  0  0
    9.8447   -1.3308   22.6644 H   0  0  0  0  0  0  0  0  0  0  0  0
    8.6658   -0.4902   21.3164 C   0  0  0  0  0  0  0  0  0  0  0  0
    9.7822    0.6073   20.7707 S   0  0  0  0  0  0  0  0  0  0  0  0
    5.4464    0.6380   20.1551 C   0  0  0  0  0  0  0  0  0  0  0  0
    5.0399    0.6346   21.1683 H   0  0  0  0  0  0  0  0  0  0  0  0
    4.8027    1.3052   19.1050 C   0  0  0  0  0  0  0  0  0  0  0  0
    3.8719    1.8493   19.2607 H   0  0  0  0  0  0  0  0  0  0  0  0
  1  2  1  0
  2  3  2  0
  3  4  1  0
  4  5  1  0
  4  6  2  0
  6  7  1  0
  7  8  1  0
  8  9  1  0
  8 10  2  0
 10 11  1  0
 11 12  2  0
 11 13  1  0
 13 14  1  0
 13 15  1  0
 15 16  1  0
 15 17  1  0
 10 18  1  0
 18 19  1  0
 18 20  1  0
 20 21  2  0
  6 22  1  0
 22 23  1  0
 22 24  2  0
 24 25  1  0
 24  2  1  0
 20  7  1  0
M  END
>  <cnnaffinity>  (1) 
-4.69644

>  <filename>  (1) 
NNC(=O)c1cn(-c2cccnc2)c(=S)[nH]1

$$$$
