
     RDKit          3D

 25 26  0  0  0  0  0  0  0  0999 V2000
    4.9637    1.8163   16.9112 H   0  0  0  0  0  0  0  0  0  0  0  0
    5.4152    1.2981   17.7569 C   0  0  0  0  0  0  0  0  0  0  0  0
    6.5763    0.6639   17.5256 N   0  0  0  0  0  0  0  0  0  0  0  0
    7.1672    0.0565   18.5657 C   0  0  0  0  0  0  0  0  0  0  0  0
    8.1144   -0.4299   18.3445 H   0  0  0  0  0  0  0  0  0  0  0  0
    6.6426    0.0465   19.8739 C   0  0  0  0  0  0  0  0  0  0  0  0
    7.3356   -0.5239   21.0327 C   0  0  0  0  0  0  0  0  0  0  0  0
    7.1582   -0.2400   22.3398 C   0  0  0  0  0  0  0  0  0  0  0  0
    6.5171    0.4923   22.8145 H   0  0  0  0  0  0  0  0  0  0  0  0
    7.9807   -1.0967   23.0803 N   0  0  0  0  0  0  0  0  0  0  0  0
    7.9088   -1.2340   24.4996 C   0  0  0  0  0  0  0  0  0  0  0  0
    6.8628   -1.0360   25.0738 O   0  0  0  0  0  0  0  0  0  0  0  0
    9.1155   -1.5324   25.0815 N   0  0  0  0  0  0  0  0  0  0  0  0
    9.7897   -1.8974   24.4138 H   0  0  0  0  0  0  0  0  0  0  0  0
    9.3591   -1.8816   26.4360 N   0  0  0  0  0  0  0  0  0  0  0  0
    8.8171   -2.6943   26.7348 H   0  0  0  0  0  0  0  0  0  0  0  0
    9.1596   -1.1137   27.0804 H   0  0  0  0  0  0  0  0  0  0  0  0
    8.6196   -1.9552   22.2278 C   0  0  0  0  0  0  0  0  0  0  0  0
    9.5520   -3.2747   22.5679 S   0  0  0  0  0  0  0  0  0  0  0  0
    8.2692   -1.5545   20.9866 N   0  0  0  0  0  0  0  0  0  0  0  0
    8.4506   -2.2075   20.2389 H   0  0  0  0  0  0  0  0  0  0  0  0
    5.4030    0.6773   20.0769 C   0  0  0  0  0  0  0  0  0  0  0  0
    4.9339    0.6643   21.0638 H   0  0  0  0  0  0  0  0  0  0  0  0
    4.7839    1.3179   19.0072 C   0  0  0  0  0  0  0  0  0  0  0  0
    3.8510    1.8565   19.1356 H   0  0  0  0  0  0  0  0  0  0  0  0
  1  2  1  0
  2  3  2  0
  3  4  1  0
  4  5  1  0
  4  6  2  0
  6  7  1  0
  7  8  2  0
  8  9  1  0
  8 10  1  0
 10 11  1  0
 11 12  2  0
 11 13  1  0
 13 14  1  0
 13 15  1  0
 15 16  1  0
 15 17  1  0
 10 18  1  0
 18 19  2  0
 18 20  1  0
 20 21  1  0
  6 22  1  0
 22 23  1  0
 22 24  2  0
 24 25  1  0
 24  2  1  0
 20  7  1  0
M  END
>  <cnnaffinity>  (1) 
-4.75418

>  <filename>  (1) 
NNC(=O)n1cc(-c2cccnc2)[nH]c1=S

$$$$
