
     RDKit          3D

 25 27  0  0  0  0  0  0  0  0999 V2000
    4.9394    1.8037   16.9735 H   0  0  0  0  0  0  0  0  0  0  0  0
    5.3944    1.2928   17.8210 C   0  0  0  0  0  0  0  0  0  0  0  0
    6.5540    0.6628   17.5718 N   0  0  0  0  0  0  0  0  0  0  0  0
    7.1563    0.0412   18.5891 C   0  0  0  0  0  0  0  0  0  0  0  0
    8.1020   -0.4500   18.3656 H   0  0  0  0  0  0  0  0  0  0  0  0
    6.6489    0.0283   19.8971 C   0  0  0  0  0  0  0  0  0  0  0  0
    7.3845   -0.6417   20.9594 C   0  0  0  0  0  0  0  0  0  0  0  0
    7.9531   -1.8848   20.7532 N   0  0  0  0  0  0  0  0  0  0  0  0
    8.3642   -2.2343   21.9402 C   0  0  0  0  0  0  0  0  0  0  0  0
    9.1601   -3.6257   22.6048 S   0  0  0  0  0  0  0  0  0  0  0  0
    9.3144   -2.8250   24.1526 C   0  0  0  0  0  0  0  0  0  0  0  0
    9.8552   -3.3197   24.9495 H   0  0  0  0  0  0  0  0  0  0  0  0
    8.7208   -1.6211   24.1689 C   0  0  0  0  0  0  0  0  0  0  0  0
    8.6283   -0.9364   25.0055 H   0  0  0  0  0  0  0  0  0  0  0  0
    8.1597   -1.3005   22.9271 N   0  0  0  0  0  0  0  0  0  0  0  0
    7.5369   -0.2433   22.2940 C   0  0  0  0  0  0  0  0  0  0  0  0
    7.2263    0.8990   22.9641 N   0  0  0  0  0  0  0  0  0  0  0  0
    7.3715    0.8576   23.9736 H   0  0  0  0  0  0  0  0  0  0  0  0
    7.1833    2.0678   22.2179 N   0  0  0  0  0  0  0  0  0  0  0  0
    8.0696    2.5664   22.1636 H   0  0  0  0  0  0  0  0  0  0  0  0
    6.4352    2.7004   22.4862 H   0  0  0  0  0  0  0  0  0  0  0  0
    5.4187    0.6648   20.1370 C   0  0  0  0  0  0  0  0  0  0  0  0
    4.9926    0.6570   21.1410 H   0  0  0  0  0  0  0  0  0  0  0  0
    4.7851    1.3112   19.0793 C   0  0  0  0  0  0  0  0  0  0  0  0
    3.8544    1.8476   19.2212 H   0  0  0  0  0  0  0  0  0  0  0  0
  1  2  1  0
  2  3  2  0
  3  4  1  0
  4  5  1  0
  4  6  2  0
  6  7  1  0
  7  8  1  0
  8  9  2  0
  9 10  1  0
 10 11  1  0
 11 12  1  0
 11 13  2  0
 13 14  1  0
 13 15  1  0
 15 16  1  0
 16 17  1  0
 17 18  1  0
 17 19  1  0
 19 20  1  0
 19 21  1  0
  6 22  1  0
 22 23  1  0
 22 24  2  0
 24 25  1  0
 24  2  1  0
 16  7  2  0
 15  9  1  0
M  END
>  <cnnaffinity>  (1) 
-4.6644

>  <filename>  (1) 
NNc1c(-c2cccnc2)nc2sccn12

$$$$
