
     RDKit          3D

 21 21  0  0  0  0  0  0  0  0999 V2000
    5.0266    1.7404   17.0277 H   0  0  0  0  0  0  0  0  0  0  0  0
    5.4448    1.2180   17.8879 C   0  0  0  0  0  0  0  0  0  0  0  0
    6.5975    0.5669   17.6779 N   0  0  0  0  0  0  0  0  0  0  0  0
    7.1599   -0.0455   18.7233 C   0  0  0  0  0  0  0  0  0  0  0  0
    8.1182   -0.5290   18.5378 H   0  0  0  0  0  0  0  0  0  0  0  0
    6.6122   -0.0493   20.0094 C   0  0  0  0  0  0  0  0  0  0  0  0
    7.3479   -0.7723   21.0853 C   0  0  0  0  0  0  0  0  0  0  0  0
    8.6376   -0.9600   20.7359 F   0  0  0  0  0  0  0  0  0  0  0  0
    7.3265   -0.0902   22.2579 F   0  0  0  0  0  0  0  0  0  0  0  0
    6.7142   -2.0285   21.2681 N   0  0  0  0  0  0  0  0  0  0  0  0
    6.8429   -2.6080   20.4580 H   0  0  0  0  0  0  0  0  0  0  0  0
    7.4874   -3.0105   22.3326 S   0  0  0  0  0  0  0  0  0  0  0  0
    8.8581   -2.6722   22.5802 O   0  0  0  0  0  0  0  0  0  0  0  0
    7.0670   -4.2995   21.8616 O   0  0  0  0  0  0  0  0  0  0  0  0
    6.6247   -2.3872   23.5672 N   0  0  0  0  0  0  0  0  0  0  0  0
    7.2467   -1.5963   23.6948 H   0  0  0  0  0  0  0  0  0  0  0  0
    5.8490   -2.0162   23.0188 H   0  0  0  0  0  0  0  0  0  0  0  0
    5.3989    0.6198   20.2231 C   0  0  0  0  0  0  0  0  0  0  0  0
    4.9274    0.6396   21.2069 H   0  0  0  0  0  0  0  0  0  0  0  0
    4.8125    1.2703   19.1360 C   0  0  0  0  0  0  0  0  0  0  0  0
    3.8901    1.8297   19.2401 H   0  0  0  0  0  0  0  0  0  0  0  0
  1  2  1  0
  2  3  2  0
  3  4  1  0
  4  5  1  0
  4  6  2  0
  6  7  1  0
  7  8  1  0
  7  9  1  0
  7 10  1  0
 10 11  1  0
 10 12  1  0
 12 13  2  0
 12 14  2  0
 12 15  1  0
 15 16  1  0
 15 17  1  0
  6 18  1  0
 18 19  1  0
 18 20  2  0
 20 21  1  0
 20  2  1  0
M  END
>  <cnnaffinity>  (1) 
-4.37544

>  <filename>  (1) 
NS(=O)(=O)NC(F)(F)c1cccnc1

$$$$
