
     RDKit          3D

 40 42  0  0  0  0  0  0  0  0999 V2000
    6.5191    4.8238   26.4118 N   0  0  0  0  0  0  0  0  0  0  0  0
    5.4628    3.6535   26.9283 S   0  0  0  0  0  0  0  0  0  0  0  0
    4.2205    4.3552   27.1733 O   0  0  0  0  0  0  0  0  0  0  0  0
    6.2170    2.9980   27.9886 O   0  0  0  0  0  0  0  0  0  0  0  0
    5.3566    2.5932   25.5085 C   0  0  0  0  0  0  0  0  0  0  0  0
    4.3757    1.4124   25.7376 C   0  0  0  0  0  0  0  0  0  0  0  0
    5.1557    0.1618   26.1584 C   0  0  0  0  0  0  0  0  0  0  0  0
    6.2516   -0.2480   25.1428 C   0  0  0  0  0  0  0  0  0  0  0  0
    6.7394    0.9125   24.3885 N   0  0  0  0  0  0  0  0  0  0  0  0
    7.0848    0.9321   23.0518 C   0  0  0  0  0  0  0  0  0  0  0  0
    7.0994    1.9759   22.4128 O   0  0  0  0  0  0  0  0  0  0  0  0
    7.4800   -0.3459   22.4368 C   0  0  0  0  0  0  0  0  0  0  0  0
    8.2153   -1.3957   22.9710 C   0  0  0  0  0  0  0  0  0  0  0  0
    8.5269   -2.1773   21.9198 N   0  0  0  0  0  0  0  0  0  0  0  0
    8.0407   -1.7328   20.7579 N   0  0  0  0  0  0  0  0  0  0  0  0
    7.3642   -0.6285   21.0499 C   0  0  0  0  0  0  0  0  0  0  0  0
    6.6194    0.0720   20.0014 C   0  0  0  0  0  0  0  0  0  0  0  0
    5.3901    0.7244   20.1844 C   0  0  0  0  0  0  0  0  0  0  0  0
    4.7940    1.3322   19.0789 C   0  0  0  0  0  0  0  0  0  0  0  0
    5.4483    1.2783   17.8446 C   0  0  0  0  0  0  0  0  0  0  0  0
    6.6075    0.6349   17.6485 N   0  0  0  0  0  0  0  0  0  0  0  0
    7.1604    0.0376   18.7057 C   0  0  0  0  0  0  0  0  0  0  0  0
    8.0832   -0.5078   18.5229 H   0  0  0  0  0  0  0  0  0  0  0  0
    5.0148    1.7557   16.9687 H   0  0  0  0  0  0  0  0  0  0  0  0
    3.8465    1.8512   19.1599 H   0  0  0  0  0  0  0  0  0  0  0  0
    4.9139    0.7676   21.1647 H   0  0  0  0  0  0  0  0  0  0  0  0
    9.0740   -3.0216   21.9181 H   0  0  0  0  0  0  0  0  0  0  0  0
    8.5496   -1.6246   23.9802 H   0  0  0  0  0  0  0  0  0  0  0  0
    6.7923    2.1402   25.1515 C   0  0  0  0  0  0  0  0  0  0  0  0
    7.2816    2.9080   24.5467 H   0  0  0  0  0  0  0  0  0  0  0  0
    7.4017    1.9460   26.0486 H   0  0  0  0  0  0  0  0  0  0  0  0
    5.8878   -0.9978   24.4363 H   0  0  0  0  0  0  0  0  0  0  0  0
    7.0745   -0.7144   25.7059 H   0  0  0  0  0  0  0  0  0  0  0  0
    5.6521    0.3792   27.1113 H   0  0  0  0  0  0  0  0  0  0  0  0
    4.4791   -0.6788   26.3326 H   0  0  0  0  0  0  0  0  0  0  0  0
    3.6228    1.6739   26.4888 H   0  0  0  0  0  0  0  0  0  0  0  0
    3.8235    1.2249   24.8085 H   0  0  0  0  0  0  0  0  0  0  0  0
    4.9891    3.2536   24.7199 H   0  0  0  0  0  0  0  0  0  0  0  0
    6.0810    5.6245   26.8521 H   0  0  0  0  0  0  0  0  0  0  0  0
    7.2969    4.5289   26.9945 H   0  0  0  0  0  0  0  0  0  0  0  0
  1  2  1  0
  2  3  2  0
  2  4  2  0
  2  5  1  0
  5  6  1  0
  6  7  1  0
  7  8  1  0
  8  9  1  0
  9 10  1  0
 10 11  2  0
 10 12  1  0
 12 13  2  0
 13 14  1  0
 14 15  1  0
 15 16  2  0
 16 17  1  0
 17 18  2  0
 18 19  1  0
 19 20  2  0
 20 21  1  0
 21 22  2  0
 22 23  1  0
 20 24  1  0
 19 25  1  0
 18 26  1  0
 14 27  1  0
 13 28  1  0
  9 29  1  0
 29 30  1  0
 29 31  1  0
  8 32  1  0
  8 33  1  0
  7 34  1  0
  7 35  1  0
  6 36  1  0
  6 37  1  0
  5 38  1  0
  1 39  1  0
  1 40  1  0
 29  5  1  0
 16 12  1  0
 22 17  1  0
M  END
>  <cnnaffinity>  (1) 
-5.13889

>  <filename>  (1) 
NS(=O)(=O)C1CCCN(C(=O)c2c[nH]nc2-c2cccnc2)C1

$$$$
