
     RDKit          3D

 24 25  0  0  0  0  0  0  0  0999 V2000
    5.0715    1.9158   17.0174 H   0  0  0  0  0  0  0  0  0  0  0  0
    5.5396    1.3210   17.8002 C   0  0  0  0  0  0  0  0  0  0  0  0
    6.6832    0.7004   17.4701 N   0  0  0  0  0  0  0  0  0  0  0  0
    7.2919   -0.0413   18.4064 C   0  0  0  0  0  0  0  0  0  0  0  0
    8.2193   -0.5409   18.1248 H   0  0  0  0  0  0  0  0  0  0  0  0
    6.7789   -0.1955   19.7079 C   0  0  0  0  0  0  0  0  0  0  0  0
    7.4623   -0.9387   20.7302 N   0  0  0  0  0  0  0  0  0  0  0  0
    8.6308   -0.5056   21.3481 C   0  0  0  0  0  0  0  0  0  0  0  0
    9.1698    0.3430   20.9460 H   0  0  0  0  0  0  0  0  0  0  0  0
    8.8684   -1.2993   22.4116 C   0  0  0  0  0  0  0  0  0  0  0  0
   10.4263   -1.3322   23.2981 S   0  0  0  0  0  0  0  0  0  0  0  0
   11.1703   -0.1169   23.0382 O   0  0  0  0  0  0  0  0  0  0  0  0
   10.2191   -1.9034   24.6096 O   0  0  0  0  0  0  0  0  0  0  0  0
   11.2721   -2.4730   22.4741 N   0  0  0  0  0  0  0  0  0  0  0  0
   12.1881   -2.0431   22.5016 H   0  0  0  0  0  0  0  0  0  0  0  0
   11.2088   -3.2502   23.1160 H   0  0  0  0  0  0  0  0  0  0  0  0
    7.7577   -2.1757   22.4792 N   0  0  0  0  0  0  0  0  0  0  0  0
    7.4961   -2.8751   23.1646 H   0  0  0  0  0  0  0  0  0  0  0  0
    6.8943   -1.9753   21.4480 C   0  0  0  0  0  0  0  0  0  0  0  0
    5.5219   -2.8679   21.1875 S   0  0  0  0  0  0  0  0  0  0  0  0
    5.5759    0.4320   20.0383 C   0  0  0  0  0  0  0  0  0  0  0  0
    5.1577    0.3057   21.0392 H   0  0  0  0  0  0  0  0  0  0  0  0
    4.9553    1.2210   19.0667 C   0  0  0  0  0  0  0  0  0  0  0  0
    4.0379    1.7529   19.2786 H   0  0  0  0  0  0  0  0  0  0  0  0
  1  2  1  0
  2  3  2  0
  3  4  1  0
  4  5  1  0
  4  6  2  0
  6  7  1  0
  7  8  1  0
  8  9  1  0
  8 10  2  0
 10 11  1  0
 11 12  2  0
 11 13  2  0
 11 14  1  0
 14 15  1  0
 14 16  1  0
 10 17  1  0
 17 18  1  0
 17 19  1  0
 19 20  2  0
  6 21  1  0
 21 22  1  0
 21 23  2  0
 23 24  1  0
 23  2  1  0
 19  7  1  0
M  END
>  <cnnaffinity>  (1) 
-4.81954

>  <filename>  (1) 
NS(=O)(=O)c1cn(-c2cccnc2)c(=S)[nH]1

$$$$
