
     RDKit          3D

 35 37  0  0  0  0  0  0  0  0999 V2000
    4.9414    1.8175   16.9952 H   0  0  0  0  0  0  0  0  0  0  0  0
    5.3886    1.2903   17.8344 C   0  0  0  0  0  0  0  0  0  0  0  0
    6.5413    0.6531   17.5801 N   0  0  0  0  0  0  0  0  0  0  0  0
    7.1312    0.0293   18.6021 C   0  0  0  0  0  0  0  0  0  0  0  0
    8.0974   -0.4312   18.3985 H   0  0  0  0  0  0  0  0  0  0  0  0
    6.5919   -0.0361   19.9015 C   0  0  0  0  0  0  0  0  0  0  0  0
    7.3091   -0.7605   20.9960 C   0  0  0  0  0  0  0  0  0  0  0  0
    6.5671   -1.5276   21.7579 N   0  0  0  0  0  0  0  0  0  0  0  0
    7.1437   -2.1973   22.8139 N   0  0  0  0  0  0  0  0  0  0  0  0
    6.2808   -2.9971   23.6353 C   0  0  0  0  0  0  0  0  0  0  0  0
    5.2050   -3.6776   23.0498 C   0  0  0  0  0  0  0  0  0  0  0  0
    5.0366   -3.5284   21.9902 H   0  0  0  0  0  0  0  0  0  0  0  0
    4.3790   -4.4799   23.8298 C   0  0  0  0  0  0  0  0  0  0  0  0
    3.5572   -5.0179   23.3622 H   0  0  0  0  0  0  0  0  0  0  0  0
    4.6149   -4.5795   25.2097 C   0  0  0  0  0  0  0  0  0  0  0  0
    3.5067   -5.5547   26.1782 S   0  0  0  0  0  0  0  0  0  0  0  0
    3.1612   -6.7620   25.4460 O   0  0  0  0  0  0  0  0  0  0  0  0
    2.5100   -4.7841   26.8830 O   0  0  0  0  0  0  0  0  0  0  0  0
    4.4756   -6.1886   27.3544 N   0  0  0  0  0  0  0  0  0  0  0  0
    3.6788   -6.6368   27.7987 H   0  0  0  0  0  0  0  0  0  0  0  0
    4.8859   -6.9321   26.7995 H   0  0  0  0  0  0  0  0  0  0  0  0
    5.6803   -3.8943   25.8094 C   0  0  0  0  0  0  0  0  0  0  0  0
    5.8839   -3.9755   26.8756 H   0  0  0  0  0  0  0  0  0  0  0  0
    6.5136   -3.1107   25.0187 C   0  0  0  0  0  0  0  0  0  0  0  0
    7.3202   -2.5514   25.4784 H   0  0  0  0  0  0  0  0  0  0  0  0
    8.5031   -2.1432   23.0435 C   0  0  0  0  0  0  0  0  0  0  0  0
    8.8743   -2.7651   23.8597 H   0  0  0  0  0  0  0  0  0  0  0  0
    9.3322   -1.3930   22.2965 C   0  0  0  0  0  0  0  0  0  0  0  0
   10.3964   -1.3301   22.4790 H   0  0  0  0  0  0  0  0  0  0  0  0
    8.8043   -0.5858   21.2006 C   0  0  0  0  0  0  0  0  0  0  0  0
    9.5250    0.1438   20.5303 O   0  0  0  0  0  0  0  0  0  0  0  0
    5.3789    0.6245   20.1453 C   0  0  0  0  0  0  0  0  0  0  0  0
    4.9520    0.6018   21.1487 H   0  0  0  0  0  0  0  0  0  0  0  0
    4.7739    1.3107   19.0909 C   0  0  0  0  0  0  0  0  0  0  0  0
    3.8570    1.8755   19.2298 H   0  0  0  0  0  0  0  0  0  0  0  0
  1  2  1  0
  2  3  2  0
  3  4  1  0
  4  5  1  0
  4  6  2  0
  6  7  1  0
  7  8  2  0
  8  9  1  0
  9 10  1  0
 10 11  2  0
 11 12  1  0
 11 13  1  0
 13 14  1  0
 13 15  2  0
 15 16  1  0
 16 17  2  0
 16 18  2  0
 16 19  1  0
 19 20  1  0
 19 21  1  0
 15 22  1  0
 22 23  1  0
 22 24  2  0
 24 25  1  0
  9 26  1  0
 26 27  1  0
 26 28  2  0
 28 29  1  0
 28 30  1  0
 30 31  2  0
  6 32  1  0
 32 33  1  0
 32 34  2  0
 34 35  1  0
 34  2  1  0
 30  7  1  0
 24 10  1  0
M  END
>  <cnnaffinity>  (1) 
-5.43165

>  <filename>  (1) 
NS(=O)(=O)c1ccc(-n2ccc(=O)c(-c3cccnc3)n2)cc1

$$$$
