
     RDKit          3D

 31 33  0  0  0  0  0  0  0  0999 V2000
    4.9260    1.8055   16.9888 H   0  0  0  0  0  0  0  0  0  0  0  0
    5.3942    1.2971   17.8304 C   0  0  0  0  0  0  0  0  0  0  0  0
    6.5590    0.6820   17.5689 N   0  0  0  0  0  0  0  0  0  0  0  0
    7.1694    0.0554   18.5805 C   0  0  0  0  0  0  0  0  0  0  0  0
    8.1235   -0.4104   18.3379 H   0  0  0  0  0  0  0  0  0  0  0  0
    6.6632   -0.0063   19.9037 C   0  0  0  0  0  0  0  0  0  0  0  0
    7.3706   -0.7065   21.0033 C   0  0  0  0  0  0  0  0  0  0  0  0
    8.0712   -2.2491   20.8524 S   0  0  0  0  0  0  0  0  0  0  0  0
    8.4801   -2.3524   22.4783 N   0  0  0  0  0  0  0  0  0  0  0  0
    8.1332   -1.3052   23.1104 N   0  0  0  0  0  0  0  0  0  0  0  0
    7.5284   -0.3450   22.3415 C   0  0  0  0  0  0  0  0  0  0  0  0
    7.1469    0.9349   22.9573 C   0  0  0  0  0  0  0  0  0  0  0  0
    6.5600    0.9534   24.2305 C   0  0  0  0  0  0  0  0  0  0  0  0
    6.4225    0.0133   24.7526 H   0  0  0  0  0  0  0  0  0  0  0  0
    6.1708    2.1485   24.8205 C   0  0  0  0  0  0  0  0  0  0  0  0
    5.7473    2.1274   25.8244 H   0  0  0  0  0  0  0  0  0  0  0  0
    6.3788    3.3526   24.1305 C   0  0  0  0  0  0  0  0  0  0  0  0
    5.9315    4.8642   24.9001 S   0  0  0  0  0  0  0  0  0  0  0  0
    5.8133    4.7474   26.3340 O   0  0  0  0  0  0  0  0  0  0  0  0
    6.6592    5.9559   24.2815 O   0  0  0  0  0  0  0  0  0  0  0  0
    4.3901    5.1517   24.3839 N   0  0  0  0  0  0  0  0  0  0  0  0
    4.6232    5.3855   23.4233 H   0  0  0  0  0  0  0  0  0  0  0  0
    4.3709    6.0377   24.8891 H   0  0  0  0  0  0  0  0  0  0  0  0
    6.9743    3.3602   22.8547 C   0  0  0  0  0  0  0  0  0  0  0  0
    7.1752    4.2800   22.3051 H   0  0  0  0  0  0  0  0  0  0  0  0
    7.3552    2.1518   22.2846 C   0  0  0  0  0  0  0  0  0  0  0  0
    7.7999    2.1419   21.2953 H   0  0  0  0  0  0  0  0  0  0  0  0
    5.4384    0.6403   20.1427 C   0  0  0  0  0  0  0  0  0  0  0  0
    5.0276    0.6371   21.1519 H   0  0  0  0  0  0  0  0  0  0  0  0
    4.7983    1.3050   19.0942 C   0  0  0  0  0  0  0  0  0  0  0  0
    3.8685    1.8402   19.2434 H   0  0  0  0  0  0  0  0  0  0  0  0
  1  2  1  0
  2  3  2  0
  3  4  1  0
  4  5  1  0
  4  6  2  0
  6  7  1  0
  7  8  1  0
  8  9  1  0
  9 10  2  0
 10 11  1  0
 11 12  1  0
 12 13  2  0
 13 14  1  0
 13 15  1  0
 15 16  1  0
 15 17  2  0
 17 18  1  0
 18 19  2  0
 18 20  2  0
 18 21  1  0
 21 22  1  0
 21 23  1  0
 17 24  1  0
 24 25  1  0
 24 26  2  0
 26 27  1  0
  6 28  1  0
 28 29  1  0
 28 30  2  0
 30 31  1  0
 30  2  1  0
 11  7  2  0
 26 12  1  0
M  END
>  <cnnaffinity>  (1) 
-4.97546

>  <filename>  (1) 
NS(=O)(=O)c1ccc(-c2nnsc2-c2cccnc2)cc1

$$$$
