
     RDKit          3D

 40 43  0  0  0  0  0  0  0  0999 V2000
    5.0328    1.7383   16.8400 H   0  0  0  0  0  0  0  0  0  0  0  0
    5.3735    1.2437   17.7479 C   0  0  0  0  0  0  0  0  0  0  0  0
    6.5368    0.5828   17.6532 N   0  0  0  0  0  0  0  0  0  0  0  0
    7.0043    0.0046   18.7653 C   0  0  0  0  0  0  0  0  0  0  0  0
    7.9484   -0.5333   18.6619 H   0  0  0  0  0  0  0  0  0  0  0  0
    6.3535    0.0348   20.0178 C   0  0  0  0  0  0  0  0  0  0  0  0
    7.0716   -0.5270   21.1759 C   0  0  0  0  0  0  0  0  0  0  0  0
    8.4344   -0.5564   21.3789 C   0  0  0  0  0  0  0  0  0  0  0  0
    8.6351   -1.1737   22.6031 C   0  0  0  0  0  0  0  0  0  0  0  0
    7.5043   -1.5540   23.1721 N   0  0  0  0  0  0  0  0  0  0  0  0
    6.5579   -1.1397   22.2847 N   0  0  0  0  0  0  0  0  0  0  0  0
    5.5815   -1.2483   22.5320 H   0  0  0  0  0  0  0  0  0  0  0  0
   10.0884   -1.2634   22.9617 C   0  0  0  0  0  0  0  0  0  0  0  0
   10.2959   -0.9029   23.9718 H   0  0  0  0  0  0  0  0  0  0  0  0
   10.4312   -2.3008   22.9106 H   0  0  0  0  0  0  0  0  0  0  0  0
   10.7948   -0.3985   21.8589 C   0  0  2  0  0  0  0  0  0  0  0  0
   11.6067   -0.9842   21.4192 H   0  0  0  0  0  0  0  0  0  0  0  0
   11.3953    0.8831   22.4015 C   0  0  0  0  0  0  0  0  0  0  0  0
   10.5468    1.8935   22.8834 C   0  0  0  0  0  0  0  0  0  0  0  0
    9.4763    1.7111   22.9127 H   0  0  0  0  0  0  0  0  0  0  0  0
   11.0461    3.1170   23.3154 C   0  0  0  0  0  0  0  0  0  0  0  0
   10.3564    3.8690   23.6934 H   0  0  0  0  0  0  0  0  0  0  0  0
   12.4286    3.3430   23.2662 C   0  0  0  0  0  0  0  0  0  0  0  0
   13.0672    4.8906   23.7722 S   0  0  0  0  0  0  0  0  0  0  0  0
   14.5021    4.7782   23.9537 O   0  0  0  0  0  0  0  0  0  0  0  0
   12.1929    5.5187   24.7438 O   0  0  0  0  0  0  0  0  0  0  0  0
   12.9578    5.9218   22.4794 N   0  0  0  0  0  0  0  0  0  0  0  0
   13.9194    6.2289   22.5978 H   0  0  0  0  0  0  0  0  0  0  0  0
   12.3674    6.5779   22.9813 H   0  0  0  0  0  0  0  0  0  0  0  0
   13.3044    2.3409   22.8188 C   0  0  0  0  0  0  0  0  0  0  0  0
   14.3824    2.4927   22.7937 H   0  0  0  0  0  0  0  0  0  0  0  0
   12.7803    1.1223   22.3935 C   0  0  0  0  0  0  0  0  0  0  0  0
   13.4617    0.3450   22.0511 H   0  0  0  0  0  0  0  0  0  0  0  0
    9.7166   -0.1313   20.7474 C   0  0  0  0  0  0  0  0  0  0  0  0
    9.9366   -0.7332   19.8601 H   0  0  0  0  0  0  0  0  0  0  0  0
    9.6863    0.9127   20.4068 H   0  0  0  0  0  0  0  0  0  0  0  0
    5.1152    0.6968   20.0831 C   0  0  0  0  0  0  0  0  0  0  0  0
    4.5617    0.7616   21.0212 H   0  0  0  0  0  0  0  0  0  0  0  0
    4.6256    1.3104   18.9281 C   0  0  0  0  0  0  0  0  0  0  0  0
    3.6905    1.8560   18.9287 H   0  0  0  0  0  0  0  0  0  0  0  0
  1  2  1  0
  2  3  2  0
  3  4  1  0
  4  5  1  0
  4  6  2  0
  6  7  1  0
  7  8  2  0
  8  9  1  0
  9 10  2  0
 10 11  1  0
 11 12  1  0
  9 13  1  0
 13 14  1  0
 13 15  1  0
 13 16  1  0
 16 17  1  6
 16 18  1  0
 18 19  2  0
 19 20  1  0
 19 21  1  0
 21 22  1  0
 21 23  2  0
 23 24  1  0
 24 25  2  0
 24 26  2  0
 24 27  1  0
 27 28  1  0
 27 29  1  0
 23 30  1  0
 30 31  1  0
 30 32  2  0
 32 33  1  0
 16 34  1  0
 34 35  1  0
 34 36  1  0
  6 37  1  0
 37 38  1  0
 37 39  2  0
 39 40  1  0
 39  2  1  0
 11  7  1  0
 32 18  1  0
 34  8  1  0
M  END
>  <cnnaffinity>  (1) 
-6.32401

>  <filename>  (1) 
NS(=O)(=O)c1ccc([C@H]2Cc3n[nH]c(-c4cccnc4)c3C2)cc1

$$$$
