
     RDKit          3D

 28 29  0  0  0  0  0  0  0  0999 V2000
    4.9264    1.8077   16.9881 H   0  0  0  0  0  0  0  0  0  0  0  0
    5.3975    1.2985   17.8230 C   0  0  0  0  0  0  0  0  0  0  0  0
    6.5501    0.6658   17.5433 N   0  0  0  0  0  0  0  0  0  0  0  0
    7.1648    0.0378   18.5521 C   0  0  0  0  0  0  0  0  0  0  0  0
    8.1060   -0.4646   18.3348 H   0  0  0  0  0  0  0  0  0  0  0  0
    6.6575   -0.0031   19.8651 C   0  0  0  0  0  0  0  0  0  0  0  0
    7.3580   -0.6793   20.9196 N   0  0  0  0  0  0  0  0  0  0  0  0
    6.6936   -1.7153   21.5520 C   0  0  0  0  0  0  0  0  0  0  0  0
    5.6769   -1.9272   21.2300 H   0  0  0  0  0  0  0  0  0  0  0  0
    7.2823   -2.4442   22.5383 C   0  0  0  0  0  0  0  0  0  0  0  0
    6.6762   -3.5502   23.1405 N   0  0  0  0  0  0  0  0  0  0  0  0
    6.9879   -4.0342   23.9684 H   0  0  0  0  0  0  0  0  0  0  0  0
    5.1717   -4.1627   22.9673 S   0  0  0  0  0  0  0  0  0  0  0  0
    5.0190   -4.8478   21.7021 O   0  0  0  0  0  0  0  0  0  0  0  0
    4.1061   -3.3980   23.5698 O   0  0  0  0  0  0  0  0  0  0  0  0
    5.5221   -5.2783   24.1386 N   0  0  0  0  0  0  0  0  0  0  0  0
    5.4235   -6.1313   23.6030 H   0  0  0  0  0  0  0  0  0  0  0  0
    4.6979   -5.1348   24.7112 H   0  0  0  0  0  0  0  0  0  0  0  0
    8.6011   -2.0992   22.9619 C   0  0  0  0  0  0  0  0  0  0  0  0
    9.0435   -2.6916   23.7610 H   0  0  0  0  0  0  0  0  0  0  0  0
    9.2700   -1.0739   22.3730 C   0  0  0  0  0  0  0  0  0  0  0  0
   10.2719   -0.7757   22.6490 H   0  0  0  0  0  0  0  0  0  0  0  0
    8.7011   -0.2834   21.2874 C   0  0  0  0  0  0  0  0  0  0  0  0
    9.2908    0.6193   20.7178 O   0  0  0  0  0  0  0  0  0  0  0  0
    5.4377    0.6276   20.1327 C   0  0  0  0  0  0  0  0  0  0  0  0
    5.0289    0.5861   21.1444 H   0  0  0  0  0  0  0  0  0  0  0  0
    4.8022    1.3111   19.0916 C   0  0  0  0  0  0  0  0  0  0  0  0
    3.8693    1.8442   19.2540 H   0  0  0  0  0  0  0  0  0  0  0  0
  1  2  1  0
  2  3  2  0
  3  4  1  0
  4  5  1  0
  4  6  2  0
  6  7  1  0
  7  8  1  0
  8  9  1  0
  8 10  2  0
 10 11  1  0
 11 12  1  0
 11 13  1  0
 13 14  2  0
 13 15  2  0
 13 16  1  0
 16 17  1  0
 16 18  1  0
 10 19  1  0
 19 20  1  0
 19 21  2  0
 21 22  1  0
 21 23  1  0
 23 24  2  0
  6 25  1  0
 25 26  1  0
 25 27  2  0
 27 28  1  0
 27  2  1  0
 23  7  1  0
M  END
>  <cnnaffinity>  (1) 
-4.93875

>  <filename>  (1) 
NS(=O)(=O)Nc1ccc(=O)n(-c2cccnc2)c1

$$$$
