
     RDKit          3D

 35 38  0  0  0  0  0  0  0  0999 V2000
    5.1067    1.7375   16.9910 H   0  0  0  0  0  0  0  0  0  0  0  0
    5.5068    1.2344   17.8689 C   0  0  0  0  0  0  0  0  0  0  0  0
    6.6552    0.5700   17.6812 N   0  0  0  0  0  0  0  0  0  0  0  0
    7.1871   -0.0415   18.7394 C   0  0  0  0  0  0  0  0  0  0  0  0
    8.1163   -0.5785   18.5706 H   0  0  0  0  0  0  0  0  0  0  0  0
    6.6144   -0.0247   20.0188 C   0  0  0  0  0  0  0  0  0  0  0  0
    7.3663   -0.7132   21.0646 C   0  0  0  0  0  0  0  0  0  0  0  0
    8.5663   -1.3189   20.8066 N   0  0  0  0  0  0  0  0  0  0  0  0
    8.8877   -1.7787   21.9948 C   0  0  0  0  0  0  0  0  0  0  0  0
   10.1848   -2.6497   22.7568 S   0  0  0  0  0  0  0  0  0  0  0  0
    9.3644   -2.5393   24.2932 C   0  0  0  0  0  0  0  0  0  0  0  0
    9.8024   -3.0217   25.1563 H   0  0  0  0  0  0  0  0  0  0  0  0
    8.1824   -1.8853   24.2212 C   0  0  0  0  0  0  0  0  0  0  0  0
    7.2118   -1.5619   25.2899 C   0  0  0  0  0  0  0  0  0  0  0  0
    5.8324   -1.7918   25.1123 C   0  0  0  0  0  0  0  0  0  0  0  0
    5.4852   -2.2353   24.1837 H   0  0  0  0  0  0  0  0  0  0  0  0
    4.9177   -1.4463   26.0986 C   0  0  0  0  0  0  0  0  0  0  0  0
    3.8560   -1.5875   25.9043 H   0  0  0  0  0  0  0  0  0  0  0  0
    5.3870   -0.8776   27.2942 C   0  0  0  0  0  0  0  0  0  0  0  0
    4.2706   -0.5463   28.6135 S   0  0  0  0  0  0  0  0  0  0  0  0
    2.9487   -0.1769   28.1530 O   0  0  0  0  0  0  0  0  0  0  0  0
    4.9586    0.1679   29.6739 O   0  0  0  0  0  0  0  0  0  0  0  0
    4.0585   -2.0516   29.2635 N   0  0  0  0  0  0  0  0  0  0  0  0
    3.1385   -1.8904   29.6458 H   0  0  0  0  0  0  0  0  0  0  0  0
    4.7391   -1.9478   30.0086 H   0  0  0  0  0  0  0  0  0  0  0  0
    6.7582   -0.6628   27.5052 C   0  0  0  0  0  0  0  0  0  0  0  0
    7.1250   -0.1908   28.4158 H   0  0  0  0  0  0  0  0  0  0  0  0
    7.6604   -1.0156   26.5074 C   0  0  0  0  0  0  0  0  0  0  0  0
    8.7235   -0.8508   26.6573 H   0  0  0  0  0  0  0  0  0  0  0  0
    7.9395   -1.4870   22.9044 N   0  0  0  0  0  0  0  0  0  0  0  0
    6.9400   -0.7855   22.3158 N   0  0  0  0  0  0  0  0  0  0  0  0
    5.3915    0.6469   20.2062 C   0  0  0  0  0  0  0  0  0  0  0  0
    4.8965    0.6688   21.1824 H   0  0  0  0  0  0  0  0  0  0  0  0
    4.8358    1.2906   19.0996 C   0  0  0  0  0  0  0  0  0  0  0  0
    3.9042    1.8451   19.1675 H   0  0  0  0  0  0  0  0  0  0  0  0
  1  2  1  0
  2  3  2  0
  3  4  1  0
  4  5  1  0
  4  6  2  0
  6  7  1  0
  7  8  1  0
  8  9  2  0
  9 10  1  0
 10 11  1  0
 11 12  1  0
 11 13  2  0
 13 14  1  0
 14 15  2  0
 15 16  1  0
 15 17  1  0
 17 18  1  0
 17 19  2  0
 19 20  1  0
 20 21  2  0
 20 22  2  0
 20 23  1  0
 23 24  1  0
 23 25  1  0
 19 26  1  0
 26 27  1  0
 26 28  2  0
 28 29  1  0
 13 30  1  0
 30 31  1  0
  6 32  1  0
 32 33  1  0
 32 34  2  0
 34 35  1  0
 34  2  1  0
 31  7  2  0
 30  9  1  0
 28 14  1  0
M  END
>  <cnnaffinity>  (1) 
-5.58424

>  <filename>  (1) 
NS(=O)(=O)c1ccc(-c2csc3nc(-c4cccnc4)nn23)cc1

$$$$
