
     RDKit          3D

 27 28  0  0  0  0  0  0  0  0999 V2000
    7.4242    0.9254   22.3313 H   0  0  0  0  0  0  0  0  0  0  0  0
    7.6647   -0.1074   22.1336 C   0  0  0  0  0  0  0  0  0  0  0  0
    7.3028   -0.6933   20.9619 C   0  0  0  0  0  0  0  0  0  0  0  0
    6.6211    0.0143   19.8796 C   0  0  0  0  0  0  0  0  0  0  0  0
    7.1615    0.0042   18.5839 C   0  0  0  0  0  0  0  0  0  0  0  0
    8.1124   -0.4969   18.3996 H   0  0  0  0  0  0  0  0  0  0  0  0
    6.5987    0.6183   17.5391 N   0  0  0  0  0  0  0  0  0  0  0  0
    5.4479    1.2747   17.7553 C   0  0  0  0  0  0  0  0  0  0  0  0
    5.0151    1.7680   16.8893 H   0  0  0  0  0  0  0  0  0  0  0  0
    4.8195    1.3427   19.0047 C   0  0  0  0  0  0  0  0  0  0  0  0
    3.8893    1.8871   19.1104 H   0  0  0  0  0  0  0  0  0  0  0  0
    5.4251    0.7166   20.0931 C   0  0  0  0  0  0  0  0  0  0  0  0
    4.9813    0.7496   21.0914 H   0  0  0  0  0  0  0  0  0  0  0  0
    7.5558   -2.0461   20.7731 N   0  0  0  0  0  0  0  0  0  0  0  0
    7.2030   -2.5446   19.9684 H   0  0  0  0  0  0  0  0  0  0  0  0
    7.8539   -2.8949   21.7914 C   0  0  0  0  0  0  0  0  0  0  0  0
    7.6833   -4.5395   21.6486 S   0  0  0  0  0  0  0  0  0  0  0  0
    8.3057   -2.2960   22.9179 N   0  0  0  0  0  0  0  0  0  0  0  0
    8.3729   -2.9325   23.6947 H   0  0  0  0  0  0  0  0  0  0  0  0
    8.4378   -0.8304   23.1550 C   0  0  1  0  0  0  0  0  0  0  0  0
    8.1629   -0.6095   24.1917 H   0  0  0  0  0  0  0  0  0  0  0  0
   10.2399    0.3319   23.5910 S   0  0  0  0  0  0  0  0  0  0  0  0
   11.0862    0.5755   22.4334 O   0  0  0  0  0  0  0  0  0  0  0  0
   10.7583   -0.1459   24.8666 O   0  0  0  0  0  0  0  0  0  0  0  0
    9.7024    1.8605   23.9667 N   0  0  0  0  0  0  0  0  0  0  0  0
   10.4465    2.3315   23.4551 H   0  0  0  0  0  0  0  0  0  0  0  0
    9.9245    1.8511   24.9584 H   0  0  0  0  0  0  0  0  0  0  0  0
  1  2  1  0
  2  3  2  0
  3  4  1  0
  4  5  2  0
  5  6  1  0
  5  7  1  0
  7  8  2  0
  8  9  1  0
  8 10  1  0
 10 11  1  0
 10 12  2  0
 12 13  1  0
  3 14  1  0
 14 15  1  0
 14 16  1  0
 16 17  2  0
 16 18  1  0
 18 19  1  0
 18 20  1  0
 20 21  1  1
 20 22  1  0
 22 23  2  0
 22 24  2  0
 22 25  1  0
 25 26  1  0
 25 27  1  0
 20  2  1  0
 12  4  1  0
M  END
>  <cnnaffinity>  (1) 
-4.67696

>  <filename>  (1) 
NS(=O)(=O)[C@H]1C=C(c2cccnc2)NC(=S)N1

$$$$
