
     RDKit          3D

 25 26  0  0  0  0  0  0  0  0999 V2000
    5.0095    1.7464   17.0876 H   0  0  0  0  0  0  0  0  0  0  0  0
    5.4397    1.1982   17.9209 C   0  0  0  0  0  0  0  0  0  0  0  0
    6.5682    0.5208   17.6503 N   0  0  0  0  0  0  0  0  0  0  0  0
    7.1407   -0.1476   18.6536 C   0  0  0  0  0  0  0  0  0  0  0  0
    8.0558   -0.6962   18.4380 H   0  0  0  0  0  0  0  0  0  0  0  0
    6.6197   -0.1790   19.9621 C   0  0  0  0  0  0  0  0  0  0  0  0
    7.3738   -0.8042   21.0207 N   0  0  0  0  0  0  0  0  0  0  0  0
    6.9749   -1.7762   21.8964 C   0  0  0  0  0  0  0  0  0  0  0  0
    5.7424   -2.3375   21.7783 N   0  0  0  0  0  0  0  0  0  0  0  0
    5.4120   -2.4994   20.8519 H   0  0  0  0  0  0  0  0  0  0  0  0
    5.5587   -3.7772   22.5405 S   0  0  0  0  0  0  0  0  0  0  0  0
    4.2653   -4.1854   22.0798 O   0  0  0  0  0  0  0  0  0  0  0  0
    6.7155   -4.6239   22.4332 O   0  0  0  0  0  0  0  0  0  0  0  0
    5.4357   -3.0990   24.0163 N   0  0  0  0  0  0  0  0  0  0  0  0
    6.3810   -2.7485   24.1530 H   0  0  0  0  0  0  0  0  0  0  0  0
    4.8682   -2.3075   23.7219 H   0  0  0  0  0  0  0  0  0  0  0  0
    7.8272   -2.0139   22.8393 N   0  0  0  0  0  0  0  0  0  0  0  0
    8.8291   -1.1094   22.5549 N   0  0  0  0  0  0  0  0  0  0  0  0
    9.7042   -1.0761   23.0454 H   0  0  0  0  0  0  0  0  0  0  0  0
    8.6241   -0.3699   21.4564 C   0  0  0  0  0  0  0  0  0  0  0  0
    9.6472    0.7575   20.7983 S   0  0  0  0  0  0  0  0  0  0  0  0
    5.4242    0.4962   20.2282 C   0  0  0  0  0  0  0  0  0  0  0  0
    4.9962    0.4606   21.2330 H   0  0  0  0  0  0  0  0  0  0  0  0
    4.8282    1.2127   19.1809 C   0  0  0  0  0  0  0  0  0  0  0  0
    3.9191    1.7887   19.3337 H   0  0  0  0  0  0  0  0  0  0  0  0
  1  2  1  0
  2  3  2  0
  3  4  1  0
  4  5  1  0
  4  6  2  0
  6  7  1  0
  7  8  1  0
  8  9  1  0
  9 10  1  0
  9 11  1  0
 11 12  2  0
 11 13  2  0
 11 14  1  0
 14 15  1  0
 14 16  1  0
  8 17  2  0
 17 18  1  0
 18 19  1  0
 18 20  1  0
 20 21  2  0
  6 22  1  0
 22 23  1  0
 22 24  2  0
 24 25  1  0
 24  2  1  0
 20  7  1  0
M  END
>  <cnnaffinity>  (1) 
-4.9728

>  <filename>  (1) 
NS(=O)(=O)Nc1n[nH]c(=S)n1-c1cccnc1

$$$$
