
     RDKit          3D

 32 35  0  0  0  0  0  0  0  0999 V2000
    4.9286    1.7728   17.0027 H   0  0  0  0  0  0  0  0  0  0  0  0
    5.4103    1.2851   17.8469 C   0  0  0  0  0  0  0  0  0  0  0  0
    6.5745    0.6663   17.5953 N   0  0  0  0  0  0  0  0  0  0  0  0
    7.1791    0.0533   18.6173 C   0  0  0  0  0  0  0  0  0  0  0  0
    8.1255   -0.4321   18.3857 H   0  0  0  0  0  0  0  0  0  0  0  0
    6.6444    0.0166   19.9129 C   0  0  0  0  0  0  0  0  0  0  0  0
    7.3630   -0.6875   20.9672 C   0  0  0  0  0  0  0  0  0  0  0  0
    8.5488   -1.3234   20.7558 N   0  0  0  0  0  0  0  0  0  0  0  0
    8.8029   -1.8140   21.9501 C   0  0  0  0  0  0  0  0  0  0  0  0
    9.9990   -2.8100   22.7309 S   0  0  0  0  0  0  0  0  0  0  0  0
    9.0778   -2.7609   24.2043 C   0  0  0  0  0  0  0  0  0  0  0  0
    9.4598   -3.2809   25.0715 H   0  0  0  0  0  0  0  0  0  0  0  0
    7.9557   -2.0153   24.1174 C   0  0  0  0  0  0  0  0  0  0  0  0
    6.9665   -1.7639   25.1906 C   0  0  0  0  0  0  0  0  0  0  0  0
    6.7535   -2.7586   26.1692 C   0  0  0  0  0  0  0  0  0  0  0  0
    7.2985   -3.7002   26.1151 H   0  0  0  0  0  0  0  0  0  0  0  0
    5.8316   -2.5499   27.1978 C   0  0  0  0  0  0  0  0  0  0  0  0
    5.6767   -3.3224   27.9436 H   0  0  0  0  0  0  0  0  0  0  0  0
    5.1118   -1.3571   27.2770 C   0  0  0  0  0  0  0  0  0  0  0  0
    4.3957   -1.1958   28.0760 H   0  0  0  0  0  0  0  0  0  0  0  0
    5.3322   -0.3699   26.3070 C   0  0  0  0  0  0  0  0  0  0  0  0
    4.5704    0.9065   26.3750 N   0  0  0  0  0  4  0  0  0  0  0  0
    3.7819    1.0622   27.2932 O   0  0  0  0  0  0  0  0  0  0  0  0
    4.7759    1.7355   25.5044 O   0  0  0  0  0  1  0  0  0  0  0  0
    6.2525   -0.5542   25.2718 C   0  0  0  0  0  0  0  0  0  0  0  0
    6.4051    0.2206   24.5246 H   0  0  0  0  0  0  0  0  0  0  0  0
    7.8355   -1.4814   22.8312 N   0  0  0  0  0  0  0  0  0  0  0  0
    6.8827   -0.7514   22.2058 N   0  0  0  0  0  0  0  0  0  0  0  0
    5.4247    0.6589   20.1697 C   0  0  0  0  0  0  0  0  0  0  0  0
    4.9979    0.6356   21.1787 H   0  0  0  0  0  0  0  0  0  0  0  0
    4.8045    1.3096   19.1094 C   0  0  0  0  0  0  0  0  0  0  0  0
    3.8738    1.8435   19.2574 H   0  0  0  0  0  0  0  0  0  0  0  0
  1  2  1  0
  2  3  2  0
  3  4  1  0
  4  5  1  0
  4  6  2  0
  6  7  1  0
  7  8  1  0
  8  9  2  0
  9 10  1  0
 10 11  1  0
 11 12  1  0
 11 13  2  0
 13 14  1  0
 14 15  2  0
 15 16  1  0
 15 17  1  0
 17 18  1  0
 17 19  2  0
 19 20  1  0
 19 21  1  0
 21 22  1  0
 22 23  2  0
 22 24  1  0
 21 25  2  0
 25 26  1  0
 13 27  1  0
 27 28  1  0
  6 29  1  0
 29 30  1  0
 29 31  2  0
 31 32  1  0
 31  2  1  0
 28  7  2  0
 27  9  1  0
 25 14  1  0
M  CHG  2  22   1  24  -1
M  END
>  <cnnaffinity>  (1) 
-5.60674

>  <filename>  (1) 
O=[N+]([O-])c1cccc(-c2csc3nc(-c4cccnc4)nn23)c1

$$$$
