
     RDKit          3D

 37 40  0  0  0  0  0  0  0  0999 V2000
    4.9094    1.8396   16.9547 H   0  0  0  0  0  0  0  0  0  0  0  0
    5.3954    1.3243   17.7808 C   0  0  0  0  0  0  0  0  0  0  0  0
    6.5513    0.7080   17.4968 N   0  0  0  0  0  0  0  0  0  0  0  0
    7.1751    0.0891   18.5073 C   0  0  0  0  0  0  0  0  0  0  0  0
    8.1120   -0.4047   18.2495 H   0  0  0  0  0  0  0  0  0  0  0  0
    6.7047    0.0390   19.8337 C   0  0  0  0  0  0  0  0  0  0  0  0
    7.4715   -0.6732   20.9319 C   0  0  1  0  0  0  0  0  0  0  0  0
    8.4074   -1.0572   20.5091 H   0  0  0  0  0  0  0  0  0  0  0  0
    7.8574    0.2630   22.1294 C   0  0  0  0  0  0  0  0  0  0  0  0
    7.4156    1.2606   22.0567 H   0  0  0  0  0  0  0  0  0  0  0  0
    8.9409    0.4012   22.1830 H   0  0  0  0  0  0  0  0  0  0  0  0
    7.3316   -0.4627   23.3265 C   0  0  0  0  0  0  0  0  0  0  0  0
    7.2910   -0.1964   24.6197 N   0  0  0  0  0  0  0  0  0  0  0  0
    6.6742   -1.2868   25.1388 N   0  0  0  0  0  0  0  0  0  0  0  0
    6.5006   -1.3079   26.1379 H   0  0  0  0  0  0  0  0  0  0  0  0
    6.3058   -2.2190   24.2047 C   0  0  0  0  0  0  0  0  0  0  0  0
    5.6531   -3.5218   24.4727 C   0  0  0  0  0  0  0  0  0  0  0  0
    6.0275   -4.3423   25.5584 C   0  0  0  0  0  0  0  0  0  0  0  0
    6.7709   -3.9978   26.2742 H   0  0  0  0  0  0  0  0  0  0  0  0
    5.4766   -5.6136   25.7126 C   0  0  0  0  0  0  0  0  0  0  0  0
    5.7835   -6.2573   26.5320 H   0  0  0  0  0  0  0  0  0  0  0  0
    4.5259   -6.0683   24.7888 C   0  0  0  0  0  0  0  0  0  0  0  0
    3.8822   -7.3853   25.0079 N   0  0  0  0  0  4  0  0  0  0  0  0
    3.4985   -8.0022   24.0260 O   0  0  0  0  0  0  0  0  0  0  0  0
    3.7552   -7.7794   26.1534 O   0  0  0  0  0  1  0  0  0  0  0  0
    4.1787   -5.3022   23.6681 C   0  0  0  0  0  0  0  0  0  0  0  0
    3.5033   -5.7026   22.9164 H   0  0  0  0  0  0  0  0  0  0  0  0
    4.7304   -4.0289   23.5334 C   0  0  0  0  0  0  0  0  0  0  0  0
    4.4411   -3.4079   22.6913 H   0  0  0  0  0  0  0  0  0  0  0  0
    6.7402   -1.6771   23.0070 C   0  0  0  0  0  0  0  0  0  0  0  0
    6.6892   -1.8957   21.5284 C   0  0  0  0  0  0  0  0  0  0  0  0
    7.1438   -2.8424   21.2155 H   0  0  0  0  0  0  0  0  0  0  0  0
    5.6495   -1.9173   21.1739 H   0  0  0  0  0  0  0  0  0  0  0  0
    5.4796    0.6730   20.0952 C   0  0  0  0  0  0  0  0  0  0  0  0
    5.0489    0.6706   21.0998 H   0  0  0  0  0  0  0  0  0  0  0  0
    4.8175    1.3242   19.0533 C   0  0  0  0  0  0  0  0  0  0  0  0
    3.8780    1.8381   19.2131 H   0  0  0  0  0  0  0  0  0  0  0  0
  1  2  1  0
  2  3  2  0
  3  4  1  0
  4  5  1  0
  4  6  2  0
  6  7  1  0
  7  8  1  6
  7  9  1  0
  9 10  1  0
  9 11  1  0
  9 12  1  0
 12 13  2  0
 13 14  1  0
 14 15  1  0
 14 16  1  0
 16 17  1  0
 17 18  2  0
 18 19  1  0
 18 20  1  0
 20 21  1  0
 20 22  2  0
 22 23  1  0
 23 24  2  0
 23 25  1  0
 22 26  1  0
 26 27  1  0
 26 28  2  0
 28 29  1  0
 16 30  2  0
 30 31  1  0
 31 32  1  0
 31 33  1  0
  6 34  1  0
 34 35  1  0
 34 36  2  0
 36 37  1  0
 36  2  1  0
 31  7  1  0
 30 12  1  0
 28 17  1  0
M  CHG  2  23   1  25  -1
M  END
>  <cnnaffinity>  (1) 
-5.38776

>  <filename>  (1) 
O=[N+]([O-])c1ccc(-c2[nH]nc3c2C[C@@H](c2cccnc2)C3)cc1

$$$$
