
     RDKit          3D

 32 34  0  0  0  0  0  0  0  0999 V2000
    4.9125    1.8034   16.9765 H   0  0  0  0  0  0  0  0  0  0  0  0
    5.3861    1.3057   17.8205 C   0  0  0  0  0  0  0  0  0  0  0  0
    6.5495    0.6890   17.5566 N   0  0  0  0  0  0  0  0  0  0  0  0
    7.1580    0.0647   18.5685 C   0  0  0  0  0  0  0  0  0  0  0  0
    8.1155   -0.3986   18.3285 H   0  0  0  0  0  0  0  0  0  0  0  0
    6.6528    0.0135   19.8831 C   0  0  0  0  0  0  0  0  0  0  0  0
    7.3745   -0.6554   20.9726 C   0  0  0  0  0  0  0  0  0  0  0  0
    7.5164   -0.3191   22.3143 C   0  0  0  0  0  0  0  0  0  0  0  0
    7.0277    0.8413   22.9273 N   0  0  0  0  0  0  0  0  0  0  0  0
    6.9860    1.6619   22.3411 H   0  0  0  0  0  0  0  0  0  0  0  0
    6.8258    1.0373   24.2956 C   0  0  0  0  0  0  0  0  0  0  0  0
    6.3555   -0.0137   25.0969 C   0  0  0  0  0  0  0  0  0  0  0  0
    6.1749   -0.9664   24.6117 H   0  0  0  0  0  0  0  0  0  0  0  0
    6.1475    0.1871   26.4621 C   0  0  0  0  0  0  0  0  0  0  0  0
    5.7969   -0.6348   27.0758 H   0  0  0  0  0  0  0  0  0  0  0  0
    6.3897    1.4297   27.0457 C   0  0  0  0  0  0  0  0  0  0  0  0
    6.2306    1.5996   28.1048 H   0  0  0  0  0  0  0  0  0  0  0  0
    6.8414    2.4788   26.2351 C   0  0  0  0  0  0  0  0  0  0  0  0
    7.0877    3.8142   26.8484 N   0  0  0  0  0  4  0  0  0  0  0  0
    6.8856    3.9466   28.0466 O   0  0  0  0  0  0  0  0  0  0  0  0
    7.4773    4.7101   26.1169 O   0  0  0  0  0  1  0  0  0  0  0  0
    7.0545    2.2973   24.8614 C   0  0  0  0  0  0  0  0  0  0  0  0
    7.4127    3.1139   24.2420 H   0  0  0  0  0  0  0  0  0  0  0  0
    8.2902   -1.3721   22.8680 C   0  0  0  0  0  0  0  0  0  0  0  0
    8.6270   -1.4683   23.8936 H   0  0  0  0  0  0  0  0  0  0  0  0
    8.6037   -2.2869   21.9553 N   0  0  0  0  0  0  0  0  0  0  0  0
    8.0497   -1.8263   20.8239 N   0  0  0  0  0  0  0  0  0  0  0  0
    8.1290   -2.3667   19.9739 H   0  0  0  0  0  0  0  0  0  0  0  0
    5.4329    0.6621   20.1377 C   0  0  0  0  0  0  0  0  0  0  0  0
    5.0178    0.6301   21.1474 H   0  0  0  0  0  0  0  0  0  0  0  0
    4.7934    1.3188   19.0877 C   0  0  0  0  0  0  0  0  0  0  0  0
    3.8630    1.8505   19.2400 H   0  0  0  0  0  0  0  0  0  0  0  0
  1  2  1  0
  2  3  2  0
  3  4  1  0
  4  5  1  0
  4  6  2  0
  6  7  1  0
  7  8  2  0
  8  9  1  0
  9 10  1  0
  9 11  1  0
 11 12  2  0
 12 13  1  0
 12 14  1  0
 14 15  1  0
 14 16  2  0
 16 17  1  0
 16 18  1  0
 18 19  1  0
 19 20  2  0
 19 21  1  0
 18 22  2  0
 22 23  1  0
  8 24  1  0
 24 25  1  0
 24 26  2  0
 26 27  1  0
 27 28  1  0
  6 29  1  0
 29 30  1  0
 29 31  2  0
 31 32  1  0
 31  2  1  0
 27  7  1  0
 22 11  1  0
M  CHG  2  19   1  21  -1
M  END
>  <cnnaffinity>  (1) 
-5.49258

>  <filename>  (1) 
O=[N+]([O-])c1cccc(Nc2cn[nH]c2-c2cccnc2)c1

$$$$
