
     RDKit          3D

 34 37  0  0  0  0  0  0  0  0999 V2000
    4.9910    1.8754   16.8739 H   0  0  0  0  0  0  0  0  0  0  0  0
    5.4161    1.3101   17.7034 C   0  0  0  0  0  0  0  0  0  0  0  0
    6.5575    0.6466   17.4617 N   0  0  0  0  0  0  0  0  0  0  0  0
    7.1266   -0.0107   18.4784 C   0  0  0  0  0  0  0  0  0  0  0  0
    8.0572   -0.5233   18.2430 H   0  0  0  0  0  0  0  0  0  0  0  0
    6.5979   -0.0464   19.7821 C   0  0  0  0  0  0  0  0  0  0  0  0
    7.3621   -0.6446   20.8958 C   0  0  0  0  0  0  0  0  0  0  0  0
    8.5093   -1.3088   20.6820 N   0  0  0  0  0  0  0  0  0  0  0  0
    8.9441   -1.5644   21.9321 N   0  0  0  0  0  0  0  0  0  0  0  0
   10.0450   -2.2090   22.4736 C   0  0  0  0  0  0  0  0  0  0  0  0
   10.7773   -2.6815   21.8463 H   0  0  0  0  0  0  0  0  0  0  0  0
    9.9116   -2.0930   23.8183 C   0  0  0  0  0  0  0  0  0  0  0  0
   10.5171   -2.4899   24.6148 H   0  0  0  0  0  0  0  0  0  0  0  0
    8.7511   -1.3800   24.1174 N   0  0  0  0  0  0  0  0  0  0  0  0
    8.2636   -1.0158   25.4007 C   0  0  0  0  0  0  0  0  0  0  0  0
    9.1384   -0.6700   26.4469 C   0  0  0  0  0  0  0  0  0  0  0  0
   10.2130   -0.6921   26.2890 H   0  0  0  0  0  0  0  0  0  0  0  0
    8.6203   -0.2398   27.6728 C   0  0  0  0  0  0  0  0  0  0  0  0
    9.3037   -0.0085   28.4889 H   0  0  0  0  0  0  0  0  0  0  0  0
    7.2440   -0.1048   27.8636 C   0  0  0  0  0  0  0  0  0  0  0  0
    6.8448    0.3222   28.7773 H   0  0  0  0  0  0  0  0  0  0  0  0
    6.3825   -0.4936   26.8309 C   0  0  0  0  0  0  0  0  0  0  0  0
    4.9099   -0.3510   26.9972 N   0  0  0  0  0  4  0  0  0  0  0  0
    4.4996    0.1854   28.0113 O   0  0  0  0  0  0  0  0  0  0  0  0
    4.1918   -0.7705   26.1048 O   0  0  0  0  0  1  0  0  0  0  0  0
    6.8781   -0.9648   25.6134 C   0  0  0  0  0  0  0  0  0  0  0  0
    6.1928   -1.2568   24.8253 H   0  0  0  0  0  0  0  0  0  0  0  0
    8.1464   -1.0816   22.9040 C   0  0  0  0  0  0  0  0  0  0  0  0
    7.0579   -0.4997   22.2717 C   0  0  0  0  0  0  0  0  0  0  0  0
    6.1652   -0.0751   22.6940 H   0  0  0  0  0  0  0  0  0  0  0  0
    5.3781    0.6175   20.0011 C   0  0  0  0  0  0  0  0  0  0  0  0
    4.9103    0.6135   20.9857 H   0  0  0  0  0  0  0  0  0  0  0  0
    4.7832    1.3079   18.9496 C   0  0  0  0  0  0  0  0  0  0  0  0
    3.8664    1.8688   19.0964 H   0  0  0  0  0  0  0  0  0  0  0  0
  1  2  1  0
  2  3  2  0
  3  4  1  0
  4  5  1  0
  4  6  2  0
  6  7  1  0
  7  8  2  0
  8  9  1  0
  9 10  1  0
 10 11  1  0
 10 12  2  0
 12 13  1  0
 12 14  1  0
 14 15  1  0
 15 16  2  0
 16 17  1  0
 16 18  1  0
 18 19  1  0
 18 20  2  0
 20 21  1  0
 20 22  1  0
 22 23  1  0
 23 24  2  0
 23 25  1  0
 22 26  2  0
 26 27  1  0
 14 28  1  0
 28 29  2  0
 29 30  1  0
  6 31  1  0
 31 32  1  0
 31 33  2  0
 33 34  1  0
 33  2  1  0
 29  7  1  0
 28  9  1  0
 26 15  1  0
M  CHG  2  23   1  25  -1
M  END
>  <cnnaffinity>  (1) 
-5.39344

>  <filename>  (1) 
O=[N+]([O-])c1cccc(-n2ccn3nc(-c4cccnc4)cc23)c1

$$$$
