
     RDKit          3D

 31 33  0  0  0  0  0  0  0  0999 V2000
    4.9161    1.7870   16.9870 H   0  0  0  0  0  0  0  0  0  0  0  0
    5.3976    1.2979   17.8274 C   0  0  0  0  0  0  0  0  0  0  0  0
    6.5613    0.6817   17.5602 N   0  0  0  0  0  0  0  0  0  0  0  0
    7.1623    0.0737   18.5877 C   0  0  0  0  0  0  0  0  0  0  0  0
    8.1036   -0.4217   18.3657 H   0  0  0  0  0  0  0  0  0  0  0  0
    6.6537    0.0123   19.8997 C   0  0  0  0  0  0  0  0  0  0  0  0
    7.3779   -0.7014   20.9616 C   0  0  0  0  0  0  0  0  0  0  0  0
    8.7745   -1.0076   21.0149 C   0  0  0  0  0  0  0  0  0  0  0  0
    9.5024   -0.7182   20.2682 H   0  0  0  0  0  0  0  0  0  0  0  0
    9.0143   -1.6712   22.1843 C   0  0  0  0  0  0  0  0  0  0  0  0
    9.9349   -2.0429   22.6146 H   0  0  0  0  0  0  0  0  0  0  0  0
    7.8164   -1.8044   22.8772 N   0  0  0  0  0  0  0  0  0  0  0  0
    7.6175   -2.4394   24.1423 C   0  0  0  0  0  0  0  0  0  0  0  0
    6.5853   -2.0251   25.0107 C   0  0  0  0  0  0  0  0  0  0  0  0
    5.9260   -1.2066   24.7281 H   0  0  0  0  0  0  0  0  0  0  0  0
    6.4239   -2.6606   26.2481 C   0  0  0  0  0  0  0  0  0  0  0  0
    5.6273   -2.3401   26.9115 H   0  0  0  0  0  0  0  0  0  0  0  0
    7.2634   -3.7010   26.6455 C   0  0  0  0  0  0  0  0  0  0  0  0
    7.1396   -4.1966   27.6050 H   0  0  0  0  0  0  0  0  0  0  0  0
    8.2796   -4.1018   25.7726 C   0  0  0  0  0  0  0  0  0  0  0  0
    9.1930   -5.2080   26.1757 N   0  0  0  0  0  4  0  0  0  0  0  0
    9.0157   -5.7353   27.2607 O   0  0  0  0  0  0  0  0  0  0  0  0
   10.0714   -5.5272   25.3913 O   0  0  0  0  0  1  0  0  0  0  0  0
    8.4646   -3.4884   24.5274 C   0  0  0  0  0  0  0  0  0  0  0  0
    9.2555   -3.8354   23.8686 H   0  0  0  0  0  0  0  0  0  0  0  0
    6.8430   -1.2112   22.1099 C   0  0  0  0  0  0  0  0  0  0  0  0
    5.8153   -1.2268   22.4120 H   0  0  0  0  0  0  0  0  0  0  0  0
    5.4292    0.6561   20.1496 C   0  0  0  0  0  0  0  0  0  0  0  0
    5.0023    0.6486   21.1560 H   0  0  0  0  0  0  0  0  0  0  0  0
    4.7999    1.3159   19.0950 C   0  0  0  0  0  0  0  0  0  0  0  0
    3.8678    1.8475   19.2524 H   0  0  0  0  0  0  0  0  0  0  0  0
  1  2  1  0
  2  3  2  0
  3  4  1  0
  4  5  1  0
  4  6  2  0
  6  7  1  0
  7  8  1  0
  8  9  1  0
  8 10  2  0
 10 11  1  0
 10 12  1  0
 12 13  1  0
 13 14  2  0
 14 15  1  0
 14 16  1  0
 16 17  1  0
 16 18  2  0
 18 19  1  0
 18 20  1  0
 20 21  1  0
 21 22  2  0
 21 23  1  0
 20 24  2  0
 24 25  1  0
 12 26  1  0
 26 27  1  0
  6 28  1  0
 28 29  1  0
 28 30  2  0
 30 31  1  0
 30  2  1  0
 26  7  2  0
 24 13  1  0
M  CHG  2  21   1  23  -1
M  END
>  <cnnaffinity>  (1) 
-5.04482

>  <filename>  (1) 
O=[N+]([O-])c1cccc(-n2ccc(-c3cccnc3)c2)c1

$$$$
