
     RDKit          3D

 32 34  0  0  0  0  0  0  0  0999 V2000
    4.9088    1.7812   16.9967 H   0  0  0  0  0  0  0  0  0  0  0  0
    5.3976    1.2969   17.8385 C   0  0  0  0  0  0  0  0  0  0  0  0
    6.5631    0.6828   17.5740 N   0  0  0  0  0  0  0  0  0  0  0  0
    7.1748    0.0618   18.5908 C   0  0  0  0  0  0  0  0  0  0  0  0
    8.1201   -0.4306   18.3784 H   0  0  0  0  0  0  0  0  0  0  0  0
    6.6660   -0.0081   19.9121 C   0  0  0  0  0  0  0  0  0  0  0  0
    7.3250   -0.7108   20.9297 N   0  0  0  0  0  0  0  0  0  0  0  0
    6.7667   -1.0771   21.6935 H   0  0  0  0  0  0  0  0  0  0  0  0
    8.7140   -0.7712   21.0984 C   0  0  0  0  0  0  0  0  0  0  0  0
    9.7031    0.1352   20.6639 C   0  0  0  0  0  0  0  0  0  0  0  0
    9.5274    1.0150   20.0737 H   0  0  0  0  0  0  0  0  0  0  0  0
   10.9128   -0.1934   21.0989 N   0  0  0  0  0  0  0  0  0  0  0  0
   10.7062   -1.3115   21.8047 N   0  0  0  0  0  0  0  0  0  0  0  0
   11.4933   -1.7696   22.2337 H   0  0  0  0  0  0  0  0  0  0  0  0
    9.4110   -1.7211   21.8289 C   0  0  0  0  0  0  0  0  0  0  0  0
    8.9287   -2.9139   22.5252 C   0  0  0  0  0  0  0  0  0  0  0  0
    9.4970   -3.3108   23.7490 C   0  0  0  0  0  0  0  0  0  0  0  0
   10.3083   -2.7272   24.1856 H   0  0  0  0  0  0  0  0  0  0  0  0
    9.0020   -4.4370   24.4037 C   0  0  0  0  0  0  0  0  0  0  0  0
    9.4481   -4.7374   25.3470 H   0  0  0  0  0  0  0  0  0  0  0  0
    7.9505   -5.1785   23.8584 C   0  0  0  0  0  0  0  0  0  0  0  0
    7.5791   -6.0494   24.3821 H   0  0  0  0  0  0  0  0  0  0  0  0
    7.3905   -4.7807   22.6366 C   0  0  0  0  0  0  0  0  0  0  0  0
    6.2699   -5.5593   22.0378 N   0  0  0  0  0  4  0  0  0  0  0  0
    5.8793   -6.5462   22.6344 O   0  0  0  0  0  0  0  0  0  0  0  0
    5.8017   -5.1707   20.9774 O   0  0  0  0  0  1  0  0  0  0  0  0
    7.8705   -3.6533   21.9674 C   0  0  0  0  0  0  0  0  0  0  0  0
    7.4484   -3.3572   21.0121 H   0  0  0  0  0  0  0  0  0  0  0  0
    5.4445    0.6367   20.1632 C   0  0  0  0  0  0  0  0  0  0  0  0
    5.0170    0.6228   21.1679 H   0  0  0  0  0  0  0  0  0  0  0  0
    4.8107    1.3079   19.1110 C   0  0  0  0  0  0  0  0  0  0  0  0
    3.8771    1.8411   19.2656 H   0  0  0  0  0  0  0  0  0  0  0  0
  1  2  1  0
  2  3  2  0
  3  4  1  0
  4  5  1  0
  4  6  2  0
  6  7  1  0
  7  8  1  0
  7  9  1  0
  9 10  1  0
 10 11  1  0
 10 12  2  0
 12 13  1  0
 13 14  1  0
 13 15  1  0
 15 16  1  0
 16 17  2  0
 17 18  1  0
 17 19  1  0
 19 20  1  0
 19 21  2  0
 21 22  1  0
 21 23  1  0
 23 24  1  0
 24 25  2  0
 24 26  1  0
 23 27  2  0
 27 28  1  0
  6 29  1  0
 29 30  1  0
 29 31  2  0
 31 32  1  0
 31  2  1  0
 15  9  2  0
 27 16  1  0
M  CHG  2  24   1  26  -1
M  END
>  <cnnaffinity>  (1) 
-5.72782

>  <filename>  (1) 
O=[N+]([O-])c1cccc(-c2[nH]ncc2Nc2cccnc2)c1

$$$$
