
     RDKit          3D

 32 35  0  0  0  0  0  0  0  0999 V2000
    4.9272    1.7725   17.0030 H   0  0  0  0  0  0  0  0  0  0  0  0
    5.4099    1.2853   17.8470 C   0  0  0  0  0  0  0  0  0  0  0  0
    6.5744    0.6671   17.5957 N   0  0  0  0  0  0  0  0  0  0  0  0
    7.1798    0.0533   18.6167 C   0  0  0  0  0  0  0  0  0  0  0  0
    8.1259   -0.4325   18.3854 H   0  0  0  0  0  0  0  0  0  0  0  0
    6.6454    0.0162   19.9125 C   0  0  0  0  0  0  0  0  0  0  0  0
    7.3638   -0.6889   20.9673 C   0  0  0  0  0  0  0  0  0  0  0  0
    8.5482   -1.3268   20.7548 N   0  0  0  0  0  0  0  0  0  0  0  0
    8.8020   -1.8174   21.9496 C   0  0  0  0  0  0  0  0  0  0  0  0
    9.9965   -2.8164   22.7269 S   0  0  0  0  0  0  0  0  0  0  0  0
    9.0777   -2.7649   24.2029 C   0  0  0  0  0  0  0  0  0  0  0  0
    9.4602   -3.2860   25.0699 H   0  0  0  0  0  0  0  0  0  0  0  0
    7.9540   -2.0189   24.1219 C   0  0  0  0  0  0  0  0  0  0  0  0
    6.9654   -1.7618   25.1965 C   0  0  0  0  0  0  0  0  0  0  0  0
    6.7515   -2.7447   26.1871 C   0  0  0  0  0  0  0  0  0  0  0  0
    7.2941   -3.6837   26.1405 H   0  0  0  0  0  0  0  0  0  0  0  0
    5.8420   -2.5488   27.2203 C   0  0  0  0  0  0  0  0  0  0  0  0
    5.6905   -3.3175   27.9716 H   0  0  0  0  0  0  0  0  0  0  0  0
    5.1305   -1.3431   27.2761 C   0  0  0  0  0  0  0  0  0  0  0  0
    4.1540   -1.1151   28.3709 N   0  0  0  0  0  4  0  0  0  0  0  0
    3.9996   -1.9941   29.2043 O   0  0  0  0  0  0  0  0  0  0  0  0
    3.5512   -0.0545   28.3802 O   0  0  0  0  0  1  0  0  0  0  0  0
    5.3302   -0.3438   26.3107 C   0  0  0  0  0  0  0  0  0  0  0  0
    4.7694    0.5845   26.3651 H   0  0  0  0  0  0  0  0  0  0  0  0
    6.2429   -0.5535   25.2839 C   0  0  0  0  0  0  0  0  0  0  0  0
    6.3950    0.2115   24.5301 H   0  0  0  0  0  0  0  0  0  0  0  0
    7.8363   -1.4840   22.8321 N   0  0  0  0  0  0  0  0  0  0  0  0
    6.8854   -0.7522   22.2060 N   0  0  0  0  0  0  0  0  0  0  0  0
    5.4255    0.6587   20.1689 C   0  0  0  0  0  0  0  0  0  0  0  0
    4.9980    0.6350   21.1766 H   0  0  0  0  0  0  0  0  0  0  0  0
    4.8046    1.3098   19.1095 C   0  0  0  0  0  0  0  0  0  0  0  0
    3.8738    1.8435   19.2579 H   0  0  0  0  0  0  0  0  0  0  0  0
  1  2  1  0
  2  3  2  0
  3  4  1  0
  4  5  1  0
  4  6  2  0
  6  7  1  0
  7  8  1  0
  8  9  2  0
  9 10  1  0
 10 11  1  0
 11 12  1  0
 11 13  2  0
 13 14  1  0
 14 15  2  0
 15 16  1  0
 15 17  1  0
 17 18  1  0
 17 19  2  0
 19 20  1  0
 20 21  2  0
 20 22  1  0
 19 23  1  0
 23 24  1  0
 23 25  2  0
 25 26  1  0
 13 27  1  0
 27 28  1  0
  6 29  1  0
 29 30  1  0
 29 31  2  0
 31 32  1  0
 31  2  1  0
 28  7  2  0
 27  9  1  0
 25 14  1  0
M  CHG  2  20   1  22  -1
M  END
>  <cnnaffinity>  (1) 
-5.59779

>  <filename>  (1) 
O=[N+]([O-])c1ccc(-c2csc3nc(-c4cccnc4)nn23)cc1

$$$$
