
     RDKit          3D

 37 40  0  0  0  0  0  0  0  0999 V2000
    4.8860    1.9181   16.5884 H   0  0  0  0  0  0  0  0  0  0  0  0
    5.2298    1.4945   17.5280 C   0  0  0  0  0  0  0  0  0  0  0  0
    6.3878    0.8191   17.4659 N   0  0  0  0  0  0  0  0  0  0  0  0
    6.8547    0.3060   18.6091 C   0  0  0  0  0  0  0  0  0  0  0  0
    7.8076   -0.2229   18.5321 H   0  0  0  0  0  0  0  0  0  0  0  0
    6.2198    0.4310   19.8592 C   0  0  0  0  0  0  0  0  0  0  0  0
    6.8830   -0.1186   21.0974 C   0  0  1  0  0  0  0  0  0  0  0  0
    6.2775    0.1437   21.9716 H   0  0  0  0  0  0  0  0  0  0  0  0
    7.0127   -1.6750   21.0810 C   0  0  0  0  0  0  0  0  0  0  0  0
    6.8058   -2.1115   20.0996 H   0  0  0  0  0  0  0  0  0  0  0  0
    6.3238   -2.1502   21.7779 H   0  0  0  0  0  0  0  0  0  0  0  0
    8.4303   -1.9023   21.4706 C   0  0  0  0  0  0  0  0  0  0  0  0
    9.1295   -2.9902   21.7104 N   0  0  0  0  0  0  0  0  0  0  0  0
   10.3664   -2.5035   21.9591 N   0  0  0  0  0  0  0  0  0  0  0  0
   11.0881   -3.1716   22.1856 H   0  0  0  0  0  0  0  0  0  0  0  0
   10.4599   -1.1411   21.8691 C   0  0  0  0  0  0  0  0  0  0  0  0
   11.7148   -0.3904   22.0468 C   0  0  0  0  0  0  0  0  0  0  0  0
   12.9545   -1.0374   22.2228 C   0  0  0  0  0  0  0  0  0  0  0  0
   13.0314   -2.1189   22.1400 H   0  0  0  0  0  0  0  0  0  0  0  0
   14.1034   -0.2951   22.4972 C   0  0  0  0  0  0  0  0  0  0  0  0
   15.0446   -0.7940   22.6565 H   0  0  0  0  0  0  0  0  0  0  0  0
   14.0445    1.0981   22.6082 C   0  0  0  0  0  0  0  0  0  0  0  0
   14.9274    1.6743   22.8509 H   0  0  0  0  0  0  0  0  0  0  0  0
   12.8329    1.7358   22.3389 C   0  0  0  0  0  0  0  0  0  0  0  0
   12.7629    3.2119   22.3472 N   0  0  0  0  0  4  0  0  0  0  0  0
   13.4798    3.8145   23.1281 O   0  0  0  0  0  0  0  0  0  0  0  0
   11.9903    3.7427   21.5654 O   0  0  0  0  0  1  0  0  0  0  0  0
   11.6881    1.0135   22.0194 C   0  0  0  0  0  0  0  0  0  0  0  0
   10.7958    1.5494   21.7150 H   0  0  0  0  0  0  0  0  0  0  0  0
    9.1715   -0.7324   21.5717 C   0  0  0  0  0  0  0  0  0  0  0  0
    8.3185    0.4787   21.3208 C   0  0  0  0  0  0  0  0  0  0  0  0
    8.6519    1.0375   20.4343 H   0  0  0  0  0  0  0  0  0  0  0  0
    8.3175    1.1995   22.1505 H   0  0  0  0  0  0  0  0  0  0  0  0
    4.9901    1.1015   19.8872 C   0  0  0  0  0  0  0  0  0  0  0  0
    4.4489    1.2050   20.8288 H   0  0  0  0  0  0  0  0  0  0  0  0
    4.4886    1.6454   18.7028 C   0  0  0  0  0  0  0  0  0  0  0  0
    3.5557    2.1977   18.6801 H   0  0  0  0  0  0  0  0  0  0  0  0
  1  2  1  0
  2  3  2  0
  3  4  1  0
  4  5  1  0
  4  6  2  0
  6  7  1  0
  7  8  1  1
  7  9  1  0
  9 10  1  0
  9 11  1  0
  9 12  1  0
 12 13  2  0
 13 14  1  0
 14 15  1  0
 14 16  1  0
 16 17  1  0
 17 18  2  0
 18 19  1  0
 18 20  1  0
 20 21  1  0
 20 22  2  0
 22 23  1  0
 22 24  1  0
 24 25  1  0
 25 26  2  0
 25 27  1  0
 24 28  2  0
 28 29  1  0
 16 30  2  0
 30 31  1  0
 31 32  1  0
 31 33  1  0
  6 34  1  0
 34 35  1  0
 34 36  2  0
 36 37  1  0
 36  2  1  0
 31  7  1  0
 30 12  1  0
 28 17  1  0
M  CHG  2  25   1  27  -1
M  END
>  <cnnaffinity>  (1) 
-6.05575

>  <filename>  (1) 
O=[N+]([O-])c1cccc(-c2[nH]nc3c2C[C@@H](c2cccnc2)C3)c1

$$$$
