
     RDKit          3D

 34 36  0  0  0  0  0  0  0  0999 V2000
    9.2958    0.7295   20.1459 H   0  0  0  0  0  0  0  0  0  0  0  0
    9.5888   -0.0741   20.8269 C   0  0  0  0  0  0  0  0  0  0  0  0
    8.6601   -0.9394   21.2667 C   0  0  0  0  0  0  0  0  0  0  0  0
    7.2019   -0.9034   20.9903 C   0  0  0  0  0  0  0  0  0  0  0  0
    6.5809   -0.0925   19.9239 C   0  0  0  0  0  0  0  0  0  0  0  0
    7.1924   -0.0364   18.6684 C   0  0  0  0  0  0  0  0  0  0  0  0
    8.1435   -0.5456   18.5106 H   0  0  0  0  0  0  0  0  0  0  0  0
    6.6898    0.6247   17.6206 N   0  0  0  0  0  0  0  0  0  0  0  0
    5.5400    1.2894   17.8108 C   0  0  0  0  0  0  0  0  0  0  0  0
    5.1541    1.8341   16.9524 H   0  0  0  0  0  0  0  0  0  0  0  0
    4.8484    1.3038   19.0289 C   0  0  0  0  0  0  0  0  0  0  0  0
    3.9314    1.8777   19.1166 H   0  0  0  0  0  0  0  0  0  0  0  0
    5.3669    0.5867   20.1054 C   0  0  0  0  0  0  0  0  0  0  0  0
    4.8519    0.5472   21.0671 H   0  0  0  0  0  0  0  0  0  0  0  0
    6.5089   -1.6311   21.7807 N   0  0  0  0  0  0  0  0  0  0  0  0
    7.3859   -2.2523   22.7749 C   0  0  0  0  0  0  0  0  0  0  0  0
    7.1481   -3.3151   22.8428 H   0  0  0  0  0  0  0  0  0  0  0  0
    7.1572   -1.7987   23.7459 H   0  0  0  0  0  0  0  0  0  0  0  0
    8.8508   -1.9761   22.3526 C   0  0  0  0  0  0  0  0  0  0  0  0
    9.3387   -2.8794   21.9726 H   0  0  0  0  0  0  0  0  0  0  0  0
    9.4740   -1.5898   23.1636 H   0  0  0  0  0  0  0  0  0  0  0  0
   10.9693    0.0505   21.3406 C   0  0  0  0  0  0  0  0  0  0  0  0
   11.8734   -1.0197   21.4990 C   0  0  0  0  0  0  0  0  0  0  0  0
   11.5972   -2.0013   21.1243 H   0  0  0  0  0  0  0  0  0  0  0  0
   13.1240   -0.8171   22.1041 C   0  0  0  0  0  0  0  0  0  0  0  0
   13.7889   -1.6603   22.2689 H   0  0  0  0  0  0  0  0  0  0  0  0
   13.5219    0.4637   22.5000 C   0  0  0  0  0  0  0  0  0  0  0  0
   14.5011    0.6558   22.9286 H   0  0  0  0  0  0  0  0  0  0  0  0
   12.6311    1.5291   22.3125 C   0  0  0  0  0  0  0  0  0  0  0  0
   13.0013    2.8923   22.7627 N   0  0  0  0  0  4  0  0  0  0  0  0
   14.1750    3.2152   22.7042 O   0  0  0  0  0  0  0  0  0  0  0  0
   12.1099    3.6240   23.1604 O   0  0  0  0  0  1  0  0  0  0  0  0
   11.3798    1.3369   21.7366 C   0  0  0  0  0  0  0  0  0  0  0  0
   10.7183    2.1911   21.6378 H   0  0  0  0  0  0  0  0  0  0  0  0
  1  2  1  0
  2  3  2  3
  3  4  1  0
  4  5  1  0
  5  6  2  0
  6  7  1  0
  6  8  1  0
  8  9  2  0
  9 10  1  0
  9 11  1  0
 11 12  1  0
 11 13  2  0
 13 14  1  0
  4 15  2  0
 15 16  1  0
 16 17  1  0
 16 18  1  0
 16 19  1  0
 19 20  1  0
 19 21  1  0
  2 22  1  0
 22 23  2  0
 23 24  1  0
 23 25  1  0
 25 26  1  0
 25 27  2  0
 27 28  1  0
 27 29  1  0
 29 30  1  0
 30 31  2  0
 30 32  1  0
 29 33  2  0
 33 34  1  0
 19  3  1  0
 33 22  1  0
 13  5  1  0
M  CHG  2  30   1  32  -1
M  END
>  <cnnaffinity>  (1) 
-6.09185

>  <filename>  (1) 
O=[N+]([O-])c1cccc(C=C2CCN=C2c2cccnc2)c1

$$$$
