
     RDKit          3D

 34 37  0  0  0  0  0  0  0  0999 V2000
    4.9994    1.8526   16.8675 H   0  0  0  0  0  0  0  0  0  0  0  0
    5.4228    1.3038   17.7049 C   0  0  0  0  0  0  0  0  0  0  0  0
    6.5632    0.6397   17.4632 N   0  0  0  0  0  0  0  0  0  0  0  0
    7.1320   -0.0131   18.4809 C   0  0  0  0  0  0  0  0  0  0  0  0
    8.0581   -0.5397   18.2570 H   0  0  0  0  0  0  0  0  0  0  0  0
    6.6095   -0.0299   19.7856 C   0  0  0  0  0  0  0  0  0  0  0  0
    7.3804   -0.6223   20.8958 C   0  0  0  0  0  0  0  0  0  0  0  0
    8.5193   -1.3026   20.6794 N   0  0  0  0  0  0  0  0  0  0  0  0
    8.9444   -1.5715   21.9299 N   0  0  0  0  0  0  0  0  0  0  0  0
   10.0457   -2.2159   22.4708 C   0  0  0  0  0  0  0  0  0  0  0  0
   10.7858   -2.6751   21.8453 H   0  0  0  0  0  0  0  0  0  0  0  0
    9.9203   -2.0972   23.8150 C   0  0  0  0  0  0  0  0  0  0  0  0
   10.5336   -2.4778   24.6137 H   0  0  0  0  0  0  0  0  0  0  0  0
    8.7504   -1.4019   24.1170 N   0  0  0  0  0  0  0  0  0  0  0  0
    8.2757   -1.0227   25.3956 C   0  0  0  0  0  0  0  0  0  0  0  0
    9.1563   -0.6779   26.4396 C   0  0  0  0  0  0  0  0  0  0  0  0
   10.2282   -0.7301   26.2993 H   0  0  0  0  0  0  0  0  0  0  0  0
    8.6628   -0.2073   27.6546 C   0  0  0  0  0  0  0  0  0  0  0  0
    9.3267    0.0239   28.4794 H   0  0  0  0  0  0  0  0  0  0  0  0
    7.2821   -0.0321   27.8085 C   0  0  0  0  0  0  0  0  0  0  0  0
    6.7540    0.6664   29.0060 N   0  0  0  0  0  4  0  0  0  0  0  0
    7.5593    1.1684   29.7734 O   0  0  0  0  0  0  0  0  0  0  0  0
    5.5467    0.7191   29.1580 O   0  0  0  0  0  1  0  0  0  0  0  0
    6.3896   -0.4415   26.8125 C   0  0  0  0  0  0  0  0  0  0  0  0
    5.3227   -0.3169   26.9754 H   0  0  0  0  0  0  0  0  0  0  0  0
    6.8888   -0.9435   25.6183 C   0  0  0  0  0  0  0  0  0  0  0  0
    6.2035   -1.2424   24.8294 H   0  0  0  0  0  0  0  0  0  0  0  0
    8.1448   -1.0927   22.9037 C   0  0  0  0  0  0  0  0  0  0  0  0
    7.0725   -0.4827   22.2715 C   0  0  0  0  0  0  0  0  0  0  0  0
    6.2001   -0.0169   22.7001 H   0  0  0  0  0  0  0  0  0  0  0  0
    5.3818    0.6223   20.0025 C   0  0  0  0  0  0  0  0  0  0  0  0
    4.9031    0.5997   20.9811 H   0  0  0  0  0  0  0  0  0  0  0  0
    4.7887    1.3098   18.9497 C   0  0  0  0  0  0  0  0  0  0  0  0
    3.8670    1.8642   19.0855 H   0  0  0  0  0  0  0  0  0  0  0  0
  1  2  1  0
  2  3  2  0
  3  4  1  0
  4  5  1  0
  4  6  2  0
  6  7  1  0
  7  8  2  0
  8  9  1  0
  9 10  1  0
 10 11  1  0
 10 12  2  0
 12 13  1  0
 12 14  1  0
 14 15  1  0
 15 16  2  0
 16 17  1  0
 16 18  1  0
 18 19  1  0
 18 20  2  0
 20 21  1  0
 21 22  2  0
 21 23  1  0
 20 24  1  0
 24 25  1  0
 24 26  2  0
 26 27  1  0
 14 28  1  0
 28 29  2  0
 29 30  1  0
  6 31  1  0
 31 32  1  0
 31 33  2  0
 33 34  1  0
 33  2  1  0
 29  7  1  0
 28  9  1  0
 26 15  1  0
M  CHG  2  21   1  23  -1
M  END
>  <cnnaffinity>  (1) 
-5.39706

>  <filename>  (1) 
O=[N+]([O-])c1ccc(-n2ccn3nc(-c4cccnc4)cc23)cc1

$$$$
