
     RDKit          3D

 37 40  0  0  0  0  0  0  0  0999 V2000
    4.9457    1.8164   16.9797 H   0  0  0  0  0  0  0  0  0  0  0  0
    5.4028    1.2942   17.8178 C   0  0  0  0  0  0  0  0  0  0  0  0
    6.5638    0.6689   17.5636 N   0  0  0  0  0  0  0  0  0  0  0  0
    7.1536    0.0208   18.5715 C   0  0  0  0  0  0  0  0  0  0  0  0
    8.1087   -0.4499   18.3364 H   0  0  0  0  0  0  0  0  0  0  0  0
    6.6230   -0.0313   19.8728 C   0  0  0  0  0  0  0  0  0  0  0  0
    7.3550   -0.6912   20.9519 C   0  0  0  0  0  0  0  0  0  0  0  0
    8.0769   -1.7855   20.7318 N   0  0  0  0  0  0  0  0  0  0  0  0
    8.5569   -2.0891   21.9373 N   0  0  0  0  0  0  0  0  0  0  0  0
    8.2262   -1.2580   22.9186 C   0  0  0  0  0  0  0  0  0  0  0  0
    7.4465   -0.2857   22.3224 C   0  0  0  0  0  0  0  0  0  0  0  0
    7.0856    0.9579   22.9663 C   0  0  0  0  0  0  0  0  0  0  0  0
    7.2851    2.1861   22.3146 C   0  0  0  0  0  0  0  0  0  0  0  0
    7.6836    2.1926   21.3028 H   0  0  0  0  0  0  0  0  0  0  0  0
    6.9789    3.3706   22.9593 C   0  0  0  0  0  0  0  0  0  0  0  0
    7.1161    4.3255   22.4683 H   0  0  0  0  0  0  0  0  0  0  0  0
    6.4759    3.3212   24.2658 C   0  0  0  0  0  0  0  0  0  0  0  0
    6.1347    4.5872   24.9459 N   0  0  0  0  0  4  0  0  0  0  0  0
    5.6976    4.5255   26.0849 O   0  0  0  0  0  0  0  0  0  0  0  0
    6.3042    5.6341   24.3425 O   0  0  0  0  0  1  0  0  0  0  0  0
    6.2857    2.1078   24.9397 C   0  0  0  0  0  0  0  0  0  0  0  0
    5.8989    2.1211   25.9539 H   0  0  0  0  0  0  0  0  0  0  0  0
    6.6056    0.9281   24.2847 C   0  0  0  0  0  0  0  0  0  0  0  0
    6.4729   -0.0295   24.7850 H   0  0  0  0  0  0  0  0  0  0  0  0
    9.0693   -1.5011   24.1470 C   0  0  0  0  0  0  0  0  0  0  0  0
    9.6665   -0.6038   24.3498 H   0  0  0  0  0  0  0  0  0  0  0  0
    8.4665   -1.7022   25.0397 H   0  0  0  0  0  0  0  0  0  0  0  0
    9.9457   -2.7180   23.7246 C   0  0  0  0  0  0  0  0  0  0  0  0
   11.0071   -2.4919   23.7813 H   0  0  0  0  0  0  0  0  0  0  0  0
    9.7638   -3.5932   24.3480 H   0  0  0  0  0  0  0  0  0  0  0  0
    9.5735   -3.0519   22.2537 C   0  0  0  0  0  0  0  0  0  0  0  0
    9.1557   -4.0563   22.1487 H   0  0  0  0  0  0  0  0  0  0  0  0
   10.4079   -2.8913   21.5664 H   0  0  0  0  0  0  0  0  0  0  0  0
    5.4090    0.6257   20.1213 C   0  0  0  0  0  0  0  0  0  0  0  0
    4.9952    0.6490   21.1296 H   0  0  0  0  0  0  0  0  0  0  0  0
    4.7904    1.2984   19.0746 C   0  0  0  0  0  0  0  0  0  0  0  0
    3.8681    1.8446   19.2283 H   0  0  0  0  0  0  0  0  0  0  0  0
  1  2  1  0
  2  3  2  0
  3  4  1  0
  4  5  1  0
  4  6  2  0
  6  7  1  0
  7  8  2  0
  8  9  1  0
  9 10  1  0
 10 11  2  0
 11 12  1  0
 12 13  2  0
 13 14  1  0
 13 15  1  0
 15 16  1  0
 15 17  2  0
 17 18  1  0
 18 19  2  0
 18 20  1  0
 17 21  1  0
 21 22  1  0
 21 23  2  0
 23 24  1  0
 10 25  1  0
 25 26  1  0
 25 27  1  0
 25 28  1  0
 28 29  1  0
 28 30  1  0
 28 31  1  0
 31 32  1  0
 31 33  1  0
  6 34  1  0
 34 35  1  0
 34 36  2  0
 36 37  1  0
 36  2  1  0
 11  7  1  0
 23 12  1  0
 31  9  1  0
M  CHG  2  18   1  20  -1
M  END
>  <cnnaffinity>  (1) 
-5.6262

>  <filename>  (1) 
O=[N+]([O-])c1ccc(-c2c(-c3cccnc3)nn3c2CCC3)cc1

$$$$
