
     RDKit          3D

 33 36  0  0  0  0  0  0  0  0999 V2000
    4.9608    1.8079   16.9763 H   0  0  0  0  0  0  0  0  0  0  0  0
    5.4059    1.2862   17.8233 C   0  0  0  0  0  0  0  0  0  0  0  0
    6.5619    0.6500   17.5813 N   0  0  0  0  0  0  0  0  0  0  0  0
    7.1544    0.0201   18.5990 C   0  0  0  0  0  0  0  0  0  0  0  0
    8.0979   -0.4678   18.3672 H   0  0  0  0  0  0  0  0  0  0  0  0
    6.6409   -0.0034   19.9049 C   0  0  0  0  0  0  0  0  0  0  0  0
    7.3867   -0.6762   20.9673 C   0  0  0  0  0  0  0  0  0  0  0  0
    8.0563   -1.8538   20.7445 N   0  0  0  0  0  0  0  0  0  0  0  0
    8.4632   -2.2076   21.9351 C   0  0  0  0  0  0  0  0  0  0  0  0
    9.3310   -3.5450   22.6213 S   0  0  0  0  0  0  0  0  0  0  0  0
    9.4163   -2.7325   24.1663 C   0  0  0  0  0  0  0  0  0  0  0  0
    9.9983   -3.1932   24.9561 H   0  0  0  0  0  0  0  0  0  0  0  0
    8.7338   -1.5726   24.1631 C   0  0  0  0  0  0  0  0  0  0  0  0
    8.5683   -0.8396   24.9460 H   0  0  0  0  0  0  0  0  0  0  0  0
    8.1632   -1.3107   22.9202 N   0  0  0  0  0  0  0  0  0  0  0  0
    7.4826   -0.2829   22.3018 C   0  0  0  0  0  0  0  0  0  0  0  0
    7.0825    0.9412   22.9860 C   0  0  0  0  0  0  0  0  0  0  0  0
    7.3010    2.1868   22.3687 C   0  0  0  0  0  0  0  0  0  0  0  0
    7.7537    2.2018   21.3832 H   0  0  0  0  0  0  0  0  0  0  0  0
    6.9075    3.3706   22.9941 C   0  0  0  0  0  0  0  0  0  0  0  0
    7.0741    4.3254   22.5056 H   0  0  0  0  0  0  0  0  0  0  0  0
    6.2870    3.3280   24.2416 C   0  0  0  0  0  0  0  0  0  0  0  0
    5.9640    4.2269   24.7534 H   0  0  0  0  0  0  0  0  0  0  0  0
    6.0660    2.0865   24.8474 C   0  0  0  0  0  0  0  0  0  0  0  0
    5.4119    2.0288   26.1775 N   0  0  0  0  0  4  0  0  0  0  0  0
    5.2403    0.9313   26.6810 O   0  0  0  0  0  0  0  0  0  0  0  0
    5.0787    3.0778   26.7029 O   0  0  0  0  0  1  0  0  0  0  0  0
    6.4516    0.8941   24.2376 C   0  0  0  0  0  0  0  0  0  0  0  0
    6.2317   -0.0529   24.7192 H   0  0  0  0  0  0  0  0  0  0  0  0
    5.4159    0.6512   20.1388 C   0  0  0  0  0  0  0  0  0  0  0  0
    4.9793    0.6732   21.1389 H   0  0  0  0  0  0  0  0  0  0  0  0
    4.7909    1.3042   19.0799 C   0  0  0  0  0  0  0  0  0  0  0  0
    3.8604    1.8475   19.2135 H   0  0  0  0  0  0  0  0  0  0  0  0
  1  2  1  0
  2  3  2  0
  3  4  1  0
  4  5  1  0
  4  6  2  0
  6  7  1  0
  7  8  1  0
  8  9  2  0
  9 10  1  0
 10 11  1  0
 11 12  1  0
 11 13  2  0
 13 14  1  0
 13 15  1  0
 15 16  1  0
 16 17  1  0
 17 18  2  0
 18 19  1  0
 18 20  1  0
 20 21  1  0
 20 22  2  0
 22 23  1  0
 22 24  1  0
 24 25  1  0
 25 26  2  0
 25 27  1  0
 24 28  2  0
 28 29  1  0
  6 30  1  0
 30 31  1  0
 30 32  2  0
 32 33  1  0
 32  2  1  0
 16  7  2  0
 28 17  1  0
 15  9  1  0
M  CHG  2  25   1  27  -1
M  END
>  <cnnaffinity>  (1) 
-5.59078

>  <filename>  (1) 
O=[N+]([O-])c1cccc(-c2c(-c3cccnc3)nc3sccn23)c1

$$$$
