
     RDKit          3D

 34 36  0  0  0  0  0  0  0  0999 V2000
    6.6458   -1.3190   21.6750 H   0  0  0  0  0  0  0  0  0  0  0  0
    7.2860   -0.6983   21.0359 C   0  0  0  0  0  0  0  0  0  0  0  0
    8.5706   -0.4978   21.3805 C   0  0  0  0  0  0  0  0  0  0  0  0
    9.3597   -1.1384   22.4537 C   0  0  0  0  0  0  0  0  0  0  0  0
    8.8824   -2.3272   23.2172 C   0  0  0  0  0  0  0  0  0  0  0  0
    9.1055   -2.4061   24.6042 C   0  0  0  0  0  0  0  0  0  0  0  0
    9.6131   -1.5861   25.1087 H   0  0  0  0  0  0  0  0  0  0  0  0
    8.6520   -3.5147   25.3278 C   0  0  0  0  0  0  0  0  0  0  0  0
    8.7979   -3.5627   26.4052 H   0  0  0  0  0  0  0  0  0  0  0  0
    7.9905   -4.5690   24.6822 C   0  0  0  0  0  0  0  0  0  0  0  0
    7.6389   -5.4431   25.2227 H   0  0  0  0  0  0  0  0  0  0  0  0
    7.7881   -4.4874   23.2995 C   0  0  0  0  0  0  0  0  0  0  0  0
    7.0461   -5.5504   22.5656 N   0  0  0  0  0  4  0  0  0  0  0  0
    7.0072   -5.4695   21.3462 O   0  0  0  0  0  0  0  0  0  0  0  0
    6.5151   -6.4372   23.2061 O   0  0  0  0  0  1  0  0  0  0  0  0
    8.2298   -3.3837   22.5675 C   0  0  0  0  0  0  0  0  0  0  0  0
    8.0135   -3.3571   21.5035 H   0  0  0  0  0  0  0  0  0  0  0  0
   10.5073   -0.6021   22.6572 N   0  0  0  0  0  0  0  0  0  0  0  0
   10.6995    0.5089   21.7247 C   0  0  0  0  0  0  0  0  0  0  0  0
   10.7604    1.4288   22.3113 H   0  0  0  0  0  0  0  0  0  0  0  0
   11.6603    0.3851   21.2188 H   0  0  0  0  0  0  0  0  0  0  0  0
    9.4869    0.5265   20.7638 C   0  0  0  0  0  0  0  0  0  0  0  0
    9.7400    0.1847   19.7607 H   0  0  0  0  0  0  0  0  0  0  0  0
    8.9891    1.4947   20.6832 H   0  0  0  0  0  0  0  0  0  0  0  0
    6.6016   -0.0442   19.8959 C   0  0  0  0  0  0  0  0  0  0  0  0
    7.1350    0.0306   18.5889 C   0  0  0  0  0  0  0  0  0  0  0  0
    8.0775   -0.4591   18.3524 H   0  0  0  0  0  0  0  0  0  0  0  0
    6.5541    0.6734   17.5663 N   0  0  0  0  0  0  0  0  0  0  0  0
    5.3986    1.3061   17.8196 C   0  0  0  0  0  0  0  0  0  0  0  0
    4.9524    1.8397   16.9854 H   0  0  0  0  0  0  0  0  0  0  0  0
    4.7690    1.3029   19.0707 C   0  0  0  0  0  0  0  0  0  0  0  0
    3.8447    1.8574   19.2146 H   0  0  0  0  0  0  0  0  0  0  0  0
    5.3735    0.6070   20.1170 C   0  0  0  0  0  0  0  0  0  0  0  0
    4.9404    0.6026   21.1186 H   0  0  0  0  0  0  0  0  0  0  0  0
  1  2  1  0
  2  3  2  3
  3  4  1  0
  4  5  1  0
  5  6  2  0
  6  7  1  0
  6  8  1  0
  8  9  1  0
  8 10  2  0
 10 11  1  0
 10 12  1  0
 12 13  1  0
 13 14  2  0
 13 15  1  0
 12 16  2  0
 16 17  1  0
  4 18  2  0
 18 19  1  0
 19 20  1  0
 19 21  1  0
 19 22  1  0
 22 23  1  0
 22 24  1  0
  2 25  1  0
 25 26  2  0
 26 27  1  0
 26 28  1  0
 28 29  2  0
 29 30  1  0
 29 31  1  0
 31 32  1  0
 31 33  2  0
 33 34  1  0
 22  3  1  0
 33 25  1  0
 16  5  1  0
M  CHG  2  13   1  15  -1
M  END
>  <cnnaffinity>  (1) 
-5.53466

>  <filename>  (1) 
O=[N+]([O-])c1cccc(C2=NCCC2=Cc2cccnc2)c1

$$$$
