
     RDKit          3D

 30 32  0  0  0  0  0  0  0  0999 V2000
    4.9280    1.7948   16.9879 H   0  0  0  0  0  0  0  0  0  0  0  0
    5.3987    1.2968   17.8332 C   0  0  0  0  0  0  0  0  0  0  0  0
    6.5629    0.6789   17.5750 N   0  0  0  0  0  0  0  0  0  0  0  0
    7.1586    0.0492   18.5909 C   0  0  0  0  0  0  0  0  0  0  0  0
    8.1076   -0.4365   18.3625 H   0  0  0  0  0  0  0  0  0  0  0  0
    6.6378    0.0124   19.8934 C   0  0  0  0  0  0  0  0  0  0  0  0
    7.3781   -0.7124   20.9243 C   0  0  0  0  0  0  0  0  0  0  0  0
    7.9804   -1.8426   20.7043 N   0  0  0  0  0  0  0  0  0  0  0  0
    8.4821   -2.1845   21.9193 N   0  0  0  0  0  0  0  0  0  0  0  0
    9.0261   -3.0198   22.0731 H   0  0  0  0  0  0  0  0  0  0  0  0
    8.2528   -1.2885   22.8930 C   0  0  0  0  0  0  0  0  0  0  0  0
    8.8044   -1.3922   24.4544 S   0  0  0  0  0  0  0  0  0  0  0  0
    7.5072   -0.3186   22.2460 N   0  0  0  0  0  0  0  0  0  0  0  0
    7.1095    0.9323   22.8279 C   0  0  0  0  0  0  0  0  0  0  0  0
    7.5129    2.1370   22.2358 C   0  0  0  0  0  0  0  0  0  0  0  0
    8.0892    2.1125   21.3165 H   0  0  0  0  0  0  0  0  0  0  0  0
    7.1215    3.3476   22.8137 C   0  0  0  0  0  0  0  0  0  0  0  0
    7.4056    4.2858   22.3502 H   0  0  0  0  0  0  0  0  0  0  0  0
    6.3515    3.3738   23.9773 C   0  0  0  0  0  0  0  0  0  0  0  0
    6.0452    4.3076   24.4399 H   0  0  0  0  0  0  0  0  0  0  0  0
    5.9700    2.1591   24.5545 C   0  0  0  0  0  0  0  0  0  0  0  0
    5.1705    2.1697   25.8046 N   0  0  0  0  0  4  0  0  0  0  0  0
    4.8553    3.2483   26.2834 O   0  0  0  0  0  0  0  0  0  0  0  0
    4.8667    1.0936   26.2921 O   0  0  0  0  0  1  0  0  0  0  0  0
    6.3384    0.9325   23.9883 C   0  0  0  0  0  0  0  0  0  0  0  0
    6.0618   -0.0087   24.4521 H   0  0  0  0  0  0  0  0  0  0  0  0
    5.4199    0.6529   20.1494 C   0  0  0  0  0  0  0  0  0  0  0  0
    5.0092    0.6451   21.1627 H   0  0  0  0  0  0  0  0  0  0  0  0
    4.7936    1.3107   19.0964 C   0  0  0  0  0  0  0  0  0  0  0  0
    3.8653    1.8474   19.2427 H   0  0  0  0  0  0  0  0  0  0  0  0
  1  2  1  0
  2  3  2  0
  3  4  1  0
  4  5  1  0
  4  6  2  0
  6  7  1  0
  7  8  2  0
  8  9  1  0
  9 10  1  0
  9 11  1  0
 11 12  2  0
 11 13  1  0
 13 14  1  0
 14 15  2  0
 15 16  1  0
 15 17  1  0
 17 18  1  0
 17 19  2  0
 19 20  1  0
 19 21  1  0
 21 22  1  0
 22 23  2  0
 22 24  1  0
 21 25  2  0
 25 26  1  0
  6 27  1  0
 27 28  1  0
 27 29  2  0
 29 30  1  0
 29  2  1  0
 13  7  1  0
 25 14  1  0
M  CHG  2  22   1  24  -1
M  END
>  <cnnaffinity>  (1) 
-5.13102

>  <filename>  (1) 
O=[N+]([O-])c1cccc(-n2c(-c3cccnc3)n[nH]c2=S)c1

$$$$
