
     RDKit          3D

 29 30  0  0  0  0  0  0  0  0999 V2000
    4.9284    1.8019   16.9509 H   0  0  0  0  0  0  0  0  0  0  0  0
    5.3760    1.2809   17.7993 C   0  0  0  0  0  0  0  0  0  0  0  0
    6.5370    0.6506   17.5691 N   0  0  0  0  0  0  0  0  0  0  0  0
    7.1284    0.0429   18.6076 C   0  0  0  0  0  0  0  0  0  0  0  0
    8.0844   -0.4326   18.3887 H   0  0  0  0  0  0  0  0  0  0  0  0
    6.6098    0.0148   19.9186 C   0  0  0  0  0  0  0  0  0  0  0  0
    7.3870   -0.5838   21.0717 C   0  0  0  0  0  0  0  0  0  0  0  0
    6.7410   -0.8551   21.9109 H   0  0  0  0  0  0  0  0  0  0  0  0
    7.9281   -1.4774   20.7446 H   0  0  0  0  0  0  0  0  0  0  0  0
    8.7762    0.4244   21.8017 S   0  0  0  0  0  4  0  0  0  0  0  0
    9.5683    0.9216   20.6210 O   0  0  0  0  0  0  0  0  0  0  0  0
    7.8534    1.8624   22.4429 C   0  0  0  0  0  0  0  0  0  0  0  0
    7.5646    2.7911   21.4422 C   0  0  0  0  0  0  0  0  0  0  0  0
    7.8983    2.4898   20.4541 H   0  0  0  0  0  0  0  0  0  0  0  0
    6.9020    3.9865   21.7226 C   0  0  0  0  0  0  0  0  0  0  0  0
    6.6314    4.6857   20.9296 H   0  0  0  0  0  0  0  0  0  0  0  0
    6.5762    4.2777   23.0410 C   0  0  0  0  0  0  0  0  0  0  0  0
    6.0795    5.2139   23.2805 H   0  0  0  0  0  0  0  0  0  0  0  0
    6.8589    3.3607   24.0494 C   0  0  0  0  0  0  0  0  0  0  0  0
    6.5840    3.6116   25.0657 H   0  0  0  0  0  0  0  0  0  0  0  0
    7.4825    2.1214   23.7792 C   0  0  0  0  0  0  0  0  0  0  0  0
    7.6981    1.1372   24.9242 C   0  0  0  0  0  0  0  0  0  0  0  0
    7.2428    1.6203   26.0979 F   0  0  0  0  0  0  0  0  0  0  0  0
    7.0652   -0.0352   24.7049 F   0  0  0  0  0  0  0  0  0  0  0  0
    8.9956    0.8401   25.1117 F   0  0  0  0  0  0  0  0  0  0  0  0
    5.3663    0.6258   20.1169 C   0  0  0  0  0  0  0  0  0  0  0  0
    4.8950    0.6055   21.1006 H   0  0  0  0  0  0  0  0  0  0  0  0
    4.7490    1.2801   19.0454 C   0  0  0  0  0  0  0  0  0  0  0  0
    3.8074    1.7990   19.1664 H   0  0  0  0  0  0  0  0  0  0  0  0
  1  2  1  0
  2  3  2  0
  3  4  1  0
  4  5  1  0
  4  6  2  0
  6  7  1  0
  7  8  1  0
  7  9  1  0
 10  7  1  6
 10 11  2  0
 10 12  1  0
 12 13  2  0
 13 14  1  0
 13 15  1  0
 15 16  1  0
 15 17  2  0
 17 18  1  0
 17 19  1  0
 19 20  1  0
 19 21  2  0
 21 22  1  0
 22 23  1  0
 22 24  1  0
 22 25  1  0
  6 26  1  0
 26 27  1  0
 26 28  2  0
 28 29  1  0
 28  2  1  0
 21 12  1  0
M  END
>  <cnnaffinity>  (1) 
-4.67377

>  <filename>  (1) 
O=[S@](Cc1cccnc1)c1ccccc1C(F)(F)F

$$$$
