
     RDKit          3D

 32 34  0  0  0  0  0  0  0  0999 V2000
    6.2241   -4.7027   29.3353 H   0  0  0  0  0  0  0  0  0  0  0  0
    5.9955   -4.1704   28.5529 O   0  0  0  0  0  0  0  0  0  0  0  0
    7.0917   -4.4983   27.8441 C   0  0  0  0  0  0  0  0  0  0  0  0
    7.8390   -5.3189   28.3370 O   0  0  0  0  0  0  0  0  0  0  0  0
    7.2689   -3.8014   26.5524 C   0  0  0  0  0  0  0  0  0  0  0  0
    8.2589   -4.2511   25.6557 C   0  0  0  0  0  0  0  0  0  0  0  0
    8.8914   -5.0984   25.9290 H   0  0  0  0  0  0  0  0  0  0  0  0
    8.4593   -3.5868   24.4457 C   0  0  0  0  0  0  0  0  0  0  0  0
    9.2135   -3.9103   23.7384 H   0  0  0  0  0  0  0  0  0  0  0  0
    7.6797   -2.4654   24.1188 C   0  0  0  0  0  0  0  0  0  0  0  0
    7.8387   -1.8114   22.8671 N   0  0  0  0  0  0  0  0  0  0  0  0
    6.8215   -1.2417   22.1047 C   0  0  0  0  0  0  0  0  0  0  0  0
    5.8017   -1.3540   22.4060 H   0  0  0  0  0  0  0  0  0  0  0  0
    7.3432   -0.7053   20.9803 C   0  0  0  0  0  0  0  0  0  0  0  0
    6.6656    0.0150   19.8928 C   0  0  0  0  0  0  0  0  0  0  0  0
    7.1760    0.0635   18.5815 C   0  0  0  0  0  0  0  0  0  0  0  0
    8.1115   -0.4315   18.3289 H   0  0  0  0  0  0  0  0  0  0  0  0
    6.5688    0.6800   17.5604 N   0  0  0  0  0  0  0  0  0  0  0  0
    5.4080    1.3027   17.8146 C   0  0  0  0  0  0  0  0  0  0  0  0
    4.9374    1.8018   16.9729 H   0  0  0  0  0  0  0  0  0  0  0  0
    4.8041    1.3226   19.0752 C   0  0  0  0  0  0  0  0  0  0  0  0
    3.8677    1.8499   19.2188 H   0  0  0  0  0  0  0  0  0  0  0  0
    5.4379    0.6682   20.1291 C   0  0  0  0  0  0  0  0  0  0  0  0
    5.0019    0.6755   21.1306 H   0  0  0  0  0  0  0  0  0  0  0  0
    8.7022   -0.9979   21.0309 N   0  0  0  0  0  0  0  0  0  0  0  0
    9.4618   -0.6927   20.4561 H   0  0  0  0  0  0  0  0  0  0  0  0
    9.0481   -1.6513   22.1904 C   0  0  0  0  0  0  0  0  0  0  0  0
   10.1687   -1.9961   22.5010 O   0  0  0  0  0  0  0  0  0  0  0  0
    6.7107   -2.0018   25.0258 C   0  0  0  0  0  0  0  0  0  0  0  0
    6.1105   -1.1300   24.7797 H   0  0  0  0  0  0  0  0  0  0  0  0
    6.5072   -2.6582   26.2361 C   0  0  0  0  0  0  0  0  0  0  0  0
    5.7774   -2.2804   26.9536 H   0  0  0  0  0  0  0  0  0  0  0  0
  1  2  1  0
  2  3  1  0
  3  4  2  0
  3  5  1  0
  5  6  2  0
  6  7  1  0
  6  8  1  0
  8  9  1  0
  8 10  2  0
 10 11  1  0
 11 12  1  0
 12 13  1  0
 12 14  2  0
 14 15  1  0
 15 16  2  0
 16 17  1  0
 16 18  1  0
 18 19  2  0
 19 20  1  0
 19 21  1  0
 21 22  1  0
 21 23  2  0
 23 24  1  0
 14 25  1  0
 25 26  1  0
 25 27  1  0
 27 28  2  0
 10 29  1  0
 29 30  1  0
 29 31  2  0
 31 32  1  0
 31  5  1  0
 27 11  1  0
 23 15  1  0
M  END
>  <cnnaffinity>  (1) 
-5.18944

>  <filename>  (1) 
O=C(O)c1ccc(-n2cc(-c3cccnc3)[nH]c2=O)cc1

$$$$
