
     RDKit          3D

 39 41  0  0  0  0  0  0  0  0999 V2000
    4.9281    1.7758   17.0704 H   0  0  0  0  0  0  0  0  0  0  0  0
    5.4396    1.2452   17.8716 C   0  0  0  0  0  0  0  0  0  0  0  0
    6.5924    0.6408   17.5374 N   0  0  0  0  0  0  0  0  0  0  0  0
    7.2656    0.0047   18.4974 C   0  0  0  0  0  0  0  0  0  0  0  0
    8.1859   -0.4933   18.2064 H   0  0  0  0  0  0  0  0  0  0  0  0
    6.8204   -0.0675   19.8291 C   0  0  0  0  0  0  0  0  0  0  0  0
    7.6383   -0.7037   20.8161 N   0  0  0  0  0  0  0  0  0  0  0  0
    8.9728   -0.4644   20.9310 N   0  0  0  0  0  0  0  0  0  0  0  0
    9.3927   -1.1702   21.9084 N   0  0  0  0  0  0  0  0  0  0  0  0
    8.3914   -1.8992   22.4779 N   0  0  0  0  0  0  0  0  0  0  0  0
    7.3291   -1.5897   21.7850 C   0  0  0  0  0  0  0  0  0  0  0  0
    6.0768   -2.0967   21.8327 O   0  0  0  0  0  0  0  0  0  0  0  0
    5.8098   -2.8014   23.0307 N   0  0  0  0  0  0  0  0  0  0  0  0
    4.8905   -2.5169   23.3433 H   0  0  0  0  0  0  0  0  0  0  0  0
    5.8002   -4.2180   22.9461 C   0  0  0  0  0  0  0  0  0  0  0  0
    6.2012   -4.9040   22.0418 O   0  0  0  0  0  0  0  0  0  0  0  0
    5.3226   -4.6699   24.1611 N   0  0  0  0  0  0  0  0  0  0  0  0
    5.3155   -3.9075   24.8200 H   0  0  0  0  0  0  0  0  0  0  0  0
    5.9021   -5.9027   24.7090 C   0  0  0  0  0  0  0  0  0  0  0  0
    5.9976   -6.5851   23.8529 H   0  0  0  0  0  0  0  0  0  0  0  0
    7.3169   -5.6470   25.2994 C   0  0  0  0  0  0  0  0  0  0  0  0
    7.8822   -6.5831   25.3132 H   0  0  0  0  0  0  0  0  0  0  0  0
    7.8655   -4.9897   24.6074 H   0  0  0  0  0  0  0  0  0  0  0  0
    7.3111   -5.0755   26.7301 C   0  0  0  0  0  0  0  0  0  0  0  0
    6.9010   -4.0583   26.7045 H   0  0  0  0  0  0  0  0  0  0  0  0
    8.3392   -4.9746   27.0991 H   0  0  0  0  0  0  0  0  0  0  0  0
    6.4510   -5.9240   27.6802 C   0  0  0  0  0  0  0  0  0  0  0  0
    6.8716   -6.9386   27.7520 H   0  0  0  0  0  0  0  0  0  0  0  0
    6.4773   -5.5079   28.6956 H   0  0  0  0  0  0  0  0  0  0  0  0
    5.0033   -5.9950   27.1644 C   0  0  0  0  0  0  0  0  0  0  0  0
    4.5519   -4.9910   27.2106 H   0  0  0  0  0  0  0  0  0  0  0  0
    4.3943   -6.6358   27.8154 H   0  0  0  0  0  0  0  0  0  0  0  0
    4.9437   -6.5495   25.7262 C   0  0  0  0  0  0  0  0  0  0  0  0
    5.2065   -7.6108   25.7638 H   0  0  0  0  0  0  0  0  0  0  0  0
    3.9243   -6.4883   25.3266 H   0  0  0  0  0  0  0  0  0  0  0  0
    5.5824    0.4910   20.1609 C   0  0  0  0  0  0  0  0  0  0  0  0
    5.1643    0.3875   21.1616 H   0  0  0  0  0  0  0  0  0  0  0  0
    4.8939    1.1847   19.1574 C   0  0  0  0  0  0  0  0  0  0  0  0
    3.9514    1.6819   19.3598 H   0  0  0  0  0  0  0  0  0  0  0  0
  1  2  1  0
  2  3  2  0
  3  4  1  0
  4  5  1  0
  4  6  2  0
  6  7  1  0
  7  8  1  0
  8  9  2  0
  9 10  1  0
 10 11  2  0
 11 12  1  0
 12 13  1  0
 13 14  1  0
 13 15  1  0
 15 16  2  0
 15 17  1  0
 17 18  1  0
 17 19  1  0
 19 20  1  0
 19 21  1  0
 21 22  1  0
 21 23  1  0
 21 24  1  0
 24 25  1  0
 24 26  1  0
 24 27  1  0
 27 28  1  0
 27 29  1  0
 27 30  1  0
 30 31  1  0
 30 32  1  0
 30 33  1  0
 33 34  1  0
 33 35  1  0
  6 36  1  0
 36 37  1  0
 36 38  2  0
 38 39  1  0
 38  2  1  0
 11  7  1  0
 33 19  1  0
M  END
>  <cnnaffinity>  (1) 
-5.48514

>  <filename>  (1) 
O=C(NOc1nnnn1-c1cccnc1)NC1CCCCC1

$$$$
