
     RDKit          3D

 30 31  0  0  0  0  0  0  0  0999 V2000
   12.4823    2.6787   21.5814 H   0  0  0  0  0  0  0  0  0  0  0  0
   11.5938    2.4816   21.2283 O   0  0  0  0  0  0  0  0  0  0  0  0
   10.8881    2.8944   22.2983 C   0  0  0  0  0  0  0  0  0  0  0  0
   11.4988    3.3121   23.2528 O   0  0  0  0  0  0  0  0  0  0  0  0
    9.3913    2.7884   22.1535 C   0  0  0  0  0  0  0  0  0  0  0  0
    9.1475    3.1438   21.1480 H   0  0  0  0  0  0  0  0  0  0  0  0
    8.9544    3.4872   22.8710 H   0  0  0  0  0  0  0  0  0  0  0  0
    8.7737    1.3983   22.4036 C   0  0  0  0  0  0  0  0  0  0  0  0
    7.6874    1.5098   22.2666 H   0  0  0  0  0  0  0  0  0  0  0  0
    8.9175    1.1078   23.4550 H   0  0  0  0  0  0  0  0  0  0  0  0
    9.3026    0.2818   21.4778 C   0  0  0  0  0  0  0  0  0  0  0  0
   10.3301    0.0226   21.7443 H   0  0  0  0  0  0  0  0  0  0  0  0
    9.3155    0.6314   20.4409 H   0  0  0  0  0  0  0  0  0  0  0  0
    8.4951   -0.9644   21.5852 C   0  0  0  0  0  0  0  0  0  0  0  0
    8.7375   -1.8896   22.4615 N   0  0  0  0  0  0  0  0  0  0  0  0
    7.6582   -2.7145   22.3684 N   0  0  0  0  0  0  0  0  0  0  0  0
    7.4308   -3.4065   23.0625 H   0  0  0  0  0  0  0  0  0  0  0  0
    6.7255   -2.3272   21.4806 C   0  0  0  0  0  0  0  0  0  0  0  0
    5.2759   -3.1026   21.2502 S   0  0  0  0  0  0  0  0  0  0  0  0
    7.3024   -1.2041   20.9019 N   0  0  0  0  0  0  0  0  0  0  0  0
    6.6919   -0.3700   19.8993 C   0  0  0  0  0  0  0  0  0  0  0  0
    7.2384   -0.2258   18.6095 C   0  0  0  0  0  0  0  0  0  0  0  0
    8.1555   -0.7551   18.3509 H   0  0  0  0  0  0  0  0  0  0  0  0
    6.6948    0.5503   17.6607 N   0  0  0  0  0  0  0  0  0  0  0  0
    5.5805    1.2328   17.9644 C   0  0  0  0  0  0  0  0  0  0  0  0
    5.1585    1.8479   17.1678 H   0  0  0  0  0  0  0  0  0  0  0  0
    4.9650    1.1600   19.2191 C   0  0  0  0  0  0  0  0  0  0  0  0
    4.0686    1.7404   19.4069 H   0  0  0  0  0  0  0  0  0  0  0  0
    5.5282    0.3374   20.2039 C   0  0  0  0  0  0  0  0  0  0  0  0
    5.1008    0.2438   21.2031 H   0  0  0  0  0  0  0  0  0  0  0  0
  1  2  1  0
  2  3  1  0
  3  4  2  0
  3  5  1  0
  5  6  1  0
  5  7  1  0
  5  8  1  0
  8  9  1  0
  8 10  1  0
  8 11  1  0
 11 12  1  0
 11 13  1  0
 11 14  1  0
 14 15  2  0
 15 16  1  0
 16 17  1  0
 16 18  1  0
 18 19  2  0
 18 20  1  0
 20 21  1  0
 21 22  2  0
 22 23  1  0
 22 24  1  0
 24 25  2  0
 25 26  1  0
 25 27  1  0
 27 28  1  0
 27 29  2  0
 29 30  1  0
 20 14  1  0
 29 21  1  0
M  END
>  <cnnaffinity>  (1) 
-4.78072

>  <filename>  (1) 
O=C(O)CCCc1n[nH]c(=S)n1-c1cccnc1

$$$$
