
     RDKit          3D

 34 35  0  0  0  0  0  0  0  0999 V2000
   14.5417    3.0834   23.6516 H   0  0  0  0  0  0  0  0  0  0  0  0
   13.9406    3.2749   22.9002 O   0  0  0  0  0  0  0  0  0  0  0  0
   12.6236    3.1431   23.3666 N   0  0  0  0  0  0  0  0  0  0  0  0
   12.0577    3.8518   22.9146 H   0  0  0  0  0  0  0  0  0  0  0  0
   11.9645    1.9065   23.3467 C   0  0  0  0  0  0  0  0  0  0  0  0
   12.5137    0.8311   23.3766 O   0  0  0  0  0  0  0  0  0  0  0  0
   10.4551    2.0905   23.3936 C   0  0  0  0  0  0  0  0  0  0  0  0
   10.2281    3.0279   23.9136 H   0  0  0  0  0  0  0  0  0  0  0  0
   10.0958    1.2680   24.0168 H   0  0  0  0  0  0  0  0  0  0  0  0
    9.7555    2.0437   22.0186 C   0  0  0  0  0  0  0  0  0  0  0  0
   10.1631    2.8092   21.3458 H   0  0  0  0  0  0  0  0  0  0  0  0
    9.9601    1.0720   21.5445 H   0  0  0  0  0  0  0  0  0  0  0  0
    8.2335    2.2486   22.0922 C   0  0  0  0  0  0  0  0  0  0  0  0
    7.8331    2.2797   21.0700 H   0  0  0  0  0  0  0  0  0  0  0  0
    8.0012    3.2272   22.5378 H   0  0  0  0  0  0  0  0  0  0  0  0
    7.4670    1.1488   22.8555 C   0  0  0  0  0  0  0  0  0  0  0  0
    6.3943    1.3765   22.8196 H   0  0  0  0  0  0  0  0  0  0  0  0
    7.7304    1.1559   23.9217 H   0  0  0  0  0  0  0  0  0  0  0  0
    7.7190   -0.2233   22.2847 C   0  0  0  0  0  0  0  0  0  0  0  0
    7.4200   -0.6835   20.9569 C   0  0  0  0  0  0  0  0  0  0  0  0
    6.6610    0.0063   19.9004 C   0  0  0  0  0  0  0  0  0  0  0  0
    7.1714    0.0370   18.5937 C   0  0  0  0  0  0  0  0  0  0  0  0
    8.1088   -0.4601   18.3531 H   0  0  0  0  0  0  0  0  0  0  0  0
    6.5677    0.6639   17.5771 N   0  0  0  0  0  0  0  0  0  0  0  0
    5.4107    1.2917   17.8308 C   0  0  0  0  0  0  0  0  0  0  0  0
    4.9457    1.8086   16.9913 H   0  0  0  0  0  0  0  0  0  0  0  0
    4.7994    1.3066   19.0883 C   0  0  0  0  0  0  0  0  0  0  0  0
    3.8662    1.8407   19.2357 H   0  0  0  0  0  0  0  0  0  0  0  0
    5.4392    0.6503   20.1421 C   0  0  0  0  0  0  0  0  0  0  0  0
    4.9916    0.6378   21.1348 H   0  0  0  0  0  0  0  0  0  0  0  0
    7.9362   -1.8668   20.7305 N   0  0  0  0  0  0  0  0  0  0  0  0
    8.5673   -2.2441   21.8889 O   0  0  0  0  0  0  0  0  0  0  0  0
    8.4335   -1.2607   22.7891 C   0  0  0  0  0  0  0  0  0  0  0  0
    8.9133   -1.4425   23.7431 H   0  0  0  0  0  0  0  0  0  0  0  0
  1  2  1  0
  2  3  1  0
  3  4  1  0
  3  5  1  0
  5  6  2  0
  5  7  1  0
  7  8  1  0
  7  9  1  0
  7 10  1  0
 10 11  1  0
 10 12  1  0
 10 13  1  0
 13 14  1  0
 13 15  1  0
 13 16  1  0
 16 17  1  0
 16 18  1  0
 16 19  1  0
 19 20  1  0
 20 21  1  0
 21 22  2  0
 22 23  1  0
 22 24  1  0
 24 25  2  0
 25 26  1  0
 25 27  1  0
 27 28  1  0
 27 29  2  0
 29 30  1  0
 20 31  2  0
 31 32  1  0
 32 33  1  0
 33 34  1  0
 33 19  2  0
 29 21  1  0
M  END
>  <cnnaffinity>  (1) 
-4.87535

>  <filename>  (1) 
O=C(CCCCc1conc1-c1cccnc1)NO

$$$$
