
     RDKit          3D

 32 34  0  0  0  0  0  0  0  0999 V2000
    5.2627    1.4017   16.7585 H   0  0  0  0  0  0  0  0  0  0  0  0
    5.6637    0.9969   17.6871 C   0  0  0  0  0  0  0  0  0  0  0  0
    6.8878    0.4542   17.6166 N   0  0  0  0  0  0  0  0  0  0  0  0
    7.4119   -0.0358   18.7425 C   0  0  0  0  0  0  0  0  0  0  0  0
    8.4117   -0.4601   18.6636 H   0  0  0  0  0  0  0  0  0  0  0  0
    6.7387   -0.0370   19.9748 C   0  0  0  0  0  0  0  0  0  0  0  0
    7.4148   -0.6737   21.1768 C   0  0  0  0  0  0  0  0  0  0  0  0
    8.7270   -0.3314   21.1709 F   0  0  0  0  0  0  0  0  0  0  0  0
    6.8706   -0.1451   22.3256 F   0  0  0  0  0  0  0  0  0  0  0  0
    7.3196   -2.2547   21.2974 C   0  0  0  0  0  0  0  0  0  0  0  0
    8.2721   -2.9775   21.1160 O   0  0  0  0  0  0  0  0  0  0  0  0
    6.0427   -2.7422   21.5709 N   0  0  0  0  0  0  0  0  0  0  0  0
    5.4741   -2.1900   22.2035 H   0  0  0  0  0  0  0  0  0  0  0  0
    5.7713   -4.1978   21.6263 C   0  0  0  0  0  0  0  0  0  0  0  0
    5.8113   -4.8848   20.4251 C   0  0  0  0  0  0  0  0  0  0  0  0
    6.2818   -4.3325   19.6069 H   0  0  0  0  0  0  0  0  0  0  0  0
    5.4087   -6.1026   20.3162 N   0  0  0  0  0  0  0  0  0  0  0  0
    5.6323   -6.4703   19.3832 H   0  0  0  0  0  0  0  0  0  0  0  0
    5.1813   -5.1552   22.7317 C   0  0  0  0  0  0  0  0  0  0  0  0
    2.8306   -6.7899   22.4230 C   0  0  0  0  0  0  0  0  0  0  0  0
    3.4324   -7.4316   23.1645 H   0  0  0  0  0  0  0  0  0  0  0  0
    2.7479   -6.4831   22.2030 C   0  0  0  0  0  0  0  0  0  0  0  0
    2.4527   -7.2968   21.3520 H   0  0  0  0  0  0  0  0  0  0  0  0
    2.3657   -5.3939   22.7932 C   0  0  0  0  0  0  0  0  0  0  0  0
    2.2564   -5.0715   21.7673 H   0  0  0  0  0  0  0  0  0  0  0  0
    3.6005   -4.5278   23.3148 C   0  0  0  0  0  0  0  0  0  0  0  0
    3.4877   -4.2330   24.4722 H   0  0  0  0  0  0  0  0  0  0  0  0
    5.2053   -5.1395   22.5950 C   0  0  0  0  0  0  0  0  0  0  0  0
    5.4650    0.5463   20.0408 C   0  0  0  0  0  0  0  0  0  0  0  0
    4.9282    0.6173   20.9884 H   0  0  0  0  0  0  0  0  0  0  0  0
    4.9188    1.0634   18.8675 C   0  0  0  0  0  0  0  0  0  0  0  0
    3.9442    1.5374   18.8615 H   0  0  0  0  0  0  0  0  0  0  0  0
  1  2  1  0
  2  3  2  0
  3  4  1  0
  4  5  1  0
  4  6  2  0
  6  7  1  0
  7  8  1  0
  7  9  1  0
  7 10  1  0
 10 11  2  0
 10 12  1  0
 12 13  1  0
 12 14  1  0
 14 15  2  0
 15 16  1  0
 15 17  1  0
 17 18  1  0
 17 19  1  0
 19 20  2  0
 20 21  1  0
 20 22  1  0
 22 23  1  0
 22 24  2  0
 24 25  1  0
 24 26  1  0
 26 27  1  0
 26 28  2  0
  6 29  1  0
 29 30  1  0
 29 31  2  0
 31 32  1  0
 31  2  1  0
 28 14  1  0
 28 19  1  0
M  END
>  <cnnaffinity>  (1) 
-5.09361

>  <filename>  (1) 
O=C(Nc1c[nH]c2ccccc12)C(F)(F)c1cccnc1

$$$$
