
     RDKit          3D

 38 41  0  0  0  0  0  0  0  0999 V2000
    4.9687    1.7986   17.0003 H   0  0  0  0  0  0  0  0  0  0  0  0
    5.4085    1.2685   17.8378 C   0  0  0  0  0  0  0  0  0  0  0  0
    6.5652    0.6340   17.5853 N   0  0  0  0  0  0  0  0  0  0  0  0
    7.1707    0.0181   18.6035 C   0  0  0  0  0  0  0  0  0  0  0  0
    8.1310   -0.4449   18.3730 H   0  0  0  0  0  0  0  0  0  0  0  0
    6.6529   -0.0073   19.9125 C   0  0  0  0  0  0  0  0  0  0  0  0
    7.3825   -0.5857   20.9722 N   0  0  0  0  0  0  0  0  0  0  0  0
    8.2712   -1.6564   20.9173 C   0  0  0  0  0  0  0  0  0  0  0  0
    8.4950   -2.0847   19.9684 H   0  0  0  0  0  0  0  0  0  0  0  0
    8.8381   -1.8448   22.1370 C   0  0  0  0  0  0  0  0  0  0  0  0
    9.5302   -2.5545   22.5478 H   0  0  0  0  0  0  0  0  0  0  0  0
    8.3547   -0.8324   22.9379 N   0  0  0  0  0  0  0  0  0  0  0  0
    8.7675   -0.2707   24.1059 N   0  0  0  0  0  0  0  0  0  0  0  0
    8.0840    0.8657   24.1009 C   0  0  0  0  0  0  0  0  0  0  0  0
    8.2907    1.7435   25.1419 N   0  0  0  0  0  0  0  0  0  0  0  0
    9.1209    1.5806   25.6734 H   0  0  0  0  0  0  0  0  0  0  0  0
    7.5252    2.8673   25.2560 C   0  0  0  0  0  0  0  0  0  0  0  0
    6.4868    3.0299   24.6498 O   0  0  0  0  0  0  0  0  0  0  0  0
    8.0629    3.7947   26.0956 N   0  0  0  0  0  0  0  0  0  0  0  0
    8.8093    3.4843   26.6826 H   0  0  0  0  0  0  0  0  0  0  0  0
    7.5034    5.0785   26.2809 C   0  0  0  0  0  0  0  0  0  0  0  0
    7.5724    5.6750   27.5413 C   0  0  0  0  0  0  0  0  0  0  0  0
    8.0372    5.1328   28.3587 H   0  0  0  0  0  0  0  0  0  0  0  0
    7.0047    6.9385   27.7423 C   0  0  0  0  0  0  0  0  0  0  0  0
    7.0403    7.3963   28.7296 H   0  0  0  0  0  0  0  0  0  0  0  0
    6.3883    7.6103   26.6783 C   0  0  0  0  0  0  0  0  0  0  0  0
    5.9428    8.5889   26.8316 H   0  0  0  0  0  0  0  0  0  0  0  0
    6.3345    7.0148   25.4111 C   0  0  0  0  0  0  0  0  0  0  0  0
    5.8544    7.5248   24.5741 H   0  0  0  0  0  0  0  0  0  0  0  0
    6.8819    5.7482   25.2115 C   0  0  0  0  0  0  0  0  0  0  0  0
    6.8160    5.2475   24.2541 H   0  0  0  0  0  0  0  0  0  0  0  0
    7.2560    1.0731   22.9848 C   0  0  0  0  0  0  0  0  0  0  0  0
    6.6710    1.9432   22.7971 H   0  0  0  0  0  0  0  0  0  0  0  0
    7.4875   -0.0611   22.2458 C   0  0  0  0  0  0  0  0  0  0  0  0
    5.4210    0.6269   20.1565 C   0  0  0  0  0  0  0  0  0  0  0  0
    4.9951    0.6285   21.1611 H   0  0  0  0  0  0  0  0  0  0  0  0
    4.7940    1.2788   19.0942 C   0  0  0  0  0  0  0  0  0  0  0  0
    3.8705    1.8328   19.2398 H   0  0  0  0  0  0  0  0  0  0  0  0
  1  2  1  0
  2  3  2  0
  3  4  1  0
  4  5  1  0
  4  6  2  0
  6  7  1  0
  7  8  1  0
  8  9  1  0
  8 10  2  0
 10 11  1  0
 10 12  1  0
 12 13  1  0
 13 14  2  0
 14 15  1  0
 15 16  1  0
 15 17  1  0
 17 18  2  0
 17 19  1  0
 19 20  1  0
 19 21  1  0
 21 22  2  0
 22 23  1  0
 22 24  1  0
 24 25  1  0
 24 26  2  0
 26 27  1  0
 26 28  1  0
 28 29  1  0
 28 30  2  0
 30 31  1  0
 14 32  1  0
 32 33  1  0
 32 34  2  0
  6 35  1  0
 35 36  1  0
 35 37  2  0
 37 38  1  0
 37  2  1  0
 34  7  1  0
 34 12  1  0
 30 21  1  0
M  END
>  <cnnaffinity>  (1) 
-5.19644

>  <filename>  (1) 
O=C(Nc1ccccc1)Nc1cc2n(-c3cccnc3)ccn2n1

$$$$
