
     RDKit          3D

 35 37  0  0  0  0  0  0  0  0999 V2000
    4.9966    1.7907   17.0585 H   0  0  0  0  0  0  0  0  0  0  0  0
    5.4475    1.2317   17.8766 C   0  0  0  0  0  0  0  0  0  0  0  0
    6.5759    0.5648   17.5819 N   0  0  0  0  0  0  0  0  0  0  0  0
    7.1859   -0.0914   18.5764 C   0  0  0  0  0  0  0  0  0  0  0  0
    8.1075   -0.6133   18.3331 H   0  0  0  0  0  0  0  0  0  0  0  0
    6.6968   -0.1326   19.8942 C   0  0  0  0  0  0  0  0  0  0  0  0
    7.3928   -0.8216   20.9450 N   0  0  0  0  0  0  0  0  0  0  0  0
    6.7096   -1.8365   21.5785 C   0  0  0  0  0  0  0  0  0  0  0  0
    5.6927   -2.0160   21.2668 H   0  0  0  0  0  0  0  0  0  0  0  0
    7.2798   -2.5898   22.5612 C   0  0  0  0  0  0  0  0  0  0  0  0
    6.5875   -3.6437   23.1938 N   0  0  0  0  0  0  0  0  0  0  0  0
    7.0532   -4.0541   23.9812 H   0  0  0  0  0  0  0  0  0  0  0  0
    5.2987   -4.0826   22.9566 C   0  0  0  0  0  0  0  0  0  0  0  0
    4.6271   -3.6868   22.0147 O   0  0  0  0  0  0  0  0  0  0  0  0
    4.7442   -5.1106   23.9277 C   0  0  0  0  0  0  0  0  0  0  0  0
    3.3695   -5.4248   23.8393 C   0  0  0  0  0  0  0  0  0  0  0  0
    2.7379   -4.8592   23.1534 H   0  0  0  0  0  0  0  0  0  0  0  0
    2.8313   -6.4530   24.6144 C   0  0  0  0  0  0  0  0  0  0  0  0
    1.7771   -6.6982   24.5196 H   0  0  0  0  0  0  0  0  0  0  0  0
    3.6334   -7.1621   25.5177 C   0  0  0  0  0  0  0  0  0  0  0  0
    3.2042   -7.9472   26.1390 H   0  0  0  0  0  0  0  0  0  0  0  0
    4.9895   -6.8412   25.6362 C   0  0  0  0  0  0  0  0  0  0  0  0
    5.6186   -7.3537   26.3664 H   0  0  0  0  0  0  0  0  0  0  0  0
    5.5345   -5.8237   24.8509 C   0  0  0  0  0  0  0  0  0  0  0  0
    6.5961   -5.6108   24.9744 H   0  0  0  0  0  0  0  0  0  0  0  0
    8.6158   -2.2677   22.9750 C   0  0  0  0  0  0  0  0  0  0  0  0
    9.0922   -2.8703   23.7483 H   0  0  0  0  0  0  0  0  0  0  0  0
    9.2870   -1.2286   22.3998 C   0  0  0  0  0  0  0  0  0  0  0  0
   10.2801   -0.9088   22.6797 H   0  0  0  0  0  0  0  0  0  0  0  0
    8.7273   -0.4313   21.3171 C   0  0  0  0  0  0  0  0  0  0  0  0
    9.3160    0.4746   20.7508 O   0  0  0  0  0  0  0  0  0  0  0  0
    5.4860    0.5097   20.1728 C   0  0  0  0  0  0  0  0  0  0  0  0
    5.0798    0.4282   21.1839 H   0  0  0  0  0  0  0  0  0  0  0  0
    4.8580    1.2270   19.1486 C   0  0  0  0  0  0  0  0  0  0  0  0
    3.9407    1.7827   19.3216 H   0  0  0  0  0  0  0  0  0  0  0  0
  1  2  1  0
  2  3  2  0
  3  4  1  0
  4  5  1  0
  4  6  2  0
  6  7  1  0
  7  8  1  0
  8  9  1  0
  8 10  2  0
 10 11  1  0
 11 12  1  0
 11 13  1  0
 13 14  2  0
 13 15  1  0
 15 16  2  0
 16 17  1  0
 16 18  1  0
 18 19  1  0
 18 20  2  0
 20 21  1  0
 20 22  1  0
 22 23  1  0
 22 24  2  0
 24 25  1  0
 10 26  1  0
 26 27  1  0
 26 28  2  0
 28 29  1  0
 28 30  1  0
 30 31  2  0
  6 32  1  0
 32 33  1  0
 32 34  2  0
 34 35  1  0
 34  2  1  0
 30  7  1  0
 24 15  1  0
M  END
>  <cnnaffinity>  (1) 
-5.58218

>  <filename>  (1) 
O=C(Nc1ccc(=O)n(-c2cccnc2)c1)c1ccccc1

$$$$
