
     RDKit          3D

 34 36  0  0  0  0  0  0  0  0999 V2000
    4.9289    1.7973   16.9819 H   0  0  0  0  0  0  0  0  0  0  0  0
    5.3920    1.3285   17.8488 C   0  0  0  0  0  0  0  0  0  0  0  0
    6.5741    0.7321   17.6325 N   0  0  0  0  0  0  0  0  0  0  0  0
    7.1637    0.1486   18.6834 C   0  0  0  0  0  0  0  0  0  0  0  0
    8.1213   -0.3313   18.4856 H   0  0  0  0  0  0  0  0  0  0  0  0
    6.6373    0.1279   19.9904 C   0  0  0  0  0  0  0  0  0  0  0  0
    7.3592   -0.5820   21.0684 C   0  0  0  0  0  0  0  0  0  0  0  0
    8.0087   -1.7846   21.0643 C   0  0  0  0  0  0  0  0  0  0  0  0
    8.0357   -2.4708   20.2554 H   0  0  0  0  0  0  0  0  0  0  0  0
    8.5698   -2.0951   22.2714 N   0  0  0  0  0  0  0  0  0  0  0  0
    8.2571   -1.0881   23.0414 C   0  0  0  0  0  0  0  0  0  0  0  0
    8.4627   -0.9923   24.0956 H   0  0  0  0  0  0  0  0  0  0  0  0
    7.5256   -0.1329   22.3658 N   0  0  0  0  0  0  0  0  0  0  0  0
    6.8953    1.0033   22.9029 N   0  0  0  0  0  0  0  0  0  0  0  0
    7.3024    1.8600   22.5564 H   0  0  0  0  0  0  0  0  0  0  0  0
    6.6397    1.0599   24.2829 C   0  0  0  0  0  0  0  0  0  0  0  0
    6.5757    0.0909   25.0084 O   0  0  0  0  0  0  0  0  0  0  0  0
    6.5453    2.3576   24.6919 N   0  0  0  0  0  0  0  0  0  0  0  0
    6.4023    3.0447   23.9757 H   0  0  0  0  0  0  0  0  0  0  0  0
    6.4094    2.7362   26.0427 C   0  0  0  0  0  0  0  0  0  0  0  0
    5.5823    3.8115   26.3775 C   0  0  0  0  0  0  0  0  0  0  0  0
    5.0533    4.3439   25.5908 H   0  0  0  0  0  0  0  0  0  0  0  0
    5.4125    4.1696   27.7199 C   0  0  0  0  0  0  0  0  0  0  0  0
    4.7506    4.9822   28.0026 H   0  0  0  0  0  0  0  0  0  0  0  0
    6.0998    3.4628   28.7114 C   0  0  0  0  0  0  0  0  0  0  0  0
    5.8891    3.8854   30.3829 Cl  0  0  0  0  0  0  0  0  0  0  0  0
    6.9528    2.4054   28.3809 C   0  0  0  0  0  0  0  0  0  0  0  0
    7.4754    1.8532   29.1576 H   0  0  0  0  0  0  0  0  0  0  0  0
    7.1034    2.0390   27.0445 C   0  0  0  0  0  0  0  0  0  0  0  0
    7.7282    1.2004   26.7570 H   0  0  0  0  0  0  0  0  0  0  0  0
    5.3964    0.7590   20.1868 C   0  0  0  0  0  0  0  0  0  0  0  0
    4.9565    0.7621   21.1801 H   0  0  0  0  0  0  0  0  0  0  0  0
    4.7627    1.3627   19.0972 C   0  0  0  0  0  0  0  0  0  0  0  0
    3.8052    1.8620   19.2027 H   0  0  0  0  0  0  0  0  0  0  0  0
  1  2  1  0
  2  3  2  0
  3  4  1  0
  4  5  1  0
  4  6  2  0
  6  7  1  0
  7  8  2  0
  8  9  1  0
  8 10  1  0
 10 11  2  0
 11 12  1  0
 11 13  1  0
 13 14  1  0
 14 15  1  0
 14 16  1  0
 16 17  2  0
 16 18  1  0
 18 19  1  0
 18 20  1  0
 20 21  2  0
 21 22  1  0
 21 23  1  0
 23 24  1  0
 23 25  2  0
 25 26  1  0
 25 27  1  0
 27 28  1  0
 27 29  2  0
 29 30  1  0
  6 31  1  0
 31 32  1  0
 31 33  2  0
 33 34  1  0
 33  2  1  0
 13  7  1  0
 29 20  1  0
M  END
>  <cnnaffinity>  (1) 
-5.04072

>  <filename>  (1) 
O=C(Nc1ccc(Cl)cc1)Nn1cncc1-c1cccnc1

$$$$
