
     RDKit          3D

 34 36  0  0  0  0  0  0  0  0999 V2000
    4.9615    1.7772   17.0010 H   0  0  0  0  0  0  0  0  0  0  0  0
    5.4083    1.2769   17.8590 C   0  0  0  0  0  0  0  0  0  0  0  0
    6.5693    0.6497   17.6257 N   0  0  0  0  0  0  0  0  0  0  0  0
    7.1498    0.0198   18.6499 C   0  0  0  0  0  0  0  0  0  0  0  0
    8.1167   -0.4325   18.4374 H   0  0  0  0  0  0  0  0  0  0  0  0
    6.5961   -0.0551   19.9368 C   0  0  0  0  0  0  0  0  0  0  0  0
    7.4325   -0.7371   20.9720 C   0  0  0  0  0  0  0  0  0  0  0  0
    8.6322   -0.8750   20.8189 O   0  0  0  0  0  0  0  0  0  0  0  0
    6.7518   -1.1816   22.0849 N   0  0  0  0  0  0  0  0  0  0  0  0
    5.7639   -1.3204   21.9533 H   0  0  0  0  0  0  0  0  0  0  0  0
    7.3161   -1.5211   23.3397 C   0  0  0  0  0  0  0  0  0  0  0  0
    8.4682   -0.8086   23.8009 C   0  0  0  0  0  0  0  0  0  0  0  0
    8.8669   -0.0344   23.1506 H   0  0  0  0  0  0  0  0  0  0  0  0
    9.0291   -1.1112   25.0015 C   0  0  0  0  0  0  0  0  0  0  0  0
    9.9036   -0.6164   25.3981 H   0  0  0  0  0  0  0  0  0  0  0  0
    8.5184   -2.1600   25.8667 C   0  0  0  0  0  0  0  0  0  0  0  0
    9.0339   -2.4393   26.9364 O   0  0  0  0  0  0  0  0  0  0  0  0
    7.3486   -2.8353   25.3609 N   0  0  0  0  0  0  0  0  0  0  0  0
    6.7657   -3.9010   26.1331 C   0  0  0  0  0  0  0  0  0  0  0  0
    5.4167   -3.8707   26.5383 C   0  0  0  0  0  0  0  0  0  0  0  0
    4.7801   -3.0245   26.2858 H   0  0  0  0  0  0  0  0  0  0  0  0
    4.8486   -4.8238   27.2845 N   0  0  0  0  0  0  0  0  0  0  0  0
    5.6035   -5.8633   27.6604 C   0  0  0  0  0  0  0  0  0  0  0  0
    5.1012   -6.6199   28.2618 H   0  0  0  0  0  0  0  0  0  0  0  0
    6.9526   -5.9838   27.3137 C   0  0  0  0  0  0  0  0  0  0  0  0
    7.5182   -6.8353   27.6671 H   0  0  0  0  0  0  0  0  0  0  0  0
    7.5531   -4.9855   26.5422 C   0  0  0  0  0  0  0  0  0  0  0  0
    8.6114   -5.0108   26.2811 H   0  0  0  0  0  0  0  0  0  0  0  0
    6.7818   -2.4901   24.1364 C   0  0  0  0  0  0  0  0  0  0  0  0
    5.9017   -3.0539   23.8502 H   0  0  0  0  0  0  0  0  0  0  0  0
    5.3906    0.6252   20.1763 C   0  0  0  0  0  0  0  0  0  0  0  0
    4.9481    0.6823   21.1748 H   0  0  0  0  0  0  0  0  0  0  0  0
    4.7912    1.3023   19.1142 C   0  0  0  0  0  0  0  0  0  0  0  0
    3.8677    1.8552   19.2406 H   0  0  0  0  0  0  0  0  0  0  0  0
  1  2  1  0
  2  3  2  0
  3  4  1  0
  4  5  1  0
  4  6  2  0
  6  7  1  0
  7  8  2  0
  7  9  1  0
  9 10  1  0
  9 11  1  0
 11 12  1  0
 12 13  1  0
 12 14  2  0
 14 15  1  0
 14 16  1  0
 16 17  2  0
 16 18  1  0
 18 19  1  0
 19 20  2  0
 20 21  1  0
 20 22  1  0
 22 23  2  0
 23 24  1  0
 23 25  1  0
 25 26  1  0
 25 27  2  0
 27 28  1  0
 18 29  1  0
 29 30  1  0
  6 31  1  0
 31 32  1  0
 31 33  2  0
 33 34  1  0
 33  2  1  0
 29 11  2  0
 27 19  1  0
M  END
>  <cnnaffinity>  (1) 
-5.35887

>  <filename>  (1) 
O=C(Nc1ccc(=O)n(-c2cccnc2)c1)c1cccnc1

$$$$
