
     RDKit          3D

 29 31  0  0  0  0  0  0  0  0999 V2000
    4.9601    1.7783   16.9988 H   0  0  0  0  0  0  0  0  0  0  0  0
    5.4056    1.2777   17.8568 C   0  0  0  0  0  0  0  0  0  0  0  0
    6.5667    0.6534   17.6197 N   0  0  0  0  0  0  0  0  0  0  0  0
    7.1514    0.0230   18.6405 C   0  0  0  0  0  0  0  0  0  0  0  0
    8.1195   -0.4298   18.4347 H   0  0  0  0  0  0  0  0  0  0  0  0
    6.6028   -0.0454   19.9275 C   0  0  0  0  0  0  0  0  0  0  0  0
    7.4540   -0.7116   20.9530 C   0  0  0  0  0  0  0  0  0  0  0  0
    8.6560   -0.8340   20.7981 O   0  0  0  0  0  0  0  0  0  0  0  0
    6.7767   -1.1751   22.0546 N   0  0  0  0  0  0  0  0  0  0  0  0
    5.7848   -1.3103   21.9751 H   0  0  0  0  0  0  0  0  0  0  0  0
    7.3576   -1.4994   23.2915 C   0  0  0  0  0  0  0  0  0  0  0  0
    8.5731   -1.0688   23.7445 C   0  0  0  0  0  0  0  0  0  0  0  0
    9.2765   -0.4411   23.2126 H   0  0  0  0  0  0  0  0  0  0  0  0
    8.7742   -1.5630   25.0156 N   0  0  0  0  0  0  0  0  0  0  0  0
    9.5764   -1.3960   25.5975 H   0  0  0  0  0  0  0  0  0  0  0  0
    7.6845   -2.3171   25.3960 C   0  0  0  0  0  0  0  0  0  0  0  0
    7.4426   -3.0100   26.5945 C   0  0  0  0  0  0  0  0  0  0  0  0
    8.1699   -3.0118   27.4003 H   0  0  0  0  0  0  0  0  0  0  0  0
    6.2395   -3.6948   26.7176 C   0  0  0  0  0  0  0  0  0  0  0  0
    6.0141   -4.2405   27.6324 H   0  0  0  0  0  0  0  0  0  0  0  0
    5.2919   -3.6967   25.6656 C   0  0  0  0  0  0  0  0  0  0  0  0
    4.3570   -4.2359   25.7862 H   0  0  0  0  0  0  0  0  0  0  0  0
    5.5379   -3.0134   24.4772 C   0  0  0  0  0  0  0  0  0  0  0  0
    4.7972   -3.0377   23.6789 H   0  0  0  0  0  0  0  0  0  0  0  0
    6.7470   -2.3034   24.3259 C   0  0  0  0  0  0  0  0  0  0  0  0
    5.3933    0.6256   20.1716 C   0  0  0  0  0  0  0  0  0  0  0  0
    4.9528    0.6818   21.1715 H   0  0  0  0  0  0  0  0  0  0  0  0
    4.7912    1.3013   19.1129 C   0  0  0  0  0  0  0  0  0  0  0  0
    3.8692    1.8535   19.2401 H   0  0  0  0  0  0  0  0  0  0  0  0
  1  2  1  0
  2  3  2  0
  3  4  1  0
  4  5  1  0
  4  6  2  0
  6  7  1  0
  7  8  2  0
  7  9  1  0
  9 10  1  0
  9 11  1  0
 11 12  2  0
 12 13  1  0
 12 14  1  0
 14 15  1  0
 14 16  1  0
 16 17  2  0
 17 18  1  0
 17 19  1  0
 19 20  1  0
 19 21  2  0
 21 22  1  0
 21 23  1  0
 23 24  1  0
 23 25  2  0
  6 26  1  0
 26 27  1  0
 26 28  2  0
 28 29  1  0
 28  2  1  0
 25 11  1  0
 25 16  1  0
M  END
>  <cnnaffinity>  (1) 
-4.82812

>  <filename>  (1) 
O=C(Nc1c[nH]c2ccccc12)c1cccnc1

$$$$
