
     RDKit          3D

 37 38  0  0  0  0  0  0  0  0999 V2000
    7.5318    5.5686   22.8752 H   0  0  0  0  0  0  0  0  0  0  0  0
    7.7337    5.4025   23.8157 O   0  0  0  0  0  0  0  0  0  0  0  0
    8.5083    4.2418   23.8509 N   0  0  0  0  0  0  0  0  0  0  0  0
    8.1718    3.6178   24.5742 H   0  0  0  0  0  0  0  0  0  0  0  0
    9.9004    4.2850   23.7744 C   0  0  0  0  0  0  0  0  0  0  0  0
   10.5538    5.2153   23.3593 O   0  0  0  0  0  0  0  0  0  0  0  0
   10.4814    2.9344   24.1693 C   0  0  0  0  0  0  0  0  0  0  0  0
   10.0221    2.6000   25.1082 H   0  0  0  0  0  0  0  0  0  0  0  0
   11.5417    3.1120   24.3611 H   0  0  0  0  0  0  0  0  0  0  0  0
   10.3027    1.8773   23.0624 C   0  0  0  0  0  0  0  0  0  0  0  0
    9.2373    1.6845   22.8773 H   0  0  0  0  0  0  0  0  0  0  0  0
   10.7044    2.2953   22.1275 H   0  0  0  0  0  0  0  0  0  0  0  0
   10.9975    0.5470   23.3637 C   0  0  0  0  0  0  0  0  0  0  0  0
   10.6141    0.1177   24.3028 H   0  0  0  0  0  0  0  0  0  0  0  0
   12.0677    0.7271   23.5256 H   0  0  0  0  0  0  0  0  0  0  0  0
   10.8335   -0.4817   22.2243 C   0  0  0  0  0  0  0  0  0  0  0  0
   11.4503   -1.3669   22.4327 H   0  0  0  0  0  0  0  0  0  0  0  0
   11.1850   -0.0598   21.2778 H   0  0  0  0  0  0  0  0  0  0  0  0
    9.3990   -0.9201   22.0224 C   0  0  0  0  0  0  0  0  0  0  0  0
    8.7150   -0.3828   21.0460 N   0  0  0  0  0  0  0  0  0  0  0  0
    7.3810   -0.6913   20.9279 N   0  0  0  0  0  0  0  0  0  0  0  0
    6.6883    0.0158   19.8998 C   0  0  0  0  0  0  0  0  0  0  0  0
    7.2376    0.0897   18.6087 C   0  0  0  0  0  0  0  0  0  0  0  0
    8.1998   -0.3770   18.4047 H   0  0  0  0  0  0  0  0  0  0  0  0
    6.6196    0.6964   17.5911 N   0  0  0  0  0  0  0  0  0  0  0  0
    5.4416    1.2969   17.8405 C   0  0  0  0  0  0  0  0  0  0  0  0
    4.9634    1.7757   16.9904 H   0  0  0  0  0  0  0  0  0  0  0  0
    4.8331    1.3068   19.0993 C   0  0  0  0  0  0  0  0  0  0  0  0
    3.8870    1.8243   19.2354 H   0  0  0  0  0  0  0  0  0  0  0  0
    5.4598    0.6384   20.1550 C   0  0  0  0  0  0  0  0  0  0  0  0
    5.0180    0.5983   21.1495 H   0  0  0  0  0  0  0  0  0  0  0  0
    6.6993   -1.7076   21.6780 C   0  0  0  0  0  0  0  0  0  0  0  0
    5.5719   -2.0818   21.4107 O   0  0  0  0  0  0  0  0  0  0  0  0
    7.5156   -2.2503   22.7567 C   0  0  0  0  0  0  0  0  0  0  0  0
    6.9947   -2.9730   23.3722 H   0  0  0  0  0  0  0  0  0  0  0  0
    8.8113   -1.8837   22.9224 C   0  0  0  0  0  0  0  0  0  0  0  0
    9.4335   -2.3081   23.7098 H   0  0  0  0  0  0  0  0  0  0  0  0
  1  2  1  0
  2  3  1  0
  3  4  1  0
  3  5  1  0
  5  6  2  0
  5  7  1  0
  7  8  1  0
  7  9  1  0
  7 10  1  0
 10 11  1  0
 10 12  1  0
 10 13  1  0
 13 14  1  0
 13 15  1  0
 13 16  1  0
 16 17  1  0
 16 18  1  0
 16 19  1  0
 19 20  2  0
 20 21  1  0
 21 22  1  0
 22 23  2  0
 23 24  1  0
 23 25  1  0
 25 26  2  0
 26 27  1  0
 26 28  1  0
 28 29  1  0
 28 30  2  0
 30 31  1  0
 21 32  1  0
 32 33  2  0
 32 34  1  0
 34 35  1  0
 34 36  2  0
 36 37  1  0
 36 19  1  0
 30 22  1  0
M  END
>  <cnnaffinity>  (1) 
-5.20757

>  <filename>  (1) 
O=C(CCCCc1ccc(=O)n(-c2cccnc2)n1)NO

$$$$
