
     RDKit          3D

 30 32  0  0  0  0  0  0  0  0999 V2000
    5.0127    1.8210   16.9766 H   0  0  0  0  0  0  0  0  0  0  0  0
    5.4724    1.2750   17.7982 C   0  0  0  0  0  0  0  0  0  0  0  0
    6.5929    0.5948   17.5104 N   0  0  0  0  0  0  0  0  0  0  0  0
    7.1913   -0.0762   18.5058 C   0  0  0  0  0  0  0  0  0  0  0  0
    8.0925   -0.6288   18.2458 H   0  0  0  0  0  0  0  0  0  0  0  0
    6.7109   -0.0925   19.8288 C   0  0  0  0  0  0  0  0  0  0  0  0
    7.3098   -0.8179   20.8367 O   0  0  0  0  0  0  0  0  0  0  0  0
    8.6654   -0.6849   21.0753 C   0  0  0  0  0  0  0  0  0  0  0  0
    9.6124    0.2705   20.6644 C   0  0  0  0  0  0  0  0  0  0  0  0
    9.4651    1.0877   19.9843 H   0  0  0  0  0  0  0  0  0  0  0  0
   10.8093    0.0417   21.1880 N   0  0  0  0  0  0  0  0  0  0  0  0
   10.6410   -1.0644   21.9346 N   0  0  0  0  0  0  0  0  0  0  0  0
   11.3638   -1.4948   22.5000 H   0  0  0  0  0  0  0  0  0  0  0  0
    9.3773   -1.5281   21.8939 C   0  0  0  0  0  0  0  0  0  0  0  0
    8.9155   -2.6662   22.5449 N   0  0  0  0  0  0  0  0  0  0  0  0
    7.9168   -2.7910   22.4731 H   0  0  0  0  0  0  0  0  0  0  0  0
    9.6130   -3.3981   23.4681 C   0  0  0  0  0  0  0  0  0  0  0  0
   10.7895   -3.1672   23.7179 O   0  0  0  0  0  0  0  0  0  0  0  0
    8.8703   -4.4879   24.1670 C   0  0  0  0  0  0  0  0  0  0  0  0
    7.5827   -4.7965   23.7972 O   0  0  0  0  0  0  0  0  0  0  0  0
    7.1339   -5.7513   24.6425 C   0  0  0  0  0  0  0  0  0  0  0  0
    6.1033   -6.0599   24.4941 H   0  0  0  0  0  0  0  0  0  0  0  0
    8.1049   -6.0882   25.5264 C   0  0  0  0  0  0  0  0  0  0  0  0
    8.0144   -6.8066   26.3315 H   0  0  0  0  0  0  0  0  0  0  0  0
    9.2352   -5.2660   25.2287 C   0  0  0  0  0  0  0  0  0  0  0  0
   10.1977   -5.2212   25.7315 H   0  0  0  0  0  0  0  0  0  0  0  0
    5.5254    0.5937   20.1156 C   0  0  0  0  0  0  0  0  0  0  0  0
    5.1201    0.5752   21.1272 H   0  0  0  0  0  0  0  0  0  0  0  0
    4.9018    1.2923   19.0765 C   0  0  0  0  0  0  0  0  0  0  0  0
    3.9929    1.8587   19.2484 H   0  0  0  0  0  0  0  0  0  0  0  0
  1  2  1  0
  2  3  2  0
  3  4  1  0
  4  5  1  0
  4  6  2  0
  6  7  1  0
  7  8  1  0
  8  9  1  0
  9 10  1  0
  9 11  2  0
 11 12  1  0
 12 13  1  0
 12 14  1  0
 14 15  1  0
 15 16  1  0
 15 17  1  0
 17 18  2  0
 17 19  1  0
 19 20  1  0
 20 21  1  0
 21 22  1  0
 21 23  2  0
 23 24  1  0
 23 25  1  0
 25 26  1  0
  6 27  1  0
 27 28  1  0
 27 29  2  0
 29 30  1  0
 29  2  1  0
 14  8  2  0
 25 19  2  0
M  END
>  <cnnaffinity>  (1) 
-5.31809

>  <filename>  (1) 
O=C(Nc1[nH]ncc1Oc1cccnc1)c1ccco1

$$$$
