
     RDKit          3D

 36 39  0  0  0  0  0  0  0  0999 V2000
    4.9406    1.8610   16.9245 H   0  0  0  0  0  0  0  0  0  0  0  0
    5.3818    1.3161   17.7577 C   0  0  0  0  0  0  0  0  0  0  0  0
    6.5287    0.6672   17.5000 N   0  0  0  0  0  0  0  0  0  0  0  0
    7.1157    0.0355   18.5218 C   0  0  0  0  0  0  0  0  0  0  0  0
    8.0395   -0.4924   18.2925 H   0  0  0  0  0  0  0  0  0  0  0  0
    6.6115    0.0380   19.8362 C   0  0  0  0  0  0  0  0  0  0  0  0
    7.3773   -0.5729   20.9241 C   0  0  0  0  0  0  0  0  0  0  0  0
    8.1657   -1.6299   20.7182 N   0  0  0  0  0  0  0  0  0  0  0  0
    8.7009   -1.8527   21.9156 N   0  0  0  0  0  0  0  0  0  0  0  0
    8.3380   -1.0080   22.8830 C   0  0  0  0  0  0  0  0  0  0  0  0
    7.4374   -0.1447   22.2935 C   0  0  0  0  0  0  0  0  0  0  0  0
    6.7701    0.9254   22.9336 N   0  0  0  0  0  0  0  0  0  0  0  0
    6.9038    1.8354   22.5134 H   0  0  0  0  0  0  0  0  0  0  0  0
    6.5792    0.9453   24.3012 C   0  0  0  0  0  0  0  0  0  0  0  0
    6.5635   -0.0612   24.9913 O   0  0  0  0  0  0  0  0  0  0  0  0
    6.3778    2.2768   24.9207 C   0  0  0  0  0  0  0  0  0  0  0  0
    6.5629    3.4328   24.1967 O   0  0  0  0  0  0  0  0  0  0  0  0
    6.3468    4.4657   25.0427 C   0  0  0  0  0  0  0  0  0  0  0  0
    6.4648    5.4604   24.6346 H   0  0  0  0  0  0  0  0  0  0  0  0
    6.0286    4.0092   26.2794 C   0  0  0  0  0  0  0  0  0  0  0  0
    5.8014    4.6208   27.1406 H   0  0  0  0  0  0  0  0  0  0  0  0
    6.0532    2.5862   26.2085 C   0  0  0  0  0  0  0  0  0  0  0  0
    5.8641    1.8683   26.9973 H   0  0  0  0  0  0  0  0  0  0  0  0
    9.1334   -1.2596   24.1353 C   0  0  0  0  0  0  0  0  0  0  0  0
    9.6158   -0.3420   24.4894 H   0  0  0  0  0  0  0  0  0  0  0  0
    8.4810   -1.6326   24.9307 H   0  0  0  0  0  0  0  0  0  0  0  0
   10.1815   -2.3006   23.6556 C   0  0  0  0  0  0  0  0  0  0  0  0
   10.3551   -3.0903   24.3900 H   0  0  0  0  0  0  0  0  0  0  0  0
   11.1252   -1.7898   23.4681 H   0  0  0  0  0  0  0  0  0  0  0  0
    9.6848   -2.8343   22.2846 C   0  0  0  0  0  0  0  0  0  0  0  0
   10.4757   -2.8143   21.5376 H   0  0  0  0  0  0  0  0  0  0  0  0
    9.2285   -3.8302   22.3217 H   0  0  0  0  0  0  0  0  0  0  0  0
    5.3816    0.6704   20.0744 C   0  0  0  0  0  0  0  0  0  0  0  0
    4.9332    0.6452   21.0706 H   0  0  0  0  0  0  0  0  0  0  0  0
    4.7600    1.3231   19.0119 C   0  0  0  0  0  0  0  0  0  0  0  0
    3.8291    1.8620   19.1470 H   0  0  0  0  0  0  0  0  0  0  0  0
  1  2  1  0
  2  3  2  0
  3  4  1  0
  4  5  1  0
  4  6  2  0
  6  7  1  0
  7  8  2  0
  8  9  1  0
  9 10  1  0
 10 11  2  0
 11 12  1  0
 12 13  1  0
 12 14  1  0
 14 15  2  0
 14 16  1  0
 16 17  1  0
 17 18  1  0
 18 19  1  0
 18 20  2  0
 20 21  1  0
 20 22  1  0
 22 23  1  0
 10 24  1  0
 24 25  1  0
 24 26  1  0
 24 27  1  0
 27 28  1  0
 27 29  1  0
 27 30  1  0
 30 31  1  0
 30 32  1  0
  6 33  1  0
 33 34  1  0
 33 35  2  0
 35 36  1  0
 35  2  1  0
 11  7  1  0
 22 16  2  0
 30  9  1  0
M  END
>  <cnnaffinity>  (1) 
-5.37284

>  <filename>  (1) 
O=C(Nc1c(-c2cccnc2)nn2c1CCC2)c1ccco1

$$$$
