
     RDKit          3D

 32 35  0  0  0  0  0  0  0  0999 V2000
    4.9361    1.8003   16.9802 H   0  0  0  0  0  0  0  0  0  0  0  0
    5.3991    1.2946   17.8269 C   0  0  0  0  0  0  0  0  0  0  0  0
    6.5590    0.6671   17.5756 N   0  0  0  0  0  0  0  0  0  0  0  0
    7.1598    0.0401   18.5911 C   0  0  0  0  0  0  0  0  0  0  0  0
    8.1077   -0.4431   18.3636 H   0  0  0  0  0  0  0  0  0  0  0  0
    6.6438    0.0074   19.8977 C   0  0  0  0  0  0  0  0  0  0  0  0
    7.3821   -0.6612   20.9602 C   0  0  0  0  0  0  0  0  0  0  0  0
    8.1563   -1.7791   20.7271 N   0  0  0  0  0  0  0  0  0  0  0  0
    8.6132   -2.0823   21.9115 C   0  0  0  0  0  0  0  0  0  0  0  0
    9.7240   -3.2481   22.5464 S   0  0  0  0  0  0  0  0  0  0  0  0
    9.6635   -2.5099   24.1197 C   0  0  0  0  0  0  0  0  0  0  0  0
   10.2826   -2.9279   24.9010 H   0  0  0  0  0  0  0  0  0  0  0  0
    8.8216   -1.4642   24.1601 C   0  0  0  0  0  0  0  0  0  0  0  0
    8.5599   -0.8262   24.9958 H   0  0  0  0  0  0  0  0  0  0  0  0
    8.2174   -1.2339   22.9172 N   0  0  0  0  0  0  0  0  0  0  0  0
    7.4229   -0.2929   22.3060 C   0  0  0  0  0  0  0  0  0  0  0  0
    6.9366    0.7990   23.0151 N   0  0  0  0  0  0  0  0  0  0  0  0
    6.8859    1.6846   22.5420 H   0  0  0  0  0  0  0  0  0  0  0  0
    6.3737    0.7729   24.2776 C   0  0  0  0  0  0  0  0  0  0  0  0
    6.1147   -0.2542   24.8694 O   0  0  0  0  0  0  0  0  0  0  0  0
    6.1208    2.1111   24.9067 C   0  0  0  0  0  0  0  0  0  0  0  0
    5.8324    1.9292   25.9389 H   0  0  0  0  0  0  0  0  0  0  0  0
    5.4853    3.2845   24.1837 C   0  0  0  0  0  0  0  0  0  0  0  0
    4.7471    3.8713   24.7276 H   0  0  0  0  0  0  0  0  0  0  0  0
    5.2392    3.1737   23.1258 H   0  0  0  0  0  0  0  0  0  0  0  0
    6.9205    3.3658   24.6056 C   0  0  0  0  0  0  0  0  0  0  0  0
    7.1809    4.0090   25.4442 H   0  0  0  0  0  0  0  0  0  0  0  0
    7.7129    3.3226   23.8558 H   0  0  0  0  0  0  0  0  0  0  0  0
    5.4199    0.6557   20.1401 C   0  0  0  0  0  0  0  0  0  0  0  0
    4.9797    0.6367   21.1383 H   0  0  0  0  0  0  0  0  0  0  0  0
    4.7904    1.3130   19.0873 C   0  0  0  0  0  0  0  0  0  0  0  0
    3.8589    1.8499   19.2292 H   0  0  0  0  0  0  0  0  0  0  0  0
  1  2  1  0
  2  3  2  0
  3  4  1  0
  4  5  1  0
  4  6  2  0
  6  7  1  0
  7  8  1  0
  8  9  2  0
  9 10  1  0
 10 11  1  0
 11 12  1  0
 11 13  2  0
 13 14  1  0
 13 15  1  0
 15 16  1  0
 16 17  1  0
 17 18  1  0
 17 19  1  0
 19 20  2  0
 19 21  1  0
 21 22  1  0
 21 23  1  0
 23 24  1  0
 23 25  1  0
 23 26  1  0
 26 27  1  0
 26 28  1  0
  6 29  1  0
 29 30  1  0
 29 31  2  0
 31 32  1  0
 31  2  1  0
 16  7  2  0
 26 21  1  0
 15  9  1  0
M  END
>  <cnnaffinity>  (1) 
-5.25844

>  <filename>  (1) 
O=C(Nc1c(-c2cccnc2)nc2sccn12)C1CC1

$$$$
