
     RDKit          3D

 28 30  0  0  0  0  0  0  0  0999 V2000
    4.9185    1.7806   16.9984 H   0  0  0  0  0  0  0  0  0  0  0  0
    5.4053    1.2928   17.8425 C   0  0  0  0  0  0  0  0  0  0  0  0
    6.5705    0.6761   17.5787 N   0  0  0  0  0  0  0  0  0  0  0  0
    7.1815    0.0549   18.5910 C   0  0  0  0  0  0  0  0  0  0  0  0
    8.1294   -0.4375   18.3790 H   0  0  0  0  0  0  0  0  0  0  0  0
    6.6479    0.0126   19.8895 C   0  0  0  0  0  0  0  0  0  0  0  0
    7.3431   -0.6505   20.9369 N   0  0  0  0  0  0  0  0  0  0  0  0
    7.8955   -1.8750   20.7624 N   0  0  0  0  0  0  0  0  0  0  0  0
    8.3223   -2.2505   21.9076 N   0  0  0  0  0  0  0  0  0  0  0  0
    8.0770   -1.3186   22.8650 N   0  0  0  0  0  0  0  0  0  0  0  0
    7.4990   -0.3362   22.2451 C   0  0  0  0  0  0  0  0  0  0  0  0
    7.0353    0.7930   22.8404 O   0  0  0  0  0  0  0  0  0  0  0  0
    7.3345    2.0159   22.2603 C   0  0  0  0  0  0  0  0  0  0  0  0
    8.1112    2.1055   21.3472 O   0  0  0  0  0  0  0  0  0  0  0  0
    6.5428    3.1619   22.8736 C   0  0  0  0  0  0  0  0  0  0  0  0
    6.6993    4.4722   22.3716 C   0  0  0  0  0  0  0  0  0  0  0  0
    7.3809    4.6802   21.5536 H   0  0  0  0  0  0  0  0  0  0  0  0
    5.9722    5.5296   22.9298 C   0  0  0  0  0  0  0  0  0  0  0  0
    6.0957    6.5392   22.5506 H   0  0  0  0  0  0  0  0  0  0  0  0
    5.1061    5.3908   23.9449 N   0  0  0  0  0  0  0  0  0  0  0  0
    4.9460    4.1476   24.4191 C   0  0  0  0  0  0  0  0  0  0  0  0
    4.2414    4.0397   25.2362 H   0  0  0  0  0  0  0  0  0  0  0  0
    5.6211    3.0187   23.9325 C   0  0  0  0  0  0  0  0  0  0  0  0
    5.4359    2.0459   24.3763 H   0  0  0  0  0  0  0  0  0  0  0  0
    5.4333    0.6391   20.1639 C   0  0  0  0  0  0  0  0  0  0  0  0
    5.0031    0.6257   21.1684 H   0  0  0  0  0  0  0  0  0  0  0  0
    4.8069    1.3053   19.1074 C   0  0  0  0  0  0  0  0  0  0  0  0
    3.8769    1.8412   19.2624 H   0  0  0  0  0  0  0  0  0  0  0  0
  1  2  1  0
  2  3  2  0
  3  4  1  0
  4  5  1  0
  4  6  2  0
  6  7  1  0
  7  8  1  0
  8  9  2  0
  9 10  1  0
 10 11  2  0
 11 12  1  0
 12 13  1  0
 13 14  2  0
 13 15  1  0
 15 16  2  0
 16 17  1  0
 16 18  1  0
 18 19  1  0
 18 20  2  0
 20 21  1  0
 21 22  1  0
 21 23  2  0
 23 24  1  0
  6 25  1  0
 25 26  1  0
 25 27  2  0
 27 28  1  0
 27  2  1  0
 11  7  1  0
 23 15  1  0
M  END
>  <cnnaffinity>  (1) 
-4.855

>  <filename>  (1) 
O=C(Oc1nnnn1-c1cccnc1)c1ccncc1

$$$$
