
     RDKit          3D

 33 36  0  0  0  0  0  0  0  0999 V2000
    4.9526    1.8286   16.9503 H   0  0  0  0  0  0  0  0  0  0  0  0
    5.4057    1.3021   17.7864 C   0  0  0  0  0  0  0  0  0  0  0  0
    6.5605    0.6672   17.5382 N   0  0  0  0  0  0  0  0  0  0  0  0
    7.1515    0.0185   18.5475 C   0  0  0  0  0  0  0  0  0  0  0  0
    8.1039   -0.4540   18.3081 H   0  0  0  0  0  0  0  0  0  0  0  0
    6.6188   -0.0384   19.8505 C   0  0  0  0  0  0  0  0  0  0  0  0
    7.3461   -0.6869   20.9577 C   0  0  0  0  0  0  0  0  0  0  0  0
    8.4644   -1.3976   20.7472 N   0  0  0  0  0  0  0  0  0  0  0  0
    8.8562   -1.7216   21.9994 N   0  0  0  0  0  0  0  0  0  0  0  0
   10.0504   -2.1960   22.5418 C   0  0  0  0  0  0  0  0  0  0  0  0
   10.8264   -2.5398   21.8828 H   0  0  0  0  0  0  0  0  0  0  0  0
    9.9731   -1.9848   23.8727 C   0  0  0  0  0  0  0  0  0  0  0  0
   10.6956   -2.1497   24.6587 H   0  0  0  0  0  0  0  0  0  0  0  0
    8.7186   -1.4176   24.1702 N   0  0  0  0  0  0  0  0  0  0  0  0
    8.3785   -0.8122   25.4046 C   0  0  0  0  0  0  0  0  0  0  0  0
    9.2093   -0.5249   26.2408 O   0  0  0  0  0  0  0  0  0  0  0  0
    7.0427   -0.6066   25.5540 N   0  0  0  0  0  0  0  0  0  0  0  0
    6.4290   -1.0557   24.8949 H   0  0  0  0  0  0  0  0  0  0  0  0
    6.5199    0.1441   26.6467 C   0  0  0  0  0  0  0  0  0  0  0  0
    6.6185   -0.3108   27.6311 H   0  0  0  0  0  0  0  0  0  0  0  0
    6.6480    1.6358   26.5685 C   0  0  0  0  0  0  0  0  0  0  0  0
    6.8878    2.1744   27.4794 H   0  0  0  0  0  0  0  0  0  0  0  0
    7.1086    2.0295   25.6671 H   0  0  0  0  0  0  0  0  0  0  0  0
    5.3062    0.9772   26.4175 C   0  0  0  0  0  0  0  0  0  0  0  0
    4.6011    1.0476   27.2407 H   0  0  0  0  0  0  0  0  0  0  0  0
    4.8653    0.9663   25.4234 H   0  0  0  0  0  0  0  0  0  0  0  0
    8.0483   -1.2430   22.9544 C   0  0  0  0  0  0  0  0  0  0  0  0
    7.0218   -0.5605   22.3327 C   0  0  0  0  0  0  0  0  0  0  0  0
    6.2484    0.0497   22.7677 H   0  0  0  0  0  0  0  0  0  0  0  0
    5.4053    0.6314   20.0844 C   0  0  0  0  0  0  0  0  0  0  0  0
    4.9608    0.6482   21.0795 H   0  0  0  0  0  0  0  0  0  0  0  0
    4.7903    1.3099   19.0396 C   0  0  0  0  0  0  0  0  0  0  0  0
    3.8680    1.8567   19.1934 H   0  0  0  0  0  0  0  0  0  0  0  0
  1  2  1  0
  2  3  2  0
  3  4  1  0
  4  5  1  0
  4  6  2  0
  6  7  1  0
  7  8  2  0
  8  9  1  0
  9 10  1  0
 10 11  1  0
 10 12  2  0
 12 13  1  0
 12 14  1  0
 14 15  1  0
 15 16  2  0
 15 17  1  0
 17 18  1  0
 17 19  1  0
 19 20  1  0
 19 21  1  0
 21 22  1  0
 21 23  1  0
 21 24  1  0
 24 25  1  0
 24 26  1  0
 14 27  1  0
 27 28  2  0
 28 29  1  0
  6 30  1  0
 30 31  1  0
 30 32  2  0
 32 33  1  0
 32  2  1  0
 28  7  1  0
 27  9  1  0
 24 19  1  0
M  END
>  <cnnaffinity>  (1) 
-5.10154

>  <filename>  (1) 
O=C(NC1CC1)n1ccn2nc(-c3cccnc3)cc12

$$$$
