
     RDKit          3D

 35 37  0  0  0  0  0  0  0  0999 V2000
   14.2626   -2.2099   22.1769 H   0  0  0  0  0  0  0  0  0  0  0  0
   13.9867   -1.2957   21.9793 O   0  0  0  0  0  0  0  0  0  0  0  0
   12.6692   -1.5063   22.1629 C   0  0  0  0  0  0  0  0  0  0  0  0
   12.3114   -2.6229   22.4614 O   0  0  0  0  0  0  0  0  0  0  0  0
   11.7600   -0.3531   22.0044 C   0  0  0  0  0  0  0  0  0  0  0  0
   12.2596    0.9325   21.7572 C   0  0  0  0  0  0  0  0  0  0  0  0
   13.3360    1.0803   21.7504 H   0  0  0  0  0  0  0  0  0  0  0  0
   11.3831    1.9793   21.4940 C   0  0  0  0  0  0  0  0  0  0  0  0
   11.7784    2.9534   21.2142 H   0  0  0  0  0  0  0  0  0  0  0  0
   10.0030    1.7643   21.5826 C   0  0  0  0  0  0  0  0  0  0  0  0
    9.3212    2.5923   21.4074 H   0  0  0  0  0  0  0  0  0  0  0  0
    9.4818    0.4963   21.9039 C   0  0  0  0  0  0  0  0  0  0  0  0
    7.9861    0.2947   22.0635 C   0  0  2  0  0  0  0  0  0  0  0  0
    7.5197    1.2838   21.9331 H   0  0  0  0  0  0  0  0  0  0  0  0
    7.5718   -0.2595   23.4546 C   0  0  0  0  0  0  0  0  0  0  0  0
    8.4316   -0.6157   24.0411 H   0  0  0  0  0  0  0  0  0  0  0  0
    7.0750    0.5091   24.0544 H   0  0  0  0  0  0  0  0  0  0  0  0
    6.6782   -1.3475   23.1424 N   0  0  0  0  0  0  0  0  0  0  0  0
    6.0955   -1.8802   23.7676 H   0  0  0  0  0  0  0  0  0  0  0  0
    6.5261   -1.6604   21.8374 C   0  0  0  0  0  0  0  0  0  0  0  0
    5.8274   -2.5684   21.4395 O   0  0  0  0  0  0  0  0  0  0  0  0
    7.4008   -0.7012   21.0155 C   0  0  1  0  0  0  0  0  0  0  0  0
    8.1931   -1.3246   20.5736 H   0  0  0  0  0  0  0  0  0  0  0  0
    6.6616   -0.0054   19.8746 C   0  0  0  0  0  0  0  0  0  0  0  0
    7.1745    0.0680   18.5641 C   0  0  0  0  0  0  0  0  0  0  0  0
    8.1288   -0.4080   18.3327 H   0  0  0  0  0  0  0  0  0  0  0  0
    6.5649    0.6920   17.5470 N   0  0  0  0  0  0  0  0  0  0  0  0
    5.3989    1.3026   17.8166 C   0  0  0  0  0  0  0  0  0  0  0  0
    4.9236    1.8071   16.9786 H   0  0  0  0  0  0  0  0  0  0  0  0
    4.8003    1.3129   19.0814 C   0  0  0  0  0  0  0  0  0  0  0  0
    3.8650    1.8487   19.2336 H   0  0  0  0  0  0  0  0  0  0  0  0
    5.4468    0.6467   20.1268 C   0  0  0  0  0  0  0  0  0  0  0  0
    5.0145    0.6342   21.1313 H   0  0  0  0  0  0  0  0  0  0  0  0
   10.3720   -0.5660   22.0938 C   0  0  0  0  0  0  0  0  0  0  0  0
   10.0074   -1.5693   22.3237 H   0  0  0  0  0  0  0  0  0  0  0  0
  1  2  1  0
  2  3  1  0
  3  4  2  0
  3  5  1  0
  5  6  2  0
  6  7  1  0
  6  8  1  0
  8  9  1  0
  8 10  2  0
 10 11  1  0
 10 12  1  0
 12 13  1  0
 13 14  1  6
 13 15  1  0
 15 16  1  0
 15 17  1  0
 15 18  1  0
 18 19  1  0
 18 20  1  0
 20 21  2  0
 20 22  1  0
 22 23  1  6
 22 24  1  0
 24 25  2  0
 25 26  1  0
 25 27  1  0
 27 28  2  0
 28 29  1  0
 28 30  1  0
 30 31  1  0
 30 32  2  0
 32 33  1  0
 12 34  2  0
 34 35  1  0
 34  5  1  0
 22 13  1  0
 32 24  1  0
M  END
>  <cnnaffinity>  (1) 
-5.62727

>  <filename>  (1) 
O=C(O)c1cccc([C@@H]2CNC(=O)[C@H]2c2cccnc2)c1

$$$$
