
     RDKit          3D

 34 37  0  0  0  0  0  0  0  0999 V2000
    4.9604    1.7791   16.9994 H   0  0  0  0  0  0  0  0  0  0  0  0
    5.4077    1.2776   17.8566 C   0  0  0  0  0  0  0  0  0  0  0  0
    6.5688    0.6508   17.6219 N   0  0  0  0  0  0  0  0  0  0  0  0
    7.1548    0.0276   18.6460 C   0  0  0  0  0  0  0  0  0  0  0  0
    8.1186   -0.4294   18.4336 H   0  0  0  0  0  0  0  0  0  0  0  0
    6.6067   -0.0379   19.9328 C   0  0  0  0  0  0  0  0  0  0  0  0
    7.4474   -0.7152   20.9542 C   0  0  0  0  0  0  0  0  0  0  0  0
    8.6451   -0.8635   20.8147 O   0  0  0  0  0  0  0  0  0  0  0  0
    6.7510   -1.1618   22.0621 N   0  0  0  0  0  0  0  0  0  0  0  0
    5.7633   -1.2918   21.9190 H   0  0  0  0  0  0  0  0  0  0  0  0
    7.2822   -1.5728   23.2841 C   0  0  0  0  0  0  0  0  0  0  0  0
    6.9537   -2.5983   24.1731 C   0  0  0  0  0  0  0  0  0  0  0  0
    5.9796   -3.6620   23.9535 C   0  0  0  0  0  0  0  0  0  0  0  0
    5.2759   -4.2035   25.0436 C   0  0  0  0  0  0  0  0  0  0  0  0
    5.4576   -3.8607   26.0601 H   0  0  0  0  0  0  0  0  0  0  0  0
    4.3305   -5.1392   24.9145 N   0  0  0  0  0  0  0  0  0  0  0  0
    4.0646   -5.5979   23.6854 C   0  0  0  0  0  0  0  0  0  0  0  0
    3.2969   -6.3669   23.6302 H   0  0  0  0  0  0  0  0  0  0  0  0
    4.7212   -5.1428   22.5359 C   0  0  0  0  0  0  0  0  0  0  0  0
    4.4621   -5.5640   21.5722 H   0  0  0  0  0  0  0  0  0  0  0  0
    5.6969   -4.1585   22.6658 C   0  0  0  0  0  0  0  0  0  0  0  0
    6.2461   -3.7778   21.8012 H   0  0  0  0  0  0  0  0  0  0  0  0
    7.6879   -2.5033   25.3380 N   0  0  0  0  0  0  0  0  0  0  0  0
    8.4562   -1.4723   25.1356 C   0  0  0  0  0  0  0  0  0  0  0  0
    9.6169   -0.5706   26.0798 S   0  0  0  0  0  0  0  0  0  0  0  0
    9.7557    0.6242   24.7963 C   0  0  0  0  0  0  0  0  0  0  0  0
   10.4002    1.4803   24.9395 H   0  0  0  0  0  0  0  0  0  0  0  0
    8.9942    0.3238   23.7333 C   0  0  0  0  0  0  0  0  0  0  0  0
    8.8916    0.8668   22.7993 H   0  0  0  0  0  0  0  0  0  0  0  0
    8.2752   -0.8568   23.9150 N   0  0  0  0  0  0  0  0  0  0  0  0
    5.3938    0.6313   20.1742 C   0  0  0  0  0  0  0  0  0  0  0  0
    4.9482    0.6814   21.1724 H   0  0  0  0  0  0  0  0  0  0  0  0
    4.7911    1.3027   19.1127 C   0  0  0  0  0  0  0  0  0  0  0  0
    3.8665    1.8539   19.2394 H   0  0  0  0  0  0  0  0  0  0  0  0
  1  2  1  0
  2  3  2  0
  3  4  1  0
  4  5  1  0
  4  6  2  0
  6  7  1  0
  7  8  2  0
  7  9  1  0
  9 10  1  0
  9 11  1  0
 11 12  2  0
 12 13  1  0
 13 14  2  0
 14 15  1  0
 14 16  1  0
 16 17  2  0
 17 18  1  0
 17 19  1  0
 19 20  1  0
 19 21  2  0
 21 22  1  0
 12 23  1  0
 23 24  2  0
 24 25  1  0
 25 26  1  0
 26 27  1  0
 26 28  2  0
 28 29  1  0
 28 30  1  0
  6 31  1  0
 31 32  1  0
 31 33  2  0
 33 34  1  0
 33  2  1  0
 30 11  1  0
 21 13  1  0
 30 24  1  0
M  END
>  <cnnaffinity>  (1) 
-5.4937

>  <filename>  (1) 
O=C(Nc1c(-c2cccnc2)nc2sccn12)c1cccnc1

$$$$
