
     RDKit          3D

 33 35  0  0  0  0  0  0  0  0999 V2000
    7.5770    5.5207   26.6820 H   0  0  0  0  0  0  0  0  0  0  0  0
    7.5248    4.8074   26.0254 O   0  0  0  0  0  0  0  0  0  0  0  0
    7.0960    3.8505   26.8676 C   0  0  0  0  0  0  0  0  0  0  0  0
    6.9485    4.1594   28.0312 O   0  0  0  0  0  0  0  0  0  0  0  0
    6.8493    2.5117   26.2369 C   0  0  0  0  0  0  0  0  0  0  0  0
    6.3941    1.4441   27.0380 C   0  0  0  0  0  0  0  0  0  0  0  0
    6.2314    1.5984   28.1036 H   0  0  0  0  0  0  0  0  0  0  0  0
    6.1483    0.1945   26.4631 C   0  0  0  0  0  0  0  0  0  0  0  0
    5.7968   -0.6313   27.0773 H   0  0  0  0  0  0  0  0  0  0  0  0
    6.3579   -0.0078   25.0977 C   0  0  0  0  0  0  0  0  0  0  0  0
    6.1728   -0.9626   24.6180 H   0  0  0  0  0  0  0  0  0  0  0  0
    6.8269    1.0378   24.2911 C   0  0  0  0  0  0  0  0  0  0  0  0
    7.0291    0.8422   22.9240 N   0  0  0  0  0  0  0  0  0  0  0  0
    6.9837    1.6554   22.3279 H   0  0  0  0  0  0  0  0  0  0  0  0
    7.5138   -0.3213   22.3189 C   0  0  0  0  0  0  0  0  0  0  0  0
    8.2902   -1.3758   22.8703 C   0  0  0  0  0  0  0  0  0  0  0  0
    8.6302   -1.4720   23.8940 H   0  0  0  0  0  0  0  0  0  0  0  0
    8.6085   -2.2884   21.9565 N   0  0  0  0  0  0  0  0  0  0  0  0
    8.0536   -1.8274   20.8241 N   0  0  0  0  0  0  0  0  0  0  0  0
    8.1263   -2.3701   19.9732 H   0  0  0  0  0  0  0  0  0  0  0  0
    7.3769   -0.6561   20.9762 C   0  0  0  0  0  0  0  0  0  0  0  0
    6.6575    0.0170   19.8851 C   0  0  0  0  0  0  0  0  0  0  0  0
    7.1601    0.0678   18.5682 C   0  0  0  0  0  0  0  0  0  0  0  0
    8.1154   -0.3992   18.3267 H   0  0  0  0  0  0  0  0  0  0  0  0
    6.5483    0.6890   17.5535 N   0  0  0  0  0  0  0  0  0  0  0  0
    5.3849    1.3065   17.8193 C   0  0  0  0  0  0  0  0  0  0  0  0
    4.9106    1.8066   16.9765 H   0  0  0  0  0  0  0  0  0  0  0  0
    4.7913    1.3186   19.0863 C   0  0  0  0  0  0  0  0  0  0  0  0
    3.8602    1.8511   19.2382 H   0  0  0  0  0  0  0  0  0  0  0  0
    5.4359    0.6631   20.1358 C   0  0  0  0  0  0  0  0  0  0  0  0
    5.0159    0.6317   21.1406 H   0  0  0  0  0  0  0  0  0  0  0  0
    7.0565    2.2961   24.8562 C   0  0  0  0  0  0  0  0  0  0  0  0
    7.4120    3.0963   24.2144 H   0  0  0  0  0  0  0  0  0  0  0  0
  1  2  1  0
  2  3  1  0
  3  4  2  0
  3  5  1  0
  5  6  2  0
  6  7  1  0
  6  8  1  0
  8  9  1  0
  8 10  2  0
 10 11  1  0
 10 12  1  0
 12 13  1  0
 13 14  1  0
 13 15  1  0
 15 16  1  0
 16 17  1  0
 16 18  2  0
 18 19  1  0
 19 20  1  0
 19 21  1  0
 21 22  1  0
 22 23  2  0
 23 24  1  0
 23 25  1  0
 25 26  2  0
 26 27  1  0
 26 28  1  0
 28 29  1  0
 28 30  2  0
 30 31  1  0
 12 32  2  0
 32 33  1  0
 32  5  1  0
 21 15  2  0
 30 22  1  0
M  END
>  <cnnaffinity>  (1) 
-5.22603

>  <filename>  (1) 
O=C(O)c1cccc(Nc2cn[nH]c2-c2cccnc2)c1

$$$$
