
     RDKit          3D

 44 47  0  0  0  0  0  0  0  0999 V2000
    5.0085    1.7552   17.0287 H   0  0  0  0  0  0  0  0  0  0  0  0
    5.4421    1.2550   17.8909 C   0  0  0  0  0  0  0  0  0  0  0  0
    6.6030    0.6188   17.6768 N   0  0  0  0  0  0  0  0  0  0  0  0
    7.1739    0.0137   18.7222 C   0  0  0  0  0  0  0  0  0  0  0  0
    8.1262   -0.4811   18.5357 H   0  0  0  0  0  0  0  0  0  0  0  0
    6.6111   -0.0009   20.0077 C   0  0  0  0  0  0  0  0  0  0  0  0
    7.3765   -0.7252   21.0458 C   0  0  0  0  0  0  0  0  0  0  0  0
    8.4317   -1.2743   20.8036 O   0  0  0  0  0  0  0  0  0  0  0  0
    6.7674   -0.6985   22.2474 O   0  0  0  0  0  0  0  0  0  0  0  0
    7.3198   -1.3400   23.3986 C   0  0  0  0  0  0  0  0  0  0  0  0
    6.4183   -1.1461   24.5934 C   0  0  0  0  0  0  0  0  0  0  0  0
    6.5650   -0.0323   25.4453 C   0  0  0  0  0  0  0  0  0  0  0  0
    7.3625    0.6800   25.2372 H   0  0  0  0  0  0  0  0  0  0  0  0
    5.7410    0.1457   26.5592 C   0  0  0  0  0  0  0  0  0  0  0  0
    5.8639    0.9812   27.2422 H   0  0  0  0  0  0  0  0  0  0  0  0
    4.7108   -0.7671   26.8549 C   0  0  0  0  0  0  0  0  0  0  0  0
    3.8605   -0.4905   27.9508 N   0  0  0  0  0  0  0  0  0  0  0  0
    2.4597   -0.9117   27.9201 C   0  0  0  0  0  0  0  0  0  0  0  0
    2.0683   -0.7704   26.9047 H   0  0  0  0  0  0  0  0  0  0  0  0
    2.3391   -1.9733   28.2039 H   0  0  0  0  0  0  0  0  0  0  0  0
    1.6323   -0.0499   28.8866 C   0  0  0  0  0  0  0  0  0  0  0  0
    0.6032   -0.4198   28.9580 H   0  0  0  0  0  0  0  0  0  0  0  0
    1.6107    0.9889   28.5180 H   0  0  0  0  0  0  0  0  0  0  0  0
    2.1623   -0.0850   30.2047 O   0  0  0  0  0  0  0  0  0  0  0  0
    3.5080    0.3756   30.2295 C   0  0  0  0  0  0  0  0  0  0  0  0
    3.5478    1.4316   29.9146 H   0  0  0  0  0  0  0  0  0  0  0  0
    3.8339    0.3104   31.2745 H   0  0  0  0  0  0  0  0  0  0  0  0
    4.4120   -0.4643   29.3138 C   0  0  0  0  0  0  0  0  0  0  0  0
    5.4126   -0.0151   29.3027 H   0  0  0  0  0  0  0  0  0  0  0  0
    4.5020   -1.4843   29.7287 H   0  0  0  0  0  0  0  0  0  0  0  0
    4.5538   -1.8842   26.0096 C   0  0  0  0  0  0  0  0  0  0  0  0
    3.7745   -2.6020   26.2518 H   0  0  0  0  0  0  0  0  0  0  0  0
    5.4045   -2.0724   24.9148 C   0  0  0  0  0  0  0  0  0  0  0  0
    5.2820   -2.9452   24.2747 H   0  0  0  0  0  0  0  0  0  0  0  0
    8.0740   -2.6388   23.2991 C   0  0  0  0  0  0  0  0  0  0  0  0
    8.2539   -3.0735   22.3245 H   0  0  0  0  0  0  0  0  0  0  0  0
    7.8689   -3.3502   24.0944 H   0  0  0  0  0  0  0  0  0  0  0  0
    8.8041   -1.3697   23.6493 C   0  0  0  0  0  0  0  0  0  0  0  0
    9.0988   -1.2131   24.6836 H   0  0  0  0  0  0  0  0  0  0  0  0
    9.4755   -0.9496   22.9115 H   0  0  0  0  0  0  0  0  0  0  0  0
    5.3922    0.6632   20.2176 C   0  0  0  0  0  0  0  0  0  0  0  0
    4.9218    0.6867   21.2024 H   0  0  0  0  0  0  0  0  0  0  0  0
    4.7971    1.3011   19.1336 C   0  0  0  0  0  0  0  0  0  0  0  0
    3.8633    1.8451   19.2363 H   0  0  0  0  0  0  0  0  0  0  0  0
  1  2  1  0
  2  3  2  0
  3  4  1  0
  4  5  1  0
  4  6  2  0
  6  7  1  0
  7  8  2  0
  7  9  1  0
  9 10  1  0
 10 11  1  0
 11 12  2  0
 12 13  1  0
 12 14  1  0
 14 15  1  0
 14 16  2  0
 16 17  1  0
 17 18  1  0
 18 19  1  0
 18 20  1  0
 18 21  1  0
 21 22  1  0
 21 23  1  0
 21 24  1  0
 24 25  1  0
 25 26  1  0
 25 27  1  0
 25 28  1  0
 28 29  1  0
 28 30  1  0
 16 31  1  0
 31 32  1  0
 31 33  2  0
 33 34  1  0
 10 35  1  0
 35 36  1  0
 35 37  1  0
 35 38  1  0
 38 39  1  0
 38 40  1  0
  6 41  1  0
 41 42  1  0
 41 43  2  0
 43 44  1  0
 43  2  1  0
 38 10  1  0
 33 11  1  0
 28 17  1  0
M  END
>  <cnnaffinity>  (1) 
-4.64768

>  <filename>  (1) 
O=C(OC1(c2ccc(N3CCOCC3)cc2)CC1)c1cccnc1

$$$$
