
     RDKit          3D

 36 39  0  0  0  0  0  0  0  0999 V2000
    4.9782    1.7895   16.8675 H   0  0  0  0  0  0  0  0  0  0  0  0
    5.4585    1.3277   17.7296 C   0  0  0  0  0  0  0  0  0  0  0  0
    6.6298    0.7105   17.5129 N   0  0  0  0  0  0  0  0  0  0  0  0
    7.2379    0.1216   18.5477 C   0  0  0  0  0  0  0  0  0  0  0  0
    8.1798   -0.3760   18.3228 H   0  0  0  0  0  0  0  0  0  0  0  0
    6.7169    0.1116   19.8542 C   0  0  0  0  0  0  0  0  0  0  0  0
    7.3871   -0.6382   20.9360 C   0  0  0  0  0  0  0  0  0  0  0  0
    8.6090   -1.1722   20.7882 N   0  0  0  0  0  0  0  0  0  0  0  0
    8.7589   -1.8817   21.9277 N   0  0  0  0  0  0  0  0  0  0  0  0
    9.7162   -2.7676   22.4097 C   0  0  0  0  0  0  0  0  0  0  0  0
   10.6771   -2.8689   21.9453 H   0  0  0  0  0  0  0  0  0  0  0  0
    9.1807   -3.3435   23.5025 C   0  0  0  0  0  0  0  0  0  0  0  0
    9.5677   -4.1155   24.1476 H   0  0  0  0  0  0  0  0  0  0  0  0
    7.9196   -2.7774   23.7522 N   0  0  0  0  0  0  0  0  0  0  0  0
    7.0363   -3.2341   24.7629 C   0  0  0  0  0  0  0  0  0  0  0  0
    7.1202   -4.3541   25.2212 O   0  0  0  0  0  0  0  0  0  0  0  0
    6.1555   -2.2859   25.1950 N   0  0  0  0  0  0  0  0  0  0  0  0
    6.1504   -1.4168   24.6937 H   0  0  0  0  0  0  0  0  0  0  0  0
    5.1624   -2.4691   26.1818 C   0  0  0  0  0  0  0  0  0  0  0  0
    3.9805   -1.7293   26.0632 C   0  0  0  0  0  0  0  0  0  0  0  0
    3.8774   -1.0264   25.2417 H   0  0  0  0  0  0  0  0  0  0  0  0
    2.9453   -1.9149   26.9851 C   0  0  0  0  0  0  0  0  0  0  0  0
    2.0195   -1.3520   26.8773 H   0  0  0  0  0  0  0  0  0  0  0  0
    3.1083   -2.8149   28.0462 C   0  0  0  0  0  0  0  0  0  0  0  0
    2.3092   -2.9647   28.7644 H   0  0  0  0  0  0  0  0  0  0  0  0
    4.3068   -3.5276   28.1798 C   0  0  0  0  0  0  0  0  0  0  0  0
    4.4524   -4.2216   29.0079 H   0  0  0  0  0  0  0  0  0  0  0  0
    5.3349   -3.3611   27.2499 C   0  0  0  0  0  0  0  0  0  0  0  0
    6.2615   -3.9155   27.3240 H   0  0  0  0  0  0  0  0  0  0  0  0
    7.6948   -1.8363   22.7432 C   0  0  0  0  0  0  0  0  0  0  0  0
    6.7910   -0.9603   22.1812 C   0  0  0  0  0  0  0  0  0  0  0  0
    5.9560   -0.4550   22.6170 H   0  0  0  0  0  0  0  0  0  0  0  0
    5.4878    0.7618   20.0576 C   0  0  0  0  0  0  0  0  0  0  0  0
    5.0369    0.7959   21.0479 H   0  0  0  0  0  0  0  0  0  0  0  0
    4.8460    1.3686   18.9839 C   0  0  0  0  0  0  0  0  0  0  0  0
    3.8962    1.8749   19.1091 H   0  0  0  0  0  0  0  0  0  0  0  0
  1  2  1  0
  2  3  2  0
  3  4  1  0
  4  5  1  0
  4  6  2  0
  6  7  1  0
  7  8  2  0
  8  9  1  0
  9 10  1  0
 10 11  1  0
 10 12  2  0
 12 13  1  0
 12 14  1  0
 14 15  1  0
 15 16  2  0
 15 17  1  0
 17 18  1  0
 17 19  1  0
 19 20  2  0
 20 21  1  0
 20 22  1  0
 22 23  1  0
 22 24  2  0
 24 25  1  0
 24 26  1  0
 26 27  1  0
 26 28  2  0
 28 29  1  0
 14 30  1  0
 30 31  2  0
 31 32  1  0
  6 33  1  0
 33 34  1  0
 33 35  2  0
 35 36  1  0
 35  2  1  0
 31  7  1  0
 30  9  1  0
 28 19  1  0
M  END
>  <cnnaffinity>  (1) 
-5.6083

>  <filename>  (1) 
O=C(Nc1ccccc1)n1ccn2nc(-c3cccnc3)cc12

$$$$
