
     RDKit          3D

 32 34  0  0  0  0  0  0  0  0999 V2000
    4.9095    1.7797   16.9994 H   0  0  0  0  0  0  0  0  0  0  0  0
    5.3983    1.2954   17.8428 C   0  0  0  0  0  0  0  0  0  0  0  0
    6.5607    0.6781   17.5720 N   0  0  0  0  0  0  0  0  0  0  0  0
    7.1774    0.0628   18.5858 C   0  0  0  0  0  0  0  0  0  0  0  0
    8.1219   -0.4277   18.3779 H   0  0  0  0  0  0  0  0  0  0  0  0
    6.6706    0.0005   19.9036 C   0  0  0  0  0  0  0  0  0  0  0  0
    7.3620   -0.6863   20.9399 N   0  0  0  0  0  0  0  0  0  0  0  0
    6.7759   -1.1031   21.6478 H   0  0  0  0  0  0  0  0  0  0  0  0
    8.7320   -0.6524   21.1043 C   0  0  0  0  0  0  0  0  0  0  0  0
    9.4314    0.0832   20.4379 O   0  0  0  0  0  0  0  0  0  0  0  0
    9.3354   -1.5970   22.2021 C   0  0  0  0  0  0  0  0  0  0  0  0
    8.8311   -2.8680   22.0461 F   0  0  0  0  0  0  0  0  0  0  0  0
   10.6720   -1.7109   21.9856 F   0  0  0  0  0  0  0  0  0  0  0  0
    9.0490   -1.0640   23.5846 C   0  0  0  0  0  0  0  0  0  0  0  0
    8.0262   -1.5832   24.3780 C   0  0  0  0  0  0  0  0  0  0  0  0
    7.4524   -2.4386   24.0310 H   0  0  0  0  0  0  0  0  0  0  0  0
    7.7465   -1.0287   25.6464 C   0  0  0  0  0  0  0  0  0  0  0  0
    6.9646   -1.4695   26.2531 H   0  0  0  0  0  0  0  0  0  0  0  0
    8.4513    0.0668   26.1382 C   0  0  0  0  0  0  0  0  0  0  0  0
    8.2547    0.5093   27.1119 H   0  0  0  0  0  0  0  0  0  0  0  0
    9.4518    0.6058   25.3125 C   0  0  0  0  0  0  0  0  0  0  0  0
    9.7583    0.0714   24.0414 C   0  0  0  0  0  0  0  0  0  0  0  0
   10.8047    0.8893   23.4978 C   0  0  0  0  0  0  0  0  0  0  0  0
   11.2489    0.7611   22.5232 H   0  0  0  0  0  0  0  0  0  0  0  0
   11.0919    1.8550   24.4210 C   0  0  0  0  0  0  0  0  0  0  0  0
   11.8206    2.6599   24.3730 H   0  0  0  0  0  0  0  0  0  0  0  0
   10.2758    1.6784   25.5183 N   0  0  0  0  0  0  0  0  0  0  0  0
   10.2551    2.2308   26.3600 H   0  0  0  0  0  0  0  0  0  0  0  0
    5.4489    0.6327   20.1678 C   0  0  0  0  0  0  0  0  0  0  0  0
    5.0151    0.6255   21.1699 H   0  0  0  0  0  0  0  0  0  0  0  0
    4.8121    1.3058   19.1153 C   0  0  0  0  0  0  0  0  0  0  0  0
    3.8775    1.8406   19.2677 H   0  0  0  0  0  0  0  0  0  0  0  0
  1  2  1  0
  2  3  2  0
  3  4  1  0
  4  5  1  0
  4  6  2  0
  6  7  1  0
  7  8  1  0
  7  9  1  0
  9 10  2  0
  9 11  1  0
 11 12  1  0
 11 13  1  0
 11 14  1  0
 14 15  2  0
 15 16  1  0
 15 17  1  0
 17 18  1  0
 17 19  2  0
 19 20  1  0
 19 21  1  0
 21 22  2  0
 22 23  1  0
 23 24  1  0
 23 25  2  0
 25 26  1  0
 25 27  1  0
 27 28  1  0
  6 29  1  0
 29 30  1  0
 29 31  2  0
 31 32  1  0
 31  2  1  0
 22 14  1  0
 27 21  1  0
M  END
>  <cnnaffinity>  (1) 
-5.19951

>  <filename>  (1) 
O=C(Nc1cccnc1)C(F)(F)c1cccc2[nH]ccc12

$$$$
