
     RDKit          3D

 24 25  0  0  0  0  0  0  0  0999 V2000
    4.9314    1.7945   17.0002 H   0  0  0  0  0  0  0  0  0  0  0  0
    5.3991    1.2888   17.8400 C   0  0  0  0  0  0  0  0  0  0  0  0
    6.5560    0.6610   17.5758 N   0  0  0  0  0  0  0  0  0  0  0  0
    7.1751    0.0425   18.5879 C   0  0  0  0  0  0  0  0  0  0  0  0
    8.1285   -0.4332   18.3622 H   0  0  0  0  0  0  0  0  0  0  0  0
    6.6584   -0.0040   19.9000 C   0  0  0  0  0  0  0  0  0  0  0  0
    7.3387   -0.6930   20.9586 N   0  0  0  0  0  0  0  0  0  0  0  0
    6.7404   -1.6017   21.8111 C   0  0  0  0  0  0  0  0  0  0  0  0
    5.6886   -1.8344   21.7262 H   0  0  0  0  0  0  0  0  0  0  0  0
    7.6741   -2.0687   22.6774 C   0  0  0  0  0  0  0  0  0  0  0  0
    7.4378   -3.0461   23.7788 C   0  0  0  0  0  0  0  0  0  0  0  0
    6.3477   -3.5341   23.9735 O   0  0  0  0  0  0  0  0  0  0  0  0
    8.6792   -3.4158   24.6647 C   0  0  0  0  0  0  0  0  0  0  0  0
    9.6567   -3.9249   23.8927 F   0  0  0  0  0  0  0  0  0  0  0  0
    8.4019   -4.3019   25.6178 F   0  0  0  0  0  0  0  0  0  0  0  0
    9.1816   -2.3153   25.2529 F   0  0  0  0  0  0  0  0  0  0  0  0
    8.8602   -1.4113   22.3339 N   0  0  0  0  0  0  0  0  0  0  0  0
    9.7981   -1.4153   22.7153 H   0  0  0  0  0  0  0  0  0  0  0  0
    8.6636   -0.5297   21.3212 C   0  0  0  0  0  0  0  0  0  0  0  0
    9.8099    0.5226   20.7678 S   0  0  0  0  0  0  0  0  0  0  0  0
    5.4458    0.6412   20.1599 C   0  0  0  0  0  0  0  0  0  0  0  0
    5.0329    0.6332   21.1691 H   0  0  0  0  0  0  0  0  0  0  0  0
    4.8106    1.3065   19.1081 C   0  0  0  0  0  0  0  0  0  0  0  0
    3.8807    1.8395   19.2636 H   0  0  0  0  0  0  0  0  0  0  0  0
  1  2  1  0
  2  3  2  0
  3  4  1  0
  4  5  1  0
  4  6  2  0
  6  7  1  0
  7  8  1  0
  8  9  1  0
  8 10  2  0
 10 11  1  0
 11 12  2  0
 11 13  1  0
 13 14  1  0
 13 15  1  0
 13 16  1  0
 10 17  1  0
 17 18  1  0
 17 19  1  0
 19 20  2  0
  6 21  1  0
 21 22  1  0
 21 23  2  0
 23 24  1  0
 23  2  1  0
 19  7  1  0
M  END
>  <cnnaffinity>  (1) 
-5.13592

>  <filename>  (1) 
O=C(c1cn(-c2cccnc2)c(=S)[nH]1)C(F)(F)F

$$$$
