
     RDKit          3D

 34 36  0  0  0  0  0  0  0  0999 V2000
   14.7958    2.7691   22.8747 H   0  0  0  0  0  0  0  0  0  0  0  0
   14.6766    1.8157   22.7220 O   0  0  0  0  0  0  0  0  0  0  0  0
   13.3402    1.8076   22.6727 C   0  0  0  0  0  0  0  0  0  0  0  0
   12.7569    2.8641   22.7896 O   0  0  0  0  0  0  0  0  0  0  0  0
   12.7754    0.4478   22.4843 C   0  0  0  0  0  0  0  0  0  0  0  0
   13.6318   -0.6705   22.3835 C   0  0  0  0  0  0  0  0  0  0  0  0
   14.7071   -0.5510   22.5082 H   0  0  0  0  0  0  0  0  0  0  0  0
   13.0915   -1.9307   22.1596 C   0  0  0  0  0  0  0  0  0  0  0  0
   13.7509   -2.7903   22.0677 H   0  0  0  0  0  0  0  0  0  0  0  0
   11.7067   -2.1059   22.1424 C   0  0  0  0  0  0  0  0  0  0  0  0
   11.2553   -3.0839   22.1395 H   0  0  0  0  0  0  0  0  0  0  0  0
   10.8551   -1.0031   22.2274 C   0  0  0  0  0  0  0  0  0  0  0  0
    9.4343   -1.1918   22.1336 N   0  0  0  0  0  0  0  0  0  0  0  0
    8.7389   -0.5513   21.1317 C   0  0  0  0  0  0  0  0  0  0  0  0
    9.3351    0.0847   20.4861 H   0  0  0  0  0  0  0  0  0  0  0  0
    7.3934   -0.6945   20.9684 C   0  0  0  0  0  0  0  0  0  0  0  0
    6.6637    0.0179   19.8933 C   0  0  0  0  0  0  0  0  0  0  0  0
    7.1676    0.0744   18.5797 C   0  0  0  0  0  0  0  0  0  0  0  0
    8.1105   -0.4208   18.3413 H   0  0  0  0  0  0  0  0  0  0  0  0
    6.5534    0.6849   17.5567 N   0  0  0  0  0  0  0  0  0  0  0  0
    5.3898    1.3028   17.8196 C   0  0  0  0  0  0  0  0  0  0  0  0
    4.9151    1.8014   16.9759 H   0  0  0  0  0  0  0  0  0  0  0  0
    4.7985    1.3202   19.0882 C   0  0  0  0  0  0  0  0  0  0  0  0
    3.8651    1.8499   19.2389 H   0  0  0  0  0  0  0  0  0  0  0  0
    5.4393    0.6581   20.1358 C   0  0  0  0  0  0  0  0  0  0  0  0
    5.0168    0.6452   21.1402 H   0  0  0  0  0  0  0  0  0  0  0  0
    6.6906   -1.5494   21.8695 C   0  0  0  0  0  0  0  0  0  0  0  0
    5.6208   -1.6767   21.7254 H   0  0  0  0  0  0  0  0  0  0  0  0
    7.3498   -2.2052   22.8580 C   0  0  0  0  0  0  0  0  0  0  0  0
    6.8709   -2.8533   23.5741 H   0  0  0  0  0  0  0  0  0  0  0  0
    8.7827   -2.0668   23.0583 C   0  0  0  0  0  0  0  0  0  0  0  0
    9.3903   -2.6480   23.9443 O   0  0  0  0  0  0  0  0  0  0  0  0
   11.3829    0.2789   22.3860 C   0  0  0  0  0  0  0  0  0  0  0  0
   10.7100    1.1334   22.4440 H   0  0  0  0  0  0  0  0  0  0  0  0
  1  2  1  0
  2  3  1  0
  3  4  2  0
  3  5  1  0
  5  6  2  0
  6  7  1  0
  6  8  1  0
  8  9  1  0
  8 10  2  0
 10 11  1  0
 10 12  1  0
 12 13  1  0
 13 14  1  0
 14 15  1  0
 14 16  2  0
 16 17  1  0
 17 18  2  0
 18 19  1  0
 18 20  1  0
 20 21  2  0
 21 22  1  0
 21 23  1  0
 23 24  1  0
 23 25  2  0
 25 26  1  0
 16 27  1  0
 27 28  1  0
 27 29  2  0
 29 30  1  0
 29 31  1  0
 31 32  2  0
 12 33  2  0
 33 34  1  0
 33  5  1  0
 31 13  1  0
 25 17  1  0
M  END
>  <cnnaffinity>  (1) 
-5.62762

>  <filename>  (1) 
O=C(O)c1cccc(-n2cc(-c3cccnc3)ccc2=O)c1

$$$$
