
     RDKit          3D

 39 41  0  0  0  0  0  0  0  0999 V2000
    4.9387    1.8067   16.9737 H   0  0  0  0  0  0  0  0  0  0  0  0
    5.4089    1.3049   17.8136 C   0  0  0  0  0  0  0  0  0  0  0  0
    6.5698    0.6827   17.5518 N   0  0  0  0  0  0  0  0  0  0  0  0
    7.1762    0.0626   18.5715 C   0  0  0  0  0  0  0  0  0  0  0  0
    8.1128   -0.4345   18.3206 H   0  0  0  0  0  0  0  0  0  0  0  0
    6.6713    0.0097   19.8867 C   0  0  0  0  0  0  0  0  0  0  0  0
    7.3618   -0.7162   20.9603 C   0  0  0  0  0  0  0  0  0  0  0  0
    6.8524   -1.2795   22.0748 C   0  0  0  0  0  0  0  0  0  0  0  0
    5.8566   -1.3593   22.4654 H   0  0  0  0  0  0  0  0  0  0  0  0
    7.8675   -1.8441   22.8177 N   0  0  0  0  0  0  0  0  0  0  0  0
    7.5475   -2.5671   23.9873 N   0  0  0  0  0  0  0  0  0  0  0  0
    8.2379   -3.2257   24.3119 H   0  0  0  0  0  0  0  0  0  0  0  0
    6.5242   -2.2857   24.8746 C   0  0  0  0  0  0  0  0  0  0  0  0
    5.8012   -1.3105   24.8280 O   0  0  0  0  0  0  0  0  0  0  0  0
    6.3737   -3.3643   25.9423 C   0  0  0  0  0  0  0  0  0  0  0  0
    7.2124   -4.0584   25.8189 H   0  0  0  0  0  0  0  0  0  0  0  0
    6.4912   -2.7631   27.3656 C   0  0  0  0  0  0  0  0  0  0  0  0
    7.1647   -1.8977   27.3865 H   0  0  0  0  0  0  0  0  0  0  0  0
    6.9561   -3.5779   27.9301 H   0  0  0  0  0  0  0  0  0  0  0  0
    5.1287   -2.3964   27.9781 C   0  0  0  0  0  0  0  0  0  0  0  0
    5.2662   -1.8841   28.9385 H   0  0  0  0  0  0  0  0  0  0  0  0
    4.6271   -1.6866   27.3049 H   0  0  0  0  0  0  0  0  0  0  0  0
    4.2378   -3.6500   28.1665 C   0  0  0  0  0  0  0  0  0  0  0  0
    3.1812   -3.3529   28.1234 H   0  0  0  0  0  0  0  0  0  0  0  0
    4.3934   -4.0710   29.1695 H   0  0  0  0  0  0  0  0  0  0  0  0
    4.5336   -4.7489   27.1116 C   0  0  0  0  0  0  0  0  0  0  0  0
    5.2981   -5.4287   27.5146 H   0  0  0  0  0  0  0  0  0  0  0  0
    3.6406   -5.3618   26.9384 H   0  0  0  0  0  0  0  0  0  0  0  0
    5.0368   -4.1563   25.7803 C   0  0  0  0  0  0  0  0  0  0  0  0
    5.1649   -4.9507   25.0375 H   0  0  0  0  0  0  0  0  0  0  0  0
    4.2710   -3.4753   25.3867 H   0  0  0  0  0  0  0  0  0  0  0  0
    9.1008   -1.6718   22.1225 C   0  0  0  0  0  0  0  0  0  0  0  0
   10.2240   -2.0355   22.4024 O   0  0  0  0  0  0  0  0  0  0  0  0
    8.7344   -0.9807   20.9929 N   0  0  0  0  0  0  0  0  0  0  0  0
    9.4761   -0.6903   20.3816 H   0  0  0  0  0  0  0  0  0  0  0  0
    5.4436    0.6638   20.1289 C   0  0  0  0  0  0  0  0  0  0  0  0
    5.0118    0.6714   21.1330 H   0  0  0  0  0  0  0  0  0  0  0  0
    4.8082    1.3215   19.0759 C   0  0  0  0  0  0  0  0  0  0  0  0
    3.8707    1.8492   19.2181 H   0  0  0  0  0  0  0  0  0  0  0  0
  1  2  1  0
  2  3  2  0
  3  4  1  0
  4  5  1  0
  4  6  2  0
  6  7  1  0
  7  8  2  0
  8  9  1  0
  8 10  1  0
 10 11  1  0
 11 12  1  0
 11 13  1  0
 13 14  2  0
 13 15  1  0
 15 16  1  0
 15 17  1  0
 17 18  1  0
 17 19  1  0
 17 20  1  0
 20 21  1  0
 20 22  1  0
 20 23  1  0
 23 24  1  0
 23 25  1  0
 23 26  1  0
 26 27  1  0
 26 28  1  0
 26 29  1  0
 29 30  1  0
 29 31  1  0
 10 32  1  0
 32 33  2  0
 32 34  1  0
 34 35  1  0
  6 36  1  0
 36 37  1  0
 36 38  2  0
 38 39  1  0
 38  2  1  0
 34  7  1  0
 29 15  1  0
M  END
>  <cnnaffinity>  (1) 
-5.18766

>  <filename>  (1) 
O=C(Nn1cc(-c2cccnc2)[nH]c1=O)C1CCCCC1

$$$$
