
     RDKit          3D

 38 40  0  0  0  0  0  0  0  0999 V2000
    4.9194    1.7999   16.9846 H   0  0  0  0  0  0  0  0  0  0  0  0
    5.3883    1.2994   17.8310 C   0  0  0  0  0  0  0  0  0  0  0  0
    6.5459    0.6706   17.5695 N   0  0  0  0  0  0  0  0  0  0  0  0
    7.1547    0.0443   18.5828 C   0  0  0  0  0  0  0  0  0  0  0  0
    8.1161   -0.4175   18.3682 H   0  0  0  0  0  0  0  0  0  0  0  0
    6.6343   -0.0183   19.8904 C   0  0  0  0  0  0  0  0  0  0  0  0
    7.3410   -0.6990   20.9523 N   0  0  0  0  0  0  0  0  0  0  0  0
    6.7201   -1.7329   21.6163 C   0  0  0  0  0  0  0  0  0  0  0  0
    5.7275   -1.9739   21.2438 H   0  0  0  0  0  0  0  0  0  0  0  0
    7.3289   -2.4182   22.6362 C   0  0  0  0  0  0  0  0  0  0  0  0
    6.6326   -3.6094   23.2614 C   0  0  0  0  0  0  0  0  0  0  0  0
    5.8221   -4.2827   22.6392 O   0  0  0  0  0  0  0  0  0  0  0  0
    6.9956   -3.9280   24.5587 N   0  0  0  0  0  0  0  0  0  0  0  0
    7.0114   -5.3558   24.9249 C   0  0  0  0  0  0  0  0  0  0  0  0
    7.7282   -5.8665   24.2648 H   0  0  0  0  0  0  0  0  0  0  0  0
    6.0294   -5.8016   24.7209 H   0  0  0  0  0  0  0  0  0  0  0  0
    7.4320   -5.5767   26.3836 C   0  0  0  0  0  0  0  0  0  0  0  0
    6.5758   -5.4055   27.0501 H   0  0  0  0  0  0  0  0  0  0  0  0
    7.7110   -6.6269   26.5105 H   0  0  0  0  0  0  0  0  0  0  0  0
    8.6007   -4.6611   26.7698 C   0  0  0  0  0  0  0  0  0  0  0  0
    9.4677   -4.9057   26.1409 H   0  0  0  0  0  0  0  0  0  0  0  0
    8.9167   -4.8630   27.8007 H   0  0  0  0  0  0  0  0  0  0  0  0
    8.2285   -3.1685   26.5949 C   0  0  0  0  0  0  0  0  0  0  0  0
    7.9612   -2.7290   27.5624 H   0  0  0  0  0  0  0  0  0  0  0  0
    9.0958   -2.6034   26.2364 H   0  0  0  0  0  0  0  0  0  0  0  0
    7.0312   -2.9451   25.6484 C   0  0  0  0  0  0  0  0  0  0  0  0
    7.0587   -1.9340   25.2340 H   0  0  0  0  0  0  0  0  0  0  0  0
    6.0965   -3.0176   26.2310 H   0  0  0  0  0  0  0  0  0  0  0  0
    8.6683   -2.0602   22.9939 C   0  0  0  0  0  0  0  0  0  0  0  0
    9.1970   -2.6313   23.7607 H   0  0  0  0  0  0  0  0  0  0  0  0
    9.2987   -1.0377   22.3576 C   0  0  0  0  0  0  0  0  0  0  0  0
   10.3023   -0.7085   22.5822 H   0  0  0  0  0  0  0  0  0  0  0  0
    8.6713   -0.2686   21.2990 C   0  0  0  0  0  0  0  0  0  0  0  0
    9.2168    0.6594   20.7231 O   0  0  0  0  0  0  0  0  0  0  0  0
    5.4266    0.6343   20.1495 C   0  0  0  0  0  0  0  0  0  0  0  0
    5.0270    0.6244   21.1634 H   0  0  0  0  0  0  0  0  0  0  0  0
    4.7990    1.3153   19.0995 C   0  0  0  0  0  0  0  0  0  0  0  0
    3.8711    1.8511   19.2504 H   0  0  0  0  0  0  0  0  0  0  0  0
  1  2  1  0
  2  3  2  0
  3  4  1  0
  4  5  1  0
  4  6  2  0
  6  7  1  0
  7  8  1  0
  8  9  1  0
  8 10  2  0
 10 11  1  0
 11 12  2  0
 11 13  1  0
 13 14  1  0
 14 15  1  0
 14 16  1  0
 14 17  1  0
 17 18  1  0
 17 19  1  0
 17 20  1  0
 20 21  1  0
 20 22  1  0
 20 23  1  0
 23 24  1  0
 23 25  1  0
 23 26  1  0
 26 27  1  0
 26 28  1  0
 10 29  1  0
 29 30  1  0
 29 31  2  0
 31 32  1  0
 31 33  1  0
 33 34  2  0
  6 35  1  0
 35 36  1  0
 35 37  2  0
 37 38  1  0
 37  2  1  0
 33  7  1  0
 26 13  1  0
M  END
>  <cnnaffinity>  (1) 
-5.41982

>  <filename>  (1) 
O=C(c1ccc(=O)n(-c2cccnc2)c1)N1CCCCC1

$$$$
