
     RDKit          3D

 36 38  0  0  0  0  0  0  0  0999 V2000
    4.9908    1.8068   17.0648 H   0  0  0  0  0  0  0  0  0  0  0  0
    5.4221    1.2471   17.8946 C   0  0  0  0  0  0  0  0  0  0  0  0
    6.5626    0.5843   17.6426 N   0  0  0  0  0  0  0  0  0  0  0  0
    7.1295   -0.0796   18.6545 C   0  0  0  0  0  0  0  0  0  0  0  0
    8.0891   -0.5535   18.4580 H   0  0  0  0  0  0  0  0  0  0  0  0
    6.5777   -0.1560   19.9474 C   0  0  0  0  0  0  0  0  0  0  0  0
    7.2838   -0.8412   20.9860 N   0  0  0  0  0  0  0  0  0  0  0  0
    6.5557   -1.7658   21.7241 N   0  0  0  0  0  0  0  0  0  0  0  0
    7.1737   -2.3736   22.6969 C   0  0  0  0  0  0  0  0  0  0  0  0
    6.4191   -3.3162   23.3923 N   0  0  0  0  0  0  0  0  0  0  0  0
    5.4801   -3.3799   23.0408 H   0  0  0  0  0  0  0  0  0  0  0  0
    6.6420   -3.5767   24.7294 C   0  0  0  0  0  0  0  0  0  0  0  0
    7.4795   -3.0081   25.3970 O   0  0  0  0  0  0  0  0  0  0  0  0
    5.8516   -4.5858   25.1994 N   0  0  0  0  0  0  0  0  0  0  0  0
    5.1845   -4.9720   24.5583 H   0  0  0  0  0  0  0  0  0  0  0  0
    6.0848   -5.2582   26.4206 C   0  0  0  0  0  0  0  0  0  0  0  0
    7.3664   -5.3292   26.9944 C   0  0  0  0  0  0  0  0  0  0  0  0
    8.2032   -4.8662   26.4882 H   0  0  0  0  0  0  0  0  0  0  0  0
    7.5499   -5.9710   28.2174 C   0  0  0  0  0  0  0  0  0  0  0  0
    8.5443   -6.0326   28.6471 H   0  0  0  0  0  0  0  0  0  0  0  0
    6.4528   -6.5181   28.8856 C   0  0  0  0  0  0  0  0  0  0  0  0
    6.6821   -7.2577   30.4394 Cl  0  0  0  0  0  0  0  0  0  0  0  0
    5.1785   -6.4617   28.3171 C   0  0  0  0  0  0  0  0  0  0  0  0
    4.3345   -6.8906   28.8412 H   0  0  0  0  0  0  0  0  0  0  0  0
    5.0009   -5.8445   27.0756 C   0  0  0  0  0  0  0  0  0  0  0  0
    4.0206   -5.7858   26.6141 H   0  0  0  0  0  0  0  0  0  0  0  0
    8.5552   -2.1519   23.0209 C   0  0  0  0  0  0  0  0  0  0  0  0
    8.9812   -2.6839   23.8565 H   0  0  0  0  0  0  0  0  0  0  0  0
    9.2612   -1.2507   22.3011 C   0  0  0  0  0  0  0  0  0  0  0  0
   10.2972   -1.0171   22.4962 H   0  0  0  0  0  0  0  0  0  0  0  0
    8.6547   -0.4829   21.2277 C   0  0  0  0  0  0  0  0  0  0  0  0
    9.2485    0.3673   20.5845 O   0  0  0  0  0  0  0  0  0  0  0  0
    5.3849    0.5275   20.2013 C   0  0  0  0  0  0  0  0  0  0  0  0
    4.9487    0.5043   21.1980 H   0  0  0  0  0  0  0  0  0  0  0  0
    4.8089    1.2536   19.1522 C   0  0  0  0  0  0  0  0  0  0  0  0
    3.9106    1.8391   19.3036 H   0  0  0  0  0  0  0  0  0  0  0  0
  1  2  1  0
  2  3  2  0
  3  4  1  0
  4  5  1  0
  4  6  2  0
  6  7  1  0
  7  8  1  0
  8  9  2  0
  9 10  1  0
 10 11  1  0
 10 12  1  0
 12 13  2  0
 12 14  1  0
 14 15  1  0
 14 16  1  0
 16 17  2  0
 17 18  1  0
 17 19  1  0
 19 20  1  0
 19 21  2  0
 21 22  1  0
 21 23  1  0
 23 24  1  0
 23 25  2  0
 25 26  1  0
  9 27  1  0
 27 28  1  0
 27 29  2  0
 29 30  1  0
 29 31  1  0
 31 32  2  0
  6 33  1  0
 33 34  1  0
 33 35  2  0
 35 36  1  0
 35  2  1  0
 31  7  1  0
 25 16  1  0
M  END
>  <cnnaffinity>  (1) 
-5.25218

>  <filename>  (1) 
O=C(Nc1ccc(Cl)cc1)Nc1ccc(=O)n(-c2cccnc2)n1

$$$$
