
     RDKit          3D

 27 29  0  0  0  0  0  0  0  0999 V2000
    5.9904    0.7792   22.8107 O   0  0  0  0  0  0  0  0  0  0  0  0
    6.8511    0.0568   22.3497 C   0  0  0  0  0  0  0  0  0  0  0  0
    7.1397   -0.1648   21.0243 N   0  0  0  0  0  0  0  0  0  0  0  0
    6.4843    0.2743   19.8562 C   0  0  0  0  0  0  0  0  0  0  0  0
    5.2558    0.9390   19.9277 C   0  0  0  0  0  0  0  0  0  0  0  0
    4.6992    1.4203   18.7384 C   0  0  0  0  0  0  0  0  0  0  0  0
    5.3780    1.2200   17.5322 C   0  0  0  0  0  0  0  0  0  0  0  0
    6.5307    0.5325   17.4424 N   0  0  0  0  0  0  0  0  0  0  0  0
    7.0639    0.0745   18.5817 C   0  0  0  0  0  0  0  0  0  0  0  0
    8.0107   -0.4613   18.4946 H   0  0  0  0  0  0  0  0  0  0  0  0
    4.9824    1.6312   16.6068 H   0  0  0  0  0  0  0  0  0  0  0  0
    3.7756    1.9903   18.7529 H   0  0  0  0  0  0  0  0  0  0  0  0
    4.7930    1.0824   20.8993 H   0  0  0  0  0  0  0  0  0  0  0  0
    7.9030   -0.8197   20.9344 H   0  0  0  0  0  0  0  0  0  0  0  0
    7.7228   -0.7699   23.2205 C   0  0  0  0  0  0  0  0  0  0  0  0
    8.9911   -1.3181   23.0277 C   0  0  0  0  0  0  0  0  0  0  0  0
    9.9982   -1.0601   22.0493 C   0  0  0  0  0  0  0  0  0  0  0  0
   11.1206   -1.8639   22.0047 C   0  0  0  0  0  0  0  0  0  0  0  0
   11.3199   -2.8909   22.9843 C   0  0  0  0  0  0  0  0  0  0  0  0
   10.4187   -3.1241   23.9838 C   0  0  0  0  0  0  0  0  0  0  0  0
    9.2332   -2.2952   24.0525 C   0  0  0  0  0  0  0  0  0  0  0  0
    8.3180   -2.3889   25.0121 N   0  0  0  0  0  0  0  0  0  0  0  0
    7.0915   -1.3287   24.6931 S   0  0  0  0  0  0  0  0  0  0  0  0
   10.5552   -3.8863   24.7434 H   0  0  0  0  0  0  0  0  0  0  0  0
   12.2494   -3.4465   22.9627 H   0  0  0  0  0  0  0  0  0  0  0  0
   11.8459   -1.7461   21.2093 H   0  0  0  0  0  0  0  0  0  0  0  0
    9.9215   -0.1719   21.4309 H   0  0  0  0  0  0  0  0  0  0  0  0
  1  2  2  0
  2  3  1  0
  3  4  1  0
  4  5  2  0
  5  6  1  0
  6  7  2  0
  7  8  1  0
  8  9  2  0
  9 10  1  0
  7 11  1  0
  6 12  1  0
  5 13  1  0
  3 14  1  0
  2 15  1  0
 15 16  2  0
 16 17  1  0
 17 18  2  0
 18 19  1  0
 19 20  2  0
 20 21  1  0
 21 22  2  0
 22 23  1  0
 20 24  1  0
 19 25  1  0
 18 26  1  0
 17 27  1  0
  9  4  1  0
 23 15  1  0
 21 16  1  0
M  END
>  <cnnaffinity>  (1) 
-5.12935

>  <filename>  (1) 
O=C(Nc1cccnc1)c1snc2ccccc12

$$$$
