
     RDKit          3D

 38 41  0  0  0  0  0  0  0  0999 V2000
    5.9946    6.4158   25.0018 H   0  0  0  0  0  0  0  0  0  0  0  0
    6.3192    5.8102   24.3159 O   0  0  0  0  0  0  0  0  0  0  0  0
    6.1182    4.6609   24.9834 C   0  0  0  0  0  0  0  0  0  0  0  0
    5.6736    4.7294   26.1102 O   0  0  0  0  0  0  0  0  0  0  0  0
    6.4638    3.4165   24.2532 C   0  0  0  0  0  0  0  0  0  0  0  0
    6.9595    3.4361   22.9330 C   0  0  0  0  0  0  0  0  0  0  0  0
    7.1261    4.3767   22.4127 H   0  0  0  0  0  0  0  0  0  0  0  0
    7.2485    2.2365   22.3007 C   0  0  0  0  0  0  0  0  0  0  0  0
    7.6225    2.2181   21.2836 H   0  0  0  0  0  0  0  0  0  0  0  0
    7.0742    1.0148   22.9678 C   0  0  0  0  0  0  0  0  0  0  0  0
    7.4772   -0.2238   22.3405 C   0  0  0  0  0  0  0  0  0  0  0  0
    7.3638   -0.6435   20.9737 C   0  0  0  0  0  0  0  0  0  0  0  0
    6.6147   -0.0020   19.8828 C   0  0  0  0  0  0  0  0  0  0  0  0
    7.1299   -0.0004   18.5729 C   0  0  0  0  0  0  0  0  0  0  0  0
    8.0539   -0.5285   18.3426 H   0  0  0  0  0  0  0  0  0  0  0  0
    6.5595    0.6344   17.5449 N   0  0  0  0  0  0  0  0  0  0  0  0
    5.4132    1.2932   17.7786 C   0  0  0  0  0  0  0  0  0  0  0  0
    4.9901    1.8394   16.9343 H   0  0  0  0  0  0  0  0  0  0  0  0
    4.7821    1.3016   19.0252 C   0  0  0  0  0  0  0  0  0  0  0  0
    3.8508    1.8410   19.1431 H   0  0  0  0  0  0  0  0  0  0  0  0
    5.3830    0.6415   20.0944 C   0  0  0  0  0  0  0  0  0  0  0  0
    4.9176    0.6501   21.0822 H   0  0  0  0  0  0  0  0  0  0  0  0
    8.0622   -1.7577   20.7689 N   0  0  0  0  0  0  0  0  0  0  0  0
    8.5595   -2.0427   21.9709 N   0  0  0  0  0  0  0  0  0  0  0  0
    8.2675   -1.1884   22.9445 C   0  0  0  0  0  0  0  0  0  0  0  0
    9.0670   -1.5019   24.1904 C   0  0  0  0  0  0  0  0  0  0  0  0
    9.7034   -0.6629   24.4924 H   0  0  0  0  0  0  0  0  0  0  0  0
    8.4217   -1.7235   25.0450 H   0  0  0  0  0  0  0  0  0  0  0  0
    9.9081   -2.7393   23.7616 C   0  0  0  0  0  0  0  0  0  0  0  0
   10.9715   -2.5161   23.7943 H   0  0  0  0  0  0  0  0  0  0  0  0
    9.7188   -3.5939   24.4122 H   0  0  0  0  0  0  0  0  0  0  0  0
    9.5227   -3.0581   22.2895 C   0  0  0  0  0  0  0  0  0  0  0  0
   10.3691   -2.9278   21.6116 H   0  0  0  0  0  0  0  0  0  0  0  0
    9.0525   -4.0351   22.1575 H   0  0  0  0  0  0  0  0  0  0  0  0
    6.5913    0.9960   24.2814 C   0  0  0  0  0  0  0  0  0  0  0  0
    6.4505    0.0472   24.7943 H   0  0  0  0  0  0  0  0  0  0  0  0
    6.2780    2.1878   24.9173 C   0  0  0  0  0  0  0  0  0  0  0  0
    5.9006    2.1908   25.9366 H   0  0  0  0  0  0  0  0  0  0  0  0
  1  2  1  0
  2  3  1  0
  3  4  2  0
  3  5  1  0
  5  6  2  0
  6  7  1  0
  6  8  1  0
  8  9  1  0
  8 10  2  0
 10 11  1  0
 11 12  1  0
 12 13  1  0
 13 14  2  0
 14 15  1  0
 14 16  1  0
 16 17  2  0
 17 18  1  0
 17 19  1  0
 19 20  1  0
 19 21  2  0
 21 22  1  0
 12 23  2  0
 23 24  1  0
 24 25  1  0
 25 26  1  0
 26 27  1  0
 26 28  1  0
 26 29  1  0
 29 30  1  0
 29 31  1  0
 29 32  1  0
 32 33  1  0
 32 34  1  0
 10 35  1  0
 35 36  1  0
 35 37  2  0
 37 38  1  0
 37  5  1  0
 25 11  2  0
 21 13  1  0
 32 24  1  0
M  END
>  <cnnaffinity>  (1) 
-5.24473

>  <filename>  (1) 
O=C(O)c1ccc(-c2c(-c3cccnc3)nn3c2CCC3)cc1

$$$$
