
     RDKit          3D

 42 44  0  0  0  0  0  0  0  0999 V2000
   14.4658    3.4607   23.6536 H   0  0  0  0  0  0  0  0  0  0  0  0
   13.9131    3.4342   22.8511 O   0  0  0  0  0  0  0  0  0  0  0  0
   12.5673    3.4844   23.2525 N   0  0  0  0  0  0  0  0  0  0  0  0
   12.0663    4.0072   22.5435 H   0  0  0  0  0  0  0  0  0  0  0  0
   11.8553    2.3142   23.5493 C   0  0  0  0  0  0  0  0  0  0  0  0
   12.3483    1.2797   23.9435 O   0  0  0  0  0  0  0  0  0  0  0  0
   10.3589    2.5498   23.4216 C   0  0  0  0  0  0  0  0  0  0  0  0
    9.9136    1.9737   24.2359 H   0  0  0  0  0  0  0  0  0  0  0  0
   10.1546    3.6083   23.6198 H   0  0  0  0  0  0  0  0  0  0  0  0
    9.7392    2.1188   22.0772 C   0  0  0  0  0  0  0  0  0  0  0  0
   10.0065    1.0695   21.8744 H   0  0  0  0  0  0  0  0  0  0  0  0
   10.1687    2.7022   21.2536 H   0  0  0  0  0  0  0  0  0  0  0  0
    8.2088    2.2859   22.0278 C   0  0  0  0  0  0  0  0  0  0  0  0
    7.8772    2.2152   20.9829 H   0  0  0  0  0  0  0  0  0  0  0  0
    7.9267    3.2910   22.3705 H   0  0  0  0  0  0  0  0  0  0  0  0
    7.4139    1.2384   22.8298 C   0  0  0  0  0  0  0  0  0  0  0  0
    7.6982    1.2537   23.8911 H   0  0  0  0  0  0  0  0  0  0  0  0
    6.3457    1.4850   22.8015 H   0  0  0  0  0  0  0  0  0  0  0  0
    7.6358   -0.1472   22.3022 C   0  0  0  0  0  0  0  0  0  0  0  0
    7.3803   -0.6524   20.9845 C   0  0  0  0  0  0  0  0  0  0  0  0
    6.6430    0.0036   19.8939 C   0  0  0  0  0  0  0  0  0  0  0  0
    7.1597    0.0308   18.5852 C   0  0  0  0  0  0  0  0  0  0  0  0
    8.1013   -0.4658   18.3487 H   0  0  0  0  0  0  0  0  0  0  0  0
    6.5644    0.6632   17.5672 N   0  0  0  0  0  0  0  0  0  0  0  0
    5.4061    1.2975   17.8181 C   0  0  0  0  0  0  0  0  0  0  0  0
    4.9469    1.8187   16.9817 H   0  0  0  0  0  0  0  0  0  0  0  0
    4.7910    1.3108   19.0738 C   0  0  0  0  0  0  0  0  0  0  0  0
    3.8595    1.8475   19.2264 H   0  0  0  0  0  0  0  0  0  0  0  0
    5.4230    0.6544   20.1265 C   0  0  0  0  0  0  0  0  0  0  0  0
    4.9898    0.6439   21.1260 H   0  0  0  0  0  0  0  0  0  0  0  0
    7.9661   -1.8341   20.7898 N   0  0  0  0  0  0  0  0  0  0  0  0
    8.5451   -2.0874   21.9649 N   0  0  0  0  0  0  0  0  0  0  0  0
    8.4275   -1.1162   22.8781 C   0  0  0  0  0  0  0  0  0  0  0  0
    9.3909   -1.3388   24.0049 C   0  0  0  0  0  0  0  0  0  0  0  0
    8.8698   -1.3776   24.9651 H   0  0  0  0  0  0  0  0  0  0  0  0
   10.1108   -0.5133   24.0643 H   0  0  0  0  0  0  0  0  0  0  0  0
   10.0688   -2.6905   23.6322 C   0  0  0  0  0  0  0  0  0  0  0  0
    9.8168   -3.4653   24.3539 H   0  0  0  0  0  0  0  0  0  0  0  0
   11.1517   -2.6130   23.5974 H   0  0  0  0  0  0  0  0  0  0  0  0
    9.5548   -3.0675   22.2247 C   0  0  0  0  0  0  0  0  0  0  0  0
   10.3299   -2.9431   21.4682 H   0  0  0  0  0  0  0  0  0  0  0  0
    9.1198   -4.0651   22.1581 H   0  0  0  0  0  0  0  0  0  0  0  0
  1  2  1  0
  2  3  1  0
  3  4  1  0
  3  5  1  0
  5  6  2  0
  5  7  1  0
  7  8  1  0
  7  9  1  0
  7 10  1  0
 10 11  1  0
 10 12  1  0
 10 13  1  0
 13 14  1  0
 13 15  1  0
 13 16  1  0
 16 17  1  0
 16 18  1  0
 16 19  1  0
 19 20  1  0
 20 21  1  0
 21 22  2  0
 22 23  1  0
 22 24  1  0
 24 25  2  0
 25 26  1  0
 25 27  1  0
 27 28  1  0
 27 29  2  0
 29 30  1  0
 20 31  2  0
 31 32  1  0
 32 33  1  0
 33 34  1  0
 34 35  1  0
 34 36  1  0
 34 37  1  0
 37 38  1  0
 37 39  1  0
 37 40  1  0
 40 41  1  0
 40 42  1  0
 33 19  2  0
 29 21  1  0
 40 32  1  0
M  END
>  <cnnaffinity>  (1) 
-5.50635

>  <filename>  (1) 
O=C(CCCCc1c(-c2cccnc2)nn2c1CCC2)NO

$$$$
