
     RDKit          3D

 38 40  0  0  0  0  0  0  0  0999 V2000
    4.9644    1.8283   16.9579 H   0  0  0  0  0  0  0  0  0  0  0  0
    5.4135    1.3052   17.8015 C   0  0  0  0  0  0  0  0  0  0  0  0
    6.5661    0.6623   17.5578 N   0  0  0  0  0  0  0  0  0  0  0  0
    7.1514    0.0405   18.5925 C   0  0  0  0  0  0  0  0  0  0  0  0
    8.0814   -0.4740   18.3590 H   0  0  0  0  0  0  0  0  0  0  0  0
    6.6417   -0.0012   19.9087 C   0  0  0  0  0  0  0  0  0  0  0  0
    7.3511   -0.7167   21.0221 C   0  0  0  0  0  0  0  0  0  0  0  0
    8.7728   -0.6229   21.2090 C   0  0  0  0  0  0  0  0  0  0  0  0
    9.3643   -0.0177   20.5225 H   0  0  0  0  0  0  0  0  0  0  0  0
    9.3827   -1.2725   22.2418 C   0  0  0  0  0  0  0  0  0  0  0  0
   10.4488   -1.2716   22.4149 H   0  0  0  0  0  0  0  0  0  0  0  0
    8.6410   -2.0464   23.2049 C   0  0  0  0  0  0  0  0  0  0  0  0
    9.1484   -2.6183   24.1647 O   0  0  0  0  0  0  0  0  0  0  0  0
    7.2538   -2.1278   22.9767 N   0  0  0  0  0  0  0  0  0  0  0  0
    6.5023   -3.0529   23.7507 C   0  0  0  0  0  0  0  0  0  0  0  0
    5.7088   -3.8009   23.2188 O   0  0  0  0  0  0  0  0  0  0  0  0
    6.7100   -2.9301   25.0861 N   0  0  0  0  0  0  0  0  0  0  0  0
    7.6795   -2.6905   25.2521 H   0  0  0  0  0  0  0  0  0  0  0  0
    6.1616   -3.9279   25.9823 C   0  0  0  0  0  0  0  0  0  0  0  0
    5.0696   -3.9767   25.8461 H   0  0  0  0  0  0  0  0  0  0  0  0
    6.4950   -3.5692   27.4215 C   0  0  0  0  0  0  0  0  0  0  0  0
    7.5569   -3.2784   27.4688 H   0  0  0  0  0  0  0  0  0  0  0  0
    5.8975   -2.7220   27.7772 H   0  0  0  0  0  0  0  0  0  0  0  0
    6.2829   -4.8679   28.2126 C   0  0  0  0  0  0  0  0  0  0  0  0
    5.2460   -4.9380   28.5638 H   0  0  0  0  0  0  0  0  0  0  0  0
    6.9229   -4.9116   29.0997 H   0  0  0  0  0  0  0  0  0  0  0  0
    6.5942   -6.0091   27.2052 C   0  0  0  0  0  0  0  0  0  0  0  0
    7.5094   -6.5459   27.4778 H   0  0  0  0  0  0  0  0  0  0  0  0
    5.7855   -6.7475   27.2076 H   0  0  0  0  0  0  0  0  0  0  0  0
    6.7496   -5.3393   25.8183 C   0  0  0  0  0  0  0  0  0  0  0  0
    7.8135   -5.2551   25.5493 H   0  0  0  0  0  0  0  0  0  0  0  0
    6.2534   -5.8831   25.0105 H   0  0  0  0  0  0  0  0  0  0  0  0
    6.6551   -1.5125   21.8857 C   0  0  0  0  0  0  0  0  0  0  0  0
    5.5978   -1.7200   21.7380 H   0  0  0  0  0  0  0  0  0  0  0  0
    5.4145    0.6560   20.1223 C   0  0  0  0  0  0  0  0  0  0  0  0
    4.9629    0.6680   21.1165 H   0  0  0  0  0  0  0  0  0  0  0  0
    4.7988    1.3228   19.0582 C   0  0  0  0  0  0  0  0  0  0  0  0
    3.8658    1.8602   19.1893 H   0  0  0  0  0  0  0  0  0  0  0  0
  1  2  1  0
  2  3  2  0
  3  4  1  0
  4  5  1  0
  4  6  2  0
  6  7  1  0
  7  8  1  0
  8  9  1  0
  8 10  2  0
 10 11  1  0
 10 12  1  0
 12 13  2  0
 12 14  1  0
 14 15  1  0
 15 16  2  0
 15 17  1  0
 17 18  1  0
 17 19  1  0
 19 20  1  0
 19 21  1  0
 21 22  1  0
 21 23  1  0
 21 24  1  0
 24 25  1  0
 24 26  1  0
 24 27  1  0
 27 28  1  0
 27 29  1  0
 27 30  1  0
 30 31  1  0
 30 32  1  0
 14 33  1  0
 33 34  1  0
  6 35  1  0
 35 36  1  0
 35 37  2  0
 37 38  1  0
 37  2  1  0
 33  7  2  0
 30 19  1  0
M  END
>  <cnnaffinity>  (1) 
-5.23002

>  <filename>  (1) 
O=C(NC1CCCC1)n1cc(-c2cccnc2)ccc1=O

$$$$
