
     RDKit          3D

 34 35  0  0  0  0  0  0  0  0999 V2000
    4.9143    1.7880   16.9915 H   0  0  0  0  0  0  0  0  0  0  0  0
    5.3944    1.2994   17.8346 C   0  0  0  0  0  0  0  0  0  0  0  0
    6.5597    0.6870   17.5675 N   0  0  0  0  0  0  0  0  0  0  0  0
    7.1634    0.0703   18.5910 C   0  0  0  0  0  0  0  0  0  0  0  0
    8.1168   -0.4110   18.3702 H   0  0  0  0  0  0  0  0  0  0  0  0
    6.6452   -0.0019   19.8946 C   0  0  0  0  0  0  0  0  0  0  0  0
    7.4173   -0.6789   20.9938 C   0  0  0  0  0  0  0  0  0  0  0  0
    6.7454   -0.9675   21.8144 H   0  0  0  0  0  0  0  0  0  0  0  0
    7.8826   -1.6050   20.6308 H   0  0  0  0  0  0  0  0  0  0  0  0
    8.5213    0.2276   21.5752 C   0  0  1  0  0  0  0  0  0  0  0  0
    9.0344   -0.2967   22.3854 H   0  0  0  0  0  0  0  0  0  0  0  0
    9.4606    0.4968   20.5751 F   0  0  0  0  0  0  0  0  0  0  0  0
    7.9544    1.5376   22.1881 C   0  0  0  0  0  0  0  0  0  0  0  0
    7.6240    1.5354   23.3675 O   0  0  0  0  0  0  0  0  0  0  0  0
    7.7951    2.6204   21.3938 N   0  0  0  0  0  0  0  0  0  0  0  0
    8.0727    2.5328   20.4331 H   0  0  0  0  0  0  0  0  0  0  0  0
    7.1717    3.8605   21.8808 C   0  0  0  0  0  0  0  0  0  0  0  0
    7.1756    4.6094   21.0944 H   0  0  0  0  0  0  0  0  0  0  0  0
    5.6979    3.6847   22.3082 C   0  0  0  0  0  0  0  0  0  0  0  0
    5.5245    2.6400   22.5703 H   0  0  0  0  0  0  0  0  0  0  0  0
    5.0083    3.9318   21.4899 H   0  0  0  0  0  0  0  0  0  0  0  0
    5.5185    4.5986   23.5299 C   0  0  0  0  0  0  0  0  0  0  0  0
    5.2080    5.6038   23.2167 H   0  0  0  0  0  0  0  0  0  0  0  0
    4.7467    4.2198   24.2059 H   0  0  0  0  0  0  0  0  0  0  0  0
    6.9036    4.6468   24.2026 C   0  0  0  0  0  0  0  0  0  0  0  0
    7.0528    5.5668   24.7730 H   0  0  0  0  0  0  0  0  0  0  0  0
    7.0240    3.8006   24.8857 H   0  0  0  0  0  0  0  0  0  0  0  0
    7.9262    4.5111   23.0636 C   0  0  0  0  0  0  0  0  0  0  0  0
    8.3157    5.4885   22.7553 H   0  0  0  0  0  0  0  0  0  0  0  0
    8.7912    3.9104   23.3464 H   0  0  0  0  0  0  0  0  0  0  0  0
    5.4294    0.6470   20.1496 C   0  0  0  0  0  0  0  0  0  0  0  0
    5.0116    0.6298   21.1627 H   0  0  0  0  0  0  0  0  0  0  0  0
    4.7990    1.3172   19.0993 C   0  0  0  0  0  0  0  0  0  0  0  0
    3.8711    1.8542   19.2547 H   0  0  0  0  0  0  0  0  0  0  0  0
  1  2  1  0
  2  3  2  0
  3  4  1  0
  4  5  1  0
  4  6  2  0
  6  7  1  0
  7  8  1  0
  7  9  1  0
  7 10  1  0
 10 11  1  1
 10 12  1  0
 10 13  1  0
 13 14  2  0
 13 15  1  0
 15 16  1  0
 15 17  1  0
 17 18  1  0
 17 19  1  0
 19 20  1  0
 19 21  1  0
 19 22  1  0
 22 23  1  0
 22 24  1  0
 22 25  1  0
 25 26  1  0
 25 27  1  0
 25 28  1  0
 28 29  1  0
 28 30  1  0
  6 31  1  0
 31 32  1  0
 31 33  2  0
 33 34  1  0
 33  2  1  0
 28 17  1  0
M  END
>  <cnnaffinity>  (1) 
-4.81948

>  <filename>  (1) 
O=C(NC1CCCC1)[C@H](F)Cc1cccnc1

$$$$
