
     RDKit          3D

 32 35  0  0  0  0  0  0  0  0999 V2000
    4.9206    1.7764   17.0005 H   0  0  0  0  0  0  0  0  0  0  0  0
    5.4051    1.2891   17.8422 C   0  0  0  0  0  0  0  0  0  0  0  0
    6.5703    0.6730   17.5871 N   0  0  0  0  0  0  0  0  0  0  0  0
    7.1679    0.0448   18.6013 C   0  0  0  0  0  0  0  0  0  0  0  0
    8.1193   -0.4346   18.3751 H   0  0  0  0  0  0  0  0  0  0  0  0
    6.6446    0.0142   19.8992 C   0  0  0  0  0  0  0  0  0  0  0  0
    7.3692   -0.6800   20.9465 C   0  0  0  0  0  0  0  0  0  0  0  0
    7.6730   -2.0075   20.8278 N   0  0  0  0  0  0  0  0  0  0  0  0
    8.3038   -2.3020   21.9329 C   0  0  0  0  0  0  0  0  0  0  0  0
    9.0046   -3.7213   22.6707 S   0  0  0  0  0  0  0  0  0  0  0  0
    9.5257   -2.7589   24.0397 C   0  0  0  0  0  0  0  0  0  0  0  0
   10.0641   -3.2338   24.8498 H   0  0  0  0  0  0  0  0  0  0  0  0
    9.1627   -1.4714   23.9351 C   0  0  0  0  0  0  0  0  0  0  0  0
    9.3238   -0.6540   24.6329 H   0  0  0  0  0  0  0  0  0  0  0  0
    8.4910   -1.2197   22.7487 N   0  0  0  0  0  0  0  0  0  0  0  0
    7.8761   -0.1525   22.1200 C   0  0  0  0  0  0  0  0  0  0  0  0
    7.8435    1.2443   22.5486 C   0  0  0  0  0  0  0  0  0  0  0  0
    6.8478    1.9311   22.3941 O   0  0  0  0  0  0  0  0  0  0  0  0
    9.0857    1.8259   23.2044 C   0  0  0  0  0  0  0  0  0  0  0  0
   10.3887    1.4050   22.8863 C   0  0  0  0  0  0  0  0  0  0  0  0
   10.5672    0.6192   22.1583 H   0  0  0  0  0  0  0  0  0  0  0  0
   11.4754    2.0199   23.5190 C   0  0  0  0  0  0  0  0  0  0  0  0
   12.4855    1.6964   23.2842 H   0  0  0  0  0  0  0  0  0  0  0  0
   11.3554    3.0043   24.4172 N   0  0  0  0  0  0  0  0  0  0  0  0
   10.1069    3.4070   24.7024 C   0  0  0  0  0  0  0  0  0  0  0  0
   10.0033    4.2103   25.4274 H   0  0  0  0  0  0  0  0  0  0  0  0
    8.9567    2.8582   24.1448 C   0  0  0  0  0  0  0  0  0  0  0  0
    7.9790    3.2405   24.4185 H   0  0  0  0  0  0  0  0  0  0  0  0
    5.4244    0.6517   20.1536 C   0  0  0  0  0  0  0  0  0  0  0  0
    5.0079    0.6468   21.1622 H   0  0  0  0  0  0  0  0  0  0  0  0
    4.7979    1.3068   19.1004 C   0  0  0  0  0  0  0  0  0  0  0  0
    3.8724    1.8444   19.2608 H   0  0  0  0  0  0  0  0  0  0  0  0
  1  2  1  0
  2  3  2  0
  3  4  1  0
  4  5  1  0
  4  6  2  0
  6  7  1  0
  7  8  1  0
  8  9  2  0
  9 10  1  0
 10 11  1  0
 11 12  1  0
 11 13  2  0
 13 14  1  0
 13 15  1  0
 15 16  1  0
 16 17  1  0
 17 18  2  0
 17 19  1  0
 19 20  2  0
 20 21  1  0
 20 22  1  0
 22 23  1  0
 22 24  2  0
 24 25  1  0
 25 26  1  0
 25 27  2  0
 27 28  1  0
  6 29  1  0
 29 30  1  0
 29 31  2  0
 31 32  1  0
 31  2  1  0
 16  7  2  0
 27 19  1  0
 15  9  1  0
M  END
>  <cnnaffinity>  (1) 
-6.07149

>  <filename>  (1) 
O=C(c1ccncc1)c1c(-c2cccnc2)nc2sccn12

$$$$
