
     RDKit          3D

 40 42  0  0  0  0  0  0  0  0999 V2000
    5.0020    1.8093   16.9720 H   0  0  0  0  0  0  0  0  0  0  0  0
    5.4384    1.2931   17.8267 C   0  0  0  0  0  0  0  0  0  0  0  0
    6.5916    0.6424   17.6039 N   0  0  0  0  0  0  0  0  0  0  0  0
    7.1564    0.0249   18.6481 C   0  0  0  0  0  0  0  0  0  0  0  0
    8.0816   -0.5069   18.4348 H   0  0  0  0  0  0  0  0  0  0  0  0
    6.6245    0.0181   19.9436 C   0  0  0  0  0  0  0  0  0  0  0  0
    7.3289   -0.6751   21.0576 C   0  0  0  0  0  0  0  0  0  0  0  0
    6.5556   -1.1829   21.9831 N   0  0  0  0  0  0  0  0  0  0  0  0
    7.1259   -1.8903   23.0280 N   0  0  0  0  0  0  0  0  0  0  0  0
    6.2609   -2.7012   23.8513 C   0  0  0  0  0  0  0  0  0  0  0  0
    5.4153   -3.4227   23.3784 O   0  0  0  0  0  0  0  0  0  0  0  0
    6.5071   -2.5318   25.1900 N   0  0  0  0  0  0  0  0  0  0  0  0
    7.5052   -2.4495   25.3378 H   0  0  0  0  0  0  0  0  0  0  0  0
    5.7936   -3.3510   26.1592 C   0  0  0  0  0  0  0  0  0  0  0  0
    4.7093   -3.2336   25.9959 H   0  0  0  0  0  0  0  0  0  0  0  0
    6.1668   -4.8432   26.0434 C   0  0  0  0  0  0  0  0  0  0  0  0
    5.9099   -5.1960   25.0393 H   0  0  0  0  0  0  0  0  0  0  0  0
    7.2630   -4.9396   26.1481 H   0  0  0  0  0  0  0  0  0  0  0  0
    5.4646   -5.6788   27.1256 C   0  0  0  0  0  0  0  0  0  0  0  0
    5.7537   -6.7307   27.0324 H   0  0  0  0  0  0  0  0  0  0  0  0
    4.3765   -5.6345   26.9620 H   0  0  0  0  0  0  0  0  0  0  0  0
    5.7619   -5.1513   28.5373 C   0  0  0  0  0  0  0  0  0  0  0  0
    5.2099   -5.7301   29.2873 H   0  0  0  0  0  0  0  0  0  0  0  0
    6.8319   -5.2841   28.7621 H   0  0  0  0  0  0  0  0  0  0  0  0
    5.3922   -3.6645   28.6393 C   0  0  0  0  0  0  0  0  0  0  0  0
    5.5835   -3.2779   29.6465 H   0  0  0  0  0  0  0  0  0  0  0  0
    4.3060   -3.5550   28.4925 H   0  0  0  0  0  0  0  0  0  0  0  0
    6.1281   -2.8440   27.5607 C   0  0  0  0  0  0  0  0  0  0  0  0
    7.2241   -2.9510   27.6570 H   0  0  0  0  0  0  0  0  0  0  0  0
    5.8989   -1.7758   27.6453 H   0  0  0  0  0  0  0  0  0  0  0  0
    8.5121   -2.0571   23.2269 C   0  0  0  0  0  0  0  0  0  0  0  0
    8.9679   -2.6343   24.2100 O   0  0  0  0  0  0  0  0  0  0  0  0
    9.3285   -1.4952   22.1634 C   0  0  0  0  0  0  0  0  0  0  0  0
   10.3918   -1.6588   22.2931 H   0  0  0  0  0  0  0  0  0  0  0  0
    8.7710   -0.8197   21.1147 C   0  0  0  0  0  0  0  0  0  0  0  0
    9.3953   -0.3717   20.3445 H   0  0  0  0  0  0  0  0  0  0  0  0
    5.3882    0.6574   20.1489 C   0  0  0  0  0  0  0  0  0  0  0  0
    4.9107    0.6293   21.1312 H   0  0  0  0  0  0  0  0  0  0  0  0
    4.7994    1.3187   19.0723 C   0  0  0  0  0  0  0  0  0  0  0  0
    3.8656    1.8621   19.1836 H   0  0  0  0  0  0  0  0  0  0  0  0
  1  2  1  0
  2  3  2  0
  3  4  1  0
  4  5  1  0
  4  6  2  0
  6  7  1  0
  7  8  2  0
  8  9  1  0
  9 10  1  0
 10 11  2  0
 10 12  1  0
 12 13  1  0
 12 14  1  0
 14 15  1  0
 14 16  1  0
 16 17  1  0
 16 18  1  0
 16 19  1  0
 19 20  1  0
 19 21  1  0
 19 22  1  0
 22 23  1  0
 22 24  1  0
 22 25  1  0
 25 26  1  0
 25 27  1  0
 25 28  1  0
 28 29  1  0
 28 30  1  0
  9 31  1  0
 31 32  2  0
 31 33  1  0
 33 34  1  0
 33 35  2  0
 35 36  1  0
  6 37  1  0
 37 38  1  0
 37 39  2  0
 39 40  1  0
 39  2  1  0
 35  7  1  0
 28 14  1  0
M  END
>  <cnnaffinity>  (1) 
-5.23854

>  <filename>  (1) 
O=C(NC1CCCCC1)n1nc(-c2cccnc2)ccc1=O

$$$$
