
     RDKit          3D

 32 35  0  0  0  0  0  0  0  0999 V2000
    4.9499    1.8146   16.9666 H   0  0  0  0  0  0  0  0  0  0  0  0
    5.3979    1.2974   17.8149 C   0  0  0  0  0  0  0  0  0  0  0  0
    6.5532    0.6619   17.5661 N   0  0  0  0  0  0  0  0  0  0  0  0
    7.1501    0.0322   18.5822 C   0  0  0  0  0  0  0  0  0  0  0  0
    8.0992   -0.4464   18.3527 H   0  0  0  0  0  0  0  0  0  0  0  0
    6.6380    0.0027   19.8912 C   0  0  0  0  0  0  0  0  0  0  0  0
    7.3944   -0.6474   20.9588 C   0  0  0  0  0  0  0  0  0  0  0  0
    8.1619   -1.7726   20.7364 N   0  0  0  0  0  0  0  0  0  0  0  0
    8.6203   -2.0674   21.9224 C   0  0  0  0  0  0  0  0  0  0  0  0
    9.7199   -3.2422   22.5659 S   0  0  0  0  0  0  0  0  0  0  0  0
    9.6652   -2.4920   24.1352 C   0  0  0  0  0  0  0  0  0  0  0  0
   10.2897   -2.9187   24.9086 H   0  0  0  0  0  0  0  0  0  0  0  0
    8.8235   -1.4449   24.1701 C   0  0  0  0  0  0  0  0  0  0  0  0
    8.5403   -0.8201   25.0089 H   0  0  0  0  0  0  0  0  0  0  0  0
    8.2336   -1.2061   22.9202 N   0  0  0  0  0  0  0  0  0  0  0  0
    7.4464   -0.2563   22.3006 C   0  0  0  0  0  0  0  0  0  0  0  0
    6.9449    0.8405   23.0041 N   0  0  0  0  0  0  0  0  0  0  0  0
    6.9216    1.7348   22.5347 H   0  0  0  0  0  0  0  0  0  0  0  0
    6.3699    0.7828   24.2608 C   0  0  0  0  0  0  0  0  0  0  0  0
    6.1557   -0.2682   24.8404 O   0  0  0  0  0  0  0  0  0  0  0  0
    6.0315    2.0823   24.9129 C   0  0  0  0  0  0  0  0  0  0  0  0
    6.3018    3.2969   24.3314 O   0  0  0  0  0  0  0  0  0  0  0  0
    5.9242    4.2549   25.2117 C   0  0  0  0  0  0  0  0  0  0  0  0
    6.0865    5.2740   24.8867 H   0  0  0  0  0  0  0  0  0  0  0  0
    5.4112    3.6969   26.3416 C   0  0  0  0  0  0  0  0  0  0  0  0
    5.0198    4.2122   27.2123 H   0  0  0  0  0  0  0  0  0  0  0  0
    5.4828    2.2849   26.1435 C   0  0  0  0  0  0  0  0  0  0  0  0
    5.1990    1.4612   26.7872 H   0  0  0  0  0  0  0  0  0  0  0  0
    5.4114    0.6506   20.1295 C   0  0  0  0  0  0  0  0  0  0  0  0
    4.9642    0.6379   21.1252 H   0  0  0  0  0  0  0  0  0  0  0  0
    4.7869    1.3121   19.0744 C   0  0  0  0  0  0  0  0  0  0  0  0
    3.8565    1.8516   19.2135 H   0  0  0  0  0  0  0  0  0  0  0  0
  1  2  1  0
  2  3  2  0
  3  4  1  0
  4  5  1  0
  4  6  2  0
  6  7  1  0
  7  8  1  0
  8  9  2  0
  9 10  1  0
 10 11  1  0
 11 12  1  0
 11 13  2  0
 13 14  1  0
 13 15  1  0
 15 16  1  0
 16 17  1  0
 17 18  1  0
 17 19  1  0
 19 20  2  0
 19 21  1  0
 21 22  1  0
 22 23  1  0
 23 24  1  0
 23 25  2  0
 25 26  1  0
 25 27  1  0
 27 28  1  0
  6 29  1  0
 29 30  1  0
 29 31  2  0
 31 32  1  0
 31  2  1  0
 16  7  2  0
 27 21  2  0
 15  9  1  0
M  END
>  <cnnaffinity>  (1) 
-5.37185

>  <filename>  (1) 
O=C(Nc1c(-c2cccnc2)nc2sccn12)c1ccco1

$$$$
