
     RDKit          3D

 37 38  0  0  0  0  0  0  0  0999 V2000
    5.9837   -0.8743   23.4522 H   0  0  0  0  0  0  0  0  0  0  0  0
    6.2750    0.0036   23.1475 O   0  0  0  0  0  0  0  0  0  0  0  0
    7.5060   -0.0668   22.4108 C   0  0  1  0  0  0  0  0  0  0  0  0
    8.2586   -0.6627   22.9330 H   0  0  0  0  0  0  0  0  0  0  0  0
    7.5095   -0.6052   20.9443 C   0  0  0  0  0  0  0  0  0  0  0  0
    8.3187   -1.4536   20.6552 O   0  0  0  0  0  0  0  0  0  0  0  0
    6.6585    0.0388   19.8926 C   0  0  0  0  0  0  0  0  0  0  0  0
    7.1658    0.0527   18.5856 C   0  0  0  0  0  0  0  0  0  0  0  0
    8.1034   -0.4551   18.3634 H   0  0  0  0  0  0  0  0  0  0  0  0
    6.5670    0.6799   17.5704 N   0  0  0  0  0  0  0  0  0  0  0  0
    5.4111    1.3118   17.8259 C   0  0  0  0  0  0  0  0  0  0  0  0
    4.9515    1.8201   16.9780 H   0  0  0  0  0  0  0  0  0  0  0  0
    4.8008    1.3152   19.0820 C   0  0  0  0  0  0  0  0  0  0  0  0
    3.8566    1.8300   19.2091 H   0  0  0  0  0  0  0  0  0  0  0  0
    5.4282    0.6657   20.1465 C   0  0  0  0  0  0  0  0  0  0  0  0
    4.9818    0.6574   21.1407 H   0  0  0  0  0  0  0  0  0  0  0  0
    8.1593    1.3004   22.1682 C   0  0  0  0  0  0  0  0  0  0  0  0
    9.3380    1.3605   21.8527 O   0  0  0  0  0  0  0  0  0  0  0  0
    7.3345    2.3702   22.2062 N   0  0  0  0  0  0  0  0  0  0  0  0
    6.3773    2.2023   22.4694 H   0  0  0  0  0  0  0  0  0  0  0  0
    7.7886    3.7310   21.9935 C   0  0  0  0  0  0  0  0  0  0  0  0
    8.5518    3.6805   21.2111 H   0  0  0  0  0  0  0  0  0  0  0  0
    8.4593    4.3376   23.2392 C   0  0  0  0  0  0  0  0  0  0  0  0
    8.9681    5.2525   22.9047 H   0  0  0  0  0  0  0  0  0  0  0  0
    9.2359    3.6487   23.5888 H   0  0  0  0  0  0  0  0  0  0  0  0
    7.4695    4.7028   24.3565 C   0  0  0  0  0  0  0  0  0  0  0  0
    8.0108    5.1718   25.1856 H   0  0  0  0  0  0  0  0  0  0  0  0
    7.0162    3.7869   24.7628 H   0  0  0  0  0  0  0  0  0  0  0  0
    6.3655    5.6361   23.8337 C   0  0  0  0  0  0  0  0  0  0  0  0
    5.6480    5.8622   24.6308 H   0  0  0  0  0  0  0  0  0  0  0  0
    6.8126    6.5962   23.5372 H   0  0  0  0  0  0  0  0  0  0  0  0
    5.6392    5.0241   22.6258 C   0  0  0  0  0  0  0  0  0  0  0  0
    5.0619    4.1492   22.9557 H   0  0  0  0  0  0  0  0  0  0  0  0
    4.9146    5.7351   22.2097 H   0  0  0  0  0  0  0  0  0  0  0  0
    6.6165    4.6005   21.5178 C   0  0  0  0  0  0  0  0  0  0  0  0
    6.0886    4.0690   20.7206 H   0  0  0  0  0  0  0  0  0  0  0  0
    7.0375    5.5017   21.0555 H   0  0  0  0  0  0  0  0  0  0  0  0
  1  2  1  0
  2  3  1  0
  3  4  1  1
  3  5  1  0
  5  6  2  0
  5  7  1  0
  7  8  2  0
  8  9  1  0
  8 10  1  0
 10 11  2  0
 11 12  1  0
 11 13  1  0
 13 14  1  0
 13 15  2  0
 15 16  1  0
  3 17  1  0
 17 18  2  0
 17 19  1  0
 19 20  1  0
 19 21  1  0
 21 22  1  0
 21 23  1  0
 23 24  1  0
 23 25  1  0
 23 26  1  0
 26 27  1  0
 26 28  1  0
 26 29  1  0
 29 30  1  0
 29 31  1  0
 29 32  1  0
 32 33  1  0
 32 34  1  0
 32 35  1  0
 35 36  1  0
 35 37  1  0
 15  7  1  0
 35 21  1  0
M  END
>  <cnnaffinity>  (1) 
-4.10858

>  <filename>  (1) 
O=C(NC1CCCCC1)[C@@H](O)C(=O)c1cccnc1

$$$$
