
     RDKit          3D

 36 39  0  0  0  0  0  0  0  0999 V2000
    4.9609    1.7936   16.8909 H   0  0  0  0  0  0  0  0  0  0  0  0
    5.4422    1.3227   17.7484 C   0  0  0  0  0  0  0  0  0  0  0  0
    6.6119    0.7095   17.5126 N   0  0  0  0  0  0  0  0  0  0  0  0
    7.2204    0.1119   18.5437 C   0  0  0  0  0  0  0  0  0  0  0  0
    8.1618   -0.3845   18.3215 H   0  0  0  0  0  0  0  0  0  0  0  0
    6.7086    0.0955   19.8542 C   0  0  0  0  0  0  0  0  0  0  0  0
    7.3958   -0.6365   20.9369 C   0  0  0  0  0  0  0  0  0  0  0  0
    8.6200   -1.1659   20.7978 N   0  0  0  0  0  0  0  0  0  0  0  0
    8.7659   -1.8602   21.9491 N   0  0  0  0  0  0  0  0  0  0  0  0
    9.6996   -2.7777   22.4135 C   0  0  0  0  0  0  0  0  0  0  0  0
   10.6524   -2.8927   21.9422 H   0  0  0  0  0  0  0  0  0  0  0  0
    9.1605   -3.3526   23.5073 C   0  0  0  0  0  0  0  0  0  0  0  0
    9.5306   -4.1616   24.1179 H   0  0  0  0  0  0  0  0  0  0  0  0
    7.9132   -2.7610   23.7704 N   0  0  0  0  0  0  0  0  0  0  0  0
    7.0219   -3.2181   24.7754 C   0  0  0  0  0  0  0  0  0  0  0  0
    7.0764   -4.3459   25.2138 O   0  0  0  0  0  0  0  0  0  0  0  0
    6.1631   -2.2526   25.2134 N   0  0  0  0  0  0  0  0  0  0  0  0
    6.1986   -1.3713   24.7346 H   0  0  0  0  0  0  0  0  0  0  0  0
    5.1713   -2.4222   26.1978 C   0  0  0  0  0  0  0  0  0  0  0  0
    5.3536   -3.3135   27.2634 C   0  0  0  0  0  0  0  0  0  0  0  0
    6.2776   -3.8708   27.3357 H   0  0  0  0  0  0  0  0  0  0  0  0
    4.3387   -3.4904   28.2042 C   0  0  0  0  0  0  0  0  0  0  0  0
    4.4725   -4.1807   29.0338 H   0  0  0  0  0  0  0  0  0  0  0  0
    3.1370   -2.7883   28.0660 C   0  0  0  0  0  0  0  0  0  0  0  0
    1.8528   -3.0490   29.2141 Cl  0  0  0  0  0  0  0  0  0  0  0  0
    2.9530   -1.8814   27.0159 C   0  0  0  0  0  0  0  0  0  0  0  0
    2.0183   -1.3338   26.9254 H   0  0  0  0  0  0  0  0  0  0  0  0
    3.9843   -1.6911   26.0889 C   0  0  0  0  0  0  0  0  0  0  0  0
    3.8632   -0.9917   25.2665 H   0  0  0  0  0  0  0  0  0  0  0  0
    7.6998   -1.8120   22.7623 C   0  0  0  0  0  0  0  0  0  0  0  0
    6.7953   -0.9561   22.1794 C   0  0  0  0  0  0  0  0  0  0  0  0
    5.9348   -0.4736   22.5898 H   0  0  0  0  0  0  0  0  0  0  0  0
    5.4788    0.7420   20.0791 C   0  0  0  0  0  0  0  0  0  0  0  0
    5.0214    0.7729   21.0709 H   0  0  0  0  0  0  0  0  0  0  0  0
    4.8357    1.3581   19.0088 C   0  0  0  0  0  0  0  0  0  0  0  0
    3.8816    1.8598   19.1390 H   0  0  0  0  0  0  0  0  0  0  0  0
  1  2  1  0
  2  3  2  0
  3  4  1  0
  4  5  1  0
  4  6  2  0
  6  7  1  0
  7  8  2  0
  8  9  1  0
  9 10  1  0
 10 11  1  0
 10 12  2  0
 12 13  1  0
 12 14  1  0
 14 15  1  0
 15 16  2  0
 15 17  1  0
 17 18  1  0
 17 19  1  0
 19 20  2  0
 20 21  1  0
 20 22  1  0
 22 23  1  0
 22 24  2  0
 24 25  1  0
 24 26  1  0
 26 27  1  0
 26 28  2  0
 28 29  1  0
 14 30  1  0
 30 31  2  0
 31 32  1  0
  6 33  1  0
 33 34  1  0
 33 35  2  0
 35 36  1  0
 35  2  1  0
 31  7  1  0
 30  9  1  0
 28 19  1  0
M  END
>  <cnnaffinity>  (1) 
-5.67942

>  <filename>  (1) 
O=C(Nc1ccc(Cl)cc1)n1ccn2nc(-c3cccnc3)cc12

$$$$
