
     RDKit          3D

 33 35  0  0  0  0  0  0  0  0999 V2000
    5.0319    1.7994   16.9548 H   0  0  0  0  0  0  0  0  0  0  0  0
    5.5023    1.2894   17.7889 C   0  0  0  0  0  0  0  0  0  0  0  0
    6.6548    0.6559   17.5151 N   0  0  0  0  0  0  0  0  0  0  0  0
    7.2626    0.0284   18.5274 C   0  0  0  0  0  0  0  0  0  0  0  0
    8.1820   -0.5028   18.2830 H   0  0  0  0  0  0  0  0  0  0  0  0
    6.7612    0.0003   19.8379 C   0  0  0  0  0  0  0  0  0  0  0  0
    7.4223   -0.7211   20.9132 C   0  0  0  0  0  0  0  0  0  0  0  0
    6.8661   -1.2402   22.0148 C   0  0  0  0  0  0  0  0  0  0  0  0
    5.8275   -1.2674   22.2924 H   0  0  0  0  0  0  0  0  0  0  0  0
    7.8756   -1.8613   22.7540 N   0  0  0  0  0  0  0  0  0  0  0  0
    7.6639   -2.3137   24.0814 C   0  0  0  0  0  0  0  0  0  0  0  0
    6.8372   -1.7838   24.7896 O   0  0  0  0  0  0  0  0  0  0  0  0
    8.3833   -3.4180   24.3909 N   0  0  0  0  0  0  0  0  0  0  0  0
    9.2810   -3.4589   23.9247 H   0  0  0  0  0  0  0  0  0  0  0  0
    8.1788   -4.1176   25.5902 C   0  0  0  0  0  0  0  0  0  0  0  0
    9.2838   -4.6258   26.2711 C   0  0  0  0  0  0  0  0  0  0  0  0
   10.2809   -4.4743   25.8631 H   0  0  0  0  0  0  0  0  0  0  0  0
    9.1072   -5.3044   27.4805 C   0  0  0  0  0  0  0  0  0  0  0  0
    9.9742   -5.6579   28.0235 H   0  0  0  0  0  0  0  0  0  0  0  0
    7.8113   -5.5001   27.9707 C   0  0  0  0  0  0  0  0  0  0  0  0
    7.5128   -6.3975   29.4282 Cl  0  0  0  0  0  0  0  0  0  0  0  0
    6.7024   -4.9936   27.2864 C   0  0  0  0  0  0  0  0  0  0  0  0
    5.7057   -5.1319   27.6943 H   0  0  0  0  0  0  0  0  0  0  0  0
    6.8816   -4.2969   26.0952 C   0  0  0  0  0  0  0  0  0  0  0  0
    6.0423   -3.8681   25.5589 H   0  0  0  0  0  0  0  0  0  0  0  0
    9.0735   -1.7232   22.0994 C   0  0  0  0  0  0  0  0  0  0  0  0
   10.5955   -2.2276   22.5267 S   0  0  0  0  0  0  0  0  0  0  0  0
    8.7718   -1.0362   20.9741 N   0  0  0  0  0  0  0  0  0  0  0  0
    9.5206   -0.6754   20.4082 H   0  0  0  0  0  0  0  0  0  0  0  0
    5.5431    0.6497   20.0974 C   0  0  0  0  0  0  0  0  0  0  0  0
    5.1294    0.6440   21.1073 H   0  0  0  0  0  0  0  0  0  0  0  0
    4.9039    1.3091   19.0544 C   0  0  0  0  0  0  0  0  0  0  0  0
    3.9697    1.8355   19.2135 H   0  0  0  0  0  0  0  0  0  0  0  0
  1  2  1  0
  2  3  2  0
  3  4  1  0
  4  5  1  0
  4  6  2  0
  6  7  1  0
  7  8  2  0
  8  9  1  0
  8 10  1  0
 10 11  1  0
 11 12  2  0
 11 13  1  0
 13 14  1  0
 13 15  1  0
 15 16  2  0
 16 17  1  0
 16 18  1  0
 18 19  1  0
 18 20  2  0
 20 21  1  0
 20 22  1  0
 22 23  1  0
 22 24  2  0
 24 25  1  0
 10 26  1  0
 26 27  2  0
 26 28  1  0
 28 29  1  0
  6 30  1  0
 30 31  1  0
 30 32  2  0
 32 33  1  0
 32  2  1  0
 28  7  1  0
 24 15  1  0
M  END
>  <cnnaffinity>  (1) 
-5.47664

>  <filename>  (1) 
O=C(Nc1ccc(Cl)cc1)n1cc(-c2cccnc2)[nH]c1=S

$$$$
