
     RDKit          3D

 38 41  0  0  0  0  0  0  0  0999 V2000
    4.9924    1.7369   16.9933 H   0  0  0  0  0  0  0  0  0  0  0  0
    5.4268    1.2591   17.8689 C   0  0  0  0  0  0  0  0  0  0  0  0
    6.5626    0.5780   17.6514 N   0  0  0  0  0  0  0  0  0  0  0  0
    7.1308   -0.0177   18.7014 C   0  0  0  0  0  0  0  0  0  0  0  0
    8.0438   -0.5751   18.4972 H   0  0  0  0  0  0  0  0  0  0  0  0
    6.6273    0.0621   20.0097 C   0  0  0  0  0  0  0  0  0  0  0  0
    7.3560   -0.6043   21.0802 C   0  0  0  0  0  0  0  0  0  0  0  0
    7.7913   -1.8944   20.9133 N   0  0  0  0  0  0  0  0  0  0  0  0
    8.3620   -2.1769   22.0487 C   0  0  0  0  0  0  0  0  0  0  0  0
    9.1232   -3.5809   22.7442 S   0  0  0  0  0  0  0  0  0  0  0  0
    9.5473   -2.6512   24.1715 C   0  0  0  0  0  0  0  0  0  0  0  0
   10.0736   -3.1529   24.9773 H   0  0  0  0  0  0  0  0  0  0  0  0
    9.1186   -1.3799   24.0935 C   0  0  0  0  0  0  0  0  0  0  0  0
    9.3078   -0.5668   24.7832 H   0  0  0  0  0  0  0  0  0  0  0  0
    8.4070   -1.1222   22.9256 N   0  0  0  0  0  0  0  0  0  0  0  0
    7.7074   -0.0860   22.3174 C   0  0  0  0  0  0  0  0  0  0  0  0
    7.6272    1.3042   22.8753 C   0  0  0  0  0  0  0  0  0  0  0  0
    8.6299    1.7522   22.8562 H   0  0  0  0  0  0  0  0  0  0  0  0
    7.0095    1.9207   22.2158 H   0  0  0  0  0  0  0  0  0  0  0  0
    7.1056    1.4101   24.2349 N   0  0  0  0  0  0  0  0  0  0  0  0
    7.7207    1.1170   24.9749 H   0  0  0  0  0  0  0  0  0  0  0  0
    5.7821    1.1985   24.5247 C   0  0  0  0  0  0  0  0  0  0  0  0
    4.9265    1.1631   23.6556 O   0  0  0  0  0  0  0  0  0  0  0  0
    5.4726    1.0261   26.0056 C   0  0  0  0  0  0  0  0  0  0  0  0
    4.5920   -0.0002   26.3980 C   0  0  0  0  0  0  0  0  0  0  0  0
    4.2050   -0.6822   25.6435 H   0  0  0  0  0  0  0  0  0  0  0  0
    4.2328   -0.1525   27.7393 C   0  0  0  0  0  0  0  0  0  0  0  0
    3.5593   -0.9563   28.0258 H   0  0  0  0  0  0  0  0  0  0  0  0
    4.7203    0.7365   28.7006 C   0  0  0  0  0  0  0  0  0  0  0  0
    4.3909    0.6486   29.7324 H   0  0  0  0  0  0  0  0  0  0  0  0
    5.6310    1.7323   28.3300 C   0  0  0  0  0  0  0  0  0  0  0  0
    6.0316    2.4024   29.0863 H   0  0  0  0  0  0  0  0  0  0  0  0
    6.0174    1.8713   26.9945 C   0  0  0  0  0  0  0  0  0  0  0  0
    6.7401    2.6453   26.7325 H   0  0  0  0  0  0  0  0  0  0  0  0
    5.4341    0.7723   20.2265 C   0  0  0  0  0  0  0  0  0  0  0  0
    5.0042    0.8573   21.2303 H   0  0  0  0  0  0  0  0  0  0  0  0
    4.8175    1.3640   19.1236 C   0  0  0  0  0  0  0  0  0  0  0  0
    3.8949    1.9226   19.2246 H   0  0  0  0  0  0  0  0  0  0  0  0
  1  2  1  0
  2  3  2  0
  3  4  1  0
  4  5  1  0
  4  6  2  0
  6  7  1  0
  7  8  1  0
  8  9  2  0
  9 10  1  0
 10 11  1  0
 11 12  1  0
 11 13  2  0
 13 14  1  0
 13 15  1  0
 15 16  1  0
 16 17  1  0
 17 18  1  0
 17 19  1  0
 17 20  1  0
 20 21  1  0
 20 22  1  0
 22 23  2  0
 22 24  1  0
 24 25  2  0
 25 26  1  0
 25 27  1  0
 27 28  1  0
 27 29  2  0
 29 30  1  0
 29 31  1  0
 31 32  1  0
 31 33  2  0
 33 34  1  0
  6 35  1  0
 35 36  1  0
 35 37  2  0
 37 38  1  0
 37  2  1  0
 16  7  2  0
 33 24  1  0
 15  9  1  0
M  END
>  <cnnaffinity>  (1) 
-6.03873

>  <filename>  (1) 
O=C(NCc1c(-c2cccnc2)nc2sccn12)c1ccccc1

$$$$
