
     RDKit          3D

 36 38  0  0  0  0  0  0  0  0999 V2000
    4.9380    1.7610   16.9520 H   0  0  0  0  0  0  0  0  0  0  0  0
    5.4092    1.3005   17.8160 C   0  0  0  0  0  0  0  0  0  0  0  0
    6.5764    0.6721   17.5979 N   0  0  0  0  0  0  0  0  0  0  0  0
    7.1707    0.0923   18.6487 C   0  0  0  0  0  0  0  0  0  0  0  0
    8.1087   -0.4239   18.4440 H   0  0  0  0  0  0  0  0  0  0  0  0
    6.6473    0.1353   19.9599 C   0  0  0  0  0  0  0  0  0  0  0  0
    7.3007   -0.5112   21.0534 N   0  0  0  0  0  0  0  0  0  0  0  0
    7.6314   -1.8561   21.0162 C   0  0  0  0  0  0  0  0  0  0  0  0
    7.2707   -2.5216   20.2465 H   0  0  0  0  0  0  0  0  0  0  0  0
    8.3087   -2.1629   22.1396 C   0  0  0  0  0  0  0  0  0  0  0  0
    8.9120   -3.4936   22.4342 C   0  0  0  0  0  0  0  0  0  0  0  0
    8.8965   -4.0119   21.4753 H   0  0  0  0  0  0  0  0  0  0  0  0
    9.9435   -3.4030   22.7801 H   0  0  0  0  0  0  0  0  0  0  0  0
    8.1794   -4.3376   23.3605 N   0  0  0  0  0  0  0  0  0  0  0  0
    8.2416   -4.1053   24.3351 H   0  0  0  0  0  0  0  0  0  0  0  0
    6.9824   -4.8775   22.9703 C   0  0  0  0  0  0  0  0  0  0  0  0
    6.5998   -4.8191   21.8081 O   0  0  0  0  0  0  0  0  0  0  0  0
    6.1850   -5.5696   24.0410 C   0  0  0  0  0  0  0  0  0  0  0  0
    6.7113   -5.9624   25.2856 C   0  0  0  0  0  0  0  0  0  0  0  0
    7.7422   -5.7478   25.5703 H   0  0  0  0  0  0  0  0  0  0  0  0
    5.9294   -6.7157   26.1648 C   0  0  0  0  0  0  0  0  0  0  0  0
    6.3579   -7.0310   27.1121 H   0  0  0  0  0  0  0  0  0  0  0  0
    4.6132   -7.0625   25.8287 C   0  0  0  0  0  0  0  0  0  0  0  0
    4.0058   -7.6551   26.5091 H   0  0  0  0  0  0  0  0  0  0  0  0
    4.0732   -6.6439   24.6087 C   0  0  0  0  0  0  0  0  0  0  0  0
    3.0455   -6.8823   24.3390 H   0  0  0  0  0  0  0  0  0  0  0  0
    4.8518   -5.8918   23.7308 C   0  0  0  0  0  0  0  0  0  0  0  0
    4.4373   -5.5263   22.7946 H   0  0  0  0  0  0  0  0  0  0  0  0
    8.3389   -0.9986   22.8926 N   0  0  0  0  0  0  0  0  0  0  0  0
    8.5647   -0.8558   23.8652 H   0  0  0  0  0  0  0  0  0  0  0  0
    7.6526    0.0110   22.2843 C   0  0  0  0  0  0  0  0  0  0  0  0
    7.3133    1.4701   23.0040 S   0  0  0  0  0  0  0  0  0  0  0  0
    5.4279    0.7805   20.1711 C   0  0  0  0  0  0  0  0  0  0  0  0
    5.0019    0.7945   21.1744 H   0  0  0  0  0  0  0  0  0  0  0  0
    4.7938    1.3638   19.0709 C   0  0  0  0  0  0  0  0  0  0  0  0
    3.8314    1.8508   19.1792 H   0  0  0  0  0  0  0  0  0  0  0  0
  1  2  1  0
  2  3  2  0
  3  4  1  0
  4  5  1  0
  4  6  2  0
  6  7  1  0
  7  8  1  0
  8  9  1  0
  8 10  2  0
 10 11  1  0
 11 12  1  0
 11 13  1  0
 11 14  1  0
 14 15  1  0
 14 16  1  0
 16 17  2  0
 16 18  1  0
 18 19  2  0
 19 20  1  0
 19 21  1  0
 21 22  1  0
 21 23  2  0
 23 24  1  0
 23 25  1  0
 25 26  1  0
 25 27  2  0
 27 28  1  0
 10 29  1  0
 29 30  1  0
 29 31  1  0
 31 32  2  0
  6 33  1  0
 33 34  1  0
 33 35  2  0
 35 36  1  0
 35  2  1  0
 31  7  1  0
 27 18  1  0
M  END
>  <cnnaffinity>  (1) 
-5.19433

>  <filename>  (1) 
O=C(NCc1cn(-c2cccnc2)c(=S)[nH]1)c1ccccc1

$$$$
