
     RDKit          3D

 33 35  0  0  0  0  0  0  0  0999 V2000
    4.9833    1.7639   17.0241 H   0  0  0  0  0  0  0  0  0  0  0  0
    5.4252    1.2614   17.8803 C   0  0  0  0  0  0  0  0  0  0  0  0
    6.5871    0.6332   17.6515 N   0  0  0  0  0  0  0  0  0  0  0  0
    7.1809    0.0341   18.6879 C   0  0  0  0  0  0  0  0  0  0  0  0
    8.1338   -0.4344   18.4377 H   0  0  0  0  0  0  0  0  0  0  0  0
    6.6573    0.0127   19.9941 C   0  0  0  0  0  0  0  0  0  0  0  0
    7.3782   -0.6624   21.0935 C   0  0  0  0  0  0  0  0  0  0  0  0
    7.0478   -0.3654   22.3945 N   0  0  0  0  0  0  0  0  0  0  0  0
    7.7536   -1.0473   23.2272 C   0  0  0  0  0  0  0  0  0  0  0  0
    7.7145   -0.8958   24.5917 N   0  0  0  0  0  0  0  0  0  0  0  0
    8.1851   -1.5581   25.1747 H   0  0  0  0  0  0  0  0  0  0  0  0
    6.7931   -0.0567   25.1978 C   0  0  0  0  0  0  0  0  0  0  0  0
    6.0600    0.6859   24.6097 O   0  0  0  0  0  0  0  0  0  0  0  0
    6.8375   -0.2014   26.5667 N   0  0  0  0  0  0  0  0  0  0  0  0
    7.6922   -0.5736   26.9250 H   0  0  0  0  0  0  0  0  0  0  0  0
    5.9668    0.4788   27.4460 C   0  0  0  0  0  0  0  0  0  0  0  0
    6.4158    1.0062   28.6631 C   0  0  0  0  0  0  0  0  0  0  0  0
    7.4589    0.9101   28.9558 H   0  0  0  0  0  0  0  0  0  0  0  0
    5.5160    1.6859   29.4985 C   0  0  0  0  0  0  0  0  0  0  0  0
    5.8315    2.1161   30.4453 H   0  0  0  0  0  0  0  0  0  0  0  0
    4.1785    1.8141   29.1137 C   0  0  0  0  0  0  0  0  0  0  0  0
    3.0522    2.6579   30.1407 Cl  0  0  0  0  0  0  0  0  0  0  0  0
    3.7226    1.2785   27.9068 C   0  0  0  0  0  0  0  0  0  0  0  0
    2.6802    1.3965   27.6274 H   0  0  0  0  0  0  0  0  0  0  0  0
    4.6206    0.6189   27.0740 C   0  0  0  0  0  0  0  0  0  0  0  0
    4.3138    0.2262   26.1132 H   0  0  0  0  0  0  0  0  0  0  0  0
    8.8453   -2.2002   22.4818 S   0  0  0  0  0  0  0  0  0  0  0  0
    8.3539   -1.5925   20.9318 C   0  0  0  0  0  0  0  0  0  0  0  0
    8.8258   -1.9018   20.0157 H   0  0  0  0  0  0  0  0  0  0  0  0
    5.4284    0.6673   20.2080 C   0  0  0  0  0  0  0  0  0  0  0  0
    4.9903    0.6832   21.2087 H   0  0  0  0  0  0  0  0  0  0  0  0
    4.8042    1.2970   19.1322 C   0  0  0  0  0  0  0  0  0  0  0  0
    3.8668    1.8344   19.2462 H   0  0  0  0  0  0  0  0  0  0  0  0
  1  2  1  0
  2  3  2  0
  3  4  1  0
  4  5  1  0
  4  6  2  0
  6  7  1  0
  7  8  1  0
  8  9  2  0
  9 10  1  0
 10 11  1  0
 10 12  1  0
 12 13  2  0
 12 14  1  0
 14 15  1  0
 14 16  1  0
 16 17  2  0
 17 18  1  0
 17 19  1  0
 19 20  1  0
 19 21  2  0
 21 22  1  0
 21 23  1  0
 23 24  1  0
 23 25  2  0
 25 26  1  0
  9 27  1  0
 27 28  1  0
 28 29  1  0
  6 30  1  0
 30 31  1  0
 30 32  2  0
 32 33  1  0
 32  2  1  0
 28  7  2  0
 25 16  1  0
M  END
>  <cnnaffinity>  (1) 
-5.2177

>  <filename>  (1) 
O=C(Nc1ccc(Cl)cc1)Nc1nc(-c2cccnc2)cs1

$$$$
