
     RDKit          3D

 37 40  0  0  0  0  0  0  0  0999 V2000
    4.9432    1.7728   17.0235 H   0  0  0  0  0  0  0  0  0  0  0  0
    5.4206    1.2716   17.8619 C   0  0  0  0  0  0  0  0  0  0  0  0
    6.5843    0.6547   17.5994 N   0  0  0  0  0  0  0  0  0  0  0  0
    7.1982    0.0357   18.6159 C   0  0  0  0  0  0  0  0  0  0  0  0
    8.1459   -0.4398   18.3696 H   0  0  0  0  0  0  0  0  0  0  0  0
    6.7017   -0.0283   19.9549 C   0  0  0  0  0  0  0  0  0  0  0  0
    7.3742   -0.6761   20.9644 N   0  0  0  0  0  0  0  0  0  0  0  0
    8.6277   -1.4140   20.9906 C   0  0  0  0  0  0  0  0  0  0  0  0
    8.6599   -2.3090   20.3717 H   0  0  0  0  0  0  0  0  0  0  0  0
    9.5172   -0.8178   20.7478 H   0  0  0  0  0  0  0  0  0  0  0  0
    8.3702   -1.6942   22.4922 C   0  0  0  0  0  0  0  0  0  0  0  0
    9.1082   -1.2296   23.1516 H   0  0  0  0  0  0  0  0  0  0  0  0
    8.2098   -3.1630   22.8844 C   0  0  0  0  0  0  0  0  0  0  0  0
    8.6036   -4.0500   22.1532 O   0  0  0  0  0  0  0  0  0  0  0  0
    7.5437   -3.4900   24.2440 C   0  0  0  0  0  0  0  0  0  0  0  0
    7.2277   -2.5059   25.0719 N   0  0  0  0  0  0  0  0  0  0  0  0
    6.6169   -2.8157   26.2577 C   0  0  0  0  0  0  0  0  0  0  0  0
    6.2580   -1.7441   27.1299 C   0  0  0  0  0  0  0  0  0  0  0  0
    6.5215   -0.7457   26.8001 H   0  0  0  0  0  0  0  0  0  0  0  0
    5.6229   -2.0039   28.3230 C   0  0  0  0  0  0  0  0  0  0  0  0
    5.3873   -1.1933   29.0127 H   0  0  0  0  0  0  0  0  0  0  0  0
    5.3287   -3.3474   28.7073 C   0  0  0  0  0  0  0  0  0  0  0  0
    4.8814   -3.5338   29.6808 H   0  0  0  0  0  0  0  0  0  0  0  0
    5.6789   -4.3993   27.8938 C   0  0  0  0  0  0  0  0  0  0  0  0
    5.4886   -5.4304   28.1868 H   0  0  0  0  0  0  0  0  0  0  0  0
    6.3217   -4.1584   26.6453 C   0  0  0  0  0  0  0  0  0  0  0  0
    6.6893   -5.1954   25.7416 C   0  0  0  0  0  0  0  0  0  0  0  0
    6.4810   -6.2303   26.0107 H   0  0  0  0  0  0  0  0  0  0  0  0
    7.2924   -4.8718   24.5534 C   0  0  0  0  0  0  0  0  0  0  0  0
    7.5804   -5.6272   23.8337 H   0  0  0  0  0  0  0  0  0  0  0  0
    7.0555   -0.8737   22.3636 C   0  0  0  0  0  0  0  0  0  0  0  0
    7.0058    0.0367   22.9728 H   0  0  0  0  0  0  0  0  0  0  0  0
    6.1412   -1.4435   22.5638 H   0  0  0  0  0  0  0  0  0  0  0  0
    5.4697    0.6246   20.1921 C   0  0  0  0  0  0  0  0  0  0  0  0
    5.0304    0.6193   21.1891 H   0  0  0  0  0  0  0  0  0  0  0  0
    4.8365    1.2814   19.1329 C   0  0  0  0  0  0  0  0  0  0  0  0
    3.9033    1.8138   19.2821 H   0  0  0  0  0  0  0  0  0  0  0  0
  1  2  1  0
  2  3  2  0
  3  4  1  0
  4  5  1  0
  4  6  2  0
  6  7  1  0
  7  8  1  0
  8  9  1  0
  8 10  1  0
  8 11  1  0
 11 12  1  0
 11 13  1  0
 13 14  2  0
 13 15  1  0
 15 16  2  0
 16 17  1  0
 17 18  2  0
 18 19  1  0
 18 20  1  0
 20 21  1  0
 20 22  2  0
 22 23  1  0
 22 24  1  0
 24 25  1  0
 24 26  2  0
 26 27  1  0
 27 28  1  0
 27 29  2  0
 29 30  1  0
 11 31  1  0
 31 32  1  0
 31 33  1  0
  6 34  1  0
 34 35  1  0
 34 36  2  0
 36 37  1  0
 36  2  1  0
 31  7  1  0
 29 15  1  0
 26 17  1  0
M  END
>  <cnnaffinity>  (1) 
-5.51417

>  <filename>  (1) 
O=C(c1ccc2ccccc2n1)C1CN(c2cccnc2)C1

$$$$
