
     RDKit          3D

 32 35  0  0  0  0  0  0  0  0999 V2000
    4.9581    1.8072   16.9727 H   0  0  0  0  0  0  0  0  0  0  0  0
    5.4095    1.3023   17.8222 C   0  0  0  0  0  0  0  0  0  0  0  0
    6.5582    0.6515   17.5867 N   0  0  0  0  0  0  0  0  0  0  0  0
    7.1595    0.0506   18.6150 C   0  0  0  0  0  0  0  0  0  0  0  0
    8.0859   -0.4752   18.3910 H   0  0  0  0  0  0  0  0  0  0  0  0
    6.6640    0.0876   19.9271 C   0  0  0  0  0  0  0  0  0  0  0  0
    7.4182   -0.5757   20.9870 C   0  0  0  0  0  0  0  0  0  0  0  0
    7.9594   -1.8120   20.7699 N   0  0  0  0  0  0  0  0  0  0  0  0
    8.3989   -2.1854   21.9437 C   0  0  0  0  0  0  0  0  0  0  0  0
    9.1299   -3.6028   22.6509 S   0  0  0  0  0  0  0  0  0  0  0  0
    9.2730   -2.7697   24.1905 C   0  0  0  0  0  0  0  0  0  0  0  0
    9.8013   -3.2507   25.0034 H   0  0  0  0  0  0  0  0  0  0  0  0
    8.7179   -1.5449   24.1664 C   0  0  0  0  0  0  0  0  0  0  0  0
    8.5655   -0.8076   24.9429 H   0  0  0  0  0  0  0  0  0  0  0  0
    8.2305   -1.2419   22.9042 N   0  0  0  0  0  0  0  0  0  0  0  0
    7.6093   -0.1747   22.2982 C   0  0  0  0  0  0  0  0  0  0  0  0
    7.1992    1.0313   23.0073 C   0  0  0  0  0  0  0  0  0  0  0  0
    6.8990    1.0615   24.1912 O   0  0  0  0  0  0  0  0  0  0  0  0
    7.2015    2.1390   22.2249 N   0  0  0  0  0  0  0  0  0  0  0  0
    7.4932    2.0232   21.2715 H   0  0  0  0  0  0  0  0  0  0  0  0
    6.7761    3.4111   22.7075 C   0  0  0  0  0  0  0  0  0  0  0  0
    7.4305    3.8955   23.4287 H   0  0  0  0  0  0  0  0  0  0  0  0
    6.0298    4.2767   21.7580 C   0  0  0  0  0  0  0  0  0  0  0  0
    6.2027    5.3468   21.8122 H   0  0  0  0  0  0  0  0  0  0  0  0
    5.8813    3.8625   20.7618 H   0  0  0  0  0  0  0  0  0  0  0  0
    5.2996    3.5906   22.8787 C   0  0  0  0  0  0  0  0  0  0  0  0
    4.6941    2.7324   22.6002 H   0  0  0  0  0  0  0  0  0  0  0  0
    4.9345    4.1499   23.7317 H   0  0  0  0  0  0  0  0  0  0  0  0
    5.4251    0.7133   20.1439 C   0  0  0  0  0  0  0  0  0  0  0  0
    4.9539    0.6945   21.1272 H   0  0  0  0  0  0  0  0  0  0  0  0
    4.7983    1.3474   19.0779 C   0  0  0  0  0  0  0  0  0  0  0  0
    3.8706    1.8901   19.2133 H   0  0  0  0  0  0  0  0  0  0  0  0
  1  2  1  0
  2  3  2  0
  3  4  1  0
  4  5  1  0
  4  6  2  0
  6  7  1  0
  7  8  1  0
  8  9  2  0
  9 10  1  0
 10 11  1  0
 11 12  1  0
 11 13  2  0
 13 14  1  0
 13 15  1  0
 15 16  1  0
 16 17  1  0
 17 18  2  0
 17 19  1  0
 19 20  1  0
 19 21  1  0
 21 22  1  0
 21 23  1  0
 23 24  1  0
 23 25  1  0
 23 26  1  0
 26 27  1  0
 26 28  1  0
  6 29  1  0
 29 30  1  0
 29 31  2  0
 31 32  1  0
 31  2  1  0
 16  7  2  0
 26 21  1  0
 15  9  1  0
M  END
>  <cnnaffinity>  (1) 
-5.19143

>  <filename>  (1) 
O=C(NC1CC1)c1c(-c2cccnc2)nc2sccn12

$$$$
