
     RDKit          3D

 35 36  0  0  0  0  0  0  0  0999 V2000
    3.7698   -7.9592   28.2212 H   0  0  0  0  0  0  0  0  0  0  0  0
    3.6925   -7.0001   28.0564 O   0  0  0  0  0  0  0  0  0  0  0  0
    4.3244   -6.7522   26.8290 N   0  0  0  0  0  0  0  0  0  0  0  0
    3.7119   -6.1745   26.2649 H   0  0  0  0  0  0  0  0  0  0  0  0
    5.6570   -6.3179   26.7775 C   0  0  0  0  0  0  0  0  0  0  0  0
    6.4939   -6.5133   27.6313 O   0  0  0  0  0  0  0  0  0  0  0  0
    5.9887   -5.6610   25.4441 C   0  0  0  0  0  0  0  0  0  0  0  0
    6.8345   -6.2424   25.0668 H   0  0  0  0  0  0  0  0  0  0  0  0
    5.1669   -5.7711   24.7244 H   0  0  0  0  0  0  0  0  0  0  0  0
    6.4518   -4.1922   25.5365 C   0  0  0  0  0  0  0  0  0  0  0  0
    7.2380   -4.1095   26.3040 H   0  0  0  0  0  0  0  0  0  0  0  0
    5.6302   -3.5448   25.8806 H   0  0  0  0  0  0  0  0  0  0  0  0
    6.9629   -3.6861   24.1776 C   0  0  0  0  0  0  0  0  0  0  0  0
    6.1364   -3.6921   23.4529 H   0  0  0  0  0  0  0  0  0  0  0  0
    7.7214   -4.3765   23.7808 H   0  0  0  0  0  0  0  0  0  0  0  0
    7.5640   -2.2709   24.2343 C   0  0  0  0  0  0  0  0  0  0  0  0
    6.8229   -1.5963   24.6904 H   0  0  0  0  0  0  0  0  0  0  0  0
    8.4302   -2.2801   24.9075 H   0  0  0  0  0  0  0  0  0  0  0  0
    7.9636   -1.7161   22.8846 C   0  0  0  0  0  0  0  0  0  0  0  0
    9.2018   -1.7609   22.3111 C   0  0  0  0  0  0  0  0  0  0  0  0
   10.1167   -2.1655   22.7238 H   0  0  0  0  0  0  0  0  0  0  0  0
    9.2331   -1.0565   20.7371 S   0  0  0  0  0  0  0  0  0  0  0  0
    7.5453   -0.6651   20.8198 C   0  0  0  0  0  0  0  0  0  0  0  0
    6.8016    0.0307   19.7432 C   0  0  0  0  0  0  0  0  0  0  0  0
    7.2485    0.0780   18.4049 C   0  0  0  0  0  0  0  0  0  0  0  0
    8.1782   -0.4102   18.1188 H   0  0  0  0  0  0  0  0  0  0  0  0
    6.5943    0.6966   17.4130 N   0  0  0  0  0  0  0  0  0  0  0  0
    5.4432    1.3158   17.7210 C   0  0  0  0  0  0  0  0  0  0  0  0
    4.9433    1.8223   16.8982 H   0  0  0  0  0  0  0  0  0  0  0  0
    4.8942    1.3279   19.0061 C   0  0  0  0  0  0  0  0  0  0  0  0
    3.9570    1.8440   19.1920 H   0  0  0  0  0  0  0  0  0  0  0  0
    5.5859    0.6798   20.0312 C   0  0  0  0  0  0  0  0  0  0  0  0
    5.1979    0.6979   21.0494 H   0  0  0  0  0  0  0  0  0  0  0  0
    7.0255   -1.0847   22.0093 C   0  0  0  0  0  0  0  0  0  0  0  0
    5.9813   -0.9397   22.2591 H   0  0  0  0  0  0  0  0  0  0  0  0
  1  2  1  0
  2  3  1  0
  3  4  1  0
  3  5  1  0
  5  6  2  0
  5  7  1  0
  7  8  1  0
  7  9  1  0
  7 10  1  0
 10 11  1  0
 10 12  1  0
 10 13  1  0
 13 14  1  0
 13 15  1  0
 13 16  1  0
 16 17  1  0
 16 18  1  0
 16 19  1  0
 19 20  2  0
 20 21  1  0
 20 22  1  0
 22 23  1  0
 23 24  1  0
 24 25  2  0
 25 26  1  0
 25 27  1  0
 27 28  2  0
 28 29  1  0
 28 30  1  0
 30 31  1  0
 30 32  2  0
 32 33  1  0
 23 34  2  0
 34 35  1  0
 34 19  1  0
 32 24  1  0
M  END
>  <cnnaffinity>  (1) 
-4.97171

>  <filename>  (1) 
O=C(CCCCc1csc(-c2cccnc2)c1)NO

$$$$
