
     RDKit          3D

 43 46  0  0  0  0  0  0  0  0999 V2000
    4.9486    1.8044   16.9741 H   0  0  0  0  0  0  0  0  0  0  0  0
    5.3996    1.2951   17.8234 C   0  0  0  0  0  0  0  0  0  0  0  0
    6.5560    0.6613   17.5759 N   0  0  0  0  0  0  0  0  0  0  0  0
    7.1509    0.0371   18.5964 C   0  0  0  0  0  0  0  0  0  0  0  0
    8.1008   -0.4407   18.3617 H   0  0  0  0  0  0  0  0  0  0  0  0
    6.6341    0.0233   19.9066 C   0  0  0  0  0  0  0  0  0  0  0  0
    7.3742   -0.6136   20.9875 C   0  0  0  0  0  0  0  0  0  0  0  0
    8.1366   -1.7389   20.7551 N   0  0  0  0  0  0  0  0  0  0  0  0
    8.5946   -2.0459   21.9353 C   0  0  0  0  0  0  0  0  0  0  0  0
    9.7020   -3.2201   22.5592 S   0  0  0  0  0  0  0  0  0  0  0  0
    9.6529   -2.4833   24.1376 C   0  0  0  0  0  0  0  0  0  0  0  0
   10.2837   -2.9264   24.8987 H   0  0  0  0  0  0  0  0  0  0  0  0
    8.8066   -1.4403   24.1857 C   0  0  0  0  0  0  0  0  0  0  0  0
    8.5187   -0.8123   25.0225 H   0  0  0  0  0  0  0  0  0  0  0  0
    8.2044   -1.1971   22.9437 N   0  0  0  0  0  0  0  0  0  0  0  0
    7.4273   -0.2349   22.3345 C   0  0  0  0  0  0  0  0  0  0  0  0
    6.9741    0.8702   23.0611 N   0  0  0  0  0  0  0  0  0  0  0  0
    6.8574    1.7411   22.5740 H   0  0  0  0  0  0  0  0  0  0  0  0
    6.3541    0.8011   24.3095 C   0  0  0  0  0  0  0  0  0  0  0  0
    6.1234   -0.2373   24.8988 O   0  0  0  0  0  0  0  0  0  0  0  0
    6.0528    2.0371   24.7952 N   0  0  0  0  0  0  0  0  0  0  0  0
    6.3644    2.8279   24.2567 H   0  0  0  0  0  0  0  0  0  0  0  0
    5.4058    2.1785   26.1081 C   0  0  0  0  0  0  0  0  0  0  0  0
    5.8541    1.4183   26.7693 H   0  0  0  0  0  0  0  0  0  0  0  0
    3.9014    1.8526   26.0054 C   0  0  0  0  0  0  0  0  0  0  0  0
    3.4578    2.5362   25.2648 H   0  0  0  0  0  0  0  0  0  0  0  0
    3.8102    0.8357   25.6043 H   0  0  0  0  0  0  0  0  0  0  0  0
    3.1779    1.9988   27.3600 C   0  0  0  0  0  0  0  0  0  0  0  0
    3.5443    1.2320   28.0620 H   0  0  0  0  0  0  0  0  0  0  0  0
    2.1070    1.7980   27.2359 H   0  0  0  0  0  0  0  0  0  0  0  0
    3.3977    3.3950   27.9740 C   0  0  0  0  0  0  0  0  0  0  0  0
    2.9073    3.4704   28.9552 H   0  0  0  0  0  0  0  0  0  0  0  0
    2.9073    4.1539   27.3450 H   0  0  0  0  0  0  0  0  0  0  0  0
    4.8999    3.7203   28.0866 C   0  0  0  0  0  0  0  0  0  0  0  0
    5.3608    3.0498   28.8296 H   0  0  0  0  0  0  0  0  0  0  0  0
    5.0433    4.7333   28.4808 H   0  0  0  0  0  0  0  0  0  0  0  0
    5.6252    3.5692   26.7262 C   0  0  0  0  0  0  0  0  0  0  0  0
    6.7014    3.7546   26.8380 H   0  0  0  0  0  0  0  0  0  0  0  0
    5.2421    4.3228   26.0188 H   0  0  0  0  0  0  0  0  0  0  0  0
    5.4076    0.6647   20.1432 C   0  0  0  0  0  0  0  0  0  0  0  0
    4.9695    0.6451   21.1447 H   0  0  0  0  0  0  0  0  0  0  0  0
    4.7873    1.3164   19.0814 C   0  0  0  0  0  0  0  0  0  0  0  0
    3.8573    1.8505   19.2213 H   0  0  0  0  0  0  0  0  0  0  0  0
  1  2  1  0
  2  3  2  0
  3  4  1  0
  4  5  1  0
  4  6  2  0
  6  7  1  0
  7  8  1  0
  8  9  2  0
  9 10  1  0
 10 11  1  0
 11 12  1  0
 11 13  2  0
 13 14  1  0
 13 15  1  0
 15 16  1  0
 16 17  1  0
 17 18  1  0
 17 19  1  0
 19 20  2  0
 19 21  1  0
 21 22  1  0
 21 23  1  0
 23 24  1  0
 23 25  1  0
 25 26  1  0
 25 27  1  0
 25 28  1  0
 28 29  1  0
 28 30  1  0
 28 31  1  0
 31 32  1  0
 31 33  1  0
 31 34  1  0
 34 35  1  0
 34 36  1  0
 34 37  1  0
 37 38  1  0
 37 39  1  0
  6 40  1  0
 40 41  1  0
 40 42  2  0
 42 43  1  0
 42  2  1  0
 16  7  2  0
 37 23  1  0
 15  9  1  0
M  END
>  <cnnaffinity>  (1) 
-5.58779

>  <filename>  (1) 
O=C(Nc1c(-c2cccnc2)nc2sccn12)NC1CCCCC1

$$$$
