
     RDKit          3D

 36 39  0  0  0  0  0  0  0  0999 V2000
    5.0963    1.8305   16.8946 H   0  0  0  0  0  0  0  0  0  0  0  0
    5.5481    1.3299   17.7495 C   0  0  0  0  0  0  0  0  0  0  0  0
    6.7396    0.7452   17.5367 N   0  0  0  0  0  0  0  0  0  0  0  0
    7.3282    0.1294   18.5733 C   0  0  0  0  0  0  0  0  0  0  0  0
    8.2987   -0.3314   18.3929 H   0  0  0  0  0  0  0  0  0  0  0  0
    6.7493    0.0316   19.8571 C   0  0  0  0  0  0  0  0  0  0  0  0
    7.3784   -0.6668   20.9299 N   0  0  0  0  0  0  0  0  0  0  0  0
    8.1290   -0.1960   21.4167 H   0  0  0  0  0  0  0  0  0  0  0  0
    6.7179   -1.5857   21.7199 C   0  0  0  0  0  0  0  0  0  0  0  0
    5.6638   -2.0979   21.3876 O   0  0  0  0  0  0  0  0  0  0  0  0
    7.5008   -1.9452   22.9853 C   0  0  0  0  0  0  0  0  0  0  0  0
    7.5806   -0.8785   24.0499 C   0  0  0  0  0  0  0  0  0  0  0  0
    7.0629    0.4112   23.8541 C   0  0  0  0  0  0  0  0  0  0  0  0
    6.5394    0.6579   22.9364 H   0  0  0  0  0  0  0  0  0  0  0  0
    7.1731    1.4226   24.8333 C   0  0  0  0  0  0  0  0  0  0  0  0
    6.7544    2.4052   24.6352 H   0  0  0  0  0  0  0  0  0  0  0  0
    7.8179    1.1960   26.0437 C   0  0  0  0  0  0  0  0  0  0  0  0
    7.8901    1.9578   26.8139 H   0  0  0  0  0  0  0  0  0  0  0  0
    8.3427   -0.0878   26.2546 C   0  0  0  0  0  0  0  0  0  0  0  0
    8.2253   -1.1281   25.3010 C   0  0  0  0  0  0  0  0  0  0  0  0
    8.9362   -2.2552   25.8666 C   0  0  0  0  0  0  0  0  0  0  0  0
    9.1107   -3.2313   25.4410 H   0  0  0  0  0  0  0  0  0  0  0  0
    9.4281   -1.8605   27.0637 C   0  0  0  0  0  0  0  0  0  0  0  0
   10.1178   -2.3793   27.7033 H   0  0  0  0  0  0  0  0  0  0  0  0
    9.0627   -0.5655   27.3170 N   0  0  0  0  0  0  0  0  0  0  0  0
    9.3552   -0.0130   28.1075 H   0  0  0  0  0  0  0  0  0  0  0  0
    7.4848   -3.4187   23.3580 C   0  0  0  0  0  0  0  0  0  0  0  0
    7.3946   -3.6470   24.4149 H   0  0  0  0  0  0  0  0  0  0  0  0
    6.9242   -4.0887   22.7133 H   0  0  0  0  0  0  0  0  0  0  0  0
    8.7334   -2.8403   22.7897 C   0  0  0  0  0  0  0  0  0  0  0  0
    9.5849   -2.6319   23.4355 H   0  0  0  0  0  0  0  0  0  0  0  0
    9.0026   -3.1268   21.7786 H   0  0  0  0  0  0  0  0  0  0  0  0
    5.4956    0.6207   20.0511 C   0  0  0  0  0  0  0  0  0  0  0  0
    5.0002    0.5265   21.0166 H   0  0  0  0  0  0  0  0  0  0  0  0
    4.8937    1.2912   18.9825 C   0  0  0  0  0  0  0  0  0  0  0  0
    3.9347    1.7824   19.1002 H   0  0  0  0  0  0  0  0  0  0  0  0
  1  2  1  0
  2  3  2  0
  3  4  1  0
  4  5  1  0
  4  6  2  0
  6  7  1  0
  7  8  1  0
  7  9  1  0
  9 10  2  0
  9 11  1  0
 11 12  1  0
 12 13  2  0
 13 14  1  0
 13 15  1  0
 15 16  1  0
 15 17  2  0
 17 18  1  0
 17 19  1  0
 19 20  2  0
 20 21  1  0
 21 22  1  0
 21 23  2  0
 23 24  1  0
 23 25  1  0
 25 26  1  0
 11 27  1  0
 27 28  1  0
 27 29  1  0
 27 30  1  0
 30 31  1  0
 30 32  1  0
  6 33  1  0
 33 34  1  0
 33 35  2  0
 35 36  1  0
 35  2  1  0
 30 11  1  0
 20 12  1  0
 25 19  1  0
M  END
>  <cnnaffinity>  (1) 
-5.30614

>  <filename>  (1) 
O=C(Nc1cccnc1)C1(c2cccc3[nH]ccc23)CC1

$$$$
