
     RDKit          3D

 42 44  0  0  0  0  0  0  0  0999 V2000
    4.9315    1.7866   16.7461 H   0  0  0  0  0  0  0  0  0  0  0  0
    5.3197    1.3951   17.6861 C   0  0  0  0  0  0  0  0  0  0  0  0
    6.5122    0.7895   17.6140 N   0  0  0  0  0  0  0  0  0  0  0  0
    7.0311    0.3117   18.7521 C   0  0  0  0  0  0  0  0  0  0  0  0
    7.9987   -0.1756   18.6479 H   0  0  0  0  0  0  0  0  0  0  0  0
    6.4159    0.3910   20.0177 C   0  0  0  0  0  0  0  0  0  0  0  0
    7.1038   -0.2120   21.2419 C   0  0  2  0  0  0  0  0  0  0  0  0
    6.4669   -0.0515   22.1151 H   0  0  0  0  0  0  0  0  0  0  0  0
    8.5146    0.3866   21.5253 C   0  0  0  0  0  0  0  0  0  0  0  0
    8.6381    1.4090   21.1504 H   0  0  0  0  0  0  0  0  0  0  0  0
    8.7037    0.4145   22.6114 H   0  0  0  0  0  0  0  0  0  0  0  0
    9.4063   -0.5389   20.8405 N   0  0  0  0  0  0  0  0  0  0  0  0
   10.4143   -0.5245   20.9354 H   0  0  0  0  0  0  0  0  0  0  0  0
    8.9405   -1.8205   20.9223 C   0  0  0  0  0  0  0  0  0  0  0  0
    9.6517   -2.7874   20.8317 O   0  0  0  0  0  0  0  0  0  0  0  0
    7.3851   -1.7474   21.0516 C   0  0  1  0  0  0  0  0  0  0  0  0
    7.0354   -2.0712   20.0600 H   0  0  0  0  0  0  0  0  0  0  0  0
    6.7483   -2.6351   22.0381 N   0  0  0  0  0  0  0  0  0  0  0  0
    5.9844   -3.2097   21.7378 H   0  0  0  0  0  0  0  0  0  0  0  0
    7.1815   -2.8156   23.3272 C   0  0  0  0  0  0  0  0  0  0  0  0
    8.1235   -2.1676   23.7472 O   0  0  0  0  0  0  0  0  0  0  0  0
    6.4204   -3.9054   24.1191 C   0  0  0  0  0  0  0  0  0  0  0  0
    5.3917   -3.8932   23.7311 H   0  0  0  0  0  0  0  0  0  0  0  0
    6.3735   -3.6310   25.6410 C   0  0  0  0  0  0  0  0  0  0  0  0
    5.9647   -2.6340   25.8458 H   0  0  0  0  0  0  0  0  0  0  0  0
    5.6687   -4.3542   26.0809 H   0  0  0  0  0  0  0  0  0  0  0  0
    7.7498   -3.7993   26.3083 C   0  0  0  0  0  0  0  0  0  0  0  0
    8.4289   -3.0490   25.8866 H   0  0  0  0  0  0  0  0  0  0  0  0
    7.6678   -3.6023   27.3831 H   0  0  0  0  0  0  0  0  0  0  0  0
    8.3232   -5.2014   26.0523 C   0  0  0  0  0  0  0  0  0  0  0  0
    9.3142   -5.3008   26.5167 H   0  0  0  0  0  0  0  0  0  0  0  0
    7.6741   -5.9554   26.5300 H   0  0  0  0  0  0  0  0  0  0  0  0
    8.4001   -5.4841   24.5426 C   0  0  0  0  0  0  0  0  0  0  0  0
    9.1164   -4.7901   24.0776 H   0  0  0  0  0  0  0  0  0  0  0  0
    8.7858   -6.4942   24.3660 H   0  0  0  0  0  0  0  0  0  0  0  0
    7.0227   -5.3203   23.8776 C   0  0  0  0  0  0  0  0  0  0  0  0
    6.3290   -6.0509   24.3224 H   0  0  0  0  0  0  0  0  0  0  0  0
    7.0771   -5.5520   22.8055 H   0  0  0  0  0  0  0  0  0  0  0  0
    5.1620    1.0238   20.0619 C   0  0  0  0  0  0  0  0  0  0  0  0
    4.6203    1.1306   21.0013 H   0  0  0  0  0  0  0  0  0  0  0  0
    4.6063    1.5281   18.8785 C   0  0  0  0  0  0  0  0  0  0  0  0
    3.6465    2.0328   18.8605 H   0  0  0  0  0  0  0  0  0  0  0  0
  1  2  1  0
  2  3  2  0
  3  4  1  0
  4  5  1  0
  4  6  2  0
  6  7  1  0
  7  8  1  1
  7  9  1  0
  9 10  1  0
  9 11  1  0
  9 12  1  0
 12 13  1  0
 12 14  1  0
 14 15  2  0
 14 16  1  0
 16 17  1  6
 16 18  1  0
 18 19  1  0
 18 20  1  0
 20 21  2  0
 20 22  1  0
 22 23  1  0
 22 24  1  0
 24 25  1  0
 24 26  1  0
 24 27  1  0
 27 28  1  0
 27 29  1  0
 27 30  1  0
 30 31  1  0
 30 32  1  0
 30 33  1  0
 33 34  1  0
 33 35  1  0
 33 36  1  0
 36 37  1  0
 36 38  1  0
  6 39  1  0
 39 40  1  0
 39 41  2  0
 41 42  1  0
 41  2  1  0
 16  7  1  0
 36 22  1  0
M  END
>  <cnnaffinity>  (1) 
-5.37294

>  <filename>  (1) 
O=C(N[C@@H]1C(=O)NC[C@H]1c1cccnc1)C1CCCCC1

$$$$
