
     RDKit          3D

 33 35  0  0  0  0  0  0  0  0999 V2000
    5.0344    1.7993   16.9672 H   0  0  0  0  0  0  0  0  0  0  0  0
    5.4999    1.2872   17.8048 C   0  0  0  0  0  0  0  0  0  0  0  0
    6.6545    0.6511   17.5500 N   0  0  0  0  0  0  0  0  0  0  0  0
    7.2506    0.0135   18.5650 C   0  0  0  0  0  0  0  0  0  0  0  0
    8.1729   -0.5085   18.3135 H   0  0  0  0  0  0  0  0  0  0  0  0
    6.7426   -0.0270   19.8756 C   0  0  0  0  0  0  0  0  0  0  0  0
    7.3903   -0.7624   20.9673 C   0  0  0  0  0  0  0  0  0  0  0  0
    6.8320   -1.2879   22.0681 C   0  0  0  0  0  0  0  0  0  0  0  0
    5.7930   -1.3289   22.3365 H   0  0  0  0  0  0  0  0  0  0  0  0
    7.8353   -1.9140   22.8133 N   0  0  0  0  0  0  0  0  0  0  0  0
    7.6404   -2.3674   24.1498 C   0  0  0  0  0  0  0  0  0  0  0  0
    6.7869   -1.8756   24.8582 O   0  0  0  0  0  0  0  0  0  0  0  0
    8.4293   -3.4024   24.4849 N   0  0  0  0  0  0  0  0  0  0  0  0
    9.2585   -3.4811   23.9170 H   0  0  0  0  0  0  0  0  0  0  0  0
    8.4419   -3.9189   25.8438 C   0  0  0  0  0  0  0  0  0  0  0  0
    9.2978   -4.6030   25.9158 H   0  0  0  0  0  0  0  0  0  0  0  0
    8.6007   -3.1095   26.5651 H   0  0  0  0  0  0  0  0  0  0  0  0
    7.1547   -4.6452   26.1380 C   0  0  0  0  0  0  0  0  0  0  0  0
    6.2809   -4.0000   26.1445 H   0  0  0  0  0  0  0  0  0  0  0  0
    7.1344   -5.8303   27.0505 C   0  0  0  0  0  0  0  0  0  0  0  0
    8.0573   -6.1404   27.5373 H   0  0  0  0  0  0  0  0  0  0  0  0
    6.2490   -5.9752   27.6608 H   0  0  0  0  0  0  0  0  0  0  0  0
    7.0025   -6.0206   25.5638 C   0  0  0  0  0  0  0  0  0  0  0  0
    7.8664   -6.4279   25.0383 H   0  0  0  0  0  0  0  0  0  0  0  0
    6.0480   -6.3278   25.1438 H   0  0  0  0  0  0  0  0  0  0  0  0
    9.0386   -1.7705   22.1691 C   0  0  0  0  0  0  0  0  0  0  0  0
   10.5605   -2.2880   22.5919 S   0  0  0  0  0  0  0  0  0  0  0  0
    8.7448   -1.0748   21.0452 N   0  0  0  0  0  0  0  0  0  0  0  0
    9.5050   -0.6950   20.5094 H   0  0  0  0  0  0  0  0  0  0  0  0
    5.5285    0.6414   20.1127 C   0  0  0  0  0  0  0  0  0  0  0  0
    5.1103    0.6526   21.1174 H   0  0  0  0  0  0  0  0  0  0  0  0
    4.8977    1.3027   19.0642 C   0  0  0  0  0  0  0  0  0  0  0  0
    3.9643    1.8296   19.2116 H   0  0  0  0  0  0  0  0  0  0  0  0
  1  2  1  0
  2  3  2  0
  3  4  1  0
  4  5  1  0
  4  6  2  0
  6  7  1  0
  7  8  2  0
  8  9  1  0
  8 10  1  0
 10 11  1  0
 11 12  2  0
 11 13  1  0
 13 14  1  0
 13 15  1  0
 15 16  1  0
 15 17  1  0
 15 18  1  0
 18 19  1  0
 18 20  1  0
 20 21  1  0
 20 22  1  0
 20 23  1  0
 23 24  1  0
 23 25  1  0
 10 26  1  0
 26 27  2  0
 26 28  1  0
 28 29  1  0
  6 30  1  0
 30 31  1  0
 30 32  2  0
 32 33  1  0
 32  2  1  0
 28  7  1  0
 23 18  1  0
M  END
>  <cnnaffinity>  (1) 
-5.23635

>  <filename>  (1) 
O=C(NCC1CC1)n1cc(-c2cccnc2)[nH]c1=S

$$$$
