
     RDKit          3D

 38 40  0  0  0  0  0  0  0  0999 V2000
    4.9231    1.8173   16.9775 H   0  0  0  0  0  0  0  0  0  0  0  0
    5.3825    1.3056   17.8226 C   0  0  0  0  0  0  0  0  0  0  0  0
    6.5440    0.6846   17.5681 N   0  0  0  0  0  0  0  0  0  0  0  0
    7.1513    0.0667   18.5884 C   0  0  0  0  0  0  0  0  0  0  0  0
    8.1011   -0.4091   18.3403 H   0  0  0  0  0  0  0  0  0  0  0  0
    6.6434    0.0005   19.8995 C   0  0  0  0  0  0  0  0  0  0  0  0
    7.4151   -0.7092   21.0026 C   0  0  0  0  0  0  0  0  0  0  0  0
    6.8040   -0.7714   21.9095 H   0  0  0  0  0  0  0  0  0  0  0  0
    7.6635   -1.7390   20.7139 H   0  0  0  0  0  0  0  0  0  0  0  0
    8.6693   -0.0546   21.3635 N   0  0  0  0  0  0  0  0  0  0  0  0
    9.9014   -0.3816   20.8763 C   0  0  0  0  0  0  0  0  0  0  0  0
   10.0417   -1.2561   20.2547 H   0  0  0  0  0  0  0  0  0  0  0  0
   10.8358    0.4455   21.2703 N   0  0  0  0  0  0  0  0  0  0  0  0
   10.1842    1.3620   22.0529 C   0  0  0  0  0  0  0  0  0  0  0  0
   10.7169    2.1812   22.5245 H   0  0  0  0  0  0  0  0  0  0  0  0
    8.8446    1.0905   22.1282 C   0  0  0  0  0  0  0  0  0  0  0  0
    7.7391    1.8192   22.8061 C   0  0  0  0  0  0  0  0  0  0  0  0
    8.0974    2.8023   23.1352 H   0  0  0  0  0  0  0  0  0  0  0  0
    6.9161    2.0331   22.1058 H   0  0  0  0  0  0  0  0  0  0  0  0
    7.2199    1.0758   23.9421 N   0  0  0  0  0  0  0  0  0  0  0  0
    7.6665    0.2244   24.2328 H   0  0  0  0  0  0  0  0  0  0  0  0
    6.1738    1.5602   24.6671 C   0  0  0  0  0  0  0  0  0  0  0  0
    5.5580    2.5547   24.3060 O   0  0  0  0  0  0  0  0  0  0  0  0
    5.8131    0.7966   25.9225 C   0  0  0  0  0  0  0  0  0  0  0  0
    6.7276    0.0080   26.6440 C   0  0  0  0  0  0  0  0  0  0  0  0
    7.7783   -0.0733   26.3695 H   0  0  0  0  0  0  0  0  0  0  0  0
    6.3270   -0.6709   27.7936 C   0  0  0  0  0  0  0  0  0  0  0  0
    7.0343   -1.3384   28.2620 H   0  0  0  0  0  0  0  0  0  0  0  0
    5.0266   -0.5368   28.2881 C   0  0  0  0  0  0  0  0  0  0  0  0
    4.7315   -1.0434   29.2046 H   0  0  0  0  0  0  0  0  0  0  0  0
    4.1086    0.2545   27.5882 C   0  0  0  0  0  0  0  0  0  0  0  0
    3.0872    0.3627   27.9499 H   0  0  0  0  0  0  0  0  0  0  0  0
    4.4991    0.9097   26.4162 C   0  0  0  0  0  0  0  0  0  0  0  0
    3.7953    1.5409   25.8763 H   0  0  0  0  0  0  0  0  0  0  0  0
    5.4256    0.6542   20.1378 C   0  0  0  0  0  0  0  0  0  0  0  0
    4.9917    0.6610   21.1406 H   0  0  0  0  0  0  0  0  0  0  0  0
    4.7818    1.3145   19.0838 C   0  0  0  0  0  0  0  0  0  0  0  0
    3.8537    1.8577   19.2264 H   0  0  0  0  0  0  0  0  0  0  0  0
  1  2  1  0
  2  3  2  0
  3  4  1  0
  4  5  1  0
  4  6  2  0
  6  7  1  0
  7  8  1  0
  7  9  1  0
  7 10  1  0
 10 11  1  0
 11 12  1  0
 11 13  2  0
 13 14  1  0
 14 15  1  0
 14 16  2  0
 16 17  1  0
 17 18  1  0
 17 19  1  0
 17 20  1  0
 20 21  1  0
 20 22  1  0
 22 23  2  0
 22 24  1  0
 24 25  2  0
 25 26  1  0
 25 27  1  0
 27 28  1  0
 27 29  2  0
 29 30  1  0
 29 31  1  0
 31 32  1  0
 31 33  2  0
 33 34  1  0
  6 35  1  0
 35 36  1  0
 35 37  2  0
 37 38  1  0
 37  2  1  0
 16 10  1  0
 33 24  1  0
M  END
>  <cnnaffinity>  (1) 
-4.89883

>  <filename>  (1) 
O=C(NCc1cncn1Cc1cccnc1)c1ccccc1

$$$$
