
     RDKit          3D

 38 41  0  0  0  0  0  0  0  0999 V2000
    5.0990    1.7397   16.9940 H   0  0  0  0  0  0  0  0  0  0  0  0
    5.4932    1.2284   17.8686 C   0  0  0  0  0  0  0  0  0  0  0  0
    6.6455    0.5687   17.6961 N   0  0  0  0  0  0  0  0  0  0  0  0
    7.1522   -0.0631   18.7597 C   0  0  0  0  0  0  0  0  0  0  0  0
    8.1149   -0.5451   18.6175 H   0  0  0  0  0  0  0  0  0  0  0  0
    6.5494   -0.0753   20.0263 C   0  0  0  0  0  0  0  0  0  0  0  0
    7.2248   -0.7850   21.1084 C   0  0  0  0  0  0  0  0  0  0  0  0
    6.6444   -1.8482   21.7430 N   0  0  0  0  0  0  0  0  0  0  0  0
    7.5170   -2.2102   22.6479 C   0  0  0  0  0  0  0  0  0  0  0  0
    7.7017   -3.5233   23.7926 S   0  0  0  0  0  0  0  0  0  0  0  0
    9.3039   -2.9335   24.2151 C   0  0  0  0  0  0  0  0  0  0  0  0
    9.9009   -3.4675   24.9428 H   0  0  0  0  0  0  0  0  0  0  0  0
    9.6311   -1.8267   23.5333 C   0  0  0  0  0  0  0  0  0  0  0  0
   10.5487   -1.2550   23.5488 H   0  0  0  0  0  0  0  0  0  0  0  0
    8.6244   -1.4133   22.6787 N   0  0  0  0  0  0  0  0  0  0  0  0
    8.4554   -0.4916   21.6627 C   0  0  0  0  0  0  0  0  0  0  0  0
    9.4194    0.5055   21.1932 C   0  0  0  0  0  0  0  0  0  0  0  0
    9.5112    0.7398   20.0016 O   0  0  0  0  0  0  0  0  0  0  0  0
   10.2107    1.1346   22.1352 N   0  0  0  0  0  0  0  0  0  0  0  0
   11.4420    1.8040   21.7038 C   0  0  0  0  0  0  0  0  0  0  0  0
   11.7763    1.3750   20.7597 H   0  0  0  0  0  0  0  0  0  0  0  0
   11.2462    2.8711   21.5131 H   0  0  0  0  0  0  0  0  0  0  0  0
   12.5078    1.6269   22.7820 C   0  0  0  0  0  0  0  0  0  0  0  0
   12.7620    0.5609   22.8390 H   0  0  0  0  0  0  0  0  0  0  0  0
   13.4237    2.1612   22.4949 H   0  0  0  0  0  0  0  0  0  0  0  0
   12.0194    2.1170   24.1510 C   0  0  0  0  0  0  0  0  0  0  0  0
   12.7257    1.7797   24.9142 H   0  0  0  0  0  0  0  0  0  0  0  0
   12.0212    3.2144   24.1619 H   0  0  0  0  0  0  0  0  0  0  0  0
   10.6176    1.6071   24.5179 C   0  0  0  0  0  0  0  0  0  0  0  0
   10.6697    0.5571   24.8236 H   0  0  0  0  0  0  0  0  0  0  0  0
   10.2237    2.1693   25.3761 H   0  0  0  0  0  0  0  0  0  0  0  0
    9.6357    1.7187   23.3541 C   0  0  0  0  0  0  0  0  0  0  0  0
    9.4052    2.7829   23.1687 H   0  0  0  0  0  0  0  0  0  0  0  0
    8.6885    1.2297   23.5955 H   0  0  0  0  0  0  0  0  0  0  0  0
    5.3383    0.6099   20.1911 C   0  0  0  0  0  0  0  0  0  0  0  0
    4.8594    0.6460   21.1722 H   0  0  0  0  0  0  0  0  0  0  0  0
    4.8108    1.2810   19.0895 C   0  0  0  0  0  0  0  0  0  0  0  0
    3.8962    1.8556   19.1710 H   0  0  0  0  0  0  0  0  0  0  0  0
  1  2  1  0
  2  3  2  0
  3  4  1  0
  4  5  1  0
  4  6  2  0
  6  7  1  0
  7  8  1  0
  8  9  2  0
  9 10  1  0
 10 11  1  0
 11 12  1  0
 11 13  2  0
 13 14  1  0
 13 15  1  0
 15 16  1  0
 16 17  1  0
 17 18  2  0
 17 19  1  0
 19 20  1  0
 20 21  1  0
 20 22  1  0
 20 23  1  0
 23 24  1  0
 23 25  1  0
 23 26  1  0
 26 27  1  0
 26 28  1  0
 26 29  1  0
 29 30  1  0
 29 31  1  0
 29 32  1  0
 32 33  1  0
 32 34  1  0
  6 35  1  0
 35 36  1  0
 35 37  2  0
 37 38  1  0
 37  2  1  0
 16  7  2  0
 32 19  1  0
 15  9  1  0
M  END
>  <cnnaffinity>  (1) 
-6.01128

>  <filename>  (1) 
O=C(c1c(-c2cccnc2)nc2sccn12)N1CCCCC1

$$$$
