
     RDKit          3D

 30 31  0  0  0  0  0  0  0  0999 V2000
    4.9135    1.7877   16.9962 H   0  0  0  0  0  0  0  0  0  0  0  0
    5.3933    1.2985   17.8368 C   0  0  0  0  0  0  0  0  0  0  0  0
    6.5526    0.6786   17.5598 N   0  0  0  0  0  0  0  0  0  0  0  0
    7.1697    0.0640   18.5723 C   0  0  0  0  0  0  0  0  0  0  0  0
    8.1197   -0.4227   18.3669 H   0  0  0  0  0  0  0  0  0  0  0  0
    6.6613    0.0049   19.8884 C   0  0  0  0  0  0  0  0  0  0  0  0
    7.3622   -0.6762   20.9119 N   0  0  0  0  0  0  0  0  0  0  0  0
    6.8023   -1.0979   21.6386 H   0  0  0  0  0  0  0  0  0  0  0  0
    8.7235   -0.5866   21.0897 C   0  0  0  0  0  0  0  0  0  0  0  0
    9.4200    0.1202   20.3907 O   0  0  0  0  0  0  0  0  0  0  0  0
    9.3127   -1.5073   22.2855 C   0  0  0  0  0  0  0  0  0  0  0  0
    9.1725   -2.8283   21.9571 F   0  0  0  0  0  0  0  0  0  0  0  0
   10.6479   -1.2885   22.3856 F   0  0  0  0  0  0  0  0  0  0  0  0
    8.7031   -1.3258   23.5559 N   0  0  0  0  0  0  0  0  0  0  0  0
    8.2100   -2.1218   23.9327 H   0  0  0  0  0  0  0  0  0  0  0  0
    8.6553   -0.1111   24.2399 C   0  0  0  0  0  0  0  0  0  0  0  0
    7.8551   -0.0249   25.3862 C   0  0  0  0  0  0  0  0  0  0  0  0
    7.2871   -0.8954   25.6952 H   0  0  0  0  0  0  0  0  0  0  0  0
    7.7917    1.1555   26.1301 C   0  0  0  0  0  0  0  0  0  0  0  0
    7.1819    1.2223   27.0248 H   0  0  0  0  0  0  0  0  0  0  0  0
    8.5310    2.2656   25.7194 C   0  0  0  0  0  0  0  0  0  0  0  0
    8.4523    3.7444   26.6333 Cl  0  0  0  0  0  0  0  0  0  0  0  0
    9.3264    2.2002   24.5742 C   0  0  0  0  0  0  0  0  0  0  0  0
    9.8918    3.0759   24.2727 H   0  0  0  0  0  0  0  0  0  0  0  0
    9.3881    1.0182   23.8313 C   0  0  0  0  0  0  0  0  0  0  0  0
   10.0069    0.9686   22.9404 H   0  0  0  0  0  0  0  0  0  0  0  0
    5.4441    0.6319   20.1626 C   0  0  0  0  0  0  0  0  0  0  0  0
    5.0183    0.6250   21.1698 H   0  0  0  0  0  0  0  0  0  0  0  0
    4.8122    1.3046   19.1106 C   0  0  0  0  0  0  0  0  0  0  0  0
    3.8810    1.8378   19.2656 H   0  0  0  0  0  0  0  0  0  0  0  0
  1  2  1  0
  2  3  2  0
  3  4  1  0
  4  5  1  0
  4  6  2  0
  6  7  1  0
  7  8  1  0
  7  9  1  0
  9 10  2  0
  9 11  1  0
 11 12  1  0
 11 13  1  0
 11 14  1  0
 14 15  1  0
 14 16  1  0
 16 17  2  0
 17 18  1  0
 17 19  1  0
 19 20  1  0
 19 21  2  0
 21 22  1  0
 21 23  1  0
 23 24  1  0
 23 25  2  0
 25 26  1  0
  6 27  1  0
 27 28  1  0
 27 29  2  0
 29 30  1  0
 29  2  1  0
 25 16  1  0
M  END
>  <cnnaffinity>  (1) 
-4.82405

>  <filename>  (1) 
O=C(Nc1cccnc1)C(F)(F)Nc1ccc(Cl)cc1

$$$$
