
     RDKit          3D

 31 32  0  0  0  0  0  0  0  0999 V2000
    4.9742    1.7831   16.9875 H   0  0  0  0  0  0  0  0  0  0  0  0
    5.4425    1.2973   17.8423 C   0  0  0  0  0  0  0  0  0  0  0  0
    6.6210    0.7021   17.6094 N   0  0  0  0  0  0  0  0  0  0  0  0
    7.2201    0.1086   18.6434 C   0  0  0  0  0  0  0  0  0  0  0  0
    8.1647   -0.3915   18.4428 H   0  0  0  0  0  0  0  0  0  0  0  0
    6.6870    0.0812   19.9379 C   0  0  0  0  0  0  0  0  0  0  0  0
    7.3503   -0.7834   20.9757 C   0  0  0  0  0  0  0  0  0  0  0  0
    8.6848   -0.8976   20.7099 F   0  0  0  0  0  0  0  0  0  0  0  0
    7.2658   -0.1758   22.2070 F   0  0  0  0  0  0  0  0  0  0  0  0
    6.7329   -2.2604   21.0459 C   0  0  0  0  0  0  0  0  0  0  0  0
    6.2288   -2.7516   20.0650 O   0  0  0  0  0  0  0  0  0  0  0  0
    6.8643   -2.9328   22.2472 N   0  0  0  0  0  0  0  0  0  0  0  0
    7.0563   -2.3649   23.0518 H   0  0  0  0  0  0  0  0  0  0  0  0
    6.0747   -4.0562   22.5077 C   0  0  0  0  0  0  0  0  0  0  0  0
    5.4071   -4.6334   21.6963 O   0  0  0  0  0  0  0  0  0  0  0  0
    6.1846   -4.3658   23.8456 N   0  0  0  0  0  0  0  0  0  0  0  0
    7.0720   -4.1244   24.2394 H   0  0  0  0  0  0  0  0  0  0  0  0
    5.5190   -5.4241   24.4595 C   0  0  0  0  0  0  0  0  0  0  0  0
    6.0752   -6.0771   25.5589 C   0  0  0  0  0  0  0  0  0  0  0  0
    7.0523   -5.8254   25.9567 H   0  0  0  0  0  0  0  0  0  0  0  0
    5.3495   -7.1224   26.1255 C   0  0  0  0  0  0  0  0  0  0  0  0
    5.7446   -7.6558   26.9953 H   0  0  0  0  0  0  0  0  0  0  0  0
    4.1591   -7.5368   25.6700 N   0  0  0  0  0  0  0  0  0  0  0  0
    3.6458   -6.8873   24.6143 C   0  0  0  0  0  0  0  0  0  0  0  0
    2.6657   -7.2104   24.2553 H   0  0  0  0  0  0  0  0  0  0  0  0
    4.2752   -5.8317   23.9738 C   0  0  0  0  0  0  0  0  0  0  0  0
    3.8479   -5.3422   23.1118 H   0  0  0  0  0  0  0  0  0  0  0  0
    5.4542    0.7010   20.1750 C   0  0  0  0  0  0  0  0  0  0  0  0
    4.9998    0.7031   21.1676 H   0  0  0  0  0  0  0  0  0  0  0  0
    4.8223    1.3208   19.0958 C   0  0  0  0  0  0  0  0  0  0  0  0
    3.8736    1.8299   19.2140 H   0  0  0  0  0  0  0  0  0  0  0  0
  1  2  1  0
  2  3  2  0
  3  4  1  0
  4  5  1  0
  4  6  2  0
  6  7  1  0
  7  8  1  0
  7  9  1  0
  7 10  1  0
 10 11  2  0
 10 12  1  0
 12 13  1  0
 12 14  1  0
 14 15  2  0
 14 16  1  0
 16 17  1  0
 16 18  1  0
 18 19  2  0
 19 20  1  0
 19 21  1  0
 21 22  1  0
 21 23  2  0
 23 24  1  0
 24 25  1  0
 24 26  2  0
 26 27  1  0
  6 28  1  0
 28 29  1  0
 28 30  2  0
 30 31  1  0
 30  2  1  0
 26 18  1  0
M  END
>  <cnnaffinity>  (1) 
-4.62481

>  <filename>  (1) 
O=C(NC(=O)C(F)(F)c1cccnc1)Nc1ccncc1

$$$$
