
     RDKit          3D

 34 36  0  0  0  0  0  0  0  0999 V2000
   12.0138    4.6492   22.9854 H   0  0  0  0  0  0  0  0  0  0  0  0
   11.5110    3.8296   22.8353 O   0  0  0  0  0  0  0  0  0  0  0  0
   12.5276    2.9854   23.0780 C   0  0  0  0  0  0  0  0  0  0  0  0
   13.5855    3.4786   23.4109 O   0  0  0  0  0  0  0  0  0  0  0  0
   12.2471    1.5277   22.8995 C   0  0  0  0  0  0  0  0  0  0  0  0
   13.3386    0.6372   22.8999 C   0  0  0  0  0  0  0  0  0  0  0  0
   14.3406    1.0247   23.0816 H   0  0  0  0  0  0  0  0  0  0  0  0
   13.1299   -0.7194   22.6578 C   0  0  0  0  0  0  0  0  0  0  0  0
   13.9793   -1.3973   22.6922 H   0  0  0  0  0  0  0  0  0  0  0  0
   11.8361   -1.2057   22.4190 C   0  0  0  0  0  0  0  0  0  0  0  0
   11.6991   -2.2560   22.1740 H   0  0  0  0  0  0  0  0  0  0  0  0
   10.7234   -0.3447   22.4568 C   0  0  0  0  0  0  0  0  0  0  0  0
    9.3397   -0.8536   22.2144 C   0  0  0  0  0  0  0  0  0  0  0  0
    8.7720   -1.9380   22.9600 C   0  0  0  0  0  0  0  0  0  0  0  0
    9.3459   -2.4004   23.7639 H   0  0  0  0  0  0  0  0  0  0  0  0
    7.5153   -2.3827   22.6733 C   0  0  0  0  0  0  0  0  0  0  0  0
    7.0319   -3.1990   23.1897 H   0  0  0  0  0  0  0  0  0  0  0  0
    6.7026   -1.8235   21.5974 C   0  0  0  0  0  0  0  0  0  0  0  0
    5.6084   -2.2665   21.2895 O   0  0  0  0  0  0  0  0  0  0  0  0
    7.3203   -0.7265   20.8943 N   0  0  0  0  0  0  0  0  0  0  0  0
    6.6299   -0.0273   19.8354 C   0  0  0  0  0  0  0  0  0  0  0  0
    7.1731    0.0672   18.5370 C   0  0  0  0  0  0  0  0  0  0  0  0
    8.1181   -0.4232   18.3058 H   0  0  0  0  0  0  0  0  0  0  0  0
    6.5792    0.7181   17.5286 N   0  0  0  0  0  0  0  0  0  0  0  0
    5.4168    1.3385   17.7886 C   0  0  0  0  0  0  0  0  0  0  0  0
    4.9563    1.8658   16.9553 H   0  0  0  0  0  0  0  0  0  0  0  0
    4.8088    1.3250   19.0480 C   0  0  0  0  0  0  0  0  0  0  0  0
    3.8794    1.8603   19.1992 H   0  0  0  0  0  0  0  0  0  0  0  0
    5.4256    0.6311   20.0941 C   0  0  0  0  0  0  0  0  0  0  0  0
    5.0014    0.5948   21.0952 H   0  0  0  0  0  0  0  0  0  0  0  0
    8.5747   -0.2768   21.2447 C   0  0  0  0  0  0  0  0  0  0  0  0
    8.9364    0.5783   20.6847 H   0  0  0  0  0  0  0  0  0  0  0  0
   10.9449    1.0253   22.6951 C   0  0  0  0  0  0  0  0  0  0  0  0
   10.0942    1.7015   22.7047 H   0  0  0  0  0  0  0  0  0  0  0  0
  1  2  1  0
  2  3  1  0
  3  4  2  0
  3  5  1  0
  5  6  2  0
  6  7  1  0
  6  8  1  0
  8  9  1  0
  8 10  2  0
 10 11  1  0
 10 12  1  0
 12 13  1  0
 13 14  1  0
 14 15  1  0
 14 16  2  0
 16 17  1  0
 16 18  1  0
 18 19  2  0
 18 20  1  0
 20 21  1  0
 21 22  2  0
 22 23  1  0
 22 24  1  0
 24 25  2  0
 25 26  1  0
 25 27  1  0
 27 28  1  0
 27 29  2  0
 29 30  1  0
 20 31  1  0
 31 32  1  0
 12 33  2  0
 33 34  1  0
 33  5  1  0
 31 13  2  0
 29 21  1  0
M  END
>  <cnnaffinity>  (1) 
-5.43369

>  <filename>  (1) 
O=C(O)c1cccc(-c2ccc(=O)n(-c3cccnc3)c2)c1

$$$$
