
     RDKit          3D

 33 36  0  0  0  0  0  0  0  0999 V2000
    5.6342    1.8934   16.7450 H   0  0  0  0  0  0  0  0  0  0  0  0
    6.1502    1.4442   17.5934 C   0  0  0  0  0  0  0  0  0  0  0  0
    7.3540    0.9124   17.3437 N   0  0  0  0  0  0  0  0  0  0  0  0
    8.0156    0.3388   18.3481 C   0  0  0  0  0  0  0  0  0  0  0  0
    9.0083   -0.0506   18.1149 H   0  0  0  0  0  0  0  0  0  0  0  0
    7.4806    0.2111   19.6361 C   0  0  0  0  0  0  0  0  0  0  0  0
    8.2374   -0.5205   20.6271 C   0  0  0  0  0  0  0  0  0  0  0  0
    9.5410   -0.1788   20.8514 N   0  0  0  0  0  0  0  0  0  0  0  0
    9.9123   -0.9759   21.8112 C   0  0  0  0  0  0  0  0  0  0  0  0
   11.3345   -1.1792   22.7801 S   0  0  0  0  0  0  0  0  0  0  0  0
   10.5441   -2.4777   23.6740 C   0  0  0  0  0  0  0  0  0  0  0  0
   11.0599   -2.9665   24.4883 H   0  0  0  0  0  0  0  0  0  0  0  0
    9.3019   -2.7209   23.2206 C   0  0  0  0  0  0  0  0  0  0  0  0
    8.5752   -3.4604   23.5350 H   0  0  0  0  0  0  0  0  0  0  0  0
    8.9530   -1.8780   22.1841 N   0  0  0  0  0  0  0  0  0  0  0  0
    7.8401   -1.5973   21.4194 C   0  0  0  0  0  0  0  0  0  0  0  0
    6.5174   -2.2299   21.4631 C   0  0  0  0  0  0  0  0  0  0  0  0
    5.5465   -1.5784   21.1281 O   0  0  0  0  0  0  0  0  0  0  0  0
    6.3113   -3.6794   21.8796 C   0  0  0  0  0  0  0  0  0  0  0  0
    7.1450   -4.7223   21.4333 C   0  0  0  0  0  0  0  0  0  0  0  0
    8.0635   -4.5009   20.8935 H   0  0  0  0  0  0  0  0  0  0  0  0
    6.7747   -6.0582   21.6426 C   0  0  0  0  0  0  0  0  0  0  0  0
    7.3939   -6.8635   21.2628 H   0  0  0  0  0  0  0  0  0  0  0  0
    5.6004   -6.3633   22.3353 C   0  0  0  0  0  0  0  0  0  0  0  0
    5.2912   -7.3940   22.4849 H   0  0  0  0  0  0  0  0  0  0  0  0
    4.7997   -5.3316   22.8377 C   0  0  0  0  0  0  0  0  0  0  0  0
    3.8786   -5.5630   23.3661 H   0  0  0  0  0  0  0  0  0  0  0  0
    5.1638   -4.0007   22.6369 C   0  0  0  0  0  0  0  0  0  0  0  0
    4.5399   -3.2061   23.0430 H   0  0  0  0  0  0  0  0  0  0  0  0
    6.2733    0.8656   19.9190 C   0  0  0  0  0  0  0  0  0  0  0  0
    5.8713    0.8697   20.9298 H   0  0  0  0  0  0  0  0  0  0  0  0
    5.5956    1.4858   18.8738 C   0  0  0  0  0  0  0  0  0  0  0  0
    4.6501    1.9849   19.0451 H   0  0  0  0  0  0  0  0  0  0  0  0
  1  2  1  0
  2  3  2  0
  3  4  1  0
  4  5  1  0
  4  6  2  0
  6  7  1  0
  7  8  1  0
  8  9  2  0
  9 10  1  0
 10 11  1  0
 11 12  1  0
 11 13  2  0
 13 14  1  0
 13 15  1  0
 15 16  1  0
 16 17  1  0
 17 18  2  0
 17 19  1  0
 19 20  2  0
 20 21  1  0
 20 22  1  0
 22 23  1  0
 22 24  2  0
 24 25  1  0
 24 26  1  0
 26 27  1  0
 26 28  2  0
 28 29  1  0
  6 30  1  0
 30 31  1  0
 30 32  2  0
 32 33  1  0
 32  2  1  0
 16  7  2  0
 28 19  1  0
 15  9  1  0
M  END
>  <cnnaffinity>  (1) 
-5.97513

>  <filename>  (1) 
O=C(c1ccccc1)c1c(-c2cccnc2)nc2sccn12

$$$$
