
     RDKit          3D

 32 35  0  0  0  0  0  0  0  0999 V2000
    5.1442    1.6676   17.3411 H   0  0  0  0  0  0  0  0  0  0  0  0
    5.6680    1.0724   18.0892 C   0  0  0  0  0  0  0  0  0  0  0  0
    6.8395    0.5393   17.7060 N   0  0  0  0  0  0  0  0  0  0  0  0
    7.5115   -0.1844   18.6041 C   0  0  0  0  0  0  0  0  0  0  0  0
    8.4425   -0.6455   18.2712 H   0  0  0  0  0  0  0  0  0  0  0  0
    7.0627   -0.3923   19.9152 C   0  0  0  0  0  0  0  0  0  0  0  0
    7.9539   -1.0943   20.8403 C   0  0  0  0  0  0  0  0  0  0  0  0
    9.2568   -1.2372   20.7457 N   0  0  0  0  0  0  0  0  0  0  0  0
    9.7150   -1.9201   21.8546 N   0  0  0  0  0  0  0  0  0  0  0  0
    8.6596   -2.1688   22.5875 C   0  0  0  0  0  0  0  0  0  0  0  0
    8.2507   -2.9544   24.0944 S   0  0  0  0  0  0  0  0  0  0  0  0
    6.5775   -2.5296   23.7337 C   0  0  0  0  0  0  0  0  0  0  0  0
    5.4854   -2.7766   24.5214 N   0  0  0  0  0  0  0  0  0  0  0  0
    4.6666   -2.2817   24.2052 H   0  0  0  0  0  0  0  0  0  0  0  0
    5.4950   -3.4407   25.7188 C   0  0  0  0  0  0  0  0  0  0  0  0
    6.4620   -4.0830   26.0579 O   0  0  0  0  0  0  0  0  0  0  0  0
    4.2136   -3.2962   26.5442 C   0  0  0  0  0  0  0  0  0  0  0  0
    3.7380   -4.3685   27.3183 C   0  0  0  0  0  0  0  0  0  0  0  0
    4.2874   -5.3034   27.3538 H   0  0  0  0  0  0  0  0  0  0  0  0
    2.5637   -4.2088   28.0599 C   0  0  0  0  0  0  0  0  0  0  0  0
    2.1930   -5.0357   28.6581 H   0  0  0  0  0  0  0  0  0  0  0  0
    1.8568   -3.0718   28.1006 N   0  0  0  0  0  0  0  0  0  0  0  0
    2.3277   -2.0372   27.3941 C   0  0  0  0  0  0  0  0  0  0  0  0
    1.7577   -1.1148   27.4525 H   0  0  0  0  0  0  0  0  0  0  0  0
    3.4884   -2.0916   26.6184 C   0  0  0  0  0  0  0  0  0  0  0  0
    3.8322   -1.1873   26.1276 H   0  0  0  0  0  0  0  0  0  0  0  0
    6.3388   -1.8911   22.6332 N   0  0  0  0  0  0  0  0  0  0  0  0
    7.5312   -1.6824   22.0052 N   0  0  0  0  0  0  0  0  0  0  0  0
    5.8062    0.1094   20.2908 C   0  0  0  0  0  0  0  0  0  0  0  0
    5.4080   -0.1090   21.2840 H   0  0  0  0  0  0  0  0  0  0  0  0
    5.1064    0.8700   19.3576 C   0  0  0  0  0  0  0  0  0  0  0  0
    4.1437    1.3076   19.6035 H   0  0  0  0  0  0  0  0  0  0  0  0
  1  2  1  0
  2  3  2  0
  3  4  1  0
  4  5  1  0
  4  6  2  0
  6  7  1  0
  7  8  2  0
  8  9  1  0
  9 10  2  0
 10 11  1  0
 11 12  1  0
 12 13  1  0
 13 14  1  0
 13 15  1  0
 15 16  2  0
 15 17  1  0
 17 18  2  0
 18 19  1  0
 18 20  1  0
 20 21  1  0
 20 22  2  0
 22 23  1  0
 23 24  1  0
 23 25  2  0
 25 26  1  0
 12 27  2  0
 27 28  1  0
  6 29  1  0
 29 30  1  0
 29 31  2  0
 31 32  1  0
 31  2  1  0
 28  7  1  0
 28 10  1  0
 25 17  1  0
M  END
>  <cnnaffinity>  (1) 
-5.11147

>  <filename>  (1) 
O=C(Nc1nn2c(-c3cccnc3)nnc2s1)c1ccncc1

$$$$
