
     RDKit          3D

 30 32  0  0  0  0  0  0  0  0999 V2000
    9.7770   -0.0300   21.1926 O   0  0  0  0  0  0  0  0  0  0  0  0
    8.6530    0.2648   21.5390 C   0  0  0  0  0  0  0  0  0  0  0  0
    8.3445    1.3252   22.3567 N   0  0  0  0  0  0  0  0  0  0  0  0
    9.1893    2.3770   22.7687 C   0  0  0  0  0  0  0  0  0  0  0  0
    8.7379    3.1893   23.8392 C   0  0  0  0  0  0  0  0  0  0  0  0
    9.4825    4.2697   24.2783 C   0  0  0  0  0  0  0  0  0  0  0  0
   10.6991    4.5777   23.6246 C   0  0  0  0  0  0  0  0  0  0  0  0
   11.6608    5.6406   23.8365 C   0  0  0  0  0  0  0  0  0  0  0  0
   12.7176    5.6395   23.0881 N   0  0  0  0  0  0  0  0  0  0  0  0
   12.6713    4.3441   22.0019 S   0  0  0  0  0  0  0  0  0  0  0  0
   11.1438    3.7420   22.5808 C   0  0  0  0  0  0  0  0  0  0  0  0
   10.4108    2.6250   22.1533 C   0  0  0  0  0  0  0  0  0  0  0  0
   10.7770    1.9561   21.3898 H   0  0  0  0  0  0  0  0  0  0  0  0
   11.5766    6.4137   24.5943 H   0  0  0  0  0  0  0  0  0  0  0  0
    9.1377    4.8495   25.1318 H   0  0  0  0  0  0  0  0  0  0  0  0
    7.8105    2.9275   24.3358 H   0  0  0  0  0  0  0  0  0  0  0  0
    7.4106    1.3527   22.7312 H   0  0  0  0  0  0  0  0  0  0  0  0
    7.3961   -0.5861   21.0213 C   0  0  0  0  0  0  0  0  0  0  0  0
    7.8379   -1.8069   20.6222 F   0  0  0  0  0  0  0  0  0  0  0  0
    6.5532   -0.8076   22.0872 F   0  0  0  0  0  0  0  0  0  0  0  0
    6.5927    0.0411   19.8954 C   0  0  0  0  0  0  0  0  0  0  0  0
    5.3765    0.7131   20.0991 C   0  0  0  0  0  0  0  0  0  0  0  0
    4.7937    1.3597   19.0080 C   0  0  0  0  0  0  0  0  0  0  0  0
    5.4310    1.2942   17.7645 C   0  0  0  0  0  0  0  0  0  0  0  0
    6.5565    0.5966   17.5494 N   0  0  0  0  0  0  0  0  0  0  0  0
    7.1046   -0.0313   18.5914 C   0  0  0  0  0  0  0  0  0  0  0  0
    7.9906   -0.6316   18.3889 H   0  0  0  0  0  0  0  0  0  0  0  0
    5.0171    1.8068   16.8963 H   0  0  0  0  0  0  0  0  0  0  0  0
    3.8647    1.9127   19.1023 H   0  0  0  0  0  0  0  0  0  0  0  0
    4.8796    0.6962   21.0715 H   0  0  0  0  0  0  0  0  0  0  0  0
  1  2  2  0
  2  3  1  0
  3  4  1  0
  4  5  2  0
  5  6  1  0
  6  7  2  0
  7  8  1  0
  8  9  2  0
  9 10  1  0
 10 11  1  0
 11 12  2  0
 12 13  1  0
  8 14  1  0
  6 15  1  0
  5 16  1  0
  3 17  1  0
  2 18  1  0
 18 19  1  0
 18 20  1  0
 18 21  1  0
 21 22  2  0
 22 23  1  0
 23 24  2  0
 24 25  1  0
 25 26  2  0
 26 27  1  0
 24 28  1  0
 23 29  1  0
 22 30  1  0
 12  4  1  0
 26 21  1  0
 11  7  1  0
M  END
>  <cnnaffinity>  (1) 
-5.29894

>  <filename>  (1) 
O=C(Nc1ccc2cnsc2c1)C(F)(F)c1cccnc1

$$$$
