
     RDKit          3D

 33 34  0  0  0  0  0  0  0  0999 V2000
    5.3820    5.0017   20.6115 H   0  0  0  0  0  0  0  0  0  0  0  0
    5.8969    5.4216   21.3398 O   0  0  0  0  0  0  0  0  0  0  0  0
    7.0432    4.6500   21.5377 N   0  0  0  0  0  0  0  0  0  0  0  0
    7.8610    5.1755   21.2544 H   0  0  0  0  0  0  0  0  0  0  0  0
    7.2361    3.9249   22.7134 C   0  0  0  0  0  0  0  0  0  0  0  0
    6.3590    3.4686   23.4085 O   0  0  0  0  0  0  0  0  0  0  0  0
    8.7152    3.6607   22.9873 C   0  0  0  0  0  0  0  0  0  0  0  0
    9.3593    4.3655   22.4406 H   0  0  0  0  0  0  0  0  0  0  0  0
    8.8602    3.8429   24.0586 H   0  0  0  0  0  0  0  0  0  0  0  0
    9.0991    2.1974   22.6868 C   0  0  0  0  0  0  0  0  0  0  0  0
    8.3587    1.5263   23.1458 H   0  0  0  0  0  0  0  0  0  0  0  0
   10.0592    1.9632   23.1700 H   0  0  0  0  0  0  0  0  0  0  0  0
    9.2168    1.9050   21.1930 C   0  0  0  0  0  0  0  0  0  0  0  0
    8.2789    2.1487   20.6739 H   0  0  0  0  0  0  0  0  0  0  0  0
    9.9912    2.5607   20.7748 H   0  0  0  0  0  0  0  0  0  0  0  0
    9.5921    0.4429   20.8930 C   0  0  0  0  0  0  0  0  0  0  0  0
   10.5672    0.1904   21.3233 H   0  0  0  0  0  0  0  0  0  0  0  0
    9.6513    0.3001   19.8111 H   0  0  0  0  0  0  0  0  0  0  0  0
    8.6062   -0.5446   21.4157 C   0  0  0  0  0  0  0  0  0  0  0  0
    8.7624   -1.3789   22.4143 N   0  0  0  0  0  0  0  0  0  0  0  0
    7.5714   -1.9942   22.5817 N   0  0  0  0  0  0  0  0  0  0  0  0
    6.7100   -1.5822   21.7279 N   0  0  0  0  0  0  0  0  0  0  0  0
    7.3341   -0.6699   20.9507 N   0  0  0  0  0  0  0  0  0  0  0  0
    6.6480    0.0026   19.8959 C   0  0  0  0  0  0  0  0  0  0  0  0
    7.1558    0.0229   18.5859 C   0  0  0  0  0  0  0  0  0  0  0  0
    8.0748   -0.5119   18.3542 H   0  0  0  0  0  0  0  0  0  0  0  0
    6.5601    0.6625   17.5737 N   0  0  0  0  0  0  0  0  0  0  0  0
    5.4146    1.3099   17.8352 C   0  0  0  0  0  0  0  0  0  0  0  0
    4.9525    1.8232   16.9953 H   0  0  0  0  0  0  0  0  0  0  0  0
    4.8182    1.3275   19.1015 C   0  0  0  0  0  0  0  0  0  0  0  0
    3.8842    1.8597   19.2459 H   0  0  0  0  0  0  0  0  0  0  0  0
    5.4418    0.6556   20.1583 C   0  0  0  0  0  0  0  0  0  0  0  0
    5.0293    0.6225   21.1688 H   0  0  0  0  0  0  0  0  0  0  0  0
  1  2  1  0
  2  3  1  0
  3  4  1  0
  3  5  1  0
  5  6  2  0
  5  7  1  0
  7  8  1  0
  7  9  1  0
  7 10  1  0
 10 11  1  0
 10 12  1  0
 10 13  1  0
 13 14  1  0
 13 15  1  0
 13 16  1  0
 16 17  1  0
 16 18  1  0
 16 19  1  0
 19 20  2  0
 20 21  1  0
 21 22  2  0
 22 23  1  0
 23 24  1  0
 24 25  2  0
 25 26  1  0
 25 27  1  0
 27 28  2  0
 28 29  1  0
 28 30  1  0
 30 31  1  0
 30 32  2  0
 32 33  1  0
 23 19  1  0
 32 24  1  0
M  END
>  <cnnaffinity>  (1) 
-4.62739

>  <filename>  (1) 
O=C(CCCCc1nnnn1-c1cccnc1)NO

$$$$
