
     RDKit          3D

 38 41  0  0  0  0  0  0  0  0999 V2000
    4.9416    1.8673   16.9277 H   0  0  0  0  0  0  0  0  0  0  0  0
    5.3832    1.3171   17.7554 C   0  0  0  0  0  0  0  0  0  0  0  0
    6.5327    0.6738   17.4934 N   0  0  0  0  0  0  0  0  0  0  0  0
    7.1219    0.0294   18.5042 C   0  0  0  0  0  0  0  0  0  0  0  0
    8.0552   -0.4802   18.2656 H   0  0  0  0  0  0  0  0  0  0  0  0
    6.6146    0.0084   19.8186 C   0  0  0  0  0  0  0  0  0  0  0  0
    7.3806   -0.5954   20.9129 C   0  0  0  0  0  0  0  0  0  0  0  0
    8.2163   -1.6159   20.7092 N   0  0  0  0  0  0  0  0  0  0  0  0
    8.7503   -1.8269   21.9088 N   0  0  0  0  0  0  0  0  0  0  0  0
    8.3286   -1.0163   22.8833 C   0  0  0  0  0  0  0  0  0  0  0  0
    7.4031   -0.1848   22.2906 C   0  0  0  0  0  0  0  0  0  0  0  0
    6.6956    0.8513   22.9370 N   0  0  0  0  0  0  0  0  0  0  0  0
    6.8624    1.7732   22.5621 H   0  0  0  0  0  0  0  0  0  0  0  0
    6.4402    0.8698   24.2920 C   0  0  0  0  0  0  0  0  0  0  0  0
    6.5359   -0.0961   25.0232 O   0  0  0  0  0  0  0  0  0  0  0  0
    6.0370    2.2388   24.8174 C   0  0  0  0  0  0  0  0  0  0  0  0
    5.5332    3.2916   24.0319 C   0  0  0  0  0  0  0  0  0  0  0  0
    5.4178    3.2089   22.9574 H   0  0  0  0  0  0  0  0  0  0  0  0
    5.1696    4.4961   24.6372 C   0  0  0  0  0  0  0  0  0  0  0  0
    4.7783    5.2999   24.0192 H   0  0  0  0  0  0  0  0  0  0  0  0
    5.2859    4.7333   25.9516 N   0  0  0  0  0  0  0  0  0  0  0  0
    5.7729    3.7375   26.7024 C   0  0  0  0  0  0  0  0  0  0  0  0
    5.8671    3.9311   27.7688 H   0  0  0  0  0  0  0  0  0  0  0  0
    6.1566    2.4966   26.1916 C   0  0  0  0  0  0  0  0  0  0  0  0
    6.5554    1.7375   26.8514 H   0  0  0  0  0  0  0  0  0  0  0  0
    9.1205   -1.2300   24.1399 C   0  0  0  0  0  0  0  0  0  0  0  0
    8.4842   -1.6256   24.9363 H   0  0  0  0  0  0  0  0  0  0  0  0
    9.5426   -0.2843   24.4938 H   0  0  0  0  0  0  0  0  0  0  0  0
   10.2282   -2.2090   23.6597 C   0  0  0  0  0  0  0  0  0  0  0  0
   10.4563   -2.9938   24.3838 H   0  0  0  0  0  0  0  0  0  0  0  0
   11.1330   -1.6358   23.4681 H   0  0  0  0  0  0  0  0  0  0  0  0
    9.7686   -2.7679   22.2879 C   0  0  0  0  0  0  0  0  0  0  0  0
   10.5622   -2.7418   21.5420 H   0  0  0  0  0  0  0  0  0  0  0  0
    9.3421   -3.7740   22.3407 H   0  0  0  0  0  0  0  0  0  0  0  0
    5.3835    0.6389   20.0599 C   0  0  0  0  0  0  0  0  0  0  0  0
    4.9427    0.6023   21.0581 H   0  0  0  0  0  0  0  0  0  0  0  0
    4.7653    1.3085   19.0101 C   0  0  0  0  0  0  0  0  0  0  0  0
    3.8378    1.8483   19.1544 H   0  0  0  0  0  0  0  0  0  0  0  0
  1  2  1  0
  2  3  2  0
  3  4  1  0
  4  5  1  0
  4  6  2  0
  6  7  1  0
  7  8  2  0
  8  9  1  0
  9 10  1  0
 10 11  2  0
 11 12  1  0
 12 13  1  0
 12 14  1  0
 14 15  2  0
 14 16  1  0
 16 17  2  0
 17 18  1  0
 17 19  1  0
 19 20  1  0
 19 21  2  0
 21 22  1  0
 22 23  1  0
 22 24  2  0
 24 25  1  0
 10 26  1  0
 26 27  1  0
 26 28  1  0
 26 29  1  0
 29 30  1  0
 29 31  1  0
 29 32  1  0
 32 33  1  0
 32 34  1  0
  6 35  1  0
 35 36  1  0
 35 37  2  0
 37 38  1  0
 37  2  1  0
 11  7  1  0
 24 16  1  0
 32  9  1  0
M  END
>  <cnnaffinity>  (1) 
-5.56142

>  <filename>  (1) 
O=C(Nc1c(-c2cccnc2)nn2c1CCC2)c1ccncc1

$$$$
