
     RDKit          3D

 34 35  0  0  0  0  0  0  0  0999 V2000
    9.2124    4.3021   26.5979 H   0  0  0  0  0  0  0  0  0  0  0  0
    9.3399    3.5589   25.9853 O   0  0  0  0  0  0  0  0  0  0  0  0
    9.1805    4.0724   24.6894 N   0  0  0  0  0  0  0  0  0  0  0  0
    9.9782    3.7802   24.1238 H   0  0  0  0  0  0  0  0  0  0  0  0
    7.9930    3.7382   24.0159 C   0  0  0  0  0  0  0  0  0  0  0  0
    6.9682    3.4033   24.5579 O   0  0  0  0  0  0  0  0  0  0  0  0
    8.1298    3.8826   22.5064 C   0  0  0  0  0  0  0  0  0  0  0  0
    8.9923    4.5074   22.2417 H   0  0  0  0  0  0  0  0  0  0  0  0
    7.2371    4.4113   22.1575 H   0  0  0  0  0  0  0  0  0  0  0  0
    8.1972    2.5125   21.8022 C   0  0  0  0  0  0  0  0  0  0  0  0
    7.4173    1.8532   22.2139 H   0  0  0  0  0  0  0  0  0  0  0  0
    7.9356    2.6276   20.7475 H   0  0  0  0  0  0  0  0  0  0  0  0
    9.5629    1.8249   21.8864 C   0  0  0  0  0  0  0  0  0  0  0  0
   10.3520    2.5106   21.5446 H   0  0  0  0  0  0  0  0  0  0  0  0
    9.8008    1.5638   22.9273 H   0  0  0  0  0  0  0  0  0  0  0  0
    9.6378    0.5617   20.9965 C   0  0  0  0  0  0  0  0  0  0  0  0
    9.4501    0.8573   19.9575 H   0  0  0  0  0  0  0  0  0  0  0  0
   10.6509    0.1501   21.0282 H   0  0  0  0  0  0  0  0  0  0  0  0
    8.6520   -0.5089   21.3799 C   0  0  0  0  0  0  0  0  0  0  0  0
    9.0081   -1.6134   22.6463 S   0  0  0  0  0  0  0  0  0  0  0  0
    7.5051   -2.3114   22.6979 N   0  0  0  0  0  0  0  0  0  0  0  0
    6.7517   -1.7351   21.8021 C   0  0  0  0  0  0  0  0  0  0  0  0
    5.7249   -2.0808   21.7058 H   0  0  0  0  0  0  0  0  0  0  0  0
    7.3503   -0.7098   20.9832 C   0  0  0  0  0  0  0  0  0  0  0  0
    6.6646    0.0227   19.8846 C   0  0  0  0  0  0  0  0  0  0  0  0
    7.1728    0.0833   18.5651 C   0  0  0  0  0  0  0  0  0  0  0  0
    8.1074   -0.4212   18.3175 H   0  0  0  0  0  0  0  0  0  0  0  0
    6.5693    0.7052   17.5398 N   0  0  0  0  0  0  0  0  0  0  0  0
    5.4058    1.3241   17.8015 C   0  0  0  0  0  0  0  0  0  0  0  0
    4.9275    1.8248   16.9625 H   0  0  0  0  0  0  0  0  0  0  0  0
    4.8062    1.3293   19.0634 C   0  0  0  0  0  0  0  0  0  0  0  0
    3.8652    1.8490   19.2050 H   0  0  0  0  0  0  0  0  0  0  0  0
    5.4375    0.6684   20.1180 C   0  0  0  0  0  0  0  0  0  0  0  0
    5.0016    0.6736   21.1201 H   0  0  0  0  0  0  0  0  0  0  0  0
  1  2  1  0
  2  3  1  0
  3  4  1  0
  3  5  1  0
  5  6  2  0
  5  7  1  0
  7  8  1  0
  7  9  1  0
  7 10  1  0
 10 11  1  0
 10 12  1  0
 10 13  1  0
 13 14  1  0
 13 15  1  0
 13 16  1  0
 16 17  1  0
 16 18  1  0
 16 19  1  0
 19 20  1  0
 20 21  1  0
 21 22  2  0
 22 23  1  0
 22 24  1  0
 24 25  1  0
 25 26  2  0
 26 27  1  0
 26 28  1  0
 28 29  2  0
 29 30  1  0
 29 31  1  0
 31 32  1  0
 31 33  2  0
 33 34  1  0
 24 19  2  0
 33 25  1  0
M  END
>  <cnnaffinity>  (1) 
-4.92089

>  <filename>  (1) 
O=C(CCCCc1sncc1-c1cccnc1)NO

$$$$
