
     RDKit          3D

 34 36  0  0  0  0  0  0  0  0999 V2000
    5.0178    1.7704   16.7692 H   0  0  0  0  0  0  0  0  0  0  0  0
    5.4588    1.3052   17.6484 C   0  0  0  0  0  0  0  0  0  0  0  0
    6.6196    0.6563   17.4604 N   0  0  0  0  0  0  0  0  0  0  0  0
    7.1508    0.0261   18.5170 C   0  0  0  0  0  0  0  0  0  0  0  0
    8.0966   -0.4875   18.3475 H   0  0  0  0  0  0  0  0  0  0  0  0
    6.5652    0.0018   19.8054 C   0  0  0  0  0  0  0  0  0  0  0  0
    7.1407   -0.7785   20.8552 N   0  0  0  0  0  0  0  0  0  0  0  0
    7.6167   -1.6302   20.5893 H   0  0  0  0  0  0  0  0  0  0  0  0
    7.0652   -0.4725   22.1998 C   0  0  0  0  0  0  0  0  0  0  0  0
    6.5689    0.5480   22.6275 O   0  0  0  0  0  0  0  0  0  0  0  0
    7.6796   -1.4990   23.2517 C   0  0  0  0  0  0  0  0  0  0  0  0
    6.6300   -2.0053   23.9678 F   0  0  0  0  0  0  0  0  0  0  0  0
    8.2502   -2.5873   22.6281 F   0  0  0  0  0  0  0  0  0  0  0  0
    8.6756   -0.7901   24.1533 C   0  0  0  0  0  0  0  0  0  0  0  0
    8.2745   -0.3840   25.4154 C   0  0  0  0  0  0  0  0  0  0  0  0
    7.3462   -0.7515   25.8337 H   0  0  0  0  0  0  0  0  0  0  0  0
    9.0488    0.5191   26.1818 C   0  0  0  0  0  0  0  0  0  0  0  0
    8.6858    0.8622   27.1451 H   0  0  0  0  0  0  0  0  0  0  0  0
   10.2393    0.9840   25.6878 C   0  0  0  0  0  0  0  0  0  0  0  0
   10.8598    1.6657   26.2562 H   0  0  0  0  0  0  0  0  0  0  0  0
   10.7141    0.5713   24.4120 C   0  0  0  0  0  0  0  0  0  0  0  0
   11.9591    1.0563   23.9097 C   0  0  0  0  0  0  0  0  0  0  0  0
   12.5240    1.7732   24.5060 H   0  0  0  0  0  0  0  0  0  0  0  0
   12.4322    0.6375   22.6923 C   0  0  0  0  0  0  0  0  0  0  0  0
   13.3973    0.9888   22.3334 H   0  0  0  0  0  0  0  0  0  0  0  0
   11.6654   -0.2559   21.8955 C   0  0  0  0  0  0  0  0  0  0  0  0
   12.0522   -0.6051   20.9409 H   0  0  0  0  0  0  0  0  0  0  0  0
   10.4343   -0.6996   22.3217 C   0  0  0  0  0  0  0  0  0  0  0  0
    9.8386   -1.3239   21.6636 H   0  0  0  0  0  0  0  0  0  0  0  0
    9.9313   -0.3303   23.6168 C   0  0  0  0  0  0  0  0  0  0  0  0
    5.3902    0.7393   20.0010 C   0  0  0  0  0  0  0  0  0  0  0  0
    4.9490    0.8146   20.9924 H   0  0  0  0  0  0  0  0  0  0  0  0
    4.8228    1.3776   18.8912 C   0  0  0  0  0  0  0  0  0  0  0  0
    3.8984    1.9330   18.9878 H   0  0  0  0  0  0  0  0  0  0  0  0
  1  2  1  0
  2  3  2  0
  3  4  1  0
  4  5  1  0
  4  6  2  0
  6  7  1  0
  7  8  1  0
  7  9  1  0
  9 10  2  0
  9 11  1  0
 11 12  1  0
 11 13  1  0
 11 14  1  0
 14 15  2  0
 15 16  1  0
 15 17  1  0
 17 18  1  0
 17 19  2  0
 19 20  1  0
 19 21  1  0
 21 22  2  0
 22 23  1  0
 22 24  1  0
 24 25  1  0
 24 26  2  0
 26 27  1  0
 26 28  1  0
 28 29  1  0
 28 30  2  0
  6 31  1  0
 31 32  1  0
 31 33  2  0
 33 34  1  0
 33  2  1  0
 30 14  1  0
 30 21  1  0
M  END
>  <cnnaffinity>  (1) 
-5.27442

>  <filename>  (1) 
O=C(Nc1cccnc1)C(F)(F)c1cccc2ccccc12

$$$$
