
     RDKit          3D

 32 34  0  0  0  0  0  0  0  0999 V2000
    4.9541    1.7881   16.9923 H   0  0  0  0  0  0  0  0  0  0  0  0
    5.4069    1.2851   17.8417 C   0  0  0  0  0  0  0  0  0  0  0  0
    6.5715    0.6616   17.6041 N   0  0  0  0  0  0  0  0  0  0  0  0
    7.1818    0.0678   18.6337 C   0  0  0  0  0  0  0  0  0  0  0  0
    8.1266   -0.4241   18.4066 H   0  0  0  0  0  0  0  0  0  0  0  0
    6.6686    0.0671   19.9472 C   0  0  0  0  0  0  0  0  0  0  0  0
    7.3874   -0.5812   20.9889 N   0  0  0  0  0  0  0  0  0  0  0  0
    7.8746   -1.8622   20.8557 C   0  0  0  0  0  0  0  0  0  0  0  0
    7.5566   -2.3817   19.9761 H   0  0  0  0  0  0  0  0  0  0  0  0
    8.4841   -2.2553   22.0193 C   0  0  0  0  0  0  0  0  0  0  0  0
    8.9814   -3.1951   22.2245 H   0  0  0  0  0  0  0  0  0  0  0  0
    8.3085   -1.1909   22.9402 C   0  0  0  0  0  0  0  0  0  0  0  0
    8.5560   -1.1278   23.9843 H   0  0  0  0  0  0  0  0  0  0  0  0
    7.6353   -0.1883   22.2946 C   0  0  0  0  0  0  0  0  0  0  0  0
    7.1901    1.0231   22.8068 N   0  0  0  0  0  0  0  0  0  0  0  0
    7.1526    1.8107   22.1840 H   0  0  0  0  0  0  0  0  0  0  0  0
    6.8888    1.2527   24.1224 C   0  0  0  0  0  0  0  0  0  0  0  0
    6.9910    0.4038   24.9909 O   0  0  0  0  0  0  0  0  0  0  0  0
    6.4418    2.6737   24.4449 C   0  0  0  0  0  0  0  0  0  0  0  0
    6.6563    3.1329   25.7576 C   0  0  0  0  0  0  0  0  0  0  0  0
    7.1405    2.4905   26.4906 H   0  0  0  0  0  0  0  0  0  0  0  0
    6.2332    4.4135   26.1145 C   0  0  0  0  0  0  0  0  0  0  0  0
    6.3913    4.7697   27.1300 H   0  0  0  0  0  0  0  0  0  0  0  0
    5.6152    5.2519   25.2712 N   0  0  0  0  0  0  0  0  0  0  0  0
    5.4053    4.8200   24.0209 C   0  0  0  0  0  0  0  0  0  0  0  0
    4.8933    5.5060   23.3485 H   0  0  0  0  0  0  0  0  0  0  0  0
    5.7953    3.5594   23.5548 C   0  0  0  0  0  0  0  0  0  0  0  0
    5.5529    3.3173   22.5219 H   0  0  0  0  0  0  0  0  0  0  0  0
    5.4237    0.6744   20.1710 C   0  0  0  0  0  0  0  0  0  0  0  0
    4.9558    0.6235   21.1548 H   0  0  0  0  0  0  0  0  0  0  0  0
    4.7939    1.3085   19.0984 C   0  0  0  0  0  0  0  0  0  0  0  0
    3.8550    1.8357   19.2296 H   0  0  0  0  0  0  0  0  0  0  0  0
  1  2  1  0
  2  3  2  0
  3  4  1  0
  4  5  1  0
  4  6  2  0
  6  7  1  0
  7  8  1  0
  8  9  1  0
  8 10  2  0
 10 11  1  0
 10 12  1  0
 12 13  1  0
 12 14  2  0
 14 15  1  0
 15 16  1  0
 15 17  1  0
 17 18  2  0
 17 19  1  0
 19 20  2  0
 20 21  1  0
 20 22  1  0
 22 23  1  0
 22 24  2  0
 24 25  1  0
 25 26  1  0
 25 27  2  0
 27 28  1  0
  6 29  1  0
 29 30  1  0
 29 31  2  0
 31 32  1  0
 31  2  1  0
 14  7  1  0
 27 19  1  0
M  END
>  <cnnaffinity>  (1) 
-4.94431

>  <filename>  (1) 
O=C(Nc1cccn1-c1cccnc1)c1ccncc1

$$$$
