
     RDKit          3D

 34 37  0  0  0  0  0  0  0  0999 V2000
    7.8821    5.8778   21.3447 H   0  0  0  0  0  0  0  0  0  0  0  0
    7.9632    4.9182   21.4794 O   0  0  0  0  0  0  0  0  0  0  0  0
    7.0709    4.8136   22.4737 C   0  0  0  0  0  0  0  0  0  0  0  0
    6.5058    5.8291   22.8209 O   0  0  0  0  0  0  0  0  0  0  0  0
    6.9085    3.4501   23.0680 C   0  0  0  0  0  0  0  0  0  0  0  0
    6.2721    3.3416   24.3186 C   0  0  0  0  0  0  0  0  0  0  0  0
    5.9302    4.2496   24.8056 H   0  0  0  0  0  0  0  0  0  0  0  0
    6.0479    2.0921   24.9026 C   0  0  0  0  0  0  0  0  0  0  0  0
    5.5289    2.0235   25.8531 H   0  0  0  0  0  0  0  0  0  0  0  0
    6.4646    0.9320   24.2510 C   0  0  0  0  0  0  0  0  0  0  0  0
    6.2504   -0.0455   24.6808 H   0  0  0  0  0  0  0  0  0  0  0  0
    7.1090    1.0130   22.9990 C   0  0  0  0  0  0  0  0  0  0  0  0
    7.5196   -0.2004   22.2976 C   0  0  0  0  0  0  0  0  0  0  0  0
    7.3820   -0.6303   20.9770 C   0  0  0  0  0  0  0  0  0  0  0  0
    6.6462    0.0218   19.8993 C   0  0  0  0  0  0  0  0  0  0  0  0
    7.1513   -0.0060   18.5877 C   0  0  0  0  0  0  0  0  0  0  0  0
    8.0714   -0.5405   18.3624 H   0  0  0  0  0  0  0  0  0  0  0  0
    6.5731    0.6171   17.5567 N   0  0  0  0  0  0  0  0  0  0  0  0
    5.4291    1.2773   17.7961 C   0  0  0  0  0  0  0  0  0  0  0  0
    4.9846    1.7975   16.9487 H   0  0  0  0  0  0  0  0  0  0  0  0
    4.8084    1.3126   19.0497 C   0  0  0  0  0  0  0  0  0  0  0  0
    3.8705    1.8411   19.1720 H   0  0  0  0  0  0  0  0  0  0  0  0
    5.4254    0.6805   20.1251 C   0  0  0  0  0  0  0  0  0  0  0  0
    4.9833    0.7045   21.1251 H   0  0  0  0  0  0  0  0  0  0  0  0
    8.0015   -1.8399   20.7765 N   0  0  0  0  0  0  0  0  0  0  0  0
    8.4352   -2.1720   21.9625 C   0  0  0  0  0  0  0  0  0  0  0  0
    9.2748   -3.5235   22.6848 S   0  0  0  0  0  0  0  0  0  0  0  0
    9.3846   -2.6694   24.2101 C   0  0  0  0  0  0  0  0  0  0  0  0
    9.9453   -3.1067   25.0251 H   0  0  0  0  0  0  0  0  0  0  0  0
    8.7505   -1.4855   24.1715 C   0  0  0  0  0  0  0  0  0  0  0  0
    8.6499   -0.7423   24.9537 H   0  0  0  0  0  0  0  0  0  0  0  0
    8.1883   -1.2320   22.9254 N   0  0  0  0  0  0  0  0  0  0  0  0
    7.3152    2.2736   22.4090 C   0  0  0  0  0  0  0  0  0  0  0  0
    7.7598    2.3300   21.4159 H   0  0  0  0  0  0  0  0  0  0  0  0
  1  2  1  0
  2  3  1  0
  3  4  2  0
  3  5  1  0
  5  6  2  0
  6  7  1  0
  6  8  1  0
  8  9  1  0
  8 10  2  0
 10 11  1  0
 10 12  1  0
 12 13  1  0
 13 14  2  0
 14 15  1  0
 15 16  2  0
 16 17  1  0
 16 18  1  0
 18 19  2  0
 19 20  1  0
 19 21  1  0
 21 22  1  0
 21 23  2  0
 23 24  1  0
 14 25  1  0
 25 26  2  0
 26 27  1  0
 27 28  1  0
 28 29  1  0
 28 30  2  0
 30 31  1  0
 30 32  1  0
 12 33  2  0
 33 34  1  0
 33  5  1  0
 32 13  1  0
 23 15  1  0
 32 26  1  0
M  END
>  <cnnaffinity>  (1) 
-5.33114

>  <filename>  (1) 
O=C(O)c1cccc(-c2c(-c3cccnc3)nc3sccn23)c1

$$$$
