
     RDKit          3D

 41 43  0  0  0  0  0  0  0  0999 V2000
    4.9261    1.8405   16.9871 H   0  0  0  0  0  0  0  0  0  0  0  0
    5.3770    1.2917   17.8109 C   0  0  0  0  0  0  0  0  0  0  0  0
    6.5256    0.6511   17.5392 N   0  0  0  0  0  0  0  0  0  0  0  0
    7.1571    0.0386   18.5485 C   0  0  0  0  0  0  0  0  0  0  0  0
    8.1054   -0.4423   18.3163 H   0  0  0  0  0  0  0  0  0  0  0  0
    6.6631    0.0072   19.8670 C   0  0  0  0  0  0  0  0  0  0  0  0
    7.3730   -0.6613   20.9337 N   0  0  0  0  0  0  0  0  0  0  0  0
    6.7324   -1.7114   21.5544 C   0  0  0  0  0  0  0  0  0  0  0  0
    5.7330   -1.9584   21.2172 H   0  0  0  0  0  0  0  0  0  0  0  0
    7.3151   -2.4403   22.5515 C   0  0  0  0  0  0  0  0  0  0  0  0
    6.6434   -3.5415   23.1216 N   0  0  0  0  0  0  0  0  0  0  0  0
    6.7967   -3.7371   24.0958 H   0  0  0  0  0  0  0  0  0  0  0  0
    5.7003   -4.3240   22.4908 C   0  0  0  0  0  0  0  0  0  0  0  0
    5.5291   -4.3078   21.2842 O   0  0  0  0  0  0  0  0  0  0  0  0
    4.9106   -5.2388   23.4198 C   0  0  0  0  0  0  0  0  0  0  0  0
    5.0249   -4.8569   24.4467 H   0  0  0  0  0  0  0  0  0  0  0  0
    5.4963   -6.6574   23.3152 C   0  0  0  0  0  0  0  0  0  0  0  0
    6.5666   -6.6494   23.5418 H   0  0  0  0  0  0  0  0  0  0  0  0
    5.4065   -6.9697   22.2656 H   0  0  0  0  0  0  0  0  0  0  0  0
    4.7319   -7.6393   24.2013 C   0  0  0  0  0  0  0  0  0  0  0  0
    5.2203   -8.6140   24.1418 H   0  0  0  0  0  0  0  0  0  0  0  0
    4.8094   -7.3179   25.2504 H   0  0  0  0  0  0  0  0  0  0  0  0
    3.2425   -7.6846   23.8209 C   0  0  0  0  0  0  0  0  0  0  0  0
    2.6989   -8.3743   24.4757 H   0  0  0  0  0  0  0  0  0  0  0  0
    3.1176   -8.0748   22.8011 H   0  0  0  0  0  0  0  0  0  0  0  0
    2.6238   -6.2797   23.8892 C   0  0  0  0  0  0  0  0  0  0  0  0
    1.5822   -6.2997   23.5484 H   0  0  0  0  0  0  0  0  0  0  0  0
    2.5824   -5.9446   24.9365 H   0  0  0  0  0  0  0  0  0  0  0  0
    3.4138   -5.2682   23.0524 C   0  0  0  0  0  0  0  0  0  0  0  0
    3.3397   -5.5258   21.9871 H   0  0  0  0  0  0  0  0  0  0  0  0
    2.9629   -4.2837   23.1742 H   0  0  0  0  0  0  0  0  0  0  0  0
    8.6231   -2.0778   23.0077 C   0  0  0  0  0  0  0  0  0  0  0  0
    9.0880   -2.6581   23.8089 H   0  0  0  0  0  0  0  0  0  0  0  0
    9.2819   -1.0454   22.4103 C   0  0  0  0  0  0  0  0  0  0  0  0
   10.2807   -0.7313   22.6840 H   0  0  0  0  0  0  0  0  0  0  0  0
    8.7123   -0.2679   21.3109 C   0  0  0  0  0  0  0  0  0  0  0  0
    9.3024    0.6318   20.7358 O   0  0  0  0  0  0  0  0  0  0  0  0
    5.4360    0.6365   20.1221 C   0  0  0  0  0  0  0  0  0  0  0  0
    5.0285    0.6139   21.1328 H   0  0  0  0  0  0  0  0  0  0  0  0
    4.7853    1.3072   19.0791 C   0  0  0  0  0  0  0  0  0  0  0  0
    3.8602    1.8587   19.2376 H   0  0  0  0  0  0  0  0  0  0  0  0
  1  2  1  0
  2  3  2  0
  3  4  1  0
  4  5  1  0
  4  6  2  0
  6  7  1  0
  7  8  1  0
  8  9  1  0
  8 10  2  0
 10 11  1  0
 11 12  1  0
 11 13  1  0
 13 14  2  0
 13 15  1  0
 15 16  1  0
 15 17  1  0
 17 18  1  0
 17 19  1  0
 17 20  1  0
 20 21  1  0
 20 22  1  0
 20 23  1  0
 23 24  1  0
 23 25  1  0
 23 26  1  0
 26 27  1  0
 26 28  1  0
 26 29  1  0
 29 30  1  0
 29 31  1  0
 10 32  1  0
 32 33  1  0
 32 34  2  0
 34 35  1  0
 34 36  1  0
 36 37  2  0
  6 38  1  0
 38 39  1  0
 38 40  2  0
 40 41  1  0
 40  2  1  0
 36  7  1  0
 29 15  1  0
M  END
>  <cnnaffinity>  (1) 
-5.70672

>  <filename>  (1) 
O=C(Nc1ccc(=O)n(-c2cccnc2)c1)C1CCCCC1

$$$$
