
     RDKit          3D

 32 35  0  0  0  0  0  0  0  0999 V2000
    4.9429    1.8025   16.9770 H   0  0  0  0  0  0  0  0  0  0  0  0
    5.3999    1.2950   17.8249 C   0  0  0  0  0  0  0  0  0  0  0  0
    6.5585    0.6647   17.5738 N   0  0  0  0  0  0  0  0  0  0  0  0
    7.1535    0.0351   18.5919 C   0  0  0  0  0  0  0  0  0  0  0  0
    8.1049   -0.4421   18.3619 H   0  0  0  0  0  0  0  0  0  0  0  0
    6.6364    0.0081   19.8991 C   0  0  0  0  0  0  0  0  0  0  0  0
    7.3784   -0.6502   20.9680 C   0  0  0  0  0  0  0  0  0  0  0  0
    8.1421   -1.7731   20.7353 N   0  0  0  0  0  0  0  0  0  0  0  0
    8.6008   -2.0793   21.9158 C   0  0  0  0  0  0  0  0  0  0  0  0
    9.6925   -3.2618   22.5529 S   0  0  0  0  0  0  0  0  0  0  0  0
    9.6536   -2.5135   24.1244 C   0  0  0  0  0  0  0  0  0  0  0  0
   10.2777   -2.9485   24.8952 H   0  0  0  0  0  0  0  0  0  0  0  0
    8.8244   -1.4628   24.1647 C   0  0  0  0  0  0  0  0  0  0  0  0
    8.5670   -0.8226   25.0045 H   0  0  0  0  0  0  0  0  0  0  0  0
    8.2194   -1.2256   22.9242 N   0  0  0  0  0  0  0  0  0  0  0  0
    7.4288   -0.2794   22.3140 C   0  0  0  0  0  0  0  0  0  0  0  0
    6.9663    0.8218   23.0263 N   0  0  0  0  0  0  0  0  0  0  0  0
    6.8784    1.6953   22.5355 H   0  0  0  0  0  0  0  0  0  0  0  0
    6.4039    0.8142   24.2886 C   0  0  0  0  0  0  0  0  0  0  0  0
    6.0863   -0.1943   24.8881 O   0  0  0  0  0  0  0  0  0  0  0  0
    6.2336    2.1731   24.8612 C   0  0  0  0  0  0  0  0  0  0  0  0
    5.4639    2.2327   26.4040 S   0  0  0  0  0  0  0  0  0  0  0  0
    5.6789    3.9188   26.5070 C   0  0  0  0  0  0  0  0  0  0  0  0
    5.2999    4.4385   27.3765 H   0  0  0  0  0  0  0  0  0  0  0  0
    6.3288    4.4303   25.4219 C   0  0  0  0  0  0  0  0  0  0  0  0
    6.5551    5.4870   25.3129 H   0  0  0  0  0  0  0  0  0  0  0  0
    6.6578    3.4247   24.4698 C   0  0  0  0  0  0  0  0  0  0  0  0
    7.2205    3.6444   23.5641 H   0  0  0  0  0  0  0  0  0  0  0  0
    5.4124    0.6558   20.1410 C   0  0  0  0  0  0  0  0  0  0  0  0
    4.9725    0.6384   21.1411 H   0  0  0  0  0  0  0  0  0  0  0  0
    4.7915    1.3136   19.0848 C   0  0  0  0  0  0  0  0  0  0  0  0
    3.8615    1.8489   19.2277 H   0  0  0  0  0  0  0  0  0  0  0  0
  1  2  1  0
  2  3  2  0
  3  4  1  0
  4  5  1  0
  4  6  2  0
  6  7  1  0
  7  8  1  0
  8  9  2  0
  9 10  1  0
 10 11  1  0
 11 12  1  0
 11 13  2  0
 13 14  1  0
 13 15  1  0
 15 16  1  0
 16 17  1  0
 17 18  1  0
 17 19  1  0
 19 20  2  0
 19 21  1  0
 21 22  1  0
 22 23  1  0
 23 24  1  0
 23 25  2  0
 25 26  1  0
 25 27  1  0
 27 28  1  0
  6 29  1  0
 29 30  1  0
 29 31  2  0
 31 32  1  0
 31  2  1  0
 16  7  2  0
 27 21  2  0
 15  9  1  0
M  END
>  <cnnaffinity>  (1) 
-5.4247

>  <filename>  (1) 
O=C(Nc1c(-c2cccnc2)nc2sccn12)c1cccs1

$$$$
