
     RDKit          3D

 39 42  0  0  0  0  0  0  0  0999 V2000
    4.9907    1.8405   16.9115 H   0  0  0  0  0  0  0  0  0  0  0  0
    5.4215    1.2970   17.7503 C   0  0  0  0  0  0  0  0  0  0  0  0
    6.5702    0.6455   17.5082 N   0  0  0  0  0  0  0  0  0  0  0  0
    7.1425    0.0044   18.5345 C   0  0  0  0  0  0  0  0  0  0  0  0
    8.0776   -0.5064   18.3131 H   0  0  0  0  0  0  0  0  0  0  0  0
    6.6056   -0.0249   19.8400 C   0  0  0  0  0  0  0  0  0  0  0  0
    7.3320   -0.6532   20.9606 C   0  0  0  0  0  0  0  0  0  0  0  0
    8.4541   -1.3565   20.7548 N   0  0  0  0  0  0  0  0  0  0  0  0
    8.8591   -1.6497   22.0122 N   0  0  0  0  0  0  0  0  0  0  0  0
   10.0290   -2.1764   22.5578 C   0  0  0  0  0  0  0  0  0  0  0  0
   10.8026   -2.5668   21.9234 H   0  0  0  0  0  0  0  0  0  0  0  0
    9.9404   -1.9988   23.8933 C   0  0  0  0  0  0  0  0  0  0  0  0
   10.6450   -2.2350   24.6783 H   0  0  0  0  0  0  0  0  0  0  0  0
    8.7223   -1.3684   24.1976 N   0  0  0  0  0  0  0  0  0  0  0  0
    8.3847   -0.8406   25.4776 C   0  0  0  0  0  0  0  0  0  0  0  0
    9.2231   -0.5800   26.3168 O   0  0  0  0  0  0  0  0  0  0  0  0
    7.0436   -0.6999   25.6676 N   0  0  0  0  0  0  0  0  0  0  0  0
    6.4630   -0.9228   24.8724 H   0  0  0  0  0  0  0  0  0  0  0  0
    6.5199    0.2055   26.6730 C   0  0  0  0  0  0  0  0  0  0  0  0
    6.9419   -0.0661   27.6550 H   0  0  0  0  0  0  0  0  0  0  0  0
    4.9987    0.1563   26.7333 C   0  0  0  0  0  0  0  0  0  0  0  0
    4.5927    0.2007   25.7094 H   0  0  0  0  0  0  0  0  0  0  0  0
    4.6422   -0.7669   27.2038 H   0  0  0  0  0  0  0  0  0  0  0  0
    4.6113    1.4271   27.5046 C   0  0  0  0  0  0  0  0  0  0  0  0
    4.5915    1.2222   28.5819 H   0  0  0  0  0  0  0  0  0  0  0  0
    3.6169    1.7846   27.2243 H   0  0  0  0  0  0  0  0  0  0  0  0
    5.7188    2.4633   27.1781 C   0  0  0  0  0  0  0  0  0  0  0  0
    6.1083    2.9053   28.1008 H   0  0  0  0  0  0  0  0  0  0  0  0
    5.3328    3.2862   26.5671 H   0  0  0  0  0  0  0  0  0  0  0  0
    6.8227    1.6951   26.4195 C   0  0  0  0  0  0  0  0  0  0  0  0
    7.8353    1.9562   26.7452 H   0  0  0  0  0  0  0  0  0  0  0  0
    6.7591    1.9022   25.3410 H   0  0  0  0  0  0  0  0  0  0  0  0
    8.0658   -1.1563   22.9734 C   0  0  0  0  0  0  0  0  0  0  0  0
    7.0181   -0.5186   22.3393 C   0  0  0  0  0  0  0  0  0  0  0  0
    6.1851    0.0058   22.7633 H   0  0  0  0  0  0  0  0  0  0  0  0
    5.3819    0.6299   20.0592 C   0  0  0  0  0  0  0  0  0  0  0  0
    4.9074    0.6343   21.0448 H   0  0  0  0  0  0  0  0  0  0  0  0
    4.7882    1.3040   18.9977 C   0  0  0  0  0  0  0  0  0  0  0  0
    3.8690    1.8626   19.1348 H   0  0  0  0  0  0  0  0  0  0  0  0
  1  2  1  0
  2  3  2  0
  3  4  1  0
  4  5  1  0
  4  6  2  0
  6  7  1  0
  7  8  2  0
  8  9  1  0
  9 10  1  0
 10 11  1  0
 10 12  2  0
 12 13  1  0
 12 14  1  0
 14 15  1  0
 15 16  2  0
 15 17  1  0
 17 18  1  0
 17 19  1  0
 19 20  1  0
 19 21  1  0
 21 22  1  0
 21 23  1  0
 21 24  1  0
 24 25  1  0
 24 26  1  0
 24 27  1  0
 27 28  1  0
 27 29  1  0
 27 30  1  0
 30 31  1  0
 30 32  1  0
 14 33  1  0
 33 34  2  0
 34 35  1  0
  6 36  1  0
 36 37  1  0
 36 38  2  0
 38 39  1  0
 38  2  1  0
 34  7  1  0
 33  9  1  0
 30 19  1  0
M  END
>  <cnnaffinity>  (1) 
-5.41862

>  <filename>  (1) 
O=C(NC1CCCC1)n1ccn2nc(-c3cccnc3)cc12

$$$$
