
     RDKit          3D

 41 44  0  0  0  0  0  0  0  0999 V2000
    4.9496    1.8074   16.9788 H   0  0  0  0  0  0  0  0  0  0  0  0
    5.4019    1.2948   17.8256 C   0  0  0  0  0  0  0  0  0  0  0  0
    6.5587    0.6615   17.5721 N   0  0  0  0  0  0  0  0  0  0  0  0
    7.1545    0.0370   18.5919 C   0  0  0  0  0  0  0  0  0  0  0  0
    8.1069   -0.4396   18.3662 H   0  0  0  0  0  0  0  0  0  0  0  0
    6.6356    0.0001   19.8942 C   0  0  0  0  0  0  0  0  0  0  0  0
    7.3727   -0.6722   20.9587 C   0  0  0  0  0  0  0  0  0  0  0  0
    8.0371   -1.8630   20.7551 N   0  0  0  0  0  0  0  0  0  0  0  0
    8.4178   -2.2033   21.9519 C   0  0  0  0  0  0  0  0  0  0  0  0
    9.2638   -3.5509   22.6433 S   0  0  0  0  0  0  0  0  0  0  0  0
    9.2667   -2.7831   24.2139 C   0  0  0  0  0  0  0  0  0  0  0  0
    9.7809   -3.2899   25.0185 H   0  0  0  0  0  0  0  0  0  0  0  0
    8.6027   -1.6144   24.2117 C   0  0  0  0  0  0  0  0  0  0  0  0
    8.4357   -0.9516   25.0586 H   0  0  0  0  0  0  0  0  0  0  0  0
    8.0960   -1.3056   22.9459 N   0  0  0  0  0  0  0  0  0  0  0  0
    7.4465   -0.2774   22.2982 C   0  0  0  0  0  0  0  0  0  0  0  0
    7.1009    0.9031   22.9515 N   0  0  0  0  0  0  0  0  0  0  0  0
    6.6777    0.8589   23.8665 H   0  0  0  0  0  0  0  0  0  0  0  0
    7.2454    2.1483   22.3534 C   0  0  0  0  0  0  0  0  0  0  0  0
    7.9412    2.2889   21.3663 O   0  0  0  0  0  0  0  0  0  0  0  0
    6.4989    3.3089   23.0096 C   0  0  0  0  0  0  0  0  0  0  0  0
    5.8900    2.9207   23.8395 H   0  0  0  0  0  0  0  0  0  0  0  0
    7.5245    4.3282   23.5718 C   0  0  0  0  0  0  0  0  0  0  0  0
    8.1675    3.8600   24.3311 H   0  0  0  0  0  0  0  0  0  0  0  0
    8.1905    4.6146   22.7438 H   0  0  0  0  0  0  0  0  0  0  0  0
    6.8332    5.5739   24.1554 C   0  0  0  0  0  0  0  0  0  0  0  0
    6.2498    5.2812   25.0429 H   0  0  0  0  0  0  0  0  0  0  0  0
    7.5837    6.2910   24.5150 H   0  0  0  0  0  0  0  0  0  0  0  0
    5.8993    6.2416   23.1292 C   0  0  0  0  0  0  0  0  0  0  0  0
    5.3903    7.1069   23.5755 H   0  0  0  0  0  0  0  0  0  0  0  0
    6.5004    6.6448   22.2993 H   0  0  0  0  0  0  0  0  0  0  0  0
    4.8730    5.2396   22.5664 C   0  0  0  0  0  0  0  0  0  0  0  0
    4.2476    5.7258   21.8046 H   0  0  0  0  0  0  0  0  0  0  0  0
    4.1821    4.9359   23.3687 H   0  0  0  0  0  0  0  0  0  0  0  0
    5.5568    3.9900   21.9791 C   0  0  0  0  0  0  0  0  0  0  0  0
    4.8031    3.2838   21.5955 H   0  0  0  0  0  0  0  0  0  0  0  0
    6.1652    4.2676   21.1051 H   0  0  0  0  0  0  0  0  0  0  0  0
    5.4112    0.6492   20.1377 C   0  0  0  0  0  0  0  0  0  0  0  0
    4.9774    0.6368   21.1423 H   0  0  0  0  0  0  0  0  0  0  0  0
    4.7918    1.3116   19.0846 C   0  0  0  0  0  0  0  0  0  0  0  0
    3.8636    1.8558   19.2246 H   0  0  0  0  0  0  0  0  0  0  0  0
  1  2  1  0
  2  3  2  0
  3  4  1  0
  4  5  1  0
  4  6  2  0
  6  7  1  0
  7  8  1  0
  8  9  2  0
  9 10  1  0
 10 11  1  0
 11 12  1  0
 11 13  2  0
 13 14  1  0
 13 15  1  0
 15 16  1  0
 16 17  1  0
 17 18  1  0
 17 19  1  0
 19 20  2  0
 19 21  1  0
 21 22  1  0
 21 23  1  0
 23 24  1  0
 23 25  1  0
 23 26  1  0
 26 27  1  0
 26 28  1  0
 26 29  1  0
 29 30  1  0
 29 31  1  0
 29 32  1  0
 32 33  1  0
 32 34  1  0
 32 35  1  0
 35 36  1  0
 35 37  1  0
  6 38  1  0
 38 39  1  0
 38 40  2  0
 40 41  1  0
 40  2  1  0
 16  7  2  0
 35 21  1  0
 15  9  1  0
M  END
>  <cnnaffinity>  (1) 
-5.56356

>  <filename>  (1) 
O=C(Nc1c(-c2cccnc2)nc2sccn12)C1CCCCC1

$$$$
