
     RDKit          3D

 35 38  0  0  0  0  0  0  0  0999 V2000
    4.9707    1.7764   16.9867 H   0  0  0  0  0  0  0  0  0  0  0  0
    5.4139    1.2817   17.8470 C   0  0  0  0  0  0  0  0  0  0  0  0
    6.5709    0.6401   17.6161 N   0  0  0  0  0  0  0  0  0  0  0  0
    7.1550    0.0444   18.6587 C   0  0  0  0  0  0  0  0  0  0  0  0
    8.0866   -0.4824   18.4530 H   0  0  0  0  0  0  0  0  0  0  0  0
    6.6317    0.0726   19.9670 C   0  0  0  0  0  0  0  0  0  0  0  0
    7.3951   -0.5936   21.0292 C   0  0  0  0  0  0  0  0  0  0  0  0
    8.2850   -1.5353   20.8120 N   0  0  0  0  0  0  0  0  0  0  0  0
    8.7769   -1.9851   22.0121 N   0  0  0  0  0  0  0  0  0  0  0  0
    8.1766   -1.2819   22.9270 C   0  0  0  0  0  0  0  0  0  0  0  0
    8.2225   -1.1722   24.6513 S   0  0  0  0  0  0  0  0  0  0  0  0
    7.0657    0.1524   24.4752 C   0  0  0  0  0  0  0  0  0  0  0  0
    6.5666    0.8780   25.5302 N   0  0  0  0  0  0  0  0  0  0  0  0
    6.0262    1.6774   25.2581 H   0  0  0  0  0  0  0  0  0  0  0  0
    6.9383    0.6586   26.8335 C   0  0  0  0  0  0  0  0  0  0  0  0
    7.6496   -0.2770   27.1358 O   0  0  0  0  0  0  0  0  0  0  0  0
    6.4341    1.5893   27.6956 N   0  0  0  0  0  0  0  0  0  0  0  0
    5.7347    2.2172   27.3494 H   0  0  0  0  0  0  0  0  0  0  0  0
    6.7925    1.6550   29.0604 C   0  0  0  0  0  0  0  0  0  0  0  0
    5.8839    2.1352   30.0076 C   0  0  0  0  0  0  0  0  0  0  0  0
    4.8832    2.4257   29.6990 H   0  0  0  0  0  0  0  0  0  0  0  0
    6.2665    2.2008   31.3539 C   0  0  0  0  0  0  0  0  0  0  0  0
    5.5517    2.5292   32.0992 H   0  0  0  0  0  0  0  0  0  0  0  0
    7.5573    1.8426   31.7559 C   0  0  0  0  0  0  0  0  0  0  0  0
    7.8641    1.9160   32.7956 H   0  0  0  0  0  0  0  0  0  0  0  0
    8.4582    1.3696   30.7997 C   0  0  0  0  0  0  0  0  0  0  0  0
    9.4705    1.0825   31.0704 H   0  0  0  0  0  0  0  0  0  0  0  0
    8.0656    1.2319   29.4728 C   0  0  0  0  0  0  0  0  0  0  0  0
    8.7083    0.7467   28.7578 H   0  0  0  0  0  0  0  0  0  0  0  0
    6.6668    0.4669   23.2817 N   0  0  0  0  0  0  0  0  0  0  0  0
    7.2980   -0.3871   22.3940 N   0  0  0  0  0  0  0  0  0  0  0  0
    5.4026    0.7105   20.1896 C   0  0  0  0  0  0  0  0  0  0  0  0
    4.9460    0.7238   21.1832 H   0  0  0  0  0  0  0  0  0  0  0  0
    4.7922    1.3263   19.0989 C   0  0  0  0  0  0  0  0  0  0  0  0
    3.8482    1.8481   19.2003 H   0  0  0  0  0  0  0  0  0  0  0  0
  1  2  1  0
  2  3  2  0
  3  4  1  0
  4  5  1  0
  4  6  2  0
  6  7  1  0
  7  8  2  0
  8  9  1  0
  9 10  2  0
 10 11  1  0
 11 12  1  0
 12 13  1  0
 13 14  1  0
 13 15  1  0
 15 16  2  0
 15 17  1  0
 17 18  1  0
 17 19  1  0
 19 20  2  0
 20 21  1  0
 20 22  1  0
 22 23  1  0
 22 24  2  0
 24 25  1  0
 24 26  1  0
 26 27  1  0
 26 28  2  0
 28 29  1  0
 12 30  2  0
 30 31  1  0
  6 32  1  0
 32 33  1  0
 32 34  2  0
 34 35  1  0
 34  2  1  0
 31  7  1  0
 31 10  1  0
 28 19  1  0
M  END
>  <cnnaffinity>  (1) 
-5.23121

>  <filename>  (1) 
O=C(Nc1ccccc1)Nc1nn2c(-c3cccnc3)nnc2s1

$$$$
