
     RDKit          3D

 33 35  0  0  0  0  0  0  0  0999 V2000
    4.9696    1.8011   16.9710 H   0  0  0  0  0  0  0  0  0  0  0  0
    5.4230    1.2998   17.8241 C   0  0  0  0  0  0  0  0  0  0  0  0
    6.5863    0.6739   17.5909 N   0  0  0  0  0  0  0  0  0  0  0  0
    7.1702    0.0562   18.6214 C   0  0  0  0  0  0  0  0  0  0  0  0
    8.1075   -0.4592   18.4149 H   0  0  0  0  0  0  0  0  0  0  0  0
    6.6451    0.0401   19.9183 C   0  0  0  0  0  0  0  0  0  0  0  0
    7.4086   -0.6919   20.9384 C   0  0  0  0  0  0  0  0  0  0  0  0
    7.9123   -1.8868   20.7694 N   0  0  0  0  0  0  0  0  0  0  0  0
    8.4817   -2.2795   21.9565 N   0  0  0  0  0  0  0  0  0  0  0  0
    8.3243   -1.2921   22.7928 C   0  0  0  0  0  0  0  0  0  0  0  0
    8.6749   -1.2812   23.8152 H   0  0  0  0  0  0  0  0  0  0  0  0
    7.6440   -0.2552   22.2176 N   0  0  0  0  0  0  0  0  0  0  0  0
    7.4972    1.0789   22.7808 C   0  0  0  0  0  0  0  0  0  0  0  0
    6.9322    1.6910   22.0756 H   0  0  0  0  0  0  0  0  0  0  0  0
    6.9486    1.0150   23.7277 H   0  0  0  0  0  0  0  0  0  0  0  0
    8.7654    1.7335   23.0077 N   0  0  0  0  0  0  0  0  0  0  0  0
    9.1954    1.6663   23.9106 H   0  0  0  0  0  0  0  0  0  0  0  0
    9.6066    1.9903   21.9583 C   0  0  0  0  0  0  0  0  0  0  0  0
    9.3287    1.6298   20.8273 O   0  0  0  0  0  0  0  0  0  0  0  0
   10.8657    2.8110   22.2982 C   0  0  0  0  0  0  0  0  0  0  0  0
   11.0808    3.4856   23.5245 C   0  0  0  0  0  0  0  0  0  0  0  0
   10.3789    3.4508   24.3532 H   0  0  0  0  0  0  0  0  0  0  0  0
   12.2548    4.2288   23.7059 C   0  0  0  0  0  0  0  0  0  0  0  0
   12.4658    4.6892   24.6692 H   0  0  0  0  0  0  0  0  0  0  0  0
   13.1738    4.4160   22.7543 N   0  0  0  0  0  0  0  0  0  0  0  0
   12.9659    3.8054   21.5818 C   0  0  0  0  0  0  0  0  0  0  0  0
   13.7319    4.0037   20.8388 H   0  0  0  0  0  0  0  0  0  0  0  0
   11.8634    2.9780   21.3125 C   0  0  0  0  0  0  0  0  0  0  0  0
   11.7568    2.4926   20.3455 H   0  0  0  0  0  0  0  0  0  0  0  0
    5.4138    0.6721   20.1455 C   0  0  0  0  0  0  0  0  0  0  0  0
    4.9431    0.6506   21.1302 H   0  0  0  0  0  0  0  0  0  0  0  0
    4.7950    1.3158   19.0739 C   0  0  0  0  0  0  0  0  0  0  0  0
    3.8566    1.8432   19.1979 H   0  0  0  0  0  0  0  0  0  0  0  0
  1  2  1  0
  2  3  2  0
  3  4  1  0
  4  5  1  0
  4  6  2  0
  6  7  1  0
  7  8  2  0
  8  9  1  0
  9 10  2  0
 10 11  1  0
 10 12  1  0
 12 13  1  0
 13 14  1  0
 13 15  1  0
 13 16  1  0
 16 17  1  0
 16 18  1  0
 18 19  2  0
 18 20  1  0
 20 21  2  0
 21 22  1  0
 21 23  1  0
 23 24  1  0
 23 25  2  0
 25 26  1  0
 26 27  1  0
 26 28  2  0
 28 29  1  0
  6 30  1  0
 30 31  1  0
 30 32  2  0
 32 33  1  0
 32  2  1  0
 12  7  1  0
 28 20  1  0
M  END
>  <cnnaffinity>  (1) 
-5.29335

>  <filename>  (1) 
O=C(NCn1cnnc1-c1cccnc1)c1ccncc1

$$$$
