
     RDKit          3D

 39 41  0  0  0  0  0  0  0  0999 V2000
    4.9452    1.7704   17.0271 H   0  0  0  0  0  0  0  0  0  0  0  0
    5.4233    1.2696   17.8664 C   0  0  0  0  0  0  0  0  0  0  0  0
    6.5868    0.6539   17.6061 N   0  0  0  0  0  0  0  0  0  0  0  0
    7.2007    0.0330   18.6223 C   0  0  0  0  0  0  0  0  0  0  0  0
    8.1483   -0.4399   18.3700 H   0  0  0  0  0  0  0  0  0  0  0  0
    6.7043   -0.0364   19.9639 C   0  0  0  0  0  0  0  0  0  0  0  0
    7.3690   -0.7002   20.9707 N   0  0  0  0  0  0  0  0  0  0  0  0
    7.0533   -0.8906   22.3727 C   0  0  0  0  0  0  0  0  0  0  0  0
    6.1339   -1.4563   22.5628 H   0  0  0  0  0  0  0  0  0  0  0  0
    7.0077    0.0398   22.9524 H   0  0  0  0  0  0  0  0  0  0  0  0
    8.3825   -1.6994   22.5165 C   0  0  0  0  0  0  0  0  0  0  0  0
    9.1166   -1.2450   23.1892 H   0  0  0  0  0  0  0  0  0  0  0  0
    8.1804   -3.1600   22.8551 C   0  0  0  0  0  0  0  0  0  0  0  0
    7.4813   -3.8638   22.1552 O   0  0  0  0  0  0  0  0  0  0  0  0
    8.8401   -3.7399   24.0961 C   0  0  0  0  0  0  0  0  0  0  0  0
    9.3112   -4.6864   23.8126 H   0  0  0  0  0  0  0  0  0  0  0  0
    9.6269   -3.0832   24.4860 H   0  0  0  0  0  0  0  0  0  0  0  0
    7.7915   -4.0179   25.1820 C   0  0  0  0  0  0  0  0  0  0  0  0
    7.0952   -4.7957   24.8568 H   0  0  0  0  0  0  0  0  0  0  0  0
    8.2657   -4.3727   26.1111 H   0  0  0  0  0  0  0  0  0  0  0  0
    6.9519   -2.9000   25.4354 O   0  0  0  0  0  0  0  0  0  0  0  0
    7.4246   -1.7692   26.0336 C   0  0  0  0  0  0  0  0  0  0  0  0
    6.5637   -0.6603   25.9704 C   0  0  0  0  0  0  0  0  0  0  0  0
    5.6123   -0.7850   25.4615 H   0  0  0  0  0  0  0  0  0  0  0  0
    6.9314    0.5512   26.5500 C   0  0  0  0  0  0  0  0  0  0  0  0
    6.2640    1.4077   26.4896 H   0  0  0  0  0  0  0  0  0  0  0  0
    8.1576    0.6658   27.2130 C   0  0  0  0  0  0  0  0  0  0  0  0
    8.4364    1.6140   27.6613 H   0  0  0  0  0  0  0  0  0  0  0  0
    9.0046   -0.4388   27.2947 C   0  0  0  0  0  0  0  0  0  0  0  0
    9.9571   -0.3580   27.8154 H   0  0  0  0  0  0  0  0  0  0  0  0
    8.6475   -1.6608   26.7110 C   0  0  0  0  0  0  0  0  0  0  0  0
    9.3036   -2.5195   26.7881 H   0  0  0  0  0  0  0  0  0  0  0  0
    8.6302   -1.4150   21.0038 C   0  0  0  0  0  0  0  0  0  0  0  0
    9.5115   -0.8059   20.7602 H   0  0  0  0  0  0  0  0  0  0  0  0
    8.6659   -2.3054   20.3747 H   0  0  0  0  0  0  0  0  0  0  0  0
    5.4727    0.6217   20.1975 C   0  0  0  0  0  0  0  0  0  0  0  0
    5.0288    0.6182   21.1924 H   0  0  0  0  0  0  0  0  0  0  0  0
    4.8400    1.2796   19.1373 C   0  0  0  0  0  0  0  0  0  0  0  0
    3.9068    1.8115   19.2843 H   0  0  0  0  0  0  0  0  0  0  0  0
  1  2  1  0
  2  3  2  0
  3  4  1  0
  4  5  1  0
  4  6  2  0
  6  7  1  0
  7  8  1  0
  8  9  1  0
  8 10  1  0
  8 11  1  0
 11 12  1  0
 11 13  1  0
 13 14  2  0
 13 15  1  0
 15 16  1  0
 15 17  1  0
 15 18  1  0
 18 19  1  0
 18 20  1  0
 18 21  1  0
 21 22  1  0
 22 23  2  0
 23 24  1  0
 23 25  1  0
 25 26  1  0
 25 27  2  0
 27 28  1  0
 27 29  1  0
 29 30  1  0
 29 31  2  0
 31 32  1  0
 11 33  1  0
 33 34  1  0
 33 35  1  0
  6 36  1  0
 36 37  1  0
 36 38  2  0
 38 39  1  0
 38  2  1  0
 33  7  1  0
 31 22  1  0
M  END
>  <cnnaffinity>  (1) 
-5.04985

>  <filename>  (1) 
O=C(CCOc1ccccc1)C1CN(c2cccnc2)C1

$$$$
