
     RDKit          3D

 34 36  0  0  0  0  0  0  0  0999 V2000
    5.0233    2.0880   16.6222 H   0  0  0  0  0  0  0  0  0  0  0  0
    5.4887    1.5648   17.4558 C   0  0  0  0  0  0  0  0  0  0  0  0
    6.6630    0.9670   17.2002 N   0  0  0  0  0  0  0  0  0  0  0  0
    7.2602    0.3067   18.1985 C   0  0  0  0  0  0  0  0  0  0  0  0
    8.2265   -0.1441   17.9832 H   0  0  0  0  0  0  0  0  0  0  0  0
    6.6978    0.1686   19.4826 C   0  0  0  0  0  0  0  0  0  0  0  0
    7.3254   -0.6454   20.5078 N   0  0  0  0  0  0  0  0  0  0  0  0
    8.6397   -0.3433   20.9882 C   0  0  0  0  0  0  0  0  0  0  0  0
    9.3235    0.4547   20.3730 O   0  0  0  0  0  0  0  0  0  0  0  0
    9.0631   -1.0208   22.1763 C   0  0  0  0  0  0  0  0  0  0  0  0
   10.0171   -0.7468   22.5835 H   0  0  0  0  0  0  0  0  0  0  0  0
    8.3296   -2.0370   22.6608 C   0  0  0  0  0  0  0  0  0  0  0  0
    8.6611   -2.7395   23.7838 N   0  0  0  0  0  0  0  0  0  0  0  0
    9.4138   -2.3477   24.3157 H   0  0  0  0  0  0  0  0  0  0  0  0
    7.9655   -3.7583   24.3857 C   0  0  0  0  0  0  0  0  0  0  0  0
    6.9186   -4.2179   23.9557 O   0  0  0  0  0  0  0  0  0  0  0  0
    8.5812   -4.2504   25.6887 C   0  0  0  0  0  0  0  0  0  0  0  0
    9.9639   -4.4442   25.8821 C   0  0  0  0  0  0  0  0  0  0  0  0
   10.7152   -4.2023   25.1358 H   0  0  0  0  0  0  0  0  0  0  0  0
   10.4133   -4.9587   27.1001 C   0  0  0  0  0  0  0  0  0  0  0  0
   11.4747   -5.0711   27.2773 H   0  0  0  0  0  0  0  0  0  0  0  0
    9.6111   -5.2677   28.1209 N   0  0  0  0  0  0  0  0  0  0  0  0
    8.2989   -5.0850   27.9451 C   0  0  0  0  0  0  0  0  0  0  0  0
    7.6645   -5.3375   28.7915 H   0  0  0  0  0  0  0  0  0  0  0  0
    7.7374   -4.5954   26.7632 C   0  0  0  0  0  0  0  0  0  0  0  0
    6.6589   -4.5031   26.6775 H   0  0  0  0  0  0  0  0  0  0  0  0
    7.2044   -2.4153   22.0406 N   0  0  0  0  0  0  0  0  0  0  0  0
    6.6236   -3.1207   22.4681 H   0  0  0  0  0  0  0  0  0  0  0  0
    6.6200   -1.7249   21.0262 C   0  0  0  0  0  0  0  0  0  0  0  0
    5.5475   -2.1001   20.6228 O   0  0  0  0  0  0  0  0  0  0  0  0
    5.4871    0.8137   19.7439 C   0  0  0  0  0  0  0  0  0  0  0  0
    5.0464    0.7472   20.7360 H   0  0  0  0  0  0  0  0  0  0  0  0
    4.8759    1.5311   18.7097 C   0  0  0  0  0  0  0  0  0  0  0  0
    3.9413    2.0545   18.8633 H   0  0  0  0  0  0  0  0  0  0  0  0
  1  2  1  0
  2  3  2  0
  3  4  1  0
  4  5  1  0
  4  6  2  0
  6  7  1  0
  7  8  1  0
  8  9  2  0
  8 10  1  0
 10 11  1  0
 10 12  2  0
 12 13  1  0
 13 14  1  0
 13 15  1  0
 15 16  2  0
 15 17  1  0
 17 18  2  0
 18 19  1  0
 18 20  1  0
 20 21  1  0
 20 22  2  0
 22 23  1  0
 23 24  1  0
 23 25  2  0
 25 26  1  0
 12 27  1  0
 27 28  1  0
 27 29  1  0
 29 30  2  0
  6 31  1  0
 31 32  1  0
 31 33  2  0
 33 34  1  0
 33  2  1  0
 29  7  1  0
 25 17  1  0
M  END
>  <cnnaffinity>  (1) 
-5.29196

>  <filename>  (1) 
O=C(Nc1cc(=O)n(-c2cccnc2)c(=O)[nH]1)c1ccncc1

$$$$
