
     RDKit          3D

 28 29  0  0  0  0  0  0  0  0999 V2000
    6.9699    0.1186   21.7904 O   0  0  0  0  0  0  0  0  0  0  0  0
    7.1124   -0.1616   20.6123 C   0  0  0  0  0  0  0  0  0  0  0  0
    8.0895   -1.0061   20.2204 N   0  0  0  0  0  0  0  0  0  0  0  0
    8.6855   -1.8371   21.5252 S   0  0  0  0  0  0  0  0  0  0  0  0
    9.5094   -2.8869   20.9336 O   0  0  0  0  0  0  0  0  0  0  0  0
    7.5338   -2.3553   22.2737 O   0  0  0  0  0  0  0  0  0  0  0  0
    9.6561   -0.5605   22.3847 C   0  0  0  0  0  0  0  0  0  0  0  0
    9.0891    0.2076   23.4246 C   0  0  0  0  0  0  0  0  0  0  0  0
    9.8264    1.2383   24.0185 C   0  0  0  0  0  0  0  0  0  0  0  0
    8.8670    2.5484   25.5690 I   0  0  0  0  0  0  0  0  0  0  0  0
   11.1456    1.4723   23.6104 C   0  0  0  0  0  0  0  0  0  0  0  0
   11.7206    0.6973   22.5989 C   0  0  0  0  0  0  0  0  0  0  0  0
   10.9838   -0.3119   21.9779 C   0  0  0  0  0  0  0  0  0  0  0  0
   11.4632   -0.8821   21.1788 H   0  0  0  0  0  0  0  0  0  0  0  0
   12.7384    0.9028   22.2771 H   0  0  0  0  0  0  0  0  0  0  0  0
   11.7211    2.2729   24.0655 H   0  0  0  0  0  0  0  0  0  0  0  0
    8.0633    0.0531   23.7672 H   0  0  0  0  0  0  0  0  0  0  0  0
    7.8869   -1.5735   19.4149 H   0  0  0  0  0  0  0  0  0  0  0  0
    6.3189    0.4433   19.5935 C   0  0  0  0  0  0  0  0  0  0  0  0
    5.1659    1.1714   19.8883 C   0  0  0  0  0  0  0  0  0  0  0  0
    4.5632    1.8577   18.8450 C   0  0  0  0  0  0  0  0  0  0  0  0
    5.1134    1.7962   17.5647 C   0  0  0  0  0  0  0  0  0  0  0  0
    6.1732    1.0183   17.2773 N   0  0  0  0  0  0  0  0  0  0  0  0
    6.7616    0.3543   18.2775 C   0  0  0  0  0  0  0  0  0  0  0  0
    7.6379   -0.2450   18.0417 H   0  0  0  0  0  0  0  0  0  0  0  0
    4.6880    2.4230   16.7880 H   0  0  0  0  0  0  0  0  0  0  0  0
    3.6996    2.4861   19.0240 H   0  0  0  0  0  0  0  0  0  0  0  0
    4.7774    1.2367   20.9047 H   0  0  0  0  0  0  0  0  0  0  0  0
  1  2  2  0
  2  3  1  0
  3  4  1  0
  4  5  2  0
  4  6  2  0
  4  7  1  0
  7  8  2  0
  8  9  1  0
  9 10  1  0
  9 11  2  0
 11 12  1  0
 12 13  2  0
 13 14  1  0
 12 15  1  0
 11 16  1  0
  8 17  1  0
  3 18  1  0
  2 19  1  0
 19 20  2  0
 20 21  1  0
 21 22  2  0
 22 23  1  0
 23 24  2  0
 24 25  1  0
 22 26  1  0
 21 27  1  0
 20 28  1  0
 13  7  1  0
 24 19  1  0
M  END
>  <cnnaffinity>  (1) 
-5.11209

>  <filename>  (1) 
O=C(NS(=O)(=O)c1cccc(I)c1)c1cccnc1

$$$$
