
     RDKit          3D

 32 34  0  0  0  0  0  0  0  0999 V2000
    5.0011    1.8878   16.9504 H   0  0  0  0  0  0  0  0  0  0  0  0
    5.4602    1.3477   17.7753 C   0  0  0  0  0  0  0  0  0  0  0  0
    6.6262    0.7354   17.5104 N   0  0  0  0  0  0  0  0  0  0  0  0
    7.2158    0.0712   18.5137 C   0  0  0  0  0  0  0  0  0  0  0  0
    8.1633   -0.4164   18.2881 H   0  0  0  0  0  0  0  0  0  0  0  0
    6.6690   -0.0384   19.8088 C   0  0  0  0  0  0  0  0  0  0  0  0
    7.3557   -0.7464   20.8642 N   0  0  0  0  0  0  0  0  0  0  0  0
    8.5954   -0.2646   21.2696 C   0  0  0  0  0  0  0  0  0  0  0  0
    8.9606    0.5956   20.7148 H   0  0  0  0  0  0  0  0  0  0  0  0
    9.2876   -0.7950   22.3168 C   0  0  0  0  0  0  0  0  0  0  0  0
   10.5699   -0.2755   22.6324 N   0  0  0  0  0  0  0  0  0  0  0  0
   11.1288   -0.0002   21.8420 H   0  0  0  0  0  0  0  0  0  0  0  0
   11.2054   -0.1955   23.8474 C   0  0  0  0  0  0  0  0  0  0  0  0
   10.6734   -0.4886   24.8984 O   0  0  0  0  0  0  0  0  0  0  0  0
   12.6584    0.2303   23.8340 C   0  0  0  0  0  0  0  0  0  0  0  0
   13.0251    0.2088   24.8551 H   0  0  0  0  0  0  0  0  0  0  0  0
   13.6499   -0.2285   22.7908 C   0  0  0  0  0  0  0  0  0  0  0  0
   14.5844   -0.6545   23.1469 H   0  0  0  0  0  0  0  0  0  0  0  0
   13.2520   -0.7112   21.8997 H   0  0  0  0  0  0  0  0  0  0  0  0
   13.3749    1.2313   22.9455 C   0  0  0  0  0  0  0  0  0  0  0  0
   12.8499    1.7488   22.1434 H   0  0  0  0  0  0  0  0  0  0  0  0
   14.1275    1.8515   23.4285 H   0  0  0  0  0  0  0  0  0  0  0  0
    8.7144   -1.9027   23.0234 C   0  0  0  0  0  0  0  0  0  0  0  0
    9.2764   -2.3205   23.8575 H   0  0  0  0  0  0  0  0  0  0  0  0
    7.5045   -2.4027   22.6377 C   0  0  0  0  0  0  0  0  0  0  0  0
    7.0327   -3.2466   23.1251 H   0  0  0  0  0  0  0  0  0  0  0  0
    6.7153   -1.8534   21.5404 C   0  0  0  0  0  0  0  0  0  0  0  0
    5.6305   -2.2986   21.2048 O   0  0  0  0  0  0  0  0  0  0  0  0
    5.4586    0.6143   20.0718 C   0  0  0  0  0  0  0  0  0  0  0  0
    5.0330    0.5718   21.0743 H   0  0  0  0  0  0  0  0  0  0  0  0
    4.8446    1.3184   19.0318 C   0  0  0  0  0  0  0  0  0  0  0  0
    3.9148    1.8543   19.1899 H   0  0  0  0  0  0  0  0  0  0  0  0
  1  2  1  0
  2  3  2  0
  3  4  1  0
  4  5  1  0
  4  6  2  0
  6  7  1  0
  7  8  1  0
  8  9  1  0
  8 10  2  0
 10 11  1  0
 11 12  1  0
 11 13  1  0
 13 14  2  0
 13 15  1  0
 15 16  1  0
 15 17  1  0
 17 18  1  0
 17 19  1  0
 17 20  1  0
 20 21  1  0
 20 22  1  0
 10 23  1  0
 23 24  1  0
 23 25  2  0
 25 26  1  0
 25 27  1  0
 27 28  2  0
  6 29  1  0
 29 30  1  0
 29 31  2  0
 31 32  1  0
 31  2  1  0
 27  7  1  0
 20 15  1  0
M  END
>  <cnnaffinity>  (1) 
-5.06682

>  <filename>  (1) 
O=C(Nc1ccc(=O)n(-c2cccnc2)c1)C1CC1

$$$$
