
     RDKit          3D

 35 37  0  0  0  0  0  0  0  0999 V2000
    4.9134    1.8038   16.9703 H   0  0  0  0  0  0  0  0  0  0  0  0
    5.3850    1.3102   17.8190 C   0  0  0  0  0  0  0  0  0  0  0  0
    6.5471    0.6920   17.5599 N   0  0  0  0  0  0  0  0  0  0  0  0
    7.1579    0.0769   18.5814 C   0  0  0  0  0  0  0  0  0  0  0  0
    8.1039   -0.4156   18.3570 H   0  0  0  0  0  0  0  0  0  0  0  0
    6.6585    0.0395   19.8936 C   0  0  0  0  0  0  0  0  0  0  0  0
    7.3811   -0.7234   20.9239 C   0  0  0  0  0  0  0  0  0  0  0  0
    7.4892   -2.0853   21.0444 C   0  0  0  0  0  0  0  0  0  0  0  0
    7.0125   -2.7652   20.3525 H   0  0  0  0  0  0  0  0  0  0  0  0
    8.2758   -2.3608   22.1995 C   0  0  0  0  0  0  0  0  0  0  0  0
    8.5380   -3.3418   22.5812 H   0  0  0  0  0  0  0  0  0  0  0  0
    8.6198   -1.1444   22.7394 C   0  0  0  0  0  0  0  0  0  0  0  0
    9.1558   -0.8838   23.6450 H   0  0  0  0  0  0  0  0  0  0  0  0
    8.0744   -0.1409   21.9634 N   0  0  0  0  0  0  0  0  0  0  0  0
    8.2188    1.2952   22.1931 C   0  0  0  0  0  0  0  0  0  0  0  0
    8.9830    1.4009   22.9709 H   0  0  0  0  0  0  0  0  0  0  0  0
    8.5601    1.7632   21.2644 H   0  0  0  0  0  0  0  0  0  0  0  0
    7.0205    1.9910   22.6491 N   0  0  0  0  0  0  0  0  0  0  0  0
    6.4900    2.5628   22.0099 H   0  0  0  0  0  0  0  0  0  0  0  0
    6.4105    1.6038   23.8090 C   0  0  0  0  0  0  0  0  0  0  0  0
    6.9175    0.7688   24.5427 O   0  0  0  0  0  0  0  0  0  0  0  0
    5.0663    2.2771   24.1357 C   0  0  0  0  0  0  0  0  0  0  0  0
    4.6863    3.5615   23.6860 C   0  0  0  0  0  0  0  0  0  0  0  0
    5.3256    4.1790   23.0633 H   0  0  0  0  0  0  0  0  0  0  0  0
    3.4646    4.1099   24.0881 C   0  0  0  0  0  0  0  0  0  0  0  0
    3.1633    5.0988   23.7427 H   0  0  0  0  0  0  0  0  0  0  0  0
    2.6008    3.4845   24.8972 N   0  0  0  0  0  0  0  0  0  0  0  0
    2.9523    2.2724   25.3409 C   0  0  0  0  0  0  0  0  0  0  0  0
    2.2409    1.7890   26.0101 H   0  0  0  0  0  0  0  0  0  0  0  0
    4.1494    1.6377   24.9968 C   0  0  0  0  0  0  0  0  0  0  0  0
    4.3743    0.6689   25.4252 H   0  0  0  0  0  0  0  0  0  0  0  0
    5.4303    0.6727   20.1376 C   0  0  0  0  0  0  0  0  0  0  0  0
    4.9994    0.6253   21.1377 H   0  0  0  0  0  0  0  0  0  0  0  0
    4.7909    1.3300   19.0860 C   0  0  0  0  0  0  0  0  0  0  0  0
    3.8554    1.8530   19.2337 H   0  0  0  0  0  0  0  0  0  0  0  0
  1  2  1  0
  2  3  2  0
  3  4  1  0
  4  5  1  0
  4  6  2  0
  6  7  1  0
  7  8  2  0
  8  9  1  0
  8 10  1  0
 10 11  1  0
 10 12  2  0
 12 13  1  0
 12 14  1  0
 14 15  1  0
 15 16  1  0
 15 17  1  0
 15 18  1  0
 18 19  1  0
 18 20  1  0
 20 21  2  0
 20 22  1  0
 22 23  2  0
 23 24  1  0
 23 25  1  0
 25 26  1  0
 25 27  2  0
 27 28  1  0
 28 29  1  0
 28 30  2  0
 30 31  1  0
  6 32  1  0
 32 33  1  0
 32 34  2  0
 34 35  1  0
 34  2  1  0
 14  7  1  0
 30 22  1  0
M  END
>  <cnnaffinity>  (1) 
-4.83869

>  <filename>  (1) 
O=C(NCn1cccc1-c1cccnc1)c1ccncc1

$$$$
