
     RDKit          3D

 38 41  0  0  0  0  0  0  0  0999 V2000
    4.9749    1.8099   16.9444 H   0  0  0  0  0  0  0  0  0  0  0  0
    5.4209    1.3143   17.8056 C   0  0  0  0  0  0  0  0  0  0  0  0
    6.5760    0.6662   17.5853 N   0  0  0  0  0  0  0  0  0  0  0  0
    7.1567    0.0674   18.6269 C   0  0  0  0  0  0  0  0  0  0  0  0
    8.0697   -0.4848   18.4163 H   0  0  0  0  0  0  0  0  0  0  0  0
    6.6536    0.1189   19.9364 C   0  0  0  0  0  0  0  0  0  0  0  0
    7.4165   -0.5203   21.0036 C   0  0  0  0  0  0  0  0  0  0  0  0
    7.9550   -1.7605   20.7841 N   0  0  0  0  0  0  0  0  0  0  0  0
    8.4050   -2.1241   21.9540 C   0  0  0  0  0  0  0  0  0  0  0  0
    9.1112   -3.5484   22.6842 S   0  0  0  0  0  0  0  0  0  0  0  0
    9.2438   -2.7129   24.2264 C   0  0  0  0  0  0  0  0  0  0  0  0
    9.7393   -3.2071   25.0549 H   0  0  0  0  0  0  0  0  0  0  0  0
    8.7155   -1.4790   24.1809 C   0  0  0  0  0  0  0  0  0  0  0  0
    8.5876   -0.7394   24.9638 H   0  0  0  0  0  0  0  0  0  0  0  0
    8.2515   -1.1714   22.9117 N   0  0  0  0  0  0  0  0  0  0  0  0
    7.6283   -0.1003   22.3127 C   0  0  0  0  0  0  0  0  0  0  0  0
    7.2537    1.1042   23.0614 C   0  0  0  0  0  0  0  0  0  0  0  0
    7.0023    1.1184   24.2621 O   0  0  0  0  0  0  0  0  0  0  0  0
    7.2469    2.2232   22.2960 N   0  0  0  0  0  0  0  0  0  0  0  0
    7.3209    2.0794   21.3011 H   0  0  0  0  0  0  0  0  0  0  0  0
    6.7330    3.4904   22.7762 C   0  0  0  0  0  0  0  0  0  0  0  0
    7.2467    3.7548   23.7157 H   0  0  0  0  0  0  0  0  0  0  0  0
    6.8777    4.5897   21.7349 C   0  0  0  0  0  0  0  0  0  0  0  0
    7.9166    4.8834   21.5395 H   0  0  0  0  0  0  0  0  0  0  0  0
    6.4232    4.1929   20.8107 H   0  0  0  0  0  0  0  0  0  0  0  0
    5.9761    5.7190   22.2483 C   0  0  0  0  0  0  0  0  0  0  0  0
    5.6563    6.3827   21.4402 H   0  0  0  0  0  0  0  0  0  0  0  0
    6.5041    6.3333   22.9893 H   0  0  0  0  0  0  0  0  0  0  0  0
    4.7774    4.9769   22.8910 C   0  0  0  0  0  0  0  0  0  0  0  0
    3.8764    5.0668   22.2716 H   0  0  0  0  0  0  0  0  0  0  0  0
    4.5351    5.3952   23.8716 H   0  0  0  0  0  0  0  0  0  0  0  0
    5.2086    3.4950   22.9925 C   0  0  0  0  0  0  0  0  0  0  0  0
    4.9248    2.9904   23.9184 H   0  0  0  0  0  0  0  0  0  0  0  0
    4.7524    2.9373   22.1598 H   0  0  0  0  0  0  0  0  0  0  0  0
    5.4104    0.7378   20.1398 C   0  0  0  0  0  0  0  0  0  0  0  0
    4.9195    0.7123   21.1153 H   0  0  0  0  0  0  0  0  0  0  0  0
    4.7919    1.3557   19.0547 C   0  0  0  0  0  0  0  0  0  0  0  0
    3.8393    1.8649   19.1586 H   0  0  0  0  0  0  0  0  0  0  0  0
  1  2  1  0
  2  3  2  0
  3  4  1  0
  4  5  1  0
  4  6  2  0
  6  7  1  0
  7  8  1  0
  8  9  2  0
  9 10  1  0
 10 11  1  0
 11 12  1  0
 11 13  2  0
 13 14  1  0
 13 15  1  0
 15 16  1  0
 16 17  1  0
 17 18  2  0
 17 19  1  0
 19 20  1  0
 19 21  1  0
 21 22  1  0
 21 23  1  0
 23 24  1  0
 23 25  1  0
 23 26  1  0
 26 27  1  0
 26 28  1  0
 26 29  1  0
 29 30  1  0
 29 31  1  0
 29 32  1  0
 32 33  1  0
 32 34  1  0
  6 35  1  0
 35 36  1  0
 35 37  2  0
 37 38  1  0
 37  2  1  0
 16  7  2  0
 32 21  1  0
 15  9  1  0
M  END
>  <cnnaffinity>  (1) 
-5.51402

>  <filename>  (1) 
O=C(NC1CCCC1)c1c(-c2cccnc2)nc2sccn12

$$$$
