
     RDKit          3D

 37 39  0  0  0  0  0  0  0  0999 V2000
    4.9251    1.8049   16.9796 H   0  0  0  0  0  0  0  0  0  0  0  0
    5.3879    1.3027   17.8282 C   0  0  0  0  0  0  0  0  0  0  0  0
    6.5510    0.6849   17.5741 N   0  0  0  0  0  0  0  0  0  0  0  0
    7.1557    0.0713   18.5985 C   0  0  0  0  0  0  0  0  0  0  0  0
    8.1073   -0.4076   18.3617 H   0  0  0  0  0  0  0  0  0  0  0  0
    6.6424    0.0088   19.9069 C   0  0  0  0  0  0  0  0  0  0  0  0
    7.4134   -0.7105   20.9932 C   0  0  0  0  0  0  0  0  0  0  0  0
    7.6569   -1.7374   20.6956 H   0  0  0  0  0  0  0  0  0  0  0  0
    6.8078   -0.7801   21.9021 H   0  0  0  0  0  0  0  0  0  0  0  0
    8.6677   -0.0488   21.3338 N   0  0  0  0  0  0  0  0  0  0  0  0
    9.9197   -0.3635   20.8908 C   0  0  0  0  0  0  0  0  0  0  0  0
   10.1124   -1.2350   20.2869 H   0  0  0  0  0  0  0  0  0  0  0  0
   10.7971    0.5097   21.2911 N   0  0  0  0  0  0  0  0  0  0  0  0
   10.1194    1.4497   22.0223 N   0  0  0  0  0  0  0  0  0  0  0  0
    8.8560    1.1075   22.0487 C   0  0  0  0  0  0  0  0  0  0  0  0
    7.7596    1.8491   22.7596 C   0  0  0  0  0  0  0  0  0  0  0  0
    8.1786    2.8042   23.0981 H   0  0  0  0  0  0  0  0  0  0  0  0
    6.9681    2.1069   22.0398 H   0  0  0  0  0  0  0  0  0  0  0  0
    7.1537    1.1118   23.8806 N   0  0  0  0  0  0  0  0  0  0  0  0
    7.5502    0.2588   24.2377 H   0  0  0  0  0  0  0  0  0  0  0  0
    6.0844    1.6174   24.5646 C   0  0  0  0  0  0  0  0  0  0  0  0
    5.4941    2.6169   24.1838 O   0  0  0  0  0  0  0  0  0  0  0  0
    5.6665    0.8491   25.8071 C   0  0  0  0  0  0  0  0  0  0  0  0
    6.5438    0.0701   26.5898 C   0  0  0  0  0  0  0  0  0  0  0  0
    7.6047   -0.0184   26.3521 H   0  0  0  0  0  0  0  0  0  0  0  0
    6.0854   -0.5746   27.7434 C   0  0  0  0  0  0  0  0  0  0  0  0
    6.7691   -1.1867   28.3212 H   0  0  0  0  0  0  0  0  0  0  0  0
    4.7525   -0.4519   28.1475 C   0  0  0  0  0  0  0  0  0  0  0  0
    4.4002   -0.9580   29.0449 H   0  0  0  0  0  0  0  0  0  0  0  0
    3.8752    0.3299   27.3896 C   0  0  0  0  0  0  0  0  0  0  0  0
    2.8391    0.4469   27.6990 H   0  0  0  0  0  0  0  0  0  0  0  0
    4.3317    0.9760   26.2371 C   0  0  0  0  0  0  0  0  0  0  0  0
    3.6620    1.6143   25.6655 H   0  0  0  0  0  0  0  0  0  0  0  0
    5.4244    0.6563   20.1465 C   0  0  0  0  0  0  0  0  0  0  0  0
    4.9907    0.6579   21.1498 H   0  0  0  0  0  0  0  0  0  0  0  0
    4.7874    1.3161   19.0904 C   0  0  0  0  0  0  0  0  0  0  0  0
    3.8592    1.8548   19.2335 H   0  0  0  0  0  0  0  0  0  0  0  0
  1  2  1  0
  2  3  2  0
  3  4  1  0
  4  5  1  0
  4  6  2  0
  6  7  1  0
  7  8  1  0
  7  9  1  0
  7 10  1  0
 10 11  1  0
 11 12  1  0
 11 13  2  0
 13 14  1  0
 14 15  2  0
 15 16  1  0
 16 17  1  0
 16 18  1  0
 16 19  1  0
 19 20  1  0
 19 21  1  0
 21 22  2  0
 21 23  1  0
 23 24  2  0
 24 25  1  0
 24 26  1  0
 26 27  1  0
 26 28  2  0
 28 29  1  0
 28 30  1  0
 30 31  1  0
 30 32  2  0
 32 33  1  0
  6 34  1  0
 34 35  1  0
 34 36  2  0
 36 37  1  0
 36  2  1  0
 15 10  1  0
 32 23  1  0
M  END
>  <cnnaffinity>  (1) 
-4.94

>  <filename>  (1) 
O=C(NCc1nncn1Cc1cccnc1)c1ccccc1

$$$$
