
     RDKit          3D

 34 36  0  0  0  0  0  0  0  0999 V2000
   11.8940   -0.0319   21.8680 H   0  0  0  0  0  0  0  0  0  0  0  0
   11.6915    0.6943   21.2479 O   0  0  0  0  0  0  0  0  0  0  0  0
   10.3475    0.9966   21.3707 N   0  0  0  0  0  0  0  0  0  0  0  0
    9.8334    0.8594   20.5115 H   0  0  0  0  0  0  0  0  0  0  0  0
    9.8519    1.9417   22.2336 C   0  0  0  0  0  0  0  0  0  0  0  0
   10.4259    2.3580   23.2209 O   0  0  0  0  0  0  0  0  0  0  0  0
    8.3962    2.2592   21.9411 C   0  0  0  0  0  0  0  0  0  0  0  0
    8.1562    2.1840   20.8754 H   0  0  0  0  0  0  0  0  0  0  0  0
    8.2280    3.2866   22.2622 H   0  0  0  0  0  0  0  0  0  0  0  0
    7.5177    1.2702   22.7493 C   0  0  0  0  0  0  0  0  0  0  0  0
    6.4679    1.5727   22.6906 H   0  0  0  0  0  0  0  0  0  0  0  0
    7.8013    1.3120   23.8101 H   0  0  0  0  0  0  0  0  0  0  0  0
    7.6758   -0.1142   22.2196 C   0  0  0  0  0  0  0  0  0  0  0  0
    7.4146   -0.6199   20.9529 C   0  0  0  0  0  0  0  0  0  0  0  0
    6.6370    0.0216   19.8991 C   0  0  0  0  0  0  0  0  0  0  0  0
    7.1409    0.0204   18.5919 C   0  0  0  0  0  0  0  0  0  0  0  0
    8.0679   -0.5025   18.3629 H   0  0  0  0  0  0  0  0  0  0  0  0
    6.5550    0.6520   17.5705 N   0  0  0  0  0  0  0  0  0  0  0  0
    5.4039    1.2987   17.8147 C   0  0  0  0  0  0  0  0  0  0  0  0
    4.9505    1.8145   16.9699 H   0  0  0  0  0  0  0  0  0  0  0  0
    4.7887    1.3241   19.0719 C   0  0  0  0  0  0  0  0  0  0  0  0
    3.8520    1.8562   19.2087 H   0  0  0  0  0  0  0  0  0  0  0  0
    5.4183    0.6792   20.1338 C   0  0  0  0  0  0  0  0  0  0  0  0
    4.9610    0.6734   21.1247 H   0  0  0  0  0  0  0  0  0  0  0  0
    8.0045   -1.8523   20.7691 N   0  0  0  0  0  0  0  0  0  0  0  0
    8.5473   -2.1038   21.9272 C   0  0  0  0  0  0  0  0  0  0  0  0
    8.4520   -1.0765   22.8084 N   0  0  0  0  0  0  0  0  0  0  0  0
    9.2630   -1.1202   24.0106 C   0  0  0  0  0  0  0  0  0  0  0  0
    8.6195   -1.2303   24.8863 H   0  0  0  0  0  0  0  0  0  0  0  0
    9.8352   -0.1920   24.1245 H   0  0  0  0  0  0  0  0  0  0  0  0
   10.1881   -2.3385   23.8038 C   0  0  0  0  0  0  0  0  0  0  0  0
   11.1094   -2.0342   23.2978 H   0  0  0  0  0  0  0  0  0  0  0  0
   10.4456   -2.8672   24.7231 H   0  0  0  0  0  0  0  0  0  0  0  0
    9.3162   -3.4876   22.6771 S   0  0  0  0  0  0  0  0  0  0  0  0
  1  2  1  0
  2  3  1  0
  3  4  1  0
  3  5  1  0
  5  6  2  0
  5  7  1  0
  7  8  1  0
  7  9  1  0
  7 10  1  0
 10 11  1  0
 10 12  1  0
 10 13  1  0
 13 14  2  0
 14 15  1  0
 15 16  2  0
 16 17  1  0
 16 18  1  0
 18 19  2  0
 19 20  1  0
 19 21  1  0
 21 22  1  0
 21 23  2  0
 23 24  1  0
 14 25  1  0
 25 26  2  0
 26 27  1  0
 27 28  1  0
 28 29  1  0
 28 30  1  0
 28 31  1  0
 31 32  1  0
 31 33  1  0
 31 34  1  0
 27 13  1  0
 23 15  1  0
 34 26  1  0
M  END
>  <cnnaffinity>  (1) 
-4.99346

>  <filename>  (1) 
O=C(CCc1c(-c2cccnc2)nc2n1CCS2)NO

$$$$
