
     RDKit          3D

 35 37  0  0  0  0  0  0  0  0999 V2000
   10.3476    4.0508   24.7265 H   0  0  0  0  0  0  0  0  0  0  0  0
   10.0964    4.0586   23.7847 O   0  0  0  0  0  0  0  0  0  0  0  0
   10.1576    2.7291   23.6268 C   0  0  0  0  0  0  0  0  0  0  0  0
   10.4821    2.0752   24.5936 O   0  0  0  0  0  0  0  0  0  0  0  0
    9.7769    2.2286   22.2621 C   0  0  0  0  0  0  0  0  0  0  0  0
   10.1519    1.2085   22.1642 H   0  0  0  0  0  0  0  0  0  0  0  0
   10.3101    2.8438   21.5341 H   0  0  0  0  0  0  0  0  0  0  0  0
    8.2560    2.2735   22.0152 C   0  0  0  0  0  0  0  0  0  0  0  0
    8.0468    2.1272   20.9465 H   0  0  0  0  0  0  0  0  0  0  0  0
    7.8956    3.2735   22.2643 H   0  0  0  0  0  0  0  0  0  0  0  0
    7.4749    1.2176   22.8223 C   0  0  0  0  0  0  0  0  0  0  0  0
    6.4064    1.4657   22.8073 H   0  0  0  0  0  0  0  0  0  0  0  0
    7.7642    1.2447   23.8823 H   0  0  0  0  0  0  0  0  0  0  0  0
    7.6644   -0.1469   22.2578 C   0  0  0  0  0  0  0  0  0  0  0  0
    7.4170   -0.6177   20.9735 C   0  0  0  0  0  0  0  0  0  0  0  0
    6.6511    0.0395   19.9142 C   0  0  0  0  0  0  0  0  0  0  0  0
    7.1511    0.0214   18.6037 C   0  0  0  0  0  0  0  0  0  0  0  0
    8.0813   -0.5009   18.3830 H   0  0  0  0  0  0  0  0  0  0  0  0
    6.5659    0.6422   17.5752 N   0  0  0  0  0  0  0  0  0  0  0  0
    5.4143    1.2917   17.8123 C   0  0  0  0  0  0  0  0  0  0  0  0
    4.9651    1.8065   16.9653 H   0  0  0  0  0  0  0  0  0  0  0  0
    4.7977    1.3227   19.0663 C   0  0  0  0  0  0  0  0  0  0  0  0
    3.8605    1.8513   19.1959 H   0  0  0  0  0  0  0  0  0  0  0  0
    5.4239    0.6901   20.1369 C   0  0  0  0  0  0  0  0  0  0  0  0
    4.9627    0.6853   21.1246 H   0  0  0  0  0  0  0  0  0  0  0  0
    7.9759   -1.8624   20.7879 N   0  0  0  0  0  0  0  0  0  0  0  0
    8.4733   -2.1568   21.9547 C   0  0  0  0  0  0  0  0  0  0  0  0
    8.3542   -1.1627   22.8728 N   0  0  0  0  0  0  0  0  0  0  0  0
    9.1164   -1.2542   24.1014 C   0  0  0  0  0  0  0  0  0  0  0  0
    8.4848   -0.9968   24.9556 H   0  0  0  0  0  0  0  0  0  0  0  0
    9.9490   -0.5393   24.0898 H   0  0  0  0  0  0  0  0  0  0  0  0
    9.6098   -2.7219   24.2052 C   0  0  0  0  0  0  0  0  0  0  0  0
    9.1264   -3.2481   25.0312 H   0  0  0  0  0  0  0  0  0  0  0  0
   10.6911   -2.7796   24.3433 H   0  0  0  0  0  0  0  0  0  0  0  0
    9.1760   -3.6004   22.6525 S   0  0  0  0  0  0  0  0  0  0  0  0
  1  2  1  0
  2  3  1  0
  3  4  2  0
  3  5  1  0
  5  6  1  0
  5  7  1  0
  5  8  1  0
  8  9  1  0
  8 10  1  0
  8 11  1  0
 11 12  1  0
 11 13  1  0
 11 14  1  0
 14 15  2  0
 15 16  1  0
 16 17  2  0
 17 18  1  0
 17 19  1  0
 19 20  2  0
 20 21  1  0
 20 22  1  0
 22 23  1  0
 22 24  2  0
 24 25  1  0
 15 26  1  0
 26 27  2  0
 27 28  1  0
 28 29  1  0
 29 30  1  0
 29 31  1  0
 29 32  1  0
 32 33  1  0
 32 34  1  0
 32 35  1  0
 28 14  1  0
 24 16  1  0
 35 27  1  0
M  END
>  <cnnaffinity>  (1) 
-5.12646

>  <filename>  (1) 
O=C(O)CCCc1c(-c2cccnc2)nc2n1CCS2

$$$$
