
     RDKit          3D

 36 37  0  0  0  0  0  0  0  0999 V2000
    5.0378    1.8320   16.9319 H   0  0  0  0  0  0  0  0  0  0  0  0
    5.5110    1.3185   17.7661 C   0  0  0  0  0  0  0  0  0  0  0  0
    6.6909    0.7328   17.5085 N   0  0  0  0  0  0  0  0  0  0  0  0
    7.3034    0.1039   18.5212 C   0  0  0  0  0  0  0  0  0  0  0  0
    8.2662   -0.3560   18.2983 H   0  0  0  0  0  0  0  0  0  0  0  0
    6.7612   -0.0056   19.8222 C   0  0  0  0  0  0  0  0  0  0  0  0
    7.4045   -0.7201   20.8695 N   0  0  0  0  0  0  0  0  0  0  0  0
    8.3744   -0.5825   21.0885 H   0  0  0  0  0  0  0  0  0  0  0  0
    6.7882   -1.6589   21.6664 C   0  0  0  0  0  0  0  0  0  0  0  0
    5.6988   -2.1424   21.4361 O   0  0  0  0  0  0  0  0  0  0  0  0
    7.6117   -1.9678   22.7402 N   0  0  0  0  0  0  0  0  0  0  0  0
    8.0998   -1.1263   23.0195 H   0  0  0  0  0  0  0  0  0  0  0  0
    7.0127   -2.7161   23.8510 C   0  0  0  0  0  0  0  0  0  0  0  0
    7.7361   -2.7365   24.6754 H   0  0  0  0  0  0  0  0  0  0  0  0
    6.1174   -2.1926   24.2255 H   0  0  0  0  0  0  0  0  0  0  0  0
    6.6486   -4.1413   23.4180 C   0  0  0  0  0  0  0  0  0  0  0  0
    7.5711   -4.6293   23.0732 H   0  0  0  0  0  0  0  0  0  0  0  0
    5.9785   -4.0829   22.5601 H   0  0  0  0  0  0  0  0  0  0  0  0
    5.9954   -4.9611   24.5387 C   0  0  0  0  0  0  0  0  0  0  0  0
    5.1067   -4.4340   24.9244 H   0  0  0  0  0  0  0  0  0  0  0  0
    5.6198   -5.9097   24.1325 H   0  0  0  0  0  0  0  0  0  0  0  0
    6.9590   -5.2381   25.6698 C   0  0  0  0  0  0  0  0  0  0  0  0
    6.6884   -4.7804   26.9649 C   0  0  0  0  0  0  0  0  0  0  0  0
    5.7381   -4.2882   27.1633 H   0  0  0  0  0  0  0  0  0  0  0  0
    7.6142   -4.9670   27.9983 C   0  0  0  0  0  0  0  0  0  0  0  0
    7.3918   -4.6103   28.9984 H   0  0  0  0  0  0  0  0  0  0  0  0
    8.8207   -5.6206   27.7446 C   0  0  0  0  0  0  0  0  0  0  0  0
    9.5458   -5.7681   28.5398 H   0  0  0  0  0  0  0  0  0  0  0  0
    9.0934   -6.1097   26.4620 C   0  0  0  0  0  0  0  0  0  0  0  0
   10.0153   -6.6514   26.2527 H   0  0  0  0  0  0  0  0  0  0  0  0
    8.1743   -5.9043   25.4323 C   0  0  0  0  0  0  0  0  0  0  0  0
    8.3961   -6.2634   24.4291 H   0  0  0  0  0  0  0  0  0  0  0  0
    5.5187    0.5918   20.0667 C   0  0  0  0  0  0  0  0  0  0  0  0
    5.0695    0.5151   21.0572 H   0  0  0  0  0  0  0  0  0  0  0  0
    4.8947    1.2753   19.0201 C   0  0  0  0  0  0  0  0  0  0  0  0
    3.9464    1.7755   19.1679 H   0  0  0  0  0  0  0  0  0  0  0  0
  1  2  1  0
  2  3  2  0
  3  4  1  0
  4  5  1  0
  4  6  2  0
  6  7  1  0
  7  8  1  0
  7  9  1  0
  9 10  2  0
  9 11  1  0
 11 12  1  0
 11 13  1  0
 13 14  1  0
 13 15  1  0
 13 16  1  0
 16 17  1  0
 16 18  1  0
 16 19  1  0
 19 20  1  0
 19 21  1  0
 19 22  1  0
 22 23  2  0
 23 24  1  0
 23 25  1  0
 25 26  1  0
 25 27  2  0
 27 28  1  0
 27 29  1  0
 29 30  1  0
 29 31  2  0
 31 32  1  0
  6 33  1  0
 33 34  1  0
 33 35  2  0
 35 36  1  0
 35  2  1  0
 31 22  1  0
M  END
>  <cnnaffinity>  (1) 
-4.73239

>  <filename>  (1) 
O=C(NCCCc1ccccc1)Nc1cccnc1

$$$$
