
     RDKit          3D

 38 39  0  0  0  0  0  0  0  0999 V2000
    8.1727    8.4357   23.6206 H   0  0  0  0  0  0  0  0  0  0  0  0
    7.3691    8.1537   23.1549 O   0  0  0  0  0  0  0  0  0  0  0  0
    7.6625    6.8989   22.6000 N   0  0  0  0  0  0  0  0  0  0  0  0
    7.5647    6.9536   21.5944 H   0  0  0  0  0  0  0  0  0  0  0  0
    6.9659    5.7779   23.0839 C   0  0  0  0  0  0  0  0  0  0  0  0
    6.4781    5.6856   24.1851 O   0  0  0  0  0  0  0  0  0  0  0  0
    7.0332    4.6230   22.0876 C   0  0  0  0  0  0  0  0  0  0  0  0
    6.1564    3.9918   22.2628 H   0  0  0  0  0  0  0  0  0  0  0  0
    6.9744    5.0052   21.0563 H   0  0  0  0  0  0  0  0  0  0  0  0
    8.3107    3.7909   22.3366 C   0  0  0  0  0  0  0  0  0  0  0  0
    9.1793    4.4071   22.0820 H   0  0  0  0  0  0  0  0  0  0  0  0
    8.3891    3.5950   23.4172 H   0  0  0  0  0  0  0  0  0  0  0  0
    8.3718    2.4494   21.6057 C   0  0  0  0  0  0  0  0  0  0  0  0
    7.5677    1.8011   21.9887 H   0  0  0  0  0  0  0  0  0  0  0  0
    8.1770    2.5581   20.5328 H   0  0  0  0  0  0  0  0  0  0  0  0
    9.7189    1.7327   21.7499 C   0  0  0  0  0  0  0  0  0  0  0  0
   10.5434    2.3769   21.4031 H   0  0  0  0  0  0  0  0  0  0  0  0
    9.9169    1.5276   22.8105 H   0  0  0  0  0  0  0  0  0  0  0  0
    9.7466    0.4190   20.9491 C   0  0  0  0  0  0  0  0  0  0  0  0
    9.5683    0.6528   19.8946 H   0  0  0  0  0  0  0  0  0  0  0  0
   10.7437   -0.0316   21.0045 H   0  0  0  0  0  0  0  0  0  0  0  0
    8.7072   -0.5678   21.4067 C   0  0  0  0  0  0  0  0  0  0  0  0
    8.7993   -1.4707   22.4914 C   0  0  0  0  0  0  0  0  0  0  0  0
    9.6736   -1.6923   23.0976 H   0  0  0  0  0  0  0  0  0  0  0  0
    7.6396   -2.0645   22.7540 N   0  0  0  0  0  0  0  0  0  0  0  0
    6.7944   -1.5368   21.8500 N   0  0  0  0  0  0  0  0  0  0  0  0
    5.8253   -1.8267   21.8349 H   0  0  0  0  0  0  0  0  0  0  0  0
    7.3816   -0.6495   21.0044 C   0  0  0  0  0  0  0  0  0  0  0  0
    6.6480    0.0374   19.9219 C   0  0  0  0  0  0  0  0  0  0  0  0
    7.1720    0.0747   18.6132 C   0  0  0  0  0  0  0  0  0  0  0  0
    8.1049   -0.4389   18.3907 H   0  0  0  0  0  0  0  0  0  0  0  0
    6.5829    0.6837   17.5714 N   0  0  0  0  0  0  0  0  0  0  0  0
    5.4219    1.3104   17.8093 C   0  0  0  0  0  0  0  0  0  0  0  0
    4.9562    1.8095   16.9602 H   0  0  0  0  0  0  0  0  0  0  0  0
    4.8056    1.3292   19.0653 C   0  0  0  0  0  0  0  0  0  0  0  0
    3.8632    1.8464   19.1862 H   0  0  0  0  0  0  0  0  0  0  0  0
    5.4181    0.6818   20.1394 C   0  0  0  0  0  0  0  0  0  0  0  0
    4.9569    0.6941   21.1314 H   0  0  0  0  0  0  0  0  0  0  0  0
  1  2  1  0
  2  3  1  0
  3  4  1  0
  3  5  1  0
  5  6  2  0
  5  7  1  0
  7  8  1  0
  7  9  1  0
  7 10  1  0
 10 11  1  0
 10 12  1  0
 10 13  1  0
 13 14  1  0
 13 15  1  0
 13 16  1  0
 16 17  1  0
 16 18  1  0
 16 19  1  0
 19 20  1  0
 19 21  1  0
 19 22  1  0
 22 23  1  0
 23 24  1  0
 23 25  2  0
 25 26  1  0
 26 27  1  0
 26 28  1  0
 28 29  1  0
 29 30  2  0
 30 31  1  0
 30 32  1  0
 32 33  2  0
 33 34  1  0
 33 35  1  0
 35 36  1  0
 35 37  2  0
 37 38  1  0
 28 22  2  0
 37 29  1  0
M  END
>  <cnnaffinity>  (1) 
-4.77403

>  <filename>  (1) 
O=C(CCCCCc1cn[nH]c1-c1cccnc1)NO

$$$$
