
     RDKit          3D

 38 41  0  0  0  0  0  0  0  0999 V2000
    3.5058   -8.7315   26.2058 H   0  0  0  0  0  0  0  0  0  0  0  0
    3.9178   -7.8583   26.2878 O   0  0  0  0  0  0  0  0  0  0  0  0
    3.9617   -7.4624   24.9990 C   0  0  0  0  0  0  0  0  0  0  0  0
    3.5190   -8.2001   24.1507 O   0  0  0  0  0  0  0  0  0  0  0  0
    4.5529   -6.1020   24.8064 C   0  0  0  0  0  0  0  0  0  0  0  0
    5.4858   -5.5897   25.7356 C   0  0  0  0  0  0  0  0  0  0  0  0
    5.7989   -6.1952   26.5857 H   0  0  0  0  0  0  0  0  0  0  0  0
    6.0222   -4.3185   25.5636 C   0  0  0  0  0  0  0  0  0  0  0  0
    6.7511   -3.9447   26.2731 H   0  0  0  0  0  0  0  0  0  0  0  0
    5.6531   -3.5166   24.4686 C   0  0  0  0  0  0  0  0  0  0  0  0
    6.2935   -2.2124   24.1978 C   0  0  0  0  0  0  0  0  0  0  0  0
    6.7243   -1.6739   22.9993 C   0  0  0  0  0  0  0  0  0  0  0  0
    7.3259   -0.4633   23.3210 C   0  0  0  0  0  0  0  0  0  0  0  0
    7.3054   -0.2085   24.6158 N   0  0  0  0  0  0  0  0  0  0  0  0
    6.6783   -1.2927   25.1350 N   0  0  0  0  0  0  0  0  0  0  0  0
    6.4861   -1.3158   26.1284 H   0  0  0  0  0  0  0  0  0  0  0  0
    7.8518    0.2697   22.1286 C   0  0  0  0  0  0  0  0  0  0  0  0
    7.4097    1.2698   22.0469 H   0  0  0  0  0  0  0  0  0  0  0  0
    8.9370    0.4042   22.1905 H   0  0  0  0  0  0  0  0  0  0  0  0
    7.4665   -0.6711   20.9328 C   0  0  2  0  0  0  0  0  0  0  0  0
    8.4002   -1.0574   20.5118 H   0  0  0  0  0  0  0  0  0  0  0  0
    6.7059    0.0395   19.8335 C   0  0  0  0  0  0  0  0  0  0  0  0
    7.1790    0.0886   18.5082 C   0  0  0  0  0  0  0  0  0  0  0  0
    8.1154   -0.4075   18.2522 H   0  0  0  0  0  0  0  0  0  0  0  0
    6.5567    0.7079   17.4973 N   0  0  0  0  0  0  0  0  0  0  0  0
    5.3992    1.3233   17.7799 C   0  0  0  0  0  0  0  0  0  0  0  0
    4.9103    1.8355   16.9533 H   0  0  0  0  0  0  0  0  0  0  0  0
    4.8211    1.3248   19.0534 C   0  0  0  0  0  0  0  0  0  0  0  0
    3.8819    1.8386   19.2163 H   0  0  0  0  0  0  0  0  0  0  0  0
    5.4823    0.6744   20.0956 C   0  0  0  0  0  0  0  0  0  0  0  0
    5.0556    0.6663   21.1023 H   0  0  0  0  0  0  0  0  0  0  0  0
    6.6805   -1.8952   21.5224 C   0  0  0  0  0  0  0  0  0  0  0  0
    7.1366   -2.8441   21.2178 H   0  0  0  0  0  0  0  0  0  0  0  0
    5.6453   -1.9235   21.1551 H   0  0  0  0  0  0  0  0  0  0  0  0
    4.7304   -4.0354   23.5415 C   0  0  0  0  0  0  0  0  0  0  0  0
    4.4262   -3.4213   22.7014 H   0  0  0  0  0  0  0  0  0  0  0  0
    4.1888   -5.3109   23.6967 C   0  0  0  0  0  0  0  0  0  0  0  0
    3.4953   -5.6974   22.9499 H   0  0  0  0  0  0  0  0  0  0  0  0
  1  2  1  0
  2  3  1  0
  3  4  2  0
  3  5  1  0
  5  6  2  0
  6  7  1  0
  6  8  1  0
  8  9  1  0
  8 10  2  0
 10 11  1  0
 11 12  2  0
 12 13  1  0
 13 14  2  0
 14 15  1  0
 15 16  1  0
 13 17  1  0
 17 18  1  0
 17 19  1  0
 17 20  1  0
 20 21  1  6
 20 22  1  0
 22 23  2  0
 23 24  1  0
 23 25  1  0
 25 26  2  0
 26 27  1  0
 26 28  1  0
 28 29  1  0
 28 30  2  0
 30 31  1  0
 20 32  1  0
 32 33  1  0
 32 34  1  0
 10 35  1  0
 35 36  1  0
 35 37  2  0
 37 38  1  0
 37  5  1  0
 15 11  1  0
 30 22  1  0
 32 12  1  0
M  END
>  <cnnaffinity>  (1) 
-5.24282

>  <filename>  (1) 
O=C(O)c1ccc(-c2[nH]nc3c2C[C@@H](c2cccnc2)C3)cc1

$$$$
