
     RDKit          3D

 30 32  0  0  0  0  0  0  0  0999 V2000
    7.5962    0.7529   22.8316 O   0  0  0  0  0  0  0  0  0  0  0  0
    8.2192    0.4638   21.8336 C   0  0  0  0  0  0  0  0  0  0  0  0
    9.3888    1.0824   21.4462 N   0  0  0  0  0  0  0  0  0  0  0  0
    9.9502    2.2585   22.0071 C   0  0  0  0  0  0  0  0  0  0  0  0
    9.1307    3.3067   22.4846 C   0  0  0  0  0  0  0  0  0  0  0  0
    9.7083    4.4696   22.9792 C   0  0  0  0  0  0  0  0  0  0  0  0
   11.1113    4.5601   23.0506 C   0  0  0  0  0  0  0  0  0  0  0  0
   12.1040    5.8157   23.7261 S   0  0  0  0  0  0  0  0  0  0  0  0
   13.5558    5.0496   23.3343 N   0  0  0  0  0  0  0  0  0  0  0  0
   13.3357    3.9229   22.7327 C   0  0  0  0  0  0  0  0  0  0  0  0
   11.9429    3.5318   22.5546 C   0  0  0  0  0  0  0  0  0  0  0  0
   11.3367    2.3670   22.0173 C   0  0  0  0  0  0  0  0  0  0  0  0
   11.9209    1.5364   21.6254 H   0  0  0  0  0  0  0  0  0  0  0  0
   14.2025    3.3472   22.4145 H   0  0  0  0  0  0  0  0  0  0  0  0
    9.0708    5.2827   23.3127 H   0  0  0  0  0  0  0  0  0  0  0  0
    8.0530    3.1961   22.4475 H   0  0  0  0  0  0  0  0  0  0  0  0
   10.0283    0.5324   20.8961 H   0  0  0  0  0  0  0  0  0  0  0  0
    7.6555   -0.6231   20.8112 C   0  0  0  0  0  0  0  0  0  0  0  0
    6.9677   -1.5646   21.5038 F   0  0  0  0  0  0  0  0  0  0  0  0
    8.7193   -1.2853   20.2301 F   0  0  0  0  0  0  0  0  0  0  0  0
    6.7608   -0.0370   19.7351 C   0  0  0  0  0  0  0  0  0  0  0  0
    5.5841    0.6552   20.0599 C   0  0  0  0  0  0  0  0  0  0  0  0
    4.9153    1.3230   19.0317 C   0  0  0  0  0  0  0  0  0  0  0  0
    5.4330    1.2696   17.7340 C   0  0  0  0  0  0  0  0  0  0  0  0
    6.5199    0.5549   17.4094 N   0  0  0  0  0  0  0  0  0  0  0  0
    7.1506   -0.0933   18.3899 C   0  0  0  0  0  0  0  0  0  0  0  0
    8.0281   -0.6640   18.0993 H   0  0  0  0  0  0  0  0  0  0  0  0
    4.9606    1.8189   16.9193 H   0  0  0  0  0  0  0  0  0  0  0  0
    4.0158    1.8964   19.2166 H   0  0  0  0  0  0  0  0  0  0  0  0
    5.2217    0.6899   21.0891 H   0  0  0  0  0  0  0  0  0  0  0  0
  1  2  2  0
  2  3  1  0
  3  4  1  0
  4  5  2  0
  5  6  1  0
  6  7  2  0
  7  8  1  0
  8  9  1  0
  9 10  2  0
 10 11  1  0
 11 12  2  0
 12 13  1  0
 10 14  1  0
  6 15  1  0
  5 16  1  0
  3 17  1  0
  2 18  1  0
 18 19  1  0
 18 20  1  0
 18 21  1  0
 21 22  2  0
 22 23  1  0
 23 24  2  0
 24 25  1  0
 25 26  2  0
 26 27  1  0
 24 28  1  0
 23 29  1  0
 22 30  1  0
 12  4  1  0
 26 21  1  0
 11  7  1  0
M  END
>  <cnnaffinity>  (1) 
-4.73095

>  <filename>  (1) 
O=C(Nc1ccc2sncc2c1)C(F)(F)c1cccnc1

$$$$
