
     RDKit          3D

 36 37  0  0  0  0  0  0  0  0999 V2000
   15.0071    1.4319   21.8321 H   0  0  0  0  0  0  0  0  0  0  0  0
   14.6028    1.4788   22.7198 O   0  0  0  0  0  0  0  0  0  0  0  0
   13.2815    1.9035   22.5132 N   0  0  0  0  0  0  0  0  0  0  0  0
   13.1767    2.8557   22.8425 H   0  0  0  0  0  0  0  0  0  0  0  0
   12.2222    1.1224   23.0044 C   0  0  0  0  0  0  0  0  0  0  0  0
   12.2892   -0.0200   23.3900 O   0  0  0  0  0  0  0  0  0  0  0  0
   10.8984    1.8552   22.8521 C   0  0  0  0  0  0  0  0  0  0  0  0
   10.9798    2.9288   23.0807 H   0  0  0  0  0  0  0  0  0  0  0  0
   10.2406    1.3929   23.5932 H   0  0  0  0  0  0  0  0  0  0  0  0
   10.3120    1.6541   21.4364 C   0  0  0  0  0  0  0  0  0  0  0  0
   10.9334    2.1946   20.7154 H   0  0  0  0  0  0  0  0  0  0  0  0
   10.3747    0.5902   21.1623 H   0  0  0  0  0  0  0  0  0  0  0  0
    8.8567    2.1213   21.3117 C   0  0  0  0  0  0  0  0  0  0  0  0
    8.4993    1.9527   20.2892 H   0  0  0  0  0  0  0  0  0  0  0  0
    8.7963    3.2051   21.4709 H   0  0  0  0  0  0  0  0  0  0  0  0
    7.8979    1.4111   22.2871 C   0  0  0  0  0  0  0  0  0  0  0  0
    6.8877    1.8101   22.1488 H   0  0  0  0  0  0  0  0  0  0  0  0
    8.1690    1.6311   23.3235 H   0  0  0  0  0  0  0  0  0  0  0  0
    7.9208   -0.0943   22.1145 C   0  0  0  0  0  0  0  0  0  0  0  0
    8.6042   -0.7911   23.0351 N   0  0  0  0  0  0  0  0  0  0  0  0
    8.6575   -2.1157   22.9021 C   0  0  0  0  0  0  0  0  0  0  0  0
    9.2118   -2.6611   23.6670 H   0  0  0  0  0  0  0  0  0  0  0  0
    8.0921   -2.8274   21.9269 N   0  0  0  0  0  0  0  0  0  0  0  0
    7.4493   -2.1206   20.9960 C   0  0  0  0  0  0  0  0  0  0  0  0
    6.9608   -2.6870   20.2038 H   0  0  0  0  0  0  0  0  0  0  0  0
    7.3488   -0.7253   20.9917 C   0  0  0  0  0  0  0  0  0  0  0  0
    6.6535   -0.0014   19.8649 C   0  0  0  0  0  0  0  0  0  0  0  0
    7.1462   -0.0060   18.5395 C   0  0  0  0  0  0  0  0  0  0  0  0
    8.0743   -0.5350   18.3171 H   0  0  0  0  0  0  0  0  0  0  0  0
    6.5666    0.6237   17.5080 N   0  0  0  0  0  0  0  0  0  0  0  0
    5.4312    1.2934   17.7647 C   0  0  0  0  0  0  0  0  0  0  0  0
    4.9795    1.8093   16.9215 H   0  0  0  0  0  0  0  0  0  0  0  0
    4.8386    1.3494   19.0281 C   0  0  0  0  0  0  0  0  0  0  0  0
    3.9196    1.9024   19.1690 H   0  0  0  0  0  0  0  0  0  0  0  0
    5.4640    0.7023   20.0970 C   0  0  0  0  0  0  0  0  0  0  0  0
    5.0481    0.7244   21.1056 H   0  0  0  0  0  0  0  0  0  0  0  0
  1  2  1  0
  2  3  1  0
  3  4  1  0
  3  5  1  0
  5  6  2  0
  5  7  1  0
  7  8  1  0
  7  9  1  0
  7 10  1  0
 10 11  1  0
 10 12  1  0
 10 13  1  0
 13 14  1  0
 13 15  1  0
 13 16  1  0
 16 17  1  0
 16 18  1  0
 16 19  1  0
 19 20  2  0
 20 21  1  0
 21 22  1  0
 21 23  2  0
 23 24  1  0
 24 25  1  0
 24 26  2  0
 26 27  1  0
 27 28  2  0
 28 29  1  0
 28 30  1  0
 30 31  2  0
 31 32  1  0
 31 33  1  0
 33 34  1  0
 33 35  2  0
 35 36  1  0
 26 19  1  0
 35 27  1  0
M  END
>  <cnnaffinity>  (1) 
-5.33724

>  <filename>  (1) 
O=C(CCCCc1ncncc1-c1cccnc1)NO

$$$$
