
     RDKit          3D

 40 43  0  0  0  0  0  0  0  0999 V2000
    4.9525    1.7704   16.9852 H   0  0  0  0  0  0  0  0  0  0  0  0
    5.4115    1.2756   17.8396 C   0  0  0  0  0  0  0  0  0  0  0  0
    6.5708    0.6437   17.6086 N   0  0  0  0  0  0  0  0  0  0  0  0
    7.1666    0.0589   18.6534 C   0  0  0  0  0  0  0  0  0  0  0  0
    8.1164   -0.4256   18.4337 H   0  0  0  0  0  0  0  0  0  0  0  0
    6.6614    0.0695   19.9671 C   0  0  0  0  0  0  0  0  0  0  0  0
    7.4259   -0.6093   21.0327 C   0  0  0  0  0  0  0  0  0  0  0  0
    8.2870   -1.6448   20.9367 C   0  0  0  0  0  0  0  0  0  0  0  0
    8.6820   -2.0925   20.0495 H   0  0  0  0  0  0  0  0  0  0  0  0
    8.8650   -2.2175   22.4739 S   0  0  0  0  0  0  0  0  0  0  0  0
    8.0426   -0.9215   23.2665 C   0  0  0  0  0  0  0  0  0  0  0  0
    8.0185   -0.3528   24.4590 N   0  0  0  0  0  0  0  0  0  0  0  0
    7.2324    0.7074   24.1920 C   0  0  0  0  0  0  0  0  0  0  0  0
    7.0020    1.5691   25.2084 N   0  0  0  0  0  0  0  0  0  0  0  0
    7.4674    1.3203   26.0554 H   0  0  0  0  0  0  0  0  0  0  0  0
    6.1826    2.6537   25.1038 C   0  0  0  0  0  0  0  0  0  0  0  0
    5.5572    2.8992   24.0984 O   0  0  0  0  0  0  0  0  0  0  0  0
    6.1000    3.4736   26.3960 C   0  0  0  0  0  0  0  0  0  0  0  0
    7.0721    3.3608   26.8969 H   0  0  0  0  0  0  0  0  0  0  0  0
    5.8546    4.9663   26.0862 C   0  0  0  0  0  0  0  0  0  0  0  0
    6.0298    5.5447   27.0042 H   0  0  0  0  0  0  0  0  0  0  0  0
    6.5904    5.3139   25.3499 H   0  0  0  0  0  0  0  0  0  0  0  0
    4.4335    5.2334   25.5558 C   0  0  0  0  0  0  0  0  0  0  0  0
    4.2920    6.3125   25.4288 H   0  0  0  0  0  0  0  0  0  0  0  0
    4.3452    4.7760   24.5654 H   0  0  0  0  0  0  0  0  0  0  0  0
    3.3579    4.6387   26.4757 C   0  0  0  0  0  0  0  0  0  0  0  0
    3.3865    5.1568   27.4466 H   0  0  0  0  0  0  0  0  0  0  0  0
    2.3603    4.8111   26.0528 H   0  0  0  0  0  0  0  0  0  0  0  0
    3.5907    3.1370   26.7069 C   0  0  0  0  0  0  0  0  0  0  0  0
    3.5025    2.6034   25.7487 H   0  0  0  0  0  0  0  0  0  0  0  0
    2.8209    2.7219   27.3685 H   0  0  0  0  0  0  0  0  0  0  0  0
    4.9855    2.8877   27.3040 C   0  0  0  0  0  0  0  0  0  0  0  0
    5.0501    3.3645   28.2944 H   0  0  0  0  0  0  0  0  0  0  0  0
    5.1465    1.8121   27.4607 H   0  0  0  0  0  0  0  0  0  0  0  0
    6.7610    0.8620   22.9690 N   0  0  0  0  0  0  0  0  0  0  0  0
    7.3027   -0.2336   22.3707 N   0  0  0  0  0  0  0  0  0  0  0  0
    5.4328    0.7263   20.1875 C   0  0  0  0  0  0  0  0  0  0  0  0
    5.0188    0.7909   21.1974 H   0  0  0  0  0  0  0  0  0  0  0  0
    4.7985    1.3213   19.0972 C   0  0  0  0  0  0  0  0  0  0  0  0
    3.8541    1.8396   19.2144 H   0  0  0  0  0  0  0  0  0  0  0  0
  1  2  1  0
  2  3  2  0
  3  4  1  0
  4  5  1  0
  4  6  2  0
  6  7  1  0
  7  8  2  0
  8  9  1  0
  8 10  1  0
 10 11  1  0
 11 12  2  0
 12 13  1  0
 13 14  1  0
 14 15  1  0
 14 16  1  0
 16 17  2  0
 16 18  1  0
 18 19  1  0
 18 20  1  0
 20 21  1  0
 20 22  1  0
 20 23  1  0
 23 24  1  0
 23 25  1  0
 23 26  1  0
 26 27  1  0
 26 28  1  0
 26 29  1  0
 29 30  1  0
 29 31  1  0
 29 32  1  0
 32 33  1  0
 32 34  1  0
 13 35  2  0
 35 36  1  0
  6 37  1  0
 37 38  1  0
 37 39  2  0
 39 40  1  0
 39  2  1  0
 36  7  1  0
 36 11  1  0
 32 18  1  0
M  END
>  <cnnaffinity>  (1) 
-5.51011

>  <filename>  (1) 
O=C(Nc1nc2scc(-c3cccnc3)n2n1)C1CCCCC1

$$$$
