
     RDKit          3D

 35 36  0  0  0  0  0  0  0  0999 V2000
    5.1293    1.9142   16.8215 H   0  0  0  0  0  0  0  0  0  0  0  0
    5.5570    1.4033   17.6812 C   0  0  0  0  0  0  0  0  0  0  0  0
    6.7449    0.8061   17.4860 N   0  0  0  0  0  0  0  0  0  0  0  0
    7.2934    0.1511   18.5209 C   0  0  0  0  0  0  0  0  0  0  0  0
    8.2700   -0.3039   18.3416 H   0  0  0  0  0  0  0  0  0  0  0  0
    6.6655    0.0228   19.7844 C   0  0  0  0  0  0  0  0  0  0  0  0
    7.2012   -0.7354   20.8697 N   0  0  0  0  0  0  0  0  0  0  0  0
    8.1969   -0.7107   21.0011 H   0  0  0  0  0  0  0  0  0  0  0  0
    6.6323   -1.9006   21.3827 C   0  0  0  0  0  0  0  0  0  0  0  0
    5.7047   -2.5162   20.9396 O   0  0  0  0  0  0  0  0  0  0  0  0
    7.3718   -2.2487   22.5064 N   0  0  0  0  0  0  0  0  0  0  0  0
    8.0834   -1.6012   22.7687 H   0  0  0  0  0  0  0  0  0  0  0  0
    6.8695   -3.0513   23.5123 C   0  0  0  0  0  0  0  0  0  0  0  0
    5.7548   -3.5153   23.4840 O   0  0  0  0  0  0  0  0  0  0  0  0
    7.8774   -3.3071   24.6452 C   0  0  0  0  0  0  0  0  0  0  0  0
    8.8820   -3.0520   24.2700 H   0  0  0  0  0  0  0  0  0  0  0  0
    7.8992   -4.8058   25.0164 C   0  0  0  0  0  0  0  0  0  0  0  0
    6.8910   -5.1233   25.3176 H   0  0  0  0  0  0  0  0  0  0  0  0
    8.1523   -5.3903   24.1258 H   0  0  0  0  0  0  0  0  0  0  0  0
    8.9093   -5.1128   26.1262 C   0  0  0  0  0  0  0  0  0  0  0  0
    9.9318   -4.9996   25.7322 H   0  0  0  0  0  0  0  0  0  0  0  0
    8.8119   -6.1677   26.4212 H   0  0  0  0  0  0  0  0  0  0  0  0
    8.7061   -4.2063   27.3517 C   0  0  0  0  0  0  0  0  0  0  0  0
    7.7613   -4.4905   27.8404 H   0  0  0  0  0  0  0  0  0  0  0  0
    9.5114   -4.3910   28.0767 H   0  0  0  0  0  0  0  0  0  0  0  0
    8.6443   -2.7085   26.9925 C   0  0  0  0  0  0  0  0  0  0  0  0
    9.6364   -2.3763   26.6632 H   0  0  0  0  0  0  0  0  0  0  0  0
    8.4002   -2.1224   27.8874 H   0  0  0  0  0  0  0  0  0  0  0  0
    7.6260   -2.4037   25.8801 C   0  0  0  0  0  0  0  0  0  0  0  0
    7.7087   -1.3453   25.5896 H   0  0  0  0  0  0  0  0  0  0  0  0
    6.6073   -2.5532   26.2692 H   0  0  0  0  0  0  0  0  0  0  0  0
    5.4406    0.6744   19.9721 C   0  0  0  0  0  0  0  0  0  0  0  0
    4.9723    0.6248   20.9545 H   0  0  0  0  0  0  0  0  0  0  0  0
    4.8770    1.3803   18.9040 C   0  0  0  0  0  0  0  0  0  0  0  0
    3.9368    1.9126   19.0117 H   0  0  0  0  0  0  0  0  0  0  0  0
  1  2  1  0
  2  3  2  0
  3  4  1  0
  4  5  1  0
  4  6  2  0
  6  7  1  0
  7  8  1  0
  7  9  1  0
  9 10  2  0
  9 11  1  0
 11 12  1  0
 11 13  1  0
 13 14  2  0
 13 15  1  0
 15 16  1  0
 15 17  1  0
 17 18  1  0
 17 19  1  0
 17 20  1  0
 20 21  1  0
 20 22  1  0
 20 23  1  0
 23 24  1  0
 23 25  1  0
 23 26  1  0
 26 27  1  0
 26 28  1  0
 26 29  1  0
 29 30  1  0
 29 31  1  0
  6 32  1  0
 32 33  1  0
 32 34  2  0
 34 35  1  0
 34  2  1  0
 29 15  1  0
M  END
>  <cnnaffinity>  (1) 
-4.80161

>  <filename>  (1) 
O=C(NC(=O)C1CCCCC1)Nc1cccnc1

$$$$
