
     RDKit          3D

 34 36  0  0  0  0  0  0  0  0999 V2000
    4.9220    1.7814   16.9962 H   0  0  0  0  0  0  0  0  0  0  0  0
    5.4013    1.2944   17.8394 C   0  0  0  0  0  0  0  0  0  0  0  0
    6.5660    0.6791   17.5826 N   0  0  0  0  0  0  0  0  0  0  0  0
    7.1673    0.0589   18.5990 C   0  0  0  0  0  0  0  0  0  0  0  0
    8.1115   -0.4361   18.3826 H   0  0  0  0  0  0  0  0  0  0  0  0
    6.6472    0.0293   19.9009 C   0  0  0  0  0  0  0  0  0  0  0  0
    7.3716   -0.7137   20.9300 C   0  0  0  0  0  0  0  0  0  0  0  0
    7.9313   -1.8841   20.7537 N   0  0  0  0  0  0  0  0  0  0  0  0
    8.5020   -2.2601   21.9409 N   0  0  0  0  0  0  0  0  0  0  0  0
    8.2878   -1.2972   22.7904 C   0  0  0  0  0  0  0  0  0  0  0  0
    8.6621   -1.2830   23.8074 H   0  0  0  0  0  0  0  0  0  0  0  0
    7.5552   -0.2849   22.2240 N   0  0  0  0  0  0  0  0  0  0  0  0
    7.2329    0.9889   22.8269 C   0  0  0  0  0  0  0  0  0  0  0  0
    7.1211    1.7704   22.0667 H   0  0  0  0  0  0  0  0  0  0  0  0
    8.0612    1.3165   23.4668 H   0  0  0  0  0  0  0  0  0  0  0  0
    6.0236    0.8718   23.6163 N   0  0  0  0  0  0  0  0  0  0  0  0
    5.5532   -0.0140   23.6311 H   0  0  0  0  0  0  0  0  0  0  0  0
    5.4803    1.9611   24.2548 C   0  0  0  0  0  0  0  0  0  0  0  0
    5.9618    3.0717   24.0907 O   0  0  0  0  0  0  0  0  0  0  0  0
    4.2734    1.7509   25.1649 C   0  0  0  0  0  0  0  0  0  0  0  0
    3.4175    2.8472   25.4326 C   0  0  0  0  0  0  0  0  0  0  0  0
    3.6166    3.8171   24.9793 H   0  0  0  0  0  0  0  0  0  0  0  0
    2.3194    2.7087   26.2870 C   0  0  0  0  0  0  0  0  0  0  0  0
    1.6606    3.5559   26.4754 H   0  0  0  0  0  0  0  0  0  0  0  0
    2.0609    1.4811   26.9085 C   0  0  0  0  0  0  0  0  0  0  0  0
    1.2028    1.3671   27.5702 H   0  0  0  0  0  0  0  0  0  0  0  0
    2.9184    0.3984   26.6782 C   0  0  0  0  0  0  0  0  0  0  0  0
    2.7315   -0.5587   27.1595 H   0  0  0  0  0  0  0  0  0  0  0  0
    4.0159    0.5327   25.8206 C   0  0  0  0  0  0  0  0  0  0  0  0
    4.6883   -0.3157   25.6890 H   0  0  0  0  0  0  0  0  0  0  0  0
    5.4287    0.6676   20.1590 C   0  0  0  0  0  0  0  0  0  0  0  0
    5.0001    0.6436   21.1652 H   0  0  0  0  0  0  0  0  0  0  0  0
    4.7972    1.3143   19.1018 C   0  0  0  0  0  0  0  0  0  0  0  0
    3.8668    1.8466   19.2557 H   0  0  0  0  0  0  0  0  0  0  0  0
  1  2  1  0
  2  3  2  0
  3  4  1  0
  4  5  1  0
  4  6  2  0
  6  7  1  0
  7  8  2  0
  8  9  1  0
  9 10  2  0
 10 11  1  0
 10 12  1  0
 12 13  1  0
 13 14  1  0
 13 15  1  0
 13 16  1  0
 16 17  1  0
 16 18  1  0
 18 19  2  0
 18 20  1  0
 20 21  2  0
 21 22  1  0
 21 23  1  0
 23 24  1  0
 23 25  2  0
 25 26  1  0
 25 27  1  0
 27 28  1  0
 27 29  2  0
 29 30  1  0
  6 31  1  0
 31 32  1  0
 31 33  2  0
 33 34  1  0
 33  2  1  0
 12  7  1  0
 29 20  1  0
M  END
>  <cnnaffinity>  (1) 
-5.25896

>  <filename>  (1) 
O=C(NCn1cnnc1-c1cccnc1)c1ccccc1

$$$$
