
     RDKit          3D

 36 38  0  0  0  0  0  0  0  0999 V2000
    6.7597    6.0870   27.9908 H   0  0  0  0  0  0  0  0  0  0  0  0
    7.2182    6.5159   27.2418 O   0  0  0  0  0  0  0  0  0  0  0  0
    7.5984    5.4890   26.3699 N   0  0  0  0  0  0  0  0  0  0  0  0
    7.3329    5.7452   25.4190 H   0  0  0  0  0  0  0  0  0  0  0  0
    8.9512    5.0714   26.3561 C   0  0  0  0  0  0  0  0  0  0  0  0
    9.8032    5.4142   27.1388 O   0  0  0  0  0  0  0  0  0  0  0  0
    9.1915    4.0708   25.2343 C   0  0  0  0  0  0  0  0  0  0  0  0
   10.2634    4.0956   25.0388 H   0  0  0  0  0  0  0  0  0  0  0  0
    8.7092    4.4245   24.3181 H   0  0  0  0  0  0  0  0  0  0  0  0
    8.7082    2.6236   25.4985 C   0  0  0  0  0  0  0  0  0  0  0  0
    9.0484    2.2815   26.4878 H   0  0  0  0  0  0  0  0  0  0  0  0
    9.1921    1.9672   24.7590 H   0  0  0  0  0  0  0  0  0  0  0  0
    7.1865    2.4928   25.3747 C   0  0  0  0  0  0  0  0  0  0  0  0
    6.8746    2.9210   24.4103 H   0  0  0  0  0  0  0  0  0  0  0  0
    6.6952    3.0909   26.1491 H   0  0  0  0  0  0  0  0  0  0  0  0
    6.6428    1.0495   25.4554 C   0  0  0  0  0  0  0  0  0  0  0  0
    6.9124    0.5833   26.4093 H   0  0  0  0  0  0  0  0  0  0  0  0
    5.5476    1.0903   25.4195 H   0  0  0  0  0  0  0  0  0  0  0  0
    7.0947    0.1757   24.3255 C   0  0  0  0  0  0  0  0  0  0  0  0
    6.6709    0.3610   23.1157 N   0  0  0  0  0  0  0  0  0  0  0  0
    7.3205   -0.4981   22.2791 N   0  0  0  0  0  0  0  0  0  0  0  0
    7.4218   -0.6928   20.9185 C   0  0  0  0  0  0  0  0  0  0  0  0
    6.6483    0.0131   19.8927 C   0  0  0  0  0  0  0  0  0  0  0  0
    7.1639    0.0398   18.5856 C   0  0  0  0  0  0  0  0  0  0  0  0
    8.1069   -0.4572   18.3586 H   0  0  0  0  0  0  0  0  0  0  0  0
    6.5614    0.6621   17.5710 N   0  0  0  0  0  0  0  0  0  0  0  0
    5.4039    1.2895   17.8290 C   0  0  0  0  0  0  0  0  0  0  0  0
    4.9412    1.7999   16.9868 H   0  0  0  0  0  0  0  0  0  0  0  0
    4.8005    1.3092   19.0900 C   0  0  0  0  0  0  0  0  0  0  0  0
    3.8668    1.8431   19.2272 H   0  0  0  0  0  0  0  0  0  0  0  0
    5.4305    0.6607   20.1508 C   0  0  0  0  0  0  0  0  0  0  0  0
    5.0018    0.6633   21.1528 H   0  0  0  0  0  0  0  0  0  0  0  0
    8.3379   -1.6061   20.6963 N   0  0  0  0  0  0  0  0  0  0  0  0
    8.8589   -2.0337   21.8984 N   0  0  0  0  0  0  0  0  0  0  0  0
    8.2432   -1.3411   22.8158 C   0  0  0  0  0  0  0  0  0  0  0  0
    8.2938   -1.1092   24.5376 S   0  0  0  0  0  0  0  0  0  0  0  0
  1  2  1  0
  2  3  1  0
  3  4  1  0
  3  5  1  0
  5  6  2  0
  5  7  1  0
  7  8  1  0
  7  9  1  0
  7 10  1  0
 10 11  1  0
 10 12  1  0
 10 13  1  0
 13 14  1  0
 13 15  1  0
 13 16  1  0
 16 17  1  0
 16 18  1  0
 16 19  1  0
 19 20  2  0
 20 21  1  0
 21 22  1  0
 22 23  1  0
 23 24  2  0
 24 25  1  0
 24 26  1  0
 26 27  2  0
 27 28  1  0
 27 29  1  0
 29 30  1  0
 29 31  2  0
 31 32  1  0
 22 33  2  0
 33 34  1  0
 34 35  2  0
 35 36  1  0
 36 19  1  0
 35 21  1  0
 31 23  1  0
M  END
>  <cnnaffinity>  (1) 
-5.25083

>  <filename>  (1) 
O=C(CCCCc1nn2c(-c3cccnc3)nnc2s1)NO

$$$$
