
     RDKit          3D

 34 36  0  0  0  0  0  0  0  0999 V2000
   13.8976    0.9266   25.6523 H   0  0  0  0  0  0  0  0  0  0  0  0
   13.2069    0.3043   25.4030 O   0  0  0  0  0  0  0  0  0  0  0  0
   12.6850    0.7575   24.2446 C   0  0  0  0  0  0  0  0  0  0  0  0
   13.1930    1.9038   23.6443 C   0  0  0  0  0  0  0  0  0  0  0  0
   13.9821    2.4731   24.1054 H   0  0  0  0  0  0  0  0  0  0  0  0
   12.6284    2.3340   22.4483 C   0  0  0  0  0  0  0  0  0  0  0  0
   13.0473    3.4799   21.8688 O   0  0  0  0  0  0  0  0  0  0  0  0
   13.8464    3.7452   22.3349 H   0  0  0  0  0  0  0  0  0  0  0  0
   11.6106    1.6341   21.8246 C   0  0  0  0  0  0  0  0  0  0  0  0
   11.2344    2.0170   20.8838 H   0  0  0  0  0  0  0  0  0  0  0  0
   11.0957    0.5019   22.4747 C   0  0  0  0  0  0  0  0  0  0  0  0
   10.0405   -0.1719   21.9542 N   0  0  0  0  0  0  0  0  0  0  0  0
    9.2824   -1.2915   22.4670 C   0  0  0  0  0  0  0  0  0  0  0  0
    8.7240   -1.0920   23.3871 H   0  0  0  0  0  0  0  0  0  0  0  0
    9.8950   -2.1937   22.6130 H   0  0  0  0  0  0  0  0  0  0  0  0
    8.4933   -1.2746   21.1310 C   0  0  0  0  0  0  0  0  0  0  0  0
    8.5176   -2.2325   20.6099 H   0  0  0  0  0  0  0  0  0  0  0  0
    7.0472   -0.8269   21.2303 C   0  0  0  0  0  0  0  0  0  0  0  0
    6.3937   -1.1176   22.2101 O   0  0  0  0  0  0  0  0  0  0  0  0
    6.4566   -0.0706   20.0880 C   0  0  0  0  0  0  0  0  0  0  0  0
    7.0961   -0.0760   18.8397 C   0  0  0  0  0  0  0  0  0  0  0  0
    8.0394   -0.5993   18.7001 H   0  0  0  0  0  0  0  0  0  0  0  0
    6.6493    0.5656   17.7613 N   0  0  0  0  0  0  0  0  0  0  0  0
    5.5130    1.2607   17.8863 C   0  0  0  0  0  0  0  0  0  0  0  0
    5.1770    1.7825   16.9934 H   0  0  0  0  0  0  0  0  0  0  0  0
    4.7859    1.3264   19.0803 C   0  0  0  0  0  0  0  0  0  0  0  0
    3.8739    1.9099   19.1055 H   0  0  0  0  0  0  0  0  0  0  0  0
    5.2529    0.6469   20.2043 C   0  0  0  0  0  0  0  0  0  0  0  0
    4.7052    0.6771   21.1499 H   0  0  0  0  0  0  0  0  0  0  0  0
    9.5016   -0.2088   20.6246 C   0  0  0  0  0  0  0  0  0  0  0  0
   10.1710   -0.5868   19.8448 H   0  0  0  0  0  0  0  0  0  0  0  0
    9.0932    0.7560   20.2959 H   0  0  0  0  0  0  0  0  0  0  0  0
   11.6318    0.0554   23.6897 C   0  0  0  0  0  0  0  0  0  0  0  0
   11.2200   -0.8008   24.2063 H   0  0  0  0  0  0  0  0  0  0  0  0
  1  2  1  0
  2  3  1  0
  3  4  2  0
  4  5  1  0
  4  6  1  0
  6  7  1  0
  7  8  1  0
  6  9  2  0
  9 10  1  0
  9 11  1  0
 11 12  1  0
 12 13  1  0
 13 14  1  0
 13 15  1  0
 13 16  1  0
 16 17  1  0
 16 18  1  0
 18 19  2  0
 18 20  1  0
 20 21  2  0
 21 22  1  0
 21 23  1  0
 23 24  2  0
 24 25  1  0
 24 26  1  0
 26 27  1  0
 26 28  2  0
 28 29  1  0
 16 30  1  0
 30 31  1  0
 30 32  1  0
 11 33  2  0
 33 34  1  0
 33  3  1  0
 30 12  1  0
 28 20  1  0
M  END
>  <cnnaffinity>  (1) 
-5.03674

>  <filename>  (1) 
O=C(c1cccnc1)C1CN(c2cc(O)cc(O)c2)C1

$$$$
