
     RDKit          3D

 43 45  0  0  0  0  0  0  0  0999 V2000
    4.9597    1.8121   16.9849 H   0  0  0  0  0  0  0  0  0  0  0  0
    5.4262    1.2871   17.8162 C   0  0  0  0  0  0  0  0  0  0  0  0
    6.5658    0.6348   17.5348 N   0  0  0  0  0  0  0  0  0  0  0  0
    7.1772   -0.0130   18.5351 C   0  0  0  0  0  0  0  0  0  0  0  0
    8.1050   -0.5266   18.2968 H   0  0  0  0  0  0  0  0  0  0  0  0
    6.6771   -0.0624   19.8513 C   0  0  0  0  0  0  0  0  0  0  0  0
    7.3429   -0.7906   20.9084 N   0  0  0  0  0  0  0  0  0  0  0  0
    6.6474   -1.8291   21.5310 C   0  0  0  0  0  0  0  0  0  0  0  0
    5.6476   -2.0303   21.1577 H   0  0  0  0  0  0  0  0  0  0  0  0
    7.1845   -2.5454   22.5405 C   0  0  0  0  0  0  0  0  0  0  0  0
    6.5102   -3.6276   23.1730 N   0  0  0  0  0  0  0  0  0  0  0  0
    6.9773   -4.0589   23.9585 H   0  0  0  0  0  0  0  0  0  0  0  0
    5.5988   -4.4861   22.5808 C   0  0  0  0  0  0  0  0  0  0  0  0
    5.2413   -4.4074   21.4220 O   0  0  0  0  0  0  0  0  0  0  0  0
    5.1778   -5.4544   23.4863 N   0  0  0  0  0  0  0  0  0  0  0  0
    5.0033   -5.0172   24.3794 H   0  0  0  0  0  0  0  0  0  0  0  0
    4.0911   -6.3416   23.0712 C   0  0  0  0  0  0  0  0  0  0  0  0
    4.4340   -6.8671   22.1675 H   0  0  0  0  0  0  0  0  0  0  0  0
    3.7621   -7.3831   24.1464 C   0  0  0  0  0  0  0  0  0  0  0  0
    4.6773   -7.9087   24.4510 H   0  0  0  0  0  0  0  0  0  0  0  0
    3.4050   -6.8409   25.0363 H   0  0  0  0  0  0  0  0  0  0  0  0
    2.6516   -8.3753   23.6627 C   0  0  0  0  0  0  0  0  0  0  0  0
    3.0837   -9.3431   23.4076 H   0  0  0  0  0  0  0  0  0  0  0  0
    1.9523   -8.5806   24.4858 H   0  0  0  0  0  0  0  0  0  0  0  0
    1.8769   -7.8715   22.4182 C   0  0  0  0  0  0  0  0  0  0  0  0
    2.5050   -8.0210   21.5250 H   0  0  0  0  0  0  0  0  0  0  0  0
    0.9623   -8.4612   22.2583 H   0  0  0  0  0  0  0  0  0  0  0  0
    1.5525   -6.3729   22.5382 C   0  0  0  0  0  0  0  0  0  0  0  0
    1.0159   -6.0286   21.6461 H   0  0  0  0  0  0  0  0  0  0  0  0
    0.8808   -6.2206   23.3961 H   0  0  0  0  0  0  0  0  0  0  0  0
    2.8272   -5.5159   22.7426 C   0  0  0  0  0  0  0  0  0  0  0  0
    2.6743   -4.8110   23.5754 H   0  0  0  0  0  0  0  0  0  0  0  0
    3.0743   -4.9070   21.8776 H   0  0  0  0  0  0  0  0  0  0  0  0
    8.5254   -2.1352   23.0564 C   0  0  0  0  0  0  0  0  0  0  0  0
    9.1133   -2.6320   23.9936 O   0  0  0  0  0  0  0  0  0  0  0  0
    9.1225   -1.1072   22.3829 N   0  0  0  0  0  0  0  0  0  0  0  0
   10.0377   -0.8406   22.6872 H   0  0  0  0  0  0  0  0  0  0  0  0
    8.6492   -0.4234   21.3122 C   0  0  0  0  0  0  0  0  0  0  0  0
    9.3247    0.4284   20.7848 O   0  0  0  0  0  0  0  0  0  0  0  0
    5.4764    0.6001   20.1231 C   0  0  0  0  0  0  0  0  0  0  0  0
    5.0682    0.5568   21.1344 H   0  0  0  0  0  0  0  0  0  0  0  0
    4.8433    1.2995   19.0892 C   0  0  0  0  0  0  0  0  0  0  0  0
    3.9196    1.8442   19.2574 H   0  0  0  0  0  0  0  0  0  0  0  0
  1  2  1  0
  2  3  2  0
  3  4  1  0
  4  5  1  0
  4  6  2  0
  6  7  1  0
  7  8  1  0
  8  9  1  0
  8 10  2  0
 10 11  1  0
 11 12  1  0
 11 13  1  0
 13 14  2  0
 13 15  1  0
 15 16  1  0
 15 17  1  0
 17 18  1  0
 17 19  1  0
 19 20  1  0
 19 21  1  0
 19 22  1  0
 22 23  1  0
 22 24  1  0
 22 25  1  0
 25 26  1  0
 25 27  1  0
 25 28  1  0
 28 29  1  0
 28 30  1  0
 28 31  1  0
 31 32  1  0
 31 33  1  0
 10 34  1  0
 34 35  2  0
 34 36  1  0
 36 37  1  0
 36 38  1  0
 38 39  2  0
  6 40  1  0
 40 41  1  0
 40 42  2  0
 42 43  1  0
 42  2  1  0
 38  7  1  0
 31 17  1  0
M  END
>  <cnnaffinity>  (1) 
-5.57458

>  <filename>  (1) 
O=C(Nc1cn(-c2cccnc2)c(=O)[nH]c1=O)NC1CCCCC1

$$$$
