
     RDKit          3D

 34 36  0  0  0  0  0  0  0  0999 V2000
    5.0237    1.7446   17.0249 H   0  0  0  0  0  0  0  0  0  0  0  0
    5.4848    1.2406   17.8720 C   0  0  0  0  0  0  0  0  0  0  0  0
    6.6451    0.6065   17.6302 N   0  0  0  0  0  0  0  0  0  0  0  0
    7.2398   -0.0131   18.6525 C   0  0  0  0  0  0  0  0  0  0  0  0
    8.1793   -0.5177   18.4533 H   0  0  0  0  0  0  0  0  0  0  0  0
    6.7133   -0.0426   19.9529 C   0  0  0  0  0  0  0  0  0  0  0  0
    7.4121   -0.7287   20.9739 N   0  0  0  0  0  0  0  0  0  0  0  0
    8.7399   -0.9736   20.9056 N   0  0  0  0  0  0  0  0  0  0  0  0
    9.0397   -1.5792   22.0489 C   0  0  0  0  0  0  0  0  0  0  0  0
   10.0539   -1.8995   22.2474 H   0  0  0  0  0  0  0  0  0  0  0  0
    7.8859   -1.7403   22.8613 C   0  0  0  0  0  0  0  0  0  0  0  0
    7.6937   -2.3019   24.1440 N   0  0  0  0  0  0  0  0  0  0  0  0
    8.4966   -2.5975   24.6684 H   0  0  0  0  0  0  0  0  0  0  0  0
    6.4959   -2.8567   24.5675 C   0  0  0  0  0  0  0  0  0  0  0  0
    5.4946   -2.9721   23.8913 O   0  0  0  0  0  0  0  0  0  0  0  0
    6.6046   -3.2694   25.8725 N   0  0  0  0  0  0  0  0  0  0  0  0
    7.3622   -2.8613   26.3884 H   0  0  0  0  0  0  0  0  0  0  0  0
    5.5591   -3.8599   26.6052 C   0  0  0  0  0  0  0  0  0  0  0  0
    5.3635   -3.4880   27.9367 C   0  0  0  0  0  0  0  0  0  0  0  0
    5.9183   -2.6454   28.3221 H   0  0  0  0  0  0  0  0  0  0  0  0
    4.4012   -4.1284   28.7231 C   0  0  0  0  0  0  0  0  0  0  0  0
    4.2787   -3.8534   29.7678 H   0  0  0  0  0  0  0  0  0  0  0  0
    3.6165   -5.1321   28.1444 C   0  0  0  0  0  0  0  0  0  0  0  0
    2.4728   -6.0013   29.1209 Cl  0  0  0  0  0  0  0  0  0  0  0  0
    3.7680   -5.4751   26.7978 C   0  0  0  0  0  0  0  0  0  0  0  0
    3.1546   -6.2591   26.3627 H   0  0  0  0  0  0  0  0  0  0  0  0
    4.7347   -4.8319   26.0269 C   0  0  0  0  0  0  0  0  0  0  0  0
    4.8784   -5.0689   24.9821 H   0  0  0  0  0  0  0  0  0  0  0  0
    6.8752   -1.2085   22.1220 C   0  0  0  0  0  0  0  0  0  0  0  0
    5.8273   -1.2467   22.3404 H   0  0  0  0  0  0  0  0  0  0  0  0
    5.5025    0.6188   20.2040 C   0  0  0  0  0  0  0  0  0  0  0  0
    5.0751    0.6520   21.2082 H   0  0  0  0  0  0  0  0  0  0  0  0
    4.8813    1.2674   19.1339 C   0  0  0  0  0  0  0  0  0  0  0  0
    3.9475    1.8015   19.2699 H   0  0  0  0  0  0  0  0  0  0  0  0
  1  2  1  0
  2  3  2  0
  3  4  1  0
  4  5  1  0
  4  6  2  0
  6  7  1  0
  7  8  1  0
  8  9  2  0
  9 10  1  0
  9 11  1  0
 11 12  1  0
 12 13  1  0
 12 14  1  0
 14 15  2  0
 14 16  1  0
 16 17  1  0
 16 18  1  0
 18 19  2  0
 19 20  1  0
 19 21  1  0
 21 22  1  0
 21 23  2  0
 23 24  1  0
 23 25  1  0
 25 26  1  0
 25 27  2  0
 27 28  1  0
 11 29  2  0
 29 30  1  0
  6 31  1  0
 31 32  1  0
 31 33  2  0
 33 34  1  0
 33  2  1  0
 29  7  1  0
 27 18  1  0
M  END
>  <cnnaffinity>  (1) 
-5.34875

>  <filename>  (1) 
O=C(Nc1ccc(Cl)cc1)Nc1cnn(-c2cccnc2)c1

$$$$
