
     RDKit          3D

 34 36  0  0  0  0  0  0  0  0999 V2000
    5.0534    1.7611   16.8397 H   0  0  0  0  0  0  0  0  0  0  0  0
    5.4364    1.2906   17.7416 C   0  0  0  0  0  0  0  0  0  0  0  0
    6.5923    0.6222   17.6166 N   0  0  0  0  0  0  0  0  0  0  0  0
    7.0896    0.0395   18.7135 C   0  0  0  0  0  0  0  0  0  0  0  0
    8.0464   -0.4648   18.5601 H   0  0  0  0  0  0  0  0  0  0  0  0
    6.4673    0.0829   19.9653 C   0  0  0  0  0  0  0  0  0  0  0  0
    7.0981   -0.5059   21.1819 C   0  0  0  0  0  0  0  0  0  0  0  0
    6.9587   -0.0095   22.2841 O   0  0  0  0  0  0  0  0  0  0  0  0
    7.8316   -1.6583   20.9677 N   0  0  0  0  0  0  0  0  0  0  0  0
    7.7790   -2.0435   20.0383 H   0  0  0  0  0  0  0  0  0  0  0  0
    8.5961   -2.3348   21.9815 C   0  0  0  0  0  0  0  0  0  0  0  0
    7.9589   -2.8762   23.0473 C   0  0  0  0  0  0  0  0  0  0  0  0
    6.8816   -2.7617   23.1717 H   0  0  0  0  0  0  0  0  0  0  0  0
    8.6320   -3.5515   24.0761 N   0  0  0  0  0  0  0  0  0  0  0  0
    7.9519   -3.8432   25.3237 C   0  0  0  0  0  0  0  0  0  0  0  0
    7.4230   -2.8139   26.1328 C   0  0  0  0  0  0  0  0  0  0  0  0
    7.5356   -1.7673   25.8526 H   0  0  0  0  0  0  0  0  0  0  0  0
    6.7951   -3.0387   27.2899 N   0  0  0  0  0  0  0  0  0  0  0  0
    6.6557   -4.3051   27.6999 C   0  0  0  0  0  0  0  0  0  0  0  0
    6.1486   -4.4424   28.6515 H   0  0  0  0  0  0  0  0  0  0  0  0
    7.1404   -5.3970   26.9786 C   0  0  0  0  0  0  0  0  0  0  0  0
    7.0003   -6.4027   27.3617 H   0  0  0  0  0  0  0  0  0  0  0  0
    7.8133   -5.1624   25.7736 C   0  0  0  0  0  0  0  0  0  0  0  0
    8.2383   -5.9813   25.1996 H   0  0  0  0  0  0  0  0  0  0  0  0
   10.0080   -3.8556   23.9362 C   0  0  0  0  0  0  0  0  0  0  0  0
   10.6445   -4.6517   24.5817 O   0  0  0  0  0  0  0  0  0  0  0  0
   10.6327   -3.1153   22.9836 N   0  0  0  0  0  0  0  0  0  0  0  0
   11.6242   -3.2162   22.9377 H   0  0  0  0  0  0  0  0  0  0  0  0
   10.1034   -2.3128   22.0059 C   0  0  0  0  0  0  0  0  0  0  0  0
   10.8755   -1.7060   21.3007 O   0  0  0  0  0  0  0  0  0  0  0  0
    5.2586    0.7916   20.0821 C   0  0  0  0  0  0  0  0  0  0  0  0
    4.7663    0.8734   21.0540 H   0  0  0  0  0  0  0  0  0  0  0  0
    4.7274    1.3893   18.9436 C   0  0  0  0  0  0  0  0  0  0  0  0
    3.8007    1.9531   18.9827 H   0  0  0  0  0  0  0  0  0  0  0  0
  1  2  1  0
  2  3  2  0
  3  4  1  0
  4  5  1  0
  4  6  2  0
  6  7  1  0
  7  8  2  0
  7  9  1  0
  9 10  1  0
  9 11  1  0
 11 12  2  0
 12 13  1  0
 12 14  1  0
 14 15  1  0
 15 16  2  0
 16 17  1  0
 16 18  1  0
 18 19  2  0
 19 20  1  0
 19 21  1  0
 21 22  1  0
 21 23  2  0
 23 24  1  0
 14 25  1  0
 25 26  2  0
 25 27  1  0
 27 28  1  0
 27 29  1  0
 29 30  2  0
  6 31  1  0
 31 32  1  0
 31 33  2  0
 33 34  1  0
 33  2  1  0
 29 11  1  0
 23 15  1  0
M  END
>  <cnnaffinity>  (1) 
-6.00623

>  <filename>  (1) 
O=C(Nc1cn(-c2cccnc2)c(=O)[nH]c1=O)c1cccnc1

$$$$
