
     RDKit          3D

 37 39  0  0  0  0  0  0  0  0999 V2000
    4.9611    1.8172   16.9848 H   0  0  0  0  0  0  0  0  0  0  0  0
    5.4319    1.2822   17.8066 C   0  0  0  0  0  0  0  0  0  0  0  0
    6.5648    0.6249   17.5123 N   0  0  0  0  0  0  0  0  0  0  0  0
    7.1868   -0.0163   18.5092 C   0  0  0  0  0  0  0  0  0  0  0  0
    8.1070   -0.5383   18.2617 H   0  0  0  0  0  0  0  0  0  0  0  0
    6.7130   -0.0423   19.8348 C   0  0  0  0  0  0  0  0  0  0  0  0
    7.4067   -0.7452   20.8923 N   0  0  0  0  0  0  0  0  0  0  0  0
    6.7182   -1.7822   21.5147 C   0  0  0  0  0  0  0  0  0  0  0  0
    5.7215   -1.9964   21.1428 H   0  0  0  0  0  0  0  0  0  0  0  0
    7.2625   -2.5029   22.5222 C   0  0  0  0  0  0  0  0  0  0  0  0
    6.6049   -3.6149   23.1141 N   0  0  0  0  0  0  0  0  0  0  0  0
    7.0756   -4.0675   23.8836 H   0  0  0  0  0  0  0  0  0  0  0  0
    5.5111   -4.2918   22.5978 C   0  0  0  0  0  0  0  0  0  0  0  0
    5.0273   -4.0611   21.5062 O   0  0  0  0  0  0  0  0  0  0  0  0
    5.0322   -5.2344   23.4722 N   0  0  0  0  0  0  0  0  0  0  0  0
    5.5127   -5.3610   24.3468 H   0  0  0  0  0  0  0  0  0  0  0  0
    3.9242   -6.0645   23.1932 C   0  0  0  0  0  0  0  0  0  0  0  0
    2.8422   -5.5796   22.4406 C   0  0  0  0  0  0  0  0  0  0  0  0
    2.8664   -4.5545   22.1062 H   0  0  0  0  0  0  0  0  0  0  0  0
    1.7724   -6.4192   22.1367 C   0  0  0  0  0  0  0  0  0  0  0  0
    0.9548   -6.0283   21.5341 H   0  0  0  0  0  0  0  0  0  0  0  0
    1.7586   -7.7365   22.6068 C   0  0  0  0  0  0  0  0  0  0  0  0
    0.9118   -8.3745   22.3742 H   0  0  0  0  0  0  0  0  0  0  0  0
    2.8233   -8.2112   23.3816 C   0  0  0  0  0  0  0  0  0  0  0  0
    2.8015   -9.2354   23.7477 H   0  0  0  0  0  0  0  0  0  0  0  0
    3.9101   -7.3777   23.6777 C   0  0  0  0  0  0  0  0  0  0  0  0
    4.7592   -7.7424   24.2509 H   0  0  0  0  0  0  0  0  0  0  0  0
    8.5948   -2.0870   23.0590 C   0  0  0  0  0  0  0  0  0  0  0  0
    9.1733   -2.5879   24.0003 O   0  0  0  0  0  0  0  0  0  0  0  0
    9.1851   -1.0504   22.3844 N   0  0  0  0  0  0  0  0  0  0  0  0
   10.0892   -0.7701   22.7070 H   0  0  0  0  0  0  0  0  0  0  0  0
    8.7144   -0.3739   21.2968 C   0  0  0  0  0  0  0  0  0  0  0  0
    9.3932    0.4609   20.7500 O   0  0  0  0  0  0  0  0  0  0  0  0
    5.5034    0.5995   20.1151 C   0  0  0  0  0  0  0  0  0  0  0  0
    5.0932    0.5398   21.1245 H   0  0  0  0  0  0  0  0  0  0  0  0
    4.8622    1.2928   19.0843 C   0  0  0  0  0  0  0  0  0  0  0  0
    3.9378    1.8300   19.2572 H   0  0  0  0  0  0  0  0  0  0  0  0
  1  2  1  0
  2  3  2  0
  3  4  1  0
  4  5  1  0
  4  6  2  0
  6  7  1  0
  7  8  1  0
  8  9  1  0
  8 10  2  0
 10 11  1  0
 11 12  1  0
 11 13  1  0
 13 14  2  0
 13 15  1  0
 15 16  1  0
 15 17  1  0
 17 18  2  0
 18 19  1  0
 18 20  1  0
 20 21  1  0
 20 22  2  0
 22 23  1  0
 22 24  1  0
 24 25  1  0
 24 26  2  0
 26 27  1  0
 10 28  1  0
 28 29  2  0
 28 30  1  0
 30 31  1  0
 30 32  1  0
 32 33  2  0
  6 34  1  0
 34 35  1  0
 34 36  2  0
 36 37  1  0
 36  2  1  0
 32  7  1  0
 26 17  1  0
M  END
>  <cnnaffinity>  (1) 
-5.54822

>  <filename>  (1) 
O=C(Nc1ccccc1)Nc1cn(-c2cccnc2)c(=O)[nH]c1=O

$$$$
