
     RDKit          3D

 35 38  0  0  0  0  0  0  0  0999 V2000
    5.0322    1.7710   16.9149 H   0  0  0  0  0  0  0  0  0  0  0  0
    5.4726    1.2977   17.7891 C   0  0  0  0  0  0  0  0  0  0  0  0
    6.6390    0.6595   17.6007 N   0  0  0  0  0  0  0  0  0  0  0  0
    7.2013    0.0719   18.6592 C   0  0  0  0  0  0  0  0  0  0  0  0
    8.1263   -0.4664   18.4623 H   0  0  0  0  0  0  0  0  0  0  0  0
    6.6655    0.1207   19.9589 C   0  0  0  0  0  0  0  0  0  0  0  0
    7.4075   -0.5300   21.0387 C   0  0  0  0  0  0  0  0  0  0  0  0
    8.1192   -1.6857   20.8095 N   0  0  0  0  0  0  0  0  0  0  0  0
    8.5480   -2.0495   21.9909 C   0  0  0  0  0  0  0  0  0  0  0  0
    9.3860   -3.3988   22.7357 S   0  0  0  0  0  0  0  0  0  0  0  0
    9.2422   -2.6500   24.3217 C   0  0  0  0  0  0  0  0  0  0  0  0
    9.6386   -3.1474   25.1973 H   0  0  0  0  0  0  0  0  0  0  0  0
    8.5953   -1.4770   24.2636 C   0  0  0  0  0  0  0  0  0  0  0  0
    8.3345   -0.7746   25.0468 H   0  0  0  0  0  0  0  0  0  0  0  0
    8.2057   -1.1691   22.9729 N   0  0  0  0  0  0  0  0  0  0  0  0
    7.4899   -0.1682   22.3745 C   0  0  0  0  0  0  0  0  0  0  0  0
    6.9194    0.9448   23.1367 C   0  0  0  0  0  0  0  0  0  0  0  0
    6.4190    0.7950   24.2442 O   0  0  0  0  0  0  0  0  0  0  0  0
    6.9728    2.1769   22.5389 N   0  0  0  0  0  0  0  0  0  0  0  0
    8.0564    2.7026   21.6951 C   0  0  0  0  0  0  0  0  0  0  0  0
    9.0099    2.2117   21.8988 H   0  0  0  0  0  0  0  0  0  0  0  0
    7.8261    2.5164   20.6402 H   0  0  0  0  0  0  0  0  0  0  0  0
    8.0448    4.1969   22.0527 C   0  0  0  0  0  0  0  0  0  0  0  0
    8.4808    4.8535   21.3007 H   0  0  0  0  0  0  0  0  0  0  0  0
    8.5941    4.3704   22.9890 H   0  0  0  0  0  0  0  0  0  0  0  0
    6.5578    4.4662   22.2412 C   0  0  0  0  0  0  0  0  0  0  0  0
    6.3462    5.4087   22.7540 H   0  0  0  0  0  0  0  0  0  0  0  0
    6.0635    4.4918   21.2597 H   0  0  0  0  0  0  0  0  0  0  0  0
    6.1068    3.2504   23.0393 C   0  0  0  0  0  0  0  0  0  0  0  0
    6.2466    3.3843   24.1180 H   0  0  0  0  0  0  0  0  0  0  0  0
    5.0543    3.0008   22.8905 H   0  0  0  0  0  0  0  0  0  0  0  0
    5.4235    0.7594   20.1293 C   0  0  0  0  0  0  0  0  0  0  0  0
    4.9207    0.7715   21.0981 H   0  0  0  0  0  0  0  0  0  0  0  0
    4.8214    1.3544   19.0239 C   0  0  0  0  0  0  0  0  0  0  0  0
    3.8662    1.8641   19.1082 H   0  0  0  0  0  0  0  0  0  0  0  0
  1  2  1  0
  2  3  2  0
  3  4  1  0
  4  5  1  0
  4  6  2  0
  6  7  1  0
  7  8  1  0
  8  9  2  0
  9 10  1  0
 10 11  1  0
 11 12  1  0
 11 13  2  0
 13 14  1  0
 13 15  1  0
 15 16  1  0
 16 17  1  0
 17 18  2  0
 17 19  1  0
 19 20  1  0
 20 21  1  0
 20 22  1  0
 20 23  1  0
 23 24  1  0
 23 25  1  0
 23 26  1  0
 26 27  1  0
 26 28  1  0
 26 29  1  0
 29 30  1  0
 29 31  1  0
  6 32  1  0
 32 33  1  0
 32 34  2  0
 34 35  1  0
 34  2  1  0
 16  7  2  0
 29 19  1  0
 15  9  1  0
M  END
>  <cnnaffinity>  (1) 
-5.13886

>  <filename>  (1) 
O=C(c1c(-c2cccnc2)nc2sccn12)N1CCCC1

$$$$
