
     RDKit          3D

 42 45  0  0  0  0  0  0  0  0999 V2000
    4.9899    1.8394   16.8965 H   0  0  0  0  0  0  0  0  0  0  0  0
    5.4228    1.2893   17.7305 C   0  0  0  0  0  0  0  0  0  0  0  0
    6.5654    0.6297   17.4875 N   0  0  0  0  0  0  0  0  0  0  0  0
    7.1460   -0.0135   18.5064 C   0  0  0  0  0  0  0  0  0  0  0  0
    8.0697   -0.5371   18.2696 H   0  0  0  0  0  0  0  0  0  0  0  0
    6.6245   -0.0326   19.8147 C   0  0  0  0  0  0  0  0  0  0  0  0
    7.3852   -0.6216   20.9337 C   0  0  0  0  0  0  0  0  0  0  0  0
    8.5477   -1.2713   20.7342 N   0  0  0  0  0  0  0  0  0  0  0  0
    8.9721   -1.5104   21.9919 N   0  0  0  0  0  0  0  0  0  0  0  0
   10.1063   -2.0772   22.5579 C   0  0  0  0  0  0  0  0  0  0  0  0
   10.8558   -2.5369   21.9375 H   0  0  0  0  0  0  0  0  0  0  0  0
    9.9828   -1.9040   23.8978 C   0  0  0  0  0  0  0  0  0  0  0  0
   10.6332   -2.1786   24.7154 H   0  0  0  0  0  0  0  0  0  0  0  0
    8.7916   -1.2393   24.1444 N   0  0  0  0  0  0  0  0  0  0  0  0
    8.3651   -0.7859   25.3792 N   0  0  0  0  0  0  0  0  0  0  0  0
    8.8858    0.0121   25.7196 H   0  0  0  0  0  0  0  0  0  0  0  0
    6.9962   -0.6581   25.6250 C   0  0  0  0  0  0  0  0  0  0  0  0
    6.1709   -1.3591   25.0792 O   0  0  0  0  0  0  0  0  0  0  0  0
    6.6489    0.3946   26.6714 C   0  0  0  0  0  0  0  0  0  0  0  0
    7.5334    1.0022   26.9053 H   0  0  0  0  0  0  0  0  0  0  0  0
    5.5416    1.3539   26.1833 C   0  0  0  0  0  0  0  0  0  0  0  0
    5.8778    1.9145   25.2982 H   0  0  0  0  0  0  0  0  0  0  0  0
    4.6879    0.7404   25.8656 H   0  0  0  0  0  0  0  0  0  0  0  0
    5.1136    2.3232   27.2946 C   0  0  0  0  0  0  0  0  0  0  0  0
    4.2725    2.9300   26.9399 H   0  0  0  0  0  0  0  0  0  0  0  0
    5.9378    3.0221   27.5072 H   0  0  0  0  0  0  0  0  0  0  0  0
    4.7254    1.5846   28.5877 C   0  0  0  0  0  0  0  0  0  0  0  0
    4.4582    2.3027   29.3728 H   0  0  0  0  0  0  0  0  0  0  0  0
    3.8216    0.9840   28.3996 H   0  0  0  0  0  0  0  0  0  0  0  0
    5.8445    0.6465   29.0676 C   0  0  0  0  0  0  0  0  0  0  0  0
    5.5299    0.0976   29.9627 H   0  0  0  0  0  0  0  0  0  0  0  0
    6.7240    1.2408   29.3603 H   0  0  0  0  0  0  0  0  0  0  0  0
    6.2266   -0.3389   27.9604 C   0  0  0  0  0  0  0  0  0  0  0  0
    5.3647   -0.9730   27.7132 H   0  0  0  0  0  0  0  0  0  0  0  0
    7.0277   -1.0149   28.2687 H   0  0  0  0  0  0  0  0  0  0  0  0
    8.1591   -1.0262   22.9418 C   0  0  0  0  0  0  0  0  0  0  0  0
    7.0556   -0.4757   22.2975 C   0  0  0  0  0  0  0  0  0  0  0  0
    6.1477   -0.1290   22.7526 H   0  0  0  0  0  0  0  0  0  0  0  0
    5.4007    0.6189   20.0337 C   0  0  0  0  0  0  0  0  0  0  0  0
    4.9319    0.5916   21.0178 H   0  0  0  0  0  0  0  0  0  0  0  0
    4.7971    1.2982   18.9803 C   0  0  0  0  0  0  0  0  0  0  0  0
    3.8764    1.8504   19.1240 H   0  0  0  0  0  0  0  0  0  0  0  0
  1  2  1  0
  2  3  2  0
  3  4  1  0
  4  5  1  0
  4  6  2  0
  6  7  1  0
  7  8  2  0
  8  9  1  0
  9 10  1  0
 10 11  1  0
 10 12  2  0
 12 13  1  0
 12 14  1  0
 14 15  1  0
 15 16  1  0
 15 17  1  0
 17 18  2  0
 17 19  1  0
 19 20  1  0
 19 21  1  0
 21 22  1  0
 21 23  1  0
 21 24  1  0
 24 25  1  0
 24 26  1  0
 24 27  1  0
 27 28  1  0
 27 29  1  0
 27 30  1  0
 30 31  1  0
 30 32  1  0
 30 33  1  0
 33 34  1  0
 33 35  1  0
 14 36  1  0
 36 37  2  0
 37 38  1  0
  6 39  1  0
 39 40  1  0
 39 41  2  0
 41 42  1  0
 41  2  1  0
 37  7  1  0
 36  9  1  0
 33 19  1  0
M  END
>  <cnnaffinity>  (1) 
-5.68291

>  <filename>  (1) 
O=C(Nn1ccn2nc(-c3cccnc3)cc12)C1CCCCC1

$$$$
