
     RDKit          3D

 37 39  0  0  0  0  0  0  0  0999 V2000
    4.9849    1.7839   16.9783 H   0  0  0  0  0  0  0  0  0  0  0  0
    5.4246    1.2974   17.8472 C   0  0  0  0  0  0  0  0  0  0  0  0
    6.5849    0.6547   17.6430 N   0  0  0  0  0  0  0  0  0  0  0  0
    7.1488    0.0450   18.6867 C   0  0  0  0  0  0  0  0  0  0  0  0
    8.0821   -0.4820   18.4933 H   0  0  0  0  0  0  0  0  0  0  0  0
    6.6081    0.0656   19.9752 C   0  0  0  0  0  0  0  0  0  0  0  0
    7.3482   -0.6848   20.9988 C   0  0  0  0  0  0  0  0  0  0  0  0
    8.0066   -1.7456   20.7290 N   0  0  0  0  0  0  0  0  0  0  0  0
    8.5344   -2.2714   21.9840 C   0  0  0  0  0  0  0  0  0  0  0  0
    9.5990   -2.4982   21.8642 H   0  0  0  0  0  0  0  0  0  0  0  0
    8.0122   -3.2069   22.2226 H   0  0  0  0  0  0  0  0  0  0  0  0
    8.2771   -1.1823   23.0466 C   0  0  0  0  0  0  0  0  0  0  0  0
    9.2044   -0.6556   23.3288 H   0  0  0  0  0  0  0  0  0  0  0  0
    7.8249   -1.5682   23.9699 H   0  0  0  0  0  0  0  0  0  0  0  0
    7.3568   -0.2832   22.3300 N   0  0  0  0  0  0  0  0  0  0  0  0
    7.2763    1.0952   22.7244 C   0  0  0  0  0  0  0  0  0  0  0  0
    8.1474    1.3998   23.3301 H   0  0  0  0  0  0  0  0  0  0  0  0
    7.2588    1.7878   21.8728 H   0  0  0  0  0  0  0  0  0  0  0  0
    6.0660    1.1868   23.4828 N   0  0  0  0  0  0  0  0  0  0  0  0
    5.6070    0.3079   23.6188 H   0  0  0  0  0  0  0  0  0  0  0  0
    5.6310    2.3555   24.0005 C   0  0  0  0  0  0  0  0  0  0  0  0
    6.2055    3.4036   23.7381 O   0  0  0  0  0  0  0  0  0  0  0  0
    4.4051    2.3248   24.8882 C   0  0  0  0  0  0  0  0  0  0  0  0
    4.0304    1.2142   25.6685 C   0  0  0  0  0  0  0  0  0  0  0  0
    4.6169    0.2949   25.6684 H   0  0  0  0  0  0  0  0  0  0  0  0
    2.9131    1.2875   26.5052 C   0  0  0  0  0  0  0  0  0  0  0  0
    2.6480    0.4278   27.1145 H   0  0  0  0  0  0  0  0  0  0  0  0
    2.1556    2.4611   26.5751 C   0  0  0  0  0  0  0  0  0  0  0  0
    1.2950    2.5135   27.2364 H   0  0  0  0  0  0  0  0  0  0  0  0
    2.5285    3.5738   25.8144 C   0  0  0  0  0  0  0  0  0  0  0  0
    1.9568    4.4952   25.8847 H   0  0  0  0  0  0  0  0  0  0  0  0
    3.6486    3.5117   24.9866 C   0  0  0  0  0  0  0  0  0  0  0  0
    3.9569    4.3911   24.4219 H   0  0  0  0  0  0  0  0  0  0  0  0
    5.3909    0.7316   20.1798 C   0  0  0  0  0  0  0  0  0  0  0  0
    4.9341    0.7686   21.1686 H   0  0  0  0  0  0  0  0  0  0  0  0
    4.7820    1.3467   19.0882 C   0  0  0  0  0  0  0  0  0  0  0  0
    3.8366    1.8664   19.1899 H   0  0  0  0  0  0  0  0  0  0  0  0
  1  2  1  0
  2  3  2  0
  3  4  1  0
  4  5  1  0
  4  6  2  0
  6  7  1  0
  7  8  2  0
  8  9  1  0
  9 10  1  0
  9 11  1  0
  9 12  1  0
 12 13  1  0
 12 14  1  0
 12 15  1  0
 15 16  1  0
 16 17  1  0
 16 18  1  0
 16 19  1  0
 19 20  1  0
 19 21  1  0
 21 22  2  0
 21 23  1  0
 23 24  2  0
 24 25  1  0
 24 26  1  0
 26 27  1  0
 26 28  2  0
 28 29  1  0
 28 30  1  0
 30 31  1  0
 30 32  2  0
 32 33  1  0
  6 34  1  0
 34 35  1  0
 34 36  2  0
 36 37  1  0
 36  2  1  0
 15  7  1  0
 32 23  1  0
M  END
>  <cnnaffinity>  (1) 
-4.76073

>  <filename>  (1) 
O=C(NCN1CCN=C1c1cccnc1)c1ccccc1

$$$$
