
     RDKit          3D

 37 40  0  0  0  0  0  0  0  0999 V2000
    4.9565    1.8094   16.9683 H   0  0  0  0  0  0  0  0  0  0  0  0
    5.4005    1.2927   17.8160 C   0  0  0  0  0  0  0  0  0  0  0  0
    6.5564    0.6505   17.5804 N   0  0  0  0  0  0  0  0  0  0  0  0
    7.1517    0.0444   18.6119 C   0  0  0  0  0  0  0  0  0  0  0  0
    8.0828   -0.4759   18.3907 H   0  0  0  0  0  0  0  0  0  0  0  0
    6.6402    0.0635   19.9255 C   0  0  0  0  0  0  0  0  0  0  0  0
    7.3833   -0.5634   21.0151 C   0  0  0  0  0  0  0  0  0  0  0  0
    8.1370   -1.6967   20.7843 N   0  0  0  0  0  0  0  0  0  0  0  0
    8.6098   -2.0102   21.9558 C   0  0  0  0  0  0  0  0  0  0  0  0
    9.6952   -3.2085   22.5928 S   0  0  0  0  0  0  0  0  0  0  0  0
    9.6245   -2.4687   24.1700 C   0  0  0  0  0  0  0  0  0  0  0  0
   10.2407   -2.8762   24.9581 H   0  0  0  0  0  0  0  0  0  0  0  0
    8.7978   -1.4167   24.2088 C   0  0  0  0  0  0  0  0  0  0  0  0
    8.5016   -0.8217   25.0624 H   0  0  0  0  0  0  0  0  0  0  0  0
    8.2323   -1.1523   22.9607 N   0  0  0  0  0  0  0  0  0  0  0  0
    7.4582   -0.1866   22.3592 C   0  0  0  0  0  0  0  0  0  0  0  0
    6.9964    0.8919   23.1107 N   0  0  0  0  0  0  0  0  0  0  0  0
    6.8057    1.7642   22.6488 H   0  0  0  0  0  0  0  0  0  0  0  0
    6.3394    0.7736   24.3288 C   0  0  0  0  0  0  0  0  0  0  0  0
    6.1328   -0.2721   24.8978 O   0  0  0  0  0  0  0  0  0  0  0  0
    5.9687    2.0219   24.7669 N   0  0  0  0  0  0  0  0  0  0  0  0
    6.5758    2.7497   24.4374 H   0  0  0  0  0  0  0  0  0  0  0  0
    5.2706    2.2258   25.9753 C   0  0  0  0  0  0  0  0  0  0  0  0
    4.1808    1.4010   26.2769 C   0  0  0  0  0  0  0  0  0  0  0  0
    3.9512    0.5913   25.5952 H   0  0  0  0  0  0  0  0  0  0  0  0
    3.4415    1.6043   27.4401 C   0  0  0  0  0  0  0  0  0  0  0  0
    2.5889    0.9699   27.6657 H   0  0  0  0  0  0  0  0  0  0  0  0
    3.8175    2.6255   28.3186 C   0  0  0  0  0  0  0  0  0  0  0  0
    2.8990    2.8636   29.7795 Cl  0  0  0  0  0  0  0  0  0  0  0  0
    4.9172    3.4428   28.0391 C   0  0  0  0  0  0  0  0  0  0  0  0
    5.1999    4.2167   28.7457 H   0  0  0  0  0  0  0  0  0  0  0  0
    5.6415    3.2466   26.8552 C   0  0  0  0  0  0  0  0  0  0  0  0
    6.5078    3.8638   26.6370 H   0  0  0  0  0  0  0  0  0  0  0  0
    5.4022    0.6959   20.1377 C   0  0  0  0  0  0  0  0  0  0  0  0
    4.9335    0.6648   21.1221 H   0  0  0  0  0  0  0  0  0  0  0  0
    4.7747    1.3240   19.0659 C   0  0  0  0  0  0  0  0  0  0  0  0
    3.8379    1.8583   19.1879 H   0  0  0  0  0  0  0  0  0  0  0  0
  1  2  1  0
  2  3  2  0
  3  4  1  0
  4  5  1  0
  4  6  2  0
  6  7  1  0
  7  8  1  0
  8  9  2  0
  9 10  1  0
 10 11  1  0
 11 12  1  0
 11 13  2  0
 13 14  1  0
 13 15  1  0
 15 16  1  0
 16 17  1  0
 17 18  1  0
 17 19  1  0
 19 20  2  0
 19 21  1  0
 21 22  1  0
 21 23  1  0
 23 24  2  0
 24 25  1  0
 24 26  1  0
 26 27  1  0
 26 28  2  0
 28 29  1  0
 28 30  1  0
 30 31  1  0
 30 32  2  0
 32 33  1  0
  6 34  1  0
 34 35  1  0
 34 36  2  0
 36 37  1  0
 36  2  1  0
 16  7  2  0
 32 23  1  0
 15  9  1  0
M  END
>  <cnnaffinity>  (1) 
-5.7085

>  <filename>  (1) 
O=C(Nc1ccc(Cl)cc1)Nc1c(-c2cccnc2)nc2sccn12

$$$$
