
     RDKit          3D

 40 41  0  0  0  0  0  0  0  0999 V2000
    8.8986    0.2757   21.3125 H   0  0  0  0  0  0  0  0  0  0  0  0
    8.6533   -0.6114   20.9977 O   0  0  0  0  0  0  0  0  0  0  0  0
    7.2475   -0.6227   21.0647 N   0  0  0  0  0  0  0  0  0  0  0  0
    6.6245   -1.6877   21.7860 C   0  0  0  0  0  0  0  0  0  0  0  0
    5.4986   -2.0632   21.5304 O   0  0  0  0  0  0  0  0  0  0  0  0
    7.4025   -2.1597   22.8380 N   0  0  0  0  0  0  0  0  0  0  0  0
    8.3947   -2.1333   22.6506 H   0  0  0  0  0  0  0  0  0  0  0  0
    6.9687   -3.1096   23.7796 N   0  0  0  0  0  0  0  0  0  0  0  0
    6.3238   -2.7137   24.4522 H   0  0  0  0  0  0  0  0  0  0  0  0
    6.5525   -4.4061   23.4053 C   0  0  0  0  0  0  0  0  0  0  0  0
    6.8514   -4.9607   22.3687 O   0  0  0  0  0  0  0  0  0  0  0  0
    5.8016   -4.9847   24.3971 N   0  0  0  0  0  0  0  0  0  0  0  0
    5.4753   -4.3713   25.1227 H   0  0  0  0  0  0  0  0  0  0  0  0
    4.9706   -6.1408   24.0958 C   0  0  0  0  0  0  0  0  0  0  0  0
    5.5896   -6.8227   23.4982 H   0  0  0  0  0  0  0  0  0  0  0  0
    4.5447   -6.8358   25.4028 C   0  0  0  0  0  0  0  0  0  0  0  0
    5.4263   -7.3302   25.8209 H   0  0  0  0  0  0  0  0  0  0  0  0
    4.2621   -6.0545   26.1201 H   0  0  0  0  0  0  0  0  0  0  0  0
    3.3607   -7.8273   25.2209 C   0  0  0  0  0  0  0  0  0  0  0  0
    2.4418   -7.3686   25.6059 H   0  0  0  0  0  0  0  0  0  0  0  0
    3.5168   -8.7198   25.8345 H   0  0  0  0  0  0  0  0  0  0  0  0
    3.1879   -8.2039   23.7416 C   0  0  0  0  0  0  0  0  0  0  0  0
    2.4578   -9.0066   23.5951 H   0  0  0  0  0  0  0  0  0  0  0  0
    4.1539   -8.5823   23.4004 H   0  0  0  0  0  0  0  0  0  0  0  0
    2.8827   -6.9838   22.8512 C   0  0  0  0  0  0  0  0  0  0  0  0
    3.0879   -7.2560   21.8074 H   0  0  0  0  0  0  0  0  0  0  0  0
    1.8180   -6.7244   22.9077 H   0  0  0  0  0  0  0  0  0  0  0  0
    3.7301   -5.7536   23.2658 C   0  0  0  0  0  0  0  0  0  0  0  0
    4.0379   -5.1607   22.3945 H   0  0  0  0  0  0  0  0  0  0  0  0
    3.1195   -5.0932   23.8941 H   0  0  0  0  0  0  0  0  0  0  0  0
    6.6259    0.0210   19.9541 C   0  0  0  0  0  0  0  0  0  0  0  0
    7.2731    0.0831   18.7031 C   0  0  0  0  0  0  0  0  0  0  0  0
    8.2501   -0.3800   18.5841 H   0  0  0  0  0  0  0  0  0  0  0  0
    6.7499    0.6886   17.6340 N   0  0  0  0  0  0  0  0  0  0  0  0
    5.5581    1.2928   17.7752 C   0  0  0  0  0  0  0  0  0  0  0  0
    5.1631    1.7910   16.8899 H   0  0  0  0  0  0  0  0  0  0  0  0
    4.8532    1.3107   18.9839 C   0  0  0  0  0  0  0  0  0  0  0  0
    3.9101    1.8402   19.0376 H   0  0  0  0  0  0  0  0  0  0  0  0
    5.3784    0.6479   20.0976 C   0  0  0  0  0  0  0  0  0  0  0  0
    4.8618    0.6348   21.0578 H   0  0  0  0  0  0  0  0  0  0  0  0
  1  2  1  0
  2  3  1  0
  3  4  1  0
  4  5  2  0
  4  6  1  0
  6  7  1  0
  6  8  1  0
  8  9  1  0
  8 10  1  0
 10 11  2  0
 10 12  1  0
 12 13  1  0
 12 14  1  0
 14 15  1  0
 14 16  1  0
 16 17  1  0
 16 18  1  0
 16 19  1  0
 19 20  1  0
 19 21  1  0
 19 22  1  0
 22 23  1  0
 22 24  1  0
 22 25  1  0
 25 26  1  0
 25 27  1  0
 25 28  1  0
 28 29  1  0
 28 30  1  0
  3 31  1  0
 31 32  2  0
 32 33  1  0
 32 34  1  0
 34 35  2  0
 35 36  1  0
 35 37  1  0
 37 38  1  0
 37 39  2  0
 39 40  1  0
 28 14  1  0
 39 31  1  0
M  END
>  <cnnaffinity>  (1) 
-4.97514

>  <filename>  (1) 
O=C(NNC(=O)N(O)c1cccnc1)NC1CCCCC1

$$$$
