
     RDKit          3D

 40 43  0  0  0  0  0  0  0  0999 V2000
    5.0333    1.8298   17.2271 H   0  0  0  0  0  0  0  0  0  0  0  0
    5.4871    1.1978   17.9906 C   0  0  0  0  0  0  0  0  0  0  0  0
    6.5983    0.5422   17.6203 N   0  0  0  0  0  0  0  0  0  0  0  0
    7.2127   -0.2074   18.5424 C   0  0  0  0  0  0  0  0  0  0  0  0
    8.1252   -0.7066   18.2084 H   0  0  0  0  0  0  0  0  0  0  0  0
    6.7503   -0.3653   19.8685 C   0  0  0  0  0  0  0  0  0  0  0  0
    7.5586   -1.0838   20.8724 C   0  0  0  0  0  0  0  0  0  0  0  0
    8.8899   -0.9455   21.1785 C   0  0  0  0  0  0  0  0  0  0  0  0
    9.5909   -0.3537   20.6019 H   0  0  0  0  0  0  0  0  0  0  0  0
    9.2549   -1.6036   22.3252 N   0  0  0  0  0  0  0  0  0  0  0  0
    8.1271   -2.1399   22.7237 C   0  0  0  0  0  0  0  0  0  0  0  0
    7.5947   -2.9709   24.1550 S   0  0  0  0  0  0  0  0  0  0  0  0
    5.9889   -2.8728   23.4648 C   0  0  0  0  0  0  0  0  0  0  0  0
    4.8414   -3.2896   24.1006 N   0  0  0  0  0  0  0  0  0  0  0  0
    4.0218   -3.0502   23.5668 H   0  0  0  0  0  0  0  0  0  0  0  0
    4.7466   -3.6567   25.4275 C   0  0  0  0  0  0  0  0  0  0  0  0
    5.7533   -3.9284   26.0530 O   0  0  0  0  0  0  0  0  0  0  0  0
    3.3288   -3.7585   26.0182 C   0  0  0  0  0  0  0  0  0  0  0  0
    2.6649   -3.0811   25.4608 H   0  0  0  0  0  0  0  0  0  0  0  0
    3.3003   -3.3206   27.5074 C   0  0  0  0  0  0  0  0  0  0  0  0
    3.5339   -2.2512   27.5875 H   0  0  0  0  0  0  0  0  0  0  0  0
    4.0999   -3.8482   28.0469 H   0  0  0  0  0  0  0  0  0  0  0  0
    1.9447   -3.5936   28.1806 C   0  0  0  0  0  0  0  0  0  0  0  0
    2.0042   -3.3332   29.2453 H   0  0  0  0  0  0  0  0  0  0  0  0
    1.1738   -2.9330   27.7553 H   0  0  0  0  0  0  0  0  0  0  0  0
    1.5088   -5.0549   28.0110 C   0  0  0  0  0  0  0  0  0  0  0  0
    2.2349   -5.7035   28.5226 H   0  0  0  0  0  0  0  0  0  0  0  0
    0.5410   -5.2297   28.4981 H   0  0  0  0  0  0  0  0  0  0  0  0
    1.4530   -5.4470   26.5287 C   0  0  0  0  0  0  0  0  0  0  0  0
    0.6631   -4.8663   26.0287 H   0  0  0  0  0  0  0  0  0  0  0  0
    1.1613   -6.4996   26.4231 H   0  0  0  0  0  0  0  0  0  0  0  0
    2.8047   -5.2102   25.8341 C   0  0  0  0  0  0  0  0  0  0  0  0
    2.7130   -5.4392   24.7648 H   0  0  0  0  0  0  0  0  0  0  0  0
    3.5483   -5.9117   26.2435 H   0  0  0  0  0  0  0  0  0  0  0  0
    5.8537   -2.3608   22.2780 N   0  0  0  0  0  0  0  0  0  0  0  0
    7.0792   -1.9055   21.8824 N   0  0  0  0  0  0  0  0  0  0  0  0
    5.5502    0.2811   20.2147 C   0  0  0  0  0  0  0  0  0  0  0  0
    5.1374    0.1460   21.2143 H   0  0  0  0  0  0  0  0  0  0  0  0
    4.9250    1.0925   19.2664 C   0  0  0  0  0  0  0  0  0  0  0  0
    4.0273    1.6548   19.4979 H   0  0  0  0  0  0  0  0  0  0  0  0
  1  2  1  0
  2  3  2  0
  3  4  1  0
  4  5  1  0
  4  6  2  0
  6  7  1  0
  7  8  2  0
  8  9  1  0
  8 10  1  0
 10 11  2  0
 11 12  1  0
 12 13  1  0
 13 14  1  0
 14 15  1  0
 14 16  1  0
 16 17  2  0
 16 18  1  0
 18 19  1  0
 18 20  1  0
 20 21  1  0
 20 22  1  0
 20 23  1  0
 23 24  1  0
 23 25  1  0
 23 26  1  0
 26 27  1  0
 26 28  1  0
 26 29  1  0
 29 30  1  0
 29 31  1  0
 29 32  1  0
 32 33  1  0
 32 34  1  0
 13 35  2  0
 35 36  1  0
  6 37  1  0
 37 38  1  0
 37 39  2  0
 39 40  1  0
 39  2  1  0
 36  7  1  0
 36 11  1  0
 32 18  1  0
M  END
>  <cnnaffinity>  (1) 
-5.36364

>  <filename>  (1) 
O=C(Nc1nn2c(-c3cccnc3)cnc2s1)C1CCCCC1

$$$$
