
     RDKit          3D

 37 38  0  0  0  0  0  0  0  0999 V2000
    5.0888    1.7893   16.9395 H   0  0  0  0  0  0  0  0  0  0  0  0
    5.4790    1.2440   17.8002 C   0  0  0  0  0  0  0  0  0  0  0  0
    6.4750    0.3770   17.5691 N   0  0  0  0  0  0  0  0  0  0  0  0
    6.9918   -0.2826   18.6047 C   0  0  0  0  0  0  0  0  0  0  0  0
    7.8292   -0.9412   18.3733 H   0  0  0  0  0  0  0  0  0  0  0  0
    6.4968   -0.1093   19.8886 C   0  0  0  0  0  0  0  0  0  0  0  0
    7.2501   -1.0331   21.1220 S   0  0  0  0  0  0  0  0  0  0  0  0
    6.8609   -0.5205   22.4143 O   0  0  0  0  0  0  0  0  0  0  0  0
    7.2135   -2.4456   20.8107 O   0  0  0  0  0  0  0  0  0  0  0  0
    8.8412   -0.6684   20.8657 N   0  0  0  0  0  0  0  0  0  0  0  0
    9.3541   -1.3719   21.3682 H   0  0  0  0  0  0  0  0  0  0  0  0
    9.1461    0.6561   21.1292 C   0  0  0  0  0  0  0  0  0  0  0  0
    8.3012    1.5193   21.1235 O   0  0  0  0  0  0  0  0  0  0  0  0
   10.6097    0.9318   21.2232 C   0  0  0  0  0  0  0  0  0  0  0  0
   11.1621    0.0508   20.8752 H   0  0  0  0  0  0  0  0  0  0  0  0
   10.7762    1.7407   20.5057 H   0  0  0  0  0  0  0  0  0  0  0  0
   11.2086    1.3566   22.5821 C   0  0  0  0  0  0  0  0  0  0  0  0
   10.6860    2.2510   22.9495 H   0  0  0  0  0  0  0  0  0  0  0  0
   12.6732    1.7440   22.2918 C   0  0  0  0  0  0  0  0  0  0  0  0
   13.0659    1.0347   21.5682 H   0  0  0  0  0  0  0  0  0  0  0  0
   12.7033    2.7260   21.8084 H   0  0  0  0  0  0  0  0  0  0  0  0
   13.6722    1.7068   23.4408 C   0  0  0  0  0  0  0  0  0  0  0  0
   14.6748    1.7796   23.0067 H   0  0  0  0  0  0  0  0  0  0  0  0
   13.5198    2.5696   24.0862 H   0  0  0  0  0  0  0  0  0  0  0  0
   13.5314    0.4111   24.2310 C   0  0  0  0  0  0  0  0  0  0  0  0
   14.2591    0.3259   25.0436 H   0  0  0  0  0  0  0  0  0  0  0  0
   13.7600   -0.4168   23.5464 H   0  0  0  0  0  0  0  0  0  0  0  0
   12.1044    0.2752   24.7679 C   0  0  0  0  0  0  0  0  0  0  0  0
   12.0113   -0.6075   25.4118 H   0  0  0  0  0  0  0  0  0  0  0  0
   11.8841    1.1332   25.4153 H   0  0  0  0  0  0  0  0  0  0  0  0
   11.0642    0.2279   23.6309 C   0  0  0  0  0  0  0  0  0  0  0  0
   10.0588    0.2640   24.0684 H   0  0  0  0  0  0  0  0  0  0  0  0
   11.1213   -0.7514   23.1300 H   0  0  0  0  0  0  0  0  0  0  0  0
    5.4427    0.7651   20.1566 C   0  0  0  0  0  0  0  0  0  0  0  0
    5.0610    0.9174   21.1704 H   0  0  0  0  0  0  0  0  0  0  0  0
    4.9337    1.4640   19.0689 C   0  0  0  0  0  0  0  0  0  0  0  0
    4.1457    2.1953   19.1920 H   0  0  0  0  0  0  0  0  0  0  0  0
  1  2  1  0
  2  3  2  0
  3  4  1  0
  4  5  1  0
  4  6  2  0
  6  7  1  0
  7  8  2  0
  7  9  2  0
  7 10  1  0
 10 11  1  0
 10 12  1  0
 12 13  2  0
 12 14  1  0
 14 15  1  0
 14 16  1  0
 14 17  1  0
 17 18  1  0
 17 19  1  0
 19 20  1  0
 19 21  1  0
 19 22  1  0
 22 23  1  0
 22 24  1  0
 22 25  1  0
 25 26  1  0
 25 27  1  0
 25 28  1  0
 28 29  1  0
 28 30  1  0
 28 31  1  0
 31 32  1  0
 31 33  1  0
  6 34  1  0
 34 35  1  0
 34 36  2  0
 36 37  1  0
 36  2  1  0
 31 17  1  0
M  END
>  <cnnaffinity>  (1) 
-5.23152

>  <filename>  (1) 
O=C(CC1CCCCC1)NS(=O)(=O)c1cccnc1

$$$$
