
     RDKit          3D

 35 37  0  0  0  0  0  0  0  0999 V2000
    5.1015    1.8108   17.0156 H   0  0  0  0  0  0  0  0  0  0  0  0
    5.5246    1.2154   17.8240 C   0  0  0  0  0  0  0  0  0  0  0  0
    6.6456    0.5432   17.5315 N   0  0  0  0  0  0  0  0  0  0  0  0
    7.2153   -0.1621   18.5195 C   0  0  0  0  0  0  0  0  0  0  0  0
    8.1135   -0.7155   18.2519 H   0  0  0  0  0  0  0  0  0  0  0  0
    6.7219   -0.2128   19.8304 C   0  0  0  0  0  0  0  0  0  0  0  0
    7.4811   -0.9427   20.8888 C   0  0  0  0  0  0  0  0  0  0  0  0
    7.3397   -2.3690   20.8662 N   0  0  0  0  0  0  0  0  0  0  0  0
    8.1847   -2.9008   20.9154 H   0  0  0  0  0  0  0  0  0  0  0  0
    6.2000   -2.9437   21.3395 C   0  0  0  0  0  0  0  0  0  0  0  0
    5.1923   -2.3099   21.5635 O   0  0  0  0  0  0  0  0  0  0  0  0
    6.2120   -4.4361   21.5886 C   0  0  0  0  0  0  0  0  0  0  0  0
    7.0005   -4.9323   21.0168 H   0  0  0  0  0  0  0  0  0  0  0  0
    5.2442   -4.7854   21.2159 H   0  0  0  0  0  0  0  0  0  0  0  0
    6.3538   -4.7200   23.0752 C   0  0  0  0  0  0  0  0  0  0  0  0
    5.2113   -4.9022   23.8713 C   0  0  0  0  0  0  0  0  0  0  0  0
    4.2334   -4.7177   23.4249 H   0  0  0  0  0  0  0  0  0  0  0  0
    5.3235   -5.2968   25.2109 C   0  0  0  0  0  0  0  0  0  0  0  0
    4.4289   -5.4494   25.8072 H   0  0  0  0  0  0  0  0  0  0  0  0
    6.5870   -5.4959   25.7829 C   0  0  0  0  0  0  0  0  0  0  0  0
    6.6843   -5.8519   26.8093 H   0  0  0  0  0  0  0  0  0  0  0  0
    7.7364   -5.2088   25.0383 C   0  0  0  0  0  0  0  0  0  0  0  0
    8.7350   -5.3096   25.4558 H   0  0  0  0  0  0  0  0  0  0  0  0
    7.6002   -4.7682   23.7193 C   0  0  0  0  0  0  0  0  0  0  0  0
    9.0417   -4.1828   22.9226 Cl  0  0  0  0  0  0  0  0  0  0  0  0
    7.6552   -0.3025   22.2418 C   0  0  0  0  0  0  0  0  0  0  0  0
    7.2053    0.6765   22.3987 H   0  0  0  0  0  0  0  0  0  0  0  0
    7.6002   -0.9710   23.0937 H   0  0  0  0  0  0  0  0  0  0  0  0
    8.8268   -0.4397   21.3095 C   0  0  0  0  0  0  0  0  0  0  0  0
    9.1981    0.4477   20.8116 H   0  0  0  0  0  0  0  0  0  0  0  0
    9.5909   -1.1799   21.5381 H   0  0  0  0  0  0  0  0  0  0  0  0
    5.5118    0.4384   20.0997 C   0  0  0  0  0  0  0  0  0  0  0  0
    5.0568    0.3235   21.0863 H   0  0  0  0  0  0  0  0  0  0  0  0
    4.9116    1.1818   19.0821 C   0  0  0  0  0  0  0  0  0  0  0  0
    4.0050    1.7497   19.2454 H   0  0  0  0  0  0  0  0  0  0  0  0
  1  2  1  0
  2  3  2  0
  3  4  1  0
  4  5  1  0
  4  6  2  0
  6  7  1  0
  7  8  1  0
  8  9  1  0
  8 10  1  0
 10 11  2  0
 10 12  1  0
 12 13  1  0
 12 14  1  0
 12 15  1  0
 15 16  2  0
 16 17  1  0
 16 18  1  0
 18 19  1  0
 18 20  2  0
 20 21  1  0
 20 22  1  0
 22 23  1  0
 22 24  2  0
 24 25  1  0
  7 26  1  0
 26 27  1  0
 26 28  1  0
 26 29  1  0
 29 30  1  0
 29 31  1  0
  6 32  1  0
 32 33  1  0
 32 34  2  0
 34 35  1  0
 34  2  1  0
 29  7  1  0
 24 15  1  0
M  END
>  <cnnaffinity>  (1) 
-5.02393

>  <filename>  (1) 
O=C(Cc1ccccc1Cl)NC1(c2cccnc2)CC1

$$$$
