
     RDKit          3D

 31 33  0  0  0  0  0  0  0  0999 V2000
    4.9254    1.7759   16.9951 H   0  0  0  0  0  0  0  0  0  0  0  0
    5.4113    1.3105   17.8523 C   0  0  0  0  0  0  0  0  0  0  0  0
    6.5885    0.7039   17.6177 N   0  0  0  0  0  0  0  0  0  0  0  0
    7.1948    0.0945   18.6469 C   0  0  0  0  0  0  0  0  0  0  0  0
    8.1393   -0.4026   18.4262 H   0  0  0  0  0  0  0  0  0  0  0  0
    6.6593    0.0653   19.9606 C   0  0  0  0  0  0  0  0  0  0  0  0
    7.2749   -0.6240   21.0588 N   0  0  0  0  0  0  0  0  0  0  0  0
    7.7824   -0.1689   22.2662 C   0  0  0  0  0  0  0  0  0  0  0  0
    7.4358    1.0491   22.7893 N   0  0  0  0  0  0  0  0  0  0  0  0
    7.1613    1.7943   22.1809 H   0  0  0  0  0  0  0  0  0  0  0  0
    7.4771    1.3077   24.1452 C   0  0  0  0  0  0  0  0  0  0  0  0
    7.4580    0.4446   24.9927 O   0  0  0  0  0  0  0  0  0  0  0  0
    7.5139    2.8048   24.5074 C   0  0  0  0  0  0  0  0  0  0  0  0
    7.1495    3.1916   25.8126 C   0  0  0  0  0  0  0  0  0  0  0  0
    6.8329    2.4471   26.5332 H   0  0  0  0  0  0  0  0  0  0  0  0
    7.2156    4.5348   26.1869 C   0  0  0  0  0  0  0  0  0  0  0  0
    6.9352    4.8339   27.1940 H   0  0  0  0  0  0  0  0  0  0  0  0
    7.6197    5.5136   25.3680 N   0  0  0  0  0  0  0  0  0  0  0  0
    7.9782    5.1574   24.1284 C   0  0  0  0  0  0  0  0  0  0  0  0
    8.3108    5.9593   23.4724 H   0  0  0  0  0  0  0  0  0  0  0  0
    7.9456    3.8409   23.6527 C   0  0  0  0  0  0  0  0  0  0  0  0
    8.2944    3.6714   22.6380 H   0  0  0  0  0  0  0  0  0  0  0  0
    8.5462   -1.0206   22.8625 N   0  0  0  0  0  0  0  0  0  0  0  0
    8.4161   -2.1471   22.0672 N   0  0  0  0  0  0  0  0  0  0  0  0
    8.5728   -3.0670   22.4404 H   0  0  0  0  0  0  0  0  0  0  0  0
    7.4604   -2.0189   21.1052 C   0  0  0  0  0  0  0  0  0  0  0  0
    6.8969   -2.8871   20.4792 O   0  0  0  0  0  0  0  0  0  0  0  0
    5.4424    0.7081   20.1845 C   0  0  0  0  0  0  0  0  0  0  0  0
    5.0121    0.6650   21.1863 H   0  0  0  0  0  0  0  0  0  0  0  0
    4.7990    1.3369   19.1109 C   0  0  0  0  0  0  0  0  0  0  0  0
    3.8384    1.8279   19.2436 H   0  0  0  0  0  0  0  0  0  0  0  0
  1  2  1  0
  2  3  2  0
  3  4  1  0
  4  5  1  0
  4  6  2  0
  6  7  1  0
  7  8  1  0
  8  9  1  0
  9 10  1  0
  9 11  1  0
 11 12  2  0
 11 13  1  0
 13 14  2  0
 14 15  1  0
 14 16  1  0
 16 17  1  0
 16 18  2  0
 18 19  1  0
 19 20  1  0
 19 21  2  0
 21 22  1  0
  8 23  2  0
 23 24  1  0
 24 25  1  0
 24 26  1  0
 26 27  2  0
  6 28  1  0
 28 29  1  0
 28 30  2  0
 30 31  1  0
 30  2  1  0
 26  7  1  0
 21 13  1  0
M  END
>  <cnnaffinity>  (1) 
-4.93829

>  <filename>  (1) 
O=C(Nc1n[nH]c(=O)n1-c1cccnc1)c1ccncc1

$$$$
