
     RDKit          3D

 34 36  0  0  0  0  0  0  0  0999 V2000
    4.9794    1.7729   17.0467 H   0  0  0  0  0  0  0  0  0  0  0  0
    5.4478    1.2550   17.8787 C   0  0  0  0  0  0  0  0  0  0  0  0
    6.6084    0.6308   17.6144 N   0  0  0  0  0  0  0  0  0  0  0  0
    7.2231    0.0071   18.6259 C   0  0  0  0  0  0  0  0  0  0  0  0
    8.1759   -0.4788   18.3965 H   0  0  0  0  0  0  0  0  0  0  0  0
    6.7170   -0.0449   19.9576 C   0  0  0  0  0  0  0  0  0  0  0  0
    7.3754   -0.6826   20.9702 N   0  0  0  0  0  0  0  0  0  0  0  0
    7.0402   -0.8681   22.3633 C   0  0  0  0  0  0  0  0  0  0  0  0
    6.1099   -1.4287   22.5278 H   0  0  0  0  0  0  0  0  0  0  0  0
    7.0079    0.0613   22.9543 H   0  0  0  0  0  0  0  0  0  0  0  0
    8.3603   -1.7000   22.4914 C   0  0  0  0  0  0  0  0  0  0  0  0
    9.0628   -1.2452   23.1943 H   0  0  0  0  0  0  0  0  0  0  0  0
    8.2052   -3.1813   22.8283 C   0  0  0  0  0  0  0  0  0  0  0  0
    8.5797   -4.0526   22.0692 O   0  0  0  0  0  0  0  0  0  0  0  0
    7.5471   -3.5366   24.1624 C   0  0  0  0  0  0  0  0  0  0  0  0
    7.1849   -2.5103   24.9427 N   0  0  0  0  0  0  0  0  0  0  0  0
    6.5540   -2.7397   26.1008 C   0  0  0  0  0  0  0  0  0  0  0  0
    6.0508   -1.4942   26.8693 C   0  0  0  0  0  0  0  0  0  0  0  0
    6.7102   -1.3200   28.0267 F   0  0  0  0  0  0  0  0  0  0  0  0
    6.1709   -0.3617   26.1662 F   0  0  0  0  0  0  0  0  0  0  0  0
    4.7486   -1.6218   27.2035 F   0  0  0  0  0  0  0  0  0  0  0  0
    6.3278   -4.0393   26.5770 C   0  0  0  0  0  0  0  0  0  0  0  0
    5.8517   -4.2124   27.5369 H   0  0  0  0  0  0  0  0  0  0  0  0
    6.7057   -5.1158   25.7650 C   0  0  0  0  0  0  0  0  0  0  0  0
    6.5034   -6.1370   26.0881 H   0  0  0  0  0  0  0  0  0  0  0  0
    7.3143   -4.8769   24.5322 C   0  0  0  0  0  0  0  0  0  0  0  0
    7.6160   -5.6866   23.8754 H   0  0  0  0  0  0  0  0  0  0  0  0
    8.6339   -1.3969   20.9998 C   0  0  0  0  0  0  0  0  0  0  0  0
    8.6470   -2.2820   20.3625 H   0  0  0  0  0  0  0  0  0  0  0  0
    9.5042   -0.7641   20.7798 H   0  0  0  0  0  0  0  0  0  0  0  0
    5.4897    0.6070   20.2005 C   0  0  0  0  0  0  0  0  0  0  0  0
    5.0698    0.6037   21.2053 H   0  0  0  0  0  0  0  0  0  0  0  0
    4.8558    1.2602   19.1454 C   0  0  0  0  0  0  0  0  0  0  0  0
    3.9213    1.7862   19.3042 H   0  0  0  0  0  0  0  0  0  0  0  0
  1  2  1  0
  2  3  2  0
  3  4  1  0
  4  5  1  0
  4  6  2  0
  6  7  1  0
  7  8  1  0
  8  9  1  0
  8 10  1  0
  8 11  1  0
 11 12  1  0
 11 13  1  0
 13 14  2  0
 13 15  1  0
 15 16  2  0
 16 17  1  0
 17 18  1  0
 18 19  1  0
 18 20  1  0
 18 21  1  0
 17 22  2  0
 22 23  1  0
 22 24  1  0
 24 25  1  0
 24 26  2  0
 26 27  1  0
 11 28  1  0
 28 29  1  0
 28 30  1  0
  6 31  1  0
 31 32  1  0
 31 33  2  0
 33 34  1  0
 33  2  1  0
 28  7  1  0
 26 15  1  0
M  END
>  <cnnaffinity>  (1) 
-5.48502

>  <filename>  (1) 
O=C(c1cccc(C(F)(F)F)n1)C1CN(c2cccnc2)C1

$$$$
