
     RDKit          3D

 36 38  0  0  0  0  0  0  0  0999 V2000
    5.4419    1.8921   16.7819 H   0  0  0  0  0  0  0  0  0  0  0  0
    5.6720    1.3842   17.7146 C   0  0  0  0  0  0  0  0  0  0  0  0
    6.8123    0.6749   17.7270 N   0  0  0  0  0  0  0  0  0  0  0  0
    7.1291    0.0584   18.8729 C   0  0  0  0  0  0  0  0  0  0  0  0
    8.0722   -0.4893   18.8766 H   0  0  0  0  0  0  0  0  0  0  0  0
    6.3460    0.1066   20.0390 C   0  0  0  0  0  0  0  0  0  0  0  0
    6.7962   -0.5680   21.2487 C   0  0  0  0  0  0  0  0  0  0  0  0
    7.4058   -1.7628   21.3919 C   0  0  0  0  0  0  0  0  0  0  0  0
    7.7020   -2.4827   20.6424 H   0  0  0  0  0  0  0  0  0  0  0  0
    7.7077   -1.9251   22.7451 N   0  0  0  0  0  0  0  0  0  0  0  0
    8.6512   -2.8499   23.3310 C   0  0  0  0  0  0  0  0  0  0  0  0
    8.2215   -3.2818   24.2377 H   0  0  0  0  0  0  0  0  0  0  0  0
    8.8612   -3.6499   22.6143 H   0  0  0  0  0  0  0  0  0  0  0  0
    9.8799   -2.1637   23.6799 N   0  0  0  0  0  0  0  0  0  0  0  0
    9.7098   -1.4846   24.4045 H   0  0  0  0  0  0  0  0  0  0  0  0
   10.6069   -1.6649   22.6170 C   0  0  0  0  0  0  0  0  0  0  0  0
   10.4958   -2.1482   21.4989 O   0  0  0  0  0  0  0  0  0  0  0  0
   11.6134   -0.5769   22.8939 C   0  0  0  0  0  0  0  0  0  0  0  0
   11.4080    0.5101   23.7688 C   0  0  0  0  0  0  0  0  0  0  0  0
   10.4798    0.6363   24.3293 H   0  0  0  0  0  0  0  0  0  0  0  0
   12.3825    1.5082   23.8801 C   0  0  0  0  0  0  0  0  0  0  0  0
   12.2113    2.3613   24.5288 H   0  0  0  0  0  0  0  0  0  0  0  0
   13.5676    1.4259   23.1433 C   0  0  0  0  0  0  0  0  0  0  0  0
   14.2897    2.2333   23.1678 H   0  0  0  0  0  0  0  0  0  0  0  0
   13.8007    0.3264   22.3156 C   0  0  0  0  0  0  0  0  0  0  0  0
   14.7262    0.2529   21.7535 H   0  0  0  0  0  0  0  0  0  0  0  0
   12.8230   -0.6542   22.1734 C   0  0  0  0  0  0  0  0  0  0  0  0
   12.9630   -1.4886   21.4858 H   0  0  0  0  0  0  0  0  0  0  0  0
    7.4313   -0.7470   23.4143 C   0  0  0  0  0  0  0  0  0  0  0  0
    7.7839   -0.4320   24.5388 O   0  0  0  0  0  0  0  0  0  0  0  0
    6.7448    0.0242   22.5078 N   0  0  0  0  0  0  0  0  0  0  0  0
    6.6697    1.0053   22.7095 H   0  0  0  0  0  0  0  0  0  0  0  0
    5.1530    0.8425   19.9977 C   0  0  0  0  0  0  0  0  0  0  0  0
    4.5260    0.8908   20.8887 H   0  0  0  0  0  0  0  0  0  0  0  0
    4.8107    1.4923   18.8146 C   0  0  0  0  0  0  0  0  0  0  0  0
    3.9116    2.0964   18.7382 H   0  0  0  0  0  0  0  0  0  0  0  0
  1  2  1  0
  2  3  2  0
  3  4  1  0
  4  5  1  0
  4  6  2  0
  6  7  1  0
  7  8  2  0
  8  9  1  0
  8 10  1  0
 10 11  1  0
 11 12  1  0
 11 13  1  0
 11 14  1  0
 14 15  1  0
 14 16  1  0
 16 17  2  0
 16 18  1  0
 18 19  2  0
 19 20  1  0
 19 21  1  0
 21 22  1  0
 21 23  2  0
 23 24  1  0
 23 25  1  0
 25 26  1  0
 25 27  2  0
 27 28  1  0
 10 29  1  0
 29 30  2  0
 29 31  1  0
 31 32  1  0
  6 33  1  0
 33 34  1  0
 33 35  2  0
 35 36  1  0
 35  2  1  0
 31  7  1  0
 27 18  1  0
M  END
>  <cnnaffinity>  (1) 
-5.62982

>  <filename>  (1) 
O=C(NCn1cc(-c2cccnc2)[nH]c1=O)c1ccccc1

$$$$
