
     RDKit          3D

 42 44  0  0  0  0  0  0  0  0999 V2000
    5.5950   -1.6690   21.8393 H   0  0  0  0  0  0  0  0  0  0  0  0
    6.6627   -1.5444   21.8704 C   0  0  0  0  0  0  0  0  0  0  0  0
    7.3243   -0.7712   20.9861 C   0  0  0  0  0  0  0  0  0  0  0  0
    6.6819    0.0128   19.9197 C   0  0  0  0  0  0  0  0  0  0  0  0
    7.2177    0.0791   18.6183 C   0  0  0  0  0  0  0  0  0  0  0  0
    8.1502   -0.4216   18.3737 H   0  0  0  0  0  0  0  0  0  0  0  0
    6.6295    0.6902   17.5841 N   0  0  0  0  0  0  0  0  0  0  0  0
    5.4598    1.3057   17.8183 C   0  0  0  0  0  0  0  0  0  0  0  0
    5.0009    1.8125   16.9695 H   0  0  0  0  0  0  0  0  0  0  0  0
    4.8427    1.3243   19.0742 C   0  0  0  0  0  0  0  0  0  0  0  0
    3.9081    1.8604   19.2009 H   0  0  0  0  0  0  0  0  0  0  0  0
    5.4587    0.6694   20.1417 C   0  0  0  0  0  0  0  0  0  0  0  0
    5.0146    0.6879   21.1404 H   0  0  0  0  0  0  0  0  0  0  0  0
    8.7118   -0.7131   21.0582 N   0  0  0  0  0  0  0  0  0  0  0  0
    9.2538   -0.0790   20.4987 H   0  0  0  0  0  0  0  0  0  0  0  0
    9.4640   -1.3834   21.9641 C   0  0  0  0  0  0  0  0  0  0  0  0
   11.1049   -1.2072   22.0177 S   0  0  0  0  0  0  0  0  0  0  0  0
    8.7929   -2.1951   22.8079 N   0  0  0  0  0  0  0  0  0  0  0  0
    9.3102   -2.3857   23.6456 H   0  0  0  0  0  0  0  0  0  0  0  0
    7.3665   -2.1701   23.0142 C   0  0  1  0  0  0  0  0  0  0  0  0
    6.9874   -3.1868   23.1787 H   0  0  0  0  0  0  0  0  0  0  0  0
    7.2252   -1.4428   24.2795 N   0  0  0  0  0  0  0  0  0  0  0  0
    7.5975   -0.5103   24.2187 H   0  0  0  0  0  0  0  0  0  0  0  0
    6.0276   -1.5478   24.9584 C   0  0  0  0  0  0  0  0  0  0  0  0
    5.2962   -2.5063   24.7745 O   0  0  0  0  0  0  0  0  0  0  0  0
    5.6962   -0.4440   25.9862 C   0  0  0  0  0  0  0  0  0  0  0  0
    6.6439    0.0277   26.2952 H   0  0  0  0  0  0  0  0  0  0  0  0
    5.0234   -1.0805   27.2275 C   0  0  0  0  0  0  0  0  0  0  0  0
    4.1059   -1.5861   26.8935 H   0  0  0  0  0  0  0  0  0  0  0  0
    5.6683   -1.8658   27.6380 H   0  0  0  0  0  0  0  0  0  0  0  0
    4.6763   -0.0467   28.3026 C   0  0  0  0  0  0  0  0  0  0  0  0
    4.1803   -0.5492   29.1428 H   0  0  0  0  0  0  0  0  0  0  0  0
    5.6064    0.3847   28.7027 H   0  0  0  0  0  0  0  0  0  0  0  0
    3.7886    1.0716   27.7393 C   0  0  0  0  0  0  0  0  0  0  0  0
    3.5994    1.8250   28.5158 H   0  0  0  0  0  0  0  0  0  0  0  0
    2.8092    0.6492   27.4645 H   0  0  0  0  0  0  0  0  0  0  0  0
    4.4289    1.7199   26.5003 C   0  0  0  0  0  0  0  0  0  0  0  0
    3.7563    2.4852   26.0912 H   0  0  0  0  0  0  0  0  0  0  0  0
    5.3459    2.2425   26.8112 H   0  0  0  0  0  0  0  0  0  0  0  0
    4.7860    0.6833   25.4151 C   0  0  0  0  0  0  0  0  0  0  0  0
    5.2694    1.1886   24.5674 H   0  0  0  0  0  0  0  0  0  0  0  0
    3.8541    0.2414   25.0339 H   0  0  0  0  0  0  0  0  0  0  0  0
  1  2  1  0
  2  3  2  0
  3  4  1  0
  4  5  2  0
  5  6  1  0
  5  7  1  0
  7  8  2  0
  8  9  1  0
  8 10  1  0
 10 11  1  0
 10 12  2  0
 12 13  1  0
  3 14  1  0
 14 15  1  0
 14 16  1  0
 16 17  2  0
 16 18  1  0
 18 19  1  0
 18 20  1  0
 20 21  1  1
 20 22  1  0
 22 23  1  0
 22 24  1  0
 24 25  2  0
 24 26  1  0
 26 27  1  0
 26 28  1  0
 28 29  1  0
 28 30  1  0
 28 31  1  0
 31 32  1  0
 31 33  1  0
 31 34  1  0
 34 35  1  0
 34 36  1  0
 34 37  1  0
 37 38  1  0
 37 39  1  0
 37 40  1  0
 40 41  1  0
 40 42  1  0
 20  2  1  0
 40 26  1  0
 12  4  1  0
M  END
>  <cnnaffinity>  (1) 
-5.29811

>  <filename>  (1) 
O=C(N[C@H]1C=C(c2cccnc2)NC(=S)N1)C1CCCCC1

$$$$
