
     RDKit          3D

 35 36  0  0  0  0  0  0  0  0999 V2000
    9.1089   -4.2391   28.7262 H   0  0  0  0  0  0  0  0  0  0  0  0
    9.6729   -4.5799   28.0090 O   0  0  0  0  0  0  0  0  0  0  0  0
    9.1033   -4.1771   26.7945 N   0  0  0  0  0  0  0  0  0  0  0  0
    9.8723   -3.9503   26.1769 H   0  0  0  0  0  0  0  0  0  0  0  0
    8.1741   -5.0227   26.1689 C   0  0  0  0  0  0  0  0  0  0  0  0
    7.4367   -5.7745   26.7632 O   0  0  0  0  0  0  0  0  0  0  0  0
    8.0732   -4.7346   24.6806 C   0  0  0  0  0  0  0  0  0  0  0  0
    9.0260   -4.3566   24.2886 H   0  0  0  0  0  0  0  0  0  0  0  0
    7.8769   -5.6835   24.1745 H   0  0  0  0  0  0  0  0  0  0  0  0
    6.9090   -3.7571   24.4126 C   0  0  0  0  0  0  0  0  0  0  0  0
    6.7371   -3.6829   23.3312 H   0  0  0  0  0  0  0  0  0  0  0  0
    6.0041   -4.2023   24.8462 H   0  0  0  0  0  0  0  0  0  0  0  0
    7.0960   -2.3466   24.9834 C   0  0  0  0  0  0  0  0  0  0  0  0
    7.2145   -2.3829   26.0717 H   0  0  0  0  0  0  0  0  0  0  0  0
    6.1705   -1.7849   24.8089 H   0  0  0  0  0  0  0  0  0  0  0  0
    8.2643   -1.5497   24.3734 C   0  0  0  0  0  0  0  0  0  0  0  0
    9.2144   -2.0565   24.5822 H   0  0  0  0  0  0  0  0  0  0  0  0
    8.3391   -0.5849   24.8916 H   0  0  0  0  0  0  0  0  0  0  0  0
    8.1200   -1.3243   22.8931 C   0  0  0  0  0  0  0  0  0  0  0  0
    8.7425   -1.9985   21.8164 C   0  0  0  0  0  0  0  0  0  0  0  0
    9.4987   -2.7740   21.8561 H   0  0  0  0  0  0  0  0  0  0  0  0
    8.2897   -1.5969   20.6397 N   0  0  0  0  0  0  0  0  0  0  0  0
    7.3624   -0.6626   20.9242 N   0  0  0  0  0  0  0  0  0  0  0  0
    6.6528   -0.0011   19.8932 C   0  0  0  0  0  0  0  0  0  0  0  0
    7.1842    0.0334   18.5914 C   0  0  0  0  0  0  0  0  0  0  0  0
    8.1276   -0.4679   18.3837 H   0  0  0  0  0  0  0  0  0  0  0  0
    6.5852    0.6649   17.5776 N   0  0  0  0  0  0  0  0  0  0  0  0
    5.4212    1.2944   17.8200 C   0  0  0  0  0  0  0  0  0  0  0  0
    4.9608    1.8076   16.9785 H   0  0  0  0  0  0  0  0  0  0  0  0
    4.8079    1.3005   19.0774 C   0  0  0  0  0  0  0  0  0  0  0  0
    3.8761    1.8369   19.2250 H   0  0  0  0  0  0  0  0  0  0  0  0
    5.4290    0.6380   20.1369 C   0  0  0  0  0  0  0  0  0  0  0  0
    4.9741    0.6169   21.1266 H   0  0  0  0  0  0  0  0  0  0  0  0
    7.2495   -0.4650   22.2656 C   0  0  0  0  0  0  0  0  0  0  0  0
    6.5689    0.2729   22.6711 H   0  0  0  0  0  0  0  0  0  0  0  0
  1  2  1  0
  2  3  1  0
  3  4  1  0
  3  5  1  0
  5  6  2  0
  5  7  1  0
  7  8  1  0
  7  9  1  0
  7 10  1  0
 10 11  1  0
 10 12  1  0
 10 13  1  0
 13 14  1  0
 13 15  1  0
 13 16  1  0
 16 17  1  0
 16 18  1  0
 16 19  1  0
 19 20  1  0
 20 21  1  0
 20 22  2  0
 22 23  1  0
 23 24  1  0
 24 25  2  0
 25 26  1  0
 25 27  1  0
 27 28  2  0
 28 29  1  0
 28 30  1  0
 30 31  1  0
 30 32  2  0
 32 33  1  0
 23 34  1  0
 34 35  1  0
 34 19  2  0
 32 24  1  0
M  END
>  <cnnaffinity>  (1) 
-4.99839

>  <filename>  (1) 
O=C(CCCCc1cnn(-c2cccnc2)c1)NO

$$$$
