
     RDKit          3D

 32 34  0  0  0  0  0  0  0  0999 V2000
    5.0585    1.7910   16.9982 H   0  0  0  0  0  0  0  0  0  0  0  0
    5.4907    1.2715   17.8524 C   0  0  0  0  0  0  0  0  0  0  0  0
    6.6222    0.5905   17.6240 N   0  0  0  0  0  0  0  0  0  0  0  0
    7.1835   -0.0785   18.6403 C   0  0  0  0  0  0  0  0  0  0  0  0
    8.1084   -0.6036   18.4056 H   0  0  0  0  0  0  0  0  0  0  0  0
    6.6433   -0.1022   19.9406 C   0  0  0  0  0  0  0  0  0  0  0  0
    7.1775   -0.8332   20.9828 O   0  0  0  0  0  0  0  0  0  0  0  0
    8.5433   -0.8922   21.1726 C   0  0  0  0  0  0  0  0  0  0  0  0
    9.5522   -0.0163   20.7162 C   0  0  0  0  0  0  0  0  0  0  0  0
    9.4267    0.8717   20.1098 H   0  0  0  0  0  0  0  0  0  0  0  0
   10.7478   -0.3760   21.1527 N   0  0  0  0  0  0  0  0  0  0  0  0
   10.5242   -1.4744   21.8930 N   0  0  0  0  0  0  0  0  0  0  0  0
   11.2273   -1.9618   22.4418 H   0  0  0  0  0  0  0  0  0  0  0  0
    9.2158   -1.8030   21.9706 C   0  0  0  0  0  0  0  0  0  0  0  0
    8.7656   -2.8066   22.8454 N   0  0  0  0  0  0  0  0  0  0  0  0
    7.7900   -3.0350   22.8065 H   0  0  0  0  0  0  0  0  0  0  0  0
    9.5497   -3.5130   23.7224 C   0  0  0  0  0  0  0  0  0  0  0  0
   10.7718   -3.4656   23.6976 O   0  0  0  0  0  0  0  0  0  0  0  0
    8.8319   -4.3710   24.6908 C   0  0  0  0  0  0  0  0  0  0  0  0
    7.7057   -3.8920   25.3643 C   0  0  0  0  0  0  0  0  0  0  0  0
    7.2694   -2.9178   25.1423 H   0  0  0  0  0  0  0  0  0  0  0  0
    7.1011   -4.5692   26.3443 N   0  0  0  0  0  0  0  0  0  0  0  0
    7.5671   -5.7850   26.6484 C   0  0  0  0  0  0  0  0  0  0  0  0
    7.0368   -6.3078   27.4414 H   0  0  0  0  0  0  0  0  0  0  0  0
    8.6621   -6.3706   26.0056 C   0  0  0  0  0  0  0  0  0  0  0  0
    9.0036   -7.3567   26.2865 H   0  0  0  0  0  0  0  0  0  0  0  0
    9.3324   -5.6374   25.0322 C   0  0  0  0  0  0  0  0  0  0  0  0
   10.2370   -6.0320   24.5713 H   0  0  0  0  0  0  0  0  0  0  0  0
    5.4531    0.6026   20.1692 C   0  0  0  0  0  0  0  0  0  0  0  0
    5.0025    0.5940   21.1589 H   0  0  0  0  0  0  0  0  0  0  0  0
    4.8735    1.3062   19.1069 C   0  0  0  0  0  0  0  0  0  0  0  0
    3.9517    1.8675   19.2282 H   0  0  0  0  0  0  0  0  0  0  0  0
  1  2  1  0
  2  3  2  0
  3  4  1  0
  4  5  1  0
  4  6  2  0
  6  7  1  0
  7  8  1  0
  8  9  1  0
  9 10  1  0
  9 11  2  0
 11 12  1  0
 12 13  1  0
 12 14  1  0
 14 15  1  0
 15 16  1  0
 15 17  1  0
 17 18  2  0
 17 19  1  0
 19 20  2  0
 20 21  1  0
 20 22  1  0
 22 23  2  0
 23 24  1  0
 23 25  1  0
 25 26  1  0
 25 27  2  0
 27 28  1  0
  6 29  1  0
 29 30  1  0
 29 31  2  0
 31 32  1  0
 31  2  1  0
 14  8  2  0
 27 19  1  0
M  END
>  <cnnaffinity>  (1) 
-5.56682

>  <filename>  (1) 
O=C(Nc1[nH]ncc1Oc1cccnc1)c1cccnc1

$$$$
