
     RDKit          3D

 33 36  0  0  0  0  0  0  0  0999 V2000
    4.9911    1.7869   16.9313 H   0  0  0  0  0  0  0  0  0  0  0  0
    5.4258    1.2654   17.7840 C   0  0  0  0  0  0  0  0  0  0  0  0
    6.5694    0.6014   17.5578 N   0  0  0  0  0  0  0  0  0  0  0  0
    7.1246   -0.0415   18.5886 C   0  0  0  0  0  0  0  0  0  0  0  0
    8.0503   -0.5706   18.3700 H   0  0  0  0  0  0  0  0  0  0  0  0
    6.6023   -0.0324   19.8901 C   0  0  0  0  0  0  0  0  0  0  0  0
    7.3305   -0.7304   20.9441 C   0  0  0  0  0  0  0  0  0  0  0  0
    7.6882   -2.0457   20.8049 N   0  0  0  0  0  0  0  0  0  0  0  0
    8.2969   -2.3453   21.9226 C   0  0  0  0  0  0  0  0  0  0  0  0
    8.9463   -3.7746   22.6981 S   0  0  0  0  0  0  0  0  0  0  0  0
    9.4773   -2.8121   24.0701 C   0  0  0  0  0  0  0  0  0  0  0  0
   10.0239   -3.2733   24.8857 H   0  0  0  0  0  0  0  0  0  0  0  0
    9.1322   -1.5202   23.9331 C   0  0  0  0  0  0  0  0  0  0  0  0
    9.3258   -0.6839   24.5891 H   0  0  0  0  0  0  0  0  0  0  0  0
    8.4564   -1.2707   22.7499 N   0  0  0  0  0  0  0  0  0  0  0  0
    7.8240   -0.2087   22.1303 C   0  0  0  0  0  0  0  0  0  0  0  0
    7.7569    1.1778   22.5897 C   0  0  0  0  0  0  0  0  0  0  0  0
    6.7324    1.8225   22.4427 O   0  0  0  0  0  0  0  0  0  0  0  0
    8.9696    1.8119   23.2323 C   0  0  0  0  0  0  0  0  0  0  0  0
   10.2911    1.4488   22.9032 C   0  0  0  0  0  0  0  0  0  0  0  0
   10.4850    0.5433   22.3360 H   0  0  0  0  0  0  0  0  0  0  0  0
   11.3746    2.2335   23.3097 C   0  0  0  0  0  0  0  0  0  0  0  0
   12.4054    2.0101   23.0424 H   0  0  0  0  0  0  0  0  0  0  0  0
   11.1181    3.3455   24.1002 C   0  0  0  0  0  0  0  0  0  0  0  0
   12.1295    4.1387   24.4771 F   0  0  0  0  0  0  0  0  0  0  0  0
    9.8395    3.6605   24.5504 C   0  0  0  0  0  0  0  0  0  0  0  0
    9.7045    4.5082   25.2089 H   0  0  0  0  0  0  0  0  0  0  0  0
    8.7715    2.8803   24.1238 C   0  0  0  0  0  0  0  0  0  0  0  0
    7.7688    3.1016   24.4736 H   0  0  0  0  0  0  0  0  0  0  0  0
    5.4024    0.6603   20.1124 C   0  0  0  0  0  0  0  0  0  0  0  0
    4.9820    0.7408   21.1141 H   0  0  0  0  0  0  0  0  0  0  0  0
    4.7990    1.2997   19.0318 C   0  0  0  0  0  0  0  0  0  0  0  0
    3.8728    1.8464   19.1537 H   0  0  0  0  0  0  0  0  0  0  0  0
  1  2  1  0
  2  3  2  0
  3  4  1  0
  4  5  1  0
  4  6  2  0
  6  7  1  0
  7  8  1  0
  8  9  2  0
  9 10  1  0
 10 11  1  0
 11 12  1  0
 11 13  2  0
 13 14  1  0
 13 15  1  0
 15 16  1  0
 16 17  1  0
 17 18  2  0
 17 19  1  0
 19 20  2  0
 20 21  1  0
 20 22  1  0
 22 23  1  0
 22 24  2  0
 24 25  1  0
 24 26  1  0
 26 27  1  0
 26 28  2  0
 28 29  1  0
  6 30  1  0
 30 31  1  0
 30 32  2  0
 32 33  1  0
 32  2  1  0
 16  7  2  0
 28 19  1  0
 15  9  1  0
M  END
>  <cnnaffinity>  (1) 
-6.03306

>  <filename>  (1) 
O=C(c1ccc(F)cc1)c1c(-c2cccnc2)nc2sccn12

$$$$
