
     RDKit          3D

 28 29  0  0  0  0  0  0  0  0999 V2000
   13.8275    2.4103   22.9091 H   0  0  0  0  0  0  0  0  0  0  0  0
   12.9127    2.4021   22.5803 O   0  0  0  0  0  0  0  0  0  0  0  0
   12.6124    1.1281   22.8712 C   0  0  0  0  0  0  0  0  0  0  0  0
   13.4439    0.4424   23.4231 O   0  0  0  0  0  0  0  0  0  0  0  0
   11.2498    0.7706   22.4465 C   0  0  0  0  0  0  0  0  0  0  0  0
   10.7048    1.5813   21.9751 H   0  0  0  0  0  0  0  0  0  0  0  0
   10.7087   -0.4363   22.6700 C   0  0  0  0  0  0  0  0  0  0  0  0
   11.2990   -1.1794   23.2129 H   0  0  0  0  0  0  0  0  0  0  0  0
    9.3613   -0.8703   22.2769 C   0  0  0  0  0  0  0  0  0  0  0  0
    8.7591   -1.9872   22.9551 C   0  0  0  0  0  0  0  0  0  0  0  0
    9.3146   -2.4910   23.7486 H   0  0  0  0  0  0  0  0  0  0  0  0
    7.5088   -2.4016   22.6350 C   0  0  0  0  0  0  0  0  0  0  0  0
    7.0009   -3.2279   23.1087 H   0  0  0  0  0  0  0  0  0  0  0  0
    6.7171   -1.7690   21.5927 C   0  0  0  0  0  0  0  0  0  0  0  0
    5.6091   -2.1613   21.2684 O   0  0  0  0  0  0  0  0  0  0  0  0
    7.3643   -0.6645   20.9419 N   0  0  0  0  0  0  0  0  0  0  0  0
    6.6738    0.0361   19.8909 C   0  0  0  0  0  0  0  0  0  0  0  0
    7.1854    0.0823   18.5811 C   0  0  0  0  0  0  0  0  0  0  0  0
    8.1221   -0.4265   18.3550 H   0  0  0  0  0  0  0  0  0  0  0  0
    6.5613    0.6868   17.5634 N   0  0  0  0  0  0  0  0  0  0  0  0
    5.3964    1.3008   17.8281 C   0  0  0  0  0  0  0  0  0  0  0  0
    4.9131    1.7914   16.9859 H   0  0  0  0  0  0  0  0  0  0  0  0
    4.8110    1.3187   19.0991 C   0  0  0  0  0  0  0  0  0  0  0  0
    3.8744    1.8414   19.2522 H   0  0  0  0  0  0  0  0  0  0  0  0
    5.4522    0.6616   20.1523 C   0  0  0  0  0  0  0  0  0  0  0  0
    5.0286    0.6074   21.1542 H   0  0  0  0  0  0  0  0  0  0  0  0
    8.6356   -0.2611   21.2868 C   0  0  0  0  0  0  0  0  0  0  0  0
    9.0251    0.5629   20.6963 H   0  0  0  0  0  0  0  0  0  0  0  0
  1  2  1  0
  2  3  1  0
  3  4  2  0
  3  5  1  0
  5  6  1  0
  5  7  2  3
  7  8  1  0
  7  9  1  0
  9 10  1  0
 10 11  1  0
 10 12  2  0
 12 13  1  0
 12 14  1  0
 14 15  2  0
 14 16  1  0
 16 17  1  0
 17 18  2  0
 18 19  1  0
 18 20  1  0
 20 21  2  0
 21 22  1  0
 21 23  1  0
 23 24  1  0
 23 25  2  0
 25 26  1  0
 16 27  1  0
 27 28  1  0
 27  9  2  0
 25 17  1  0
M  END
>  <cnnaffinity>  (1) 
-4.70096

>  <filename>  (1) 
O=C(O)C=Cc1ccc(=O)n(-c2cccnc2)c1

$$$$
