
     RDKit          3D

 38 41  0  0  0  0  0  0  0  0999 V2000
    5.0197    1.8145   16.8787 H   0  0  0  0  0  0  0  0  0  0  0  0
    5.4415    1.2747   17.7236 C   0  0  0  0  0  0  0  0  0  0  0  0
    6.5819    0.6057   17.4967 N   0  0  0  0  0  0  0  0  0  0  0  0
    7.1500   -0.0262   18.5286 C   0  0  0  0  0  0  0  0  0  0  0  0
    8.0650   -0.5723   18.3098 H   0  0  0  0  0  0  0  0  0  0  0  0
    6.6285   -0.0102   19.8347 C   0  0  0  0  0  0  0  0  0  0  0  0
    7.4007   -0.5630   20.9643 C   0  0  0  0  0  0  0  0  0  0  0  0
    8.5645   -1.2129   20.7759 N   0  0  0  0  0  0  0  0  0  0  0  0
    8.9781   -1.4555   22.0383 N   0  0  0  0  0  0  0  0  0  0  0  0
   10.0847   -2.0676   22.6203 C   0  0  0  0  0  0  0  0  0  0  0  0
   10.8472   -2.5352   22.0194 H   0  0  0  0  0  0  0  0  0  0  0  0
    9.9312   -1.9101   23.9584 C   0  0  0  0  0  0  0  0  0  0  0  0
   10.5428   -2.2068   24.7943 H   0  0  0  0  0  0  0  0  0  0  0  0
    8.7535   -1.2245   24.1946 N   0  0  0  0  0  0  0  0  0  0  0  0
    8.3269   -0.8101   25.4502 N   0  0  0  0  0  0  0  0  0  0  0  0
    8.6816    0.1105   25.6758 H   0  0  0  0  0  0  0  0  0  0  0  0
    6.9322   -0.8139   25.6835 C   0  0  0  0  0  0  0  0  0  0  0  0
    6.1269   -1.5127   25.1133 O   0  0  0  0  0  0  0  0  0  0  0  0
    6.6432    0.1485   26.6170 N   0  0  0  0  0  0  0  0  0  0  0  0
    7.3665    0.3357   27.2860 H   0  0  0  0  0  0  0  0  0  0  0  0
    5.3429    0.5333   26.9807 C   0  0  0  0  0  0  0  0  0  0  0  0
    4.3212    0.6312   26.0247 C   0  0  0  0  0  0  0  0  0  0  0  0
    4.5405    0.3732   24.9930 H   0  0  0  0  0  0  0  0  0  0  0  0
    3.0474    1.0351   26.4259 C   0  0  0  0  0  0  0  0  0  0  0  0
    2.2588    1.1103   25.6806 H   0  0  0  0  0  0  0  0  0  0  0  0
    2.7907    1.3251   27.7715 C   0  0  0  0  0  0  0  0  0  0  0  0
    1.7956    1.6273   28.0760 H   0  0  0  0  0  0  0  0  0  0  0  0
    3.8169    1.2287   28.7192 C   0  0  0  0  0  0  0  0  0  0  0  0
    3.6259    1.4507   29.7665 H   0  0  0  0  0  0  0  0  0  0  0  0
    5.0998    0.8486   28.3203 C   0  0  0  0  0  0  0  0  0  0  0  0
    5.9153    0.7804   29.0358 H   0  0  0  0  0  0  0  0  0  0  0  0
    8.1531   -0.9692   22.9810 C   0  0  0  0  0  0  0  0  0  0  0  0
    7.0600   -0.4133   22.3268 C   0  0  0  0  0  0  0  0  0  0  0  0
    6.1380   -0.0732   22.7654 H   0  0  0  0  0  0  0  0  0  0  0  0
    5.3914    0.6255   20.0307 C   0  0  0  0  0  0  0  0  0  0  0  0
    4.9003    0.5827   21.0027 H   0  0  0  0  0  0  0  0  0  0  0  0
    4.7996    1.2964   18.9651 C   0  0  0  0  0  0  0  0  0  0  0  0
    3.8749    1.8482   19.0893 H   0  0  0  0  0  0  0  0  0  0  0  0
  1  2  1  0
  2  3  2  0
  3  4  1  0
  4  5  1  0
  4  6  2  0
  6  7  1  0
  7  8  2  0
  8  9  1  0
  9 10  1  0
 10 11  1  0
 10 12  2  0
 12 13  1  0
 12 14  1  0
 14 15  1  0
 15 16  1  0
 15 17  1  0
 17 18  2  0
 17 19  1  0
 19 20  1  0
 19 21  1  0
 21 22  2  0
 22 23  1  0
 22 24  1  0
 24 25  1  0
 24 26  2  0
 26 27  1  0
 26 28  1  0
 28 29  1  0
 28 30  2  0
 30 31  1  0
 14 32  1  0
 32 33  2  0
 33 34  1  0
  6 35  1  0
 35 36  1  0
 35 37  2  0
 37 38  1  0
 37  2  1  0
 33  7  1  0
 32  9  1  0
 30 21  1  0
M  END
>  <cnnaffinity>  (1) 
-5.68152

>  <filename>  (1) 
O=C(Nc1ccccc1)Nn1ccn2nc(-c3cccnc3)cc12

$$$$
