
     RDKit          3D

 32 34  0  0  0  0  0  0  0  0999 V2000
    5.0189    1.7323   17.0478 H   0  0  0  0  0  0  0  0  0  0  0  0
    5.4894    1.2484   17.8973 C   0  0  0  0  0  0  0  0  0  0  0  0
    6.6504    0.6279   17.6490 N   0  0  0  0  0  0  0  0  0  0  0  0
    7.2577    0.0147   18.6704 C   0  0  0  0  0  0  0  0  0  0  0  0
    8.1946   -0.4842   18.4138 H   0  0  0  0  0  0  0  0  0  0  0  0
    6.7281   -0.0134   19.9639 C   0  0  0  0  0  0  0  0  0  0  0  0
    7.3928   -0.7328   21.0685 C   0  0  0  0  0  0  0  0  0  0  0  0
    6.8036   -1.1846   22.0228 O   0  0  0  0  0  0  0  0  0  0  0  0
    8.7525   -0.8206   21.0066 N   0  0  0  0  0  0  0  0  0  0  0  0
    9.4304   -0.3717   20.4235 H   0  0  0  0  0  0  0  0  0  0  0  0
    9.5356   -1.7600   22.0890 S   0  0  0  0  0  0  0  0  0  0  0  0
    8.9469   -3.0808   22.0996 O   0  0  0  0  0  0  0  0  0  0  0  0
   10.8925   -1.4827   21.6466 O   0  0  0  0  0  0  0  0  0  0  0  0
    9.2350   -0.9991   23.6676 C   0  0  0  0  0  0  0  0  0  0  0  0
    9.1978   -1.8390   24.8160 C   0  0  0  0  0  0  0  0  0  0  0  0
    9.3275   -2.9161   24.7237 H   0  0  0  0  0  0  0  0  0  0  0  0
    9.0034   -1.3090   26.0854 C   0  0  0  0  0  0  0  0  0  0  0  0
    9.0038   -1.9414   26.9690 H   0  0  0  0  0  0  0  0  0  0  0  0
    8.8229    0.0812   26.1931 C   0  0  0  0  0  0  0  0  0  0  0  0
    8.9302    0.9354   25.0709 C   0  0  0  0  0  0  0  0  0  0  0  0
    9.1556    0.3885   23.7956 C   0  0  0  0  0  0  0  0  0  0  0  0
    9.2489    1.0763   22.9598 H   0  0  0  0  0  0  0  0  0  0  0  0
    8.7370    2.2788   25.5477 C   0  0  0  0  0  0  0  0  0  0  0  0
    8.8018    3.1903   24.9679 H   0  0  0  0  0  0  0  0  0  0  0  0
    8.4908    2.1958   26.8836 C   0  0  0  0  0  0  0  0  0  0  0  0
    8.2976    2.9802   27.6078 H   0  0  0  0  0  0  0  0  0  0  0  0
    8.5157    0.8663   27.2796 N   0  0  0  0  0  0  0  0  0  0  0  0
    8.6347    0.5675   28.2351 H   0  0  0  0  0  0  0  0  0  0  0  0
    5.4946    0.6205   20.2107 C   0  0  0  0  0  0  0  0  0  0  0  0
    5.0542    0.5974   21.2124 H   0  0  0  0  0  0  0  0  0  0  0  0
    4.8737    1.2719   19.1542 C   0  0  0  0  0  0  0  0  0  0  0  0
    3.9326    1.7912   19.2861 H   0  0  0  0  0  0  0  0  0  0  0  0
  1  2  1  0
  2  3  2  0
  3  4  1  0
  4  5  1  0
  4  6  2  0
  6  7  1  0
  7  8  2  0
  7  9  1  0
  9 10  1  0
  9 11  1  0
 11 12  2  0
 11 13  2  0
 11 14  1  0
 14 15  2  0
 15 16  1  0
 15 17  1  0
 17 18  1  0
 17 19  2  0
 19 20  1  0
 20 21  2  0
 21 22  1  0
 20 23  1  0
 23 24  1  0
 23 25  2  0
 25 26  1  0
 25 27  1  0
 27 28  1  0
  6 29  1  0
 29 30  1  0
 29 31  2  0
 31 32  1  0
 31  2  1  0
 21 14  1  0
 27 19  1  0
M  END
>  <cnnaffinity>  (1) 
-5.37724

>  <filename>  (1) 
O=C(NS(=O)(=O)c1ccc2[nH]ccc2c1)c1cccnc1

$$$$
