
     RDKit          3D

 40 42  0  0  0  0  0  0  0  0999 V2000
    4.9608    1.8039   16.9845 H   0  0  0  0  0  0  0  0  0  0  0  0
    5.4127    1.2943   17.8326 C   0  0  0  0  0  0  0  0  0  0  0  0
    6.5683    0.6564   17.5973 N   0  0  0  0  0  0  0  0  0  0  0  0
    7.1575    0.0375   18.6271 C   0  0  0  0  0  0  0  0  0  0  0  0
    8.0974   -0.4583   18.3861 H   0  0  0  0  0  0  0  0  0  0  0  0
    6.6236    0.0037   19.9244 C   0  0  0  0  0  0  0  0  0  0  0  0
    7.3206   -0.7000   21.0394 C   0  0  0  0  0  0  0  0  0  0  0  0
    6.5612   -1.2160   21.9672 N   0  0  0  0  0  0  0  0  0  0  0  0
    7.1547   -1.8752   23.0359 N   0  0  0  0  0  0  0  0  0  0  0  0
    6.2844   -2.6023   23.9232 C   0  0  0  0  0  0  0  0  0  0  0  0
    5.3587   -3.2700   23.5180 O   0  0  0  0  0  0  0  0  0  0  0  0
    6.6068   -2.4693   25.2303 N   0  0  0  0  0  0  0  0  0  0  0  0
    7.4241   -1.9212   25.4193 H   0  0  0  0  0  0  0  0  0  0  0  0
    5.7377   -2.9105   26.3072 C   0  0  0  0  0  0  0  0  0  0  0  0
    6.3082   -2.8848   27.2484 H   0  0  0  0  0  0  0  0  0  0  0  0
    5.4546   -3.9540   26.1273 H   0  0  0  0  0  0  0  0  0  0  0  0
    4.4505   -2.0792   26.4422 C   0  0  0  0  0  0  0  0  0  0  0  0
    3.8428   -2.5390   27.2299 H   0  0  0  0  0  0  0  0  0  0  0  0
    3.8771   -2.1761   25.5121 H   0  0  0  0  0  0  0  0  0  0  0  0
    4.7083   -0.6247   26.7593 C   0  0  0  0  0  0  0  0  0  0  0  0
    4.9478   -0.2062   28.0778 C   0  0  0  0  0  0  0  0  0  0  0  0
    4.8840   -0.9291   28.8896 H   0  0  0  0  0  0  0  0  0  0  0  0
    5.2732    1.1258   28.3568 C   0  0  0  0  0  0  0  0  0  0  0  0
    5.4684    1.4352   29.3809 H   0  0  0  0  0  0  0  0  0  0  0  0
    5.3644    2.0576   27.3170 C   0  0  0  0  0  0  0  0  0  0  0  0
    5.6275    3.0917   27.5285 H   0  0  0  0  0  0  0  0  0  0  0  0
    5.1274    1.6534   26.0001 C   0  0  0  0  0  0  0  0  0  0  0  0
    5.2081    2.3671   25.1837 H   0  0  0  0  0  0  0  0  0  0  0  0
    4.7991    0.3224   25.7282 C   0  0  0  0  0  0  0  0  0  0  0  0
    4.6274    0.0055   24.7034 H   0  0  0  0  0  0  0  0  0  0  0  0
    8.5535   -2.0725   23.1985 C   0  0  0  0  0  0  0  0  0  0  0  0
    9.0217   -2.6907   24.1407 O   0  0  0  0  0  0  0  0  0  0  0  0
    9.3505   -1.4579   22.1457 C   0  0  0  0  0  0  0  0  0  0  0  0
   10.4207   -1.5963   22.2702 H   0  0  0  0  0  0  0  0  0  0  0  0
    8.7651   -0.7961   21.1054 C   0  0  0  0  0  0  0  0  0  0  0  0
    9.3655   -0.3100   20.3422 H   0  0  0  0  0  0  0  0  0  0  0  0
    5.3980    0.6532   20.1455 C   0  0  0  0  0  0  0  0  0  0  0  0
    4.9498    0.6274   21.1389 H   0  0  0  0  0  0  0  0  0  0  0  0
    4.7896    1.3194   19.0841 C   0  0  0  0  0  0  0  0  0  0  0  0
    3.8604    1.8634   19.2137 H   0  0  0  0  0  0  0  0  0  0  0  0
  1  2  1  0
  2  3  2  0
  3  4  1  0
  4  5  1  0
  4  6  2  0
  6  7  1  0
  7  8  2  0
  8  9  1  0
  9 10  1  0
 10 11  2  0
 10 12  1  0
 12 13  1  0
 12 14  1  0
 14 15  1  0
 14 16  1  0
 14 17  1  0
 17 18  1  0
 17 19  1  0
 17 20  1  0
 20 21  2  0
 21 22  1  0
 21 23  1  0
 23 24  1  0
 23 25  2  0
 25 26  1  0
 25 27  1  0
 27 28  1  0
 27 29  2  0
 29 30  1  0
  9 31  1  0
 31 32  2  0
 31 33  1  0
 33 34  1  0
 33 35  2  0
 35 36  1  0
  6 37  1  0
 37 38  1  0
 37 39  2  0
 39 40  1  0
 39  2  1  0
 35  7  1  0
 29 20  1  0
M  END
>  <cnnaffinity>  (1) 
-5.35713

>  <filename>  (1) 
O=C(NCCc1ccccc1)n1nc(-c2cccnc2)ccc1=O

$$$$
