
     RDKit          3D

 35 37  0  0  0  0  0  0  0  0999 V2000
    4.9393    1.8094   16.9909 H   0  0  0  0  0  0  0  0  0  0  0  0
    5.4090    1.2937   17.8262 C   0  0  0  0  0  0  0  0  0  0  0  0
    6.5695    0.6690   17.5656 N   0  0  0  0  0  0  0  0  0  0  0  0
    7.1782    0.0473   18.5810 C   0  0  0  0  0  0  0  0  0  0  0  0
    8.1095   -0.4703   18.3692 H   0  0  0  0  0  0  0  0  0  0  0  0
    6.6784    0.0268   19.8940 C   0  0  0  0  0  0  0  0  0  0  0  0
    7.4303   -0.6508   20.8206 O   0  0  0  0  0  0  0  0  0  0  0  0
    7.4028   -0.2581   22.1385 C   0  0  0  0  0  0  0  0  0  0  0  0
    7.4514   -1.1603   23.2159 C   0  0  0  0  0  0  0  0  0  0  0  0
    7.5155   -2.2407   23.1710 H   0  0  0  0  0  0  0  0  0  0  0  0
    7.3967   -0.5286   24.3796 N   0  0  0  0  0  0  0  0  0  0  0  0
    7.3379    0.7753   24.0628 N   0  0  0  0  0  0  0  0  0  0  0  0
    7.0291    1.5101   24.6955 H   0  0  0  0  0  0  0  0  0  0  0  0
    7.3283    0.9859   22.7266 C   0  0  0  0  0  0  0  0  0  0  0  0
    7.2324    2.2728   22.1890 N   0  0  0  0  0  0  0  0  0  0  0  0
    7.5649    2.4162   21.2559 H   0  0  0  0  0  0  0  0  0  0  0  0
    6.7336    3.3450   22.8864 C   0  0  0  0  0  0  0  0  0  0  0  0
    6.3080    3.2507   24.0275 O   0  0  0  0  0  0  0  0  0  0  0  0
    6.7974    4.4995   22.1692 N   0  0  0  0  0  0  0  0  0  0  0  0
    7.0335    4.4265   21.2000 H   0  0  0  0  0  0  0  0  0  0  0  0
    6.5017    5.7827   22.6629 C   0  0  0  0  0  0  0  0  0  0  0  0
    6.0763    6.7660   21.7625 C   0  0  0  0  0  0  0  0  0  0  0  0
    5.9850    6.5209   20.7080 H   0  0  0  0  0  0  0  0  0  0  0  0
    5.7435    8.0413   22.2334 C   0  0  0  0  0  0  0  0  0  0  0  0
    5.3899    8.7959   21.5349 H   0  0  0  0  0  0  0  0  0  0  0  0
    5.8603    8.3478   23.5926 C   0  0  0  0  0  0  0  0  0  0  0  0
    5.5932    9.3363   23.9609 H   0  0  0  0  0  0  0  0  0  0  0  0
    6.3168    7.3664   24.4795 C   0  0  0  0  0  0  0  0  0  0  0  0
    6.4158    7.5870   25.5384 H   0  0  0  0  0  0  0  0  0  0  0  0
    6.6348    6.0871   24.0246 C   0  0  0  0  0  0  0  0  0  0  0  0
    6.9643    5.3156   24.7072 H   0  0  0  0  0  0  0  0  0  0  0  0
    5.4555    0.6481   20.1604 C   0  0  0  0  0  0  0  0  0  0  0  0
    5.0506    0.6509   21.1747 H   0  0  0  0  0  0  0  0  0  0  0  0
    4.8173    1.2942   19.0919 C   0  0  0  0  0  0  0  0  0  0  0  0
    3.8742    1.8067   19.2331 H   0  0  0  0  0  0  0  0  0  0  0  0
  1  2  1  0
  2  3  2  0
  3  4  1  0
  4  5  1  0
  4  6  2  0
  6  7  1  0
  7  8  1  0
  8  9  1  0
  9 10  1  0
  9 11  2  0
 11 12  1  0
 12 13  1  0
 12 14  1  0
 14 15  1  0
 15 16  1  0
 15 17  1  0
 17 18  2  0
 17 19  1  0
 19 20  1  0
 19 21  1  0
 21 22  2  0
 22 23  1  0
 22 24  1  0
 24 25  1  0
 24 26  2  0
 26 27  1  0
 26 28  1  0
 28 29  1  0
 28 30  2  0
 30 31  1  0
  6 32  1  0
 32 33  1  0
 32 34  2  0
 34 35  1  0
 34  2  1  0
 14  8  2  0
 30 21  1  0
M  END
>  <cnnaffinity>  (1) 
-5.20801

>  <filename>  (1) 
O=C(Nc1ccccc1)Nc1[nH]ncc1Oc1cccnc1

$$$$
