
     RDKit          3D

 34 36  0  0  0  0  0  0  0  0999 V2000
    4.9636    1.7908   17.0081 H   0  0  0  0  0  0  0  0  0  0  0  0
    5.4275    1.2783   17.8483 C   0  0  0  0  0  0  0  0  0  0  0  0
    6.5894    0.6508   17.5944 N   0  0  0  0  0  0  0  0  0  0  0  0
    7.1938    0.0310   18.6182 C   0  0  0  0  0  0  0  0  0  0  0  0
    8.1396   -0.4516   18.3732 H   0  0  0  0  0  0  0  0  0  0  0  0
    6.6845   -0.0100   19.9386 C   0  0  0  0  0  0  0  0  0  0  0  0
    7.3908   -0.6832   21.0621 C   0  0  0  0  0  0  0  0  0  0  0  0
    8.6331   -1.8767   20.8153 S   0  0  0  0  0  0  0  0  0  0  0  0
    8.8241   -2.1403   22.5042 C   0  0  0  0  0  0  0  0  0  0  0  0
    9.5171   -2.8668   22.8922 H   0  0  0  0  0  0  0  0  0  0  0  0
    8.0284   -1.3101   23.2262 C   0  0  0  0  0  0  0  0  0  0  0  0
    8.0291   -1.2474   24.6337 N   0  0  0  0  0  0  0  0  0  0  0  0
    8.2799   -2.0546   25.1714 H   0  0  0  0  0  0  0  0  0  0  0  0
    7.6569   -0.1323   25.3377 C   0  0  0  0  0  0  0  0  0  0  0  0
    7.4112    0.9476   24.8356 O   0  0  0  0  0  0  0  0  0  0  0  0
    7.5600   -0.3721   26.6849 N   0  0  0  0  0  0  0  0  0  0  0  0
    7.8495   -1.2636   27.0377 H   0  0  0  0  0  0  0  0  0  0  0  0
    6.9884    0.5506   27.5871 C   0  0  0  0  0  0  0  0  0  0  0  0
    5.9165    1.3630   27.1904 C   0  0  0  0  0  0  0  0  0  0  0  0
    5.5722    1.3023   26.1633 H   0  0  0  0  0  0  0  0  0  0  0  0
    5.3432    2.2464   28.1040 C   0  0  0  0  0  0  0  0  0  0  0  0
    4.5287    2.8900   27.7938 H   0  0  0  0  0  0  0  0  0  0  0  0
    5.8214    2.3007   29.4189 C   0  0  0  0  0  0  0  0  0  0  0  0
    5.0783    3.3972   30.5514 Cl  0  0  0  0  0  0  0  0  0  0  0  0
    6.8968    1.5017   29.8168 C   0  0  0  0  0  0  0  0  0  0  0  0
    7.2431    1.5399   30.8465 H   0  0  0  0  0  0  0  0  0  0  0  0
    7.5106    0.6664   28.8777 C   0  0  0  0  0  0  0  0  0  0  0  0
    8.4430    0.1573   29.1022 H   0  0  0  0  0  0  0  0  0  0  0  0
    7.2123   -0.4789   22.4015 C   0  0  0  0  0  0  0  0  0  0  0  0
    6.5795    0.2665   22.8666 H   0  0  0  0  0  0  0  0  0  0  0  0
    5.4538    0.6362   20.1620 C   0  0  0  0  0  0  0  0  0  0  0  0
    5.0067    0.6237   21.1561 H   0  0  0  0  0  0  0  0  0  0  0  0
    4.8161    1.2911   19.1055 C   0  0  0  0  0  0  0  0  0  0  0  0
    3.8811    1.8262   19.2502 H   0  0  0  0  0  0  0  0  0  0  0  0
  1  2  1  0
  2  3  2  0
  3  4  1  0
  4  5  1  0
  4  6  2  0
  6  7  1  0
  7  8  1  0
  8  9  1  0
  9 10  1  0
  9 11  2  0
 11 12  1  0
 12 13  1  0
 12 14  1  0
 14 15  2  0
 14 16  1  0
 16 17  1  0
 16 18  1  0
 18 19  2  0
 19 20  1  0
 19 21  1  0
 21 22  1  0
 21 23  2  0
 23 24  1  0
 23 25  1  0
 25 26  1  0
 25 27  2  0
 27 28  1  0
 11 29  1  0
 29 30  1  0
  6 31  1  0
 31 32  1  0
 31 33  2  0
 33 34  1  0
 33  2  1  0
 29  7  2  0
 27 18  1  0
M  END
>  <cnnaffinity>  (1) 
-5.16922

>  <filename>  (1) 
O=C(Nc1ccc(Cl)cc1)Nc1csc(-c2cccnc2)c1

$$$$
