
     RDKit          3D

 30 32  0  0  0  0  0  0  0  0999 V2000
    7.1607   -7.0215   26.4026 H   0  0  0  0  0  0  0  0  0  0  0  0
    7.8009   -6.5485   25.8412 O   0  0  0  0  0  0  0  0  0  0  0  0
    7.0059   -5.5107   25.5352 C   0  0  0  0  0  0  0  0  0  0  0  0
    5.8997   -5.4969   26.0404 O   0  0  0  0  0  0  0  0  0  0  0  0
    7.5746   -4.5066   24.6004 C   0  0  0  0  0  0  0  0  0  0  0  0
    6.8366   -3.3473   24.2824 C   0  0  0  0  0  0  0  0  0  0  0  0
    5.8471   -3.1976   24.7206 H   0  0  0  0  0  0  0  0  0  0  0  0
    7.3663   -2.3967   23.4111 C   0  0  0  0  0  0  0  0  0  0  0  0
    6.8029   -1.5022   23.1745 H   0  0  0  0  0  0  0  0  0  0  0  0
    8.6409   -2.5943   22.8620 C   0  0  0  0  0  0  0  0  0  0  0  0
    9.1912   -1.6384   21.9580 N   0  0  0  0  0  0  0  0  0  0  0  0
   10.5395   -1.4683   21.8321 N   0  0  0  0  0  0  0  0  0  0  0  0
   10.7187   -0.5520   20.9624 N   0  0  0  0  0  0  0  0  0  0  0  0
    9.5458   -0.0919   20.4688 N   0  0  0  0  0  0  0  0  0  0  0  0
    8.6211   -0.7738   21.0912 C   0  0  0  0  0  0  0  0  0  0  0  0
    7.2898   -0.6731   20.9557 O   0  0  0  0  0  0  0  0  0  0  0  0
    6.6936    0.0196   19.8892 C   0  0  0  0  0  0  0  0  0  0  0  0
    7.1979    0.0522   18.5748 C   0  0  0  0  0  0  0  0  0  0  0  0
    8.1498   -0.4167   18.3387 H   0  0  0  0  0  0  0  0  0  0  0  0
    6.5569    0.6644   17.5718 N   0  0  0  0  0  0  0  0  0  0  0  0
    5.3991    1.2844   17.8422 C   0  0  0  0  0  0  0  0  0  0  0  0
    4.9210    1.7893   17.0095 H   0  0  0  0  0  0  0  0  0  0  0  0
    4.8224    1.3025   19.1164 C   0  0  0  0  0  0  0  0  0  0  0  0
    3.8851    1.8260   19.2747 H   0  0  0  0  0  0  0  0  0  0  0  0
    5.4757    0.6443   20.1624 C   0  0  0  0  0  0  0  0  0  0  0  0
    5.0666    0.6045   21.1695 H   0  0  0  0  0  0  0  0  0  0  0  0
    9.4018   -3.7176   23.2087 C   0  0  0  0  0  0  0  0  0  0  0  0
   10.4256   -3.7677   22.8525 H   0  0  0  0  0  0  0  0  0  0  0  0
    8.8616   -4.6862   24.0447 C   0  0  0  0  0  0  0  0  0  0  0  0
    9.4398   -5.5758   24.2910 H   0  0  0  0  0  0  0  0  0  0  0  0
  1  2  1  0
  2  3  1  0
  3  4  2  0
  3  5  1  0
  5  6  2  0
  6  7  1  0
  6  8  1  0
  8  9  1  0
  8 10  2  0
 10 11  1  0
 11 12  1  0
 12 13  2  0
 13 14  1  0
 14 15  2  0
 15 16  1  0
 16 17  1  0
 17 18  2  0
 18 19  1  0
 18 20  1  0
 20 21  2  0
 21 22  1  0
 21 23  1  0
 23 24  1  0
 23 25  2  0
 25 26  1  0
 10 27  1  0
 27 28  1  0
 27 29  2  0
 29 30  1  0
 29  5  1  0
 15 11  1  0
 25 17  1  0
M  END
>  <cnnaffinity>  (1) 
-5.20636

>  <filename>  (1) 
O=C(O)c1ccc(-n2nnnc2Oc2cccnc2)cc1

$$$$
