
     RDKit          3D

 41 44  0  0  0  0  0  0  0  0999 V2000
    4.9527    1.8065   16.9759 H   0  0  0  0  0  0  0  0  0  0  0  0
    5.4018    1.2954   17.8261 C   0  0  0  0  0  0  0  0  0  0  0  0
    6.5598    0.6608   17.5847 N   0  0  0  0  0  0  0  0  0  0  0  0
    7.1566    0.0475   18.6093 C   0  0  0  0  0  0  0  0  0  0  0  0
    8.0951   -0.4515   18.3801 H   0  0  0  0  0  0  0  0  0  0  0  0
    6.6534    0.0513   19.9192 C   0  0  0  0  0  0  0  0  0  0  0  0
    7.4187   -0.5949   20.9765 C   0  0  0  0  0  0  0  0  0  0  0  0
    7.9632   -1.8290   20.7522 N   0  0  0  0  0  0  0  0  0  0  0  0
    8.3991   -2.2009   21.9273 C   0  0  0  0  0  0  0  0  0  0  0  0
    9.1705   -3.6031   22.6215 S   0  0  0  0  0  0  0  0  0  0  0  0
    9.3113   -2.7816   24.1653 C   0  0  0  0  0  0  0  0  0  0  0  0
    9.8463   -3.2752   24.9662 H   0  0  0  0  0  0  0  0  0  0  0  0
    8.7217   -1.5693   24.1491 C   0  0  0  0  0  0  0  0  0  0  0  0
    8.5489   -0.8402   24.9302 H   0  0  0  0  0  0  0  0  0  0  0  0
    8.2179   -1.2639   22.8933 N   0  0  0  0  0  0  0  0  0  0  0  0
    7.6088   -0.1836   22.2897 C   0  0  0  0  0  0  0  0  0  0  0  0
    7.1898    1.0284   23.0027 C   0  0  0  0  0  0  0  0  0  0  0  0
    6.9311    1.0630   24.1990 O   0  0  0  0  0  0  0  0  0  0  0  0
    7.1002    2.1250   22.2073 N   0  0  0  0  0  0  0  0  0  0  0  0
    7.5129    2.0387   21.2929 H   0  0  0  0  0  0  0  0  0  0  0  0
    6.6496    3.4150   22.7090 C   0  0  0  0  0  0  0  0  0  0  0  0
    5.9920    3.1836   23.5611 H   0  0  0  0  0  0  0  0  0  0  0  0
    7.8124    4.2762   23.2483 C   0  0  0  0  0  0  0  0  0  0  0  0
    8.3178    3.7127   24.0436 H   0  0  0  0  0  0  0  0  0  0  0  0
    8.5535    4.4301   22.4463 H   0  0  0  0  0  0  0  0  0  0  0  0
    7.3184    5.6495   23.7607 C   0  0  0  0  0  0  0  0  0  0  0  0
    6.6740    5.5010   24.6426 H   0  0  0  0  0  0  0  0  0  0  0  0
    8.1678    6.2544   24.1072 H   0  0  0  0  0  0  0  0  0  0  0  0
    6.5214    6.4043   22.6777 C   0  0  0  0  0  0  0  0  0  0  0  0
    6.1531    7.3645   23.0630 H   0  0  0  0  0  0  0  0  0  0  0  0
    7.1960    6.6590   21.8439 H   0  0  0  0  0  0  0  0  0  0  0  0
    5.3471    5.5530   22.1486 C   0  0  0  0  0  0  0  0  0  0  0  0
    4.8390    6.0788   21.3282 H   0  0  0  0  0  0  0  0  0  0  0  0
    4.5951    5.4239   22.9433 H   0  0  0  0  0  0  0  0  0  0  0  0
    5.8385    4.1754   21.6499 C   0  0  0  0  0  0  0  0  0  0  0  0
    5.0119    3.5395   21.3043 H   0  0  0  0  0  0  0  0  0  0  0  0
    6.4633    4.3611   20.7724 H   0  0  0  0  0  0  0  0  0  0  0  0
    5.4144    0.6703   20.1474 C   0  0  0  0  0  0  0  0  0  0  0  0
    4.9601    0.6693   21.1391 H   0  0  0  0  0  0  0  0  0  0  0  0
    4.7887    1.3153   19.0833 C   0  0  0  0  0  0  0  0  0  0  0  0
    3.8612    1.8610   19.2268 H   0  0  0  0  0  0  0  0  0  0  0  0
  1  2  1  0
  2  3  2  0
  3  4  1  0
  4  5  1  0
  4  6  2  0
  6  7  1  0
  7  8  1  0
  8  9  2  0
  9 10  1  0
 10 11  1  0
 11 12  1  0
 11 13  2  0
 13 14  1  0
 13 15  1  0
 15 16  1  0
 16 17  1  0
 17 18  2  0
 17 19  1  0
 19 20  1  0
 19 21  1  0
 21 22  1  0
 21 23  1  0
 23 24  1  0
 23 25  1  0
 23 26  1  0
 26 27  1  0
 26 28  1  0
 26 29  1  0
 29 30  1  0
 29 31  1  0
 29 32  1  0
 32 33  1  0
 32 34  1  0
 32 35  1  0
 35 36  1  0
 35 37  1  0
  6 38  1  0
 38 39  1  0
 38 40  2  0
 40 41  1  0
 40  2  1  0
 16  7  2  0
 35 21  1  0
 15  9  1  0
M  END
>  <cnnaffinity>  (1) 
-5.32481

>  <filename>  (1) 
O=C(NC1CCCCC1)c1c(-c2cccnc2)nc2sccn12

$$$$
