
     RDKit          3D

 33 35  0  0  0  0  0  0  0  0999 V2000
    5.0058    1.8037   17.0002 H   0  0  0  0  0  0  0  0  0  0  0  0
    5.4622    1.2793   17.8361 C   0  0  0  0  0  0  0  0  0  0  0  0
    6.6038    0.6247   17.5743 N   0  0  0  0  0  0  0  0  0  0  0  0
    7.1907   -0.0334   18.5827 C   0  0  0  0  0  0  0  0  0  0  0  0
    8.1189   -0.5552   18.3581 H   0  0  0  0  0  0  0  0  0  0  0  0
    6.6756   -0.0659   19.8905 C   0  0  0  0  0  0  0  0  0  0  0  0
    7.2540   -0.7925   20.9022 O   0  0  0  0  0  0  0  0  0  0  0  0
    8.6262   -0.8123   21.0490 C   0  0  0  0  0  0  0  0  0  0  0  0
    9.6335    0.0898   20.6501 C   0  0  0  0  0  0  0  0  0  0  0  0
    9.5317    0.9804   20.0522 H   0  0  0  0  0  0  0  0  0  0  0  0
   10.8200   -0.2567   21.1303 N   0  0  0  0  0  0  0  0  0  0  0  0
   10.5899   -1.3876   21.8226 N   0  0  0  0  0  0  0  0  0  0  0  0
   11.2299   -1.8061   22.4901 H   0  0  0  0  0  0  0  0  0  0  0  0
    9.2869   -1.7416   21.8097 C   0  0  0  0  0  0  0  0  0  0  0  0
    8.7783   -2.8290   22.5152 N   0  0  0  0  0  0  0  0  0  0  0  0
    7.8067   -3.0305   22.3542 H   0  0  0  0  0  0  0  0  0  0  0  0
    9.4389   -3.4891   23.5133 C   0  0  0  0  0  0  0  0  0  0  0  0
   10.6268   -3.2765   23.7396 O   0  0  0  0  0  0  0  0  0  0  0  0
    8.6463   -4.5056   24.2773 C   0  0  0  0  0  0  0  0  0  0  0  0
    7.2413   -4.5043   24.3526 C   0  0  0  0  0  0  0  0  0  0  0  0
    6.6365   -3.7909   23.7944 H   0  0  0  0  0  0  0  0  0  0  0  0
    6.5811   -5.3763   25.2165 C   0  0  0  0  0  0  0  0  0  0  0  0
    5.5004   -5.3285   25.2908 H   0  0  0  0  0  0  0  0  0  0  0  0
    7.3082   -6.2803   25.9951 C   0  0  0  0  0  0  0  0  0  0  0  0
    6.7962   -6.9656   26.6624 H   0  0  0  0  0  0  0  0  0  0  0  0
    8.7010   -6.3038   25.9082 C   0  0  0  0  0  0  0  0  0  0  0  0
    9.2647   -6.9876   26.5293 H   0  0  0  0  0  0  0  0  0  0  0  0
    9.3676   -5.4336   25.0511 C   0  0  0  0  0  0  0  0  0  0  0  0
   10.4551   -5.4251   25.0121 H   0  0  0  0  0  0  0  0  0  0  0  0
    5.4787    0.6122   20.1559 C   0  0  0  0  0  0  0  0  0  0  0  0
    5.0551    0.5989   21.1594 H   0  0  0  0  0  0  0  0  0  0  0  0
    4.8633    1.2969   19.1022 C   0  0  0  0  0  0  0  0  0  0  0  0
    3.9381    1.8472   19.2505 H   0  0  0  0  0  0  0  0  0  0  0  0
  1  2  1  0
  2  3  2  0
  3  4  1  0
  4  5  1  0
  4  6  2  0
  6  7  1  0
  7  8  1  0
  8  9  1  0
  9 10  1  0
  9 11  2  0
 11 12  1  0
 12 13  1  0
 12 14  1  0
 14 15  1  0
 15 16  1  0
 15 17  1  0
 17 18  2  0
 17 19  1  0
 19 20  2  0
 20 21  1  0
 20 22  1  0
 22 23  1  0
 22 24  2  0
 24 25  1  0
 24 26  1  0
 26 27  1  0
 26 28  2  0
 28 29  1  0
  6 30  1  0
 30 31  1  0
 30 32  2  0
 32 33  1  0
 32  2  1  0
 14  8  2  0
 28 19  1  0
M  END
>  <cnnaffinity>  (1) 
-5.53789

>  <filename>  (1) 
O=C(Nc1[nH]ncc1Oc1cccnc1)c1ccccc1

$$$$
