
     RDKit          3D

 36 39  0  0  0  0  0  0  0  0999 V2000
    4.9033    1.7282   17.0070 H   0  0  0  0  0  0  0  0  0  0  0  0
    5.3894    1.2940   17.8779 C   0  0  0  0  0  0  0  0  0  0  0  0
    6.5746    0.7112   17.6400 N   0  0  0  0  0  0  0  0  0  0  0  0
    7.2086    0.1898   18.6906 C   0  0  0  0  0  0  0  0  0  0  0  0
    8.1800   -0.2579   18.4821 H   0  0  0  0  0  0  0  0  0  0  0  0
    6.7151    0.1968   20.0153 C   0  0  0  0  0  0  0  0  0  0  0  0
    7.4878   -0.4657   21.0641 C   0  0  0  0  0  0  0  0  0  0  0  0
    8.4056   -1.4882   20.9699 C   0  0  0  0  0  0  0  0  0  0  0  0
    8.8053   -1.9121   20.0627 H   0  0  0  0  0  0  0  0  0  0  0  0
    8.8111   -1.9655   22.1800 N   0  0  0  0  0  0  0  0  0  0  0  0
    8.1475   -1.2165   23.0209 C   0  0  0  0  0  0  0  0  0  0  0  0
    8.0927   -1.0843   24.7322 S   0  0  0  0  0  0  0  0  0  0  0  0
    7.0681    0.3238   24.4613 C   0  0  0  0  0  0  0  0  0  0  0  0
    6.5761    1.1259   25.4573 N   0  0  0  0  0  0  0  0  0  0  0  0
    6.1607    1.9756   25.1145 H   0  0  0  0  0  0  0  0  0  0  0  0
    6.8755    0.9031   26.7829 C   0  0  0  0  0  0  0  0  0  0  0  0
    7.4388   -0.1089   27.1369 O   0  0  0  0  0  0  0  0  0  0  0  0
    6.4839    1.9156   27.6043 N   0  0  0  0  0  0  0  0  0  0  0  0
    5.8800    2.6070   27.2072 H   0  0  0  0  0  0  0  0  0  0  0  0
    6.8599    2.0628   28.9595 C   0  0  0  0  0  0  0  0  0  0  0  0
    6.0588    2.8594   29.7863 C   0  0  0  0  0  0  0  0  0  0  0  0
    5.1244    3.2533   29.3980 H   0  0  0  0  0  0  0  0  0  0  0  0
    6.4496    3.1322   31.1017 C   0  0  0  0  0  0  0  0  0  0  0  0
    5.8537    3.7739   31.7463 H   0  0  0  0  0  0  0  0  0  0  0  0
    7.6352    2.5824   31.5938 C   0  0  0  0  0  0  0  0  0  0  0  0
    8.1418    2.9892   33.2061 Cl  0  0  0  0  0  0  0  0  0  0  0  0
    8.4126    1.7326   30.8058 C   0  0  0  0  0  0  0  0  0  0  0  0
    9.3025    1.2780   31.2365 H   0  0  0  0  0  0  0  0  0  0  0  0
    8.0242    1.4769   29.4871 C   0  0  0  0  0  0  0  0  0  0  0  0
    8.6086    0.8190   28.8630 H   0  0  0  0  0  0  0  0  0  0  0  0
    6.7650    0.6438   23.2437 N   0  0  0  0  0  0  0  0  0  0  0  0
    7.3513   -0.2840   22.4298 N   0  0  0  0  0  0  0  0  0  0  0  0
    5.4723    0.8136   20.2450 C   0  0  0  0  0  0  0  0  0  0  0  0
    5.0661    0.8722   21.2563 H   0  0  0  0  0  0  0  0  0  0  0  0
    4.8062    1.3622   19.1477 C   0  0  0  0  0  0  0  0  0  0  0  0
    3.8548    1.8637   19.2614 H   0  0  0  0  0  0  0  0  0  0  0  0
  1  2  1  0
  2  3  2  0
  3  4  1  0
  4  5  1  0
  4  6  2  0
  6  7  1  0
  7  8  2  0
  8  9  1  0
  8 10  1  0
 10 11  2  0
 11 12  1  0
 12 13  1  0
 13 14  1  0
 14 15  1  0
 14 16  1  0
 16 17  2  0
 16 18  1  0
 18 19  1  0
 18 20  1  0
 20 21  2  0
 21 22  1  0
 21 23  1  0
 23 24  1  0
 23 25  2  0
 25 26  1  0
 25 27  1  0
 27 28  1  0
 27 29  2  0
 29 30  1  0
 13 31  2  0
 31 32  1  0
  6 33  1  0
 33 34  1  0
 33 35  2  0
 35 36  1  0
 35  2  1  0
 32  7  1  0
 32 11  1  0
 29 20  1  0
M  END
>  <cnnaffinity>  (1) 
-5.24163

>  <filename>  (1) 
O=C(Nc1ccc(Cl)cc1)Nc1nn2c(-c3cccnc3)cnc2s1

$$$$
