
     RDKit          3D

 38 41  0  0  0  0  0  0  0  0999 V2000
    5.1247    2.8757   27.8061 H   0  0  0  0  0  0  0  0  0  0  0  0
    5.4324    3.2555   26.9618 O   0  0  0  0  0  0  0  0  0  0  0  0
    5.7279    2.0950   26.3479 C   0  0  0  0  0  0  0  0  0  0  0  0
    5.5443    1.0738   26.9717 O   0  0  0  0  0  0  0  0  0  0  0  0
    6.2490    2.1965   24.9507 C   0  0  0  0  0  0  0  0  0  0  0  0
    6.4422    3.4257   24.2913 C   0  0  0  0  0  0  0  0  0  0  0  0
    6.2113    4.3587   24.8048 H   0  0  0  0  0  0  0  0  0  0  0  0
    6.9370    3.4414   22.9835 C   0  0  0  0  0  0  0  0  0  0  0  0
    7.1112    4.3834   22.4745 H   0  0  0  0  0  0  0  0  0  0  0  0
    7.2335    2.2463   22.3262 C   0  0  0  0  0  0  0  0  0  0  0  0
    7.6183    2.2356   21.3101 H   0  0  0  0  0  0  0  0  0  0  0  0
    7.0565    1.0195   22.9792 C   0  0  0  0  0  0  0  0  0  0  0  0
    7.4625   -0.2276   22.3508 C   0  0  0  0  0  0  0  0  0  0  0  0
    7.3590   -0.6448   20.9814 C   0  0  0  0  0  0  0  0  0  0  0  0
    6.6123   -0.0046   19.8845 C   0  0  0  0  0  0  0  0  0  0  0  0
    7.1293   -0.0029   18.5744 C   0  0  0  0  0  0  0  0  0  0  0  0
    8.0541   -0.5298   18.3446 H   0  0  0  0  0  0  0  0  0  0  0  0
    6.5589    0.6344   17.5470 N   0  0  0  0  0  0  0  0  0  0  0  0
    5.4129    1.2935   17.7785 C   0  0  0  0  0  0  0  0  0  0  0  0
    4.9925    1.8413   16.9345 H   0  0  0  0  0  0  0  0  0  0  0  0
    4.7805    1.3010   19.0240 C   0  0  0  0  0  0  0  0  0  0  0  0
    3.8501    1.8401   19.1417 H   0  0  0  0  0  0  0  0  0  0  0  0
    5.3801    0.6392   20.0932 C   0  0  0  0  0  0  0  0  0  0  0  0
    4.9147    0.6491   21.0806 H   0  0  0  0  0  0  0  0  0  0  0  0
    8.0634   -1.7553   20.7765 N   0  0  0  0  0  0  0  0  0  0  0  0
    8.5569   -2.0433   21.9792 N   0  0  0  0  0  0  0  0  0  0  0  0
    8.2572   -1.1922   22.9521 C   0  0  0  0  0  0  0  0  0  0  0  0
    9.0569   -1.5080   24.1974 C   0  0  0  0  0  0  0  0  0  0  0  0
    8.4163   -1.7258   25.0546 H   0  0  0  0  0  0  0  0  0  0  0  0
    9.6940   -0.6711   24.5004 H   0  0  0  0  0  0  0  0  0  0  0  0
    9.8987   -2.7458   23.7682 C   0  0  0  0  0  0  0  0  0  0  0  0
   10.9612   -2.5206   23.8061 H   0  0  0  0  0  0  0  0  0  0  0  0
    9.7082   -3.6022   24.4161 H   0  0  0  0  0  0  0  0  0  0  0  0
    9.5207   -3.0614   22.2947 C   0  0  0  0  0  0  0  0  0  0  0  0
   10.3690   -2.9315   21.6194 H   0  0  0  0  0  0  0  0  0  0  0  0
    9.0524   -4.0378   22.1524 H   0  0  0  0  0  0  0  0  0  0  0  0
    6.5697    1.0010   24.2870 C   0  0  0  0  0  0  0  0  0  0  0  0
    6.4276    0.0533   24.8019 H   0  0  0  0  0  0  0  0  0  0  0  0
  1  2  1  0
  2  3  1  0
  3  4  2  0
  3  5  1  0
  5  6  2  0
  6  7  1  0
  6  8  1  0
  8  9  1  0
  8 10  2  0
 10 11  1  0
 10 12  1  0
 12 13  1  0
 13 14  1  0
 14 15  1  0
 15 16  2  0
 16 17  1  0
 16 18  1  0
 18 19  2  0
 19 20  1  0
 19 21  1  0
 21 22  1  0
 21 23  2  0
 23 24  1  0
 14 25  2  0
 25 26  1  0
 26 27  1  0
 27 28  1  0
 28 29  1  0
 28 30  1  0
 28 31  1  0
 31 32  1  0
 31 33  1  0
 31 34  1  0
 34 35  1  0
 34 36  1  0
 12 37  2  0
 37 38  1  0
 37  5  1  0
 27 13  2  0
 23 15  1  0
 34 26  1  0
M  END
>  <cnnaffinity>  (1) 
-5.37976

>  <filename>  (1) 
O=C(O)c1cccc(-c2c(-c3cccnc3)nn3c2CCC3)c1

$$$$
