
     RDKit          3D

 32 34  0  0  0  0  0  0  0  0999 V2000
    5.0495    1.8908   16.7105 H   0  0  0  0  0  0  0  0  0  0  0  0
    5.4041    1.3701   17.5987 C   0  0  0  0  0  0  0  0  0  0  0  0
    6.5501    0.6835   17.4647 N   0  0  0  0  0  0  0  0  0  0  0  0
    7.0248    0.0598   18.5473 C   0  0  0  0  0  0  0  0  0  0  0  0
    7.9611   -0.4876   18.4375 H   0  0  0  0  0  0  0  0  0  0  0  0
    6.3772    0.0840   19.7851 C   0  0  0  0  0  0  0  0  0  0  0  0
    7.0409   -0.6346   20.8920 C   0  0  0  0  0  0  0  0  0  0  0  0
    7.9411   -1.4202   20.7679 O   0  0  0  0  0  0  0  0  0  0  0  0
    6.4546   -0.2523   22.0983 O   0  0  0  0  0  0  0  0  0  0  0  0
    6.9901   -0.6660   23.3415 N   0  0  0  0  0  0  0  0  0  0  0  0
    6.6421   -1.6058   23.5127 H   0  0  0  0  0  0  0  0  0  0  0  0
    8.4031   -0.6443   23.3971 C   0  0  0  0  0  0  0  0  0  0  0  0
    9.0709   -1.8137   23.6865 C   0  0  0  0  0  0  0  0  0  0  0  0
    8.4960   -2.6885   23.9658 H   0  0  0  0  0  0  0  0  0  0  0  0
   10.4750   -1.8869   23.5452 C   0  0  0  0  0  0  0  0  0  0  0  0
   10.9599   -2.8449   23.7095 H   0  0  0  0  0  0  0  0  0  0  0  0
   11.2046   -0.7634   23.2251 C   0  0  0  0  0  0  0  0  0  0  0  0
   12.2858   -0.8051   23.1242 H   0  0  0  0  0  0  0  0  0  0  0  0
   10.5550    0.4947   23.0420 C   0  0  0  0  0  0  0  0  0  0  0  0
   11.2732    1.7141   22.8154 C   0  0  0  0  0  0  0  0  0  0  0  0
   12.3615    1.6988   22.8082 H   0  0  0  0  0  0  0  0  0  0  0  0
   10.5991    2.9019   22.6300 C   0  0  0  0  0  0  0  0  0  0  0  0
   11.1459    3.8286   22.4659 H   0  0  0  0  0  0  0  0  0  0  0  0
    9.1787    2.9423   22.6648 C   0  0  0  0  0  0  0  0  0  0  0  0
    8.6571    3.8841   22.5114 H   0  0  0  0  0  0  0  0  0  0  0  0
    8.4549    1.7980   22.8984 C   0  0  0  0  0  0  0  0  0  0  0  0
    7.3701    1.8099   22.9587 H   0  0  0  0  0  0  0  0  0  0  0  0
    9.1238    0.5524   23.1030 C   0  0  0  0  0  0  0  0  0  0  0  0
    5.1713    0.7845   19.9211 C   0  0  0  0  0  0  0  0  0  0  0  0
    4.6544    0.8113   20.8804 H   0  0  0  0  0  0  0  0  0  0  0  0
    4.6786    1.4412   18.7946 C   0  0  0  0  0  0  0  0  0  0  0  0
    3.7611    2.0172   18.8422 H   0  0  0  0  0  0  0  0  0  0  0  0
  1  2  1  0
  2  3  2  0
  3  4  1  0
  4  5  1  0
  4  6  2  0
  6  7  1  0
  7  8  2  0
  7  9  1  0
  9 10  1  0
 10 11  1  0
 10 12  1  0
 12 13  2  0
 13 14  1  0
 13 15  1  0
 15 16  1  0
 15 17  2  0
 17 18  1  0
 17 19  1  0
 19 20  2  0
 20 21  1  0
 20 22  1  0
 22 23  1  0
 22 24  2  0
 24 25  1  0
 24 26  1  0
 26 27  1  0
 26 28  2  0
  6 29  1  0
 29 30  1  0
 29 31  2  0
 31 32  1  0
 31  2  1  0
 28 12  1  0
 28 19  1  0
M  END
>  <cnnaffinity>  (1) 
-5.15625

>  <filename>  (1) 
O=C(ONc1cccc2ccccc12)c1cccnc1

$$$$
