
     RDKit          3D

 32 34  0  0  0  0  0  0  0  0999 V2000
    5.0199    1.8296   16.8899 H   0  0  0  0  0  0  0  0  0  0  0  0
    5.4306    1.2836   17.7383 C   0  0  0  0  0  0  0  0  0  0  0  0
    6.5421    0.5706   17.4944 N   0  0  0  0  0  0  0  0  0  0  0  0
    7.0896   -0.0799   18.5255 C   0  0  0  0  0  0  0  0  0  0  0  0
    7.9732   -0.6812   18.3131 H   0  0  0  0  0  0  0  0  0  0  0  0
    6.5846   -0.0193   19.8343 C   0  0  0  0  0  0  0  0  0  0  0  0
    7.4263   -0.5781   20.9639 C   0  0  0  0  0  0  0  0  0  0  0  0
    6.6078   -0.8805   22.0280 F   0  0  0  0  0  0  0  0  0  0  0  0
    7.9963   -1.7449   20.5705 F   0  0  0  0  0  0  0  0  0  0  0  0
    8.5783    0.4045   21.4315 C   0  0  0  0  0  0  0  0  0  0  0  0
    9.6734    0.3708   20.9007 O   0  0  0  0  0  0  0  0  0  0  0  0
    8.2246    1.3177   22.3961 N   0  0  0  0  0  0  0  0  0  0  0  0
    7.3183    1.2518   22.8256 H   0  0  0  0  0  0  0  0  0  0  0  0
    8.9639    2.4304   22.7981 C   0  0  0  0  0  0  0  0  0  0  0  0
    8.6412    3.3704   23.7418 C   0  0  0  0  0  0  0  0  0  0  0  0
    7.7725    3.3735   24.3836 H   0  0  0  0  0  0  0  0  0  0  0  0
    9.7244    4.3255   23.7524 C   0  0  0  0  0  0  0  0  0  0  0  0
   10.0292    5.4955   24.4879 C   0  0  0  0  0  0  0  0  0  0  0  0
    9.3395    5.8490   25.2546 H   0  0  0  0  0  0  0  0  0  0  0  0
   11.2188    6.1753   24.2199 C   0  0  0  0  0  0  0  0  0  0  0  0
   11.4712    7.0654   24.7918 H   0  0  0  0  0  0  0  0  0  0  0  0
   12.1081    5.7203   23.2121 C   0  0  0  0  0  0  0  0  0  0  0  0
   13.0220    6.2744   23.0065 H   0  0  0  0  0  0  0  0  0  0  0  0
   11.8336    4.5713   22.4762 C   0  0  0  0  0  0  0  0  0  0  0  0
   12.4844    4.2007   21.6871 H   0  0  0  0  0  0  0  0  0  0  0  0
   10.6547    3.8801   22.7745 C   0  0  0  0  0  0  0  0  0  0  0  0
   10.1630    2.7183   22.2185 N   0  0  0  0  0  0  0  0  0  0  0  0
   10.6613    2.0425   21.6586 H   0  0  0  0  0  0  0  0  0  0  0  0
    5.3752    0.6541   20.0609 C   0  0  0  0  0  0  0  0  0  0  0  0
    4.8825    0.6129   21.0364 H   0  0  0  0  0  0  0  0  0  0  0  0
    4.7937    1.3301   18.9859 C   0  0  0  0  0  0  0  0  0  0  0  0
    3.8742    1.8992   19.1060 H   0  0  0  0  0  0  0  0  0  0  0  0
  1  2  1  0
  2  3  2  0
  3  4  1  0
  4  5  1  0
  4  6  2  0
  6  7  1  0
  7  8  1  0
  7  9  1  0
  7 10  1  0
 10 11  2  0
 10 12  1  0
 12 13  1  0
 12 14  1  0
 14 15  2  0
 15 16  1  0
 15 17  1  0
 17 18  2  0
 18 19  1  0
 18 20  1  0
 20 21  1  0
 20 22  2  0
 22 23  1  0
 22 24  1  0
 24 25  1  0
 24 26  2  0
 26 27  1  0
 27 28  1  0
  6 29  1  0
 29 30  1  0
 29 31  2  0
 31 32  1  0
 31  2  1  0
 27 14  1  0
 26 17  1  0
M  END
>  <cnnaffinity>  (1) 
-4.53845

>  <filename>  (1) 
O=C(Nc1cc2ccccc2[nH]1)C(F)(F)c1cccnc1

$$$$
