
     RDKit          3D

 30 31  0  0  0  0  0  0  0  0999 V2000
    4.9492    1.8681   16.8336 H   0  0  0  0  0  0  0  0  0  0  0  0
    5.4154    1.3533   17.6723 C   0  0  0  0  0  0  0  0  0  0  0  0
    6.5966    0.7594   17.4242 N   0  0  0  0  0  0  0  0  0  0  0  0
    7.1946    0.1163   18.4362 C   0  0  0  0  0  0  0  0  0  0  0  0
    8.1673   -0.3344   18.2471 H   0  0  0  0  0  0  0  0  0  0  0  0
    6.6270    0.0069   19.7143 C   0  0  0  0  0  0  0  0  0  0  0  0
    7.3612   -0.6328   20.7065 O   0  0  0  0  0  0  0  0  0  0  0  0
    6.8552   -1.6751   21.4599 C   0  0  0  0  0  0  0  0  0  0  0  0
    6.0428   -2.4697   21.0770 O   0  0  0  0  0  0  0  0  0  0  0  0
    7.5378   -1.6928   22.7985 C   0  0  0  0  0  0  0  0  0  0  0  0
    7.1031   -2.5184   23.3674 H   0  0  0  0  0  0  0  0  0  0  0  0
    8.5938   -1.9381   22.6318 H   0  0  0  0  0  0  0  0  0  0  0  0
    7.4358   -0.3606   23.5817 C   0  0  0  0  0  0  0  0  0  0  0  0
    6.3764   -0.1284   23.7821 H   0  0  0  0  0  0  0  0  0  0  0  0
    7.8281    0.4741   22.9912 H   0  0  0  0  0  0  0  0  0  0  0  0
    8.1666   -0.4830   24.8962 C   0  0  0  0  0  0  0  0  0  0  0  0
    7.5306   -1.1861   25.9312 C   0  0  0  0  0  0  0  0  0  0  0  0
    6.5561   -1.6281   25.7380 H   0  0  0  0  0  0  0  0  0  0  0  0
    8.1414   -1.3827   27.1657 C   0  0  0  0  0  0  0  0  0  0  0  0
    7.6084   -1.9246   27.9298 H   0  0  0  0  0  0  0  0  0  0  0  0
    9.4210   -0.8706   27.3981 C   0  0  0  0  0  0  0  0  0  0  0  0
    9.9035   -0.9942   28.3614 H   0  0  0  0  0  0  0  0  0  0  0  0
   10.0867   -0.1830   26.3821 C   0  0  0  0  0  0  0  0  0  0  0  0
   11.0747    0.2305   26.5390 H   0  0  0  0  0  0  0  0  0  0  0  0
    9.4663   -0.0062   25.1407 C   0  0  0  0  0  0  0  0  0  0  0  0
   10.3475    0.8748   23.9176 Cl  0  0  0  0  0  0  0  0  0  0  0  0
    5.4115    0.6412   19.9821 C   0  0  0  0  0  0  0  0  0  0  0  0
    4.9815    0.6171   20.9833 H   0  0  0  0  0  0  0  0  0  0  0  0
    4.7992    1.3332   18.9268 C   0  0  0  0  0  0  0  0  0  0  0  0
    3.8611    1.8595   19.0678 H   0  0  0  0  0  0  0  0  0  0  0  0
  1  2  1  0
  2  3  2  0
  3  4  1  0
  4  5  1  0
  4  6  2  0
  6  7  1  0
  7  8  1  0
  8  9  2  0
  8 10  1  0
 10 11  1  0
 10 12  1  0
 10 13  1  0
 13 14  1  0
 13 15  1  0
 13 16  1  0
 16 17  2  0
 17 18  1  0
 17 19  1  0
 19 20  1  0
 19 21  2  0
 21 22  1  0
 21 23  1  0
 23 24  1  0
 23 25  2  0
 25 26  1  0
  6 27  1  0
 27 28  1  0
 27 29  2  0
 29 30  1  0
 29  2  1  0
 25 16  1  0
M  END
>  <cnnaffinity>  (1) 
-4.70601

>  <filename>  (1) 
O=C(CCc1ccccc1Cl)Oc1cccnc1

$$$$
