
     RDKit          3D

 32 34  0  0  0  0  0  0  0  0999 V2000
    5.0063    1.8336   16.9792 H   0  0  0  0  0  0  0  0  0  0  0  0
    5.4669    1.3161   17.8166 C   0  0  0  0  0  0  0  0  0  0  0  0
    6.6324    0.6985   17.5572 N   0  0  0  0  0  0  0  0  0  0  0  0
    7.2100    0.0430   18.5746 C   0  0  0  0  0  0  0  0  0  0  0  0
    8.1435   -0.4808   18.3556 H   0  0  0  0  0  0  0  0  0  0  0  0
    6.6850   -0.0193   19.8777 C   0  0  0  0  0  0  0  0  0  0  0  0
    7.3369   -0.8023   20.9933 C   0  0  0  0  0  0  0  0  0  0  0  0
    6.7619   -2.2277   21.1682 C   0  0  0  0  0  0  0  0  0  0  0  0
    5.9646   -2.6872   20.3686 O   0  0  0  0  0  0  0  0  0  0  0  0
    7.1327   -2.9521   22.2731 N   0  0  0  0  0  0  0  0  0  0  0  0
    8.0230   -2.7434   22.6958 H   0  0  0  0  0  0  0  0  0  0  0  0
    6.6978   -4.3408   22.3903 C   0  0  0  0  0  0  0  0  0  0  0  0
    5.6219   -4.3655   22.5923 H   0  0  0  0  0  0  0  0  0  0  0  0
    6.8629   -4.9018   21.4561 H   0  0  0  0  0  0  0  0  0  0  0  0
    7.4205   -4.9724   23.4698 N   0  0  0  0  0  0  0  0  0  0  0  0
    7.3171   -4.6364   24.7914 C   0  0  0  0  0  0  0  0  0  0  0  0
    6.5279   -3.9967   25.1708 H   0  0  0  0  0  0  0  0  0  0  0  0
    8.2456   -5.2016   25.5179 N   0  0  0  0  0  0  0  0  0  0  0  0
    8.9973   -5.9471   24.6424 C   0  0  0  0  0  0  0  0  0  0  0  0
    9.8588   -6.5097   24.9749 H   0  0  0  0  0  0  0  0  0  0  0  0
    8.5013   -5.8340   23.3764 C   0  0  0  0  0  0  0  0  0  0  0  0
    8.8196   -6.2878   22.4497 H   0  0  0  0  0  0  0  0  0  0  0  0
    7.7250    0.0007   22.2293 C   0  0  0  0  0  0  0  0  0  0  0  0
    7.4643    1.0578   22.2482 H   0  0  0  0  0  0  0  0  0  0  0  0
    7.6622   -0.4841   23.1984 H   0  0  0  0  0  0  0  0  0  0  0  0
    8.7867   -0.4345   21.2785 C   0  0  0  0  0  0  0  0  0  0  0  0
    9.2208    0.3511   20.6597 H   0  0  0  0  0  0  0  0  0  0  0  0
    9.4972   -1.2007   21.5688 H   0  0  0  0  0  0  0  0  0  0  0  0
    5.4623    0.6209   20.1137 C   0  0  0  0  0  0  0  0  0  0  0  0
    5.0353    0.5722   21.1164 H   0  0  0  0  0  0  0  0  0  0  0  0
    4.8391    1.2989   19.0678 C   0  0  0  0  0  0  0  0  0  0  0  0
    3.8887    1.8022   19.2100 H   0  0  0  0  0  0  0  0  0  0  0  0
  1  2  1  0
  2  3  2  0
  3  4  1  0
  4  5  1  0
  4  6  2  0
  6  7  1  0
  7  8  1  0
  8  9  2  0
  8 10  1  0
 10 11  1  0
 10 12  1  0
 12 13  1  0
 12 14  1  0
 12 15  1  0
 15 16  1  0
 16 17  1  0
 16 18  2  0
 18 19  1  0
 19 20  1  0
 19 21  2  0
 21 22  1  0
  7 23  1  0
 23 24  1  0
 23 25  1  0
 23 26  1  0
 26 27  1  0
 26 28  1  0
  6 29  1  0
 29 30  1  0
 29 31  2  0
 31 32  1  0
 31  2  1  0
 26  7  1  0
 21 15  1  0
M  END
>  <cnnaffinity>  (1) 
-4.68916

>  <filename>  (1) 
O=C(NCn1ccnc1)C1(c2cccnc2)CC1

$$$$
