
     RDKit          3D

 32 34  0  0  0  0  0  0  0  0999 V2000
    4.9741    1.7885   17.0375 H   0  0  0  0  0  0  0  0  0  0  0  0
    5.4739    1.2605   17.8431 C   0  0  0  0  0  0  0  0  0  0  0  0
    6.6352    0.6296   17.5809 N   0  0  0  0  0  0  0  0  0  0  0  0
    7.2420   -0.0073   18.6102 C   0  0  0  0  0  0  0  0  0  0  0  0
    8.1832   -0.5154   18.4241 H   0  0  0  0  0  0  0  0  0  0  0  0
    6.7228   -0.0476   19.9231 C   0  0  0  0  0  0  0  0  0  0  0  0
    7.3758   -0.6874   20.9875 N   0  0  0  0  0  0  0  0  0  0  0  0
    6.9422   -0.8977   22.3544 C   0  0  0  0  0  0  0  0  0  0  0  0
    6.7947    0.0284   22.9241 H   0  0  0  0  0  0  0  0  0  0  0  0
    6.0621   -1.5443   22.4459 H   0  0  0  0  0  0  0  0  0  0  0  0
    8.2994   -1.6178   22.5352 C   0  0  0  0  0  0  0  0  0  0  0  0
    8.1863   -2.6725   22.7979 H   0  0  0  0  0  0  0  0  0  0  0  0
    9.2742   -0.9059   23.4703 C   0  0  0  0  0  0  0  0  0  0  0  0
    8.8341   -0.2518   24.4079 O   0  0  0  0  0  0  0  0  0  0  0  0
   10.6967   -0.8207   23.0875 C   0  0  0  0  0  0  0  0  0  0  0  0
   11.3534   -1.9149   22.4842 C   0  0  0  0  0  0  0  0  0  0  0  0
   10.8626   -2.8795   22.3720 H   0  0  0  0  0  0  0  0  0  0  0  0
   12.6727   -1.7741   22.0349 C   0  0  0  0  0  0  0  0  0  0  0  0
   13.1977   -2.5837   21.5530 H   0  0  0  0  0  0  0  0  0  0  0  0
   13.3620   -0.5756   22.1934 C   0  0  0  0  0  0  0  0  0  0  0  0
   14.3794   -0.4972   21.8264 H   0  0  0  0  0  0  0  0  0  0  0  0
   12.7268    0.5134   22.7946 C   0  0  0  0  0  0  0  0  0  0  0  0
   13.6334    2.1788   22.9760 Br  0  0  0  0  0  0  0  0  0  0  0  0
   11.4054    0.3874   23.2288 C   0  0  0  0  0  0  0  0  0  0  0  0
   10.9106    1.2713   23.6199 H   0  0  0  0  0  0  0  0  0  0  0  0
    8.6314   -1.4023   21.0379 C   0  0  0  0  0  0  0  0  0  0  0  0
    9.5029   -0.7811   20.7997 H   0  0  0  0  0  0  0  0  0  0  0  0
    8.6602   -2.3137   20.4391 H   0  0  0  0  0  0  0  0  0  0  0  0
    5.5126    0.5935   20.1712 C   0  0  0  0  0  0  0  0  0  0  0  0
    5.0969    0.5765   21.1760 H   0  0  0  0  0  0  0  0  0  0  0  0
    4.8842    1.2575   19.1150 C   0  0  0  0  0  0  0  0  0  0  0  0
    3.9499    1.7818   19.2777 H   0  0  0  0  0  0  0  0  0  0  0  0
  1  2  1  0
  2  3  2  0
  3  4  1  0
  4  5  1  0
  4  6  2  0
  6  7  1  0
  7  8  1  0
  8  9  1  0
  8 10  1  0
  8 11  1  0
 11 12  1  0
 11 13  1  0
 13 14  2  0
 13 15  1  0
 15 16  2  0
 16 17  1  0
 16 18  1  0
 18 19  1  0
 18 20  2  0
 20 21  1  0
 20 22  1  0
 22 23  1  0
 22 24  2  0
 24 25  1  0
 11 26  1  0
 26 27  1  0
 26 28  1  0
  6 29  1  0
 29 30  1  0
 29 31  2  0
 31 32  1  0
 31  2  1  0
 26  7  1  0
 24 15  1  0
M  END
>  <cnnaffinity>  (1) 
-5.21942

>  <filename>  (1) 
O=C(c1cccc(Br)c1)C1CN(c2cccnc2)C1

$$$$
