
     RDKit          3D

 41 43  0  0  0  0  0  0  0  0999 V2000
    4.9153    1.7907   16.9882 H   0  0  0  0  0  0  0  0  0  0  0  0
    5.3950    1.2996   17.8305 C   0  0  0  0  0  0  0  0  0  0  0  0
    6.5574    0.6849   17.5684 N   0  0  0  0  0  0  0  0  0  0  0  0
    7.1576    0.0594   18.5876 C   0  0  0  0  0  0  0  0  0  0  0  0
    8.1121   -0.4187   18.3632 H   0  0  0  0  0  0  0  0  0  0  0  0
    6.6382   -0.0058   19.8898 C   0  0  0  0  0  0  0  0  0  0  0  0
    7.4102   -0.6408   21.0163 C   0  0  0  0  0  0  0  0  0  0  0  0
    6.7408   -0.9496   21.8266 H   0  0  0  0  0  0  0  0  0  0  0  0
    7.9087   -1.5504   20.6567 H   0  0  0  0  0  0  0  0  0  0  0  0
    8.4725    0.2860   21.6140 C   0  0  0  0  0  0  0  0  0  0  0  0
    8.0451    1.5966   22.0523 N   0  0  0  0  0  0  0  0  0  0  0  0
    8.2083    2.3724   21.4337 H   0  0  0  0  0  0  0  0  0  0  0  0
    7.2260    1.7660   23.1387 C   0  0  0  0  0  0  0  0  0  0  0  0
    6.9197    0.8065   23.8259 O   0  0  0  0  0  0  0  0  0  0  0  0
    6.6976    3.1843   23.4311 C   0  0  0  0  0  0  0  0  0  0  0  0
    7.3683    3.9276   22.9675 H   0  0  0  0  0  0  0  0  0  0  0  0
    5.2835    3.3665   22.8136 C   0  0  0  0  0  0  0  0  0  0  0  0
    4.6199    2.5908   23.2231 H   0  0  0  0  0  0  0  0  0  0  0  0
    5.3137    3.2107   21.7252 H   0  0  0  0  0  0  0  0  0  0  0  0
    4.6912    4.7478   23.1359 C   0  0  0  0  0  0  0  0  0  0  0  0
    5.2891    5.5203   22.6327 H   0  0  0  0  0  0  0  0  0  0  0  0
    3.6782    4.8326   22.7225 H   0  0  0  0  0  0  0  0  0  0  0  0
    4.6729    5.0340   24.6454 C   0  0  0  0  0  0  0  0  0  0  0  0
    3.9738    4.3407   25.1349 H   0  0  0  0  0  0  0  0  0  0  0  0
    4.2869    6.0442   24.8413 H   0  0  0  0  0  0  0  0  0  0  0  0
    6.0667    4.8597   25.2654 C   0  0  0  0  0  0  0  0  0  0  0  0
    6.0217    5.0246   26.3505 H   0  0  0  0  0  0  0  0  0  0  0  0
    6.7376    5.6364   24.8711 H   0  0  0  0  0  0  0  0  0  0  0  0
    6.6585    3.4750   24.9579 C   0  0  0  0  0  0  0  0  0  0  0  0
    6.0537    2.7017   25.4507 H   0  0  0  0  0  0  0  0  0  0  0  0
    7.6613    3.3927   25.3951 H   0  0  0  0  0  0  0  0  0  0  0  0
    9.8652    0.2161   21.0691 C   0  0  0  0  0  0  0  0  0  0  0  0
   10.0742   -0.4968   20.2726 H   0  0  0  0  0  0  0  0  0  0  0  0
   10.4520    1.1280   21.0027 H   0  0  0  0  0  0  0  0  0  0  0  0
    9.5626   -0.3377   22.4318 C   0  0  0  0  0  0  0  0  0  0  0  0
    9.5476   -1.4167   22.5798 H   0  0  0  0  0  0  0  0  0  0  0  0
    9.9064    0.2306   23.2922 H   0  0  0  0  0  0  0  0  0  0  0  0
    5.4266    0.6467   20.1451 C   0  0  0  0  0  0  0  0  0  0  0  0
    5.0137    0.6331   21.1573 H   0  0  0  0  0  0  0  0  0  0  0  0
    4.7988    1.3175   19.0954 C   0  0  0  0  0  0  0  0  0  0  0  0
    3.8705    1.8535   19.2495 H   0  0  0  0  0  0  0  0  0  0  0  0
  1  2  1  0
  2  3  2  0
  3  4  1  0
  4  5  1  0
  4  6  2  0
  6  7  1  0
  7  8  1  0
  7  9  1  0
  7 10  1  0
 10 11  1  0
 11 12  1  0
 11 13  1  0
 13 14  2  0
 13 15  1  0
 15 16  1  0
 15 17  1  0
 17 18  1  0
 17 19  1  0
 17 20  1  0
 20 21  1  0
 20 22  1  0
 20 23  1  0
 23 24  1  0
 23 25  1  0
 23 26  1  0
 26 27  1  0
 26 28  1  0
 26 29  1  0
 29 30  1  0
 29 31  1  0
 10 32  1  0
 32 33  1  0
 32 34  1  0
 32 35  1  0
 35 36  1  0
 35 37  1  0
  6 38  1  0
 38 39  1  0
 38 40  2  0
 40 41  1  0
 40  2  1  0
 35 10  1  0
 29 15  1  0
M  END
>  <cnnaffinity>  (1) 
-4.89761

>  <filename>  (1) 
O=C(NC1(Cc2cccnc2)CC1)C1CCCCC1

$$$$
