
     RDKit          3D

 34 36  0  0  0  0  0  0  0  0999 V2000
    4.9564    1.8194   17.0197 H   0  0  0  0  0  0  0  0  0  0  0  0
    5.3976    1.2741   17.8495 C   0  0  0  0  0  0  0  0  0  0  0  0
    6.5384    0.6165   17.5876 N   0  0  0  0  0  0  0  0  0  0  0  0
    7.1129   -0.0434   18.5967 C   0  0  0  0  0  0  0  0  0  0  0  0
    8.0597   -0.5331   18.3813 H   0  0  0  0  0  0  0  0  0  0  0  0
    6.5709   -0.1147   19.8999 C   0  0  0  0  0  0  0  0  0  0  0  0
    7.2870   -0.7964   20.9537 N   0  0  0  0  0  0  0  0  0  0  0  0
    6.8832   -1.8109   21.8084 C   0  0  0  0  0  0  0  0  0  0  0  0
    5.6410   -2.3803   21.7401 N   0  0  0  0  0  0  0  0  0  0  0  0
    5.1241   -2.2765   20.8946 H   0  0  0  0  0  0  0  0  0  0  0  0
    5.2416   -3.3363   22.6634 C   0  0  0  0  0  0  0  0  0  0  0  0
    5.8398   -3.6271   23.6649 O   0  0  0  0  0  0  0  0  0  0  0  0
    4.0753   -3.9488   22.2390 N   0  0  0  0  0  0  0  0  0  0  0  0
    3.4584   -3.3844   21.6907 H   0  0  0  0  0  0  0  0  0  0  0  0
    3.4208   -4.9510   22.9886 C   0  0  0  0  0  0  0  0  0  0  0  0
    4.1654   -5.9906   23.5543 C   0  0  0  0  0  0  0  0  0  0  0  0
    5.2430   -5.9975   23.4391 H   0  0  0  0  0  0  0  0  0  0  0  0
    3.5304   -6.9957   24.2804 C   0  0  0  0  0  0  0  0  0  0  0  0
    4.1172   -7.7848   24.7351 H   0  0  0  0  0  0  0  0  0  0  0  0
    2.1431   -6.9559   24.4565 C   0  0  0  0  0  0  0  0  0  0  0  0
    1.3474   -8.1975   25.3826 Cl  0  0  0  0  0  0  0  0  0  0  0  0
    1.3910   -5.9111   23.9168 C   0  0  0  0  0  0  0  0  0  0  0  0
    0.3205   -5.8499   24.0979 H   0  0  0  0  0  0  0  0  0  0  0  0
    2.0288   -4.9267   23.1551 C   0  0  0  0  0  0  0  0  0  0  0  0
    1.4097   -4.1610   22.7036 H   0  0  0  0  0  0  0  0  0  0  0  0
    7.8013   -2.1582   22.6540 N   0  0  0  0  0  0  0  0  0  0  0  0
    8.8178   -1.3015   22.3564 N   0  0  0  0  0  0  0  0  0  0  0  0
    9.6689   -1.2946   22.8924 H   0  0  0  0  0  0  0  0  0  0  0  0
    8.5711   -0.4382   21.3618 C   0  0  0  0  0  0  0  0  0  0  0  0
    9.5705    0.7617   20.7985 S   0  0  0  0  0  0  0  0  0  0  0  0
    5.3860    0.5788   20.1629 C   0  0  0  0  0  0  0  0  0  0  0  0
    4.9627    0.5824   21.1705 H   0  0  0  0  0  0  0  0  0  0  0  0
    4.7916    1.2856   19.1093 C   0  0  0  0  0  0  0  0  0  0  0  0
    3.8870    1.8627   19.2594 H   0  0  0  0  0  0  0  0  0  0  0  0
  1  2  1  0
  2  3  2  0
  3  4  1  0
  4  5  1  0
  4  6  2  0
  6  7  1  0
  7  8  1  0
  8  9  1  0
  9 10  1  0
  9 11  1  0
 11 12  2  0
 11 13  1  0
 13 14  1  0
 13 15  1  0
 15 16  2  0
 16 17  1  0
 16 18  1  0
 18 19  1  0
 18 20  2  0
 20 21  1  0
 20 22  1  0
 22 23  1  0
 22 24  2  0
 24 25  1  0
  8 26  2  0
 26 27  1  0
 27 28  1  0
 27 29  1  0
 29 30  2  0
  6 31  1  0
 31 32  1  0
 31 33  2  0
 33 34  1  0
 33  2  1  0
 29  7  1  0
 24 15  1  0
M  END
>  <cnnaffinity>  (1) 
-5.59655

>  <filename>  (1) 
O=C(Nc1ccc(Cl)cc1)Nc1n[nH]c(=S)n1-c1cccnc1

$$$$
