
     RDKit          3D

 37 39  0  0  0  0  0  0  0  0999 V2000
    5.2305    1.8045   16.8140 H   0  0  0  0  0  0  0  0  0  0  0  0
    5.5140    1.3009   17.7353 C   0  0  0  0  0  0  0  0  0  0  0  0
    6.5506    0.4526   17.6586 N   0  0  0  0  0  0  0  0  0  0  0  0
    6.9285   -0.1705   18.7853 C   0  0  0  0  0  0  0  0  0  0  0  0
    7.7900   -0.8267   18.6838 H   0  0  0  0  0  0  0  0  0  0  0  0
    6.3152    0.0042   20.0600 C   0  0  0  0  0  0  0  0  0  0  0  0
    6.7490   -0.6096   21.2547 N   0  0  0  0  0  0  0  0  0  0  0  0
    6.8595    0.2508   22.4427 C   0  0  0  0  0  0  0  0  0  0  0  0
    6.9468    1.2953   22.1200 H   0  0  0  0  0  0  0  0  0  0  0  0
    5.9629    0.1876   23.0808 H   0  0  0  0  0  0  0  0  0  0  0  0
    8.0555    0.0070   23.3745 C   0  0  0  0  0  0  0  0  0  0  0  0
    8.0096    0.7825   24.1432 H   0  0  0  0  0  0  0  0  0  0  0  0
    7.9447   -0.9626   23.8685 H   0  0  0  0  0  0  0  0  0  0  0  0
    9.3884    0.0657   22.7673 N   0  0  0  0  0  0  0  0  0  0  0  0
    9.9828    1.3092   22.6640 C   0  0  0  0  0  0  0  0  0  0  0  0
    9.3161    2.3364   22.5859 O   0  0  0  0  0  0  0  0  0  0  0  0
   11.4668    1.3674   22.7317 C   0  0  0  0  0  0  0  0  0  0  0  0
   12.2202    2.8659   22.3185 S   0  0  0  0  0  0  0  0  0  0  0  0
   13.7594    2.2641   22.7459 C   0  0  0  0  0  0  0  0  0  0  0  0
   14.6227    2.8957   22.5849 H   0  0  0  0  0  0  0  0  0  0  0  0
   13.7144    0.9797   23.2007 C   0  0  0  0  0  0  0  0  0  0  0  0
   14.5892    0.4153   23.5109 H   0  0  0  0  0  0  0  0  0  0  0  0
   12.3940    0.4612   23.1922 C   0  0  0  0  0  0  0  0  0  0  0  0
   12.1671   -0.5312   23.5580 H   0  0  0  0  0  0  0  0  0  0  0  0
    9.8753   -1.1645   22.1466 C   0  0  0  0  0  0  0  0  0  0  0  0
   10.8949   -1.0038   21.7787 H   0  0  0  0  0  0  0  0  0  0  0  0
    9.9134   -1.9490   22.9213 H   0  0  0  0  0  0  0  0  0  0  0  0
    9.0406   -1.6604   20.9605 C   0  0  0  0  0  0  0  0  0  0  0  0
    9.4486   -2.6389   20.6847 H   0  0  0  0  0  0  0  0  0  0  0  0
    9.2125   -0.9912   20.1103 H   0  0  0  0  0  0  0  0  0  0  0  0
    7.5316   -1.8410   21.1932 C   0  0  0  0  0  0  0  0  0  0  0  0
    7.3535   -2.4138   22.1149 H   0  0  0  0  0  0  0  0  0  0  0  0
    7.1118   -2.4512   20.3852 H   0  0  0  0  0  0  0  0  0  0  0  0
    5.2190    0.8929   20.0929 C   0  0  0  0  0  0  0  0  0  0  0  0
    4.7200    1.0669   21.0461 H   0  0  0  0  0  0  0  0  0  0  0  0
    4.8195    1.5473   18.9235 C   0  0  0  0  0  0  0  0  0  0  0  0
    4.0189    2.2821   18.9397 H   0  0  0  0  0  0  0  0  0  0  0  0
  1  2  1  0
  2  3  2  0
  3  4  1  0
  4  5  1  0
  4  6  2  0
  6  7  1  0
  7  8  1  0
  8  9  1  0
  8 10  1  0
  8 11  1  0
 11 12  1  0
 11 13  1  0
 11 14  1  0
 14 15  1  0
 15 16  2  0
 15 17  1  0
 17 18  1  0
 18 19  1  0
 19 20  1  0
 19 21  2  0
 21 22  1  0
 21 23  1  0
 23 24  1  0
 14 25  1  0
 25 26  1  0
 25 27  1  0
 25 28  1  0
 28 29  1  0
 28 30  1  0
 28 31  1  0
 31 32  1  0
 31 33  1  0
  6 34  1  0
 34 35  1  0
 34 36  2  0
 36 37  1  0
 36  2  1  0
 31  7  1  0
 23 17  2  0
M  END
>  <cnnaffinity>  (1) 
-5.29358

>  <filename>  (1) 
O=C(c1cccs1)N1CCCN(c2cccnc2)CC1

$$$$
