
     RDKit          3D

 43 45  0  0  0  0  0  0  0  0999 V2000
    5.0521    1.8018   16.9945 H   0  0  0  0  0  0  0  0  0  0  0  0
    5.4638    1.2710   17.8471 C   0  0  0  0  0  0  0  0  0  0  0  0
    6.6026    0.5963   17.6182 N   0  0  0  0  0  0  0  0  0  0  0  0
    7.1517   -0.0411   18.6563 C   0  0  0  0  0  0  0  0  0  0  0  0
    8.0661   -0.6046   18.4559 H   0  0  0  0  0  0  0  0  0  0  0  0
    6.6170   -0.0478   19.9589 C   0  0  0  0  0  0  0  0  0  0  0  0
    7.3494   -0.7388   21.0502 C   0  0  0  0  0  0  0  0  0  0  0  0
    8.7725   -0.6353   21.1645 C   0  0  0  0  0  0  0  0  0  0  0  0
    9.2925    0.0482   20.4907 H   0  0  0  0  0  0  0  0  0  0  0  0
    9.4593   -1.3689   22.0850 C   0  0  0  0  0  0  0  0  0  0  0  0
   10.5361   -1.3447   22.1953 H   0  0  0  0  0  0  0  0  0  0  0  0
    8.8019   -2.3261   22.9632 C   0  0  0  0  0  0  0  0  0  0  0  0
    9.3925   -3.1191   23.6755 O   0  0  0  0  0  0  0  0  0  0  0  0
    7.3598   -2.2706   22.9009 N   0  0  0  0  0  0  0  0  0  0  0  0
    6.5388   -2.9680   23.8023 N   0  0  0  0  0  0  0  0  0  0  0  0
    6.6528   -3.9683   23.7535 H   0  0  0  0  0  0  0  0  0  0  0  0
    6.4561   -2.5528   25.1483 C   0  0  0  0  0  0  0  0  0  0  0  0
    6.7879   -1.4648   25.5583 O   0  0  0  0  0  0  0  0  0  0  0  0
    5.9663   -3.5882   25.8949 N   0  0  0  0  0  0  0  0  0  0  0  0
    5.4685   -4.2966   25.3870 H   0  0  0  0  0  0  0  0  0  0  0  0
    5.7720   -3.4840   27.3307 C   0  0  0  0  0  0  0  0  0  0  0  0
    6.7435   -3.2197   27.7652 H   0  0  0  0  0  0  0  0  0  0  0  0
    4.7778   -2.3782   27.7387 C   0  0  0  0  0  0  0  0  0  0  0  0
    5.1248   -1.4261   27.3215 H   0  0  0  0  0  0  0  0  0  0  0  0
    3.8067   -2.5886   27.2702 H   0  0  0  0  0  0  0  0  0  0  0  0
    4.6285   -2.3019   29.2669 C   0  0  0  0  0  0  0  0  0  0  0  0
    5.5636   -1.9158   29.6947 H   0  0  0  0  0  0  0  0  0  0  0  0
    3.8591   -1.5653   29.5357 H   0  0  0  0  0  0  0  0  0  0  0  0
    4.2922   -3.6748   29.8773 C   0  0  0  0  0  0  0  0  0  0  0  0
    4.2795   -3.6084   30.9718 H   0  0  0  0  0  0  0  0  0  0  0  0
    3.2744   -3.9484   29.5682 H   0  0  0  0  0  0  0  0  0  0  0  0
    5.2544   -4.7885   29.4238 C   0  0  0  0  0  0  0  0  0  0  0  0
    4.9380   -5.7570   29.8300 H   0  0  0  0  0  0  0  0  0  0  0  0
    6.2591   -4.5992   29.8278 H   0  0  0  0  0  0  0  0  0  0  0  0
    5.3685   -4.8498   27.8931 C   0  0  0  0  0  0  0  0  0  0  0  0
    4.4094   -5.1567   27.4500 H   0  0  0  0  0  0  0  0  0  0  0  0
    6.1115   -5.5950   27.5809 H   0  0  0  0  0  0  0  0  0  0  0  0
    6.6917   -1.5233   21.9535 C   0  0  0  0  0  0  0  0  0  0  0  0
    5.6148   -1.6425   21.9795 H   0  0  0  0  0  0  0  0  0  0  0  0
    5.3938    0.6161   20.1566 C   0  0  0  0  0  0  0  0  0  0  0  0
    4.9300    0.6181   21.1429 H   0  0  0  0  0  0  0  0  0  0  0  0
    4.8167    1.3027   19.0865 C   0  0  0  0  0  0  0  0  0  0  0  0
    3.8930    1.8621   19.1980 H   0  0  0  0  0  0  0  0  0  0  0  0
  1  2  1  0
  2  3  2  0
  3  4  1  0
  4  5  1  0
  4  6  2  0
  6  7  1  0
  7  8  1  0
  8  9  1  0
  8 10  2  0
 10 11  1  0
 10 12  1  0
 12 13  2  0
 12 14  1  0
 14 15  1  0
 15 16  1  0
 15 17  1  0
 17 18  2  0
 17 19  1  0
 19 20  1  0
 19 21  1  0
 21 22  1  0
 21 23  1  0
 23 24  1  0
 23 25  1  0
 23 26  1  0
 26 27  1  0
 26 28  1  0
 26 29  1  0
 29 30  1  0
 29 31  1  0
 29 32  1  0
 32 33  1  0
 32 34  1  0
 32 35  1  0
 35 36  1  0
 35 37  1  0
 14 38  1  0
 38 39  1  0
  6 40  1  0
 40 41  1  0
 40 42  2  0
 42 43  1  0
 42  2  1  0
 38  7  2  0
 35 21  1  0
M  END
>  <cnnaffinity>  (1) 
-5.05317

>  <filename>  (1) 
O=C(NC1CCCCC1)Nn1cc(-c2cccnc2)ccc1=O

$$$$
