
     RDKit          3D

 34 36  0  0  0  0  0  0  0  0999 V2000
    4.9220    1.8001   16.9847 H   0  0  0  0  0  0  0  0  0  0  0  0
    5.3881    1.2990   17.8309 C   0  0  0  0  0  0  0  0  0  0  0  0
    6.5438    0.6696   17.5668 N   0  0  0  0  0  0  0  0  0  0  0  0
    7.1551    0.0445   18.5783 C   0  0  0  0  0  0  0  0  0  0  0  0
    8.1160   -0.4184   18.3638 H   0  0  0  0  0  0  0  0  0  0  0  0
    6.6388   -0.0089   19.8862 C   0  0  0  0  0  0  0  0  0  0  0  0
    7.3493   -0.6788   20.9418 N   0  0  0  0  0  0  0  0  0  0  0  0
    6.7214   -1.7264   21.5818 C   0  0  0  0  0  0  0  0  0  0  0  0
    5.7240   -1.9771   21.2491 H   0  0  0  0  0  0  0  0  0  0  0  0
    7.3278   -2.4389   22.5779 C   0  0  0  0  0  0  0  0  0  0  0  0
    6.6972   -3.5559   23.1772 N   0  0  0  0  0  0  0  0  0  0  0  0
    6.8007   -3.6851   24.1683 H   0  0  0  0  0  0  0  0  0  0  0  0
    5.8800   -4.4363   22.5077 C   0  0  0  0  0  0  0  0  0  0  0  0
    5.7262   -4.3882   21.2974 O   0  0  0  0  0  0  0  0  0  0  0  0
    5.1356   -5.4785   23.3694 C   0  0  0  0  0  0  0  0  0  0  0  0
    5.5837   -6.0007   24.6017 C   0  0  0  0  0  0  0  0  0  0  0  0
    6.5254   -5.7169   25.0599 H   0  0  0  0  0  0  0  0  0  0  0  0
    4.8272   -6.9816   25.2601 C   0  0  0  0  0  0  0  0  0  0  0  0
    5.1617   -7.3888   26.2109 H   0  0  0  0  0  0  0  0  0  0  0  0
    3.6785   -7.4815   24.7913 N   0  0  0  0  0  0  0  0  0  0  0  0
    3.2400   -6.9885   23.6271 C   0  0  0  0  0  0  0  0  0  0  0  0
    2.3036   -7.4004   23.2598 H   0  0  0  0  0  0  0  0  0  0  0  0
    3.9183   -6.0110   22.8938 C   0  0  0  0  0  0  0  0  0  0  0  0
    3.5102   -5.6954   21.9424 H   0  0  0  0  0  0  0  0  0  0  0  0
    8.6397   -2.0566   22.9939 C   0  0  0  0  0  0  0  0  0  0  0  0
    9.1161   -2.6337   23.7879 H   0  0  0  0  0  0  0  0  0  0  0  0
    9.2802   -1.0215   22.3803 C   0  0  0  0  0  0  0  0  0  0  0  0
   10.2775   -0.6886   22.6335 H   0  0  0  0  0  0  0  0  0  0  0  0
    8.6790   -0.2513   21.2980 C   0  0  0  0  0  0  0  0  0  0  0  0
    9.2376    0.6716   20.7280 O   0  0  0  0  0  0  0  0  0  0  0  0
    5.4260    0.6345   20.1482 C   0  0  0  0  0  0  0  0  0  0  0  0
    5.0316    0.6192   21.1646 H   0  0  0  0  0  0  0  0  0  0  0  0
    4.7974    1.3147   19.0997 C   0  0  0  0  0  0  0  0  0  0  0  0
    3.8702    1.8517   19.2499 H   0  0  0  0  0  0  0  0  0  0  0  0
  1  2  1  0
  2  3  2  0
  3  4  1  0
  4  5  1  0
  4  6  2  0
  6  7  1  0
  7  8  1  0
  8  9  1  0
  8 10  2  0
 10 11  1  0
 11 12  1  0
 11 13  1  0
 13 14  2  0
 13 15  1  0
 15 16  2  0
 16 17  1  0
 16 18  1  0
 18 19  1  0
 18 20  2  0
 20 21  1  0
 21 22  1  0
 21 23  2  0
 23 24  1  0
 10 25  1  0
 25 26  1  0
 25 27  2  0
 27 28  1  0
 27 29  1  0
 29 30  2  0
  6 31  1  0
 31 32  1  0
 31 33  2  0
 33 34  1  0
 33  2  1  0
 29  7  1  0
 23 15  1  0
M  END
>  <cnnaffinity>  (1) 
-5.79603

>  <filename>  (1) 
O=C(Nc1ccc(=O)n(-c2cccnc2)c1)c1ccncc1

$$$$
