
     RDKit          3D

 33 35  0  0  0  0  0  0  0  0999 V2000
    4.9837    1.7643   17.0230 H   0  0  0  0  0  0  0  0  0  0  0  0
    5.4247    1.2615   17.8799 C   0  0  0  0  0  0  0  0  0  0  0  0
    6.5865    0.6330   17.6517 N   0  0  0  0  0  0  0  0  0  0  0  0
    7.1804    0.0342   18.6882 C   0  0  0  0  0  0  0  0  0  0  0  0
    8.1331   -0.4332   18.4361 H   0  0  0  0  0  0  0  0  0  0  0  0
    6.6575    0.0128   19.9946 C   0  0  0  0  0  0  0  0  0  0  0  0
    7.3786   -0.6625   21.0942 C   0  0  0  0  0  0  0  0  0  0  0  0
    7.0494   -0.3649   22.3950 N   0  0  0  0  0  0  0  0  0  0  0  0
    7.7547   -1.0468   23.2280 C   0  0  0  0  0  0  0  0  0  0  0  0
    7.7168   -0.8944   24.5922 N   0  0  0  0  0  0  0  0  0  0  0  0
    8.1882   -1.5578   25.1728 H   0  0  0  0  0  0  0  0  0  0  0  0
    6.7962   -0.0537   25.1981 C   0  0  0  0  0  0  0  0  0  0  0  0
    6.0643    0.6895   24.6086 O   0  0  0  0  0  0  0  0  0  0  0  0
    6.8415   -0.1971   26.5667 N   0  0  0  0  0  0  0  0  0  0  0  0
    7.6953   -0.5721   26.9247 H   0  0  0  0  0  0  0  0  0  0  0  0
    5.9712    0.4850   27.4481 C   0  0  0  0  0  0  0  0  0  0  0  0
    6.4220    1.0094   28.6651 C   0  0  0  0  0  0  0  0  0  0  0  0
    7.4636    0.9100   28.9565 H   0  0  0  0  0  0  0  0  0  0  0  0
    5.5219    1.6898   29.4977 C   0  0  0  0  0  0  0  0  0  0  0  0
    5.8668    2.1098   30.4415 H   0  0  0  0  0  0  0  0  0  0  0  0
    4.1796    1.8304   29.1252 C   0  0  0  0  0  0  0  0  0  0  0  0
    3.4825    2.3598   29.7684 H   0  0  0  0  0  0  0  0  0  0  0  0
    3.7337    1.2910   27.9129 C   0  0  0  0  0  0  0  0  0  0  0  0
    2.6949    1.3967   27.6063 H   0  0  0  0  0  0  0  0  0  0  0  0
    4.6264    0.6284   27.0763 C   0  0  0  0  0  0  0  0  0  0  0  0
    4.3198    0.2379   26.1156 H   0  0  0  0  0  0  0  0  0  0  0  0
    8.8454   -2.2015   22.4830 S   0  0  0  0  0  0  0  0  0  0  0  0
    8.3535   -1.5931   20.9334 C   0  0  0  0  0  0  0  0  0  0  0  0
    8.8244   -1.8994   20.0167 H   0  0  0  0  0  0  0  0  0  0  0  0
    5.4283    0.6672   20.2082 C   0  0  0  0  0  0  0  0  0  0  0  0
    4.9905    0.6832   21.2090 H   0  0  0  0  0  0  0  0  0  0  0  0
    4.8043    1.2967   19.1320 C   0  0  0  0  0  0  0  0  0  0  0  0
    3.8673    1.8340   19.2455 H   0  0  0  0  0  0  0  0  0  0  0  0
  1  2  1  0
  2  3  2  0
  3  4  1  0
  4  5  1  0
  4  6  2  0
  6  7  1  0
  7  8  1  0
  8  9  2  0
  9 10  1  0
 10 11  1  0
 10 12  1  0
 12 13  2  0
 12 14  1  0
 14 15  1  0
 14 16  1  0
 16 17  2  0
 17 18  1  0
 17 19  1  0
 19 20  1  0
 19 21  2  0
 21 22  1  0
 21 23  1  0
 23 24  1  0
 23 25  2  0
 25 26  1  0
  9 27  1  0
 27 28  1  0
 28 29  1  0
  6 30  1  0
 30 31  1  0
 30 32  2  0
 32 33  1  0
 32  2  1  0
 28  7  2  0
 25 16  1  0
M  END
>  <cnnaffinity>  (1) 
-5.10664

>  <filename>  (1) 
O=C(Nc1ccccc1)Nc1nc(-c2cccnc2)cs1

$$$$
