
     RDKit          3D

 27 28  0  0  0  0  0  0  0  0999 V2000
    8.6006   -0.6780   21.1422 O   0  0  0  0  0  0  0  0  0  0  0  0
    7.3897   -0.5941   21.1229 C   0  0  0  0  0  0  0  0  0  0  0  0
    6.6320   -0.9818   22.1899 N   0  0  0  0  0  0  0  0  0  0  0  0
    7.3973   -1.8610   23.3374 S   0  0  0  0  0  0  0  0  0  0  0  0
    8.1449   -2.9350   22.7314 O   0  0  0  0  0  0  0  0  0  0  0  0
    6.3127   -2.0913   24.2685 O   0  0  0  0  0  0  0  0  0  0  0  0
    8.4620   -0.6562   23.9527 C   0  0  0  0  0  0  0  0  0  0  0  0
    9.8275   -0.8360   24.2066 C   0  0  0  0  0  0  0  0  0  0  0  0
   10.4797    0.2496   24.7852 C   0  0  0  0  0  0  0  0  0  0  0  0
   12.1582    0.1694   25.1935 Cl  0  0  0  0  0  0  0  0  0  0  0  0
    9.7734    1.4360   25.0369 C   0  0  0  0  0  0  0  0  0  0  0  0
    8.4700    1.5646   24.7731 N   0  0  0  0  0  0  0  0  0  0  0  0
    7.8192    0.5447   24.2316 C   0  0  0  0  0  0  0  0  0  0  0  0
    6.7590    0.7071   24.0396 H   0  0  0  0  0  0  0  0  0  0  0  0
   10.2840    2.3068   25.4502 H   0  0  0  0  0  0  0  0  0  0  0  0
   10.3820   -1.7484   23.9673 H   0  0  0  0  0  0  0  0  0  0  0  0
    5.6637   -1.2419   22.1657 H   0  0  0  0  0  0  0  0  0  0  0  0
    6.6085   -0.0065   20.0304 C   0  0  0  0  0  0  0  0  0  0  0  0
    5.3743    0.6487   20.1777 C   0  0  0  0  0  0  0  0  0  0  0  0
    4.8245    1.2567   19.0555 C   0  0  0  0  0  0  0  0  0  0  0  0
    5.5086    1.1921   17.8363 C   0  0  0  0  0  0  0  0  0  0  0  0
    6.6757    0.5483   17.6909 N   0  0  0  0  0  0  0  0  0  0  0  0
    7.2077   -0.0283   18.7696 C   0  0  0  0  0  0  0  0  0  0  0  0
    8.1612   -0.5323   18.6259 H   0  0  0  0  0  0  0  0  0  0  0  0
    5.1012    1.6729   16.9459 H   0  0  0  0  0  0  0  0  0  0  0  0
    3.8882    1.7954   19.1149 H   0  0  0  0  0  0  0  0  0  0  0  0
    4.8596    0.7136   21.1417 H   0  0  0  0  0  0  0  0  0  0  0  0
  1  2  2  0
  2  3  1  0
  3  4  1  0
  4  5  2  0
  4  6  2  0
  4  7  1  0
  7  8  2  0
  8  9  1  0
  9 10  1  0
  9 11  2  0
 11 12  1  0
 12 13  2  0
 13 14  1  0
 11 15  1  0
  8 16  1  0
  3 17  1  0
  2 18  1  0
 18 19  2  0
 19 20  1  0
 20 21  2  0
 21 22  1  0
 22 23  2  0
 23 24  1  0
 21 25  1  0
 20 26  1  0
 19 27  1  0
 13  7  1  0
 23 18  1  0
M  END
>  <cnnaffinity>  (1) 
-5.24695

>  <filename>  (1) 
O=C(NS(=O)(=O)c1cncc(Cl)c1)c1cccnc1

$$$$
