
     RDKit          3D

 40 41  0  0  0  0  0  0  0  0999 V2000
    4.9785    1.7979   16.9615 H   0  0  0  0  0  0  0  0  0  0  0  0
    5.4361    1.2762   17.8009 C   0  0  0  0  0  0  0  0  0  0  0  0
    6.5911    0.6376   17.5499 N   0  0  0  0  0  0  0  0  0  0  0  0
    7.1949    0.0264   18.5793 C   0  0  0  0  0  0  0  0  0  0  0  0
    8.1247   -0.4868   18.3397 H   0  0  0  0  0  0  0  0  0  0  0  0
    6.7019    0.0283   19.9096 C   0  0  0  0  0  0  0  0  0  0  0  0
    7.4087   -0.6161   20.9816 N   0  0  0  0  0  0  0  0  0  0  0  0
    7.7326   -1.5598   20.8237 H   0  0  0  0  0  0  0  0  0  0  0  0
    7.4255   -0.2120   22.3037 C   0  0  0  0  0  0  0  0  0  0  0  0
    7.0213    0.8666   22.6862 O   0  0  0  0  0  0  0  0  0  0  0  0
    8.0935   -1.2659   23.3550 C   0  0  0  0  0  0  0  0  0  0  0  0
    9.3866   -0.9574   23.5171 F   0  0  0  0  0  0  0  0  0  0  0  0
    8.0642   -2.5338   22.8086 F   0  0  0  0  0  0  0  0  0  0  0  0
    7.5133   -1.3262   24.5912 O   0  0  0  0  0  0  0  0  0  0  0  0
    6.1138   -1.6739   24.6399 C   0  0  0  0  0  0  0  0  0  0  0  0
    5.5515   -0.7917   24.9592 H   0  0  0  0  0  0  0  0  0  0  0  0
    5.7828   -1.9577   23.6386 H   0  0  0  0  0  0  0  0  0  0  0  0
    5.8180   -2.8421   25.5940 C   0  0  0  0  0  0  0  0  0  0  0  0
    6.0637   -2.5675   26.6311 H   0  0  0  0  0  0  0  0  0  0  0  0
    6.4749   -3.6820   25.3356 H   0  0  0  0  0  0  0  0  0  0  0  0
    4.4360   -3.3151   25.5430 N   0  0  0  0  0  0  0  0  0  0  0  0
    4.0423   -3.9207   24.2705 C   0  0  0  0  0  0  0  0  0  0  0  0
    4.8439   -4.5947   23.9399 H   0  0  0  0  0  0  0  0  0  0  0  0
    3.9149   -3.1766   23.4584 H   0  0  0  0  0  0  0  0  0  0  0  0
    2.7443   -4.7178   24.4362 C   0  0  0  0  0  0  0  0  0  0  0  0
    2.4409   -5.1327   23.4683 H   0  0  0  0  0  0  0  0  0  0  0  0
    2.9528   -5.5651   25.1024 H   0  0  0  0  0  0  0  0  0  0  0  0
    1.6186   -3.8666   25.0412 C   0  0  0  0  0  0  0  0  0  0  0  0
    0.7523   -4.5021   25.2658 H   0  0  0  0  0  0  0  0  0  0  0  0
    1.2807   -3.1052   24.3188 H   0  0  0  0  0  0  0  0  0  0  0  0
    2.1164   -3.1843   26.3236 C   0  0  0  0  0  0  0  0  0  0  0  0
    2.3148   -3.9469   27.0894 H   0  0  0  0  0  0  0  0  0  0  0  0
    1.3496   -2.5160   26.7314 H   0  0  0  0  0  0  0  0  0  0  0  0
    3.4141   -2.4069   26.0701 C   0  0  0  0  0  0  0  0  0  0  0  0
    3.7739   -1.9731   27.0119 H   0  0  0  0  0  0  0  0  0  0  0  0
    3.1988   -1.5547   25.3898 H   0  0  0  0  0  0  0  0  0  0  0  0
    5.4767    0.6610   20.1426 C   0  0  0  0  0  0  0  0  0  0  0  0
    5.0474    0.6575   21.1448 H   0  0  0  0  0  0  0  0  0  0  0  0
    4.8387    1.2899   19.0649 C   0  0  0  0  0  0  0  0  0  0  0  0
    3.8989    1.8080   19.2022 H   0  0  0  0  0  0  0  0  0  0  0  0
  1  2  1  0
  2  3  2  0
  3  4  1  0
  4  5  1  0
  4  6  2  0
  6  7  1  0
  7  8  1  0
  7  9  1  0
  9 10  2  0
  9 11  1  0
 11 12  1  0
 11 13  1  0
 11 14  1  0
 14 15  1  0
 15 16  1  0
 15 17  1  0
 15 18  1  0
 18 19  1  0
 18 20  1  0
 18 21  1  0
 21 22  1  0
 22 23  1  0
 22 24  1  0
 22 25  1  0
 25 26  1  0
 25 27  1  0
 25 28  1  0
 28 29  1  0
 28 30  1  0
 28 31  1  0
 31 32  1  0
 31 33  1  0
 31 34  1  0
 34 35  1  0
 34 36  1  0
  6 37  1  0
 37 38  1  0
 37 39  2  0
 39 40  1  0
 39  2  1  0
 34 21  1  0
M  END
>  <cnnaffinity>  (1) 
-4.55911

>  <filename>  (1) 
O=C(Nc1cccnc1)C(F)(F)OCCN1CCCCC1

$$$$
