
     RDKit          3D

 36 38  0  0  0  0  0  0  0  0999 V2000
    8.5392   -3.6844   21.4196 H   0  0  0  0  0  0  0  0  0  0  0  0
    8.2909   -2.6498   21.6483 C   0  0  0  0  0  0  0  0  0  0  0  0
    8.5691   -2.2284   22.8811 N   0  0  0  0  0  0  0  0  0  0  0  0
    8.2349   -0.9760   23.1723 C   0  0  0  0  0  0  0  0  0  0  0  0
    8.5203   -0.6303   24.1685 H   0  0  0  0  0  0  0  0  0  0  0  0
    7.5994   -0.1516   22.2610 C   0  0  0  0  0  0  0  0  0  0  0  0
    7.4498    1.2822   22.5437 C   0  0  0  0  0  0  0  0  0  0  0  0
    7.7347    2.1196   21.7045 O   0  0  0  0  0  0  0  0  0  0  0  0
    7.0138    1.6031   23.8183 N   0  0  0  0  0  0  0  0  0  0  0  0
    7.2746    2.9617   24.3119 C   0  0  0  0  0  0  0  0  0  0  0  0
    6.4457    3.6353   24.0355 H   0  0  0  0  0  0  0  0  0  0  0  0
    8.1691    3.3404   23.8054 H   0  0  0  0  0  0  0  0  0  0  0  0
    7.4649    2.9463   25.8339 C   0  0  0  0  0  0  0  0  0  0  0  0
    8.3815    2.3841   26.0646 H   0  0  0  0  0  0  0  0  0  0  0  0
    7.6196    3.9721   26.1893 H   0  0  0  0  0  0  0  0  0  0  0  0
    6.2696    2.2943   26.5466 C   0  0  0  0  0  0  0  0  0  0  0  0
    5.3688    2.9174   26.4185 H   0  0  0  0  0  0  0  0  0  0  0  0
    6.4463    2.2409   27.6287 H   0  0  0  0  0  0  0  0  0  0  0  0
    6.0279    0.8920   25.9701 C   0  0  0  0  0  0  0  0  0  0  0  0
    5.1393    0.4285   26.4159 H   0  0  0  0  0  0  0  0  0  0  0  0
    6.8845    0.2438   26.2047 H   0  0  0  0  0  0  0  0  0  0  0  0
    5.8610    0.9388   24.4498 C   0  0  0  0  0  0  0  0  0  0  0  0
    5.7592   -0.0729   24.0496 H   0  0  0  0  0  0  0  0  0  0  0  0
    4.9266    1.4780   24.2057 H   0  0  0  0  0  0  0  0  0  0  0  0
    7.3588   -0.6862   20.9923 C   0  0  0  0  0  0  0  0  0  0  0  0
    6.6429    0.0255   19.9348 C   0  0  0  0  0  0  0  0  0  0  0  0
    7.1673    0.0348   18.6312 C   0  0  0  0  0  0  0  0  0  0  0  0
    8.1104   -0.4623   18.3913 H   0  0  0  0  0  0  0  0  0  0  0  0
    6.5783    0.6513   17.6028 N   0  0  0  0  0  0  0  0  0  0  0  0
    5.4155    1.2797   17.8471 C   0  0  0  0  0  0  0  0  0  0  0  0
    4.9615    1.7834   16.9987 H   0  0  0  0  0  0  0  0  0  0  0  0
    4.7986    1.3012   19.1010 C   0  0  0  0  0  0  0  0  0  0  0  0
    3.8703    1.8398   19.2414 H   0  0  0  0  0  0  0  0  0  0  0  0
    5.4172    0.6585   20.1657 C   0  0  0  0  0  0  0  0  0  0  0  0
    4.9562    0.6568   21.1560 H   0  0  0  0  0  0  0  0  0  0  0  0
    7.7393   -1.9265   20.6832 N   0  0  0  0  0  0  0  0  0  0  0  0
  1  2  1  0
  2  3  2  0
  3  4  1  0
  4  5  1  0
  4  6  2  0
  6  7  1  0
  7  8  2  0
  7  9  1  0
  9 10  1  0
 10 11  1  0
 10 12  1  0
 10 13  1  0
 13 14  1  0
 13 15  1  0
 13 16  1  0
 16 17  1  0
 16 18  1  0
 16 19  1  0
 19 20  1  0
 19 21  1  0
 19 22  1  0
 22 23  1  0
 22 24  1  0
  6 25  1  0
 25 26  1  0
 26 27  2  0
 27 28  1  0
 27 29  1  0
 29 30  2  0
 30 31  1  0
 30 32  1  0
 32 33  1  0
 32 34  2  0
 34 35  1  0
 25 36  2  0
 36  2  1  0
 22  9  1  0
 34 26  1  0
M  END
>  <cnnaffinity>  (1) 
-4.89034

>  <filename>  (1) 
O=C(c1cncnc1-c1cccnc1)N1CCCCC1

$$$$
