
     RDKit          3D

 32 34  0  0  0  0  0  0  0  0999 V2000
   12.6161    1.1519   21.5059 H   0  0  0  0  0  0  0  0  0  0  0  0
   11.9354    0.4724   21.6876 O   0  0  0  0  0  0  0  0  0  0  0  0
   10.6957    1.0703   21.4861 N   0  0  0  0  0  0  0  0  0  0  0  0
   10.1028    0.5472   20.8538 H   0  0  0  0  0  0  0  0  0  0  0  0
   10.0391    1.8227   22.4287 C   0  0  0  0  0  0  0  0  0  0  0  0
   10.5170    2.2362   23.4657 O   0  0  0  0  0  0  0  0  0  0  0  0
    8.6188    2.1596   22.0165 C   0  0  0  0  0  0  0  0  0  0  0  0
    8.4637    2.1078   20.9343 H   0  0  0  0  0  0  0  0  0  0  0  0
    8.4789    3.1945   22.3253 H   0  0  0  0  0  0  0  0  0  0  0  0
    7.5882    1.2507   22.7267 C   0  0  0  0  0  0  0  0  0  0  0  0
    7.7374    1.2815   23.8133 H   0  0  0  0  0  0  0  0  0  0  0  0
    6.5752    1.6263   22.5434 H   0  0  0  0  0  0  0  0  0  0  0  0
    7.6895   -0.1435   22.2210 C   0  0  0  0  0  0  0  0  0  0  0  0
    7.4140   -0.6565   20.9560 C   0  0  0  0  0  0  0  0  0  0  0  0
    6.6433    0.0094   19.9059 C   0  0  0  0  0  0  0  0  0  0  0  0
    7.1469    0.0283   18.5970 C   0  0  0  0  0  0  0  0  0  0  0  0
    8.0812   -0.4760   18.3631 H   0  0  0  0  0  0  0  0  0  0  0  0
    6.5523    0.6549   17.5785 N   0  0  0  0  0  0  0  0  0  0  0  0
    5.3992    1.2950   17.8248 C   0  0  0  0  0  0  0  0  0  0  0  0
    4.9467    1.8082   16.9760 H   0  0  0  0  0  0  0  0  0  0  0  0
    4.7911    1.3176   19.0857 C   0  0  0  0  0  0  0  0  0  0  0  0
    3.8556    1.8521   19.2221 H   0  0  0  0  0  0  0  0  0  0  0  0
    5.4243    0.6693   20.1449 C   0  0  0  0  0  0  0  0  0  0  0  0
    4.9668    0.6672   21.1360 H   0  0  0  0  0  0  0  0  0  0  0  0
    7.9926   -1.8910   20.7638 N   0  0  0  0  0  0  0  0  0  0  0  0
    8.5353   -2.1529   21.9251 C   0  0  0  0  0  0  0  0  0  0  0  0
    9.4189   -3.4673   22.6354 S   0  0  0  0  0  0  0  0  0  0  0  0
    9.8368   -2.4788   24.0143 C   0  0  0  0  0  0  0  0  0  0  0  0
   10.5295   -2.8730   24.7462 H   0  0  0  0  0  0  0  0  0  0  0  0
    9.2217   -1.2786   23.9734 C   0  0  0  0  0  0  0  0  0  0  0  0
    9.2396   -0.4606   24.6824 H   0  0  0  0  0  0  0  0  0  0  0  0
    8.4471   -1.1277   22.8275 N   0  0  0  0  0  0  0  0  0  0  0  0
  1  2  1  0
  2  3  1  0
  3  4  1  0
  3  5  1  0
  5  6  2  0
  5  7  1  0
  7  8  1  0
  7  9  1  0
  7 10  1  0
 10 11  1  0
 10 12  1  0
 10 13  1  0
 13 14  2  0
 14 15  1  0
 15 16  2  0
 16 17  1  0
 16 18  1  0
 18 19  2  0
 19 20  1  0
 19 21  1  0
 21 22  1  0
 21 23  2  0
 23 24  1  0
 14 25  1  0
 25 26  2  0
 26 27  1  0
 27 28  1  0
 28 29  1  0
 28 30  2  0
 30 31  1  0
 30 32  1  0
 32 13  1  0
 23 15  1  0
 32 26  1  0
M  END
>  <cnnaffinity>  (1) 
-5.15346

>  <filename>  (1) 
O=C(CCc1c(-c2cccnc2)nc2sccn12)NO

$$$$
