
     RDKit          3D

 28 29  0  0  0  0  0  0  0  0999 V2000
    6.7193    0.6266   22.5743 O   0  0  0  0  0  0  0  0  0  0  0  0
    7.3050   -0.3916   22.2007 C   0  0  0  0  0  0  0  0  0  0  0  0
    7.4078   -0.6719   20.8301 N   0  0  0  0  0  0  0  0  0  0  0  0
    6.7359    0.0153   19.7989 C   0  0  0  0  0  0  0  0  0  0  0  0
    5.5659    0.7106   20.0988 C   0  0  0  0  0  0  0  0  0  0  0  0
    4.8888    1.3528   19.0575 C   0  0  0  0  0  0  0  0  0  0  0  0
    5.4079    1.3178   17.7555 C   0  0  0  0  0  0  0  0  0  0  0  0
    6.5374    0.6518   17.4463 N   0  0  0  0  0  0  0  0  0  0  0  0
    7.1741    0.0117   18.4490 C   0  0  0  0  0  0  0  0  0  0  0  0
    8.0744   -0.5349   18.1916 H   0  0  0  0  0  0  0  0  0  0  0  0
    4.8869    1.8526   16.9667 H   0  0  0  0  0  0  0  0  0  0  0  0
    3.9607    1.8860   19.2433 H   0  0  0  0  0  0  0  0  0  0  0  0
    5.1827    0.7303   21.1178 H   0  0  0  0  0  0  0  0  0  0  0  0
    7.9651   -1.4797   20.5617 H   0  0  0  0  0  0  0  0  0  0  0  0
    7.9751   -1.3322   23.2410 C   0  0  0  0  0  0  0  0  0  0  0  0
    7.1107   -1.6437   24.2524 F   0  0  0  0  0  0  0  0  0  0  0  0
    8.3615   -2.5160   22.6599 F   0  0  0  0  0  0  0  0  0  0  0  0
    9.1761   -0.6099   23.8206 C   0  0  0  0  0  0  0  0  0  0  0  0
    9.0887    0.0566   25.0567 C   0  0  0  0  0  0  0  0  0  0  0  0
   10.1640    0.8294   25.5110 C   0  0  0  0  0  0  0  0  0  0  0  0
   11.3483    0.9098   24.7795 C   0  0  0  0  0  0  0  0  0  0  0  0
   11.4558    0.2128   23.5702 C   0  0  0  0  0  0  0  0  0  0  0  0
   10.3684   -0.5253   23.0802 C   0  0  0  0  0  0  0  0  0  0  0  0
   10.4923   -1.3979   21.3795 Br  0  0  0  0  0  0  0  0  0  0  0  0
   12.3798    0.2479   22.9998 H   0  0  0  0  0  0  0  0  0  0  0  0
   12.1682    1.5148   25.1649 H   0  0  0  0  0  0  0  0  0  0  0  0
   10.0957    1.3909   26.4330 H   0  0  0  0  0  0  0  0  0  0  0  0
    8.1809   -0.0094   25.6560 H   0  0  0  0  0  0  0  0  0  0  0  0
  1  2  2  0
  2  3  1  0
  3  4  1  0
  4  5  2  0
  5  6  1  0
  6  7  2  0
  7  8  1  0
  8  9  2  0
  9 10  1  0
  7 11  1  0
  6 12  1  0
  5 13  1  0
  3 14  1  0
  2 15  1  0
 15 16  1  0
 15 17  1  0
 15 18  1  0
 18 19  2  0
 19 20  1  0
 20 21  2  0
 21 22  1  0
 22 23  2  0
 23 24  1  0
 22 25  1  0
 21 26  1  0
 20 27  1  0
 19 28  1  0
  9  4  1  0
 23 18  1  0
M  END
>  <cnnaffinity>  (1) 
-5.1411

>  <filename>  (1) 
O=C(Nc1cccnc1)C(F)(F)c1ccccc1Br

$$$$
