
     RDKit          3D

 43 45  0  0  0  0  0  0  0  0999 V2000
    4.9406    1.8970   16.9615 H   0  0  0  0  0  0  0  0  0  0  0  0
    5.4123    1.3557   17.7781 C   0  0  0  0  0  0  0  0  0  0  0  0
    6.5728    0.7461   17.4797 N   0  0  0  0  0  0  0  0  0  0  0  0
    7.1865    0.0798   18.4678 C   0  0  0  0  0  0  0  0  0  0  0  0
    8.1259   -0.4130   18.2190 H   0  0  0  0  0  0  0  0  0  0  0  0
    6.6861   -0.0501   19.7902 C   0  0  0  0  0  0  0  0  0  0  0  0
    7.3925   -0.8123   20.7536 N   0  0  0  0  0  0  0  0  0  0  0  0
    8.6843   -0.3120   21.2302 C   0  0  0  0  0  0  0  0  0  0  0  0
    8.5597    0.3661   22.0980 H   0  0  0  0  0  0  0  0  0  0  0  0
    9.1521    0.2809   20.4370 H   0  0  0  0  0  0  0  0  0  0  0  0
    9.5764   -1.5013   21.6080 C   0  0  0  0  0  0  0  0  0  0  0  0
    9.7676   -2.0878   20.7000 H   0  0  0  0  0  0  0  0  0  0  0  0
   10.5532   -1.1488   21.9598 H   0  0  0  0  0  0  0  0  0  0  0  0
    8.9117   -2.4120   22.6662 C   0  0  0  0  0  0  0  0  0  0  0  0
    9.5007   -3.3325   22.7597 H   0  0  0  0  0  0  0  0  0  0  0  0
    8.9478   -1.7619   24.0692 C   0  0  0  0  0  0  0  0  0  0  0  0
    8.3924   -0.8155   24.0767 H   0  0  0  0  0  0  0  0  0  0  0  0
    9.9915   -1.5171   24.3000 H   0  0  0  0  0  0  0  0  0  0  0  0
    8.4314   -2.6001   25.1390 N   0  0  0  0  0  0  0  0  0  0  0  0
    7.4515   -2.5379   25.3548 H   0  0  0  0  0  0  0  0  0  0  0  0
    9.0866   -3.7121   25.5991 C   0  0  0  0  0  0  0  0  0  0  0  0
   10.1727   -4.0563   25.1551 O   0  0  0  0  0  0  0  0  0  0  0  0
    8.3667   -4.4802   26.6955 C   0  0  0  0  0  0  0  0  0  0  0  0
    8.6763   -5.8315   26.9652 C   0  0  0  0  0  0  0  0  0  0  0  0
    9.4227   -6.3708   26.3841 H   0  0  0  0  0  0  0  0  0  0  0  0
    8.0430   -6.4980   28.0210 C   0  0  0  0  0  0  0  0  0  0  0  0
    8.3038   -7.5182   28.2743 H   0  0  0  0  0  0  0  0  0  0  0  0
    7.0438   -5.8863   28.7741 C   0  0  0  0  0  0  0  0  0  0  0  0
    6.5766   -6.4252   29.5956 H   0  0  0  0  0  0  0  0  0  0  0  0
    6.6970   -4.5700   28.4826 C   0  0  0  0  0  0  0  0  0  0  0  0
    5.9291   -4.0744   29.0710 H   0  0  0  0  0  0  0  0  0  0  0  0
    7.3959   -3.8585   27.5024 C   0  0  0  0  0  0  0  0  0  0  0  0
    7.2109   -2.7892   27.4135 H   0  0  0  0  0  0  0  0  0  0  0  0
    7.4969   -2.7788   22.1739 C   0  0  0  0  0  0  0  0  0  0  0  0
    7.5942   -3.3981   21.2733 H   0  0  0  0  0  0  0  0  0  0  0  0
    6.9633   -3.3824   22.9155 H   0  0  0  0  0  0  0  0  0  0  0  0
    6.6693   -1.5449   21.7896 C   0  0  0  0  0  0  0  0  0  0  0  0
    6.4683   -0.9187   22.6829 H   0  0  0  0  0  0  0  0  0  0  0  0
    5.6984   -1.8586   21.3901 H   0  0  0  0  0  0  0  0  0  0  0  0
    5.4662    0.5937   20.0697 C   0  0  0  0  0  0  0  0  0  0  0  0
    5.0517    0.5316   21.0757 H   0  0  0  0  0  0  0  0  0  0  0  0
    4.8273    1.3113   19.0492 C   0  0  0  0  0  0  0  0  0  0  0  0
    3.8904    1.8319   19.2248 H   0  0  0  0  0  0  0  0  0  0  0  0
  1  2  1  0
  2  3  2  0
  3  4  1  0
  4  5  1  0
  4  6  2  0
  6  7  1  0
  7  8  1  0
  8  9  1  0
  8 10  1  0
  8 11  1  0
 11 12  1  0
 11 13  1  0
 11 14  1  0
 14 15  1  0
 14 16  1  0
 16 17  1  0
 16 18  1  0
 16 19  1  0
 19 20  1  0
 19 21  1  0
 21 22  2  0
 21 23  1  0
 23 24  2  0
 24 25  1  0
 24 26  1  0
 26 27  1  0
 26 28  2  0
 28 29  1  0
 28 30  1  0
 30 31  1  0
 30 32  2  0
 32 33  1  0
 14 34  1  0
 34 35  1  0
 34 36  1  0
 34 37  1  0
 37 38  1  0
 37 39  1  0
  6 40  1  0
 40 41  1  0
 40 42  2  0
 42 43  1  0
 42  2  1  0
 37  7  1  0
 32 23  1  0
M  END
>  <cnnaffinity>  (1) 
-5.09578

>  <filename>  (1) 
O=C(NCC1CCN(c2cccnc2)CC1)c1ccccc1

$$$$
