
     RDKit          3D

 39 41  0  0  0  0  0  0  0  0999 V2000
    4.9754    1.7949   16.9973 H   0  0  0  0  0  0  0  0  0  0  0  0
    5.4273    1.2839   17.8429 C   0  0  0  0  0  0  0  0  0  0  0  0
    6.5827    0.6461   17.6039 N   0  0  0  0  0  0  0  0  0  0  0  0
    7.1645    0.0211   18.6284 C   0  0  0  0  0  0  0  0  0  0  0  0
    8.1035   -0.4884   18.4188 H   0  0  0  0  0  0  0  0  0  0  0  0
    6.6337    0.0020   19.9273 C   0  0  0  0  0  0  0  0  0  0  0  0
    7.4331   -0.7222   20.9571 C   0  0  0  0  0  0  0  0  0  0  0  0
    8.2900   -1.5188   20.6302 O   0  0  0  0  0  0  0  0  0  0  0  0
    7.1404   -0.4286   22.4082 C   0  0  0  0  0  0  0  0  0  0  0  0
    6.1821   -0.8803   22.6679 H   0  0  0  0  0  0  0  0  0  0  0  0
    8.2984   -0.7476   23.3763 C   0  0  0  0  0  0  0  0  0  0  0  0
    7.9947   -1.2772   24.2905 H   0  0  0  0  0  0  0  0  0  0  0  0
    9.1407   -1.2957   22.9319 H   0  0  0  0  0  0  0  0  0  0  0  0
    8.4937    0.6903   23.5886 N   0  0  0  0  0  0  0  0  0  0  0  0
    9.7695    1.2282   23.2235 C   0  0  0  0  0  0  0  0  0  0  0  0
   10.5041    0.7074   23.8462 H   0  0  0  0  0  0  0  0  0  0  0  0
   10.0137    1.0385   22.1618 H   0  0  0  0  0  0  0  0  0  0  0  0
    9.8525    2.6221   23.5225 N   0  0  0  0  0  0  0  0  0  0  0  0
    9.7294    3.3245   22.8195 H   0  0  0  0  0  0  0  0  0  0  0  0
    9.7695    3.0613   24.8091 C   0  0  0  0  0  0  0  0  0  0  0  0
    9.6114    2.3098   25.7517 O   0  0  0  0  0  0  0  0  0  0  0  0
    9.9600    4.5532   24.9716 C   0  0  0  0  0  0  0  0  0  0  0  0
   10.7019    5.3220   24.0503 C   0  0  0  0  0  0  0  0  0  0  0  0
   11.1213    4.8770   23.1476 H   0  0  0  0  0  0  0  0  0  0  0  0
   10.9553    6.6681   24.2985 C   0  0  0  0  0  0  0  0  0  0  0  0
   11.5920    7.2094   23.6084 H   0  0  0  0  0  0  0  0  0  0  0  0
   10.4349    7.2827   25.4409 C   0  0  0  0  0  0  0  0  0  0  0  0
   10.6068    8.3425   25.6108 H   0  0  0  0  0  0  0  0  0  0  0  0
    9.7125    6.5246   26.3671 C   0  0  0  0  0  0  0  0  0  0  0  0
    9.3504    6.9964   27.2738 H   0  0  0  0  0  0  0  0  0  0  0  0
    9.4924    5.1638   26.1482 C   0  0  0  0  0  0  0  0  0  0  0  0
    8.9810    4.5667   26.9023 H   0  0  0  0  0  0  0  0  0  0  0  0
    7.3041    1.0591   22.8177 C   0  0  0  0  0  0  0  0  0  0  0  0
    7.4714    1.7806   22.0012 H   0  0  0  0  0  0  0  0  0  0  0  0
    6.4964    1.4469   23.4561 H   0  0  0  0  0  0  0  0  0  0  0  0
    5.4159    0.6644   20.1624 C   0  0  0  0  0  0  0  0  0  0  0  0
    4.9527    0.6972   21.1532 H   0  0  0  0  0  0  0  0  0  0  0  0
    4.8015    1.3091   19.0929 C   0  0  0  0  0  0  0  0  0  0  0  0
    3.8694    1.8462   19.2245 H   0  0  0  0  0  0  0  0  0  0  0  0
  1  2  1  0
  2  3  2  0
  3  4  1  0
  4  5  1  0
  4  6  2  0
  6  7  1  0
  7  8  2  0
  7  9  1  0
  9 10  1  0
  9 11  1  0
 11 12  1  0
 11 13  1  0
 11 14  1  0
 14 15  1  0
 15 16  1  0
 15 17  1  0
 15 18  1  0
 18 19  1  0
 18 20  1  0
 20 21  2  0
 20 22  1  0
 22 23  2  0
 23 24  1  0
 23 25  1  0
 25 26  1  0
 25 27  2  0
 27 28  1  0
 27 29  1  0
 29 30  1  0
 29 31  2  0
 31 32  1  0
 14 33  1  0
 33 34  1  0
 33 35  1  0
  6 36  1  0
 36 37  1  0
 36 38  2  0
 38 39  1  0
 38  2  1  0
 33  9  1  0
 31 22  1  0
M  END
>  <cnnaffinity>  (1) 
-4.84578

>  <filename>  (1) 
O=C(NCN1CC(C(=O)c2cccnc2)C1)c1ccccc1

$$$$
