
     RDKit          3D

 36 39  0  0  0  0  0  0  0  0999 V2000
    5.0585    1.9029   16.6104 H   0  0  0  0  0  0  0  0  0  0  0  0
    5.4835    1.3874   17.4681 C   0  0  0  0  0  0  0  0  0  0  0  0
    6.6313    0.7295   17.2467 N   0  0  0  0  0  0  0  0  0  0  0  0
    7.1941    0.1077   18.2867 C   0  0  0  0  0  0  0  0  0  0  0  0
    8.1103   -0.4403   18.0786 H   0  0  0  0  0  0  0  0  0  0  0  0
    6.6575    0.1240   19.5904 C   0  0  0  0  0  0  0  0  0  0  0  0
    7.3754   -0.5381   20.6896 C   0  0  0  0  0  0  0  0  0  0  0  0
    8.5716   -1.0911   20.4403 N   0  0  0  0  0  0  0  0  0  0  0  0
    8.8909   -1.6408   21.6181 N   0  0  0  0  0  0  0  0  0  0  0  0
    9.9888   -2.3389   22.0893 C   0  0  0  0  0  0  0  0  0  0  0  0
   10.8615   -2.4314   21.4697 H   0  0  0  0  0  0  0  0  0  0  0  0
    9.6918   -2.7083   23.3531 C   0  0  0  0  0  0  0  0  0  0  0  0
   10.2897   -3.2908   24.0411 H   0  0  0  0  0  0  0  0  0  0  0  0
    8.4066   -2.2083   23.6831 N   0  0  0  0  0  0  0  0  0  0  0  0
    7.5962   -2.3775   24.8340 C   0  0  0  0  0  0  0  0  0  0  0  0
    6.4867   -1.8872   24.9205 O   0  0  0  0  0  0  0  0  0  0  0  0
    8.1660   -3.1421   25.8144 N   0  0  0  0  0  0  0  0  0  0  0  0
    9.1531   -3.3061   25.7352 H   0  0  0  0  0  0  0  0  0  0  0  0
    7.5795   -3.1993   27.1600 C   0  0  0  0  0  0  0  0  0  0  0  0
    8.3415   -3.6126   27.8293 H   0  0  0  0  0  0  0  0  0  0  0  0
    7.3539   -2.1799   27.5072 H   0  0  0  0  0  0  0  0  0  0  0  0
    6.3267   -4.0549   27.2176 C   0  0  0  0  0  0  0  0  0  0  0  0
    5.6238   -3.7752   26.4362 H   0  0  0  0  0  0  0  0  0  0  0  0
    6.3978   -5.5078   27.6112 C   0  0  0  0  0  0  0  0  0  0  0  0
    7.3616   -5.8910   27.9489 H   0  0  0  0  0  0  0  0  0  0  0  0
    5.8100   -6.2232   27.0379 H   0  0  0  0  0  0  0  0  0  0  0  0
    5.7034   -4.5262   28.5129 C   0  0  0  0  0  0  0  0  0  0  0  0
    6.1770   -4.2855   29.4658 H   0  0  0  0  0  0  0  0  0  0  0  0
    4.6138   -4.5595   28.5704 H   0  0  0  0  0  0  0  0  0  0  0  0
    7.9551   -1.4975   22.5672 C   0  0  0  0  0  0  0  0  0  0  0  0
    6.9519   -0.7125   22.0320 C   0  0  0  0  0  0  0  0  0  0  0  0
    6.1251   -0.2578   22.5478 H   0  0  0  0  0  0  0  0  0  0  0  0
    5.4334    0.7764   19.7913 C   0  0  0  0  0  0  0  0  0  0  0  0
    4.9569    0.7807   20.7744 H   0  0  0  0  0  0  0  0  0  0  0  0
    4.8383    1.4216   18.7104 C   0  0  0  0  0  0  0  0  0  0  0  0
    3.8994    1.9560   18.8136 H   0  0  0  0  0  0  0  0  0  0  0  0
  1  2  1  0
  2  3  2  0
  3  4  1  0
  4  5  1  0
  4  6  2  0
  6  7  1  0
  7  8  2  0
  8  9  1  0
  9 10  1  0
 10 11  1  0
 10 12  2  0
 12 13  1  0
 12 14  1  0
 14 15  1  0
 15 16  2  0
 15 17  1  0
 17 18  1  0
 17 19  1  0
 19 20  1  0
 19 21  1  0
 19 22  1  0
 22 23  1  0
 22 24  1  0
 24 25  1  0
 24 26  1  0
 24 27  1  0
 27 28  1  0
 27 29  1  0
 14 30  1  0
 30 31  2  0
 31 32  1  0
  6 33  1  0
 33 34  1  0
 33 35  2  0
 35 36  1  0
 35  2  1  0
 31  7  1  0
 30  9  1  0
 27 22  1  0
M  END
>  <cnnaffinity>  (1) 
-4.99887

>  <filename>  (1) 
O=C(NCC1CC1)n1ccn2nc(-c3cccnc3)cc12

$$$$
