
     RDKit          3D

 37 38  0  0  0  0  0  0  0  0999 V2000
    4.9283    1.7999   16.9721 H   0  0  0  0  0  0  0  0  0  0  0  0
    5.3961    1.3019   17.8192 C   0  0  0  0  0  0  0  0  0  0  0  0
    6.5538    0.6729   17.5656 N   0  0  0  0  0  0  0  0  0  0  0  0
    7.1585    0.0678   18.5988 C   0  0  0  0  0  0  0  0  0  0  0  0
    8.0983   -0.4291   18.3589 H   0  0  0  0  0  0  0  0  0  0  0  0
    6.6632    0.0419   19.9143 C   0  0  0  0  0  0  0  0  0  0  0  0
    7.3431   -0.7284   21.0241 C   0  0  0  0  0  0  0  0  0  0  0  0
    8.4100   -0.8790   20.8186 H   0  0  0  0  0  0  0  0  0  0  0  0
    7.2865   -0.1587   21.9633 H   0  0  0  0  0  0  0  0  0  0  0  0
    6.6755   -2.0913   21.2703 C   0  0  1  0  0  0  0  0  0  0  0  0
    5.6611   -1.9501   21.6517 H   0  0  0  0  0  0  0  0  0  0  0  0
    6.5539   -2.7850   20.0820 F   0  0  0  0  0  0  0  0  0  0  0  0
    7.4603   -2.9011   22.3053 C   0  0  0  0  0  0  0  0  0  0  0  0
    8.4542   -3.5565   22.0479 O   0  0  0  0  0  0  0  0  0  0  0  0
    6.9772   -2.7578   23.5699 N   0  0  0  0  0  0  0  0  0  0  0  0
    6.1648   -2.1776   23.7102 H   0  0  0  0  0  0  0  0  0  0  0  0
    7.6881   -3.2316   24.7447 C   0  0  0  0  0  0  0  0  0  0  0  0
    7.9887   -4.2649   24.5428 H   0  0  0  0  0  0  0  0  0  0  0  0
    8.9731   -2.4251   25.0143 C   0  0  0  0  0  0  0  0  0  0  0  0
    9.5410   -2.9719   25.7787 H   0  0  0  0  0  0  0  0  0  0  0  0
    9.5789   -2.4294   24.1040 H   0  0  0  0  0  0  0  0  0  0  0  0
    8.6975   -0.9959   25.5089 C   0  0  0  0  0  0  0  0  0  0  0  0
    9.6438   -0.4833   25.7186 H   0  0  0  0  0  0  0  0  0  0  0  0
    8.2149   -0.4211   24.7048 H   0  0  0  0  0  0  0  0  0  0  0  0
    7.7960   -1.0075   26.7549 C   0  0  0  0  0  0  0  0  0  0  0  0
    7.5836    0.0152   27.0914 H   0  0  0  0  0  0  0  0  0  0  0  0
    8.3387   -1.4886   27.5809 H   0  0  0  0  0  0  0  0  0  0  0  0
    6.4865   -1.7757   26.4976 C   0  0  0  0  0  0  0  0  0  0  0  0
    5.8892   -1.8365   27.4149 H   0  0  0  0  0  0  0  0  0  0  0  0
    5.8723   -1.2135   25.7791 H   0  0  0  0  0  0  0  0  0  0  0  0
    6.7522   -3.1961   25.9578 C   0  0  0  0  0  0  0  0  0  0  0  0
    7.2214   -3.7919   26.7508 H   0  0  0  0  0  0  0  0  0  0  0  0
    5.8146   -3.7042   25.7032 H   0  0  0  0  0  0  0  0  0  0  0  0
    5.4384    0.6899   20.1396 C   0  0  0  0  0  0  0  0  0  0  0  0
    4.9925    0.6745   21.1371 H   0  0  0  0  0  0  0  0  0  0  0  0
    4.7930    1.3321   19.0812 C   0  0  0  0  0  0  0  0  0  0  0  0
    3.8503    1.8546   19.2196 H   0  0  0  0  0  0  0  0  0  0  0  0
  1  2  1  0
  2  3  2  0
  3  4  1  0
  4  5  1  0
  4  6  2  0
  6  7  1  0
  7  8  1  0
  7  9  1  0
  7 10  1  0
 10 11  1  1
 10 12  1  0
 10 13  1  0
 13 14  2  0
 13 15  1  0
 15 16  1  0
 15 17  1  0
 17 18  1  0
 17 19  1  0
 19 20  1  0
 19 21  1  0
 19 22  1  0
 22 23  1  0
 22 24  1  0
 22 25  1  0
 25 26  1  0
 25 27  1  0
 25 28  1  0
 28 29  1  0
 28 30  1  0
 28 31  1  0
 31 32  1  0
 31 33  1  0
  6 34  1  0
 34 35  1  0
 34 36  2  0
 36 37  1  0
 36  2  1  0
 31 17  1  0
M  END
>  <cnnaffinity>  (1) 
-4.9013

>  <filename>  (1) 
O=C(NC1CCCCC1)[C@H](F)Cc1cccnc1

$$$$
