
     RDKit          3D

 39 42  0  0  0  0  0  0  0  0999 V2000
    4.9735    1.8499   16.8930 H   0  0  0  0  0  0  0  0  0  0  0  0
    5.4086    1.3032   17.7269 C   0  0  0  0  0  0  0  0  0  0  0  0
    6.5485    0.6390   17.4866 N   0  0  0  0  0  0  0  0  0  0  0  0
    7.1336    0.0032   18.5064 C   0  0  0  0  0  0  0  0  0  0  0  0
    8.0553   -0.5228   18.2653 H   0  0  0  0  0  0  0  0  0  0  0  0
    6.6197    0.0003   19.8174 C   0  0  0  0  0  0  0  0  0  0  0  0
    7.3920   -0.5554   20.9434 C   0  0  0  0  0  0  0  0  0  0  0  0
    8.5712   -1.1774   20.7601 N   0  0  0  0  0  0  0  0  0  0  0  0
    8.9893   -1.3940   22.0218 N   0  0  0  0  0  0  0  0  0  0  0  0
   10.1470   -1.9015   22.5999 C   0  0  0  0  0  0  0  0  0  0  0  0
   10.9338   -2.3154   21.9936 H   0  0  0  0  0  0  0  0  0  0  0  0
   10.0143   -1.6976   23.9343 C   0  0  0  0  0  0  0  0  0  0  0  0
   10.6786   -1.8870   24.7614 H   0  0  0  0  0  0  0  0  0  0  0  0
    8.7890   -1.0969   24.1661 N   0  0  0  0  0  0  0  0  0  0  0  0
    8.3760   -0.5567   25.3734 N   0  0  0  0  0  0  0  0  0  0  0  0
    8.7024    0.3899   25.4841 H   0  0  0  0  0  0  0  0  0  0  0  0
    6.9931   -0.5656   25.6549 C   0  0  0  0  0  0  0  0  0  0  0  0
    6.2808   -1.5211   25.4721 O   0  0  0  0  0  0  0  0  0  0  0  0
    6.5301    0.7964   26.1511 C   0  0  0  0  0  0  0  0  0  0  0  0
    7.3304    1.2483   26.7411 H   0  0  0  0  0  0  0  0  0  0  0  0
    5.6932    0.6396   26.8332 H   0  0  0  0  0  0  0  0  0  0  0  0
    6.1161    1.6913   24.9891 C   0  0  0  0  0  0  0  0  0  0  0  0
    7.0271    2.5206   24.3163 C   0  0  0  0  0  0  0  0  0  0  0  0
    8.0689    2.5636   24.6285 H   0  0  0  0  0  0  0  0  0  0  0  0
    6.6037    3.3336   23.2563 C   0  0  0  0  0  0  0  0  0  0  0  0
    7.3099    3.9935   22.7590 H   0  0  0  0  0  0  0  0  0  0  0  0
    5.2653    3.3184   22.8488 C   0  0  0  0  0  0  0  0  0  0  0  0
    4.9326    3.9493   22.0257 H   0  0  0  0  0  0  0  0  0  0  0  0
    4.3528    2.4914   23.5128 C   0  0  0  0  0  0  0  0  0  0  0  0
    3.3049    2.5097   23.2329 H   0  0  0  0  0  0  0  0  0  0  0  0
    4.7817    1.6710   24.5598 C   0  0  0  0  0  0  0  0  0  0  0  0
    4.0781    1.0207   25.0748 H   0  0  0  0  0  0  0  0  0  0  0  0
    8.1553   -0.9233   22.9609 C   0  0  0  0  0  0  0  0  0  0  0  0
    7.0473   -0.4079   22.3029 C   0  0  0  0  0  0  0  0  0  0  0  0
    6.1371   -0.0471   22.7460 H   0  0  0  0  0  0  0  0  0  0  0  0
    5.3979    0.6535   20.0322 C   0  0  0  0  0  0  0  0  0  0  0  0
    4.9383    0.6293   21.0197 H   0  0  0  0  0  0  0  0  0  0  0  0
    4.7865    1.3239   18.9780 C   0  0  0  0  0  0  0  0  0  0  0  0
    3.8662    1.8776   19.1216 H   0  0  0  0  0  0  0  0  0  0  0  0
  1  2  1  0
  2  3  2  0
  3  4  1  0
  4  5  1  0
  4  6  2  0
  6  7  1  0
  7  8  2  0
  8  9  1  0
  9 10  1  0
 10 11  1  0
 10 12  2  0
 12 13  1  0
 12 14  1  0
 14 15  1  0
 15 16  1  0
 15 17  1  0
 17 18  2  0
 17 19  1  0
 19 20  1  0
 19 21  1  0
 19 22  1  0
 22 23  2  0
 23 24  1  0
 23 25  1  0
 25 26  1  0
 25 27  2  0
 27 28  1  0
 27 29  1  0
 29 30  1  0
 29 31  2  0
 31 32  1  0
 14 33  1  0
 33 34  2  0
 34 35  1  0
  6 36  1  0
 36 37  1  0
 36 38  2  0
 38 39  1  0
 38  2  1  0
 34  7  1  0
 33  9  1  0
 31 22  1  0
M  END
>  <cnnaffinity>  (1) 
-5.57155

>  <filename>  (1) 
O=C(Cc1ccccc1)Nn1ccn2nc(-c3cccnc3)cc12

$$$$
