
     RDKit          3D

 35 37  0  0  0  0  0  0  0  0999 V2000
    4.7985    2.1923   16.4501 H   0  0  0  0  0  0  0  0  0  0  0  0
    5.1505    1.7070   17.3571 C   0  0  0  0  0  0  0  0  0  0  0  0
    6.3001    1.0231   17.2347 N   0  0  0  0  0  0  0  0  0  0  0  0
    6.7907    0.4489   18.3424 C   0  0  0  0  0  0  0  0  0  0  0  0
    7.7357   -0.0814   18.2355 H   0  0  0  0  0  0  0  0  0  0  0  0
    6.1836    0.4998   19.6275 C   0  0  0  0  0  0  0  0  0  0  0  0
    6.7687   -0.1928   20.7250 N   0  0  0  0  0  0  0  0  0  0  0  0
    6.9272    0.4032   22.0479 C   0  0  0  0  0  0  0  0  0  0  0  0
    6.9971    1.4923   21.9538 H   0  0  0  0  0  0  0  0  0  0  0  0
    6.0562    0.1969   22.7015 H   0  0  0  0  0  0  0  0  0  0  0  0
    8.2054   -0.1433   22.7197 C   0  0  0  0  0  0  0  0  0  0  0  0
    8.2733    0.2569   23.7391 H   0  0  0  0  0  0  0  0  0  0  0  0
    9.0812    0.2198   22.1689 H   0  0  0  0  0  0  0  0  0  0  0  0
    8.2605   -1.6931   22.7409 C   0  0  0  0  0  0  0  0  0  0  0  0
    7.4955   -2.0637   23.4394 H   0  0  0  0  0  0  0  0  0  0  0  0
    9.6268   -2.2412   23.2353 C   0  0  0  0  0  0  0  0  0  0  0  0
   10.6733   -1.7116   22.9225 O   0  0  0  0  0  0  0  0  0  0  0  0
    9.6254   -3.5006   24.0421 C   0  0  0  0  0  0  0  0  0  0  0  0
   11.1417   -4.1452   24.5656 S   0  0  0  0  0  0  0  0  0  0  0  0
   10.3870   -5.4719   25.3415 C   0  0  0  0  0  0  0  0  0  0  0  0
   10.9760   -6.2156   25.8642 H   0  0  0  0  0  0  0  0  0  0  0  0
    9.0296   -5.4374   25.1994 C   0  0  0  0  0  0  0  0  0  0  0  0
    8.3555   -6.1736   25.6248 H   0  0  0  0  0  0  0  0  0  0  0  0
    8.5881   -4.3046   24.4624 C   0  0  0  0  0  0  0  0  0  0  0  0
    7.5397   -4.0985   24.2698 H   0  0  0  0  0  0  0  0  0  0  0  0
    7.9537   -2.2459   21.3267 C   0  0  0  0  0  0  0  0  0  0  0  0
    7.8727   -3.3408   21.3361 H   0  0  0  0  0  0  0  0  0  0  0  0
    8.7755   -1.9748   20.6484 H   0  0  0  0  0  0  0  0  0  0  0  0
    6.6502   -1.6467   20.7941 C   0  0  0  0  0  0  0  0  0  0  0  0
    5.8253   -1.9480   21.4678 H   0  0  0  0  0  0  0  0  0  0  0  0
    6.4030   -2.0356   19.8034 H   0  0  0  0  0  0  0  0  0  0  0  0
    4.9847    1.2322   19.7228 C   0  0  0  0  0  0  0  0  0  0  0  0
    4.4939    1.3284   20.6913 H   0  0  0  0  0  0  0  0  0  0  0  0
    4.4507    1.8217   18.5657 C   0  0  0  0  0  0  0  0  0  0  0  0
    3.5193    2.3801   18.5922 H   0  0  0  0  0  0  0  0  0  0  0  0
  1  2  1  0
  2  3  2  0
  3  4  1  0
  4  5  1  0
  4  6  2  0
  6  7  1  0
  7  8  1  0
  8  9  1  0
  8 10  1  0
  8 11  1  0
 11 12  1  0
 11 13  1  0
 11 14  1  0
 14 15  1  0
 14 16  1  0
 16 17  2  0
 16 18  1  0
 18 19  1  0
 19 20  1  0
 20 21  1  0
 20 22  2  0
 22 23  1  0
 22 24  1  0
 24 25  1  0
 14 26  1  0
 26 27  1  0
 26 28  1  0
 26 29  1  0
 29 30  1  0
 29 31  1  0
  6 32  1  0
 32 33  1  0
 32 34  2  0
 34 35  1  0
 34  2  1  0
 29  7  1  0
 24 18  2  0
M  END
>  <cnnaffinity>  (1) 
-5.12229

>  <filename>  (1) 
O=C(c1cccs1)C1CCN(c2cccnc2)CC1

$$$$
