
     RDKit          3D

 28 30  0  0  0  0  0  0  0  0999 V2000
    5.4741    2.7914   16.5117 H   0  0  0  0  0  0  0  0  0  0  0  0
    5.5700    2.0859   17.3335 C   0  0  0  0  0  0  0  0  0  0  0  0
    6.5029    1.1304   17.1819 N   0  0  0  0  0  0  0  0  0  0  0  0
    6.6564    0.2589   18.1820 C   0  0  0  0  0  0  0  0  0  0  0  0
    7.4356   -0.4944   18.0790 H   0  0  0  0  0  0  0  0  0  0  0  0
    5.9082    0.2968   19.3714 C   0  0  0  0  0  0  0  0  0  0  0  0
    6.1884   -0.6014   20.4377 N   0  0  0  0  0  0  0  0  0  0  0  0
    6.4900   -1.9542   20.3403 C   0  0  0  0  0  0  0  0  0  0  0  0
    6.4228   -2.4609   19.3898 H   0  0  0  0  0  0  0  0  0  0  0  0
    6.8623   -2.4099   21.5647 C   0  0  0  0  0  0  0  0  0  0  0  0
    7.3624   -3.7897   21.8926 C   0  0  0  0  0  0  0  0  0  0  0  0
    6.9372   -4.7683   21.3101 O   0  0  0  0  0  0  0  0  0  0  0  0
    8.3915   -3.9154   22.9624 C   0  0  0  0  0  0  0  0  0  0  0  0
    8.2971   -5.2424   24.0644 S   0  0  0  0  0  0  0  0  0  0  0  0
    9.6231   -4.6389   24.9744 C   0  0  0  0  0  0  0  0  0  0  0  0
    9.9252   -5.1526   25.8830 H   0  0  0  0  0  0  0  0  0  0  0  0
   10.1660   -3.5171   24.4148 C   0  0  0  0  0  0  0  0  0  0  0  0
   11.0220   -2.9877   24.8247 H   0  0  0  0  0  0  0  0  0  0  0  0
    9.4625   -3.1034   23.2465 C   0  0  0  0  0  0  0  0  0  0  0  0
    9.7551   -2.2475   22.6396 H   0  0  0  0  0  0  0  0  0  0  0  0
    6.7687   -1.2978   22.4174 N   0  0  0  0  0  0  0  0  0  0  0  0
    6.9751   -1.1603   23.3915 H   0  0  0  0  0  0  0  0  0  0  0  0
    6.3918   -0.1633   21.7564 C   0  0  0  0  0  0  0  0  0  0  0  0
    6.3087    0.9424   22.2508 O   0  0  0  0  0  0  0  0  0  0  0  0
    4.9324    1.2897   19.5192 C   0  0  0  0  0  0  0  0  0  0  0  0
    4.3628    1.3538   20.4455 H   0  0  0  0  0  0  0  0  0  0  0  0
    4.7636    2.2002   18.4716 C   0  0  0  0  0  0  0  0  0  0  0  0
    4.0396    3.0076   18.5345 H   0  0  0  0  0  0  0  0  0  0  0  0
  1  2  1  0
  2  3  2  0
  3  4  1  0
  4  5  1  0
  4  6  2  0
  6  7  1  0
  7  8  1  0
  8  9  1  0
  8 10  2  0
 10 11  1  0
 11 12  2  0
 11 13  1  0
 13 14  1  0
 14 15  1  0
 15 16  1  0
 15 17  2  0
 17 18  1  0
 17 19  1  0
 19 20  1  0
 10 21  1  0
 21 22  1  0
 21 23  1  0
 23 24  2  0
  6 25  1  0
 25 26  1  0
 25 27  2  0
 27 28  1  0
 27  2  1  0
 23  7  1  0
 19 13  2  0
M  END
>  <cnnaffinity>  (1) 
-4.87804

>  <filename>  (1) 
O=C(c1cn(-c2cccnc2)c(=O)[nH]1)c1cccs1

$$$$
