
     RDKit          3D

 34 36  0  0  0  0  0  0  0  0999 V2000
    5.0236    1.7446   17.0232 H   0  0  0  0  0  0  0  0  0  0  0  0
    5.4841    1.2403   17.8709 C   0  0  0  0  0  0  0  0  0  0  0  0
    6.6444    0.6066   17.6288 N   0  0  0  0  0  0  0  0  0  0  0  0
    7.2388   -0.0117   18.6522 C   0  0  0  0  0  0  0  0  0  0  0  0
    8.1770   -0.5161   18.4505 H   0  0  0  0  0  0  0  0  0  0  0  0
    6.7144   -0.0417   19.9535 C   0  0  0  0  0  0  0  0  0  0  0  0
    7.4121   -0.7288   20.9754 N   0  0  0  0  0  0  0  0  0  0  0  0
    8.7400   -0.9726   20.9067 N   0  0  0  0  0  0  0  0  0  0  0  0
    9.0410   -1.5809   22.0489 C   0  0  0  0  0  0  0  0  0  0  0  0
   10.0567   -1.8976   22.2455 H   0  0  0  0  0  0  0  0  0  0  0  0
    7.8853   -1.7428   22.8602 C   0  0  0  0  0  0  0  0  0  0  0  0
    7.6972   -2.3049   24.1437 N   0  0  0  0  0  0  0  0  0  0  0  0
    8.5038   -2.5941   24.6647 H   0  0  0  0  0  0  0  0  0  0  0  0
    6.4979   -2.8569   24.5675 C   0  0  0  0  0  0  0  0  0  0  0  0
    5.5004   -2.9748   23.8859 O   0  0  0  0  0  0  0  0  0  0  0  0
    6.5979   -3.2629   25.8729 N   0  0  0  0  0  0  0  0  0  0  0  0
    7.3574   -2.8603   26.3905 H   0  0  0  0  0  0  0  0  0  0  0  0
    5.5501   -3.8530   26.6059 C   0  0  0  0  0  0  0  0  0  0  0  0
    4.7271   -4.8248   26.0286 C   0  0  0  0  0  0  0  0  0  0  0  0
    4.8682   -5.0564   24.9829 H   0  0  0  0  0  0  0  0  0  0  0  0
    3.7727   -5.4817   26.8046 C   0  0  0  0  0  0  0  0  0  0  0  0
    3.1612   -6.2626   26.3553 H   0  0  0  0  0  0  0  0  0  0  0  0
    3.6319   -5.1590   28.1580 C   0  0  0  0  0  0  0  0  0  0  0  0
    2.9445   -5.7197   28.7812 H   0  0  0  0  0  0  0  0  0  0  0  0
    4.4069   -4.1379   28.7187 C   0  0  0  0  0  0  0  0  0  0  0  0
    4.2855   -3.8451   29.7576 H   0  0  0  0  0  0  0  0  0  0  0  0
    5.3605   -3.4819   27.9363 C   0  0  0  0  0  0  0  0  0  0  0  0
    5.9195   -2.6409   28.3227 H   0  0  0  0  0  0  0  0  0  0  0  0
    6.8756   -1.2100   22.1223 C   0  0  0  0  0  0  0  0  0  0  0  0
    5.8244   -1.2431   22.3366 H   0  0  0  0  0  0  0  0  0  0  0  0
    5.5032    0.6192   20.2045 C   0  0  0  0  0  0  0  0  0  0  0  0
    5.0738    0.6506   21.2079 H   0  0  0  0  0  0  0  0  0  0  0  0
    4.8822    1.2670   19.1335 C   0  0  0  0  0  0  0  0  0  0  0  0
    3.9488    1.8016   19.2695 H   0  0  0  0  0  0  0  0  0  0  0  0
  1  2  1  0
  2  3  2  0
  3  4  1  0
  4  5  1  0
  4  6  2  0
  6  7  1  0
  7  8  1  0
  8  9  2  0
  9 10  1  0
  9 11  1  0
 11 12  1  0
 12 13  1  0
 12 14  1  0
 14 15  2  0
 14 16  1  0
 16 17  1  0
 16 18  1  0
 18 19  2  0
 19 20  1  0
 19 21  1  0
 21 22  1  0
 21 23  2  0
 23 24  1  0
 23 25  1  0
 25 26  1  0
 25 27  2  0
 27 28  1  0
 11 29  2  0
 29 30  1  0
  6 31  1  0
 31 32  1  0
 31 33  2  0
 33 34  1  0
 33  2  1  0
 29  7  1  0
 27 18  1  0
M  END
>  <cnnaffinity>  (1) 
-5.1768

>  <filename>  (1) 
O=C(Nc1ccccc1)Nc1cnn(-c2cccnc2)c1

$$$$
