
     RDKit          3D

 33 34  0  0  0  0  0  0  0  0999 V2000
    3.8979   -7.3451   22.4232 H   0  0  0  0  0  0  0  0  0  0  0  0
    5.1174   -6.7318   20.6450 O   0  0  0  0  0  0  0  0  0  0  0  0
    5.4690   -6.6223   21.7940 C   0  0  0  0  0  0  0  0  0  0  0  0
    4.6897   -6.9723   22.8308 O   0  0  0  0  0  0  0  0  0  0  0  0
    6.8202   -6.0897   22.2019 C   0  0  0  0  0  0  0  0  0  0  0  0
    7.4336   -6.3099   21.3260 H   0  0  0  0  0  0  0  0  0  0  0  0
    7.1835   -6.6970   23.0362 H   0  0  0  0  0  0  0  0  0  0  0  0
    6.8699   -4.5655   22.5080 C   0  0  0  0  0  0  0  0  0  0  0  0
    6.0588   -4.0382   21.9800 H   0  0  0  0  0  0  0  0  0  0  0  0
    6.6998   -4.3741   23.5744 H   0  0  0  0  0  0  0  0  0  0  0  0
    8.1973   -3.8947   22.0899 C   0  0  0  0  0  0  0  0  0  0  0  0
    9.0350   -4.2072   22.7264 H   0  0  0  0  0  0  0  0  0  0  0  0
    8.4495   -4.2220   21.0708 H   0  0  0  0  0  0  0  0  0  0  0  0
    8.0925   -2.3868   22.1052 C   0  0  0  0  0  0  0  0  0  0  0  0
    8.5715   -1.6049   23.2049 C   0  0  0  0  0  0  0  0  0  0  0  0
    9.1116   -2.0906   24.0200 H   0  0  0  0  0  0  0  0  0  0  0  0
    8.3428   -0.2656   23.2482 C   0  0  0  0  0  0  0  0  0  0  0  0
    8.6475    0.3638   24.0711 H   0  0  0  0  0  0  0  0  0  0  0  0
    7.6426    0.4496   22.1939 C   0  0  0  0  0  0  0  0  0  0  0  0
    7.4199    1.6503   22.2401 O   0  0  0  0  0  0  0  0  0  0  0  0
    7.2461   -0.3651   21.0775 N   0  0  0  0  0  0  0  0  0  0  0  0
    6.6135    0.2267   19.9194 C   0  0  0  0  0  0  0  0  0  0  0  0
    7.1545    0.0648   18.6267 C   0  0  0  0  0  0  0  0  0  0  0  0
    8.0792   -0.4951   18.4988 H   0  0  0  0  0  0  0  0  0  0  0  0
    6.6144    0.5851   17.5165 N   0  0  0  0  0  0  0  0  0  0  0  0
    5.4852    1.2983   17.6532 C   0  0  0  0  0  0  0  0  0  0  0  0
    5.0654    1.7148   16.7387 H   0  0  0  0  0  0  0  0  0  0  0  0
    4.8604    1.5101   18.8866 C   0  0  0  0  0  0  0  0  0  0  0  0
    3.9508    2.1013   18.9276 H   0  0  0  0  0  0  0  0  0  0  0  0
    5.4366    0.9756   20.0451 C   0  0  0  0  0  0  0  0  0  0  0  0
    4.9957    1.1378   21.0270 H   0  0  0  0  0  0  0  0  0  0  0  0
    7.4506   -1.7337   21.0923 C   0  0  0  0  0  0  0  0  0  0  0  0
    7.0349   -2.2625   20.2383 H   0  0  0  0  0  0  0  0  0  0  0  0
  1  2  1  0
  2  3  1  0
  3  4  2  0
  3  5  1  0
  5  6  1  0
  5  7  1  0
  5  8  1  0
  8  9  1  0
  8 10  1  0
  8 11  1  0
 11 12  1  0
 11 13  1  0
 11 14  1  0
 14 15  1  0
 15 16  1  0
 15 17  2  0
 17 18  1  0
 17 19  1  0
 19 20  2  0
 19 21  1  0
 21 22  1  0
 22 23  2  0
 23 24  1  0
 23 25  1  0
 25 26  2  0
 26 27  1  0
 26 28  1  0
 28 29  1  0
 28 30  2  0
 30 31  1  0
 21 32  1  0
 32 33  1  0
 32 14  2  0
 30 22  1  0
M  END
>  <cnnaffinity>  (1) 
-4.93879

>  <filename>  (1) 
O=C(O)CCCc1ccc(=O)n(-c2cccnc2)c1

$$$$
