
     RDKit          3D

 41 43  0  0  0  0  0  0  0  0999 V2000
    5.0715    1.9112   16.9385 H   0  0  0  0  0  0  0  0  0  0  0  0
    5.4703    1.3599   17.7873 C   0  0  0  0  0  0  0  0  0  0  0  0
    6.6167    0.6947   17.5730 N   0  0  0  0  0  0  0  0  0  0  0  0
    7.1302    0.0012   18.5960 C   0  0  0  0  0  0  0  0  0  0  0  0
    8.0733   -0.5169   18.4335 H   0  0  0  0  0  0  0  0  0  0  0  0
    6.5206   -0.0794   19.8604 C   0  0  0  0  0  0  0  0  0  0  0  0
    7.1693   -0.7508   20.9613 N   0  0  0  0  0  0  0  0  0  0  0  0
    7.7942    0.0586   21.9106 C   0  0  0  0  0  0  0  0  0  0  0  0
    7.7816    1.1308   21.7415 H   0  0  0  0  0  0  0  0  0  0  0  0
    8.4067   -0.4567   23.0004 C   0  0  0  0  0  0  0  0  0  0  0  0
    8.8708    0.3975   24.0451 N   0  0  0  0  0  0  0  0  0  0  0  0
    8.9570    0.0072   24.9725 H   0  0  0  0  0  0  0  0  0  0  0  0
    9.0015    1.7758   23.9676 C   0  0  0  0  0  0  0  0  0  0  0  0
    9.1317    2.3345   22.8908 O   0  0  0  0  0  0  0  0  0  0  0  0
    8.9827    2.5154   25.3212 C   0  0  0  0  0  0  0  0  0  0  0  0
    9.7194    1.9991   25.9538 H   0  0  0  0  0  0  0  0  0  0  0  0
    9.4051    3.9940   25.1654 C   0  0  0  0  0  0  0  0  0  0  0  0
   10.3736    4.0712   24.6593 H   0  0  0  0  0  0  0  0  0  0  0  0
    9.5455    4.4137   26.1717 H   0  0  0  0  0  0  0  0  0  0  0  0
    8.3430    4.8192   24.4215 C   0  0  0  0  0  0  0  0  0  0  0  0
    8.6952    5.8495   24.2939 H   0  0  0  0  0  0  0  0  0  0  0  0
    8.2208    4.4068   23.4149 H   0  0  0  0  0  0  0  0  0  0  0  0
    6.9953    4.7666   25.1526 C   0  0  0  0  0  0  0  0  0  0  0  0
    7.0971    5.2579   26.1332 H   0  0  0  0  0  0  0  0  0  0  0  0
    6.2400    5.3390   24.6018 H   0  0  0  0  0  0  0  0  0  0  0  0
    6.5314    3.3105   25.3324 C   0  0  0  0  0  0  0  0  0  0  0  0
    6.2915    2.8746   24.3530 H   0  0  0  0  0  0  0  0  0  0  0  0
    5.5895    3.2654   25.8906 H   0  0  0  0  0  0  0  0  0  0  0  0
    7.5985    2.4548   26.0331 C   0  0  0  0  0  0  0  0  0  0  0  0
    7.2546    1.4181   26.1233 H   0  0  0  0  0  0  0  0  0  0  0  0
    7.7265    2.8290   27.0598 H   0  0  0  0  0  0  0  0  0  0  0  0
    8.5532   -1.9500   23.0779 C   0  0  0  0  0  0  0  0  0  0  0  0
    9.0653   -2.5860   23.9720 O   0  0  0  0  0  0  0  0  0  0  0  0
    8.0212   -2.6448   22.0061 N   0  0  0  0  0  0  0  0  0  0  0  0
    7.9499   -3.6304   22.1662 H   0  0  0  0  0  0  0  0  0  0  0  0
    7.1006   -2.1582   21.1134 C   0  0  0  0  0  0  0  0  0  0  0  0
    6.3532   -2.8925   20.5169 O   0  0  0  0  0  0  0  0  0  0  0  0
    5.3266    0.6120   20.0734 C   0  0  0  0  0  0  0  0  0  0  0  0
    4.8589    0.5686   21.0582 H   0  0  0  0  0  0  0  0  0  0  0  0
    4.7924    1.3495   19.0115 C   0  0  0  0  0  0  0  0  0  0  0  0
    3.8973    1.9460   19.1348 H   0  0  0  0  0  0  0  0  0  0  0  0
  1  2  1  0
  2  3  2  0
  3  4  1  0
  4  5  1  0
  4  6  2  0
  6  7  1  0
  7  8  1  0
  8  9  1  0
  8 10  2  0
 10 11  1  0
 11 12  1  0
 11 13  1  0
 13 14  2  0
 13 15  1  0
 15 16  1  0
 15 17  1  0
 17 18  1  0
 17 19  1  0
 17 20  1  0
 20 21  1  0
 20 22  1  0
 20 23  1  0
 23 24  1  0
 23 25  1  0
 23 26  1  0
 26 27  1  0
 26 28  1  0
 26 29  1  0
 29 30  1  0
 29 31  1  0
 10 32  1  0
 32 33  2  0
 32 34  1  0
 34 35  1  0
 34 36  1  0
 36 37  2  0
  6 38  1  0
 38 39  1  0
 38 40  2  0
 40 41  1  0
 40  2  1  0
 36  7  1  0
 29 15  1  0
M  END
>  <cnnaffinity>  (1) 
-5.43327

>  <filename>  (1) 
O=C(Nc1cn(-c2cccnc2)c(=O)[nH]c1=O)C1CCCCC1

$$$$
