
     RDKit          3D

 38 40  0  0  0  0  0  0  0  0999 V2000
    4.9723    1.7640   17.0469 H   0  0  0  0  0  0  0  0  0  0  0  0
    5.4453    1.2554   17.8837 C   0  0  0  0  0  0  0  0  0  0  0  0
    6.6066    0.6313   17.6233 N   0  0  0  0  0  0  0  0  0  0  0  0
    7.2213    0.0119   18.6393 C   0  0  0  0  0  0  0  0  0  0  0  0
    8.1678   -0.4729   18.3961 H   0  0  0  0  0  0  0  0  0  0  0  0
    6.7194   -0.0430   19.9760 C   0  0  0  0  0  0  0  0  0  0  0  0
    7.3820   -0.6800   20.9947 N   0  0  0  0  0  0  0  0  0  0  0  0
    7.0505   -0.8746   22.3963 C   0  0  0  0  0  0  0  0  0  0  0  0
    6.9763    0.0430   23.0000 H   0  0  0  0  0  0  0  0  0  0  0  0
    6.1393   -1.4730   22.5504 H   0  0  0  0  0  0  0  0  0  0  0  0
    8.3800   -1.6701   22.5233 C   0  0  0  0  0  0  0  0  0  0  0  0
    8.2314   -2.7193   22.7499 H   0  0  0  0  0  0  0  0  0  0  0  0
    9.4050   -1.0504   23.4146 C   0  0  0  0  0  0  0  0  0  0  0  0
    9.8517    0.0582   23.2340 O   0  0  0  0  0  0  0  0  0  0  0  0
    9.9234   -1.8111   24.4331 N   0  0  0  0  0  0  0  0  0  0  0  0
   10.8284   -1.5102   24.7450 H   0  0  0  0  0  0  0  0  0  0  0  0
    9.4003   -2.8890   25.0946 C   0  0  0  0  0  0  0  0  0  0  0  0
   10.1001   -3.7580   25.5592 O   0  0  0  0  0  0  0  0  0  0  0  0
    8.0294   -2.9597   25.1936 N   0  0  0  0  0  0  0  0  0  0  0  0
    7.8341   -3.8481   25.6233 H   0  0  0  0  0  0  0  0  0  0  0  0
    7.1611   -1.9023   25.5575 C   0  0  0  0  0  0  0  0  0  0  0  0
    5.7971   -2.0868   25.3118 C   0  0  0  0  0  0  0  0  0  0  0  0
    5.4831   -3.0454   24.9110 H   0  0  0  0  0  0  0  0  0  0  0  0
    4.8862   -1.0497   25.5191 C   0  0  0  0  0  0  0  0  0  0  0  0
    3.8331   -1.1717   25.2913 H   0  0  0  0  0  0  0  0  0  0  0  0
    5.3481    0.1776   25.9989 C   0  0  0  0  0  0  0  0  0  0  0  0
    4.2274    1.4954   26.1972 Cl  0  0  0  0  0  0  0  0  0  0  0  0
    6.6982    0.3586   26.3073 C   0  0  0  0  0  0  0  0  0  0  0  0
    7.0280    1.3166   26.6982 H   0  0  0  0  0  0  0  0  0  0  0  0
    7.6019   -0.6896   26.1061 C   0  0  0  0  0  0  0  0  0  0  0  0
    8.6448   -0.5633   26.3765 H   0  0  0  0  0  0  0  0  0  0  0  0
    8.6366   -1.4046   21.0183 C   0  0  0  0  0  0  0  0  0  0  0  0
    9.5149   -0.7913   20.7721 H   0  0  0  0  0  0  0  0  0  0  0  0
    8.6405   -2.3062   20.3967 H   0  0  0  0  0  0  0  0  0  0  0  0
    5.4879    0.6087   20.2126 C   0  0  0  0  0  0  0  0  0  0  0  0
    5.0522    0.6046   21.2127 H   0  0  0  0  0  0  0  0  0  0  0  0
    4.8556    1.2630   19.1531 C   0  0  0  0  0  0  0  0  0  0  0  0
    3.9206    1.7934   19.3048 H   0  0  0  0  0  0  0  0  0  0  0  0
  1  2  1  0
  2  3  2  0
  3  4  1  0
  4  5  1  0
  4  6  2  0
  6  7  1  0
  7  8  1  0
  8  9  1  0
  8 10  1  0
  8 11  1  0
 11 12  1  0
 11 13  1  0
 13 14  2  0
 13 15  1  0
 15 16  1  0
 15 17  1  0
 17 18  2  0
 17 19  1  0
 19 20  1  0
 19 21  1  0
 21 22  2  0
 22 23  1  0
 22 24  1  0
 24 25  1  0
 24 26  2  0
 26 27  1  0
 26 28  1  0
 28 29  1  0
 28 30  2  0
 30 31  1  0
 11 32  1  0
 32 33  1  0
 32 34  1  0
  6 35  1  0
 35 36  1  0
 35 37  2  0
 37 38  1  0
 37  2  1  0
 32  7  1  0
 30 21  1  0
M  END
>  <cnnaffinity>  (1) 
-5.1037

>  <filename>  (1) 
O=C(NC(=O)C1CN(c2cccnc2)C1)Nc1ccc(Cl)cc1

$$$$
