
     RDKit          3D

 32 34  0  0  0  0  0  0  0  0999 V2000
    4.9416    1.7821   17.0053 H   0  0  0  0  0  0  0  0  0  0  0  0
    5.4111    1.2825   17.8504 C   0  0  0  0  0  0  0  0  0  0  0  0
    6.5753    0.6659   17.5940 N   0  0  0  0  0  0  0  0  0  0  0  0
    7.1768    0.0405   18.6092 C   0  0  0  0  0  0  0  0  0  0  0  0
    8.1246   -0.4440   18.3743 H   0  0  0  0  0  0  0  0  0  0  0  0
    6.6624   -0.0036   19.9150 C   0  0  0  0  0  0  0  0  0  0  0  0
    7.4166   -0.7066   20.9840 C   0  0  0  0  0  0  0  0  0  0  0  0
    8.1223   -1.7942   20.6293 N   0  0  0  0  0  0  0  0  0  0  0  0
    8.7893   -2.4916   21.5550 N   0  0  0  0  0  0  0  0  0  0  0  0
    8.7955   -2.1052   22.8321 C   0  0  0  0  0  0  0  0  0  0  0  0
    9.3680   -2.7347   23.5126 H   0  0  0  0  0  0  0  0  0  0  0  0
    8.0743   -0.9701   23.2719 C   0  0  0  0  0  0  0  0  0  0  0  0
    8.0136   -0.5759   24.6214 N   0  0  0  0  0  0  0  0  0  0  0  0
    8.8370   -0.6607   25.1948 H   0  0  0  0  0  0  0  0  0  0  0  0
    6.9033   -0.0299   25.2251 C   0  0  0  0  0  0  0  0  0  0  0  0
    5.8310    0.0694   24.6609 O   0  0  0  0  0  0  0  0  0  0  0  0
    7.1025    0.4823   26.6668 C   0  0  0  0  0  0  0  0  0  0  0  0
    8.0373   -0.0109   27.6028 C   0  0  0  0  0  0  0  0  0  0  0  0
    8.7001   -0.8473   27.4026 H   0  0  0  0  0  0  0  0  0  0  0  0
    8.0946    0.5466   28.8892 C   0  0  0  0  0  0  0  0  0  0  0  0
    8.8059    0.1732   29.6246 H   0  0  0  0  0  0  0  0  0  0  0  0
    7.2884    1.5243   29.3198 N   0  0  0  0  0  0  0  0  0  0  0  0
    6.3886    1.9894   28.4445 C   0  0  0  0  0  0  0  0  0  0  0  0
    5.7322    2.7749   28.8135 H   0  0  0  0  0  0  0  0  0  0  0  0
    6.2635    1.5144   27.1376 C   0  0  0  0  0  0  0  0  0  0  0  0
    5.4974    1.9368   26.4996 H   0  0  0  0  0  0  0  0  0  0  0  0
    7.3769   -0.2532   22.3085 C   0  0  0  0  0  0  0  0  0  0  0  0
    6.8167    0.6281   22.5977 H   0  0  0  0  0  0  0  0  0  0  0  0
    5.4427    0.6440   20.1662 C   0  0  0  0  0  0  0  0  0  0  0  0
    5.0003    0.6333   21.1660 H   0  0  0  0  0  0  0  0  0  0  0  0
    4.8110    1.2965   19.1115 C   0  0  0  0  0  0  0  0  0  0  0  0
    3.8825    1.8328   19.2547 H   0  0  0  0  0  0  0  0  0  0  0  0
  1  2  1  0
  2  3  2  0
  3  4  1  0
  4  5  1  0
  4  6  2  0
  6  7  1  0
  7  8  2  0
  8  9  1  0
  9 10  2  0
 10 11  1  0
 10 12  1  0
 12 13  1  0
 13 14  1  0
 13 15  1  0
 15 16  2  0
 15 17  1  0
 17 18  2  0
 18 19  1  0
 18 20  1  0
 20 21  1  0
 20 22  2  0
 22 23  1  0
 23 24  1  0
 23 25  2  0
 25 26  1  0
 12 27  2  0
 27 28  1  0
  6 29  1  0
 29 30  1  0
 29 31  2  0
 31 32  1  0
 31  2  1  0
 27  7  1  0
 25 17  1  0
M  END
>  <cnnaffinity>  (1) 
-4.78285

>  <filename>  (1) 
O=C(Nc1cnnc(-c2cccnc2)c1)c1ccncc1

$$$$
