
     RDKit          3D

 35 38  0  0  0  0  0  0  0  0999 V2000
    4.9425    1.7716   17.0232 H   0  0  0  0  0  0  0  0  0  0  0  0
    5.4208    1.2718   17.8628 C   0  0  0  0  0  0  0  0  0  0  0  0
    6.5854    0.6546   17.6028 N   0  0  0  0  0  0  0  0  0  0  0  0
    7.1979    0.0354   18.6206 C   0  0  0  0  0  0  0  0  0  0  0  0
    8.1452   -0.4399   18.3715 H   0  0  0  0  0  0  0  0  0  0  0  0
    6.7009   -0.0308   19.9599 C   0  0  0  0  0  0  0  0  0  0  0  0
    7.3682   -0.6872   20.9707 N   0  0  0  0  0  0  0  0  0  0  0  0
    7.0537   -0.8772   22.3718 C   0  0  0  0  0  0  0  0  0  0  0  0
    7.0118    0.0452   22.9648 H   0  0  0  0  0  0  0  0  0  0  0  0
    6.1397   -1.4462   22.5715 H   0  0  0  0  0  0  0  0  0  0  0  0
    8.3652   -1.7032   22.5013 C   0  0  0  0  0  0  0  0  0  0  0  0
    9.1170   -1.2549   23.1570 H   0  0  0  0  0  0  0  0  0  0  0  0
    8.2115   -3.1755   22.8742 C   0  0  0  0  0  0  0  0  0  0  0  0
    8.6239   -4.0420   22.1288 O   0  0  0  0  0  0  0  0  0  0  0  0
    7.5454   -3.5313   24.1817 C   0  0  0  0  0  0  0  0  0  0  0  0
    7.3281   -2.5692   25.2229 C   0  0  0  0  0  0  0  0  0  0  0  0
    7.6488   -1.5366   25.0983 H   0  0  0  0  0  0  0  0  0  0  0  0
    6.7081   -2.9045   26.4150 C   0  0  0  0  0  0  0  0  0  0  0  0
    6.5401   -2.1754   27.1976 H   0  0  0  0  0  0  0  0  0  0  0  0
    6.2975   -4.2449   26.5787 C   0  0  0  0  0  0  0  0  0  0  0  0
    6.5033   -5.2186   25.5749 C   0  0  0  0  0  0  0  0  0  0  0  0
    5.9495   -6.4147   26.1364 C   0  0  0  0  0  0  0  0  0  0  0  0
    5.8770   -7.4070   25.7068 H   0  0  0  0  0  0  0  0  0  0  0  0
    5.4633   -6.1984   27.3390 N   0  0  0  0  0  0  0  0  0  0  0  0
    5.6776   -4.8906   27.6025 N   0  0  0  0  0  0  0  0  0  0  0  0
    5.3796   -4.5011   28.4861 H   0  0  0  0  0  0  0  0  0  0  0  0
    7.1412   -4.8578   24.3675 C   0  0  0  0  0  0  0  0  0  0  0  0
    7.3187   -5.5910   23.5852 H   0  0  0  0  0  0  0  0  0  0  0  0
    8.6260   -1.4172   21.0003 C   0  0  0  0  0  0  0  0  0  0  0  0
    9.5143   -0.8170   20.7634 H   0  0  0  0  0  0  0  0  0  0  0  0
    8.6617   -2.3121   20.3814 H   0  0  0  0  0  0  0  0  0  0  0  0
    5.4702    0.6242   20.1938 C   0  0  0  0  0  0  0  0  0  0  0  0
    5.0264    0.6200   21.1888 H   0  0  0  0  0  0  0  0  0  0  0  0
    4.8370    1.2818   19.1337 C   0  0  0  0  0  0  0  0  0  0  0  0
    3.9030    1.8147   19.2815 H   0  0  0  0  0  0  0  0  0  0  0  0
  1  2  1  0
  2  3  2  0
  3  4  1  0
  4  5  1  0
  4  6  2  0
  6  7  1  0
  7  8  1  0
  8  9  1  0
  8 10  1  0
  8 11  1  0
 11 12  1  0
 11 13  1  0
 13 14  2  0
 13 15  1  0
 15 16  2  0
 16 17  1  0
 16 18  1  0
 18 19  1  0
 18 20  2  0
 20 21  1  0
 21 22  1  0
 22 23  1  0
 22 24  2  0
 24 25  1  0
 25 26  1  0
 21 27  2  0
 27 28  1  0
 11 29  1  0
 29 30  1  0
 29 31  1  0
  6 32  1  0
 32 33  1  0
 32 34  2  0
 34 35  1  0
 34  2  1  0
 29  7  1  0
 27 15  1  0
 25 20  1  0
M  END
>  <cnnaffinity>  (1) 
-5.24002

>  <filename>  (1) 
O=C(c1ccc2[nH]ncc2c1)C1CN(c2cccnc2)C1

$$$$
