
     RDKit          3D

 31 33  0  0  0  0  0  0  0  0999 V2000
    4.9377    1.8148   16.9953 H   0  0  0  0  0  0  0  0  0  0  0  0
    5.4188    1.3069   17.8323 C   0  0  0  0  0  0  0  0  0  0  0  0
    6.5823    0.6921   17.5672 N   0  0  0  0  0  0  0  0  0  0  0  0
    7.1883    0.0426   18.5656 C   0  0  0  0  0  0  0  0  0  0  0  0
    8.1326   -0.4551   18.3395 H   0  0  0  0  0  0  0  0  0  0  0  0
    6.6647   -0.0399   19.8667 C   0  0  0  0  0  0  0  0  0  0  0  0
    7.3663   -0.7550   20.8833 N   0  0  0  0  0  0  0  0  0  0  0  0
    8.6825   -0.5081   21.2286 C   0  0  0  0  0  0  0  0  0  0  0  0
    9.2838    0.1982   20.6676 H   0  0  0  0  0  0  0  0  0  0  0  0
    9.0081   -1.3291   22.2620 C   0  0  0  0  0  0  0  0  0  0  0  0
   10.3386   -1.6264   22.8756 C   0  0  0  0  0  0  0  0  0  0  0  0
   10.5075   -2.6447   23.5289 O   0  0  0  0  0  0  0  0  0  0  0  0
   11.4457   -0.6420   22.6344 C   0  0  0  0  0  0  0  0  0  0  0  0
   12.7562   -1.1230   22.4474 C   0  0  0  0  0  0  0  0  0  0  0  0
   12.9173   -2.1911   22.3094 H   0  0  0  0  0  0  0  0  0  0  0  0
   13.8392   -0.2515   22.4703 C   0  0  0  0  0  0  0  0  0  0  0  0
   14.8614   -0.6062   22.4102 H   0  0  0  0  0  0  0  0  0  0  0  0
   13.5820    1.1096   22.6011 C   0  0  0  0  0  0  0  0  0  0  0  0
   14.6215    1.9477   22.6438 F   0  0  0  0  0  0  0  0  0  0  0  0
   12.2946    1.6360   22.6495 C   0  0  0  0  0  0  0  0  0  0  0  0
   12.1626    2.7139   22.6712 H   0  0  0  0  0  0  0  0  0  0  0  0
   11.2181    0.7492   22.6707 C   0  0  0  0  0  0  0  0  0  0  0  0
   10.2024    1.1422   22.7160 H   0  0  0  0  0  0  0  0  0  0  0  0
    7.8466   -2.0590   22.5290 N   0  0  0  0  0  0  0  0  0  0  0  0
    7.6846   -2.7728   23.2258 H   0  0  0  0  0  0  0  0  0  0  0  0
    6.8516   -1.7916   21.6475 C   0  0  0  0  0  0  0  0  0  0  0  0
    5.4469   -2.6650   21.4896 S   0  0  0  0  0  0  0  0  0  0  0  0
    5.4563    0.6060   20.1439 C   0  0  0  0  0  0  0  0  0  0  0  0
    5.0354    0.5769   21.1489 H   0  0  0  0  0  0  0  0  0  0  0  0
    4.8281    1.2951   19.1006 C   0  0  0  0  0  0  0  0  0  0  0  0
    3.8955    1.8207   19.2543 H   0  0  0  0  0  0  0  0  0  0  0  0
  1  2  1  0
  2  3  2  0
  3  4  1  0
  4  5  1  0
  4  6  2  0
  6  7  1  0
  7  8  1  0
  8  9  1  0
  8 10  2  0
 10 11  1  0
 11 12  2  0
 11 13  1  0
 13 14  2  0
 14 15  1  0
 14 16  1  0
 16 17  1  0
 16 18  2  0
 18 19  1  0
 18 20  1  0
 20 21  1  0
 20 22  2  0
 22 23  1  0
 10 24  1  0
 24 25  1  0
 24 26  1  0
 26 27  2  0
  6 28  1  0
 28 29  1  0
 28 30  2  0
 30 31  1  0
 30  2  1  0
 26  7  1  0
 22 13  1  0
M  END
>  <cnnaffinity>  (1) 
-5.5822

>  <filename>  (1) 
O=C(c1ccc(F)cc1)c1cn(-c2cccnc2)c(=S)[nH]1

$$$$
