
     RDKit          3D

 42 45  0  0  0  0  0  0  0  0999 V2000
    5.0070    1.9225   16.5954 H   0  0  0  0  0  0  0  0  0  0  0  0
    5.4463    1.3940   17.4401 C   0  0  0  0  0  0  0  0  0  0  0  0
    6.5889    0.7343   17.2028 N   0  0  0  0  0  0  0  0  0  0  0  0
    7.1771    0.1122   18.2293 C   0  0  0  0  0  0  0  0  0  0  0  0
    8.0946   -0.4202   17.9855 H   0  0  0  0  0  0  0  0  0  0  0  0
    6.6692    0.1200   19.5430 C   0  0  0  0  0  0  0  0  0  0  0  0
    7.4090   -0.5239   20.6455 C   0  0  0  0  0  0  0  0  0  0  0  0
    8.6195   -1.0780   20.4539 N   0  0  0  0  0  0  0  0  0  0  0  0
    8.8948   -1.5907   21.6695 N   0  0  0  0  0  0  0  0  0  0  0  0
    9.9304   -2.3312   22.2078 C   0  0  0  0  0  0  0  0  0  0  0  0
   10.8063   -2.5224   21.6197 H   0  0  0  0  0  0  0  0  0  0  0  0
    9.5713   -2.6478   23.4726 C   0  0  0  0  0  0  0  0  0  0  0  0
   10.1323   -3.2315   24.1887 H   0  0  0  0  0  0  0  0  0  0  0  0
    8.2937   -2.0858   23.7372 N   0  0  0  0  0  0  0  0  0  0  0  0
    7.3633   -2.2121   24.8076 C   0  0  0  0  0  0  0  0  0  0  0  0
    6.2712   -1.6797   24.7779 O   0  0  0  0  0  0  0  0  0  0  0  0
    7.7852   -2.9822   25.8543 N   0  0  0  0  0  0  0  0  0  0  0  0
    8.7740   -3.1460   25.8904 H   0  0  0  0  0  0  0  0  0  0  0  0
    7.0744   -2.9389   27.1347 C   0  0  0  0  0  0  0  0  0  0  0  0
    6.8155   -1.9034   27.4092 H   0  0  0  0  0  0  0  0  0  0  0  0
    7.7762   -3.3264   27.8804 H   0  0  0  0  0  0  0  0  0  0  0  0
    5.7851   -3.7887   27.1881 C   0  0  0  0  0  0  0  0  0  0  0  0
    6.0263   -4.8337   26.9400 H   0  0  0  0  0  0  0  0  0  0  0  0
    5.0794   -3.4203   26.4324 H   0  0  0  0  0  0  0  0  0  0  0  0
    5.1583   -3.7047   28.5734 C   0  0  0  0  0  0  0  0  0  0  0  0
    4.1928   -2.7254   28.8843 C   0  0  0  0  0  0  0  0  0  0  0  0
    3.7789   -2.0955   28.0993 H   0  0  0  0  0  0  0  0  0  0  0  0
    3.7446   -2.5407   30.2016 C   0  0  0  0  0  0  0  0  0  0  0  0
    3.0045   -1.7750   30.4308 H   0  0  0  0  0  0  0  0  0  0  0  0
    4.2460   -3.3447   31.2311 C   0  0  0  0  0  0  0  0  0  0  0  0
    3.9481   -3.1665   32.2626 H   0  0  0  0  0  0  0  0  0  0  0  0
    5.1701   -4.3536   30.9350 C   0  0  0  0  0  0  0  0  0  0  0  0
    5.5419   -4.9968   31.7324 H   0  0  0  0  0  0  0  0  0  0  0  0
    5.6120   -4.5316   29.6180 C   0  0  0  0  0  0  0  0  0  0  0  0
    6.3180   -5.3310   29.4023 H   0  0  0  0  0  0  0  0  0  0  0  0
    7.9281   -1.4026   22.5754 C   0  0  0  0  0  0  0  0  0  0  0  0
    6.9385   -0.6625   21.9733 C   0  0  0  0  0  0  0  0  0  0  0  0
    6.0586   -0.2682   22.4420 H   0  0  0  0  0  0  0  0  0  0  0  0
    5.4348    0.7612   19.7566 C   0  0  0  0  0  0  0  0  0  0  0  0
    4.9484    0.7526   20.7334 H   0  0  0  0  0  0  0  0  0  0  0  0
    4.8252    1.4171   18.6916 C   0  0  0  0  0  0  0  0  0  0  0  0
    3.8943    1.9566   18.8226 H   0  0  0  0  0  0  0  0  0  0  0  0
  1  2  1  0
  2  3  2  0
  3  4  1  0
  4  5  1  0
  4  6  2  0
  6  7  1  0
  7  8  2  0
  8  9  1  0
  9 10  1  0
 10 11  1  0
 10 12  2  0
 12 13  1  0
 12 14  1  0
 14 15  1  0
 15 16  2  0
 15 17  1  0
 17 18  1  0
 17 19  1  0
 19 20  1  0
 19 21  1  0
 19 22  1  0
 22 23  1  0
 22 24  1  0
 22 25  1  0
 25 26  2  0
 26 27  1  0
 26 28  1  0
 28 29  1  0
 28 30  2  0
 30 31  1  0
 30 32  1  0
 32 33  1  0
 32 34  2  0
 34 35  1  0
 14 36  1  0
 36 37  2  0
 37 38  1  0
  6 39  1  0
 39 40  1  0
 39 41  2  0
 41 42  1  0
 41  2  1  0
 37  7  1  0
 36  9  1  0
 34 25  1  0
M  END
>  <cnnaffinity>  (1) 
-5.25983

>  <filename>  (1) 
O=C(NCCc1ccccc1)n1ccn2nc(-c3cccnc3)cc12

$$$$
