
     RDKit          3D

 36 39  0  0  0  0  0  0  0  0999 V2000
    4.9204    1.7760   17.0010 H   0  0  0  0  0  0  0  0  0  0  0  0
    5.4052    1.2886   17.8430 C   0  0  0  0  0  0  0  0  0  0  0  0
    6.5704    0.6723   17.5863 N   0  0  0  0  0  0  0  0  0  0  0  0
    7.1672    0.0458   18.6030 C   0  0  0  0  0  0  0  0  0  0  0  0
    8.1172   -0.4355   18.3759 H   0  0  0  0  0  0  0  0  0  0  0  0
    6.6473    0.0211   19.9038 C   0  0  0  0  0  0  0  0  0  0  0  0
    7.3846   -0.6569   20.9559 C   0  0  0  0  0  0  0  0  0  0  0  0
    7.7545   -1.9668   20.8096 N   0  0  0  0  0  0  0  0  0  0  0  0
    8.3875   -2.2541   21.9152 C   0  0  0  0  0  0  0  0  0  0  0  0
    9.1617   -3.6438   22.6351 S   0  0  0  0  0  0  0  0  0  0  0  0
    9.6306   -2.6800   24.0175 C   0  0  0  0  0  0  0  0  0  0  0  0
   10.1974   -3.1396   24.8156 H   0  0  0  0  0  0  0  0  0  0  0  0
    9.1931   -1.4142   23.9326 C   0  0  0  0  0  0  0  0  0  0  0  0
    9.2909   -0.6222   24.6646 H   0  0  0  0  0  0  0  0  0  0  0  0
    8.5139   -1.1795   22.7511 N   0  0  0  0  0  0  0  0  0  0  0  0
    7.8767   -0.1227   22.1272 C   0  0  0  0  0  0  0  0  0  0  0  0
    7.7927    1.2725   22.6140 C   0  0  0  0  0  0  0  0  0  0  0  0
    6.7166    1.8501   22.6499 O   0  0  0  0  0  0  0  0  0  0  0  0
    8.9704    1.8775   23.0345 N   0  0  0  0  0  0  0  0  0  0  0  0
    8.9520    2.8257   24.1631 C   0  0  0  0  0  0  0  0  0  0  0  0
    7.9417    3.2269   24.2764 H   0  0  0  0  0  0  0  0  0  0  0  0
    9.2231    2.3235   25.1045 H   0  0  0  0  0  0  0  0  0  0  0  0
    9.9361    3.9750   23.9380 C   0  0  0  0  0  0  0  0  0  0  0  0
   10.0258    4.5824   24.8432 H   0  0  0  0  0  0  0  0  0  0  0  0
    9.5759    4.6284   23.1286 H   0  0  0  0  0  0  0  0  0  0  0  0
   11.2380    3.5009   23.6278 O   0  0  0  0  0  0  0  0  0  0  0  0
   11.2081    2.7466   22.4270 C   0  0  0  0  0  0  0  0  0  0  0  0
   12.2355    2.4583   22.1912 H   0  0  0  0  0  0  0  0  0  0  0  0
   10.8535    3.3776   21.6072 H   0  0  0  0  0  0  0  0  0  0  0  0
   10.3116    1.5043   22.5482 C   0  0  0  0  0  0  0  0  0  0  0  0
   10.8136    0.7980   23.2214 H   0  0  0  0  0  0  0  0  0  0  0  0
   10.2289    1.0311   21.5645 H   0  0  0  0  0  0  0  0  0  0  0  0
    5.4274    0.6580   20.1597 C   0  0  0  0  0  0  0  0  0  0  0  0
    5.0092    0.6506   21.1686 H   0  0  0  0  0  0  0  0  0  0  0  0
    4.7996    1.3085   19.1031 C   0  0  0  0  0  0  0  0  0  0  0  0
    3.8722    1.8444   19.2595 H   0  0  0  0  0  0  0  0  0  0  0  0
  1  2  1  0
  2  3  2  0
  3  4  1  0
  4  5  1  0
  4  6  2  0
  6  7  1  0
  7  8  1  0
  8  9  2  0
  9 10  1  0
 10 11  1  0
 11 12  1  0
 11 13  2  0
 13 14  1  0
 13 15  1  0
 15 16  1  0
 16 17  1  0
 17 18  2  0
 17 19  1  0
 19 20  1  0
 20 21  1  0
 20 22  1  0
 20 23  1  0
 23 24  1  0
 23 25  1  0
 23 26  1  0
 26 27  1  0
 27 28  1  0
 27 29  1  0
 27 30  1  0
 30 31  1  0
 30 32  1  0
  6 33  1  0
 33 34  1  0
 33 35  2  0
 35 36  1  0
 35  2  1  0
 16  7  2  0
 30 19  1  0
 15  9  1  0
M  END
>  <cnnaffinity>  (1) 
-5.63884

>  <filename>  (1) 
O=C(c1c(-c2cccnc2)nc2sccn12)N1CCOCC1

$$$$
