
     RDKit          3D

 38 40  0  0  0  0  0  0  0  0999 V2000
    4.9743    1.7894   17.0247 H   0  0  0  0  0  0  0  0  0  0  0  0
    5.4316    1.3270   17.8956 C   0  0  0  0  0  0  0  0  0  0  0  0
    6.6233    0.7442   17.6875 N   0  0  0  0  0  0  0  0  0  0  0  0
    7.2044    0.1572   18.7394 C   0  0  0  0  0  0  0  0  0  0  0  0
    8.1793   -0.2949   18.5548 H   0  0  0  0  0  0  0  0  0  0  0  0
    6.6503    0.1073   20.0372 C   0  0  0  0  0  0  0  0  0  0  0  0
    7.3514   -0.6210   21.1169 C   0  0  0  0  0  0  0  0  0  0  0  0
    7.9920   -1.8279   21.1219 C   0  0  0  0  0  0  0  0  0  0  0  0
    8.0185   -2.5321   20.3188 H   0  0  0  0  0  0  0  0  0  0  0  0
    8.5715   -2.1088   22.3321 N   0  0  0  0  0  0  0  0  0  0  0  0
    8.2713   -1.0880   23.0913 C   0  0  0  0  0  0  0  0  0  0  0  0
    8.5121   -0.9509   24.1422 H   0  0  0  0  0  0  0  0  0  0  0  0
    7.5254   -0.1587   22.4077 N   0  0  0  0  0  0  0  0  0  0  0  0
    6.9339    0.9972   22.9118 N   0  0  0  0  0  0  0  0  0  0  0  0
    7.3388    1.8420   22.5425 H   0  0  0  0  0  0  0  0  0  0  0  0
    6.5473    1.1106   24.2368 C   0  0  0  0  0  0  0  0  0  0  0  0
    6.4088    0.1470   24.9631 O   0  0  0  0  0  0  0  0  0  0  0  0
    6.3830    2.5791   24.6594 C   0  0  0  0  0  0  0  0  0  0  0  0
    5.8038    3.0568   23.8572 H   0  0  0  0  0  0  0  0  0  0  0  0
    7.7716    3.2708   24.7835 C   0  0  0  0  0  0  0  0  0  0  0  0
    8.3338    3.1914   23.8435 H   0  0  0  0  0  0  0  0  0  0  0  0
    7.6185    4.3476   24.9441 H   0  0  0  0  0  0  0  0  0  0  0  0
    8.5835    2.6777   25.9437 C   0  0  0  0  0  0  0  0  0  0  0  0
    9.5349    3.2073   26.0272 H   0  0  0  0  0  0  0  0  0  0  0  0
    8.8314    1.6285   25.7250 H   0  0  0  0  0  0  0  0  0  0  0  0
    7.8131    2.7628   27.2681 C   0  0  0  0  0  0  0  0  0  0  0  0
    8.3682    2.2739   28.0731 H   0  0  0  0  0  0  0  0  0  0  0  0
    7.7191    3.8192   27.5550 H   0  0  0  0  0  0  0  0  0  0  0  0
    6.4225    2.1296   27.1704 C   0  0  0  0  0  0  0  0  0  0  0  0
    6.5334    1.0539   27.0060 H   0  0  0  0  0  0  0  0  0  0  0  0
    5.8777    2.2624   28.1132 H   0  0  0  0  0  0  0  0  0  0  0  0
    5.6157    2.7068   25.9965 C   0  0  0  0  0  0  0  0  0  0  0  0
    5.3973    3.7693   26.1736 H   0  0  0  0  0  0  0  0  0  0  0  0
    4.6420    2.2105   25.9306 H   0  0  0  0  0  0  0  0  0  0  0  0
    5.4124    0.7481   20.2321 C   0  0  0  0  0  0  0  0  0  0  0  0
    4.9764    0.7614   21.2313 H   0  0  0  0  0  0  0  0  0  0  0  0
    4.7887    1.3505   19.1395 C   0  0  0  0  0  0  0  0  0  0  0  0
    3.8289    1.8491   19.2369 H   0  0  0  0  0  0  0  0  0  0  0  0
  1  2  1  0
  2  3  2  0
  3  4  1  0
  4  5  1  0
  4  6  2  0
  6  7  1  0
  7  8  2  0
  8  9  1  0
  8 10  1  0
 10 11  2  0
 11 12  1  0
 11 13  1  0
 13 14  1  0
 14 15  1  0
 14 16  1  0
 16 17  2  0
 16 18  1  0
 18 19  1  0
 18 20  1  0
 20 21  1  0
 20 22  1  0
 20 23  1  0
 23 24  1  0
 23 25  1  0
 23 26  1  0
 26 27  1  0
 26 28  1  0
 26 29  1  0
 29 30  1  0
 29 31  1  0
 29 32  1  0
 32 33  1  0
 32 34  1  0
  6 35  1  0
 35 36  1  0
 35 37  2  0
 37 38  1  0
 37  2  1  0
 13  7  1  0
 32 18  1  0
M  END
>  <cnnaffinity>  (1) 
-5.07672

>  <filename>  (1) 
O=C(Nn1cncc1-c1cccnc1)C1CCCCC1

$$$$
