
     RDKit          3D

 34 36  0  0  0  0  0  0  0  0999 V2000
   12.3655    4.0422   23.2007 H   0  0  0  0  0  0  0  0  0  0  0  0
   11.8492    3.2183   23.2181 O   0  0  0  0  0  0  0  0  0  0  0  0
   12.8577    2.3727   22.9392 C   0  0  0  0  0  0  0  0  0  0  0  0
   13.9686    2.8383   22.8423 O   0  0  0  0  0  0  0  0  0  0  0  0
   12.4748    0.9464   22.7328 C   0  0  0  0  0  0  0  0  0  0  0  0
   13.4833   -0.0225   22.5739 C   0  0  0  0  0  0  0  0  0  0  0  0
   14.5259    0.2700   22.6956 H   0  0  0  0  0  0  0  0  0  0  0  0
   13.1355   -1.3440   22.2814 C   0  0  0  0  0  0  0  0  0  0  0  0
   13.9077   -2.0906   22.1272 H   0  0  0  0  0  0  0  0  0  0  0  0
   11.7922   -1.7368   22.2114 C   0  0  0  0  0  0  0  0  0  0  0  0
   11.5118   -2.7767   22.0771 H   0  0  0  0  0  0  0  0  0  0  0  0
   10.7941   -0.7690   22.3560 C   0  0  0  0  0  0  0  0  0  0  0  0
    9.4003   -1.1001   22.1878 N   0  0  0  0  0  0  0  0  0  0  0  0
    8.6752   -0.4631   21.1863 C   0  0  0  0  0  0  0  0  0  0  0  0
    9.2310    0.2891   20.6317 H   0  0  0  0  0  0  0  0  0  0  0  0
    7.3764   -0.7289   20.9175 C   0  0  0  0  0  0  0  0  0  0  0  0
    6.6510    0.0052   19.8262 C   0  0  0  0  0  0  0  0  0  0  0  0
    7.1689    0.1162   18.5074 C   0  0  0  0  0  0  0  0  0  0  0  0
    8.1145   -0.3589   18.2450 H   0  0  0  0  0  0  0  0  0  0  0  0
    6.5612    0.7506   17.4954 N   0  0  0  0  0  0  0  0  0  0  0  0
    5.3929    1.3534   17.7657 C   0  0  0  0  0  0  0  0  0  0  0  0
    4.9149    1.8639   16.9301 H   0  0  0  0  0  0  0  0  0  0  0  0
    4.7970    1.3320   19.0285 C   0  0  0  0  0  0  0  0  0  0  0  0
    3.8629    1.8557   19.1774 H   0  0  0  0  0  0  0  0  0  0  0  0
    5.4222    0.6424   20.0721 C   0  0  0  0  0  0  0  0  0  0  0  0
    4.9889    0.6110   21.0735 H   0  0  0  0  0  0  0  0  0  0  0  0
    6.7217   -1.7877   21.7441 C   0  0  0  0  0  0  0  0  0  0  0  0
    5.6564   -2.3369   21.5652 O   0  0  0  0  0  0  0  0  0  0  0  0
    7.4694   -2.2053   22.8257 N   0  0  0  0  0  0  0  0  0  0  0  0
    7.0730   -2.9540   23.3565 H   0  0  0  0  0  0  0  0  0  0  0  0
    8.7982   -2.0366   23.0402 C   0  0  0  0  0  0  0  0  0  0  0  0
    9.3592   -2.6655   23.9079 O   0  0  0  0  0  0  0  0  0  0  0  0
   11.1280    0.5637   22.5974 C   0  0  0  0  0  0  0  0  0  0  0  0
   10.3159    1.2801   22.6881 H   0  0  0  0  0  0  0  0  0  0  0  0
  1  2  1  0
  2  3  1  0
  3  4  2  0
  3  5  1  0
  5  6  2  0
  6  7  1  0
  6  8  1  0
  8  9  1  0
  8 10  2  0
 10 11  1  0
 10 12  1  0
 12 13  1  0
 13 14  1  0
 14 15  1  0
 14 16  2  0
 16 17  1  0
 17 18  2  0
 18 19  1  0
 18 20  1  0
 20 21  2  0
 21 22  1  0
 21 23  1  0
 23 24  1  0
 23 25  2  0
 25 26  1  0
 16 27  1  0
 27 28  2  0
 27 29  1  0
 29 30  1  0
 29 31  1  0
 31 32  2  0
 12 33  2  0
 33 34  1  0
 33  5  1  0
 31 13  1  0
 25 17  1  0
M  END
>  <cnnaffinity>  (1) 
-5.45883

>  <filename>  (1) 
O=C(O)c1cccc(-n2cc(-c3cccnc3)c(=O)[nH]c2=O)c1

$$$$
