
     RDKit          3D

 32 33  0  0  0  0  0  0  0  0999 V2000
    4.9755    1.8214   16.9054 H   0  0  0  0  0  0  0  0  0  0  0  0
    5.4072    1.2849   17.7509 C   0  0  0  0  0  0  0  0  0  0  0  0
    6.5222    0.5828   17.5005 N   0  0  0  0  0  0  0  0  0  0  0  0
    7.0859   -0.0712   18.5174 C   0  0  0  0  0  0  0  0  0  0  0  0
    7.9879   -0.6383   18.2938 H   0  0  0  0  0  0  0  0  0  0  0  0
    6.5857   -0.0370   19.8255 C   0  0  0  0  0  0  0  0  0  0  0  0
    7.4213   -0.6333   20.9319 C   0  0  0  0  0  0  0  0  0  0  0  0
    6.6112   -0.9879   21.9793 F   0  0  0  0  0  0  0  0  0  0  0  0
    8.0165   -1.7737   20.5044 F   0  0  0  0  0  0  0  0  0  0  0  0
    8.5482    0.3561   21.4610 C   0  0  0  0  0  0  0  0  0  0  0  0
    9.6909    0.2841   21.0387 O   0  0  0  0  0  0  0  0  0  0  0  0
    8.1722    1.3259   22.3399 N   0  0  0  0  0  0  0  0  0  0  0  0
    7.2873    1.3400   22.8120 H   0  0  0  0  0  0  0  0  0  0  0  0
    8.9213    2.3835   22.8601 C   0  0  0  0  0  0  0  0  0  0  0  0
    8.4038    2.9978   23.7711 O   0  0  0  0  0  0  0  0  0  0  0  0
   10.1100    2.5807   22.2630 N   0  0  0  0  0  0  0  0  0  0  0  0
   10.4091    1.7798   21.7224 H   0  0  0  0  0  0  0  0  0  0  0  0
   11.0163    3.6232   22.4856 C   0  0  0  0  0  0  0  0  0  0  0  0
   12.2804    3.4971   21.9002 C   0  0  0  0  0  0  0  0  0  0  0  0
   12.4876    2.5959   21.3320 H   0  0  0  0  0  0  0  0  0  0  0  0
   13.2184    4.5254   22.0198 C   0  0  0  0  0  0  0  0  0  0  0  0
   14.1922    4.4231   21.5452 H   0  0  0  0  0  0  0  0  0  0  0  0
   12.8914    5.6883   22.7274 C   0  0  0  0  0  0  0  0  0  0  0  0
   13.6109    6.5002   22.7797 H   0  0  0  0  0  0  0  0  0  0  0  0
   11.6302    5.8043   23.3280 C   0  0  0  0  0  0  0  0  0  0  0  0
   11.3625    6.6945   23.8944 H   0  0  0  0  0  0  0  0  0  0  0  0
   10.6920    4.7721   23.2182 C   0  0  0  0  0  0  0  0  0  0  0  0
    9.7168    4.8334   23.6798 H   0  0  0  0  0  0  0  0  0  0  0  0
    5.3925    0.6527   20.0722 C   0  0  0  0  0  0  0  0  0  0  0  0
    4.9306    0.6474   21.0605 H   0  0  0  0  0  0  0  0  0  0  0  0
    4.7999    1.3312   19.0089 C   0  0  0  0  0  0  0  0  0  0  0  0
    3.8860    1.8954   19.1411 H   0  0  0  0  0  0  0  0  0  0  0  0
  1  2  1  0
  2  3  2  0
  3  4  1  0
  4  5  1  0
  4  6  2  0
  6  7  1  0
  7  8  1  0
  7  9  1  0
  7 10  1  0
 10 11  2  0
 10 12  1  0
 12 13  1  0
 12 14  1  0
 14 15  2  0
 14 16  1  0
 16 17  1  0
 16 18  1  0
 18 19  2  0
 19 20  1  0
 19 21  1  0
 21 22  1  0
 21 23  2  0
 23 24  1  0
 23 25  1  0
 25 26  1  0
 25 27  2  0
 27 28  1  0
  6 29  1  0
 29 30  1  0
 29 31  2  0
 31 32  1  0
 31  2  1  0
 27 18  1  0
M  END
>  <cnnaffinity>  (1) 
-4.62947

>  <filename>  (1) 
O=C(NC(=O)C(F)(F)c1cccnc1)Nc1ccccc1

$$$$
