
     RDKit          3D

 36 38  0  0  0  0  0  0  0  0999 V2000
   10.4620    6.0792   23.2298 H   0  0  0  0  0  0  0  0  0  0  0  0
    9.5683    5.7633   23.0156 O   0  0  0  0  0  0  0  0  0  0  0  0
    9.7297    4.4180   22.6768 N   0  0  0  0  0  0  0  0  0  0  0  0
    9.2670    4.2390   21.7886 H   0  0  0  0  0  0  0  0  0  0  0  0
    9.5512    3.4173   23.6303 C   0  0  0  0  0  0  0  0  0  0  0  0
    9.6385    3.5815   24.8295 O   0  0  0  0  0  0  0  0  0  0  0  0
    9.4064    2.0599   22.9681 C   0  0  0  0  0  0  0  0  0  0  0  0
    8.7388    2.1186   22.0968 H   0  0  0  0  0  0  0  0  0  0  0  0
    8.9414    1.3919   23.6962 H   0  0  0  0  0  0  0  0  0  0  0  0
   10.7914    1.5163   22.5584 C   0  0  0  0  0  0  0  0  0  0  0  0
   11.4640    1.5492   23.4263 H   0  0  0  0  0  0  0  0  0  0  0  0
   11.2362    2.1852   21.8102 H   0  0  0  0  0  0  0  0  0  0  0  0
   10.7868    0.0936   21.9756 C   0  0  1  0  0  0  0  0  0  0  0  0
   11.8189   -0.1474   21.7044 H   0  0  0  0  0  0  0  0  0  0  0  0
   10.2446   -0.9806   22.9734 C   0  0  0  0  0  0  0  0  0  0  0  0
   10.7682   -1.9347   22.8511 H   0  0  0  0  0  0  0  0  0  0  0  0
   10.3621   -0.6783   24.0182 H   0  0  0  0  0  0  0  0  0  0  0  0
    8.8110   -1.1256   22.5394 C   0  0  0  0  0  0  0  0  0  0  0  0
    7.7027   -1.5891   23.0800 N   0  0  0  0  0  0  0  0  0  0  0  0
    6.7504   -1.2683   22.1552 N   0  0  0  0  0  0  0  0  0  0  0  0
    5.7868   -1.4785   22.3776 H   0  0  0  0  0  0  0  0  0  0  0  0
    7.2532   -0.6426   21.0368 C   0  0  0  0  0  0  0  0  0  0  0  0
    6.5085   -0.0134   19.9222 C   0  0  0  0  0  0  0  0  0  0  0  0
    7.0795    0.0337   18.6285 C   0  0  0  0  0  0  0  0  0  0  0  0
    8.0210   -0.4753   18.4235 H   0  0  0  0  0  0  0  0  0  0  0  0
    6.5358    0.6605   17.5744 N   0  0  0  0  0  0  0  0  0  0  0  0
    5.3810    1.3118   17.7816 C   0  0  0  0  0  0  0  0  0  0  0  0
    4.9712    1.8467   16.9255 H   0  0  0  0  0  0  0  0  0  0  0  0
    4.7269    1.3379   19.0196 C   0  0  0  0  0  0  0  0  0  0  0  0
    3.8094    1.9069   19.1229 H   0  0  0  0  0  0  0  0  0  0  0  0
    5.2886    0.6649   20.1043 C   0  0  0  0  0  0  0  0  0  0  0  0
    4.8165    0.7042   21.0901 H   0  0  0  0  0  0  0  0  0  0  0  0
    8.6033   -0.5698   21.2793 C   0  0  0  0  0  0  0  0  0  0  0  0
    9.8675   -0.0146   20.7264 C   0  0  0  0  0  0  0  0  0  0  0  0
    9.7317    0.9408   20.2093 H   0  0  0  0  0  0  0  0  0  0  0  0
   10.3153   -0.7091   20.0152 H   0  0  0  0  0  0  0  0  0  0  0  0
  1  2  1  0
  2  3  1  0
  3  4  1  0
  3  5  1  0
  5  6  2  0
  5  7  1  0
  7  8  1  0
  7  9  1  0
  7 10  1  0
 10 11  1  0
 10 12  1  0
 10 13  1  0
 13 14  1  6
 13 15  1  0
 15 16  1  0
 15 17  1  0
 15 18  1  0
 18 19  2  0
 19 20  1  0
 20 21  1  0
 20 22  1  0
 22 23  1  0
 23 24  2  0
 24 25  1  0
 24 26  1  0
 26 27  2  0
 27 28  1  0
 27 29  1  0
 29 30  1  0
 29 31  2  0
 31 32  1  0
 22 33  2  0
 33 34  1  0
 34 35  1  0
 34 36  1  0
 34 13  1  0
 33 18  1  0
 31 23  1  0
M  END
>  <cnnaffinity>  (1) 
-5.15097

>  <filename>  (1) 
O=C(CC[C@H]1Cc2n[nH]c(-c3cccnc3)c2C1)NO

$$$$
