
     RDKit          3D

 29 31  0  0  0  0  0  0  0  0999 V2000
    4.9578    1.8171   16.9596 H   0  0  0  0  0  0  0  0  0  0  0  0
    5.4277    1.3175   17.8043 C   0  0  0  0  0  0  0  0  0  0  0  0
    6.6167    0.7348   17.5617 N   0  0  0  0  0  0  0  0  0  0  0  0
    7.2063    0.1105   18.5821 C   0  0  0  0  0  0  0  0  0  0  0  0
    8.1878   -0.3293   18.4234 H   0  0  0  0  0  0  0  0  0  0  0  0
    6.6238   -0.0168   19.8541 C   0  0  0  0  0  0  0  0  0  0  0  0
    7.3396   -0.7425   20.8552 N   0  0  0  0  0  0  0  0  0  0  0  0
    8.6616   -0.4238   20.9117 N   0  0  0  0  0  0  0  0  0  0  0  0
    9.3734   -0.9391   21.8750 C   0  0  0  0  0  0  0  0  0  0  0  0
   10.8178   -0.4640   21.9524 C   0  0  0  0  0  0  0  0  0  0  0  0
   11.5431   -0.4027   20.9791 O   0  0  0  0  0  0  0  0  0  0  0  0
   11.3069   -0.0945   23.3057 C   0  0  0  0  0  0  0  0  0  0  0  0
   12.9808    0.2988   23.4820 S   0  0  0  0  0  0  0  0  0  0  0  0
   12.8128    0.3850   25.1839 C   0  0  0  0  0  0  0  0  0  0  0  0
   13.6871    0.5379   25.7927 H   0  0  0  0  0  0  0  0  0  0  0  0
   11.5333    0.1546   25.6010 C   0  0  0  0  0  0  0  0  0  0  0  0
   11.1906    0.1663   26.6380 H   0  0  0  0  0  0  0  0  0  0  0  0
   10.6545   -0.0799   24.5173 C   0  0  0  0  0  0  0  0  0  0  0  0
    9.5889   -0.2406   24.6678 H   0  0  0  0  0  0  0  0  0  0  0  0
    8.8488   -1.9286   22.7766 C   0  0  0  0  0  0  0  0  0  0  0  0
    9.5043   -2.3829   23.5165 H   0  0  0  0  0  0  0  0  0  0  0  0
    7.5501   -2.3203   22.6555 C   0  0  0  0  0  0  0  0  0  0  0  0
    7.0751   -3.0337   23.3134 H   0  0  0  0  0  0  0  0  0  0  0  0
    6.6799   -1.7713   21.6285 C   0  0  0  0  0  0  0  0  0  0  0  0
    5.5368   -2.1269   21.4126 O   0  0  0  0  0  0  0  0  0  0  0  0
    5.4101    0.6172   20.1183 C   0  0  0  0  0  0  0  0  0  0  0  0
    4.9713    0.5826   21.1149 H   0  0  0  0  0  0  0  0  0  0  0  0
    4.8072    1.3057   19.0587 C   0  0  0  0  0  0  0  0  0  0  0  0
    3.8717    1.8371   19.1985 H   0  0  0  0  0  0  0  0  0  0  0  0
  1  2  1  0
  2  3  2  0
  3  4  1  0
  4  5  1  0
  4  6  2  0
  6  7  1  0
  7  8  1  0
  8  9  2  0
  9 10  1  0
 10 11  2  0
 10 12  1  0
 12 13  1  0
 13 14  1  0
 14 15  1  0
 14 16  2  0
 16 17  1  0
 16 18  1  0
 18 19  1  0
  9 20  1  0
 20 21  1  0
 20 22  2  0
 22 23  1  0
 22 24  1  0
 24 25  2  0
  6 26  1  0
 26 27  1  0
 26 28  2  0
 28 29  1  0
 28  2  1  0
 24  7  1  0
 18 12  2  0
M  END
>  <cnnaffinity>  (1) 
-5.1123

>  <filename>  (1) 
O=C(c1ccc(=O)n(-c2cccnc2)n1)c1cccs1

$$$$
