
     RDKit          3D

 38 39  0  0  0  0  0  0  0  0999 V2000
    5.3327    1.6557   16.9976 H   0  0  0  0  0  0  0  0  0  0  0  0
    5.7177    1.1994   17.9093 C   0  0  0  0  0  0  0  0  0  0  0  0
    6.8602    0.5047   17.7882 N   0  0  0  0  0  0  0  0  0  0  0  0
    7.3538   -0.0660   18.8798 C   0  0  0  0  0  0  0  0  0  0  0  0
    8.2817   -0.6264   18.7603 H   0  0  0  0  0  0  0  0  0  0  0  0
    6.7206    0.0374   20.1100 C   0  0  0  0  0  0  0  0  0  0  0  0
    7.5641   -0.8012   21.3466 S   0  0  0  0  0  0  0  0  0  0  0  0
    7.8078   -2.1430   20.8906 O   0  0  0  0  0  0  0  0  0  0  0  0
    6.9690   -0.4586   22.6163 O   0  0  0  0  0  0  0  0  0  0  0  0
    9.0005    0.0374   21.2130 N   0  0  0  0  0  0  0  0  0  0  0  0
    8.8203    1.0303   21.2462 H   0  0  0  0  0  0  0  0  0  0  0  0
    9.7070   -0.2965   22.3392 C   0  0  0  0  0  0  0  0  0  0  0  0
    9.9038   -1.3984   22.7728 O   0  0  0  0  0  0  0  0  0  0  0  0
   10.1549    0.7856   23.0570 N   0  0  0  0  0  0  0  0  0  0  0  0
   10.6414    0.3743   23.8303 H   0  0  0  0  0  0  0  0  0  0  0  0
   10.7022    1.9173   22.4965 C   0  0  0  0  0  0  0  0  0  0  0  0
   10.3691    2.2704   21.3810 O   0  0  0  0  0  0  0  0  0  0  0  0
   11.6859    2.6729   23.4069 C   0  0  0  0  0  0  0  0  0  0  0  0
   12.0934    1.9370   24.1099 H   0  0  0  0  0  0  0  0  0  0  0  0
   10.9692    3.7654   24.2228 C   0  0  0  0  0  0  0  0  0  0  0  0
   11.7119    4.2032   24.9063 H   0  0  0  0  0  0  0  0  0  0  0  0
   10.1565    3.3370   24.8184 H   0  0  0  0  0  0  0  0  0  0  0  0
   10.4500    4.8747   23.3150 C   0  0  0  0  0  0  0  0  0  0  0  0
    9.9007    5.6204   23.9035 H   0  0  0  0  0  0  0  0  0  0  0  0
    9.7438    4.4512   22.5885 H   0  0  0  0  0  0  0  0  0  0  0  0
   11.6088    5.5447   22.5668 C   0  0  0  0  0  0  0  0  0  0  0  0
   11.1668    6.2420   21.8486 H   0  0  0  0  0  0  0  0  0  0  0  0
   12.2149    6.1275   23.2803 H   0  0  0  0  0  0  0  0  0  0  0  0
   12.5076    4.5423   21.8152 C   0  0  0  0  0  0  0  0  0  0  0  0
   13.4277    5.0413   21.4840 H   0  0  0  0  0  0  0  0  0  0  0  0
   12.0070    4.2131   20.9034 H   0  0  0  0  0  0  0  0  0  0  0  0
   12.8741    3.2946   22.6409 C   0  0  0  0  0  0  0  0  0  0  0  0
   13.3070    2.5266   21.9966 H   0  0  0  0  0  0  0  0  0  0  0  0
   13.6508    3.5616   23.3721 H   0  0  0  0  0  0  0  0  0  0  0  0
    5.5126    0.7228   20.2676 C   0  0  0  0  0  0  0  0  0  0  0  0
    4.9792    0.7642   21.2235 H   0  0  0  0  0  0  0  0  0  0  0  0
    5.0184    1.3311   19.1159 C   0  0  0  0  0  0  0  0  0  0  0  0
    4.0990    1.9058   19.1320 H   0  0  0  0  0  0  0  0  0  0  0  0
  1  2  1  0
  2  3  2  0
  3  4  1  0
  4  5  1  0
  4  6  2  0
  6  7  1  0
  7  8  2  0
  7  9  2  0
  7 10  1  0
 10 11  1  0
 10 12  1  0
 12 13  2  0
 12 14  1  0
 14 15  1  0
 14 16  1  0
 16 17  2  0
 16 18  1  0
 18 19  1  0
 18 20  1  0
 20 21  1  0
 20 22  1  0
 20 23  1  0
 23 24  1  0
 23 25  1  0
 23 26  1  0
 26 27  1  0
 26 28  1  0
 26 29  1  0
 29 30  1  0
 29 31  1  0
 29 32  1  0
 32 33  1  0
 32 34  1  0
  6 35  1  0
 35 36  1  0
 35 37  2  0
 37 38  1  0
 37  2  1  0
 32 18  1  0
M  END
>  <cnnaffinity>  (1) 
-5.15363

>  <filename>  (1) 
O=C(NC(=O)C1CCCCC1)NS(=O)(=O)c1cccnc1

$$$$
