
     RDKit          3D

 38 40  0  0  0  0  0  0  0  0999 V2000
    5.1228    1.8064   16.9959 H   0  0  0  0  0  0  0  0  0  0  0  0
    5.5617    1.2088   17.7938 C   0  0  0  0  0  0  0  0  0  0  0  0
    6.6736    0.5217   17.4898 N   0  0  0  0  0  0  0  0  0  0  0  0
    7.2425   -0.1905   18.4747 C   0  0  0  0  0  0  0  0  0  0  0  0
    8.1513   -0.7245   18.2005 H   0  0  0  0  0  0  0  0  0  0  0  0
    6.7589   -0.2487   19.7909 C   0  0  0  0  0  0  0  0  0  0  0  0
    7.5293   -0.9573   20.8665 C   0  0  0  0  0  0  0  0  0  0  0  0
    7.3961   -2.3897   20.9153 N   0  0  0  0  0  0  0  0  0  0  0  0
    8.2248   -2.9432   20.8384 H   0  0  0  0  0  0  0  0  0  0  0  0
    6.2152   -2.9611   21.2911 C   0  0  0  0  0  0  0  0  0  0  0  0
    5.2328   -2.2951   21.5322 O   0  0  0  0  0  0  0  0  0  0  0  0
    6.1641   -4.4774   21.4057 C   0  0  0  0  0  0  0  0  0  0  0  0
    5.0978   -4.7189   21.3525 H   0  0  0  0  0  0  0  0  0  0  0  0
    6.6457   -4.9298   20.5328 H   0  0  0  0  0  0  0  0  0  0  0  0
    6.7686   -4.9824   22.7007 C   0  0  0  0  0  0  0  0  0  0  0  0
    7.9390   -5.7519   22.6822 C   0  0  0  0  0  0  0  0  0  0  0  0
    8.3309   -6.0694   21.7215 H   0  0  0  0  0  0  0  0  0  0  0  0
    8.5836   -6.1071   23.8679 C   0  0  0  0  0  0  0  0  0  0  0  0
    9.4922   -6.7056   23.8616 H   0  0  0  0  0  0  0  0  0  0  0  0
    8.0373   -5.7099   25.0977 C   0  0  0  0  0  0  0  0  0  0  0  0
    8.8141   -5.9999   26.3578 C   0  0  0  0  0  0  0  0  0  0  0  0
    8.0477   -5.9801   27.4636 F   0  0  0  0  0  0  0  0  0  0  0  0
    9.8083   -5.1063   26.5464 F   0  0  0  0  0  0  0  0  0  0  0  0
    9.3886   -7.2139   26.2682 F   0  0  0  0  0  0  0  0  0  0  0  0
    6.8230   -5.0093   25.1312 C   0  0  0  0  0  0  0  0  0  0  0  0
    6.3735   -4.7503   26.0870 H   0  0  0  0  0  0  0  0  0  0  0  0
    6.1976   -4.6393   23.9377 C   0  0  0  0  0  0  0  0  0  0  0  0
    5.2820   -4.0514   23.9613 H   0  0  0  0  0  0  0  0  0  0  0  0
    7.6921   -0.2822   22.2037 C   0  0  0  0  0  0  0  0  0  0  0  0
    7.2318    0.6950   22.3467 H   0  0  0  0  0  0  0  0  0  0  0  0
    7.6454   -0.9394   23.0657 H   0  0  0  0  0  0  0  0  0  0  0  0
    8.8680   -0.4179   21.2732 C   0  0  0  0  0  0  0  0  0  0  0  0
    9.6473   -1.1341   21.5249 H   0  0  0  0  0  0  0  0  0  0  0  0
    9.2208    0.4817   20.7748 H   0  0  0  0  0  0  0  0  0  0  0  0
    5.5524    0.4158   20.0610 C   0  0  0  0  0  0  0  0  0  0  0  0
    5.1051    0.3183   21.0517 H   0  0  0  0  0  0  0  0  0  0  0  0
    4.9519    1.1693   19.0533 C   0  0  0  0  0  0  0  0  0  0  0  0
    4.0428    1.7351   19.2356 H   0  0  0  0  0  0  0  0  0  0  0  0
  1  2  1  0
  2  3  2  0
  3  4  1  0
  4  5  1  0
  4  6  2  0
  6  7  1  0
  7  8  1  0
  8  9  1  0
  8 10  1  0
 10 11  2  0
 10 12  1  0
 12 13  1  0
 12 14  1  0
 12 15  1  0
 15 16  2  0
 16 17  1  0
 16 18  1  0
 18 19  1  0
 18 20  2  0
 20 21  1  0
 21 22  1  0
 21 23  1  0
 21 24  1  0
 20 25  1  0
 25 26  1  0
 25 27  2  0
 27 28  1  0
  7 29  1  0
 29 30  1  0
 29 31  1  0
 29 32  1  0
 32 33  1  0
 32 34  1  0
  6 35  1  0
 35 36  1  0
 35 37  2  0
 37 38  1  0
 37  2  1  0
 32  7  1  0
 27 15  1  0
M  END
>  <cnnaffinity>  (1) 
-4.21487

>  <filename>  (1) 
O=C(Cc1ccc(C(F)(F)F)cc1)NC1(c2cccnc2)CC1

$$$$
