
     RDKit          3D

 30 33  0  0  0  0  0  0  0  0999 V2000
    4.9332    1.7849   16.9913 H   0  0  0  0  0  0  0  0  0  0  0  0
    5.4008    1.2887   17.8363 C   0  0  0  0  0  0  0  0  0  0  0  0
    6.5630    0.6682   17.5866 N   0  0  0  0  0  0  0  0  0  0  0  0
    7.1592    0.0395   18.6016 C   0  0  0  0  0  0  0  0  0  0  0  0
    8.1115   -0.4369   18.3697 H   0  0  0  0  0  0  0  0  0  0  0  0
    6.6406    0.0144   19.9043 C   0  0  0  0  0  0  0  0  0  0  0  0
    7.3742   -0.6821   20.9500 C   0  0  0  0  0  0  0  0  0  0  0  0
    7.6964   -2.0064   20.8222 N   0  0  0  0  0  0  0  0  0  0  0  0
    8.3171   -2.3003   21.9319 C   0  0  0  0  0  0  0  0  0  0  0  0
    8.9869   -3.7226   22.6822 S   0  0  0  0  0  0  0  0  0  0  0  0
    9.4955   -2.7742   24.0638 C   0  0  0  0  0  0  0  0  0  0  0  0
   10.0256   -3.2574   24.8724 H   0  0  0  0  0  0  0  0  0  0  0  0
    9.1386   -1.4817   23.9545 C   0  0  0  0  0  0  0  0  0  0  0  0
    9.2758   -0.6792   24.6632 H   0  0  0  0  0  0  0  0  0  0  0  0
    8.4958   -1.2193   22.7557 N   0  0  0  0  0  0  0  0  0  0  0  0
    7.8817   -0.1551   22.1301 C   0  0  0  0  0  0  0  0  0  0  0  0
    7.8608    1.2404   22.5661 C   0  0  0  0  0  0  0  0  0  0  0  0
    6.8531    1.9143   22.4096 O   0  0  0  0  0  0  0  0  0  0  0  0
    9.0589    1.8714   23.1950 C   0  0  0  0  0  0  0  0  0  0  0  0
   10.2851    1.2617   23.1881 O   0  0  0  0  0  0  0  0  0  0  0  0
   11.1490    2.1046   23.8157 C   0  0  0  0  0  0  0  0  0  0  0  0
   12.1704    1.7584   23.8858 H   0  0  0  0  0  0  0  0  0  0  0  0
   10.5006    3.2228   24.2303 C   0  0  0  0  0  0  0  0  0  0  0  0
   10.9314    4.0749   24.7332 H   0  0  0  0  0  0  0  0  0  0  0  0
    9.1401    3.0723   23.8301 C   0  0  0  0  0  0  0  0  0  0  0  0
    8.2993    3.7419   23.9571 H   0  0  0  0  0  0  0  0  0  0  0  0
    5.4171    0.6531   20.1516 C   0  0  0  0  0  0  0  0  0  0  0  0
    5.0022    0.6602   21.1612 H   0  0  0  0  0  0  0  0  0  0  0  0
    4.7932    1.3049   19.0925 C   0  0  0  0  0  0  0  0  0  0  0  0
    3.8713    1.8443   19.2486 H   0  0  0  0  0  0  0  0  0  0  0  0
  1  2  1  0
  2  3  2  0
  3  4  1  0
  4  5  1  0
  4  6  2  0
  6  7  1  0
  7  8  1  0
  8  9  2  0
  9 10  1  0
 10 11  1  0
 11 12  1  0
 11 13  2  0
 13 14  1  0
 13 15  1  0
 15 16  1  0
 16 17  1  0
 17 18  2  0
 17 19  1  0
 19 20  1  0
 20 21  1  0
 21 22  1  0
 21 23  2  0
 23 24  1  0
 23 25  1  0
 25 26  1  0
  6 27  1  0
 27 28  1  0
 27 29  2  0
 29 30  1  0
 29  2  1  0
 16  7  2  0
 25 19  2  0
 15  9  1  0
M  END
>  <cnnaffinity>  (1) 
-5.601

>  <filename>  (1) 
O=C(c1ccco1)c1c(-c2cccnc2)nc2sccn12

$$$$
