
     RDKit          3D

 38 41  0  0  0  0  0  0  0  0999 V2000
    5.4654    2.1509   16.7654 H   0  0  0  0  0  0  0  0  0  0  0  0
    5.9669    1.5991   17.5590 C   0  0  0  0  0  0  0  0  0  0  0  0
    7.1584    1.0644   17.2490 N   0  0  0  0  0  0  0  0  0  0  0  0
    7.8010    0.3645   18.1880 C   0  0  0  0  0  0  0  0  0  0  0  0
    8.7656   -0.0572   17.9014 H   0  0  0  0  0  0  0  0  0  0  0  0
    7.2749    0.1270   19.4700 C   0  0  0  0  0  0  0  0  0  0  0  0
    7.9343   -0.7492   20.3561 N   0  0  0  0  0  0  0  0  0  0  0  0
    9.3107   -0.8390   20.5765 C   0  0  0  0  0  0  0  0  0  0  0  0
    9.9683   -0.0683   20.2157 H   0  0  0  0  0  0  0  0  0  0  0  0
    9.5691   -1.9457   21.3222 C   0  0  0  0  0  0  0  0  0  0  0  0
   10.4513   -2.3800   21.7521 H   0  0  0  0  0  0  0  0  0  0  0  0
    8.3482   -2.5443   21.5390 N   0  0  0  0  0  0  0  0  0  0  0  0
    7.9501   -3.6133   22.2646 N   0  0  0  0  0  0  0  0  0  0  0  0
    6.6322   -3.4976   22.1968 C   0  0  0  0  0  0  0  0  0  0  0  0
    5.7608   -4.3953   22.8039 N   0  0  0  0  0  0  0  0  0  0  0  0
    4.8153   -4.0897   22.6735 H   0  0  0  0  0  0  0  0  0  0  0  0
    6.0231   -4.8384   24.0878 C   0  0  0  0  0  0  0  0  0  0  0  0
    7.1139   -4.8864   24.5927 O   0  0  0  0  0  0  0  0  0  0  0  0
    4.8238   -5.2287   24.6913 N   0  0  0  0  0  0  0  0  0  0  0  0
    4.0877   -5.4073   24.0280 H   0  0  0  0  0  0  0  0  0  0  0  0
    4.7105   -5.5743   26.0378 C   0  0  0  0  0  0  0  0  0  0  0  0
    5.4627   -4.9784   26.9946 C   0  0  0  0  0  0  0  0  0  0  0  0
    6.2177   -4.2410   26.7180 H   0  0  0  0  0  0  0  0  0  0  0  0
    5.2476   -5.3868   28.3402 C   0  0  0  0  0  0  0  0  0  0  0  0
    5.8019   -4.9903   29.1764 H   0  0  0  0  0  0  0  0  0  0  0  0
    4.2518   -6.4614   28.4363 C   0  0  0  0  0  0  0  0  0  0  0  0
    4.9414   -7.9826   29.1600 Cl  0  0  0  0  0  0  0  0  0  0  0  0
    3.5168   -6.8565   26.6618 C   0  0  0  0  0  0  0  0  0  0  0  0
    3.8150   -7.9943   26.6638 H   0  0  0  0  0  0  0  0  0  0  0  0
    3.5648   -6.5234   26.7782 C   0  0  0  0  0  0  0  0  0  0  0  0
    2.9050   -6.9534   25.6645 H   0  0  0  0  0  0  0  0  0  0  0  0
    6.1720   -2.4089   21.4417 C   0  0  0  0  0  0  0  0  0  0  0  0
    5.1587   -2.0953   21.3492 H   0  0  0  0  0  0  0  0  0  0  0  0
    7.3433   -1.8119   21.0159 C   0  0  0  0  0  0  0  0  0  0  0  0
    6.0529    0.7296   19.8077 C   0  0  0  0  0  0  0  0  0  0  0  0
    5.6347    0.6040   20.8078 H   0  0  0  0  0  0  0  0  0  0  0  0
    5.3984    1.4876   18.8324 C   0  0  0  0  0  0  0  0  0  0  0  0
    4.4578    1.9862   19.0422 H   0  0  0  0  0  0  0  0  0  0  0  0
  1  2  1  0
  2  3  2  0
  3  4  1  0
  4  5  1  0
  4  6  2  0
  6  7  1  0
  7  8  1  0
  8  9  1  0
  8 10  2  0
 10 11  1  0
 10 12  1  0
 12 13  1  0
 13 14  2  0
 14 15  1  0
 15 16  1  0
 15 17  1  0
 17 18  2  0
 17 19  1  0
 19 20  1  0
 19 21  1  0
 21 22  2  0
 22 23  1  0
 22 24  1  0
 24 25  1  0
 24 26  2  0
 26 27  1  0
 26 28  1  0
 28 29  1  0
 28 30  2  0
 30 31  1  0
 14 32  1  0
 32 33  1  0
 32 34  2  0
  6 35  1  0
 35 36  1  0
 35 37  2  0
 37 38  1  0
 37  2  1  0
 34  7  1  0
 34 12  1  0
 30 21  1  0
M  END
>  <cnnaffinity>  (1) 
-5.35754

>  <filename>  (1) 
O=C(Nc1ccc(Cl)cc1)Nc1cc2n(-c3cccnc3)ccn2n1

$$$$
