
     RDKit          3D

 35 38  0  0  0  0  0  0  0  0999 V2000
    4.9888    1.7833   16.8649 H   0  0  0  0  0  0  0  0  0  0  0  0
    5.4664    1.3261   17.7288 C   0  0  0  0  0  0  0  0  0  0  0  0
    6.6387    0.7128   17.5100 N   0  0  0  0  0  0  0  0  0  0  0  0
    7.2436    0.1240   18.5460 C   0  0  0  0  0  0  0  0  0  0  0  0
    8.1878   -0.3753   18.3307 H   0  0  0  0  0  0  0  0  0  0  0  0
    6.7174    0.1109   19.8503 C   0  0  0  0  0  0  0  0  0  0  0  0
    7.3876   -0.6429   20.9296 C   0  0  0  0  0  0  0  0  0  0  0  0
    8.6124   -1.1729   20.7821 N   0  0  0  0  0  0  0  0  0  0  0  0
    8.7619   -1.8921   21.9178 N   0  0  0  0  0  0  0  0  0  0  0  0
    9.7187   -2.7746   22.4031 C   0  0  0  0  0  0  0  0  0  0  0  0
   10.6840   -2.8544   21.9422 H   0  0  0  0  0  0  0  0  0  0  0  0
    9.1898   -3.3513   23.4967 C   0  0  0  0  0  0  0  0  0  0  0  0
    9.5877   -4.1164   24.1470 H   0  0  0  0  0  0  0  0  0  0  0  0
    7.9232   -2.7911   23.7464 N   0  0  0  0  0  0  0  0  0  0  0  0
    7.0419   -3.2481   24.7618 C   0  0  0  0  0  0  0  0  0  0  0  0
    7.1466   -4.3591   25.2317 O   0  0  0  0  0  0  0  0  0  0  0  0
    6.1359   -2.3110   25.1736 N   0  0  0  0  0  0  0  0  0  0  0  0
    6.0939   -1.4618   24.6399 H   0  0  0  0  0  0  0  0  0  0  0  0
    5.1553   -2.4948   26.1432 C   0  0  0  0  0  0  0  0  0  0  0  0
    3.9874   -1.7415   26.0360 C   0  0  0  0  0  0  0  0  0  0  0  0
    3.8539   -1.0199   25.2383 H   0  0  0  0  0  0  0  0  0  0  0  0
    2.9887   -1.9750   26.9729 C   0  0  0  0  0  0  0  0  0  0  0  0
    2.0465   -1.4314   26.9106 H   0  0  0  0  0  0  0  0  0  0  0  0
    3.1033   -2.8445   27.9830 N   0  0  0  0  0  0  0  0  0  0  0  0
    4.2536   -3.5280   28.0833 C   0  0  0  0  0  0  0  0  0  0  0  0
    4.3294   -4.2242   28.9194 H   0  0  0  0  0  0  0  0  0  0  0  0
    5.3144   -3.3993   27.1957 C   0  0  0  0  0  0  0  0  0  0  0  0
    6.2178   -3.9846   27.2990 H   0  0  0  0  0  0  0  0  0  0  0  0
    7.6954   -1.8539   22.7319 C   0  0  0  0  0  0  0  0  0  0  0  0
    6.7924   -0.9765   22.1723 C   0  0  0  0  0  0  0  0  0  0  0  0
    5.9631   -0.4748   22.6213 H   0  0  0  0  0  0  0  0  0  0  0  0
    5.4902    0.7647   20.0596 C   0  0  0  0  0  0  0  0  0  0  0  0
    5.0424    0.8016   21.0522 H   0  0  0  0  0  0  0  0  0  0  0  0
    4.8545    1.3713   18.9822 C   0  0  0  0  0  0  0  0  0  0  0  0
    3.9060    1.8764   19.1054 H   0  0  0  0  0  0  0  0  0  0  0  0
  1  2  1  0
  2  3  2  0
  3  4  1  0
  4  5  1  0
  4  6  2  0
  6  7  1  0
  7  8  2  0
  8  9  1  0
  9 10  1  0
 10 11  1  0
 10 12  2  0
 12 13  1  0
 12 14  1  0
 14 15  1  0
 15 16  2  0
 15 17  1  0
 17 18  1  0
 17 19  1  0
 19 20  2  0
 20 21  1  0
 20 22  1  0
 22 23  1  0
 22 24  2  0
 24 25  1  0
 25 26  1  0
 25 27  2  0
 27 28  1  0
 14 29  1  0
 29 30  2  0
 30 31  1  0
  6 32  1  0
 32 33  1  0
 32 34  2  0
 34 35  1  0
 34  2  1  0
 30  7  1  0
 29  9  1  0
 27 19  1  0
M  END
>  <cnnaffinity>  (1) 
-5.65407

>  <filename>  (1) 
O=C(Nc1ccncc1)n1ccn2nc(-c3cccnc3)cc12

$$$$
