
     RDKit          3D

 37 39  0  0  0  0  0  0  0  0999 V2000
    5.0017    1.8611   16.9788 H   0  0  0  0  0  0  0  0  0  0  0  0
    5.4556    1.3277   17.8118 C   0  0  0  0  0  0  0  0  0  0  0  0
    6.6213    0.7111   17.5535 N   0  0  0  0  0  0  0  0  0  0  0  0
    7.1987    0.0393   18.5557 C   0  0  0  0  0  0  0  0  0  0  0  0
    8.1648   -0.4222   18.3479 H   0  0  0  0  0  0  0  0  0  0  0  0
    6.6219   -0.1038   19.8334 C   0  0  0  0  0  0  0  0  0  0  0  0
    7.2936   -0.8486   20.8655 N   0  0  0  0  0  0  0  0  0  0  0  0
    8.5320   -0.3642   21.2312 C   0  0  0  0  0  0  0  0  0  0  0  0
    8.8983    0.4864   20.6711 H   0  0  0  0  0  0  0  0  0  0  0  0
    9.2601   -0.9048   22.2554 C   0  0  0  0  0  0  0  0  0  0  0  0
   10.4996   -0.3404   22.6669 N   0  0  0  0  0  0  0  0  0  0  0  0
   11.2853   -0.9682   22.7194 H   0  0  0  0  0  0  0  0  0  0  0  0
   10.8196    0.9824   22.4006 C   0  0  0  0  0  0  0  0  0  0  0  0
    9.9932    1.8472   22.1991 O   0  0  0  0  0  0  0  0  0  0  0  0
   12.1832    1.1852   22.3477 N   0  0  0  0  0  0  0  0  0  0  0  0
   12.7390    0.5270   22.8630 H   0  0  0  0  0  0  0  0  0  0  0  0
   12.6923    2.5008   22.2447 C   0  0  0  0  0  0  0  0  0  0  0  0
   13.5999    2.9859   23.1820 C   0  0  0  0  0  0  0  0  0  0  0  0
   13.9054    2.3242   23.9830 H   0  0  0  0  0  0  0  0  0  0  0  0
   14.0957    4.2934   23.0839 C   0  0  0  0  0  0  0  0  0  0  0  0
   14.8044    4.6749   23.8090 H   0  0  0  0  0  0  0  0  0  0  0  0
   13.6832    5.0908   22.0156 C   0  0  0  0  0  0  0  0  0  0  0  0
   14.3138    6.6956   21.8270 Cl  0  0  0  0  0  0  0  0  0  0  0  0
   12.7519    4.6194   21.0938 C   0  0  0  0  0  0  0  0  0  0  0  0
   12.4117    5.2679   20.3051 H   0  0  0  0  0  0  0  0  0  0  0  0
   12.2495    3.3291   21.2090 C   0  0  0  0  0  0  0  0  0  0  0  0
   11.5027    2.9643   20.5192 H   0  0  0  0  0  0  0  0  0  0  0  0
    8.7295   -2.0371   22.9455 C   0  0  0  0  0  0  0  0  0  0  0  0
    9.3351   -2.4874   23.7344 H   0  0  0  0  0  0  0  0  0  0  0  0
    7.4881   -2.5056   22.6373 C   0  0  0  0  0  0  0  0  0  0  0  0
    7.0160   -3.3202   23.1683 H   0  0  0  0  0  0  0  0  0  0  0  0
    6.6572   -1.9319   21.5807 C   0  0  0  0  0  0  0  0  0  0  0  0
    5.5476   -2.3526   21.3021 O   0  0  0  0  0  0  0  0  0  0  0  0
    5.4338    0.5792   20.1060 C   0  0  0  0  0  0  0  0  0  0  0  0
    5.0158    0.5521   21.1108 H   0  0  0  0  0  0  0  0  0  0  0  0
    4.8387    1.3001   19.0666 C   0  0  0  0  0  0  0  0  0  0  0  0
    3.9180    1.8475   19.2216 H   0  0  0  0  0  0  0  0  0  0  0  0
  1  2  1  0
  2  3  2  0
  3  4  1  0
  4  5  1  0
  4  6  2  0
  6  7  1  0
  7  8  1  0
  8  9  1  0
  8 10  2  0
 10 11  1  0
 11 12  1  0
 11 13  1  0
 13 14  2  0
 13 15  1  0
 15 16  1  0
 15 17  1  0
 17 18  2  0
 18 19  1  0
 18 20  1  0
 20 21  1  0
 20 22  2  0
 22 23  1  0
 22 24  1  0
 24 25  1  0
 24 26  2  0
 26 27  1  0
 10 28  1  0
 28 29  1  0
 28 30  2  0
 30 31  1  0
 30 32  1  0
 32 33  2  0
  6 34  1  0
 34 35  1  0
 34 36  2  0
 36 37  1  0
 36  2  1  0
 32  7  1  0
 26 17  1  0
M  END
>  <cnnaffinity>  (1) 
-5.97065

>  <filename>  (1) 
O=C(Nc1ccc(Cl)cc1)Nc1ccc(=O)n(-c2cccnc2)c1

$$$$
