
     RDKit          3D

 33 35  0  0  0  0  0  0  0  0999 V2000
    5.1647   -6.9868   22.1759 H   0  0  0  0  0  0  0  0  0  0  0  0
    5.8693   -6.6751   22.7674 O   0  0  0  0  0  0  0  0  0  0  0  0
    6.2461   -5.5993   22.0516 C   0  0  0  0  0  0  0  0  0  0  0  0
    5.6521   -5.3792   21.0182 O   0  0  0  0  0  0  0  0  0  0  0  0
    7.3748   -4.8186   22.6502 C   0  0  0  0  0  0  0  0  0  0  0  0
    7.9538   -5.1964   23.8825 C   0  0  0  0  0  0  0  0  0  0  0  0
    7.5843   -6.0674   24.4189 H   0  0  0  0  0  0  0  0  0  0  0  0
    9.0054   -4.4530   24.4197 C   0  0  0  0  0  0  0  0  0  0  0  0
    9.4516   -4.7468   25.3662 H   0  0  0  0  0  0  0  0  0  0  0  0
    9.4908   -3.3304   23.7517 C   0  0  0  0  0  0  0  0  0  0  0  0
   10.2944   -2.7414   24.1826 H   0  0  0  0  0  0  0  0  0  0  0  0
    8.9225   -2.9294   22.5307 C   0  0  0  0  0  0  0  0  0  0  0  0
    9.3986   -1.7249   21.8363 C   0  0  0  0  0  0  0  0  0  0  0  0
    8.7030   -0.7694   21.1047 C   0  0  0  0  0  0  0  0  0  0  0  0
    7.3166   -0.7223   20.9225 N   0  0  0  0  0  0  0  0  0  0  0  0
    6.7731   -1.0735   21.7028 H   0  0  0  0  0  0  0  0  0  0  0  0
    6.6593   -0.0170   19.9059 C   0  0  0  0  0  0  0  0  0  0  0  0
    7.1688    0.0562   18.5832 C   0  0  0  0  0  0  0  0  0  0  0  0
    8.1189   -0.4296   18.3607 H   0  0  0  0  0  0  0  0  0  0  0  0
    6.5587    0.6828   17.5677 N   0  0  0  0  0  0  0  0  0  0  0  0
    5.3942    1.2984   17.8345 C   0  0  0  0  0  0  0  0  0  0  0  0
    4.9172    1.7980   16.9943 H   0  0  0  0  0  0  0  0  0  0  0  0
    4.8084    1.3041   19.1061 C   0  0  0  0  0  0  0  0  0  0  0  0
    3.8771    1.8388   19.2615 H   0  0  0  0  0  0  0  0  0  0  0  0
    5.4429    0.6313   20.1563 C   0  0  0  0  0  0  0  0  0  0  0  0
    5.0266    0.6166   21.1628 H   0  0  0  0  0  0  0  0  0  0  0  0
    9.6943    0.1462   20.6795 C   0  0  0  0  0  0  0  0  0  0  0  0
    9.5504    1.0298   20.0730 H   0  0  0  0  0  0  0  0  0  0  0  0
   10.9013   -0.1970   21.1098 N   0  0  0  0  0  0  0  0  0  0  0  0
   10.7013   -1.3232   21.8089 N   0  0  0  0  0  0  0  0  0  0  0  0
   11.5021   -1.7903   22.2170 H   0  0  0  0  0  0  0  0  0  0  0  0
    7.8687   -3.6832   21.9843 C   0  0  0  0  0  0  0  0  0  0  0  0
    7.4432   -3.3716   21.0323 H   0  0  0  0  0  0  0  0  0  0  0  0
  1  2  1  0
  2  3  1  0
  3  4  2  0
  3  5  1  0
  5  6  2  0
  6  7  1  0
  6  8  1  0
  8  9  1  0
  8 10  2  0
 10 11  1  0
 10 12  1  0
 12 13  1  0
 13 14  2  0
 14 15  1  0
 15 16  1  0
 15 17  1  0
 17 18  2  0
 18 19  1  0
 18 20  1  0
 20 21  2  0
 21 22  1  0
 21 23  1  0
 23 24  1  0
 23 25  2  0
 25 26  1  0
 14 27  1  0
 27 28  1  0
 27 29  2  0
 29 30  1  0
 30 31  1  0
 12 32  2  0
 32 33  1  0
 32  5  1  0
 30 13  1  0
 25 17  1  0
M  END
>  <cnnaffinity>  (1) 
-5.48678

>  <filename>  (1) 
O=C(O)c1cccc(-c2[nH]ncc2Nc2cccnc2)c1

$$$$
