
     RDKit          3D

 35 38  0  0  0  0  0  0  0  0999 V2000
    4.9757    1.8067   17.0299 H   0  0  0  0  0  0  0  0  0  0  0  0
    5.4337    1.2905   17.8749 C   0  0  0  0  0  0  0  0  0  0  0  0
    6.5911    0.6597   17.6272 N   0  0  0  0  0  0  0  0  0  0  0  0
    7.1628    0.0124   18.6444 C   0  0  0  0  0  0  0  0  0  0  0  0
    8.0947   -0.5089   18.4411 H   0  0  0  0  0  0  0  0  0  0  0  0
    6.6443   -0.0317   19.9406 C   0  0  0  0  0  0  0  0  0  0  0  0
    7.4702   -0.8218   20.8982 C   0  0  0  0  0  0  0  0  0  0  0  0
    8.2309   -1.7036   20.5408 O   0  0  0  0  0  0  0  0  0  0  0  0
    7.3085   -0.4082   22.1923 N   0  0  0  0  0  0  0  0  0  0  0  0
    6.9286    0.5232   22.2612 H   0  0  0  0  0  0  0  0  0  0  0  0
    8.0980   -0.7945   23.2472 N   0  0  0  0  0  0  0  0  0  0  0  0
    9.3076   -1.4862   23.2042 C   0  0  0  0  0  0  0  0  0  0  0  0
    9.7023   -1.8126   22.2508 H   0  0  0  0  0  0  0  0  0  0  0  0
    9.7634   -1.5846   24.4723 C   0  0  0  0  0  0  0  0  0  0  0  0
   10.6526   -2.0066   24.8931 H   0  0  0  0  0  0  0  0  0  0  0  0
    8.8383   -0.9482   25.2888 N   0  0  0  0  0  0  0  0  0  0  0  0
    8.8094   -0.5629   26.5821 N   0  0  0  0  0  0  0  0  0  0  0  0
    7.6959    0.1895   26.6369 C   0  0  0  0  0  0  0  0  0  0  0  0
    7.3155    0.9434   27.8483 C   0  0  0  0  0  0  0  0  0  0  0  0
    8.1241    0.9373   29.0008 C   0  0  0  0  0  0  0  0  0  0  0  0
    8.9926    0.2808   29.0472 H   0  0  0  0  0  0  0  0  0  0  0  0
    7.9044    1.7205   30.0639 N   0  0  0  0  0  0  0  0  0  0  0  0
    6.8362    2.5256   30.0312 C   0  0  0  0  0  0  0  0  0  0  0  0
    6.6919    3.1711   30.8964 H   0  0  0  0  0  0  0  0  0  0  0  0
    5.9397    2.5697   28.9590 C   0  0  0  0  0  0  0  0  0  0  0  0
    5.0873    3.2355   28.9860 H   0  0  0  0  0  0  0  0  0  0  0  0
    6.1762    1.7678   27.8501 C   0  0  0  0  0  0  0  0  0  0  0  0
    5.4939    1.8092   26.9982 H   0  0  0  0  0  0  0  0  0  0  0  0
    7.0111    0.2663   25.4011 C   0  0  0  0  0  0  0  0  0  0  0  0
    6.0920    0.7806   25.1871 H   0  0  0  0  0  0  0  0  0  0  0  0
    7.8168   -0.4630   24.5447 C   0  0  0  0  0  0  0  0  0  0  0  0
    5.4402    0.6455   20.2016 C   0  0  0  0  0  0  0  0  0  0  0  0
    4.9795    0.6603   21.1931 H   0  0  0  0  0  0  0  0  0  0  0  0
    4.8237    1.3035   19.1361 C   0  0  0  0  0  0  0  0  0  0  0  0
    3.8984    1.8516   19.2705 H   0  0  0  0  0  0  0  0  0  0  0  0
  1  2  1  0
  2  3  2  0
  3  4  1  0
  4  5  1  0
  4  6  2  0
  6  7  1  0
  7  8  2  0
  7  9  1  0
  9 10  1  0
  9 11  1  0
 11 12  1  0
 12 13  1  0
 12 14  2  0
 14 15  1  0
 14 16  1  0
 16 17  1  0
 17 18  2  0
 18 19  1  0
 19 20  2  0
 20 21  1  0
 20 22  1  0
 22 23  2  0
 23 24  1  0
 23 25  1  0
 25 26  1  0
 25 27  2  0
 27 28  1  0
 18 29  1  0
 29 30  1  0
 29 31  2  0
  6 32  1  0
 32 33  1  0
 32 34  2  0
 34 35  1  0
 34  2  1  0
 31 11  1  0
 31 16  1  0
 27 19  1  0
M  END
>  <cnnaffinity>  (1) 
-5.13312

>  <filename>  (1) 
O=C(Nn1ccn2nc(-c3cccnc3)cc12)c1cccnc1

$$$$
