
     RDKit          3D

 30 32  0  0  0  0  0  0  0  0999 V2000
    8.9517   -3.0989   22.2507 H   0  0  0  0  0  0  0  0  0  0  0  0
    8.4111   -2.2125   21.9395 C   0  0  0  0  0  0  0  0  0  0  0  0
    8.0320   -1.8977   20.7541 N   0  0  0  0  0  0  0  0  0  0  0  0
    7.3602   -0.6943   20.9302 C   0  0  0  0  0  0  0  0  0  0  0  0
    6.6333   -0.0117   19.8767 C   0  0  0  0  0  0  0  0  0  0  0  0
    7.1652    0.0391   18.5813 C   0  0  0  0  0  0  0  0  0  0  0  0
    8.1227   -0.4361   18.3676 H   0  0  0  0  0  0  0  0  0  0  0  0
    6.5644    0.6716   17.5709 N   0  0  0  0  0  0  0  0  0  0  0  0
    5.4037    1.2919   17.8328 C   0  0  0  0  0  0  0  0  0  0  0  0
    4.9329    1.7900   16.9902 H   0  0  0  0  0  0  0  0  0  0  0  0
    4.7981    1.3085   19.0935 C   0  0  0  0  0  0  0  0  0  0  0  0
    3.8713    1.8433   19.2447 H   0  0  0  0  0  0  0  0  0  0  0  0
    5.4177    0.6394   20.1396 C   0  0  0  0  0  0  0  0  0  0  0  0
    4.9923    0.6232   21.1467 H   0  0  0  0  0  0  0  0  0  0  0  0
    7.4391   -0.3346   22.2506 C   0  0  0  0  0  0  0  0  0  0  0  0
    7.0998    0.8007   22.9707 N   0  0  0  0  0  0  0  0  0  0  0  0
    6.6446    0.6893   23.8629 H   0  0  0  0  0  0  0  0  0  0  0  0
    7.2486    2.0550   22.3948 C   0  0  0  0  0  0  0  0  0  0  0  0
    7.9494    2.1893   21.4090 O   0  0  0  0  0  0  0  0  0  0  0  0
    6.4620    3.2250   23.0000 C   0  0  0  0  0  0  0  0  0  0  0  0
    6.1304    4.3376   22.1941 C   0  0  0  0  0  0  0  0  0  0  0  0
    6.4062    4.3807   21.1481 H   0  0  0  0  0  0  0  0  0  0  0  0
    5.4569    5.4325   22.7447 C   0  0  0  0  0  0  0  0  0  0  0  0
    5.2118    6.2970   22.1331 H   0  0  0  0  0  0  0  0  0  0  0  0
    5.0874    5.5033   24.0303 N   0  0  0  0  0  0  0  0  0  0  0  0
    5.3908    4.4571   24.8028 C   0  0  0  0  0  0  0  0  0  0  0  0
    5.0838    4.5285   25.8426 H   0  0  0  0  0  0  0  0  0  0  0  0
    6.0633    3.3134   24.3480 C   0  0  0  0  0  0  0  0  0  0  0  0
    6.2866    2.5429   25.0750 H   0  0  0  0  0  0  0  0  0  0  0  0
    8.0830   -1.3218   22.9098 O   0  0  0  0  0  0  0  0  0  0  0  0
  1  2  1  0
  2  3  2  0
  3  4  1  0
  4  5  1  0
  5  6  2  0
  6  7  1  0
  6  8  1  0
  8  9  2  0
  9 10  1  0
  9 11  1  0
 11 12  1  0
 11 13  2  0
 13 14  1  0
  4 15  2  0
 15 16  1  0
 16 17  1  0
 16 18  1  0
 18 19  2  0
 18 20  1  0
 20 21  2  0
 21 22  1  0
 21 23  1  0
 23 24  1  0
 23 25  2  0
 25 26  1  0
 26 27  1  0
 26 28  2  0
 28 29  1  0
 15 30  1  0
 30  2  1  0
 13  5  1  0
 28 20  1  0
M  END
>  <cnnaffinity>  (1) 
-4.79961

>  <filename>  (1) 
O=C(Nc1ocnc1-c1cccnc1)c1ccncc1

$$$$
