
     RDKit          3D

 30 33  0  0  0  0  0  0  0  0999 V2000
    5.1768    1.6687   17.0924 H   0  0  0  0  0  0  0  0  0  0  0  0
    5.7296    1.2197   17.9128 C   0  0  0  0  0  0  0  0  0  0  0  0
    6.9276    0.6951   17.6115 N   0  0  0  0  0  0  0  0  0  0  0  0
    7.6185    0.1326   18.6045 C   0  0  0  0  0  0  0  0  0  0  0  0
    8.5900   -0.2906   18.3495 H   0  0  0  0  0  0  0  0  0  0  0  0
    7.1445    0.0364   19.9161 C   0  0  0  0  0  0  0  0  0  0  0  0
    7.9641   -0.6742   20.8746 C   0  0  0  0  0  0  0  0  0  0  0  0
    9.2206   -0.2454   21.1872 N   0  0  0  0  0  0  0  0  0  0  0  0
    9.6027   -1.0625   22.1294 C   0  0  0  0  0  0  0  0  0  0  0  0
   10.9309   -1.1487   23.2352 S   0  0  0  0  0  0  0  0  0  0  0  0
   10.1779   -2.5111   24.0532 C   0  0  0  0  0  0  0  0  0  0  0  0
   10.6585   -2.9488   24.9160 H   0  0  0  0  0  0  0  0  0  0  0  0
    9.0140   -2.8656   23.4768 C   0  0  0  0  0  0  0  0  0  0  0  0
    8.3292   -3.6615   23.7299 H   0  0  0  0  0  0  0  0  0  0  0  0
    8.7129   -2.0710   22.3847 N   0  0  0  0  0  0  0  0  0  0  0  0
    7.6436   -1.8410   21.5501 C   0  0  0  0  0  0  0  0  0  0  0  0
    6.3851   -2.5543   21.4277 C   0  0  0  0  0  0  0  0  0  0  0  0
    5.3660   -1.9174   21.2293 O   0  0  0  0  0  0  0  0  0  0  0  0
    6.3085   -4.0257   21.5589 C   0  0  0  0  0  0  0  0  0  0  0  0
    4.7794   -4.6690   22.0426 S   0  0  0  0  0  0  0  0  0  0  0  0
    5.3926   -6.2646   22.0158 C   0  0  0  0  0  0  0  0  0  0  0  0
    4.7494   -7.0901   22.2925 H   0  0  0  0  0  0  0  0  0  0  0  0
    6.6974   -6.3102   21.6133 C   0  0  0  0  0  0  0  0  0  0  0  0
    7.2612   -7.2298   21.5206 H   0  0  0  0  0  0  0  0  0  0  0  0
    7.2288   -5.0182   21.3378 C   0  0  0  0  0  0  0  0  0  0  0  0
    8.2380   -4.8372   20.9830 H   0  0  0  0  0  0  0  0  0  0  0  0
    5.9063    0.6157   20.2285 C   0  0  0  0  0  0  0  0  0  0  0  0
    5.5104    0.5792   21.2421 H   0  0  0  0  0  0  0  0  0  0  0  0
    5.1862    1.2094   19.1989 C   0  0  0  0  0  0  0  0  0  0  0  0
    4.2221    1.6588   19.3934 H   0  0  0  0  0  0  0  0  0  0  0  0
  1  2  1  0
  2  3  2  0
  3  4  1  0
  4  5  1  0
  4  6  2  0
  6  7  1  0
  7  8  1  0
  8  9  2  0
  9 10  1  0
 10 11  1  0
 11 12  1  0
 11 13  2  0
 13 14  1  0
 13 15  1  0
 15 16  1  0
 16 17  1  0
 17 18  2  0
 17 19  1  0
 19 20  1  0
 20 21  1  0
 21 22  1  0
 21 23  2  0
 23 24  1  0
 23 25  1  0
 25 26  1  0
  6 27  1  0
 27 28  1  0
 27 29  2  0
 29 30  1  0
 29  2  1  0
 16  7  2  0
 25 19  2  0
 15  9  1  0
M  END
>  <cnnaffinity>  (1) 
-6.11897

>  <filename>  (1) 
O=C(c1cccs1)c1c(-c2cccnc2)nc2sccn12

$$$$
