
     RDKit          3D

 30 32  0  0  0  0  0  0  0  0999 V2000
    8.6706    1.7881   24.4719 H   0  0  0  0  0  0  0  0  0  0  0  0
    8.3169    1.7396   23.5672 O   0  0  0  0  0  0  0  0  0  0  0  0
    9.4609    1.9538   22.9124 C   0  0  0  0  0  0  0  0  0  0  0  0
   10.4742    2.1302   23.5482 O   0  0  0  0  0  0  0  0  0  0  0  0
    9.3440    1.9129   21.4192 C   0  0  0  0  0  0  0  0  0  0  0  0
   10.0400    2.6550   21.0263 H   0  0  0  0  0  0  0  0  0  0  0  0
    8.3225    2.1795   21.1360 H   0  0  0  0  0  0  0  0  0  0  0  0
    9.6836    0.5054   20.8765 C   0  0  0  0  0  0  0  0  0  0  0  0
   10.7098    0.2209   21.1496 H   0  0  0  0  0  0  0  0  0  0  0  0
    9.6322    0.5513   19.7878 H   0  0  0  0  0  0  0  0  0  0  0  0
    8.6989   -0.5158   21.3227 C   0  0  0  0  0  0  0  0  0  0  0  0
    7.3650   -0.6848   20.9700 C   0  0  0  0  0  0  0  0  0  0  0  0
    6.6446    0.0056   19.9045 C   0  0  0  0  0  0  0  0  0  0  0  0
    7.1636    0.0553   18.6029 C   0  0  0  0  0  0  0  0  0  0  0  0
    8.1106   -0.4334   18.3709 H   0  0  0  0  0  0  0  0  0  0  0  0
    6.5636    0.6713   17.5777 N   0  0  0  0  0  0  0  0  0  0  0  0
    5.4022    1.2947   17.8323 C   0  0  0  0  0  0  0  0  0  0  0  0
    4.9308    1.7917   16.9857 H   0  0  0  0  0  0  0  0  0  0  0  0
    4.8004    1.3132   19.0960 C   0  0  0  0  0  0  0  0  0  0  0  0
    3.8685    1.8487   19.2410 H   0  0  0  0  0  0  0  0  0  0  0  0
    5.4222    0.6496   20.1486 C   0  0  0  0  0  0  0  0  0  0  0  0
    4.9890    0.6267   21.1495 H   0  0  0  0  0  0  0  0  0  0  0  0
    6.7122   -1.5497   21.8171 N   0  0  0  0  0  0  0  0  0  0  0  0
    7.6377   -1.9046   22.6664 C   0  0  0  0  0  0  0  0  0  0  0  0
    7.7093   -2.8693   24.1195 S   0  0  0  0  0  0  0  0  0  0  0  0
    9.3843   -2.3907   24.3645 C   0  0  0  0  0  0  0  0  0  0  0  0
    9.9235   -2.7637   25.2232 H   0  0  0  0  0  0  0  0  0  0  0  0
    9.8260   -1.5691   23.3934 C   0  0  0  0  0  0  0  0  0  0  0  0
   10.7961   -1.1006   23.2793 H   0  0  0  0  0  0  0  0  0  0  0  0
    8.8530   -1.3130   22.4394 N   0  0  0  0  0  0  0  0  0  0  0  0
  1  2  1  0
  2  3  1  0
  3  4  2  0
  3  5  1  0
  5  6  1  0
  5  7  1  0
  5  8  1  0
  8  9  1  0
  8 10  1  0
  8 11  1  0
 11 12  2  0
 12 13  1  0
 13 14  2  0
 14 15  1  0
 14 16  1  0
 16 17  2  0
 17 18  1  0
 17 19  1  0
 19 20  1  0
 19 21  2  0
 21 22  1  0
 12 23  1  0
 23 24  2  0
 24 25  1  0
 25 26  1  0
 26 27  1  0
 26 28  2  0
 28 29  1  0
 28 30  1  0
 30 11  1  0
 21 13  1  0
 30 24  1  0
M  END
>  <cnnaffinity>  (1) 
-4.83406

>  <filename>  (1) 
O=C(O)CCc1c(-c2cccnc2)nc2sccn12

$$$$
