
     RDKit          3D

 41 43  0  0  0  0  0  0  0  0999 V2000
    5.0526    1.7562   17.0354 H   0  0  0  0  0  0  0  0  0  0  0  0
    5.5093    1.2391   17.8741 C   0  0  0  0  0  0  0  0  0  0  0  0
    6.6652    0.6022   17.6175 N   0  0  0  0  0  0  0  0  0  0  0  0
    7.2589   -0.0378   18.6337 C   0  0  0  0  0  0  0  0  0  0  0  0
    8.1900   -0.5630   18.4104 H   0  0  0  0  0  0  0  0  0  0  0  0
    6.7464   -0.0747   19.9647 C   0  0  0  0  0  0  0  0  0  0  0  0
    7.3862   -0.7101   20.9926 N   0  0  0  0  0  0  0  0  0  0  0  0
    6.9982   -0.8765   22.3770 C   0  0  0  0  0  0  0  0  0  0  0  0
    6.9148    0.0681   22.9360 H   0  0  0  0  0  0  0  0  0  0  0  0
    6.0785   -1.4633   22.5154 H   0  0  0  0  0  0  0  0  0  0  0  0
    8.3233   -1.6657   22.5813 C   0  0  0  0  0  0  0  0  0  0  0  0
    8.9689   -1.2326   23.3506 H   0  0  0  0  0  0  0  0  0  0  0  0
    8.1099   -3.1556   22.8089 C   0  0  0  0  0  0  0  0  0  0  0  0
    8.5339   -3.9819   22.0274 O   0  0  0  0  0  0  0  0  0  0  0  0
    7.3169   -3.5903   24.0268 C   0  0  0  0  0  0  0  0  0  0  0  0
    8.0427   -3.8845   24.7969 H   0  0  0  0  0  0  0  0  0  0  0  0
    6.7728   -2.7326   24.4389 H   0  0  0  0  0  0  0  0  0  0  0  0
    6.3453   -4.7545   23.7222 C   0  0  0  0  0  0  0  0  0  0  0  0
    6.9368   -5.5623   23.2649 H   0  0  0  0  0  0  0  0  0  0  0  0
    5.2524   -4.3177   22.7267 C   0  0  0  0  0  0  0  0  0  0  0  0
    5.7178   -4.0239   21.7762 H   0  0  0  0  0  0  0  0  0  0  0  0
    4.7573   -3.4185   23.1285 H   0  0  0  0  0  0  0  0  0  0  0  0
    4.1735   -5.3771   22.4513 C   0  0  0  0  0  0  0  0  0  0  0  0
    4.5640   -6.1262   21.7494 H   0  0  0  0  0  0  0  0  0  0  0  0
    3.3401   -4.8729   21.9509 H   0  0  0  0  0  0  0  0  0  0  0  0
    3.6426   -6.0688   23.7193 C   0  0  0  0  0  0  0  0  0  0  0  0
    3.0256   -6.9380   23.4476 H   0  0  0  0  0  0  0  0  0  0  0  0
    2.9828   -5.3704   24.2536 H   0  0  0  0  0  0  0  0  0  0  0  0
    4.7570   -6.4965   24.6866 C   0  0  0  0  0  0  0  0  0  0  0  0
    4.3133   -6.8757   25.6174 H   0  0  0  0  0  0  0  0  0  0  0  0
    5.3317   -7.3256   24.2497 H   0  0  0  0  0  0  0  0  0  0  0  0
    5.7027   -5.3236   24.9976 C   0  0  0  0  0  0  0  0  0  0  0  0
    6.4783   -5.6465   25.7052 H   0  0  0  0  0  0  0  0  0  0  0  0
    5.1248   -4.5344   25.5050 H   0  0  0  0  0  0  0  0  0  0  0  0
    8.6926   -1.3327   21.1101 C   0  0  0  0  0  0  0  0  0  0  0  0
    8.8227   -2.2073   20.4636 H   0  0  0  0  0  0  0  0  0  0  0  0
    9.5418   -0.6497   20.9661 H   0  0  0  0  0  0  0  0  0  0  0  0
    5.5185    0.5805   20.1963 C   0  0  0  0  0  0  0  0  0  0  0  0
    5.0902    0.5649   21.1983 H   0  0  0  0  0  0  0  0  0  0  0  0
    4.9011    1.2441   19.1355 C   0  0  0  0  0  0  0  0  0  0  0  0
    3.9647    1.7704   19.2810 H   0  0  0  0  0  0  0  0  0  0  0  0
  1  2  1  0
  2  3  2  0
  3  4  1  0
  4  5  1  0
  4  6  2  0
  6  7  1  0
  7  8  1  0
  8  9  1  0
  8 10  1  0
  8 11  1  0
 11 12  1  0
 11 13  1  0
 13 14  2  0
 13 15  1  0
 15 16  1  0
 15 17  1  0
 15 18  1  0
 18 19  1  0
 18 20  1  0
 20 21  1  0
 20 22  1  0
 20 23  1  0
 23 24  1  0
 23 25  1  0
 23 26  1  0
 26 27  1  0
 26 28  1  0
 26 29  1  0
 29 30  1  0
 29 31  1  0
 29 32  1  0
 32 33  1  0
 32 34  1  0
 11 35  1  0
 35 36  1  0
 35 37  1  0
  6 38  1  0
 38 39  1  0
 38 40  2  0
 40 41  1  0
 40  2  1  0
 35  7  1  0
 32 18  1  0
M  END
>  <cnnaffinity>  (1) 
-5.33294

>  <filename>  (1) 
O=C(CC1CCCCC1)C1CN(c2cccnc2)C1

$$$$
