
     RDKit          3D

 29 31  0  0  0  0  0  0  0  0999 V2000
    4.9460    1.7704   17.0263 H   0  0  0  0  0  0  0  0  0  0  0  0
    5.4235    1.2701   17.8659 C   0  0  0  0  0  0  0  0  0  0  0  0
    6.5867    0.6535   17.6061 N   0  0  0  0  0  0  0  0  0  0  0  0
    7.2007    0.0331   18.6239 C   0  0  0  0  0  0  0  0  0  0  0  0
    8.1462   -0.4436   18.3725 H   0  0  0  0  0  0  0  0  0  0  0  0
    6.7025   -0.0346   19.9643 C   0  0  0  0  0  0  0  0  0  0  0  0
    7.3682   -0.6918   20.9752 N   0  0  0  0  0  0  0  0  0  0  0  0
    8.6328   -1.4097   21.0081 C   0  0  0  0  0  0  0  0  0  0  0  0
    9.5227   -0.8263   20.7509 H   0  0  0  0  0  0  0  0  0  0  0  0
    8.6501   -2.3117   20.3947 H   0  0  0  0  0  0  0  0  0  0  0  0
    8.3905   -1.6649   22.5149 C   0  0  0  0  0  0  0  0  0  0  0  0
    8.2521   -2.7254   22.7557 H   0  0  0  0  0  0  0  0  0  0  0  0
    9.4272   -1.0885   23.4646 C   0  0  0  0  0  0  0  0  0  0  0  0
   10.5187   -0.7170   23.0806 O   0  0  0  0  0  0  0  0  0  0  0  0
    9.0496   -1.0269   24.9044 C   0  0  0  0  0  0  0  0  0  0  0  0
   10.1291   -0.2348   26.0029 S   0  0  0  0  0  0  0  0  0  0  0  0
    9.0953   -0.5476   27.3320 C   0  0  0  0  0  0  0  0  0  0  0  0
    9.3739   -0.2131   28.3248 H   0  0  0  0  0  0  0  0  0  0  0  0
    7.9691   -1.2237   26.9590 C   0  0  0  0  0  0  0  0  0  0  0  0
    7.1845   -1.5106   27.6470 H   0  0  0  0  0  0  0  0  0  0  0  0
    7.9428   -1.5024   25.5663 C   0  0  0  0  0  0  0  0  0  0  0  0
    7.1239   -2.0313   25.0850 H   0  0  0  0  0  0  0  0  0  0  0  0
    7.0493   -0.8877   22.3759 C   0  0  0  0  0  0  0  0  0  0  0  0
    6.1422   -1.4753   22.5580 H   0  0  0  0  0  0  0  0  0  0  0  0
    6.9726    0.0296   22.9705 H   0  0  0  0  0  0  0  0  0  0  0  0
    5.4715    0.6226   20.1962 C   0  0  0  0  0  0  0  0  0  0  0  0
    5.0269    0.6172   21.1903 H   0  0  0  0  0  0  0  0  0  0  0  0
    4.8390    1.2809   19.1358 C   0  0  0  0  0  0  0  0  0  0  0  0
    3.9062    1.8125   19.2836 H   0  0  0  0  0  0  0  0  0  0  0  0
  1  2  1  0
  2  3  2  0
  3  4  1  0
  4  5  1  0
  4  6  2  0
  6  7  1  0
  7  8  1  0
  8  9  1  0
  8 10  1  0
  8 11  1  0
 11 12  1  0
 11 13  1  0
 13 14  2  0
 13 15  1  0
 15 16  1  0
 16 17  1  0
 17 18  1  0
 17 19  2  0
 19 20  1  0
 19 21  1  0
 21 22  1  0
 11 23  1  0
 23 24  1  0
 23 25  1  0
  6 26  1  0
 26 27  1  0
 26 28  2  0
 28 29  1  0
 28  2  1  0
 23  7  1  0
 21 15  2  0
M  END
>  <cnnaffinity>  (1) 
-5.01859

>  <filename>  (1) 
O=C(c1cccs1)C1CN(c2cccnc2)C1

$$$$
