
     RDKit          3D

 36 39  0  0  0  0  0  0  0  0999 V2000
    4.9410    1.8511   16.9291 H   0  0  0  0  0  0  0  0  0  0  0  0
    5.3842    1.3174   17.7678 C   0  0  0  0  0  0  0  0  0  0  0  0
    6.5332    0.6716   17.5152 N   0  0  0  0  0  0  0  0  0  0  0  0
    7.1158    0.0388   18.5391 C   0  0  0  0  0  0  0  0  0  0  0  0
    8.0422   -0.4870   18.3172 H   0  0  0  0  0  0  0  0  0  0  0  0
    6.6048    0.0350   19.8505 C   0  0  0  0  0  0  0  0  0  0  0  0
    7.3672   -0.5917   20.9336 C   0  0  0  0  0  0  0  0  0  0  0  0
    8.1575   -1.6471   20.7225 N   0  0  0  0  0  0  0  0  0  0  0  0
    8.6837   -1.8849   21.9205 N   0  0  0  0  0  0  0  0  0  0  0  0
    8.3193   -1.0455   22.8924 C   0  0  0  0  0  0  0  0  0  0  0  0
    7.4241   -0.1758   22.3045 C   0  0  0  0  0  0  0  0  0  0  0  0
    6.7642    0.9046   22.9382 N   0  0  0  0  0  0  0  0  0  0  0  0
    6.9032    1.7961   22.4901 H   0  0  0  0  0  0  0  0  0  0  0  0
    6.6376    0.9895   24.3111 C   0  0  0  0  0  0  0  0  0  0  0  0
    6.5525    0.0107   25.0298 O   0  0  0  0  0  0  0  0  0  0  0  0
    6.5946    2.3732   24.8503 C   0  0  0  0  0  0  0  0  0  0  0  0
    6.0599    2.5511   26.4826 S   0  0  0  0  0  0  0  0  0  0  0  0
    6.3011    4.2422   26.4319 C   0  0  0  0  0  0  0  0  0  0  0  0
    6.0836    4.8404   27.3085 H   0  0  0  0  0  0  0  0  0  0  0  0
    6.7926    4.6630   25.2292 C   0  0  0  0  0  0  0  0  0  0  0  0
    7.0260    5.6950   24.9829 H   0  0  0  0  0  0  0  0  0  0  0  0
    6.9666    3.5855   24.3163 C   0  0  0  0  0  0  0  0  0  0  0  0
    7.3721    3.7398   23.3189 H   0  0  0  0  0  0  0  0  0  0  0  0
    9.1336   -1.2805   24.1329 C   0  0  0  0  0  0  0  0  0  0  0  0
    9.6250   -0.3573   24.4572 H   0  0  0  0  0  0  0  0  0  0  0  0
    8.4987   -1.6223   24.9534 H   0  0  0  0  0  0  0  0  0  0  0  0
   10.1669   -2.3391   23.6595 C   0  0  0  0  0  0  0  0  0  0  0  0
   10.3169   -3.1339   24.3946 H   0  0  0  0  0  0  0  0  0  0  0  0
   11.1190   -1.8480   23.4860 H   0  0  0  0  0  0  0  0  0  0  0  0
    9.6854   -2.8548   22.2770 C   0  0  0  0  0  0  0  0  0  0  0  0
   10.4785   -2.8121   21.5312 H   0  0  0  0  0  0  0  0  0  0  0  0
    9.2479   -3.8558   22.2993 H   0  0  0  0  0  0  0  0  0  0  0  0
    5.3763    0.6740   20.0864 C   0  0  0  0  0  0  0  0  0  0  0  0
    4.9202    0.6517   21.0793 H   0  0  0  0  0  0  0  0  0  0  0  0
    4.7616    1.3289   19.0215 C   0  0  0  0  0  0  0  0  0  0  0  0
    3.8294    1.8648   19.1510 H   0  0  0  0  0  0  0  0  0  0  0  0
  1  2  1  0
  2  3  2  0
  3  4  1  0
  4  5  1  0
  4  6  2  0
  6  7  1  0
  7  8  2  0
  8  9  1  0
  9 10  1  0
 10 11  2  0
 11 12  1  0
 12 13  1  0
 12 14  1  0
 14 15  2  0
 14 16  1  0
 16 17  1  0
 17 18  1  0
 18 19  1  0
 18 20  2  0
 20 21  1  0
 20 22  1  0
 22 23  1  0
 10 24  1  0
 24 25  1  0
 24 26  1  0
 24 27  1  0
 27 28  1  0
 27 29  1  0
 27 30  1  0
 30 31  1  0
 30 32  1  0
  6 33  1  0
 33 34  1  0
 33 35  2  0
 35 36  1  0
 35  2  1  0
 11  7  1  0
 22 16  2  0
 30  9  1  0
M  END
>  <cnnaffinity>  (1) 
-5.41474

>  <filename>  (1) 
O=C(Nc1c(-c2cccnc2)nn2c1CCC2)c1cccs1

$$$$
