
     RDKit          3D

 33 35  0  0  0  0  0  0  0  0999 V2000
    5.6557    0.9377   30.0536 H   0  0  0  0  0  0  0  0  0  0  0  0
    5.7064    0.5266   29.1774 O   0  0  0  0  0  0  0  0  0  0  0  0
    6.1441    1.6147   28.5160 C   0  0  0  0  0  0  0  0  0  0  0  0
    6.2974    2.6295   29.1593 O   0  0  0  0  0  0  0  0  0  0  0  0
    6.3732    1.4070   27.0634 C   0  0  0  0  0  0  0  0  0  0  0  0
    6.1346    0.1501   26.4654 C   0  0  0  0  0  0  0  0  0  0  0  0
    5.7840   -0.6890   27.0636 H   0  0  0  0  0  0  0  0  0  0  0  0
    6.3505   -0.0284   25.1068 C   0  0  0  0  0  0  0  0  0  0  0  0
    6.1725   -0.9789   24.6159 H   0  0  0  0  0  0  0  0  0  0  0  0
    6.8171    1.0268   24.3107 C   0  0  0  0  0  0  0  0  0  0  0  0
    7.0277    0.8369   22.9465 N   0  0  0  0  0  0  0  0  0  0  0  0
    6.9819    1.6571   22.3617 H   0  0  0  0  0  0  0  0  0  0  0  0
    7.5125   -0.3216   22.3251 C   0  0  0  0  0  0  0  0  0  0  0  0
    8.2907   -1.3770   22.8713 C   0  0  0  0  0  0  0  0  0  0  0  0
    8.6304   -1.4744   23.8967 H   0  0  0  0  0  0  0  0  0  0  0  0
    8.6072   -2.2865   21.9555 N   0  0  0  0  0  0  0  0  0  0  0  0
    8.0518   -1.8244   20.8249 N   0  0  0  0  0  0  0  0  0  0  0  0
    8.1254   -2.3659   19.9715 H   0  0  0  0  0  0  0  0  0  0  0  0
    7.3755   -0.6522   20.9809 C   0  0  0  0  0  0  0  0  0  0  0  0
    6.6566    0.0178   19.8863 C   0  0  0  0  0  0  0  0  0  0  0  0
    7.1598    0.0672   18.5695 C   0  0  0  0  0  0  0  0  0  0  0  0
    8.1152   -0.3989   18.3268 H   0  0  0  0  0  0  0  0  0  0  0  0
    6.5484    0.6888   17.5555 N   0  0  0  0  0  0  0  0  0  0  0  0
    5.3851    1.3064   17.8198 C   0  0  0  0  0  0  0  0  0  0  0  0
    4.9108    1.8061   16.9762 H   0  0  0  0  0  0  0  0  0  0  0  0
    4.7917    1.3190   19.0870 C   0  0  0  0  0  0  0  0  0  0  0  0
    3.8611    1.8509   19.2384 H   0  0  0  0  0  0  0  0  0  0  0  0
    5.4352    0.6627   20.1363 C   0  0  0  0  0  0  0  0  0  0  0  0
    5.0156    0.6297   21.1417 H   0  0  0  0  0  0  0  0  0  0  0  0
    7.0352    2.2840   24.8928 C   0  0  0  0  0  0  0  0  0  0  0  0
    7.3898    3.1013   24.2723 H   0  0  0  0  0  0  0  0  0  0  0  0
    6.8244    2.4736   26.2590 C   0  0  0  0  0  0  0  0  0  0  0  0
    7.0035    3.4488   26.7124 H   0  0  0  0  0  0  0  0  0  0  0  0
  1  2  1  0
  2  3  1  0
  3  4  2  0
  3  5  1  0
  5  6  2  0
  6  7  1  0
  6  8  1  0
  8  9  1  0
  8 10  2  0
 10 11  1  0
 11 12  1  0
 11 13  1  0
 13 14  1  0
 14 15  1  0
 14 16  2  0
 16 17  1  0
 17 18  1  0
 17 19  1  0
 19 20  1  0
 20 21  2  0
 21 22  1  0
 21 23  1  0
 23 24  2  0
 24 25  1  0
 24 26  1  0
 26 27  1  0
 26 28  2  0
 28 29  1  0
 10 30  1  0
 30 31  1  0
 30 32  2  0
 32 33  1  0
 32  5  1  0
 19 13  2  0
 28 20  1  0
M  END
>  <cnnaffinity>  (1) 
-5.28405

>  <filename>  (1) 
O=C(O)c1ccc(Nc2cn[nH]c2-c2cccnc2)cc1

$$$$
