
     RDKit          3D

 37 38  0  0  0  0  0  0  0  0999 V2000
    8.8344    2.5749   24.7887 H   0  0  0  0  0  0  0  0  0  0  0  0
    8.9262    1.7158   24.3372 O   0  0  0  0  0  0  0  0  0  0  0  0
    7.6669    1.1224   24.3517 N   0  0  0  0  0  0  0  0  0  0  0  0
    7.3365    0.8723   23.4275 H   0  0  0  0  0  0  0  0  0  0  0  0
    7.1052    0.4927   25.4385 C   0  0  0  0  0  0  0  0  0  0  0  0
    7.5118    0.5620   26.5826 O   0  0  0  0  0  0  0  0  0  0  0  0
    5.8038   -0.2129   25.0811 C   0  0  0  0  0  0  0  0  0  0  0  0
    5.0007    0.4194   25.4826 H   0  0  0  0  0  0  0  0  0  0  0  0
    5.6774   -0.2253   23.9975 H   0  0  0  0  0  0  0  0  0  0  0  0
    5.6715   -1.6060   25.7280 C   0  0  0  0  0  0  0  0  0  0  0  0
    4.6725   -2.0238   25.5225 H   0  0  0  0  0  0  0  0  0  0  0  0
    5.7266   -1.4577   26.8134 H   0  0  0  0  0  0  0  0  0  0  0  0
    6.7494   -2.6246   25.3372 C   0  0  0  0  0  0  0  0  0  0  0  0
    7.7446   -2.2053   25.5560 H   0  0  0  0  0  0  0  0  0  0  0  0
    6.6438   -3.5081   25.9815 H   0  0  0  0  0  0  0  0  0  0  0  0
    6.6952   -3.0833   23.8627 C   0  0  0  0  0  0  0  0  0  0  0  0
    5.6492   -3.1844   23.5405 H   0  0  0  0  0  0  0  0  0  0  0  0
    7.1671   -4.0687   23.7588 H   0  0  0  0  0  0  0  0  0  0  0  0
    7.3949   -2.1544   22.8930 C   0  0  0  0  0  0  0  0  0  0  0  0
    8.7133   -1.9959   23.0658 N   0  0  0  0  0  0  0  0  0  0  0  0
    9.3685   -1.2044   22.2050 C   0  0  0  0  0  0  0  0  0  0  0  0
   10.4380   -1.1087   22.3829 H   0  0  0  0  0  0  0  0  0  0  0  0
    8.7547   -0.5336   21.1520 C   0  0  0  0  0  0  0  0  0  0  0  0
    9.3340    0.1082   20.5011 H   0  0  0  0  0  0  0  0  0  0  0  0
    7.3754   -0.6787   20.9693 C   0  0  0  0  0  0  0  0  0  0  0  0
    6.6472    0.0317   19.8912 C   0  0  0  0  0  0  0  0  0  0  0  0
    7.1586    0.0781   18.5835 C   0  0  0  0  0  0  0  0  0  0  0  0
    8.1033   -0.4162   18.3523 H   0  0  0  0  0  0  0  0  0  0  0  0
    6.5489    0.6830   17.5553 N   0  0  0  0  0  0  0  0  0  0  0  0
    5.3871    1.3069   17.8080 C   0  0  0  0  0  0  0  0  0  0  0  0
    4.9258    1.8095   16.9598 H   0  0  0  0  0  0  0  0  0  0  0  0
    4.7871    1.3279   19.0730 C   0  0  0  0  0  0  0  0  0  0  0  0
    3.8544    1.8577   19.2200 H   0  0  0  0  0  0  0  0  0  0  0  0
    5.4204    0.6693   20.1252 C   0  0  0  0  0  0  0  0  0  0  0  0
    4.9913    0.6517   21.1275 H   0  0  0  0  0  0  0  0  0  0  0  0
    6.7001   -1.5224   21.8539 C   0  0  0  0  0  0  0  0  0  0  0  0
    5.6395   -1.6940   21.7318 H   0  0  0  0  0  0  0  0  0  0  0  0
  1  2  1  0
  2  3  1  0
  3  4  1  0
  3  5  1  0
  5  6  2  0
  5  7  1  0
  7  8  1  0
  7  9  1  0
  7 10  1  0
 10 11  1  0
 10 12  1  0
 10 13  1  0
 13 14  1  0
 13 15  1  0
 13 16  1  0
 16 17  1  0
 16 18  1  0
 16 19  1  0
 19 20  2  0
 20 21  1  0
 21 22  1  0
 21 23  2  0
 23 24  1  0
 23 25  1  0
 25 26  1  0
 26 27  2  0
 27 28  1  0
 27 29  1  0
 29 30  2  0
 30 31  1  0
 30 32  1  0
 32 33  1  0
 32 34  2  0
 34 35  1  0
 25 36  2  0
 36 37  1  0
 36 19  1  0
 34 26  1  0
M  END
>  <cnnaffinity>  (1) 
-5.48291

>  <filename>  (1) 
O=C(CCCCc1cc(-c2cccnc2)ccn1)NO

$$$$
