
     RDKit          3D

 37 38  0  0  0  0  0  0  0  0999 V2000
    8.9083   -7.4684   21.8052 H   0  0  0  0  0  0  0  0  0  0  0  0
    8.7337   -7.0753   22.6782 O   0  0  0  0  0  0  0  0  0  0  0  0
    8.0058   -6.0283   22.2581 C   0  0  0  0  0  0  0  0  0  0  0  0
    7.7559   -5.9427   21.0799 O   0  0  0  0  0  0  0  0  0  0  0  0
    7.6285   -5.0881   23.3673 C   0  0  0  0  0  0  0  0  0  0  0  0
    6.5611   -4.8703   23.2982 H   0  0  0  0  0  0  0  0  0  0  0  0
    7.8253   -5.5635   24.3272 H   0  0  0  0  0  0  0  0  0  0  0  0
    8.3953   -3.7685   23.2471 C   0  0  0  0  0  0  0  0  0  0  0  0
    8.0558   -3.0503   24.0256 H   0  0  0  0  0  0  0  0  0  0  0  0
    9.4572   -3.9350   23.4597 H   0  0  0  0  0  0  0  0  0  0  0  0
    8.2953   -3.2733   21.8901 N   0  0  0  0  0  0  0  0  0  0  0  0
    6.9614   -2.8958   21.4355 C   0  0  0  0  0  0  0  0  0  0  0  0
    6.9449   -2.9616   20.3402 H   0  0  0  0  0  0  0  0  0  0  0  0
    6.2455   -3.6509   21.7747 H   0  0  0  0  0  0  0  0  0  0  0  0
    6.4611   -1.4927   21.8503 C   0  0  0  0  0  0  0  0  0  0  0  0
    5.3910   -1.4559   21.6301 H   0  0  0  0  0  0  0  0  0  0  0  0
    6.5922   -1.3654   22.9380 H   0  0  0  0  0  0  0  0  0  0  0  0
    7.1122   -0.4013   21.1368 N   0  0  0  0  0  0  0  0  0  0  0  0
    6.4972    0.1317   19.9770 C   0  0  0  0  0  0  0  0  0  0  0  0
    7.0886    0.0972   18.6852 C   0  0  0  0  0  0  0  0  0  0  0  0
    8.0321   -0.4327   18.5478 H   0  0  0  0  0  0  0  0  0  0  0  0
    6.5615    0.6614   17.5885 N   0  0  0  0  0  0  0  0  0  0  0  0
    5.3929    1.3074   17.7342 C   0  0  0  0  0  0  0  0  0  0  0  0
    4.9969    1.7825   16.8415 H   0  0  0  0  0  0  0  0  0  0  0  0
    4.6927    1.3699   18.9456 C   0  0  0  0  0  0  0  0  0  0  0  0
    3.7425    1.8935   18.9941 H   0  0  0  0  0  0  0  0  0  0  0  0
    5.2382    0.7532   20.0770 C   0  0  0  0  0  0  0  0  0  0  0  0
    4.7376    0.7687   21.0467 H   0  0  0  0  0  0  0  0  0  0  0  0
    8.4236    0.0741   21.5627 C   0  0  0  0  0  0  0  0  0  0  0  0
    8.9202    0.5076   20.6828 H   0  0  0  0  0  0  0  0  0  0  0  0
    8.3100    0.9015   22.2865 H   0  0  0  0  0  0  0  0  0  0  0  0
    9.3493   -0.9923   22.1691 C   0  0  0  0  0  0  0  0  0  0  0  0
    9.0992   -1.1470   23.2267 H   0  0  0  0  0  0  0  0  0  0  0  0
   10.3688   -0.5921   22.1455 H   0  0  0  0  0  0  0  0  0  0  0  0
    9.3441   -2.3551   21.4630 C   0  0  0  0  0  0  0  0  0  0  0  0
   10.3101   -2.8525   21.6128 H   0  0  0  0  0  0  0  0  0  0  0  0
    9.2616   -2.2190   20.3756 H   0  0  0  0  0  0  0  0  0  0  0  0
  1  2  1  0
  2  3  1  0
  3  4  2  0
  3  5  1  0
  5  6  1  0
  5  7  1  0
  5  8  1  0
  8  9  1  0
  8 10  1  0
  8 11  1  0
 11 12  1  0
 12 13  1  0
 12 14  1  0
 12 15  1  0
 15 16  1  0
 15 17  1  0
 15 18  1  0
 18 19  1  0
 19 20  2  0
 20 21  1  0
 20 22  1  0
 22 23  2  0
 23 24  1  0
 23 25  1  0
 25 26  1  0
 25 27  2  0
 27 28  1  0
 18 29  1  0
 29 30  1  0
 29 31  1  0
 29 32  1  0
 32 33  1  0
 32 34  1  0
 32 35  1  0
 35 36  1  0
 35 37  1  0
 35 11  1  0
 27 19  1  0
M  END
>  <cnnaffinity>  (1) 
-4.79025

>  <filename>  (1) 
O=C(O)CCN1CCCN(c2cccnc2)CC1

$$$$
