
     RDKit          3D

 33 36  0  0  0  0  0  0  0  0999 V2000
    8.6993    0.7184   30.1094 H   0  0  0  0  0  0  0  0  0  0  0  0
    8.3574    0.6075   29.2084 O   0  0  0  0  0  0  0  0  0  0  0  0
    7.8561    1.8435   29.0509 C   0  0  0  0  0  0  0  0  0  0  0  0
    7.9018    2.6040   29.9929 O   0  0  0  0  0  0  0  0  0  0  0  0
    7.3151    2.1314   27.6932 C   0  0  0  0  0  0  0  0  0  0  0  0
    6.5575    3.2970   27.4749 C   0  0  0  0  0  0  0  0  0  0  0  0
    6.3898    3.9856   28.3024 H   0  0  0  0  0  0  0  0  0  0  0  0
    6.0586    3.5729   26.1965 C   0  0  0  0  0  0  0  0  0  0  0  0
    5.4837    4.4801   26.0261 H   0  0  0  0  0  0  0  0  0  0  0  0
    6.3095    2.7019   25.1327 C   0  0  0  0  0  0  0  0  0  0  0  0
    5.9196    2.9145   24.1377 H   0  0  0  0  0  0  0  0  0  0  0  0
    7.0741    1.5376   25.3494 C   0  0  0  0  0  0  0  0  0  0  0  0
    7.3432    0.5907   24.2573 C   0  0  0  0  0  0  0  0  0  0  0  0
    8.1034   -0.5326   24.4228 N   0  0  0  0  0  0  0  0  0  0  0  0
    8.0818   -1.0409   23.2133 C   0  0  0  0  0  0  0  0  0  0  0  0
    8.8766   -2.3088   22.3311 S   0  0  0  0  0  0  0  0  0  0  0  0
    8.3057   -1.6175   20.8389 C   0  0  0  0  0  0  0  0  0  0  0  0
    8.7157   -1.9602   19.9072 H   0  0  0  0  0  0  0  0  0  0  0  0
    7.4348   -0.6010   21.0141 C   0  0  0  0  0  0  0  0  0  0  0  0
    6.6562    0.0987   19.9719 C   0  0  0  0  0  0  0  0  0  0  0  0
    7.1569    0.0874   18.6536 C   0  0  0  0  0  0  0  0  0  0  0  0
    8.1008   -0.4077   18.4379 H   0  0  0  0  0  0  0  0  0  0  0  0
    6.5671    0.6637   17.6031 N   0  0  0  0  0  0  0  0  0  0  0  0
    5.4047    1.2930   17.8335 C   0  0  0  0  0  0  0  0  0  0  0  0
    4.9443    1.7767   16.9728 H   0  0  0  0  0  0  0  0  0  0  0  0
    4.7921    1.3376   19.0927 C   0  0  0  0  0  0  0  0  0  0  0  0
    3.8399    1.8457   19.1974 H   0  0  0  0  0  0  0  0  0  0  0  0
    5.4222    0.7450   20.1904 C   0  0  0  0  0  0  0  0  0  0  0  0
    4.9872    0.7863   21.1927 H   0  0  0  0  0  0  0  0  0  0  0  0
    7.3388   -0.2897   22.3723 N   0  0  0  0  0  0  0  0  0  0  0  0
    6.8655    0.7910   23.0342 N   0  0  0  0  0  0  0  0  0  0  0  0
    7.5903    1.2681   26.6238 C   0  0  0  0  0  0  0  0  0  0  0  0
    8.2279    0.3980   26.7839 H   0  0  0  0  0  0  0  0  0  0  0  0
  1  2  1  0
  2  3  1  0
  3  4  2  0
  3  5  1  0
  5  6  2  0
  6  7  1  0
  6  8  1  0
  8  9  1  0
  8 10  2  0
 10 11  1  0
 10 12  1  0
 12 13  1  0
 13 14  1  0
 14 15  2  0
 15 16  1  0
 16 17  1  0
 17 18  1  0
 17 19  2  0
 19 20  1  0
 20 21  2  0
 21 22  1  0
 21 23  1  0
 23 24  2  0
 24 25  1  0
 24 26  1  0
 26 27  1  0
 26 28  2  0
 28 29  1  0
 19 30  1  0
 30 31  1  0
 12 32  2  0
 32 33  1  0
 32  5  1  0
 31 13  2  0
 30 15  1  0
 28 20  1  0
M  END
>  <cnnaffinity>  (1) 
-5.02855

>  <filename>  (1) 
O=C(O)c1cccc(-c2nc3scc(-c4cccnc4)n3n2)c1

$$$$
