
     RDKit          3D

 32 34  0  0  0  0  0  0  0  0999 V2000
    4.9613    1.7891   16.9895 H   0  0  0  0  0  0  0  0  0  0  0  0
    5.4334    1.2837   17.8257 C   0  0  0  0  0  0  0  0  0  0  0  0
    6.5947    0.6610   17.5581 N   0  0  0  0  0  0  0  0  0  0  0  0
    7.2050    0.0410   18.5760 C   0  0  0  0  0  0  0  0  0  0  0  0
    8.1456   -0.4626   18.3466 H   0  0  0  0  0  0  0  0  0  0  0  0
    6.7052    0.0012   19.9117 C   0  0  0  0  0  0  0  0  0  0  0  0
    7.3689   -0.6254   20.9323 N   0  0  0  0  0  0  0  0  0  0  0  0
    7.0234   -0.7796   22.3278 C   0  0  0  0  0  0  0  0  0  0  0  0
    6.9810    0.1613   22.8974 H   0  0  0  0  0  0  0  0  0  0  0  0
    6.0979   -1.3458   22.4995 H   0  0  0  0  0  0  0  0  0  0  0  0
    8.3362   -1.6037   22.4805 C   0  0  0  0  0  0  0  0  0  0  0  0
    9.0615   -1.1916   23.1773 H   0  0  0  0  0  0  0  0  0  0  0  0
    8.0396   -3.0586   22.7467 C   0  0  0  0  0  0  0  0  0  0  0  0
    7.4214   -3.7134   21.9331 O   0  0  0  0  0  0  0  0  0  0  0  0
    8.5448   -3.6491   24.0202 C   0  0  0  0  0  0  0  0  0  0  0  0
    9.0950   -4.9459   24.0058 C   0  0  0  0  0  0  0  0  0  0  0  0
    8.9678   -5.5334   23.0990 H   0  0  0  0  0  0  0  0  0  0  0  0
    9.7648   -5.4651   25.1137 C   0  0  0  0  0  0  0  0  0  0  0  0
   10.2410   -6.4431   25.1048 H   0  0  0  0  0  0  0  0  0  0  0  0
    9.8258   -4.6828   26.2725 C   0  0  0  0  0  0  0  0  0  0  0  0
   10.7052   -5.2377   27.6517 Cl  0  0  0  0  0  0  0  0  0  0  0  0
    9.2092   -3.4353   26.3580 C   0  0  0  0  0  0  0  0  0  0  0  0
    9.2858   -2.8539   27.2690 H   0  0  0  0  0  0  0  0  0  0  0  0
    8.5469   -2.9411   25.2391 C   0  0  0  0  0  0  0  0  0  0  0  0
    7.6930   -1.4357   25.4236 Cl  0  0  0  0  0  0  0  0  0  0  0  0
    8.6453   -1.3022   20.9941 C   0  0  0  0  0  0  0  0  0  0  0  0
    9.5161   -0.6562   20.8106 H   0  0  0  0  0  0  0  0  0  0  0  0
    8.7167   -2.1879   20.3582 H   0  0  0  0  0  0  0  0  0  0  0  0
    5.4717    0.6422   20.1545 C   0  0  0  0  0  0  0  0  0  0  0  0
    5.0413    0.6239   21.1577 H   0  0  0  0  0  0  0  0  0  0  0  0
    4.8368    1.2926   19.0945 C   0  0  0  0  0  0  0  0  0  0  0  0
    3.8960    1.8172   19.2448 H   0  0  0  0  0  0  0  0  0  0  0  0
  1  2  1  0
  2  3  2  0
  3  4  1  0
  4  5  1  0
  4  6  2  0
  6  7  1  0
  7  8  1  0
  8  9  1  0
  8 10  1  0
  8 11  1  0
 11 12  1  0
 11 13  1  0
 13 14  2  0
 13 15  1  0
 15 16  2  0
 16 17  1  0
 16 18  1  0
 18 19  1  0
 18 20  2  0
 20 21  1  0
 20 22  1  0
 22 23  1  0
 22 24  2  0
 24 25  1  0
 11 26  1  0
 26 27  1  0
 26 28  1  0
  6 29  1  0
 29 30  1  0
 29 31  2  0
 31 32  1  0
 31  2  1  0
 26  7  1  0
 24 15  1  0
M  END
>  <cnnaffinity>  (1) 
-4.96097

>  <filename>  (1) 
O=C(c1ccc(Cl)cc1Cl)C1CN(c2cccnc2)C1

$$$$
