
     RDKit          3D

 28 29  0  0  0  0  0  0  0  0999 V2000
    4.9279    1.8098   16.9894 H   0  0  0  0  0  0  0  0  0  0  0  0
    5.3934    1.2957   17.8268 C   0  0  0  0  0  0  0  0  0  0  0  0
    6.5519    0.6734   17.5540 N   0  0  0  0  0  0  0  0  0  0  0  0
    7.1546    0.0315   18.5632 C   0  0  0  0  0  0  0  0  0  0  0  0
    8.1097   -0.4423   18.3358 H   0  0  0  0  0  0  0  0  0  0  0  0
    6.6409   -0.0305   19.8704 C   0  0  0  0  0  0  0  0  0  0  0  0
    7.5569   -0.8340   21.1560 S   0  0  0  0  0  0  0  0  0  0  0  0
    8.5501    0.6192   21.7097 C   0  0  0  0  0  0  0  0  0  0  0  0
    9.2354    0.2050   22.4543 H   0  0  0  0  0  0  0  0  0  0  0  0
    9.1113    0.9749   20.8415 H   0  0  0  0  0  0  0  0  0  0  0  0
    7.8182    1.7126   22.3051 N   0  0  0  0  0  0  0  0  0  0  0  0
    7.4684    2.4584   21.7226 H   0  0  0  0  0  0  0  0  0  0  0  0
    7.0729    1.4919   23.4359 C   0  0  0  0  0  0  0  0  0  0  0  0
    7.1199    0.4462   24.0559 O   0  0  0  0  0  0  0  0  0  0  0  0
    6.1877    2.6692   23.8839 C   0  0  0  0  0  0  0  0  0  0  0  0
    5.0937    2.4305   24.7447 C   0  0  0  0  0  0  0  0  0  0  0  0
    4.8567    1.4253   25.0812 H   0  0  0  0  0  0  0  0  0  0  0  0
    4.3348    3.5072   25.2224 C   0  0  0  0  0  0  0  0  0  0  0  0
    3.4993    3.3323   25.9013 H   0  0  0  0  0  0  0  0  0  0  0  0
    4.5809    4.7853   24.9112 N   0  0  0  0  0  0  0  0  0  0  0  0
    5.6101    5.0269   24.0902 C   0  0  0  0  0  0  0  0  0  0  0  0
    5.7927    6.0757   23.8541 H   0  0  0  0  0  0  0  0  0  0  0  0
    6.4308    4.0244   23.5575 C   0  0  0  0  0  0  0  0  0  0  0  0
    7.2685    4.3511   22.9474 H   0  0  0  0  0  0  0  0  0  0  0  0
    5.4316    0.6236   20.1400 C   0  0  0  0  0  0  0  0  0  0  0  0
    5.0357    0.6192   21.1573 H   0  0  0  0  0  0  0  0  0  0  0  0
    4.7961    1.2999   19.0936 C   0  0  0  0  0  0  0  0  0  0  0  0
    3.8716    1.8452   19.2431 H   0  0  0  0  0  0  0  0  0  0  0  0
  1  2  1  0
  2  3  2  0
  3  4  1  0
  4  5  1  0
  4  6  2  0
  6  7  1  0
  7  8  1  0
  8  9  1  0
  8 10  1  0
  8 11  1  0
 11 12  1  0
 11 13  1  0
 13 14  2  0
 13 15  1  0
 15 16  2  0
 16 17  1  0
 16 18  1  0
 18 19  1  0
 18 20  2  0
 20 21  1  0
 21 22  1  0
 21 23  2  0
 23 24  1  0
  6 25  1  0
 25 26  1  0
 25 27  2  0
 27 28  1  0
 27  2  1  0
 23 15  1  0
M  END
>  <cnnaffinity>  (1) 
-4.28292

>  <filename>  (1) 
O=C(NCSc1cccnc1)c1ccncc1

$$$$
