
     RDKit          3D

 31 33  0  0  0  0  0  0  0  0999 V2000
    7.0337    3.8318   26.8161 H   0  0  0  0  0  0  0  0  0  0  0  0
    6.5408    3.0966   26.4120 O   0  0  0  0  0  0  0  0  0  0  0  0
    7.5881    2.4918   25.8297 C   0  0  0  0  0  0  0  0  0  0  0  0
    8.6805    2.9894   25.9597 O   0  0  0  0  0  0  0  0  0  0  0  0
    7.2392    1.2167   25.1156 C   0  0  0  0  0  0  0  0  0  0  0  0
    7.9388    1.1184   24.2822 H   0  0  0  0  0  0  0  0  0  0  0  0
    6.2275    1.3209   24.7094 H   0  0  0  0  0  0  0  0  0  0  0  0
    7.3170    0.0081   26.0679 C   0  0  0  0  0  0  0  0  0  0  0  0
    6.6753    0.1722   26.9469 H   0  0  0  0  0  0  0  0  0  0  0  0
    8.3441   -0.0904   26.4479 H   0  0  0  0  0  0  0  0  0  0  0  0
    6.8962   -1.3049   25.3763 C   0  0  0  0  0  0  0  0  0  0  0  0
    6.8653   -2.1114   26.1126 H   0  0  0  0  0  0  0  0  0  0  0  0
    5.8949   -1.2146   24.9363 H   0  0  0  0  0  0  0  0  0  0  0  0
    7.8595   -1.7269   24.3163 C   0  0  0  0  0  0  0  0  0  0  0  0
    8.9939   -2.3492   24.5218 N   0  0  0  0  0  0  0  0  0  0  0  0
    9.6702   -2.4678   23.3213 N   0  0  0  0  0  0  0  0  0  0  0  0
    8.9088   -1.9047   22.4285 C   0  0  0  0  0  0  0  0  0  0  0  0
    8.9377   -1.4858   20.7432 S   0  0  0  0  0  0  0  0  0  0  0  0
    7.3583   -0.6893   20.9891 C   0  0  0  0  0  0  0  0  0  0  0  0
    6.6444    0.0112   19.9165 C   0  0  0  0  0  0  0  0  0  0  0  0
    7.1692    0.0543   18.6140 C   0  0  0  0  0  0  0  0  0  0  0  0
    8.1176   -0.4268   18.3772 H   0  0  0  0  0  0  0  0  0  0  0  0
    6.5643    0.6687   17.5947 N   0  0  0  0  0  0  0  0  0  0  0  0
    5.4025    1.2888   17.8440 C   0  0  0  0  0  0  0  0  0  0  0  0
    4.9373    1.7831   16.9935 H   0  0  0  0  0  0  0  0  0  0  0  0
    4.7967    1.3139   19.1056 C   0  0  0  0  0  0  0  0  0  0  0  0
    3.8648    1.8503   19.2416 H   0  0  0  0  0  0  0  0  0  0  0  0
    5.4214    0.6613   20.1653 C   0  0  0  0  0  0  0  0  0  0  0  0
    4.9852    0.6487   21.1658 H   0  0  0  0  0  0  0  0  0  0  0  0
    6.8823   -0.7508   22.1929 N   0  0  0  0  0  0  0  0  0  0  0  0
    7.7529   -1.4394   22.9778 N   0  0  0  0  0  0  0  0  0  0  0  0
  1  2  1  0
  2  3  1  0
  3  4  2  0
  3  5  1  0
  5  6  1  0
  5  7  1  0
  5  8  1  0
  8  9  1  0
  8 10  1  0
  8 11  1  0
 11 12  1  0
 11 13  1  0
 11 14  1  0
 14 15  2  0
 15 16  1  0
 16 17  2  0
 17 18  1  0
 18 19  1  0
 19 20  1  0
 20 21  2  0
 21 22  1  0
 21 23  1  0
 23 24  2  0
 24 25  1  0
 24 26  1  0
 26 27  1  0
 26 28  2  0
 28 29  1  0
 19 30  2  0
 30 31  1  0
 31 14  1  0
 31 17  1  0
 28 20  1  0
M  END
>  <cnnaffinity>  (1) 
-5.67058

>  <filename>  (1) 
O=C(O)CCCc1nnc2sc(-c3cccnc3)nn12

$$$$
