
     RDKit          3D

 31 32  0  0  0  0  0  0  0  0999 V2000
    4.9124    1.7912   16.9871 H   0  0  0  0  0  0  0  0  0  0  0  0
    5.3925    1.2998   17.8294 C   0  0  0  0  0  0  0  0  0  0  0  0
    6.5537    0.6822   17.5635 N   0  0  0  0  0  0  0  0  0  0  0  0
    7.1520    0.0546   18.5823 C   0  0  0  0  0  0  0  0  0  0  0  0
    8.1093   -0.4172   18.3683 H   0  0  0  0  0  0  0  0  0  0  0  0
    6.6365   -0.0068   19.8911 C   0  0  0  0  0  0  0  0  0  0  0  0
    7.3941   -0.6673   21.0295 C   0  0  0  0  0  0  0  0  0  0  0  0
    6.6969   -1.0450   21.7941 H   0  0  0  0  0  0  0  0  0  0  0  0
    7.9659   -1.5208   20.6563 H   0  0  0  0  0  0  0  0  0  0  0  0
    8.4343    0.2839   21.6452 C   0  0  0  0  0  0  0  0  0  0  0  0
    9.5981    0.2968   21.2870 O   0  0  0  0  0  0  0  0  0  0  0  0
    7.9785    1.1686   22.5726 N   0  0  0  0  0  0  0  0  0  0  0  0
    7.0056    1.1869   22.8139 H   0  0  0  0  0  0  0  0  0  0  0  0
    8.8679    2.1575   23.1645 C   0  0  0  0  0  0  0  0  0  0  0  0
    9.7060    1.6396   23.6435 H   0  0  0  0  0  0  0  0  0  0  0  0
    9.3104    2.7807   22.3775 H   0  0  0  0  0  0  0  0  0  0  0  0
    8.1388    3.0276   24.1649 C   0  0  0  0  0  0  0  0  0  0  0  0
    7.7430    4.3327   23.8245 C   0  0  0  0  0  0  0  0  0  0  0  0
    7.9666    4.7025   22.8262 H   0  0  0  0  0  0  0  0  0  0  0  0
    7.0606    5.1541   24.7259 C   0  0  0  0  0  0  0  0  0  0  0  0
    6.7523    6.1526   24.4255 H   0  0  0  0  0  0  0  0  0  0  0  0
    6.7687    4.6848   26.0090 C   0  0  0  0  0  0  0  0  0  0  0  0
    6.2344    5.3131   26.7175 H   0  0  0  0  0  0  0  0  0  0  0  0
    7.1616    3.3989   26.3871 C   0  0  0  0  0  0  0  0  0  0  0  0
    6.9408    3.0071   27.3765 H   0  0  0  0  0  0  0  0  0  0  0  0
    7.8391    2.5903   25.4683 C   0  0  0  0  0  0  0  0  0  0  0  0
    8.2892    0.9887   25.9814 Cl  0  0  0  0  0  0  0  0  0  0  0  0
    5.4322    0.6532   20.1460 C   0  0  0  0  0  0  0  0  0  0  0  0
    5.0098    0.6356   21.1556 H   0  0  0  0  0  0  0  0  0  0  0  0
    4.7983    1.3199   19.0950 C   0  0  0  0  0  0  0  0  0  0  0  0
    3.8676    1.8503   19.2499 H   0  0  0  0  0  0  0  0  0  0  0  0
  1  2  1  0
  2  3  2  0
  3  4  1  0
  4  5  1  0
  4  6  2  0
  6  7  1  0
  7  8  1  0
  7  9  1  0
  7 10  1  0
 10 11  2  0
 10 12  1  0
 12 13  1  0
 12 14  1  0
 14 15  1  0
 14 16  1  0
 14 17  1  0
 17 18  2  0
 18 19  1  0
 18 20  1  0
 20 21  1  0
 20 22  2  0
 22 23  1  0
 22 24  1  0
 24 25  1  0
 24 26  2  0
 26 27  1  0
  6 28  1  0
 28 29  1  0
 28 30  2  0
 30 31  1  0
 30  2  1  0
 26 17  1  0
M  END
>  <cnnaffinity>  (1) 
-4.3193

>  <filename>  (1) 
O=C(Cc1cccnc1)NCc1ccccc1Cl

$$$$
