
     RDKit          3D

 32 34  0  0  0  0  0  0  0  0999 V2000
    6.0202   -5.9121   28.6670 H   0  0  0  0  0  0  0  0  0  0  0  0
    5.8698   -5.2925   27.9353 O   0  0  0  0  0  0  0  0  0  0  0  0
    7.1077   -5.3037   27.4115 C   0  0  0  0  0  0  0  0  0  0  0  0
    7.9447   -5.9923   27.9524 O   0  0  0  0  0  0  0  0  0  0  0  0
    7.2662   -4.4373   26.2135 C   0  0  0  0  0  0  0  0  0  0  0  0
    8.5151   -4.3654   25.5651 C   0  0  0  0  0  0  0  0  0  0  0  0
    9.3597   -4.9406   25.9383 H   0  0  0  0  0  0  0  0  0  0  0  0
    8.6807   -3.5562   24.4445 C   0  0  0  0  0  0  0  0  0  0  0  0
    9.6436   -3.5222   23.9458 H   0  0  0  0  0  0  0  0  0  0  0  0
    7.6109   -2.7931   23.9390 C   0  0  0  0  0  0  0  0  0  0  0  0
    7.7333   -1.9404   22.7468 C   0  0  0  0  0  0  0  0  0  0  0  0
    6.7680   -1.4427   21.9336 C   0  0  0  0  0  0  0  0  0  0  0  0
    5.7027   -1.5996   21.9570 H   0  0  0  0  0  0  0  0  0  0  0  0
    7.3599   -0.6725   20.9370 N   0  0  0  0  0  0  0  0  0  0  0  0
    6.6644    0.0057   19.8999 C   0  0  0  0  0  0  0  0  0  0  0  0
    7.1727    0.0544   18.5847 C   0  0  0  0  0  0  0  0  0  0  0  0
    8.1270   -0.4205   18.3725 H   0  0  0  0  0  0  0  0  0  0  0  0
    6.5531    0.6698   17.5737 N   0  0  0  0  0  0  0  0  0  0  0  0
    5.3946    1.2927   17.8373 C   0  0  0  0  0  0  0  0  0  0  0  0
    4.9176    1.7885   16.9954 H   0  0  0  0  0  0  0  0  0  0  0  0
    4.8123    1.3070   19.1082 C   0  0  0  0  0  0  0  0  0  0  0  0
    3.8819    1.8368   19.2634 H   0  0  0  0  0  0  0  0  0  0  0  0
    5.4459    0.6437   20.1617 C   0  0  0  0  0  0  0  0  0  0  0  0
    5.0230    0.6355   21.1666 H   0  0  0  0  0  0  0  0  0  0  0  0
    8.7503   -0.6760   21.1302 C   0  0  0  0  0  0  0  0  0  0  0  0
    9.6241   -0.1192   20.4972 O   0  0  0  0  0  0  0  0  0  0  0  0
    8.9372   -1.4754   22.2231 N   0  0  0  0  0  0  0  0  0  0  0  0
    9.8737   -1.5722   22.5695 H   0  0  0  0  0  0  0  0  0  0  0  0
    6.3656   -2.8733   24.5950 C   0  0  0  0  0  0  0  0  0  0  0  0
    5.5363   -2.2828   24.2217 H   0  0  0  0  0  0  0  0  0  0  0  0
    6.1848   -3.6773   25.7118 C   0  0  0  0  0  0  0  0  0  0  0  0
    5.2064   -3.7133   26.1911 H   0  0  0  0  0  0  0  0  0  0  0  0
  1  2  1  0
  2  3  1  0
  3  4  2  0
  3  5  1  0
  5  6  2  0
  6  7  1  0
  6  8  1  0
  8  9  1  0
  8 10  2  0
 10 11  1  0
 11 12  2  0
 12 13  1  0
 12 14  1  0
 14 15  1  0
 15 16  2  0
 16 17  1  0
 16 18  1  0
 18 19  2  0
 19 20  1  0
 19 21  1  0
 21 22  1  0
 21 23  2  0
 23 24  1  0
 14 25  1  0
 25 26  2  0
 25 27  1  0
 27 28  1  0
 10 29  1  0
 29 30  1  0
 29 31  2  0
 31 32  1  0
 31  5  1  0
 27 11  1  0
 23 15  1  0
M  END
>  <cnnaffinity>  (1) 
-5.18553

>  <filename>  (1) 
O=C(O)c1ccc(-c2cn(-c3cccnc3)c(=O)[nH]2)cc1

$$$$
