
     RDKit          3D

 42 45  0  0  0  0  0  0  0  0999 V2000
    4.9551    1.7997   16.9966 H   0  0  0  0  0  0  0  0  0  0  0  0
    5.4230    1.2874   17.8347 C   0  0  0  0  0  0  0  0  0  0  0  0
    6.5828    0.6573   17.5877 N   0  0  0  0  0  0  0  0  0  0  0  0
    7.1839    0.0410   18.6089 C   0  0  0  0  0  0  0  0  0  0  0  0
    8.1314   -0.4547   18.3866 H   0  0  0  0  0  0  0  0  0  0  0  0
    6.6573    0.0083   19.9076 C   0  0  0  0  0  0  0  0  0  0  0  0
    7.3470   -0.7105   20.9882 C   0  0  0  0  0  0  0  0  0  0  0  0
    6.7913   -0.8635   22.1388 N   0  0  0  0  0  0  0  0  0  0  0  0
    7.6168   -1.5605   22.9535 N   0  0  0  0  0  0  0  0  0  0  0  0
    7.5212   -2.0478   24.2398 C   0  0  0  0  0  0  0  0  0  0  0  0
    6.4196   -1.7875   25.0794 N   0  0  0  0  0  0  0  0  0  0  0  0
    6.2221   -2.4185   25.8364 H   0  0  0  0  0  0  0  0  0  0  0  0
    5.7414   -0.5837   25.2214 C   0  0  0  0  0  0  0  0  0  0  0  0
    6.0769    0.4825   24.7544 O   0  0  0  0  0  0  0  0  0  0  0  0
    4.6292   -0.7616   26.0053 N   0  0  0  0  0  0  0  0  0  0  0  0
    4.4007   -1.6992   26.2720 H   0  0  0  0  0  0  0  0  0  0  0  0
    3.6452    0.3171   26.1238 C   0  0  0  0  0  0  0  0  0  0  0  0
    3.5080    0.7417   25.1213 H   0  0  0  0  0  0  0  0  0  0  0  0
    2.2857   -0.1875   26.6155 C   0  0  0  0  0  0  0  0  0  0  0  0
    1.6027    0.6694   26.5323 H   0  0  0  0  0  0  0  0  0  0  0  0
    1.8927   -0.9460   25.9299 H   0  0  0  0  0  0  0  0  0  0  0  0
    2.2732   -0.6815   28.0826 C   0  0  0  0  0  0  0  0  0  0  0  0
    2.3989   -1.7698   28.1325 H   0  0  0  0  0  0  0  0  0  0  0  0
    1.2762   -0.4784   28.4956 H   0  0  0  0  0  0  0  0  0  0  0  0
    3.3534   -0.0043   28.9609 C   0  0  0  0  0  0  0  0  0  0  0  0
    4.2824   -0.5884   28.9255 H   0  0  0  0  0  0  0  0  0  0  0  0
    3.0386   -0.0030   30.0107 H   0  0  0  0  0  0  0  0  0  0  0  0
    3.6560    1.4229   28.4872 C   0  0  0  0  0  0  0  0  0  0  0  0
    4.3853    1.9066   29.1466 H   0  0  0  0  0  0  0  0  0  0  0  0
    2.7394    2.0240   28.5526 H   0  0  0  0  0  0  0  0  0  0  0  0
    4.1831    1.4514   27.0350 C   0  0  0  0  0  0  0  0  0  0  0  0
    5.2754    1.3921   27.0235 H   0  0  0  0  0  0  0  0  0  0  0  0
    3.9234    2.4072   26.5679 H   0  0  0  0  0  0  0  0  0  0  0  0
    8.6640   -2.7886   24.3955 C   0  0  0  0  0  0  0  0  0  0  0  0
    8.9627   -3.3430   25.2780 H   0  0  0  0  0  0  0  0  0  0  0  0
    9.4643   -2.7688   23.2686 N   0  0  0  0  0  0  0  0  0  0  0  0
    8.7896   -2.0220   22.4310 C   0  0  0  0  0  0  0  0  0  0  0  0
    8.9494   -1.4460   20.8038 S   0  0  0  0  0  0  0  0  0  0  0  0
    5.4349    0.6619   20.1513 C   0  0  0  0  0  0  0  0  0  0  0  0
    5.0105    0.6565   21.1558 H   0  0  0  0  0  0  0  0  0  0  0  0
    4.8086    1.3101   19.0908 C   0  0  0  0  0  0  0  0  0  0  0  0
    3.8734    1.8417   19.2327 H   0  0  0  0  0  0  0  0  0  0  0  0
  1  2  1  0
  2  3  2  0
  3  4  1  0
  4  5  1  0
  4  6  2  0
  6  7  1  0
  7  8  2  0
  8  9  1  0
  9 10  1  0
 10 11  1  0
 11 12  1  0
 11 13  1  0
 13 14  2  0
 13 15  1  0
 15 16  1  0
 15 17  1  0
 17 18  1  0
 17 19  1  0
 19 20  1  0
 19 21  1  0
 19 22  1  0
 22 23  1  0
 22 24  1  0
 22 25  1  0
 25 26  1  0
 25 27  1  0
 25 28  1  0
 28 29  1  0
 28 30  1  0
 28 31  1  0
 31 32  1  0
 31 33  1  0
 10 34  2  0
 34 35  1  0
 34 36  1  0
 36 37  2  0
 37 38  1  0
  6 39  1  0
 39 40  1  0
 39 41  2  0
 41 42  1  0
 41  2  1  0
 38  7  1  0
 37  9  1  0
 31 17  1  0
M  END
>  <cnnaffinity>  (1) 
-5.43691

>  <filename>  (1) 
O=C(Nc1cnc2sc(-c3cccnc3)nn12)NC1CCCCC1

$$$$
