
     RDKit          3D

 32 34  0  0  0  0  0  0  0  0999 V2000
    4.9395    1.8094   16.9637 H   0  0  0  0  0  0  0  0  0  0  0  0
    5.4117    1.3075   17.8034 C   0  0  0  0  0  0  0  0  0  0  0  0
    6.5608    0.6663   17.5350 N   0  0  0  0  0  0  0  0  0  0  0  0
    7.1690    0.0373   18.5487 C   0  0  0  0  0  0  0  0  0  0  0  0
    8.1072   -0.4620   18.3197 H   0  0  0  0  0  0  0  0  0  0  0  0
    6.6493   -0.0041   19.8602 C   0  0  0  0  0  0  0  0  0  0  0  0
    7.3025   -0.7129   20.9114 N   0  0  0  0  0  0  0  0  0  0  0  0
    6.6813   -1.6951   21.6951 C   0  0  0  0  0  0  0  0  0  0  0  0
    5.6365   -1.9374   21.5958 H   0  0  0  0  0  0  0  0  0  0  0  0
    7.6035   -2.1061   22.5798 C   0  0  0  0  0  0  0  0  0  0  0  0
    7.5540   -3.0320   23.6036 N   0  0  0  0  0  0  0  0  0  0  0  0
    6.7688   -3.6553   23.6006 H   0  0  0  0  0  0  0  0  0  0  0  0
    8.4787   -3.1521   24.6058 C   0  0  0  0  0  0  0  0  0  0  0  0
    9.5126   -2.4956   24.6445 O   0  0  0  0  0  0  0  0  0  0  0  0
    8.1660   -4.1785   25.6863 C   0  0  0  0  0  0  0  0  0  0  0  0
    6.9100   -4.7776   25.8980 C   0  0  0  0  0  0  0  0  0  0  0  0
    6.0298   -4.5364   25.3083 H   0  0  0  0  0  0  0  0  0  0  0  0
    6.7577   -5.7114   26.9291 C   0  0  0  0  0  0  0  0  0  0  0  0
    5.8107   -6.2316   27.0583 H   0  0  0  0  0  0  0  0  0  0  0  0
    7.7342   -6.0465   27.7821 N   0  0  0  0  0  0  0  0  0  0  0  0
    8.9279   -5.4735   27.5909 C   0  0  0  0  0  0  0  0  0  0  0  0
    9.7248   -5.7175   28.2874 H   0  0  0  0  0  0  0  0  0  0  0  0
    9.1948   -4.5675   26.5665 C   0  0  0  0  0  0  0  0  0  0  0  0
   10.1969   -4.1808   26.4394 H   0  0  0  0  0  0  0  0  0  0  0  0
    8.7459   -1.3975   22.3685 N   0  0  0  0  0  0  0  0  0  0  0  0
    9.5048   -1.4137   23.0304 H   0  0  0  0  0  0  0  0  0  0  0  0
    8.5884   -0.4915   21.3668 C   0  0  0  0  0  0  0  0  0  0  0  0
    9.7121    0.6283   20.8969 S   0  0  0  0  0  0  0  0  0  0  0  0
    5.4511    0.6676   20.1267 C   0  0  0  0  0  0  0  0  0  0  0  0
    5.0444    0.6678   21.1421 H   0  0  0  0  0  0  0  0  0  0  0  0
    4.8203    1.3377   19.0737 C   0  0  0  0  0  0  0  0  0  0  0  0
    3.8871    1.8742   19.2245 H   0  0  0  0  0  0  0  0  0  0  0  0
  1  2  1  0
  2  3  2  0
  3  4  1  0
  4  5  1  0
  4  6  2  0
  6  7  1  0
  7  8  1  0
  8  9  1  0
  8 10  2  0
 10 11  1  0
 11 12  1  0
 11 13  1  0
 13 14  2  0
 13 15  1  0
 15 16  2  0
 16 17  1  0
 16 18  1  0
 18 19  1  0
 18 20  2  0
 20 21  1  0
 21 22  1  0
 21 23  2  0
 23 24  1  0
 10 25  1  0
 25 26  1  0
 25 27  1  0
 27 28  2  0
  6 29  1  0
 29 30  1  0
 29 31  2  0
 31 32  1  0
 31  2  1  0
 27  7  1  0
 23 15  1  0
M  END
>  <cnnaffinity>  (1) 
-5.22478

>  <filename>  (1) 
O=C(Nc1cn(-c2cccnc2)c(=S)[nH]1)c1ccncc1

$$$$
