
     RDKit          3D

 39 42  0  0  0  0  0  0  0  0999 V2000
    4.9588    1.7890   16.9706 H   0  0  0  0  0  0  0  0  0  0  0  0
    5.4347    1.2913   17.8094 C   0  0  0  0  0  0  0  0  0  0  0  0
    6.5981    0.6749   17.5549 N   0  0  0  0  0  0  0  0  0  0  0  0
    7.2188    0.0700   18.5728 C   0  0  0  0  0  0  0  0  0  0  0  0
    8.1606   -0.4201   18.3269 H   0  0  0  0  0  0  0  0  0  0  0  0
    6.7084    0.0373   19.8855 C   0  0  0  0  0  0  0  0  0  0  0  0
    7.4020   -0.7035   20.9579 C   0  0  0  0  0  0  0  0  0  0  0  0
    8.6136   -1.2570   20.7666 N   0  0  0  0  0  0  0  0  0  0  0  0
    8.8397   -1.8868   21.9384 N   0  0  0  0  0  0  0  0  0  0  0  0
    9.8237   -2.7329   22.4291 C   0  0  0  0  0  0  0  0  0  0  0  0
   10.7331   -2.8772   21.8733 H   0  0  0  0  0  0  0  0  0  0  0  0
    9.3538   -3.2186   23.6021 C   0  0  0  0  0  0  0  0  0  0  0  0
    9.7548   -3.9819   24.2550 H   0  0  0  0  0  0  0  0  0  0  0  0
    8.1010   -2.6227   23.8709 N   0  0  0  0  0  0  0  0  0  0  0  0
    7.1025   -2.9664   24.8109 C   0  0  0  0  0  0  0  0  0  0  0  0
    5.9330   -2.6701   24.6561 O   0  0  0  0  0  0  0  0  0  0  0  0
    7.5578   -3.7251   25.8726 N   0  0  0  0  0  0  0  0  0  0  0  0
    8.6388   -3.2584   26.7624 C   0  0  0  0  0  0  0  0  0  0  0  0
    8.2204   -2.6383   27.5766 H   0  0  0  0  0  0  0  0  0  0  0  0
    9.3356   -2.6150   26.2159 H   0  0  0  0  0  0  0  0  0  0  0  0
    9.3511   -4.4741   27.3533 C   0  0  0  0  0  0  0  0  0  0  0  0
    9.8396   -5.0194   26.5369 H   0  0  0  0  0  0  0  0  0  0  0  0
   10.1444   -4.1697   28.0428 H   0  0  0  0  0  0  0  0  0  0  0  0
    8.3365   -5.3842   28.0523 C   0  0  0  0  0  0  0  0  0  0  0  0
    7.8466   -4.8008   28.8414 H   0  0  0  0  0  0  0  0  0  0  0  0
    8.8184   -6.2315   28.5437 H   0  0  0  0  0  0  0  0  0  0  0  0
    7.2418   -5.8255   27.0791 C   0  0  0  0  0  0  0  0  0  0  0  0
    7.6664   -6.4024   26.2496 H   0  0  0  0  0  0  0  0  0  0  0  0
    6.5038   -6.4758   27.5637 H   0  0  0  0  0  0  0  0  0  0  0  0
    6.5599   -4.5827   26.5264 C   0  0  0  0  0  0  0  0  0  0  0  0
    5.7847   -4.8383   25.8001 H   0  0  0  0  0  0  0  0  0  0  0  0
    6.0674   -4.0304   27.3421 H   0  0  0  0  0  0  0  0  0  0  0  0
    7.8223   -1.7781   22.8046 C   0  0  0  0  0  0  0  0  0  0  0  0
    6.8712   -0.9642   22.2401 C   0  0  0  0  0  0  0  0  0  0  0  0
    5.9767   -0.5814   22.6874 H   0  0  0  0  0  0  0  0  0  0  0  0
    5.4814    0.6828   20.1245 C   0  0  0  0  0  0  0  0  0  0  0  0
    5.0314    0.6921   21.1177 H   0  0  0  0  0  0  0  0  0  0  0  0
    4.8356    1.3151   19.0699 C   0  0  0  0  0  0  0  0  0  0  0  0
    3.8914    1.8255   19.2160 H   0  0  0  0  0  0  0  0  0  0  0  0
  1  2  1  0
  2  3  2  0
  3  4  1  0
  4  5  1  0
  4  6  2  0
  6  7  1  0
  7  8  2  0
  8  9  1  0
  9 10  1  0
 10 11  1  0
 10 12  2  0
 12 13  1  0
 12 14  1  0
 14 15  1  0
 15 16  2  0
 15 17  1  0
 17 18  1  0
 18 19  1  0
 18 20  1  0
 18 21  1  0
 21 22  1  0
 21 23  1  0
 21 24  1  0
 24 25  1  0
 24 26  1  0
 24 27  1  0
 27 28  1  0
 27 29  1  0
 27 30  1  0
 30 31  1  0
 30 32  1  0
 14 33  1  0
 33 34  2  0
 34 35  1  0
  6 36  1  0
 36 37  1  0
 36 38  2  0
 38 39  1  0
 38  2  1  0
 34  7  1  0
 33  9  1  0
 30 17  1  0
M  END
>  <cnnaffinity>  (1) 
-5.28113

>  <filename>  (1) 
O=C(N1CCCCC1)n1ccn2nc(-c3cccnc3)cc12

$$$$
