
     RDKit          3D

 33 36  0  0  0  0  0  0  0  0999 V2000
    4.9845    1.8462   16.9125 H   0  0  0  0  0  0  0  0  0  0  0  0
    5.4208    1.2927   17.7429 C   0  0  0  0  0  0  0  0  0  0  0  0
    6.5658    0.6402   17.4916 N   0  0  0  0  0  0  0  0  0  0  0  0
    7.1468   -0.0068   18.5079 C   0  0  0  0  0  0  0  0  0  0  0  0
    8.0780   -0.5192   18.2783 H   0  0  0  0  0  0  0  0  0  0  0  0
    6.6214   -0.0406   19.8161 C   0  0  0  0  0  0  0  0  0  0  0  0
    7.3768   -0.6318   20.9356 C   0  0  0  0  0  0  0  0  0  0  0  0
    8.5245   -1.3041   20.7344 N   0  0  0  0  0  0  0  0  0  0  0  0
    8.9519   -1.5354   21.9947 N   0  0  0  0  0  0  0  0  0  0  0  0
   10.0959   -2.0918   22.5469 C   0  0  0  0  0  0  0  0  0  0  0  0
   10.8369   -2.5576   21.9248 H   0  0  0  0  0  0  0  0  0  0  0  0
   10.0096   -1.8907   23.8865 C   0  0  0  0  0  0  0  0  0  0  0  0
   10.6725   -2.1526   24.6972 H   0  0  0  0  0  0  0  0  0  0  0  0
    8.8387   -1.2012   24.1449 N   0  0  0  0  0  0  0  0  0  0  0  0
    8.4424   -0.8067   25.4077 N   0  0  0  0  0  0  0  0  0  0  0  0
    8.9422   -0.0145   25.7872 H   0  0  0  0  0  0  0  0  0  0  0  0
    7.0873   -0.7845   25.7078 C   0  0  0  0  0  0  0  0  0  0  0  0
    6.2716   -1.4670   25.1152 O   0  0  0  0  0  0  0  0  0  0  0  0
    6.6977    0.1670   26.7949 C   0  0  0  0  0  0  0  0  0  0  0  0
    7.6148    1.0202   27.3769 O   0  0  0  0  0  0  0  0  0  0  0  0
    6.9399    1.7706   28.2837 C   0  0  0  0  0  0  0  0  0  0  0  0
    7.5098    2.5050   28.8381 H   0  0  0  0  0  0  0  0  0  0  0  0
    5.6267    1.4334   28.2984 C   0  0  0  0  0  0  0  0  0  0  0  0
    4.8533    1.8539   28.9287 H   0  0  0  0  0  0  0  0  0  0  0  0
    5.4674    0.3994   27.3291 C   0  0  0  0  0  0  0  0  0  0  0  0
    4.5651   -0.1178   27.0306 H   0  0  0  0  0  0  0  0  0  0  0  0
    8.1623   -1.0137   22.9527 C   0  0  0  0  0  0  0  0  0  0  0  0
    7.0630   -0.4621   22.3034 C   0  0  0  0  0  0  0  0  0  0  0  0
    6.1554   -0.0863   22.7451 H   0  0  0  0  0  0  0  0  0  0  0  0
    5.3989    0.6082   20.0467 C   0  0  0  0  0  0  0  0  0  0  0  0
    4.9355    0.5997   21.0361 H   0  0  0  0  0  0  0  0  0  0  0  0
    4.7954    1.2908   18.9956 C   0  0  0  0  0  0  0  0  0  0  0  0
    3.8811    1.8516   19.1451 H   0  0  0  0  0  0  0  0  0  0  0  0
  1  2  1  0
  2  3  2  0
  3  4  1  0
  4  5  1  0
  4  6  2  0
  6  7  1  0
  7  8  2  0
  8  9  1  0
  9 10  1  0
 10 11  1  0
 10 12  2  0
 12 13  1  0
 12 14  1  0
 14 15  1  0
 15 16  1  0
 15 17  1  0
 17 18  2  0
 17 19  1  0
 19 20  1  0
 20 21  1  0
 21 22  1  0
 21 23  2  0
 23 24  1  0
 23 25  1  0
 25 26  1  0
 14 27  1  0
 27 28  2  0
 28 29  1  0
  6 30  1  0
 30 31  1  0
 30 32  2  0
 32 33  1  0
 32  2  1  0
 28  7  1  0
 27  9  1  0
 25 19  2  0
M  END
>  <cnnaffinity>  (1) 
-5.31166

>  <filename>  (1) 
O=C(Nn1ccn2nc(-c3cccnc3)cc12)c1ccco1

$$$$
