
     RDKit          3D

 39 41  0  0  0  0  0  0  0  0999 V2000
    8.5625   -3.6610   21.4274 H   0  0  0  0  0  0  0  0  0  0  0  0
    8.3071   -2.6283   21.6651 C   0  0  0  0  0  0  0  0  0  0  0  0
    8.5731   -2.2024   22.9002 N   0  0  0  0  0  0  0  0  0  0  0  0
    8.2329   -0.9521   23.1926 C   0  0  0  0  0  0  0  0  0  0  0  0
    8.5325   -0.6134   24.1881 H   0  0  0  0  0  0  0  0  0  0  0  0
    7.5976   -0.1283   22.2772 C   0  0  0  0  0  0  0  0  0  0  0  0
    7.4012    1.3109   22.5138 C   0  0  0  0  0  0  0  0  0  0  0  0
    7.6518    2.1303   21.6488 O   0  0  0  0  0  0  0  0  0  0  0  0
    6.9151    1.6329   23.7448 N   0  0  0  0  0  0  0  0  0  0  0  0
    6.6642    0.8530   24.3272 H   0  0  0  0  0  0  0  0  0  0  0  0
    6.4953    2.9995   24.0786 C   0  0  0  0  0  0  0  0  0  0  0  0
    7.2875    3.6655   23.7049 H   0  0  0  0  0  0  0  0  0  0  0  0
    6.3557    3.1968   25.5990 C   0  0  0  0  0  0  0  0  0  0  0  0
    5.6080    2.4801   25.9779 H   0  0  0  0  0  0  0  0  0  0  0  0
    7.3065    2.9533   26.0883 H   0  0  0  0  0  0  0  0  0  0  0  0
    5.9122    4.6351   25.9633 C   0  0  0  0  0  0  0  0  0  0  0  0
    5.7877    4.7302   27.0499 H   0  0  0  0  0  0  0  0  0  0  0  0
    6.7104    5.3443   25.6894 H   0  0  0  0  0  0  0  0  0  0  0  0
    4.6126    5.0322   25.2395 C   0  0  0  0  0  0  0  0  0  0  0  0
    3.7839    4.4120   25.6148 H   0  0  0  0  0  0  0  0  0  0  0  0
    4.3400    6.0702   25.4752 H   0  0  0  0  0  0  0  0  0  0  0  0
    4.7449    4.8400   23.7182 C   0  0  0  0  0  0  0  0  0  0  0  0
    5.4803    5.5590   23.3214 H   0  0  0  0  0  0  0  0  0  0  0  0
    3.7957    5.0758   23.2187 H   0  0  0  0  0  0  0  0  0  0  0  0
    5.1854    3.4042   23.3617 C   0  0  0  0  0  0  0  0  0  0  0  0
    5.3357    3.2996   22.2790 H   0  0  0  0  0  0  0  0  0  0  0  0
    4.3924    2.6969   23.6517 H   0  0  0  0  0  0  0  0  0  0  0  0
    7.3629   -0.6719   21.0115 C   0  0  0  0  0  0  0  0  0  0  0  0
    6.6444    0.0287   19.9461 C   0  0  0  0  0  0  0  0  0  0  0  0
    7.1683    0.0350   18.6429 C   0  0  0  0  0  0  0  0  0  0  0  0
    8.1090   -0.4644   18.4042 H   0  0  0  0  0  0  0  0  0  0  0  0
    6.5797    0.6481   17.6115 N   0  0  0  0  0  0  0  0  0  0  0  0
    5.4182    1.2784   17.8543 C   0  0  0  0  0  0  0  0  0  0  0  0
    4.9622    1.7814   17.0052 H   0  0  0  0  0  0  0  0  0  0  0  0
    4.7981    1.3022   19.1074 C   0  0  0  0  0  0  0  0  0  0  0  0
    3.8672    1.8417   19.2394 H   0  0  0  0  0  0  0  0  0  0  0  0
    5.4178    0.6617   20.1759 C   0  0  0  0  0  0  0  0  0  0  0  0
    4.9606    0.6548   21.1695 H   0  0  0  0  0  0  0  0  0  0  0  0
    7.7563   -1.9084   20.6988 N   0  0  0  0  0  0  0  0  0  0  0  0
  1  2  1  0
  2  3  2  0
  3  4  1  0
  4  5  1  0
  4  6  2  0
  6  7  1  0
  7  8  2  0
  7  9  1  0
  9 10  1  0
  9 11  1  0
 11 12  1  0
 11 13  1  0
 13 14  1  0
 13 15  1  0
 13 16  1  0
 16 17  1  0
 16 18  1  0
 16 19  1  0
 19 20  1  0
 19 21  1  0
 19 22  1  0
 22 23  1  0
 22 24  1  0
 22 25  1  0
 25 26  1  0
 25 27  1  0
  6 28  1  0
 28 29  1  0
 29 30  2  0
 30 31  1  0
 30 32  1  0
 32 33  2  0
 33 34  1  0
 33 35  1  0
 35 36  1  0
 35 37  2  0
 37 38  1  0
 28 39  2  0
 39  2  1  0
 25 11  1  0
 37 29  1  0
M  END
>  <cnnaffinity>  (1) 
-4.94938

>  <filename>  (1) 
O=C(NC1CCCCC1)c1cncnc1-c1cccnc1

$$$$
