
     RDKit          3D

 41 43  0  0  0  0  0  0  0  0999 V2000
    4.9544    1.8215   16.9591 H   0  0  0  0  0  0  0  0  0  0  0  0
    5.4053    1.2999   17.8020 C   0  0  0  0  0  0  0  0  0  0  0  0
    6.5570    0.6611   17.5495 N   0  0  0  0  0  0  0  0  0  0  0  0
    7.1514    0.0300   18.5697 C   0  0  0  0  0  0  0  0  0  0  0  0
    8.0844   -0.4844   18.3425 H   0  0  0  0  0  0  0  0  0  0  0  0
    6.6440   -0.0138   19.8914 C   0  0  0  0  0  0  0  0  0  0  0  0
    7.3647   -0.7004   21.0070 C   0  0  0  0  0  0  0  0  0  0  0  0
    6.7191   -1.5274   21.8728 C   0  0  0  0  0  0  0  0  0  0  0  0
    5.6425   -1.6939   21.8657 H   0  0  0  0  0  0  0  0  0  0  0  0
    7.3793   -2.2823   22.8358 N   0  0  0  0  0  0  0  0  0  0  0  0
    6.5859   -3.1876   23.5633 N   0  0  0  0  0  0  0  0  0  0  0  0
    6.6159   -4.1380   23.2103 H   0  0  0  0  0  0  0  0  0  0  0  0
    6.4512   -3.1449   24.9529 C   0  0  0  0  0  0  0  0  0  0  0  0
    6.7876   -2.1981   25.6278 O   0  0  0  0  0  0  0  0  0  0  0  0
    5.7642   -4.4370   25.4653 C   0  0  0  0  0  0  0  0  0  0  0  0
    4.8574   -4.5271   24.8499 H   0  0  0  0  0  0  0  0  0  0  0  0
    5.3562   -4.3365   26.9512 C   0  0  0  0  0  0  0  0  0  0  0  0
    4.6495   -5.1472   27.1746 H   0  0  0  0  0  0  0  0  0  0  0  0
    4.8164   -3.3986   27.1243 H   0  0  0  0  0  0  0  0  0  0  0  0
    6.5686   -4.4097   27.8909 C   0  0  0  0  0  0  0  0  0  0  0  0
    7.1375   -3.4883   27.7356 H   0  0  0  0  0  0  0  0  0  0  0  0
    6.2272   -4.4276   28.9337 H   0  0  0  0  0  0  0  0  0  0  0  0
    7.4982   -5.5981   27.6188 C   0  0  0  0  0  0  0  0  0  0  0  0
    8.3936   -5.5192   28.2464 H   0  0  0  0  0  0  0  0  0  0  0  0
    7.0067   -6.5340   27.9178 H   0  0  0  0  0  0  0  0  0  0  0  0
    7.8855   -5.6819   26.1380 C   0  0  0  0  0  0  0  0  0  0  0  0
    8.5019   -6.5675   25.9563 H   0  0  0  0  0  0  0  0  0  0  0  0
    8.5096   -4.8207   25.8576 H   0  0  0  0  0  0  0  0  0  0  0  0
    6.6297   -5.7131   25.2602 C   0  0  0  0  0  0  0  0  0  0  0  0
    6.8932   -5.8708   24.2057 H   0  0  0  0  0  0  0  0  0  0  0  0
    6.0175   -6.5802   25.5434 H   0  0  0  0  0  0  0  0  0  0  0  0
    8.7927   -2.2396   22.9556 C   0  0  0  0  0  0  0  0  0  0  0  0
    9.4788   -2.9944   23.6040 O   0  0  0  0  0  0  0  0  0  0  0  0
    9.3593   -1.2300   22.2540 N   0  0  0  0  0  0  0  0  0  0  0  0
   10.3543   -1.1710   22.3546 H   0  0  0  0  0  0  0  0  0  0  0  0
    8.8278   -0.4947   21.2189 C   0  0  0  0  0  0  0  0  0  0  0  0
    9.5857    0.2282   20.6106 O   0  0  0  0  0  0  0  0  0  0  0  0
    5.4118    0.6283   20.1092 C   0  0  0  0  0  0  0  0  0  0  0  0
    4.9679    0.6196   21.1042 H   0  0  0  0  0  0  0  0  0  0  0  0
    4.7932    1.3097   19.0588 C   0  0  0  0  0  0  0  0  0  0  0  0
    3.8607    1.8456   19.1966 H   0  0  0  0  0  0  0  0  0  0  0  0
  1  2  1  0
  2  3  2  0
  3  4  1  0
  4  5  1  0
  4  6  2  0
  6  7  1  0
  7  8  2  0
  8  9  1  0
  8 10  1  0
 10 11  1  0
 11 12  1  0
 11 13  1  0
 13 14  2  0
 13 15  1  0
 15 16  1  0
 15 17  1  0
 17 18  1  0
 17 19  1  0
 17 20  1  0
 20 21  1  0
 20 22  1  0
 20 23  1  0
 23 24  1  0
 23 25  1  0
 23 26  1  0
 26 27  1  0
 26 28  1  0
 26 29  1  0
 29 30  1  0
 29 31  1  0
 10 32  1  0
 32 33  2  0
 32 34  1  0
 34 35  1  0
 34 36  1  0
 36 37  2  0
  6 38  1  0
 38 39  1  0
 38 40  2  0
 40 41  1  0
 40  2  1  0
 36  7  1  0
 29 15  1  0
M  END
>  <cnnaffinity>  (1) 
-5.65425

>  <filename>  (1) 
O=C(Nn1cc(-c2cccnc2)c(=O)[nH]c1=O)C1CCCCC1

$$$$
