
     RDKit          3D

 35 38  0  0  0  0  0  0  0  0999 V2000
    8.1046    2.6840   28.5328 H   0  0  0  0  0  0  0  0  0  0  0  0
    7.3173    2.0253   28.1833 C   0  0  0  0  0  0  0  0  0  0  0  0
    7.6632    1.1303   27.2519 N   0  0  0  0  0  0  0  0  0  0  0  0
    6.7092    0.2872   26.7923 C   0  0  0  0  0  0  0  0  0  0  0  0
    7.0763   -0.7525   25.7104 C   0  0  0  0  0  0  0  0  0  0  0  0
    6.2502   -1.4435   25.1454 O   0  0  0  0  0  0  0  0  0  0  0  0
    8.4365   -0.8091   25.4075 N   0  0  0  0  0  0  0  0  0  0  0  0
    8.9383    0.0021   25.7622 H   0  0  0  0  0  0  0  0  0  0  0  0
    8.8211   -1.2258   24.1479 N   0  0  0  0  0  0  0  0  0  0  0  0
   10.0008   -1.9012   23.8845 C   0  0  0  0  0  0  0  0  0  0  0  0
   10.6727   -2.1422   24.6981 H   0  0  0  0  0  0  0  0  0  0  0  0
   10.0897   -2.0975   22.5459 C   0  0  0  0  0  0  0  0  0  0  0  0
   10.8475   -2.5442   21.9271 H   0  0  0  0  0  0  0  0  0  0  0  0
    8.9392   -1.5550   21.9935 N   0  0  0  0  0  0  0  0  0  0  0  0
    8.5182   -1.3103   20.7341 N   0  0  0  0  0  0  0  0  0  0  0  0
    7.3743   -0.6345   20.9378 C   0  0  0  0  0  0  0  0  0  0  0  0
    6.6223   -0.0402   19.8202 C   0  0  0  0  0  0  0  0  0  0  0  0
    7.1490   -0.0038   18.5137 C   0  0  0  0  0  0  0  0  0  0  0  0
    8.0815   -0.5136   18.2842 H   0  0  0  0  0  0  0  0  0  0  0  0
    6.5665    0.6428   17.4973 N   0  0  0  0  0  0  0  0  0  0  0  0
    5.4200    1.2927   17.7501 C   0  0  0  0  0  0  0  0  0  0  0  0
    4.9795    1.8437   16.9191 H   0  0  0  0  0  0  0  0  0  0  0  0
    4.7950    1.2910   19.0027 C   0  0  0  0  0  0  0  0  0  0  0  0
    3.8804    1.8523   19.1542 H   0  0  0  0  0  0  0  0  0  0  0  0
    5.4002    0.6092   20.0531 C   0  0  0  0  0  0  0  0  0  0  0  0
    4.9397    0.6038   21.0438 H   0  0  0  0  0  0  0  0  0  0  0  0
    7.0565   -0.4689   22.3064 C   0  0  0  0  0  0  0  0  0  0  0  0
    6.1605   -0.0751   22.7518 H   0  0  0  0  0  0  0  0  0  0  0  0
    8.1499   -1.0382   22.9543 C   0  0  0  0  0  0  0  0  0  0  0  0
    5.3800    0.3484   27.2401 C   0  0  0  0  0  0  0  0  0  0  0  0
    4.6488   -0.3224   26.8088 H   0  0  0  0  0  0  0  0  0  0  0  0
    5.0305    1.2849   28.2116 C   0  0  0  0  0  0  0  0  0  0  0  0
    4.0046    1.3375   28.5748 H   0  0  0  0  0  0  0  0  0  0  0  0
    6.0217    2.1356   28.6983 C   0  0  0  0  0  0  0  0  0  0  0  0
    5.7969    2.8725   29.4576 H   0  0  0  0  0  0  0  0  0  0  0  0
  1  2  1  0
  2  3  2  0
  3  4  1  0
  4  5  1  0
  5  6  2  0
  5  7  1  0
  7  8  1  0
  7  9  1  0
  9 10  1  0
 10 11  1  0
 10 12  2  0
 12 13  1  0
 12 14  1  0
 14 15  1  0
 15 16  2  0
 16 17  1  0
 17 18  2  0
 18 19  1  0
 18 20  1  0
 20 21  2  0
 21 22  1  0
 21 23  1  0
 23 24  1  0
 23 25  2  0
 25 26  1  0
 16 27  1  0
 27 28  1  0
 27 29  2  0
  4 30  2  0
 30 31  1  0
 30 32  1  0
 32 33  1  0
 32 34  2  0
 34 35  1  0
 34  2  1  0
 29  9  1  0
 29 14  1  0
 25 17  1  0
M  END
>  <cnnaffinity>  (1) 
-5.39148

>  <filename>  (1) 
O=C(Nn1ccn2nc(-c3cccnc3)cc12)c1ccccn1

$$$$
