
     RDKit          3D

 31 33  0  0  0  0  0  0  0  0999 V2000
    4.9459    1.7704   17.0265 H   0  0  0  0  0  0  0  0  0  0  0  0
    5.4230    1.2695   17.8658 C   0  0  0  0  0  0  0  0  0  0  0  0
    6.5864    0.6532   17.6064 N   0  0  0  0  0  0  0  0  0  0  0  0
    7.2007    0.0320   18.6232 C   0  0  0  0  0  0  0  0  0  0  0  0
    8.1474   -0.4417   18.3733 H   0  0  0  0  0  0  0  0  0  0  0  0
    6.7014   -0.0344   19.9630 C   0  0  0  0  0  0  0  0  0  0  0  0
    7.3651   -0.6937   20.9737 N   0  0  0  0  0  0  0  0  0  0  0  0
    7.0484   -0.8924   22.3747 C   0  0  0  0  0  0  0  0  0  0  0  0
    6.1301   -1.4541   22.5716 H   0  0  0  0  0  0  0  0  0  0  0  0
    7.0069    0.0279   22.9697 H   0  0  0  0  0  0  0  0  0  0  0  0
    8.3570   -1.7272   22.5019 C   0  0  0  0  0  0  0  0  0  0  0  0
    9.1059   -1.2788   23.1639 H   0  0  0  0  0  0  0  0  0  0  0  0
    8.1911   -3.1977   22.8727 C   0  0  0  0  0  0  0  0  0  0  0  0
    8.5765   -4.0948   22.1486 O   0  0  0  0  0  0  0  0  0  0  0  0
    7.5394   -3.5129   24.1848 C   0  0  0  0  0  0  0  0  0  0  0  0
    7.1325   -4.8450   24.4010 C   0  0  0  0  0  0  0  0  0  0  0  0
    7.2906   -5.6166   23.6499 H   0  0  0  0  0  0  0  0  0  0  0  0
    6.5214   -5.2431   25.5209 N   0  0  0  0  0  0  0  0  0  0  0  0
    6.3063   -4.3475   26.4929 C   0  0  0  0  0  0  0  0  0  0  0  0
    5.8178   -4.6913   27.4037 H   0  0  0  0  0  0  0  0  0  0  0  0
    6.6914   -3.0108   26.3681 C   0  0  0  0  0  0  0  0  0  0  0  0
    6.4501   -2.1560   27.3718 F   0  0  0  0  0  0  0  0  0  0  0  0
    7.3186   -2.5693   25.2099 C   0  0  0  0  0  0  0  0  0  0  0  0
    7.6074   -1.5191   25.1479 H   0  0  0  0  0  0  0  0  0  0  0  0
    8.6194   -1.4300   21.0052 C   0  0  0  0  0  0  0  0  0  0  0  0
    9.5066   -0.8288   20.7746 H   0  0  0  0  0  0  0  0  0  0  0  0
    8.6592   -2.3171   20.3771 H   0  0  0  0  0  0  0  0  0  0  0  0
    5.4705    0.6231   20.1950 C   0  0  0  0  0  0  0  0  0  0  0  0
    5.0281    0.6193   21.1897 H   0  0  0  0  0  0  0  0  0  0  0  0
    4.8375    1.2811   19.1353 C   0  0  0  0  0  0  0  0  0  0  0  0
    3.9051    1.8129   19.2834 H   0  0  0  0  0  0  0  0  0  0  0  0
  1  2  1  0
  2  3  2  0
  3  4  1  0
  4  5  1  0
  4  6  2  0
  6  7  1  0
  7  8  1  0
  8  9  1  0
  8 10  1  0
  8 11  1  0
 11 12  1  0
 11 13  1  0
 13 14  2  0
 13 15  1  0
 15 16  2  0
 16 17  1  0
 16 18  1  0
 18 19  2  0
 19 20  1  0
 19 21  1  0
 21 22  1  0
 21 23  2  0
 23 24  1  0
 11 25  1  0
 25 26  1  0
 25 27  1  0
  6 28  1  0
 28 29  1  0
 28 30  2  0
 30 31  1  0
 30  2  1  0
 25  7  1  0
 23 15  1  0
M  END
>  <cnnaffinity>  (1) 
-5.18398

>  <filename>  (1) 
O=C(c1cncc(F)c1)C1CN(c2cccnc2)C1

$$$$
