
     RDKit          3D

 39 41  0  0  0  0  0  0  0  0999 V2000
    4.9155    1.7793   16.9994 H   0  0  0  0  0  0  0  0  0  0  0  0
    5.3999    1.2946   17.8453 C   0  0  0  0  0  0  0  0  0  0  0  0
    6.5681    0.6766   17.5871 N   0  0  0  0  0  0  0  0  0  0  0  0
    7.1778    0.0467   18.5932 C   0  0  0  0  0  0  0  0  0  0  0  0
    8.1272   -0.4417   18.3816 H   0  0  0  0  0  0  0  0  0  0  0  0
    6.6530    0.0046   19.8953 C   0  0  0  0  0  0  0  0  0  0  0  0
    7.3646   -0.6637   20.9315 N   0  0  0  0  0  0  0  0  0  0  0  0
    7.7644   -1.9503   20.8265 N   0  0  0  0  0  0  0  0  0  0  0  0
    8.3664   -2.2370   21.9211 N   0  0  0  0  0  0  0  0  0  0  0  0
    8.3905   -1.1706   22.7584 N   0  0  0  0  0  0  0  0  0  0  0  0
    7.7584   -0.2041   22.1463 C   0  0  0  0  0  0  0  0  0  0  0  0
    7.5896    1.1995   22.6364 C   0  0  0  0  0  0  0  0  0  0  0  0
    8.4671    1.4147   23.2521 H   0  0  0  0  0  0  0  0  0  0  0  0
    7.5569    1.8991   21.7975 H   0  0  0  0  0  0  0  0  0  0  0  0
    6.3650    1.3079   23.5330 C   0  0  0  0  0  0  0  0  0  0  0  0
    6.2453    0.5715   24.4947 O   0  0  0  0  0  0  0  0  0  0  0  0
    5.4079    2.2167   23.2054 N   0  0  0  0  0  0  0  0  0  0  0  0
    5.5726    2.8594   22.4519 H   0  0  0  0  0  0  0  0  0  0  0  0
    4.1684    2.3624   23.9749 C   0  0  0  0  0  0  0  0  0  0  0  0
    3.7974    1.3505   24.1612 H   0  0  0  0  0  0  0  0  0  0  0  0
    4.3951    2.9830   25.3782 C   0  0  0  0  0  0  0  0  0  0  0  0
    5.2279    3.6898   25.3281 H   0  0  0  0  0  0  0  0  0  0  0  0
    4.7072    2.1724   26.0435 H   0  0  0  0  0  0  0  0  0  0  0  0
    3.1527    3.7037   25.9543 C   0  0  0  0  0  0  0  0  0  0  0  0
    3.1856    4.7655   25.6743 H   0  0  0  0  0  0  0  0  0  0  0  0
    3.1864    3.6769   27.0486 H   0  0  0  0  0  0  0  0  0  0  0  0
    1.8399    3.0987   25.4436 C   0  0  0  0  0  0  0  0  0  0  0  0
    0.9833    3.5965   25.9139 H   0  0  0  0  0  0  0  0  0  0  0  0
    1.7908    2.0476   25.7569 H   0  0  0  0  0  0  0  0  0  0  0  0
    1.7329    3.1840   23.9012 C   0  0  0  0  0  0  0  0  0  0  0  0
    1.2066    4.1064   23.6235 H   0  0  0  0  0  0  0  0  0  0  0  0
    1.1030    2.3595   23.5463 H   0  0  0  0  0  0  0  0  0  0  0  0
    3.1137    3.1508   23.1825 C   0  0  0  0  0  0  0  0  0  0  0  0
    3.4726    4.1829   23.0512 H   0  0  0  0  0  0  0  0  0  0  0  0
    2.9918    2.7360   22.1733 H   0  0  0  0  0  0  0  0  0  0  0  0
    5.4422    0.6480   20.1642 C   0  0  0  0  0  0  0  0  0  0  0  0
    5.0120    0.6245   21.1659 H   0  0  0  0  0  0  0  0  0  0  0  0
    4.8065    1.3115   19.1110 C   0  0  0  0  0  0  0  0  0  0  0  0
    3.8734    1.8446   19.2696 H   0  0  0  0  0  0  0  0  0  0  0  0
  1  2  1  0
  2  3  2  0
  3  4  1  0
  4  5  1  0
  4  6  2  0
  6  7  1  0
  7  8  1  0
  8  9  2  0
  9 10  1  0
 10 11  2  0
 11 12  1  0
 12 13  1  0
 12 14  1  0
 12 15  1  0
 15 16  2  0
 15 17  1  0
 17 18  1  0
 17 19  1  0
 19 20  1  0
 19 21  1  0
 21 22  1  0
 21 23  1  0
 21 24  1  0
 24 25  1  0
 24 26  1  0
 24 27  1  0
 27 28  1  0
 27 29  1  0
 27 30  1  0
 30 31  1  0
 30 32  1  0
 30 33  1  0
 33 34  1  0
 33 35  1  0
  6 36  1  0
 36 37  1  0
 36 38  2  0
 38 39  1  0
 38  2  1  0
 11  7  1  0
 33 19  1  0
M  END
>  <cnnaffinity>  (1) 
-4.95397

>  <filename>  (1) 
O=C(Cc1nnnn1-c1cccnc1)NC1CCCCC1

$$$$
