
     RDKit          3D

 27 28  0  0  0  0  0  0  0  0999 V2000
    4.9598    1.6902   16.9517 H   0  0  0  0  0  0  0  0  0  0  0  0
    5.4767    1.2324   17.7905 C   0  0  0  0  0  0  0  0  0  0  0  0
    6.6612    0.6541   17.5270 N   0  0  0  0  0  0  0  0  0  0  0  0
    7.3013    0.0713   18.5500 C   0  0  0  0  0  0  0  0  0  0  0  0
    8.2653   -0.3821   18.3231 H   0  0  0  0  0  0  0  0  0  0  0  0
    6.7959    0.0050   19.8758 C   0  0  0  0  0  0  0  0  0  0  0  0
    7.5566   -0.6278   20.9212 N   0  0  0  0  0  0  0  0  0  0  0  0
    7.9864   -1.5337   20.7087 H   0  0  0  0  0  0  0  0  0  0  0  0
    6.8109   -1.0767   22.3355 S   0  0  0  0  0  0  0  0  0  0  0  0
    6.4820    0.0530   23.1695 O   0  0  0  0  0  0  0  0  0  0  0  0
    5.9049   -2.1592   22.0322 O   0  0  0  0  0  0  0  0  0  0  0  0
    8.1679   -1.6562   23.0467 N   0  0  0  0  0  0  0  0  0  0  0  0
    8.1283   -1.3788   24.0125 H   0  0  0  0  0  0  0  0  0  0  0  0
    8.5954   -2.8944   22.6150 C   0  0  0  0  0  0  0  0  0  0  0  0
    8.4835   -3.1671   21.4287 O   0  0  0  0  0  0  0  0  0  0  0  0
    9.1590   -3.8519   23.6224 C   0  0  0  0  0  0  0  0  0  0  0  0
    9.9041   -3.3567   24.6595 O   0  0  0  0  0  0  0  0  0  0  0  0
   10.2946   -4.4059   25.4133 C   0  0  0  0  0  0  0  0  0  0  0  0
   10.9088   -4.1606   26.2620 H   0  0  0  0  0  0  0  0  0  0  0  0
    9.7973   -5.5646   24.9201 C   0  0  0  0  0  0  0  0  0  0  0  0
    9.9485   -6.5544   25.3325 H   0  0  0  0  0  0  0  0  0  0  0  0
    9.0438   -5.2080   23.7594 C   0  0  0  0  0  0  0  0  0  0  0  0
    8.4728   -5.8746   23.1254 H   0  0  0  0  0  0  0  0  0  0  0  0
    5.5834    0.6579   20.1356 C   0  0  0  0  0  0  0  0  0  0  0  0
    5.1920    0.6924   21.1520 H   0  0  0  0  0  0  0  0  0  0  0  0
    4.9108    1.2686   19.0685 C   0  0  0  0  0  0  0  0  0  0  0  0
    3.9595    1.7647   19.2290 H   0  0  0  0  0  0  0  0  0  0  0  0
  1  2  1  0
  2  3  2  0
  3  4  1  0
  4  5  1  0
  4  6  2  0
  6  7  1  0
  7  8  1  0
  7  9  1  0
  9 10  2  0
  9 11  2  0
  9 12  1  0
 12 13  1  0
 12 14  1  0
 14 15  2  0
 14 16  1  0
 16 17  1  0
 17 18  1  0
 18 19  1  0
 18 20  2  0
 20 21  1  0
 20 22  1  0
 22 23  1  0
  6 24  1  0
 24 25  1  0
 24 26  2  0
 26 27  1  0
 26  2  1  0
 22 16  2  0
M  END
>  <cnnaffinity>  (1) 
-4.73789

>  <filename>  (1) 
O=C(NS(=O)(=O)Nc1cccnc1)c1ccco1

$$$$
