
     RDKit          3D

 34 37  0  0  0  0  0  0  0  0999 V2000
    4.9394    1.8047   16.9766 H   0  0  0  0  0  0  0  0  0  0  0  0
    5.3992    1.2954   17.8226 C   0  0  0  0  0  0  0  0  0  0  0  0
    6.5574    0.6672   17.5687 N   0  0  0  0  0  0  0  0  0  0  0  0
    7.1579    0.0362   18.5815 C   0  0  0  0  0  0  0  0  0  0  0  0
    8.1077   -0.4430   18.3549 H   0  0  0  0  0  0  0  0  0  0  0  0
    6.6444   -0.0018   19.8881 C   0  0  0  0  0  0  0  0  0  0  0  0
    7.4002   -0.6633   20.9463 C   0  0  0  0  0  0  0  0  0  0  0  0
    8.1955   -1.7679   20.7165 N   0  0  0  0  0  0  0  0  0  0  0  0
    8.6571   -2.0606   21.9023 C   0  0  0  0  0  0  0  0  0  0  0  0
    9.8119   -3.1841   22.5436 S   0  0  0  0  0  0  0  0  0  0  0  0
    9.7101   -2.4542   24.1197 C   0  0  0  0  0  0  0  0  0  0  0  0
   10.3368   -2.8630   24.9001 H   0  0  0  0  0  0  0  0  0  0  0  0
    8.8328   -1.4373   24.1544 C   0  0  0  0  0  0  0  0  0  0  0  0
    8.5326   -0.8126   24.9868 H   0  0  0  0  0  0  0  0  0  0  0  0
    8.2368   -1.2224   22.9051 N   0  0  0  0  0  0  0  0  0  0  0  0
    7.4350   -0.2893   22.2889 C   0  0  0  0  0  0  0  0  0  0  0  0
    6.8870    0.7750   23.0047 N   0  0  0  0  0  0  0  0  0  0  0  0
    6.8919    1.6927   22.5935 H   0  0  0  0  0  0  0  0  0  0  0  0
    6.2585    0.6818   24.2281 C   0  0  0  0  0  0  0  0  0  0  0  0
    6.1521   -0.3644   24.8358 O   0  0  0  0  0  0  0  0  0  0  0  0
    5.7468    2.0204   24.7748 C   0  0  0  0  0  0  0  0  0  0  0  0
    5.6385    2.1676   26.1720 C   0  0  0  0  0  0  0  0  0  0  0  0
    5.9108    1.3536   26.8345 H   0  0  0  0  0  0  0  0  0  0  0  0
    5.1450    3.3565   26.7207 C   0  0  0  0  0  0  0  0  0  0  0  0
    5.0498    3.4652   27.8007 H   0  0  0  0  0  0  0  0  0  0  0  0
    4.7478    4.4016   25.9850 N   0  0  0  0  0  0  0  0  0  0  0  0
    4.8434    4.2828   24.6557 C   0  0  0  0  0  0  0  0  0  0  0  0
    4.5100    5.1495   24.0837 H   0  0  0  0  0  0  0  0  0  0  0  0
    5.3294    3.1373   24.0084 C   0  0  0  0  0  0  0  0  0  0  0  0
    5.3236    3.1703   22.9228 H   0  0  0  0  0  0  0  0  0  0  0  0
    5.4202    0.6466   20.1344 C   0  0  0  0  0  0  0  0  0  0  0  0
    4.9782    0.6251   21.1321 H   0  0  0  0  0  0  0  0  0  0  0  0
    4.7921    1.3100   19.0842 C   0  0  0  0  0  0  0  0  0  0  0  0
    3.8608    1.8474   19.2256 H   0  0  0  0  0  0  0  0  0  0  0  0
  1  2  1  0
  2  3  2  0
  3  4  1  0
  4  5  1  0
  4  6  2  0
  6  7  1  0
  7  8  1  0
  8  9  2  0
  9 10  1  0
 10 11  1  0
 11 12  1  0
 11 13  2  0
 13 14  1  0
 13 15  1  0
 15 16  1  0
 16 17  1  0
 17 18  1  0
 17 19  1  0
 19 20  2  0
 19 21  1  0
 21 22  2  0
 22 23  1  0
 22 24  1  0
 24 25  1  0
 24 26  2  0
 26 27  1  0
 27 28  1  0
 27 29  2  0
 29 30  1  0
  6 31  1  0
 31 32  1  0
 31 33  2  0
 33 34  1  0
 33  2  1  0
 16  7  2  0
 29 21  1  0
 15  9  1  0
M  END
>  <cnnaffinity>  (1) 
-5.44389

>  <filename>  (1) 
O=C(Nc1c(-c2cccnc2)nc2sccn12)c1ccncc1

$$$$
