
     RDKit          3D

 40 42  0  0  0  0  0  0  0  0999 V2000
    4.9537    1.7835   16.8349 H   0  0  0  0  0  0  0  0  0  0  0  0
    5.4740    1.2995   17.6601 C   0  0  0  0  0  0  0  0  0  0  0  0
    6.6170    0.6668   17.3501 N   0  0  0  0  0  0  0  0  0  0  0  0
    7.2897    0.0790   18.3497 C   0  0  0  0  0  0  0  0  0  0  0  0
    8.2072   -0.4269   18.0605 H   0  0  0  0  0  0  0  0  0  0  0  0
    6.8734    0.0776   19.7010 C   0  0  0  0  0  0  0  0  0  0  0  0
    7.6415   -0.5933   20.7830 C   0  0  0  0  0  0  0  0  0  0  0  0
    9.3450   -0.9496   20.6787 S   0  0  0  0  0  0  0  0  0  0  0  0
    9.3250   -1.8032   22.1748 C   0  0  0  0  0  0  0  0  0  0  0  0
   10.2065   -2.2560   22.5982 H   0  0  0  0  0  0  0  0  0  0  0  0
    8.0826   -1.8099   22.7264 C   0  0  0  0  0  0  0  0  0  0  0  0
    7.7068   -2.4176   23.9306 N   0  0  0  0  0  0  0  0  0  0  0  0
    6.7534   -2.2618   24.1998 H   0  0  0  0  0  0  0  0  0  0  0  0
    8.2091   -3.6076   24.4243 C   0  0  0  0  0  0  0  0  0  0  0  0
    9.1351   -4.2441   23.9652 O   0  0  0  0  0  0  0  0  0  0  0  0
    7.4941   -3.9819   25.5302 N   0  0  0  0  0  0  0  0  0  0  0  0
    6.9029   -3.2770   25.9277 H   0  0  0  0  0  0  0  0  0  0  0  0
    7.9584   -5.0439   26.4165 C   0  0  0  0  0  0  0  0  0  0  0  0
    9.0329   -5.1780   26.2330 H   0  0  0  0  0  0  0  0  0  0  0  0
    7.7762   -4.6508   27.8926 C   0  0  0  0  0  0  0  0  0  0  0  0
    8.1918   -3.6478   28.0136 H   0  0  0  0  0  0  0  0  0  0  0  0
    8.4303   -5.3149   28.4678 H   0  0  0  0  0  0  0  0  0  0  0  0
    6.3342   -4.7532   28.4706 C   0  0  0  0  0  0  0  0  0  0  0  0
    5.8612   -3.7687   28.5781 H   0  0  0  0  0  0  0  0  0  0  0  0
    6.3887   -5.1745   29.4850 H   0  0  0  0  0  0  0  0  0  0  0  0
    5.4091   -5.6359   27.6154 C   0  0  0  0  0  0  0  0  0  0  0  0
    5.0221   -5.0485   26.7764 H   0  0  0  0  0  0  0  0  0  0  0  0
    4.5412   -5.9556   28.1992 H   0  0  0  0  0  0  0  0  0  0  0  0
    6.1635   -6.8415   27.0647 C   0  0  0  0  0  0  0  0  0  0  0  0
    6.5969   -7.3968   27.9101 H   0  0  0  0  0  0  0  0  0  0  0  0
    5.4728   -7.5254   26.5578 H   0  0  0  0  0  0  0  0  0  0  0  0
    7.2521   -6.3761   26.0697 C   0  0  0  0  0  0  0  0  0  0  0  0
    8.0228   -7.1369   25.9367 H   0  0  0  0  0  0  0  0  0  0  0  0
    6.7814   -6.2468   25.0931 H   0  0  0  0  0  0  0  0  0  0  0  0
    7.1374   -1.0848   21.9537 C   0  0  0  0  0  0  0  0  0  0  0  0
    6.1143   -0.9367   22.2742 H   0  0  0  0  0  0  0  0  0  0  0  0
    5.6575    0.7239   19.9861 C   0  0  0  0  0  0  0  0  0  0  0  0
    5.2766    0.7512   21.0064 H   0  0  0  0  0  0  0  0  0  0  0  0
    4.9488    1.3479   18.9556 C   0  0  0  0  0  0  0  0  0  0  0  0
    4.0172    1.8748   19.1436 H   0  0  0  0  0  0  0  0  0  0  0  0
  1  2  1  0
  2  3  2  0
  3  4  1  0
  4  5  1  0
  4  6  2  0
  6  7  1  0
  7  8  1  0
  8  9  1  0
  9 10  1  0
  9 11  2  0
 11 12  1  0
 12 13  1  0
 12 14  1  0
 14 15  2  0
 14 16  1  0
 16 17  1  0
 16 18  1  0
 18 19  1  0
 18 20  1  0
 20 21  1  0
 20 22  1  0
 20 23  1  0
 23 24  1  0
 23 25  1  0
 23 26  1  0
 26 27  1  0
 26 28  1  0
 26 29  1  0
 29 30  1  0
 29 31  1  0
 29 32  1  0
 32 33  1  0
 32 34  1  0
 11 35  1  0
 35 36  1  0
  6 37  1  0
 37 38  1  0
 37 39  2  0
 39 40  1  0
 39  2  1  0
 35  7  2  0
 32 18  1  0
M  END
>  <cnnaffinity>  (1) 
-4.57406

>  <filename>  (1) 
O=C(Nc1csc(-c2cccnc2)c1)NC1CCCCC1

$$$$
