
     RDKit          3D

 32 33  0  0  0  0  0  0  0  0999 V2000
    5.7707   -1.7584   20.9868 H   0  0  0  0  0  0  0  0  0  0  0  0
    6.5916   -1.7772   21.5030 O   0  0  0  0  0  0  0  0  0  0  0  0
    7.3747   -0.6574   21.0728 C   0  0  2  0  0  0  0  0  0  0  0  0
    8.3601   -1.0154   20.7445 H   0  0  0  0  0  0  0  0  0  0  0  0
    7.7668    0.3437   22.2135 C   0  0  0  0  0  0  0  0  0  0  0  0
    8.7854    1.0075   22.1014 O   0  0  0  0  0  0  0  0  0  0  0  0
    6.9444    0.4416   23.2985 N   0  0  0  0  0  0  0  0  0  0  0  0
    6.1150   -0.1291   23.2732 H   0  0  0  0  0  0  0  0  0  0  0  0
    6.9671    1.6385   24.1374 C   0  0  0  0  0  0  0  0  0  0  0  0
    8.0087    1.8682   24.3800 H   0  0  0  0  0  0  0  0  0  0  0  0
    6.4433    1.4152   25.0707 H   0  0  0  0  0  0  0  0  0  0  0  0
    6.3302    2.8341   23.4430 C   0  0  0  0  0  0  0  0  0  0  0  0
    7.1002    3.6246   22.5663 C   0  0  0  0  0  0  0  0  0  0  0  0
    8.1660    3.4328   22.4890 H   0  0  0  0  0  0  0  0  0  0  0  0
    6.5116    4.5980   21.7618 C   0  0  0  0  0  0  0  0  0  0  0  0
    7.1004    5.1302   21.0207 H   0  0  0  0  0  0  0  0  0  0  0  0
    5.1416    4.8463   21.8728 C   0  0  0  0  0  0  0  0  0  0  0  0
    4.6631    5.5770   21.2297 H   0  0  0  0  0  0  0  0  0  0  0  0
    4.3592    4.1151   22.7651 C   0  0  0  0  0  0  0  0  0  0  0  0
    3.2999    4.3227   22.8695 H   0  0  0  0  0  0  0  0  0  0  0  0
    4.9560    3.1154   23.5398 C   0  0  0  0  0  0  0  0  0  0  0  0
    3.9178    2.1629   24.5722 Cl  0  0  0  0  0  0  0  0  0  0  0  0
    6.6469    0.0334   19.9181 C   0  0  0  0  0  0  0  0  0  0  0  0
    7.1253   -0.0266   18.5986 C   0  0  0  0  0  0  0  0  0  0  0  0
    8.0377   -0.5758   18.3703 H   0  0  0  0  0  0  0  0  0  0  0  0
    6.5392    0.5729   17.5527 N   0  0  0  0  0  0  0  0  0  0  0  0
    5.4201    1.2684   17.7891 C   0  0  0  0  0  0  0  0  0  0  0  0
    4.9766    1.7739   16.9328 H   0  0  0  0  0  0  0  0  0  0  0  0
    4.8266    1.3620   19.0523 C   0  0  0  0  0  0  0  0  0  0  0  0
    3.9127    1.9318   19.1747 H   0  0  0  0  0  0  0  0  0  0  0  0
    5.4443    0.7250   20.1280 C   0  0  0  0  0  0  0  0  0  0  0  0
    4.9967    0.7665   21.1237 H   0  0  0  0  0  0  0  0  0  0  0  0
  1  2  1  0
  2  3  1  0
  3  4  1  6
  3  5  1  0
  5  6  2  0
  5  7  1  0
  7  8  1  0
  7  9  1  0
  9 10  1  0
  9 11  1  0
  9 12  1  0
 12 13  2  0
 13 14  1  0
 13 15  1  0
 15 16  1  0
 15 17  2  0
 17 18  1  0
 17 19  1  0
 19 20  1  0
 19 21  2  0
 21 22  1  0
  3 23  1  0
 23 24  2  0
 24 25  1  0
 24 26  1  0
 26 27  2  0
 27 28  1  0
 27 29  1  0
 29 30  1  0
 29 31  2  0
 31 32  1  0
 21 12  1  0
 31 23  1  0
M  END
>  <cnnaffinity>  (1) 
-4.12737

>  <filename>  (1) 
O=C(NCc1ccccc1Cl)[C@@H](O)c1cccnc1

$$$$
