
     RDKit          3D

 38 39  0  0  0  0  0  0  0  0999 V2000
    5.9935   -4.6538   25.8805 H   0  0  0  0  0  0  0  0  0  0  0  0
    6.0148   -5.3846   25.2328 O   0  0  0  0  0  0  0  0  0  0  0  0
    7.3703   -5.5261   24.8765 N   0  0  0  0  0  0  0  0  0  0  0  0
    7.4221   -6.2262   24.1540 H   0  0  0  0  0  0  0  0  0  0  0  0
    8.3808   -5.5364   25.8261 C   0  0  0  0  0  0  0  0  0  0  0  0
    8.2240   -5.1029   26.9513 O   0  0  0  0  0  0  0  0  0  0  0  0
    9.7312   -5.9706   25.2850 C   0  0  0  0  0  0  0  0  0  0  0  0
   10.1796   -6.5821   26.0771 H   0  0  0  0  0  0  0  0  0  0  0  0
    9.6172   -6.6043   24.3978 H   0  0  0  0  0  0  0  0  0  0  0  0
   10.6698   -4.7840   24.9406 C   0  0  0  0  0  0  0  0  0  0  0  0
   11.6121   -5.2219   24.5826 H   0  0  0  0  0  0  0  0  0  0  0  0
   10.9231   -4.2472   25.8651 H   0  0  0  0  0  0  0  0  0  0  0  0
   10.1234   -3.8374   23.8447 C   0  0  0  0  0  0  0  0  0  0  0  0
    9.5293   -4.4460   23.1508 H   0  0  0  0  0  0  0  0  0  0  0  0
   10.9558   -3.4454   23.2421 H   0  0  0  0  0  0  0  0  0  0  0  0
    9.2678   -2.6225   24.2843 C   0  0  0  0  0  0  0  0  0  0  0  0
    9.9016   -1.9008   24.8195 H   0  0  0  0  0  0  0  0  0  0  0  0
    8.4979   -2.9206   25.0067 H   0  0  0  0  0  0  0  0  0  0  0  0
    8.6060   -1.9198   23.1031 C   0  0  0  0  0  0  0  0  0  0  0  0
    7.2988   -2.3016   22.6470 C   0  0  0  0  0  0  0  0  0  0  0  0
    6.7348   -3.0529   23.1868 H   0  0  0  0  0  0  0  0  0  0  0  0
    6.7236   -1.6807   21.5765 C   0  0  0  0  0  0  0  0  0  0  0  0
    5.7226   -1.9225   21.2164 H   0  0  0  0  0  0  0  0  0  0  0  0
    7.3812   -0.6906   20.8663 N   0  0  0  0  0  0  0  0  0  0  0  0
    6.6712   -0.0074   19.8030 C   0  0  0  0  0  0  0  0  0  0  0  0
    7.1579    0.0262   18.4811 C   0  0  0  0  0  0  0  0  0  0  0  0
    8.0881   -0.4838   18.2452 H   0  0  0  0  0  0  0  0  0  0  0  0
    6.5418    0.6589   17.4730 N   0  0  0  0  0  0  0  0  0  0  0  0
    5.4016    1.3126   17.7526 C   0  0  0  0  0  0  0  0  0  0  0  0
    4.9352    1.8353   16.9179 H   0  0  0  0  0  0  0  0  0  0  0  0
    4.8213    1.3330   19.0262 C   0  0  0  0  0  0  0  0  0  0  0  0
    3.8965    1.8814   19.1877 H   0  0  0  0  0  0  0  0  0  0  0  0
    5.4641    0.6536   20.0702 C   0  0  0  0  0  0  0  0  0  0  0  0
    5.0570    0.6463   21.0821 H   0  0  0  0  0  0  0  0  0  0  0  0
    8.7173   -0.2760   21.2308 C   0  0  0  0  0  0  0  0  0  0  0  0
    9.3235    0.5579   20.5809 O   0  0  0  0  0  0  0  0  0  0  0  0
    9.2524   -0.9309   22.4159 C   0  0  0  0  0  0  0  0  0  0  0  0
   10.2150   -0.5398   22.7106 H   0  0  0  0  0  0  0  0  0  0  0  0
  1  2  1  0
  2  3  1  0
  3  4  1  0
  3  5  1  0
  5  6  2  0
  5  7  1  0
  7  8  1  0
  7  9  1  0
  7 10  1  0
 10 11  1  0
 10 12  1  0
 10 13  1  0
 13 14  1  0
 13 15  1  0
 13 16  1  0
 16 17  1  0
 16 18  1  0
 16 19  1  0
 19 20  1  0
 20 21  1  0
 20 22  2  0
 22 23  1  0
 22 24  1  0
 24 25  1  0
 25 26  2  0
 26 27  1  0
 26 28  1  0
 28 29  2  0
 29 30  1  0
 29 31  1  0
 31 32  1  0
 31 33  2  0
 33 34  1  0
 24 35  1  0
 35 36  2  0
 35 37  1  0
 37 38  1  0
 37 19  2  0
 33 25  1  0
M  END
>  <cnnaffinity>  (1) 
-5.20523

>  <filename>  (1) 
O=C(CCCCc1ccn(-c2cccnc2)c(=O)c1)NO

$$$$
