
     RDKit          3D

 30 32  0  0  0  0  0  0  0  0999 V2000
    5.0181    1.8390   17.0220 H   0  0  0  0  0  0  0  0  0  0  0  0
    5.4889    1.2890   17.8350 C   0  0  0  0  0  0  0  0  0  0  0  0
    6.6447    0.6706   17.5409 N   0  0  0  0  0  0  0  0  0  0  0  0
    7.2584    0.0021   18.5270 C   0  0  0  0  0  0  0  0  0  0  0  0
    8.1899   -0.4995   18.2729 H   0  0  0  0  0  0  0  0  0  0  0  0
    6.7526   -0.0977   19.8380 C   0  0  0  0  0  0  0  0  0  0  0  0
    7.4602   -0.8090   20.8705 N   0  0  0  0  0  0  0  0  0  0  0  0
    8.7051   -0.4535   21.3646 C   0  0  0  0  0  0  0  0  0  0  0  0
    9.2719    0.3344   20.8944 H   0  0  0  0  0  0  0  0  0  0  0  0
    8.9782   -1.2227   22.4539 C   0  0  0  0  0  0  0  0  0  0  0  0
   10.1982   -1.2334   23.3369 C   0  0  0  0  0  0  0  0  0  0  0  0
   10.1206   -1.3926   24.5367 O   0  0  0  0  0  0  0  0  0  0  0  0
   11.5456   -1.0741   22.6212 C   0  0  0  0  0  0  0  0  0  0  0  0
   12.6193   -0.3441   23.1695 C   0  0  0  0  0  0  0  0  0  0  0  0
   12.5061    0.2278   24.0865 H   0  0  0  0  0  0  0  0  0  0  0  0
   13.8839   -0.4467   22.5758 C   0  0  0  0  0  0  0  0  0  0  0  0
   14.7316    0.0652   23.0279 H   0  0  0  0  0  0  0  0  0  0  0  0
   14.1364   -1.1704   21.4713 N   0  0  0  0  0  0  0  0  0  0  0  0
   13.0947   -1.7793   20.8893 C   0  0  0  0  0  0  0  0  0  0  0  0
   13.3098   -2.3408   19.9797 H   0  0  0  0  0  0  0  0  0  0  0  0
   11.8007   -1.7624   21.4222 C   0  0  0  0  0  0  0  0  0  0  0  0
   11.0057   -2.3035   20.9244 H   0  0  0  0  0  0  0  0  0  0  0  0
    7.8546   -2.0444   22.5997 N   0  0  0  0  0  0  0  0  0  0  0  0
    7.6215   -2.7208   23.3084 H   0  0  0  0  0  0  0  0  0  0  0  0
    6.9360   -1.8465   21.6200 C   0  0  0  0  0  0  0  0  0  0  0  0
    5.5491   -2.7411   21.4019 S   0  0  0  0  0  0  0  0  0  0  0  0
    5.5243    0.5143   20.1213 C   0  0  0  0  0  0  0  0  0  0  0  0
    5.0876    0.4292   21.1177 H   0  0  0  0  0  0  0  0  0  0  0  0
    4.8919    1.2358   19.1010 C   0  0  0  0  0  0  0  0  0  0  0  0
    3.9566    1.7604   19.2787 H   0  0  0  0  0  0  0  0  0  0  0  0
  1  2  1  0
  2  3  2  0
  3  4  1  0
  4  5  1  0
  4  6  2  0
  6  7  1  0
  7  8  1  0
  8  9  1  0
  8 10  2  0
 10 11  1  0
 11 12  2  0
 11 13  1  0
 13 14  2  0
 14 15  1  0
 14 16  1  0
 16 17  1  0
 16 18  2  0
 18 19  1  0
 19 20  1  0
 19 21  2  0
 21 22  1  0
 10 23  1  0
 23 24  1  0
 23 25  1  0
 25 26  2  0
  6 27  1  0
 27 28  1  0
 27 29  2  0
 29 30  1  0
 29  2  1  0
 25  7  1  0
 21 13  1  0
M  END
>  <cnnaffinity>  (1) 
-5.98785

>  <filename>  (1) 
O=C(c1ccncc1)c1cn(-c2cccnc2)c(=S)[nH]1

$$$$
