
     RDKit          3D

 33 33  0  0  0  0  0  0  0  0999 V2000
    2.3476    4.2401   23.0833 H   0  0  0  0  0  0  0  0  0  0  0  0
    2.8408    3.4011   23.0250 O   0  0  0  0  0  0  0  0  0  0  0  0
    4.1679    3.6982   23.3726 N   0  0  0  0  0  0  0  0  0  0  0  0
    4.7829    3.3000   22.6695 H   0  0  0  0  0  0  0  0  0  0  0  0
    4.6289    3.3592   24.6528 C   0  0  0  0  0  0  0  0  0  0  0  0
    3.9338    3.2797   25.6370 O   0  0  0  0  0  0  0  0  0  0  0  0
    6.1402    3.1773   24.6778 C   0  0  0  0  0  0  0  0  0  0  0  0
    6.6066    3.6720   23.8166 H   0  0  0  0  0  0  0  0  0  0  0  0
    6.4865    3.7034   25.5720 H   0  0  0  0  0  0  0  0  0  0  0  0
    6.5904    1.7001   24.7558 C   0  0  0  0  0  0  0  0  0  0  0  0
    7.6780    1.6846   24.9211 H   0  0  0  0  0  0  0  0  0  0  0  0
    6.1399    1.2328   25.6437 H   0  0  0  0  0  0  0  0  0  0  0  0
    6.2682    0.8785   23.4986 C   0  0  0  0  0  0  0  0  0  0  0  0
    5.1775    0.8216   23.3530 H   0  0  0  0  0  0  0  0  0  0  0  0
    6.7021    1.3906   22.6230 H   0  0  0  0  0  0  0  0  0  0  0  0
    6.8638   -0.5355   23.6032 C   0  0  0  0  0  0  0  0  0  0  0  0
    7.9202   -0.4959   23.8789 H   0  0  0  0  0  0  0  0  0  0  0  0
    6.3442   -1.1633   24.3302 H   0  0  0  0  0  0  0  0  0  0  0  0
    6.9305   -1.5627   22.1437 S   0  0  0  0  0  0  0  0  0  0  0  0
    5.6402   -2.0898   21.7594 O   0  0  0  0  0  0  0  0  0  0  0  0
    8.0805   -2.4436   22.2664 O   0  0  0  0  0  0  0  0  0  0  0  0
    7.5421   -0.5318   20.9720 N   0  0  0  0  0  0  0  0  0  0  0  0
    8.2945   -1.1631   20.7066 H   0  0  0  0  0  0  0  0  0  0  0  0
    6.7740    0.0557   19.9158 C   0  0  0  0  0  0  0  0  0  0  0  0
    7.2745    0.1229   18.5875 C   0  0  0  0  0  0  0  0  0  0  0  0
    8.2322   -0.3510   18.3731 H   0  0  0  0  0  0  0  0  0  0  0  0
    6.6310    0.6989   17.5648 N   0  0  0  0  0  0  0  0  0  0  0  0
    5.4460    1.2750   17.8393 C   0  0  0  0  0  0  0  0  0  0  0  0
    4.9623    1.7775   17.0091 H   0  0  0  0  0  0  0  0  0  0  0  0
    4.8604    1.2680   19.1102 C   0  0  0  0  0  0  0  0  0  0  0  0
    3.9145    1.7741   19.2747 H   0  0  0  0  0  0  0  0  0  0  0  0
    5.5320    0.6373   20.1697 C   0  0  0  0  0  0  0  0  0  0  0  0
    5.1053    0.5756   21.1677 H   0  0  0  0  0  0  0  0  0  0  0  0
  1  2  1  0
  2  3  1  0
  3  4  1  0
  3  5  1  0
  5  6  2  0
  5  7  1  0
  7  8  1  0
  7  9  1  0
  7 10  1  0
 10 11  1  0
 10 12  1  0
 10 13  1  0
 13 14  1  0
 13 15  1  0
 13 16  1  0
 16 17  1  0
 16 18  1  0
 16 19  1  0
 19 20  2  0
 19 21  2  0
 19 22  1  0
 22 23  1  0
 22 24  1  0
 24 25  2  0
 25 26  1  0
 25 27  1  0
 27 28  2  0
 28 29  1  0
 28 30  1  0
 30 31  1  0
 30 32  2  0
 32 33  1  0
 32 24  1  0
M  END
>  <cnnaffinity>  (1) 
-5.13253

>  <filename>  (1) 
O=C(CCCCS(=O)(=O)Nc1cccnc1)NO

$$$$
