
     RDKit          3D

 32 34  0  0  0  0  0  0  0  0999 V2000
    7.7119    0.7377   22.9197 O   0  0  0  0  0  0  0  0  0  0  0  0
    8.2564    0.4583   21.8739 C   0  0  0  0  0  0  0  0  0  0  0  0
    9.4238    1.0418   21.4260 N   0  0  0  0  0  0  0  0  0  0  0  0
   10.0015    2.2318   21.9327 C   0  0  0  0  0  0  0  0  0  0  0  0
    9.1785    3.2489   22.4834 C   0  0  0  0  0  0  0  0  0  0  0  0
    9.7247    4.4536   22.9139 C   0  0  0  0  0  0  0  0  0  0  0  0
   11.1219    4.6177   22.8323 C   0  0  0  0  0  0  0  0  0  0  0  0
   11.9339    5.6683   23.1922 N   0  0  0  0  0  0  0  0  0  0  0  0
   13.2541    5.3300   22.9482 C   0  0  0  0  0  0  0  0  0  0  0  0
   13.3143    4.0677   22.4329 C   0  0  0  0  0  0  0  0  0  0  0  0
   11.9611    3.5894   22.3237 C   0  0  0  0  0  0  0  0  0  0  0  0
   11.3813    2.4015   21.8341 C   0  0  0  0  0  0  0  0  0  0  0  0
   12.0125    1.6292   21.3998 H   0  0  0  0  0  0  0  0  0  0  0  0
   14.2188    3.5219   22.1906 H   0  0  0  0  0  0  0  0  0  0  0  0
   14.0671    6.0102   23.1691 H   0  0  0  0  0  0  0  0  0  0  0  0
   11.5839    6.5651   23.4932 H   0  0  0  0  0  0  0  0  0  0  0  0
    9.0775    5.2457   23.2849 H   0  0  0  0  0  0  0  0  0  0  0  0
    8.1108    3.0673   22.5605 H   0  0  0  0  0  0  0  0  0  0  0  0
    9.9725    0.5439   20.7456 H   0  0  0  0  0  0  0  0  0  0  0  0
    7.6082   -0.5946   20.8761 C   0  0  0  0  0  0  0  0  0  0  0  0
    8.6232   -1.3227   20.2864 F   0  0  0  0  0  0  0  0  0  0  0  0
    6.8822   -1.4782   21.6041 F   0  0  0  0  0  0  0  0  0  0  0  0
    6.7341    0.0056   19.7868 C   0  0  0  0  0  0  0  0  0  0  0  0
    5.5335    0.6681   20.0878 C   0  0  0  0  0  0  0  0  0  0  0  0
    4.8740    1.3249   19.0459 C   0  0  0  0  0  0  0  0  0  0  0  0
    5.4284    1.2881   17.7609 C   0  0  0  0  0  0  0  0  0  0  0  0
    6.5298    0.5875   17.4516 N   0  0  0  0  0  0  0  0  0  0  0  0
    7.1439   -0.0562   18.4452 C   0  0  0  0  0  0  0  0  0  0  0  0
    8.0013   -0.6690   18.1766 H   0  0  0  0  0  0  0  0  0  0  0  0
    4.9671    1.8251   16.9332 H   0  0  0  0  0  0  0  0  0  0  0  0
    3.9508    1.8706   19.2070 H   0  0  0  0  0  0  0  0  0  0  0  0
    5.1107    0.6528   21.0954 H   0  0  0  0  0  0  0  0  0  0  0  0
  1  2  2  0
  2  3  1  0
  3  4  1  0
  4  5  2  0
  5  6  1  0
  6  7  2  0
  7  8  1  0
  8  9  1  0
  9 10  2  0
 10 11  1  0
 11 12  2  0
 12 13  1  0
 10 14  1  0
  9 15  1  0
  8 16  1  0
  6 17  1  0
  5 18  1  0
  3 19  1  0
  2 20  1  0
 20 21  1  0
 20 22  1  0
 20 23  1  0
 23 24  2  0
 24 25  1  0
 25 26  2  0
 26 27  1  0
 27 28  2  0
 28 29  1  0
 26 30  1  0
 25 31  1  0
 24 32  1  0
 12  4  1  0
 28 23  1  0
 11  7  1  0
M  END
>  <cnnaffinity>  (1) 
-5.08419

>  <filename>  (1) 
O=C(Nc1ccc2[nH]ccc2c1)C(F)(F)c1cccnc1

$$$$
