
     RDKit          3D

 33 34  0  0  0  0  0  0  0  0999 V2000
    7.7011    1.7871   23.9456 H   0  0  0  0  0  0  0  0  0  0  0  0
    8.2781    2.3835   23.4298 O   0  0  0  0  0  0  0  0  0  0  0  0
    9.2070    1.5843   22.7851 N   0  0  0  0  0  0  0  0  0  0  0  0
    9.1257    1.5734   21.7774 H   0  0  0  0  0  0  0  0  0  0  0  0
   10.4156    1.2017   23.3018 C   0  0  0  0  0  0  0  0  0  0  0  0
   10.8095    1.3995   24.4366 O   0  0  0  0  0  0  0  0  0  0  0  0
   11.2380    0.4045   22.2870 C   0  0  0  0  0  0  0  0  0  0  0  0
   10.6911    0.1816   21.3632 H   0  0  0  0  0  0  0  0  0  0  0  0
   12.0895    1.0432   22.0135 H   0  0  0  0  0  0  0  0  0  0  0  0
   11.8045   -0.8510   22.9660 C   0  0  0  0  0  0  0  0  0  0  0  0
   12.5088   -1.3639   22.2945 H   0  0  0  0  0  0  0  0  0  0  0  0
   12.3982   -0.4335   23.7907 H   0  0  0  0  0  0  0  0  0  0  0  0
   10.7587   -1.8660   23.5112 C   0  0  0  0  0  0  0  0  0  0  0  0
   10.1249   -1.3659   24.2630 H   0  0  0  0  0  0  0  0  0  0  0  0
   11.2052   -2.7169   24.0469 H   0  0  0  0  0  0  0  0  0  0  0  0
    9.9578   -2.5458   22.3933 C   0  0  0  0  0  0  0  0  0  0  0  0
   10.6115   -2.7136   21.5356 H   0  0  0  0  0  0  0  0  0  0  0  0
    9.5689   -3.5161   22.7241 H   0  0  0  0  0  0  0  0  0  0  0  0
    8.8017   -1.7520   21.9227 C   0  0  0  0  0  0  0  0  0  0  0  0
    8.5361   -1.2759   20.7472 N   0  0  0  0  0  0  0  0  0  0  0  0
    7.3382   -0.6424   20.9742 C   0  0  0  0  0  0  0  0  0  0  0  0
    6.6211    0.0389   19.9195 C   0  0  0  0  0  0  0  0  0  0  0  0
    7.1691    0.0525   18.6308 C   0  0  0  0  0  0  0  0  0  0  0  0
    8.1170   -0.4362   18.4113 H   0  0  0  0  0  0  0  0  0  0  0  0
    6.5749    0.6593   17.6002 N   0  0  0  0  0  0  0  0  0  0  0  0
    5.4125    1.2852   17.8357 C   0  0  0  0  0  0  0  0  0  0  0  0
    4.9619    1.7827   16.9816 H   0  0  0  0  0  0  0  0  0  0  0  0
    4.7910    1.3179   19.0904 C   0  0  0  0  0  0  0  0  0  0  0  0
    3.8597    1.8541   19.2177 H   0  0  0  0  0  0  0  0  0  0  0  0
    5.3988    0.6771   20.1607 C   0  0  0  0  0  0  0  0  0  0  0  0
    4.9513    0.6691   21.1572 H   0  0  0  0  0  0  0  0  0  0  0  0
    6.8984   -0.7153   22.2019 N   0  0  0  0  0  0  0  0  0  0  0  0
    7.8679   -1.4734   22.8340 O   0  0  0  0  0  0  0  0  0  0  0  0
  1  2  1  0
  2  3  1  0
  3  4  1  0
  3  5  1  0
  5  6  2  0
  5  7  1  0
  7  8  1  0
  7  9  1  0
  7 10  1  0
 10 11  1  0
 10 12  1  0
 10 13  1  0
 13 14  1  0
 13 15  1  0
 13 16  1  0
 16 17  1  0
 16 18  1  0
 16 19  1  0
 19 20  2  0
 20 21  1  0
 21 22  1  0
 22 23  2  0
 23 24  1  0
 23 25  1  0
 25 26  2  0
 26 27  1  0
 26 28  1  0
 28 29  1  0
 28 30  2  0
 30 31  1  0
 21 32  2  0
 32 33  1  0
 33 19  1  0
 30 22  1  0
M  END
>  <cnnaffinity>  (1) 
-5.09639

>  <filename>  (1) 
O=C(CCCCc1nc(-c2cccnc2)no1)NO

$$$$
