
     RDKit          3D

 30 32  0  0  0  0  0  0  0  0999 V2000
    4.9488    1.8969   16.9241 H   0  0  0  0  0  0  0  0  0  0  0  0
    5.4311    1.3915   17.7630 C   0  0  0  0  0  0  0  0  0  0  0  0
    6.6157    0.8125   17.5138 N   0  0  0  0  0  0  0  0  0  0  0  0
    7.2014    0.1487   18.5218 C   0  0  0  0  0  0  0  0  0  0  0  0
    8.1572   -0.3196   18.2801 H   0  0  0  0  0  0  0  0  0  0  0  0
    6.6616    0.0265   19.8138 C   0  0  0  0  0  0  0  0  0  0  0  0
    7.2698   -0.8555   20.8794 C   0  0  0  0  0  0  0  0  0  0  0  0
    8.3567   -0.9232   20.7555 H   0  0  0  0  0  0  0  0  0  0  0  0
    7.0900   -0.4039   21.8627 H   0  0  0  0  0  0  0  0  0  0  0  0
    6.7155   -2.2899   20.9498 C   0  0  0  0  0  0  0  0  0  0  0  0
    5.7962   -2.6621   20.2384 O   0  0  0  0  0  0  0  0  0  0  0  0
    7.3287   -3.2307   21.9078 C   0  0  0  0  0  0  0  0  0  0  0  0
    6.9266   -4.5429   21.9276 C   0  0  0  0  0  0  0  0  0  0  0  0
    6.1942   -5.0284   21.2907 H   0  0  0  0  0  0  0  0  0  0  0  0
    7.6152   -5.2245   22.8804 N   0  0  0  0  0  0  0  0  0  0  0  0
    7.4581   -6.1735   23.1671 H   0  0  0  0  0  0  0  0  0  0  0  0
    8.4898   -4.3811   23.5108 C   0  0  0  0  0  0  0  0  0  0  0  0
    9.4064   -4.6843   24.5291 C   0  0  0  0  0  0  0  0  0  0  0  0
    9.4453   -5.6914   24.9337 H   0  0  0  0  0  0  0  0  0  0  0  0
   10.2251   -3.6610   24.9837 C   0  0  0  0  0  0  0  0  0  0  0  0
   10.9840   -3.8704   25.7365 H   0  0  0  0  0  0  0  0  0  0  0  0
   10.0898   -2.3525   24.4580 C   0  0  0  0  0  0  0  0  0  0  0  0
   10.7183   -1.5622   24.8533 H   0  0  0  0  0  0  0  0  0  0  0  0
    9.1641   -2.0595   23.4613 C   0  0  0  0  0  0  0  0  0  0  0  0
    9.0825   -1.0382   23.1030 H   0  0  0  0  0  0  0  0  0  0  0  0
    8.3481   -3.0925   22.9416 C   0  0  0  0  0  0  0  0  0  0  0  0
    5.4666    0.7092   20.0669 C   0  0  0  0  0  0  0  0  0  0  0  0
    5.0432    0.7162   21.0722 H   0  0  0  0  0  0  0  0  0  0  0  0
    4.8283    1.3806   19.0221 C   0  0  0  0  0  0  0  0  0  0  0  0
    3.8776    1.8764   19.1684 H   0  0  0  0  0  0  0  0  0  0  0  0
  1  2  1  0
  2  3  2  0
  3  4  1  0
  4  5  1  0
  4  6  2  0
  6  7  1  0
  7  8  1  0
  7  9  1  0
  7 10  1  0
 10 11  2  0
 10 12  1  0
 12 13  2  0
 13 14  1  0
 13 15  1  0
 15 16  1  0
 15 17  1  0
 17 18  2  0
 18 19  1  0
 18 20  1  0
 20 21  1  0
 20 22  2  0
 22 23  1  0
 22 24  1  0
 24 25  1  0
 24 26  2  0
  6 27  1  0
 27 28  1  0
 27 29  2  0
 29 30  1  0
 29  2  1  0
 26 12  1  0
 26 17  1  0
M  END
>  <cnnaffinity>  (1) 
-4.82313

>  <filename>  (1) 
O=C(Cc1cccnc1)c1c[nH]c2ccccc12

$$$$
