
     RDKit          3D

 25 26  0  0  0  0  0  0  0  0999 V2000
    4.9205    1.7767   16.9997 H   0  0  0  0  0  0  0  0  0  0  0  0
    5.4068    1.2906   17.8425 C   0  0  0  0  0  0  0  0  0  0  0  0
    6.5730    0.6753   17.5840 N   0  0  0  0  0  0  0  0  0  0  0  0
    7.1729    0.0540   18.6020 C   0  0  0  0  0  0  0  0  0  0  0  0
    8.1168   -0.4382   18.3800 H   0  0  0  0  0  0  0  0  0  0  0  0
    6.6537    0.0204   19.9054 C   0  0  0  0  0  0  0  0  0  0  0  0
    7.4028   -0.7501   20.9413 C   0  0  0  0  0  0  0  0  0  0  0  0
    7.9941   -1.7709   20.6365 O   0  0  0  0  0  0  0  0  0  0  0  0
    7.3945   -0.2362   22.3670 C   0  0  0  0  0  0  0  0  0  0  0  0
    7.4711   -1.1826   23.4070 C   0  0  0  0  0  0  0  0  0  0  0  0
    7.5159   -2.2458   23.1701 H   0  0  0  0  0  0  0  0  0  0  0  0
    7.5043   -0.7524   24.7336 C   0  0  0  0  0  0  0  0  0  0  0  0
    7.5694   -1.4822   25.5326 H   0  0  0  0  0  0  0  0  0  0  0  0
    7.4664    0.6069   25.0516 C   0  0  0  0  0  0  0  0  0  0  0  0
    7.4926    0.9416   26.0848 H   0  0  0  0  0  0  0  0  0  0  0  0
    7.3988    1.5440   24.0134 C   0  0  0  0  0  0  0  0  0  0  0  0
    7.3573    2.9945   24.3370 N   0  0  0  0  0  4  0  0  0  0  0  0
    7.2877    3.7975   23.4228 O   0  0  0  0  0  0  0  0  0  0  0  0
    7.3978    3.3116   25.5154 O   0  0  0  0  0  1  0  0  0  0  0  0
    7.3651    1.1406   22.6747 C   0  0  0  0  0  0  0  0  0  0  0  0
    7.3240    1.8916   21.8865 H   0  0  0  0  0  0  0  0  0  0  0  0
    5.4303    0.6574   20.1608 C   0  0  0  0  0  0  0  0  0  0  0  0
    4.9978    0.6437   21.1671 H   0  0  0  0  0  0  0  0  0  0  0  0
    4.7983    1.3091   19.1043 C   0  0  0  0  0  0  0  0  0  0  0  0
    3.8676    1.8472   19.2574 H   0  0  0  0  0  0  0  0  0  0  0  0
  1  2  1  0
  2  3  2  0
  3  4  1  0
  4  5  1  0
  4  6  2  0
  6  7  1  0
  7  8  2  0
  7  9  1  0
  9 10  2  0
 10 11  1  0
 10 12  1  0
 12 13  1  0
 12 14  2  0
 14 15  1  0
 14 16  1  0
 16 17  1  0
 17 18  2  0
 17 19  1  0
 16 20  2  0
 20 21  1  0
  6 22  1  0
 22 23  1  0
 22 24  2  0
 24 25  1  0
 24  2  1  0
 20  9  1  0
M  CHG  2  17   1  19  -1
M  END
>  <cnnaffinity>  (1) 
-4.77529

>  <filename>  (1) 
O=C(c1cccnc1)c1cccc([N+](=O)[O-])c1

$$$$
