
     RDKit          3D

 36 38  0  0  0  0  0  0  0  0999 V2000
    4.9688    1.7867   17.0119 H   0  0  0  0  0  0  0  0  0  0  0  0
    5.4298    1.2833   17.8553 C   0  0  0  0  0  0  0  0  0  0  0  0
    6.6002    0.6651   17.6082 N   0  0  0  0  0  0  0  0  0  0  0  0
    7.1913    0.0347   18.6315 C   0  0  0  0  0  0  0  0  0  0  0  0
    8.1426   -0.4596   18.4402 H   0  0  0  0  0  0  0  0  0  0  0  0
    6.6511   -0.0094   19.9282 C   0  0  0  0  0  0  0  0  0  0  0  0
    7.3471   -0.7437   20.8570 O   0  0  0  0  0  0  0  0  0  0  0  0
    7.4091   -0.3499   22.1733 C   0  0  0  0  0  0  0  0  0  0  0  0
    7.1999    0.8995   22.8069 C   0  0  0  0  0  0  0  0  0  0  0  0
    6.9200    1.8485   22.3610 H   0  0  0  0  0  0  0  0  0  0  0  0
    7.4048    0.8112   24.1153 N   0  0  0  0  0  0  0  0  0  0  0  0
    7.7317   -0.4757   24.3256 N   0  0  0  0  0  0  0  0  0  0  0  0
    8.0972   -0.8401   25.1960 H   0  0  0  0  0  0  0  0  0  0  0  0
    7.7647   -1.2055   23.1906 C   0  0  0  0  0  0  0  0  0  0  0  0
    8.0714   -2.5728   23.1852 N   0  0  0  0  0  0  0  0  0  0  0  0
    7.8378   -3.0954   22.3628 H   0  0  0  0  0  0  0  0  0  0  0  0
    8.7348   -3.2345   24.1862 C   0  0  0  0  0  0  0  0  0  0  0  0
    9.2195   -2.6551   25.1433 O   0  0  0  0  0  0  0  0  0  0  0  0
    8.7563   -4.7437   24.0513 C   0  0  0  0  0  0  0  0  0  0  0  0
    8.9162   -5.0141   23.0068 H   0  0  0  0  0  0  0  0  0  0  0  0
    9.6307   -5.0781   24.6165 H   0  0  0  0  0  0  0  0  0  0  0  0
    7.4601   -5.3385   24.5716 C   0  0  0  0  0  0  0  0  0  0  0  0
    7.2962   -5.5639   25.9441 C   0  0  0  0  0  0  0  0  0  0  0  0
    8.1298   -5.3612   26.6122 H   0  0  0  0  0  0  0  0  0  0  0  0
    6.0821   -6.0381   26.4507 C   0  0  0  0  0  0  0  0  0  0  0  0
    5.9716   -6.2095   27.5177 H   0  0  0  0  0  0  0  0  0  0  0  0
    5.0092   -6.2827   25.5870 C   0  0  0  0  0  0  0  0  0  0  0  0
    4.0621   -6.6409   25.9868 H   0  0  0  0  0  0  0  0  0  0  0  0
    5.1588   -6.0558   24.2147 C   0  0  0  0  0  0  0  0  0  0  0  0
    4.3258   -6.2401   23.5414 H   0  0  0  0  0  0  0  0  0  0  0  0
    6.3789   -5.5852   23.7129 C   0  0  0  0  0  0  0  0  0  0  0  0
    6.4856   -5.4157   22.6436 H   0  0  0  0  0  0  0  0  0  0  0  0
    5.4285    0.6253   20.1747 C   0  0  0  0  0  0  0  0  0  0  0  0
    4.9942    0.6142   21.1755 H   0  0  0  0  0  0  0  0  0  0  0  0
    4.8106    1.2892   19.1084 C   0  0  0  0  0  0  0  0  0  0  0  0
    3.8709    1.8178   19.2491 H   0  0  0  0  0  0  0  0  0  0  0  0
  1  2  1  0
  2  3  2  0
  3  4  1  0
  4  5  1  0
  4  6  2  0
  6  7  1  0
  7  8  1  0
  8  9  1  0
  9 10  1  0
  9 11  2  0
 11 12  1  0
 12 13  1  0
 12 14  1  0
 14 15  1  0
 15 16  1  0
 15 17  1  0
 17 18  2  0
 17 19  1  0
 19 20  1  0
 19 21  1  0
 19 22  1  0
 22 23  2  0
 23 24  1  0
 23 25  1  0
 25 26  1  0
 25 27  2  0
 27 28  1  0
 27 29  1  0
 29 30  1  0
 29 31  2  0
 31 32  1  0
  6 33  1  0
 33 34  1  0
 33 35  2  0
 35 36  1  0
 35  2  1  0
 14  8  2  0
 31 22  1  0
M  END
>  <cnnaffinity>  (1) 
-5.06699

>  <filename>  (1) 
O=C(Cc1ccccc1)Nc1[nH]ncc1Oc1cccnc1

$$$$
