
     RDKit          3D

 38 39  0  0  0  0  0  0  0  0999 V2000
    9.3750    2.1513   30.8808 H   0  0  0  0  0  0  0  0  0  0  0  0
    8.5977    1.5771   31.0134 O   0  0  0  0  0  0  0  0  0  0  0  0
    8.2459    1.0913   29.7593 N   0  0  0  0  0  0  0  0  0  0  0  0
    8.2904    0.0836   29.7081 H   0  0  0  0  0  0  0  0  0  0  0  0
    7.3252    1.7025   28.9315 C   0  0  0  0  0  0  0  0  0  0  0  0
    6.9421    2.8503   29.0430 O   0  0  0  0  0  0  0  0  0  0  0  0
    6.9826    0.8111   27.7462 C   0  0  0  0  0  0  0  0  0  0  0  0
    6.0419    1.2017   27.3536 H   0  0  0  0  0  0  0  0  0  0  0  0
    6.8075   -0.2266   28.0606 H   0  0  0  0  0  0  0  0  0  0  0  0
    8.0733    0.8800   26.6626 C   0  0  0  0  0  0  0  0  0  0  0  0
    8.2387    1.9405   26.4210 H   0  0  0  0  0  0  0  0  0  0  0  0
    9.0296    0.5028   27.0530 H   0  0  0  0  0  0  0  0  0  0  0  0
    7.7210    0.1094   25.3927 C   0  0  0  0  0  0  0  0  0  0  0  0
    6.7799    0.4963   24.9798 H   0  0  0  0  0  0  0  0  0  0  0  0
    7.5446   -0.9505   25.6192 H   0  0  0  0  0  0  0  0  0  0  0  0
    8.8318    0.2120   24.3347 C   0  0  0  0  0  0  0  0  0  0  0  0
    9.7525   -0.2105   24.7547 H   0  0  0  0  0  0  0  0  0  0  0  0
    9.0414    1.2769   24.1478 H   0  0  0  0  0  0  0  0  0  0  0  0
    8.4877   -0.4991   23.0526 C   0  0  0  0  0  0  0  0  0  0  0  0
    7.7990    0.0898   22.0498 C   0  0  0  0  0  0  0  0  0  0  0  0
    7.5690    1.1584   22.0523 H   0  0  0  0  0  0  0  0  0  0  0  0
    7.3183   -0.6425   20.9579 N   0  0  0  0  0  0  0  0  0  0  0  0
    6.6532    0.0443   19.8741 C   0  0  0  0  0  0  0  0  0  0  0  0
    7.1760    0.0949   18.5646 C   0  0  0  0  0  0  0  0  0  0  0  0
    8.1246   -0.3898   18.3386 H   0  0  0  0  0  0  0  0  0  0  0  0
    6.5586    0.7211   17.5537 N   0  0  0  0  0  0  0  0  0  0  0  0
    5.3868    1.3254   17.8122 C   0  0  0  0  0  0  0  0  0  0  0  0
    4.9003    1.8130   16.9713 H   0  0  0  0  0  0  0  0  0  0  0  0
    4.7884    1.3385   19.0770 C   0  0  0  0  0  0  0  0  0  0  0  0
    3.8389    1.8416   19.2315 H   0  0  0  0  0  0  0  0  0  0  0  0
    5.4430    0.6912   20.1294 C   0  0  0  0  0  0  0  0  0  0  0  0
    5.0366    0.6546   21.1412 H   0  0  0  0  0  0  0  0  0  0  0  0
    7.3281   -2.0552   21.0214 C   0  0  0  0  0  0  0  0  0  0  0  0
    6.5657   -2.7986   20.4587 O   0  0  0  0  0  0  0  0  0  0  0  0
    8.3602   -2.5466   21.7680 N   0  0  0  0  0  0  0  0  0  0  0  0
    8.3220   -3.5451   21.8428 H   0  0  0  0  0  0  0  0  0  0  0  0
    8.7467   -1.9529   22.9560 C   0  0  0  0  0  0  0  0  0  0  0  0
    9.2493   -2.6595   23.8022 O   0  0  0  0  0  0  0  0  0  0  0  0
  1  2  1  0
  2  3  1  0
  3  4  1  0
  3  5  1  0
  5  6  2  0
  5  7  1  0
  7  8  1  0
  7  9  1  0
  7 10  1  0
 10 11  1  0
 10 12  1  0
 10 13  1  0
 13 14  1  0
 13 15  1  0
 13 16  1  0
 16 17  1  0
 16 18  1  0
 16 19  1  0
 19 20  2  0
 20 21  1  0
 20 22  1  0
 22 23  1  0
 23 24  2  0
 24 25  1  0
 24 26  1  0
 26 27  2  0
 27 28  1  0
 27 29  1  0
 29 30  1  0
 29 31  2  0
 31 32  1  0
 22 33  1  0
 33 34  2  0
 33 35  1  0
 35 36  1  0
 35 37  1  0
 37 38  2  0
 37 19  1  0
 31 23  1  0
M  END
>  <cnnaffinity>  (1) 
-5.22374

>  <filename>  (1) 
O=C(CCCCc1cn(-c2cccnc2)c(=O)[nH]c1=O)NO

$$$$
