
     RDKit          3D

 36 38  0  0  0  0  0  0  0  0999 V2000
    5.0466    1.8029   16.8927 H   0  0  0  0  0  0  0  0  0  0  0  0
    5.5122    1.3054   17.7442 C   0  0  0  0  0  0  0  0  0  0  0  0
    6.6656    0.6648   17.4904 N   0  0  0  0  0  0  0  0  0  0  0  0
    7.2638    0.0326   18.5057 C   0  0  0  0  0  0  0  0  0  0  0  0
    8.1872   -0.4923   18.2559 H   0  0  0  0  0  0  0  0  0  0  0  0
    6.7505   -0.0052   19.8133 C   0  0  0  0  0  0  0  0  0  0  0  0
    7.4038   -0.7462   20.8861 C   0  0  0  0  0  0  0  0  0  0  0  0
    6.8801   -1.3641   21.9575 C   0  0  0  0  0  0  0  0  0  0  0  0
    5.8504   -1.5463   22.2270 H   0  0  0  0  0  0  0  0  0  0  0  0
    7.9510   -1.8735   22.7053 N   0  0  0  0  0  0  0  0  0  0  0  0
    7.7680   -2.6541   23.8670 C   0  0  0  0  0  0  0  0  0  0  0  0
    6.7471   -3.2950   24.0069 O   0  0  0  0  0  0  0  0  0  0  0  0
    8.7566   -2.5216   24.7805 N   0  0  0  0  0  0  0  0  0  0  0  0
    9.6692   -2.4121   24.3466 H   0  0  0  0  0  0  0  0  0  0  0  0
    8.6819   -3.2728   26.0309 C   0  0  0  0  0  0  0  0  0  0  0  0
    9.5582   -2.9750   26.6156 H   0  0  0  0  0  0  0  0  0  0  0  0
    7.4062   -2.9692   26.8585 C   0  0  0  0  0  0  0  0  0  0  0  0
    7.6773   -2.3599   27.7267 H   0  0  0  0  0  0  0  0  0  0  0  0
    6.6965   -2.3777   26.2790 H   0  0  0  0  0  0  0  0  0  0  0  0
    6.7862   -4.3422   27.2181 C   0  0  0  0  0  0  0  0  0  0  0  0
    6.3539   -4.3726   28.2235 H   0  0  0  0  0  0  0  0  0  0  0  0
    5.9625   -4.5534   26.5193 H   0  0  0  0  0  0  0  0  0  0  0  0
    7.9163   -5.3713   27.0125 C   0  0  0  0  0  0  0  0  0  0  0  0
    7.5402   -6.3854   26.8201 H   0  0  0  0  0  0  0  0  0  0  0  0
    8.5644   -5.4270   27.8984 H   0  0  0  0  0  0  0  0  0  0  0  0
    8.6943   -4.8000   25.8196 C   0  0  0  0  0  0  0  0  0  0  0  0
    8.1415   -5.0061   24.8981 H   0  0  0  0  0  0  0  0  0  0  0  0
    9.7166   -5.1821   25.7026 H   0  0  0  0  0  0  0  0  0  0  0  0
    9.1347   -1.5981   22.0767 C   0  0  0  0  0  0  0  0  0  0  0  0
   10.7079   -1.9662   22.4761 S   0  0  0  0  0  0  0  0  0  0  0  0
    8.7769   -0.9374   20.9608 N   0  0  0  0  0  0  0  0  0  0  0  0
    9.5096   -0.5934   20.3655 H   0  0  0  0  0  0  0  0  0  0  0  0
    5.5472    0.6741   20.0637 C   0  0  0  0  0  0  0  0  0  0  0  0
    5.1292    0.6929   21.0711 H   0  0  0  0  0  0  0  0  0  0  0  0
    4.9194    1.3354   19.0104 C   0  0  0  0  0  0  0  0  0  0  0  0
    3.9915    1.8742   19.1528 H   0  0  0  0  0  0  0  0  0  0  0  0
  1  2  1  0
  2  3  2  0
  3  4  1  0
  4  5  1  0
  4  6  2  0
  6  7  1  0
  7  8  2  0
  8  9  1  0
  8 10  1  0
 10 11  1  0
 11 12  2  0
 11 13  1  0
 13 14  1  0
 13 15  1  0
 15 16  1  0
 15 17  1  0
 17 18  1  0
 17 19  1  0
 17 20  1  0
 20 21  1  0
 20 22  1  0
 20 23  1  0
 23 24  1  0
 23 25  1  0
 23 26  1  0
 26 27  1  0
 26 28  1  0
 10 29  1  0
 29 30  2  0
 29 31  1  0
 31 32  1  0
  6 33  1  0
 33 34  1  0
 33 35  2  0
 35 36  1  0
 35  2  1  0
 31  7  1  0
 26 15  1  0
M  END
>  <cnnaffinity>  (1) 
-5.25887

>  <filename>  (1) 
O=C(NC1CCCC1)n1cc(-c2cccnc2)[nH]c1=S

$$$$
