
     RDKit          3D

 34 36  0  0  0  0  0  0  0  0999 V2000
    4.9622    1.8006   17.1062 H   0  0  0  0  0  0  0  0  0  0  0  0
    5.3864    1.2132   17.9178 C   0  0  0  0  0  0  0  0  0  0  0  0
    6.4977    0.5198   17.6179 N   0  0  0  0  0  0  0  0  0  0  0  0
    7.0834   -0.1730   18.5968 C   0  0  0  0  0  0  0  0  0  0  0  0
    8.0168   -0.6854   18.3588 H   0  0  0  0  0  0  0  0  0  0  0  0
    6.5779   -0.2464   19.9121 C   0  0  0  0  0  0  0  0  0  0  0  0
    7.3571   -0.8774   20.9379 N   0  0  0  0  0  0  0  0  0  0  0  0
    7.0788   -1.8521   21.8844 C   0  0  0  0  0  0  0  0  0  0  0  0
    5.8833   -2.5098   21.8857 N   0  0  0  0  0  0  0  0  0  0  0  0
    5.1803   -2.1608   21.2648 H   0  0  0  0  0  0  0  0  0  0  0  0
    5.4669   -3.2185   23.0056 C   0  0  0  0  0  0  0  0  0  0  0  0
    6.1249   -3.3813   24.0024 O   0  0  0  0  0  0  0  0  0  0  0  0
    4.2061   -3.7212   22.7932 N   0  0  0  0  0  0  0  0  0  0  0  0
    3.9513   -3.8818   21.8379 H   0  0  0  0  0  0  0  0  0  0  0  0
    3.3677   -4.2722   23.7850 C   0  0  0  0  0  0  0  0  0  0  0  0
    3.3914   -3.8075   25.1103 C   0  0  0  0  0  0  0  0  0  0  0  0
    4.1412   -3.0842   25.4076 H   0  0  0  0  0  0  0  0  0  0  0  0
    2.4762   -4.3009   26.0441 C   0  0  0  0  0  0  0  0  0  0  0  0
    2.4951   -3.9614   27.0773 H   0  0  0  0  0  0  0  0  0  0  0  0
    1.5624   -5.2867   25.6582 C   0  0  0  0  0  0  0  0  0  0  0  0
    0.4657   -5.9494   26.8362 Cl  0  0  0  0  0  0  0  0  0  0  0  0
    1.5495   -5.7792   24.3495 C   0  0  0  0  0  0  0  0  0  0  0  0
    0.8593   -6.5738   24.0788 H   0  0  0  0  0  0  0  0  0  0  0  0
    2.4562   -5.2663   23.4141 C   0  0  0  0  0  0  0  0  0  0  0  0
    2.4885   -5.6562   22.4016 H   0  0  0  0  0  0  0  0  0  0  0  0
    8.0711   -2.1194   22.6704 N   0  0  0  0  0  0  0  0  0  0  0  0
    9.0580   -1.2835   22.2000 N   0  0  0  0  0  0  0  0  0  0  0  0
    9.9588   -1.1733   22.6313 H   0  0  0  0  0  0  0  0  0  0  0  0
    8.6886   -0.4848   21.1814 C   0  0  0  0  0  0  0  0  0  0  0  0
    9.3523    0.3604   20.6090 O   0  0  0  0  0  0  0  0  0  0  0  0
    5.3927    0.4333   20.1990 C   0  0  0  0  0  0  0  0  0  0  0  0
    4.9812    0.3930   21.2059 H   0  0  0  0  0  0  0  0  0  0  0  0
    4.7968    1.1959   19.1841 C   0  0  0  0  0  0  0  0  0  0  0  0
    3.9121    1.7934   19.3687 H   0  0  0  0  0  0  0  0  0  0  0  0
  1  2  1  0
  2  3  2  0
  3  4  1  0
  4  5  1  0
  4  6  2  0
  6  7  1  0
  7  8  1  0
  8  9  1  0
  9 10  1  0
  9 11  1  0
 11 12  2  0
 11 13  1  0
 13 14  1  0
 13 15  1  0
 15 16  2  0
 16 17  1  0
 16 18  1  0
 18 19  1  0
 18 20  2  0
 20 21  1  0
 20 22  1  0
 22 23  1  0
 22 24  2  0
 24 25  1  0
  8 26  2  0
 26 27  1  0
 27 28  1  0
 27 29  1  0
 29 30  2  0
  6 31  1  0
 31 32  1  0
 31 33  2  0
 33 34  1  0
 33  2  1  0
 29  7  1  0
 24 15  1  0
M  END
>  <cnnaffinity>  (1) 
-5.37123

>  <filename>  (1) 
O=C(Nc1ccc(Cl)cc1)Nc1n[nH]c(=O)n1-c1cccnc1

$$$$
