
     RDKit          3D

 35 38  0  0  0  0  0  0  0  0999 V2000
    7.1127    1.6103   30.5081 H   0  0  0  0  0  0  0  0  0  0  0  0
    7.7227    1.1984   29.8767 O   0  0  0  0  0  0  0  0  0  0  0  0
    6.8017    0.6734   29.0488 C   0  0  0  0  0  0  0  0  0  0  0  0
    5.6315    0.8455   29.3160 O   0  0  0  0  0  0  0  0  0  0  0  0
    7.3411   -0.0157   27.8509 C   0  0  0  0  0  0  0  0  0  0  0  0
    8.7224   -0.2181   27.6444 C   0  0  0  0  0  0  0  0  0  0  0  0
    9.4279   -0.0273   28.4522 H   0  0  0  0  0  0  0  0  0  0  0  0
    9.1862   -0.6775   26.4168 C   0  0  0  0  0  0  0  0  0  0  0  0
   10.2534   -0.7086   26.2236 H   0  0  0  0  0  0  0  0  0  0  0  0
    8.2806   -1.0140   25.3959 C   0  0  0  0  0  0  0  0  0  0  0  0
    8.7437   -1.3925   24.1182 N   0  0  0  0  0  0  0  0  0  0  0  0
    9.9140   -2.0869   23.8222 C   0  0  0  0  0  0  0  0  0  0  0  0
   10.5285   -2.4479   24.6288 H   0  0  0  0  0  0  0  0  0  0  0  0
   10.0408   -2.2130   22.4805 C   0  0  0  0  0  0  0  0  0  0  0  0
   10.7822   -2.6745   21.8565 H   0  0  0  0  0  0  0  0  0  0  0  0
    8.9288   -1.5849   21.9419 N   0  0  0  0  0  0  0  0  0  0  0  0
    8.5035   -1.3204   20.6932 N   0  0  0  0  0  0  0  0  0  0  0  0
    7.3664   -0.6391   20.9064 C   0  0  0  0  0  0  0  0  0  0  0  0
    6.6034   -0.0410   19.7951 C   0  0  0  0  0  0  0  0  0  0  0  0
    7.1337   -0.0098   18.4931 C   0  0  0  0  0  0  0  0  0  0  0  0
    8.0642   -0.5235   18.2622 H   0  0  0  0  0  0  0  0  0  0  0  0
    6.5633    0.6432   17.4748 N   0  0  0  0  0  0  0  0  0  0  0  0
    5.4203    1.3042   17.7140 C   0  0  0  0  0  0  0  0  0  0  0  0
    4.9917    1.8594   16.8804 H   0  0  0  0  0  0  0  0  0  0  0  0
    4.7859    1.3079   18.9602 C   0  0  0  0  0  0  0  0  0  0  0  0
    3.8661    1.8657   19.1046 H   0  0  0  0  0  0  0  0  0  0  0  0
    5.3826    0.6205   20.0124 C   0  0  0  0  0  0  0  0  0  0  0  0
    4.9122    0.6101   20.9958 H   0  0  0  0  0  0  0  0  0  0  0  0
    7.0599   -0.4881   22.2794 C   0  0  0  0  0  0  0  0  0  0  0  0
    6.1871   -0.0192   22.6961 H   0  0  0  0  0  0  0  0  0  0  0  0
    8.1309   -1.0987   22.9115 C   0  0  0  0  0  0  0  0  0  0  0  0
    6.9017   -0.9200   25.6431 C   0  0  0  0  0  0  0  0  0  0  0  0
    6.2129   -1.2243   24.8631 H   0  0  0  0  0  0  0  0  0  0  0  0
    6.4380   -0.4072   26.8464 C   0  0  0  0  0  0  0  0  0  0  0  0
    5.3708   -0.2547   26.9962 H   0  0  0  0  0  0  0  0  0  0  0  0
  1  2  1  0
  2  3  1  0
  3  4  2  0
  3  5  1  0
  5  6  2  0
  6  7  1  0
  6  8  1  0
  8  9  1  0
  8 10  2  0
 10 11  1  0
 11 12  1  0
 12 13  1  0
 12 14  2  0
 14 15  1  0
 14 16  1  0
 16 17  1  0
 17 18  2  0
 18 19  1  0
 19 20  2  0
 20 21  1  0
 20 22  1  0
 22 23  2  0
 23 24  1  0
 23 25  1  0
 25 26  1  0
 25 27  2  0
 27 28  1  0
 18 29  1  0
 29 30  1  0
 29 31  2  0
 10 32  1  0
 32 33  1  0
 32 34  2  0
 34 35  1  0
 34  5  1  0
 31 11  1  0
 31 16  1  0
 27 19  1  0
M  END
>  <cnnaffinity>  (1) 
-5.2735

>  <filename>  (1) 
O=C(O)c1ccc(-n2ccn3nc(-c4cccnc4)cc23)cc1

$$$$
