
     RDKit          3D

 31 33  0  0  0  0  0  0  0  0999 V2000
    5.1245    2.0966   16.9541 H   0  0  0  0  0  0  0  0  0  0  0  0
    5.4943    1.3987   17.7064 C   0  0  0  0  0  0  0  0  0  0  0  0
    6.6071    0.7166   17.3884 N   0  0  0  0  0  0  0  0  0  0  0  0
    7.1014   -0.1321   18.2981 C   0  0  0  0  0  0  0  0  0  0  0  0
    8.0026   -0.6850   18.0312 H   0  0  0  0  0  0  0  0  0  0  0  0
    6.5054   -0.3504   19.5553 C   0  0  0  0  0  0  0  0  0  0  0  0
    7.1249   -1.1969   20.5328 N   0  0  0  0  0  0  0  0  0  0  0  0
    8.2721   -0.8510   21.2188 C   0  0  0  0  0  0  0  0  0  0  0  0
    8.7723    0.0858   21.0057 H   0  0  0  0  0  0  0  0  0  0  0  0
    8.5689   -1.8501   22.0903 C   0  0  0  0  0  0  0  0  0  0  0  0
    9.8207   -2.1112   22.8660 C   0  0  0  0  0  0  0  0  0  0  0  0
    9.9379   -3.1006   23.5673 O   0  0  0  0  0  0  0  0  0  0  0  0
   10.9684   -1.1582   22.6688 C   0  0  0  0  0  0  0  0  0  0  0  0
   12.2177   -1.6939   22.3179 C   0  0  0  0  0  0  0  0  0  0  0  0
   12.3022   -2.7647   22.1832 H   0  0  0  0  0  0  0  0  0  0  0  0
   13.3532   -0.8958   22.2462 C   0  0  0  0  0  0  0  0  0  0  0  0
   14.3209   -1.3027   21.9738 H   0  0  0  0  0  0  0  0  0  0  0  0
   13.2355    0.4526   22.5800 C   0  0  0  0  0  0  0  0  0  0  0  0
   14.6734    1.3950   22.7274 Cl  0  0  0  0  0  0  0  0  0  0  0  0
   11.9991    1.0318   22.8663 C   0  0  0  0  0  0  0  0  0  0  0  0
   11.9563    2.0899   23.0918 H   0  0  0  0  0  0  0  0  0  0  0  0
   10.8590    0.2249   22.8887 C   0  0  0  0  0  0  0  0  0  0  0  0
    9.8961    0.6808   23.1020 H   0  0  0  0  0  0  0  0  0  0  0  0
    7.5316   -2.7738   21.9500 N   0  0  0  0  0  0  0  0  0  0  0  0
    7.3347   -3.6173   22.4754 H   0  0  0  0  0  0  0  0  0  0  0  0
    6.6439   -2.4080   20.9943 C   0  0  0  0  0  0  0  0  0  0  0  0
    5.3706   -3.3383   20.5133 S   0  0  0  0  0  0  0  0  0  0  0  0
    5.3321    0.3388   19.8722 C   0  0  0  0  0  0  0  0  0  0  0  0
    4.8374    0.1776   20.8319 H   0  0  0  0  0  0  0  0  0  0  0  0
    4.8300    1.2414   18.9285 C   0  0  0  0  0  0  0  0  0  0  0  0
    3.9540    1.8441   19.1338 H   0  0  0  0  0  0  0  0  0  0  0  0
  1  2  1  0
  2  3  2  0
  3  4  1  0
  4  5  1  0
  4  6  2  0
  6  7  1  0
  7  8  1  0
  8  9  1  0
  8 10  2  0
 10 11  1  0
 11 12  2  0
 11 13  1  0
 13 14  2  0
 14 15  1  0
 14 16  1  0
 16 17  1  0
 16 18  2  0
 18 19  1  0
 18 20  1  0
 20 21  1  0
 20 22  2  0
 22 23  1  0
 10 24  1  0
 24 25  1  0
 24 26  1  0
 26 27  2  0
  6 28  1  0
 28 29  1  0
 28 30  2  0
 30 31  1  0
 30  2  1  0
 26  7  1  0
 22 13  1  0
M  END
>  <cnnaffinity>  (1) 
-5.42551

>  <filename>  (1) 
O=C(c1ccc(Cl)cc1)c1cn(-c2cccnc2)c(=S)[nH]1

$$$$
