
     RDKit          3D

 42 45  0  0  0  0  0  0  0  0999 V2000
    4.9688    1.8499   16.9292 H   0  0  0  0  0  0  0  0  0  0  0  0
    5.3779    1.3169   17.7883 C   0  0  0  0  0  0  0  0  0  0  0  0
    6.5305    0.6606   17.5834 N   0  0  0  0  0  0  0  0  0  0  0  0
    7.0729    0.0347   18.6380 C   0  0  0  0  0  0  0  0  0  0  0  0
    8.0095   -0.4846   18.4339 H   0  0  0  0  0  0  0  0  0  0  0  0
    6.5072   -0.0019   19.9309 C   0  0  0  0  0  0  0  0  0  0  0  0
    7.2515   -0.6233   21.0451 C   0  0  0  0  0  0  0  0  0  0  0  0
    8.6042   -0.5550   21.2741 C   0  0  0  0  0  0  0  0  0  0  0  0
    8.8079   -1.0621   22.5576 C   0  0  0  0  0  0  0  0  0  0  0  0
    7.7017   -1.5324   23.1005 N   0  0  0  0  0  0  0  0  0  0  0  0
    6.7501   -1.2406   22.1643 N   0  0  0  0  0  0  0  0  0  0  0  0
    5.7816   -1.4130   22.4014 H   0  0  0  0  0  0  0  0  0  0  0  0
   10.2359   -0.8648   23.0012 C   0  0  0  0  0  0  0  0  0  0  0  0
   10.8040   -1.7921   22.8463 H   0  0  0  0  0  0  0  0  0  0  0  0
   10.3332   -0.5717   24.0479 H   0  0  0  0  0  0  0  0  0  0  0  0
   10.7125    0.2473   22.0061 C   0  0  2  0  0  0  0  0  0  0  0  0
   11.7837    0.1384   21.8016 H   0  0  0  0  0  0  0  0  0  0  0  0
   10.5033    1.6898   22.5344 C   0  0  0  0  0  0  0  0  0  0  0  0
   10.9583    2.3979   21.8320 H   0  0  0  0  0  0  0  0  0  0  0  0
   11.0070    1.8096   23.4979 H   0  0  0  0  0  0  0  0  0  0  0  0
    9.1150    2.0848   22.7141 N   0  0  0  0  0  0  0  0  0  0  0  0
    8.5299    2.0974   21.8941 H   0  0  0  0  0  0  0  0  0  0  0  0
    8.4314    1.8197   23.8635 C   0  0  0  0  0  0  0  0  0  0  0  0
    8.9842    1.4575   24.8922 O   0  0  0  0  0  0  0  0  0  0  0  0
    6.9305    1.9950   23.7677 C   0  0  0  0  0  0  0  0  0  0  0  0
    6.1469    1.2378   24.6564 C   0  0  0  0  0  0  0  0  0  0  0  0
    6.6513    0.5644   25.3472 H   0  0  0  0  0  0  0  0  0  0  0  0
    4.7551    1.3533   24.6662 C   0  0  0  0  0  0  0  0  0  0  0  0
    4.1736    0.7355   25.3494 H   0  0  0  0  0  0  0  0  0  0  0  0
    4.1324    2.2608   23.8010 C   0  0  0  0  0  0  0  0  0  0  0  0
    3.0539    2.3923   23.8374 H   0  0  0  0  0  0  0  0  0  0  0  0
    4.8984    3.0140   22.9005 C   0  0  0  0  0  0  0  0  0  0  0  0
    4.4101    3.6912   22.1961 H   0  0  0  0  0  0  0  0  0  0  0  0
    6.2912    2.8809   22.8739 C   0  0  0  0  0  0  0  0  0  0  0  0
    6.8548    3.5055   22.1777 H   0  0  0  0  0  0  0  0  0  0  0  0
    9.8756   -0.0066   20.7212 C   0  0  0  0  0  0  0  0  0  0  0  0
   10.3895   -0.7555   20.1142 H   0  0  0  0  0  0  0  0  0  0  0  0
    9.7294    0.8857   20.1047 H   0  0  0  0  0  0  0  0  0  0  0  0
    5.2877    0.6740   20.1131 C   0  0  0  0  0  0  0  0  0  0  0  0
    4.8166    0.7095   21.0974 H   0  0  0  0  0  0  0  0  0  0  0  0
    4.7252    1.3440   19.0261 C   0  0  0  0  0  0  0  0  0  0  0  0
    3.8047    1.9075   19.1266 H   0  0  0  0  0  0  0  0  0  0  0  0
  1  2  1  0
  2  3  2  0
  3  4  1  0
  4  5  1  0
  4  6  2  0
  6  7  1  0
  7  8  2  0
  8  9  1  0
  9 10  2  0
 10 11  1  0
 11 12  1  0
  9 13  1  0
 13 14  1  0
 13 15  1  0
 13 16  1  0
 16 17  1  6
 16 18  1  0
 18 19  1  0
 18 20  1  0
 18 21  1  0
 21 22  1  0
 21 23  1  0
 23 24  2  0
 23 25  1  0
 25 26  2  0
 26 27  1  0
 26 28  1  0
 28 29  1  0
 28 30  2  0
 30 31  1  0
 30 32  1  0
 32 33  1  0
 32 34  2  0
 34 35  1  0
 16 36  1  0
 36 37  1  0
 36 38  1  0
  6 39  1  0
 39 40  1  0
 39 41  2  0
 41 42  1  0
 41  2  1  0
 11  7  1  0
 34 25  1  0
 36  8  1  0
M  END
>  <cnnaffinity>  (1) 
-5.33467

>  <filename>  (1) 
O=C(NC[C@H]1Cc2n[nH]c(-c3cccnc3)c2C1)c1ccccc1

$$$$
