
     RDKit          3D

 36 38  0  0  0  0  0  0  0  0999 V2000
    8.6411   -3.6163   21.4256 H   0  0  0  0  0  0  0  0  0  0  0  0
    8.3582   -2.5876   21.6384 C   0  0  0  0  0  0  0  0  0  0  0  0
    8.5932   -2.1634   22.8786 N   0  0  0  0  0  0  0  0  0  0  0  0
    8.2397   -0.9141   23.1474 C   0  0  0  0  0  0  0  0  0  0  0  0
    8.4271   -0.5444   24.1561 H   0  0  0  0  0  0  0  0  0  0  0  0
    7.6628   -0.0844   22.2001 C   0  0  0  0  0  0  0  0  0  0  0  0
    7.3302    1.2707   22.6596 C   0  0  0  0  0  0  0  0  0  0  0  0
    6.9389    1.4591   23.8012 O   0  0  0  0  0  0  0  0  0  0  0  0
    7.5335    2.2735   21.7809 N   0  0  0  0  0  0  0  0  0  0  0  0
    7.8399    2.0232   20.8588 H   0  0  0  0  0  0  0  0  0  0  0  0
    7.2208    3.6400   22.1661 C   0  0  0  0  0  0  0  0  0  0  0  0
    7.1984    4.2850   21.2862 H   0  0  0  0  0  0  0  0  0  0  0  0
    6.2100    3.6786   22.5904 H   0  0  0  0  0  0  0  0  0  0  0  0
    8.1918    4.2192   23.1814 C   0  0  0  0  0  0  0  0  0  0  0  0
    7.7134    4.7424   24.3901 C   0  0  0  0  0  0  0  0  0  0  0  0
    6.6744    4.5658   24.6619 H   0  0  0  0  0  0  0  0  0  0  0  0
    8.5582    5.4534   25.2484 C   0  0  0  0  0  0  0  0  0  0  0  0
    8.1625    5.8674   26.1713 H   0  0  0  0  0  0  0  0  0  0  0  0
    9.9057    5.6132   24.9176 C   0  0  0  0  0  0  0  0  0  0  0  0
   10.5557    6.1930   25.5648 H   0  0  0  0  0  0  0  0  0  0  0  0
   10.4142    5.0062   23.7647 C   0  0  0  0  0  0  0  0  0  0  0  0
   11.4716    5.0724   23.5348 H   0  0  0  0  0  0  0  0  0  0  0  0
    9.5649    4.2935   22.9152 C   0  0  0  0  0  0  0  0  0  0  0  0
    9.9639    3.7962   22.0387 H   0  0  0  0  0  0  0  0  0  0  0  0
    7.4006   -0.6431   20.9520 C   0  0  0  0  0  0  0  0  0  0  0  0
    6.6398    0.0476   19.8981 C   0  0  0  0  0  0  0  0  0  0  0  0
    7.1635    0.0470   18.5983 C   0  0  0  0  0  0  0  0  0  0  0  0
    8.0941   -0.4751   18.3733 H   0  0  0  0  0  0  0  0  0  0  0  0
    6.5888    0.6781   17.5722 N   0  0  0  0  0  0  0  0  0  0  0  0
    5.4256    1.3086   17.8010 C   0  0  0  0  0  0  0  0  0  0  0  0
    4.9745    1.8092   16.9471 H   0  0  0  0  0  0  0  0  0  0  0  0
    4.7942    1.3211   19.0467 C   0  0  0  0  0  0  0  0  0  0  0  0
    3.8536    1.8442   19.1677 H   0  0  0  0  0  0  0  0  0  0  0  0
    5.4053    0.6757   20.1197 C   0  0  0  0  0  0  0  0  0  0  0  0
    4.9426    0.6791   21.1088 H   0  0  0  0  0  0  0  0  0  0  0  0
    7.8102   -1.8777   20.6574 N   0  0  0  0  0  0  0  0  0  0  0  0
  1  2  1  0
  2  3  2  0
  3  4  1  0
  4  5  1  0
  4  6  2  0
  6  7  1  0
  7  8  2  0
  7  9  1  0
  9 10  1  0
  9 11  1  0
 11 12  1  0
 11 13  1  0
 11 14  1  0
 14 15  2  0
 15 16  1  0
 15 17  1  0
 17 18  1  0
 17 19  2  0
 19 20  1  0
 19 21  1  0
 21 22  1  0
 21 23  2  0
 23 24  1  0
  6 25  1  0
 25 26  1  0
 26 27  2  0
 27 28  1  0
 27 29  1  0
 29 30  2  0
 30 31  1  0
 30 32  1  0
 32 33  1  0
 32 34  2  0
 34 35  1  0
 25 36  2  0
 36  2  1  0
 23 14  1  0
 34 26  1  0
M  END
>  <cnnaffinity>  (1) 
-4.85395

>  <filename>  (1) 
O=C(NCc1ccccc1)c1cncnc1-c1cccnc1

$$$$
