
     RDKit          3D

 32 34  0  0  0  0  0  0  0  0999 V2000
    5.1629    2.0525   16.9353 H   0  0  0  0  0  0  0  0  0  0  0  0
    5.4776    1.3817   17.7335 C   0  0  0  0  0  0  0  0  0  0  0  0
    6.5959    0.6717   17.5051 N   0  0  0  0  0  0  0  0  0  0  0  0
    7.0322   -0.1274   18.4840 C   0  0  0  0  0  0  0  0  0  0  0  0
    7.9531   -0.6822   18.2970 H   0  0  0  0  0  0  0  0  0  0  0  0
    6.3707   -0.2834   19.7197 C   0  0  0  0  0  0  0  0  0  0  0  0
    7.0011   -1.0317   20.7882 N   0  0  0  0  0  0  0  0  0  0  0  0
    8.2144   -0.5398   21.2634 C   0  0  0  0  0  0  0  0  0  0  0  0
    8.6029    0.3441   20.7688 H   0  0  0  0  0  0  0  0  0  0  0  0
    8.8932   -1.1012   22.2893 C   0  0  0  0  0  0  0  0  0  0  0  0
   10.0884   -0.4716   22.7514 N   0  0  0  0  0  0  0  0  0  0  0  0
   10.7484   -1.0134   23.2870 H   0  0  0  0  0  0  0  0  0  0  0  0
   10.3278    0.8915   22.7379 C   0  0  0  0  0  0  0  0  0  0  0  0
    9.4443    1.7113   22.5573 O   0  0  0  0  0  0  0  0  0  0  0  0
   11.7462    1.2969   22.9155 C   0  0  0  0  0  0  0  0  0  0  0  0
   12.0046    2.9956   23.1019 S   0  0  0  0  0  0  0  0  0  0  0  0
   13.6912    2.8086   22.9881 C   0  0  0  0  0  0  0  0  0  0  0  0
   14.3186    3.6940   22.9798 H   0  0  0  0  0  0  0  0  0  0  0  0
   14.0565    1.5004   22.8317 C   0  0  0  0  0  0  0  0  0  0  0  0
   15.0883    1.2081   22.6833 H   0  0  0  0  0  0  0  0  0  0  0  0
   12.9375    0.6202   22.7819 C   0  0  0  0  0  0  0  0  0  0  0  0
   13.0372   -0.4506   22.6114 H   0  0  0  0  0  0  0  0  0  0  0  0
    8.3427   -2.3754   22.8725 C   0  0  0  0  0  0  0  0  0  0  0  0
    8.8791   -3.1587   23.6242 O   0  0  0  0  0  0  0  0  0  0  0  0
    7.0590   -2.6510   22.4713 N   0  0  0  0  0  0  0  0  0  0  0  0
    6.6583   -3.4964   22.8236 H   0  0  0  0  0  0  0  0  0  0  0  0
    6.3776   -2.1402   21.4096 C   0  0  0  0  0  0  0  0  0  0  0  0
    5.3470   -2.6679   21.0725 O   0  0  0  0  0  0  0  0  0  0  0  0
    5.1687    0.4077   19.9219 C   0  0  0  0  0  0  0  0  0  0  0  0
    4.6078    0.2873   20.8488 H   0  0  0  0  0  0  0  0  0  0  0  0
    4.7366    1.2834   18.9163 C   0  0  0  0  0  0  0  0  0  0  0  0
    3.8536    1.9033   19.0417 H   0  0  0  0  0  0  0  0  0  0  0  0
  1  2  1  0
  2  3  2  0
  3  4  1  0
  4  5  1  0
  4  6  2  0
  6  7  1  0
  7  8  1  0
  8  9  1  0
  8 10  2  0
 10 11  1  0
 11 12  1  0
 11 13  1  0
 13 14  2  0
 13 15  1  0
 15 16  1  0
 16 17  1  0
 17 18  1  0
 17 19  2  0
 19 20  1  0
 19 21  1  0
 21 22  1  0
 10 23  1  0
 23 24  2  0
 23 25  1  0
 25 26  1  0
 25 27  1  0
 27 28  2  0
  6 29  1  0
 29 30  1  0
 29 31  2  0
 31 32  1  0
 31  2  1  0
 27  7  1  0
 21 15  2  0
M  END
>  <cnnaffinity>  (1) 
-5.63303

>  <filename>  (1) 
O=C(Nc1cn(-c2cccnc2)c(=O)[nH]c1=O)c1cccs1

$$$$
