
     RDKit          3D

 34 36  0  0  0  0  0  0  0  0999 V2000
    7.5209    0.1874   26.6582 H   0  0  0  0  0  0  0  0  0  0  0  0
    7.3918    0.8966   26.0039 O   0  0  0  0  0  0  0  0  0  0  0  0
    6.5762    0.2484   25.1529 C   0  0  0  0  0  0  0  0  0  0  0  0
    6.2917   -0.9018   25.3800 O   0  0  0  0  0  0  0  0  0  0  0  0
    6.1301    1.0891   23.9895 C   0  0  0  0  0  0  0  0  0  0  0  0
    5.2555    0.5979   23.5568 H   0  0  0  0  0  0  0  0  0  0  0  0
    5.8177    2.0618   24.3791 H   0  0  0  0  0  0  0  0  0  0  0  0
    7.2344    1.2765   22.9225 C   0  0  0  0  0  0  0  0  0  0  0  0
    6.8788    1.9670   22.1463 H   0  0  0  0  0  0  0  0  0  0  0  0
    8.1016    1.7707   23.3919 H   0  0  0  0  0  0  0  0  0  0  0  0
    7.6674   -0.0187   22.2814 C   0  0  0  0  0  0  0  0  0  0  0  0
    7.3779   -0.5618   20.9797 C   0  0  0  0  0  0  0  0  0  0  0  0
    6.6116    0.0440   19.8852 C   0  0  0  0  0  0  0  0  0  0  0  0
    7.1180    0.0189   18.5681 C   0  0  0  0  0  0  0  0  0  0  0  0
    8.0328   -0.5230   18.3365 H   0  0  0  0  0  0  0  0  0  0  0  0
    6.5410    0.6484   17.5387 N   0  0  0  0  0  0  0  0  0  0  0  0
    5.3987    1.3081   17.7838 C   0  0  0  0  0  0  0  0  0  0  0  0
    4.9634    1.8414   16.9416 H   0  0  0  0  0  0  0  0  0  0  0  0
    4.7670    1.3256   19.0325 C   0  0  0  0  0  0  0  0  0  0  0  0
    3.8294    1.8515   19.1601 H   0  0  0  0  0  0  0  0  0  0  0  0
    5.3837    0.6796   20.1023 C   0  0  0  0  0  0  0  0  0  0  0  0
    4.9154    0.6574   21.0896 H   0  0  0  0  0  0  0  0  0  0  0  0
    7.9642   -1.7395   20.7895 N   0  0  0  0  0  0  0  0  0  0  0  0
    8.5690   -1.9696   21.9520 N   0  0  0  0  0  0  0  0  0  0  0  0
    8.4750   -0.9909   22.8561 C   0  0  0  0  0  0  0  0  0  0  0  0
    9.3669   -1.3061   24.0314 C   0  0  0  0  0  0  0  0  0  0  0  0
    8.7656   -1.5364   24.9151 H   0  0  0  0  0  0  0  0  0  0  0  0
   10.0224   -0.4666   24.2787 H   0  0  0  0  0  0  0  0  0  0  0  0
   10.1701   -2.5492   23.5503 C   0  0  0  0  0  0  0  0  0  0  0  0
   11.2083   -2.2967   23.3477 H   0  0  0  0  0  0  0  0  0  0  0  0
   10.1647   -3.3441   24.2953 H   0  0  0  0  0  0  0  0  0  0  0  0
    9.5352   -2.9960   22.2134 C   0  0  0  0  0  0  0  0  0  0  0  0
   10.2574   -2.9440   21.4024 H   0  0  0  0  0  0  0  0  0  0  0  0
    9.0566   -3.9766   22.2370 H   0  0  0  0  0  0  0  0  0  0  0  0
  1  2  1  0
  2  3  1  0
  3  4  2  0
  3  5  1  0
  5  6  1  0
  5  7  1  0
  5  8  1  0
  8  9  1  0
  8 10  1  0
  8 11  1  0
 11 12  1  0
 12 13  1  0
 13 14  2  0
 14 15  1  0
 14 16  1  0
 16 17  2  0
 17 18  1  0
 17 19  1  0
 19 20  1  0
 19 21  2  0
 21 22  1  0
 12 23  2  0
 23 24  1  0
 24 25  1  0
 25 26  1  0
 26 27  1  0
 26 28  1  0
 26 29  1  0
 29 30  1  0
 29 31  1  0
 29 32  1  0
 32 33  1  0
 32 34  1  0
 25 11  2  0
 21 13  1  0
 32 24  1  0
M  END
>  <cnnaffinity>  (1) 
-5.02003

>  <filename>  (1) 
O=C(O)CCc1c(-c2cccnc2)nn2c1CCC2

$$$$
