
     RDKit          3D

 31 32  0  0  0  0  0  0  0  0999 V2000
    5.0062    1.7999   16.9645 H   0  0  0  0  0  0  0  0  0  0  0  0
    5.4829    1.2943   17.8038 C   0  0  0  0  0  0  0  0  0  0  0  0
    6.6560    0.6924   17.5455 N   0  0  0  0  0  0  0  0  0  0  0  0
    7.2594    0.0492   18.5565 C   0  0  0  0  0  0  0  0  0  0  0  0
    8.2121   -0.4278   18.3301 H   0  0  0  0  0  0  0  0  0  0  0  0
    6.7271   -0.0476   19.8600 C   0  0  0  0  0  0  0  0  0  0  0  0
    7.4222   -0.7229   20.9137 N   0  0  0  0  0  0  0  0  0  0  0  0
    8.3517   -0.4036   21.1364 H   0  0  0  0  0  0  0  0  0  0  0  0
    6.8233   -1.5691   21.8255 C   0  0  0  0  0  0  0  0  0  0  0  0
    5.7986   -2.1743   21.5848 O   0  0  0  0  0  0  0  0  0  0  0  0
    7.5715   -1.7816   23.1442 C   0  0  0  0  0  0  0  0  0  0  0  0
    8.3416   -2.5419   22.9752 H   0  0  0  0  0  0  0  0  0  0  0  0
    6.8461   -2.2556   23.8107 H   0  0  0  0  0  0  0  0  0  0  0  0
    8.0877   -0.5155   23.8140 C   0  0  0  0  0  0  0  0  0  0  0  0
    7.1551    0.3702   24.3785 C   0  0  0  0  0  0  0  0  0  0  0  0
    6.0955    0.1413   24.2748 H   0  0  0  0  0  0  0  0  0  0  0  0
    7.5683    1.5028   25.0865 C   0  0  0  0  0  0  0  0  0  0  0  0
    6.8330    2.1926   25.4996 H   0  0  0  0  0  0  0  0  0  0  0  0
    8.9321    1.7611   25.2300 C   0  0  0  0  0  0  0  0  0  0  0  0
    9.2730    2.6132   25.8098 H   0  0  0  0  0  0  0  0  0  0  0  0
    9.8739    0.9118   24.6472 C   0  0  0  0  0  0  0  0  0  0  0  0
   10.9334    1.1009   24.7912 H   0  0  0  0  0  0  0  0  0  0  0  0
    9.4567   -0.2033   23.9011 C   0  0  0  0  0  0  0  0  0  0  0  0
   10.4670   -1.0865   23.2033 C   0  0  0  0  0  0  0  0  0  0  0  0
   10.5907   -2.2811   23.8165 F   0  0  0  0  0  0  0  0  0  0  0  0
   10.0908   -1.3726   21.9270 F   0  0  0  0  0  0  0  0  0  0  0  0
   11.6850   -0.5356   23.1110 F   0  0  0  0  0  0  0  0  0  0  0  0
    5.5045    0.5840   20.1086 C   0  0  0  0  0  0  0  0  0  0  0  0
    5.0776    0.5459   21.1110 H   0  0  0  0  0  0  0  0  0  0  0  0
    4.8762    1.2713   19.0626 C   0  0  0  0  0  0  0  0  0  0  0  0
    3.9398    1.7934   19.2182 H   0  0  0  0  0  0  0  0  0  0  0  0
  1  2  1  0
  2  3  2  0
  3  4  1  0
  4  5  1  0
  4  6  2  0
  6  7  1  0
  7  8  1  0
  7  9  1  0
  9 10  2  0
  9 11  1  0
 11 12  1  0
 11 13  1  0
 11 14  1  0
 14 15  2  0
 15 16  1  0
 15 17  1  0
 17 18  1  0
 17 19  2  0
 19 20  1  0
 19 21  1  0
 21 22  1  0
 21 23  2  0
 23 24  1  0
 24 25  1  0
 24 26  1  0
 24 27  1  0
  6 28  1  0
 28 29  1  0
 28 30  2  0
 30 31  1  0
 30  2  1  0
 23 14  1  0
M  END
>  <cnnaffinity>  (1) 
-5.17025

>  <filename>  (1) 
O=C(Cc1ccccc1C(F)(F)F)Nc1cccnc1

$$$$
