
     RDKit          3D

 33 35  0  0  0  0  0  0  0  0999 V2000
    8.4530   -3.6927   21.4509 H   0  0  0  0  0  0  0  0  0  0  0  0
    8.2467   -2.6446   21.6626 C   0  0  0  0  0  0  0  0  0  0  0  0
    8.4975   -2.2140   22.8998 N   0  0  0  0  0  0  0  0  0  0  0  0
    8.2259   -0.9372   23.1448 C   0  0  0  0  0  0  0  0  0  0  0  0
    8.4095   -0.5440   24.1486 H   0  0  0  0  0  0  0  0  0  0  0  0
    7.7252   -0.0961   22.1732 C   0  0  0  0  0  0  0  0  0  0  0  0
    7.4665    1.2901   22.5690 C   0  0  0  0  0  0  0  0  0  0  0  0
    6.9553    1.5530   23.6483 O   0  0  0  0  0  0  0  0  0  0  0  0
    7.9105    2.2217   21.6959 N   0  0  0  0  0  0  0  0  0  0  0  0
    8.1715    1.8572   20.7981 H   0  0  0  0  0  0  0  0  0  0  0  0
    7.5515    3.6198   21.8450 C   0  0  0  0  0  0  0  0  0  0  0  0
    7.6156    3.8458   22.9139 H   0  0  0  0  0  0  0  0  0  0  0  0
    8.3158    4.2288   21.3487 H   0  0  0  0  0  0  0  0  0  0  0  0
    6.1562    3.9414   21.3310 C   0  0  0  0  0  0  0  0  0  0  0  0
    5.9588    3.5770   20.3205 H   0  0  0  0  0  0  0  0  0  0  0  0
    5.4589    5.1960   21.7889 C   0  0  0  0  0  0  0  0  0  0  0  0
    5.9771    5.8163   22.5147 H   0  0  0  0  0  0  0  0  0  0  0  0
    4.8646    5.7881   21.0962 H   0  0  0  0  0  0  0  0  0  0  0  0
    4.9519    3.8524   22.2260 C   0  0  0  0  0  0  0  0  0  0  0  0
    5.0924    3.5245   23.2518 H   0  0  0  0  0  0  0  0  0  0  0  0
    4.0414    3.4968   21.7490 H   0  0  0  0  0  0  0  0  0  0  0  0
    7.4165   -0.6622   20.9435 C   0  0  0  0  0  0  0  0  0  0  0  0
    6.6502    0.0506   19.9170 C   0  0  0  0  0  0  0  0  0  0  0  0
    7.1606    0.0444   18.6177 C   0  0  0  0  0  0  0  0  0  0  0  0
    8.0875   -0.4861   18.3958 H   0  0  0  0  0  0  0  0  0  0  0  0
    6.5728    0.6695   17.5959 N   0  0  0  0  0  0  0  0  0  0  0  0
    5.4139    1.3050   17.8414 C   0  0  0  0  0  0  0  0  0  0  0  0
    4.9634    1.8169   16.9957 H   0  0  0  0  0  0  0  0  0  0  0  0
    4.7922    1.3159   19.0956 C   0  0  0  0  0  0  0  0  0  0  0  0
    3.8657    1.8694   19.2329 H   0  0  0  0  0  0  0  0  0  0  0  0
    5.4157    0.6719   20.1590 C   0  0  0  0  0  0  0  0  0  0  0  0
    4.9603    0.6459   21.1525 H   0  0  0  0  0  0  0  0  0  0  0  0
    7.7504   -1.9216   20.6641 N   0  0  0  0  0  0  0  0  0  0  0  0
  1  2  1  0
  2  3  2  0
  3  4  1  0
  4  5  1  0
  4  6  2  0
  6  7  1  0
  7  8  2  0
  7  9  1  0
  9 10  1  0
  9 11  1  0
 11 12  1  0
 11 13  1  0
 11 14  1  0
 14 15  1  0
 14 16  1  0
 16 17  1  0
 16 18  1  0
 16 19  1  0
 19 20  1  0
 19 21  1  0
  6 22  1  0
 22 23  1  0
 23 24  2  0
 24 25  1  0
 24 26  1  0
 26 27  2  0
 27 28  1  0
 27 29  1  0
 29 30  1  0
 29 31  2  0
 31 32  1  0
 22 33  2  0
 33  2  1  0
 19 14  1  0
 31 23  1  0
M  END
>  <cnnaffinity>  (1) 
-4.81343

>  <filename>  (1) 
O=C(NCC1CC1)c1cncnc1-c1cccnc1

$$$$
