
     RDKit          3D

 43 45  0  0  0  0  0  0  0  0999 V2000
    5.0490    1.7611   16.9451 H   0  0  0  0  0  0  0  0  0  0  0  0
    5.4960    1.2484   17.7959 C   0  0  0  0  0  0  0  0  0  0  0  0
    6.6345    0.5782   17.5549 N   0  0  0  0  0  0  0  0  0  0  0  0
    7.2150   -0.0540   18.5882 C   0  0  0  0  0  0  0  0  0  0  0  0
    8.1343   -0.5977   18.3662 H   0  0  0  0  0  0  0  0  0  0  0  0
    6.7103   -0.0546   19.9111 C   0  0  0  0  0  0  0  0  0  0  0  0
    7.3210   -0.7271   21.0008 N   0  0  0  0  0  0  0  0  0  0  0  0
    6.6541   -1.1956   21.5891 H   0  0  0  0  0  0  0  0  0  0  0  0
    8.2016   -0.1015   21.9616 C   0  0  0  0  0  0  0  0  0  0  0  0
    8.0637   -0.9913   23.1033 N   0  0  0  0  0  0  0  0  0  0  0  0
    8.9071   -1.0992   23.6390 H   0  0  0  0  0  0  0  0  0  0  0  0
    6.9613   -0.8562   23.9182 C   0  0  0  0  0  0  0  0  0  0  0  0
    6.0692   -0.0780   23.6413 O   0  0  0  0  0  0  0  0  0  0  0  0
    6.9687   -1.7822   25.1488 C   0  0  0  0  0  0  0  0  0  0  0  0
    8.0219   -1.8434   25.4509 H   0  0  0  0  0  0  0  0  0  0  0  0
    6.5066   -3.2072   24.7444 C   0  0  0  0  0  0  0  0  0  0  0  0
    6.7872   -3.8999   25.5491 H   0  0  0  0  0  0  0  0  0  0  0  0
    7.0583   -3.5459   23.8607 H   0  0  0  0  0  0  0  0  0  0  0  0
    4.9869   -3.2971   24.4921 C   0  0  0  0  0  0  0  0  0  0  0  0
    4.7629   -2.9600   23.4762 H   0  0  0  0  0  0  0  0  0  0  0  0
    4.7060   -4.3551   24.5152 H   0  0  0  0  0  0  0  0  0  0  0  0
    4.1233   -2.5062   25.5125 C   0  0  0  0  0  0  0  0  0  0  0  0
    3.7118   -1.6002   25.0435 H   0  0  0  0  0  0  0  0  0  0  0  0
    3.2625   -3.1159   25.8157 H   0  0  0  0  0  0  0  0  0  0  0  0
    4.9311   -2.0955   26.7498 C   0  0  0  0  0  0  0  0  0  0  0  0
    5.2680   -2.9951   27.2895 H   0  0  0  0  0  0  0  0  0  0  0  0
    4.2949   -1.5458   27.4530 H   0  0  0  0  0  0  0  0  0  0  0  0
    6.1529   -1.2324   26.3638 C   0  0  0  0  0  0  0  0  0  0  0  0
    6.8098   -1.1604   27.2382 H   0  0  0  0  0  0  0  0  0  0  0  0
    5.8176   -0.2135   26.1358 H   0  0  0  0  0  0  0  0  0  0  0  0
    9.6537    0.0995   21.5127 C   0  0  0  0  0  0  0  0  0  0  0  0
    9.7838   -0.1702   20.4647 H   0  0  0  0  0  0  0  0  0  0  0  0
   10.3734   -0.4614   22.1146 H   0  0  0  0  0  0  0  0  0  0  0  0
    9.5589    1.6204   21.8101 C   0  0  0  0  0  0  0  0  0  0  0  0
   10.2328    1.9773   22.5990 H   0  0  0  0  0  0  0  0  0  0  0  0
    9.6813    2.2718   20.9412 H   0  0  0  0  0  0  0  0  0  0  0  0
    8.0975    1.4166   22.2799 C   0  0  0  0  0  0  0  0  0  0  0  0
    7.2962    1.9398   21.7496 H   0  0  0  0  0  0  0  0  0  0  0  0
    7.9592    1.5826   23.3481 H   0  0  0  0  0  0  0  0  0  0  0  0
    5.4926    0.6177   20.1234 C   0  0  0  0  0  0  0  0  0  0  0  0
    5.0699    0.6247   21.1282 H   0  0  0  0  0  0  0  0  0  0  0  0
    4.8856    1.2889   19.0503 C   0  0  0  0  0  0  0  0  0  0  0  0
    3.9691    1.8569   19.1733 H   0  0  0  0  0  0  0  0  0  0  0  0
  1  2  1  0
  2  3  2  0
  3  4  1  0
  4  5  1  0
  4  6  2  0
  6  7  1  0
  7  8  1  0
  7  9  1  0
  9 10  1  0
 10 11  1  0
 10 12  1  0
 12 13  2  0
 12 14  1  0
 14 15  1  0
 14 16  1  0
 16 17  1  0
 16 18  1  0
 16 19  1  0
 19 20  1  0
 19 21  1  0
 19 22  1  0
 22 23  1  0
 22 24  1  0
 22 25  1  0
 25 26  1  0
 25 27  1  0
 25 28  1  0
 28 29  1  0
 28 30  1  0
  9 31  1  0
 31 32  1  0
 31 33  1  0
 31 34  1  0
 34 35  1  0
 34 36  1  0
 34 37  1  0
 37 38  1  0
 37 39  1  0
  6 40  1  0
 40 41  1  0
 40 42  2  0
 42 43  1  0
 42  2  1  0
 37  9  1  0
 28 14  1  0
M  END
>  <cnnaffinity>  (1) 
-5.08501

>  <filename>  (1) 
O=C(NC1(Nc2cccnc2)CCC1)C1CCCCC1

$$$$
