
     RDKit          3D

 39 41  0  0  0  0  0  0  0  0999 V2000
    9.7376    7.0402   22.6248 H   0  0  0  0  0  0  0  0  0  0  0  0
    9.8642    6.1173   22.3500 O   0  0  0  0  0  0  0  0  0  0  0  0
   10.7860    5.5419   23.2308 N   0  0  0  0  0  0  0  0  0  0  0  0
   10.3664    4.7096   23.6374 H   0  0  0  0  0  0  0  0  0  0  0  0
   12.0793    5.2393   22.7667 C   0  0  0  0  0  0  0  0  0  0  0  0
   12.6419    5.7300   21.8172 O   0  0  0  0  0  0  0  0  0  0  0  0
   12.7735    4.2444   23.6832 C   0  0  0  0  0  0  0  0  0  0  0  0
   12.2789    4.1912   24.6606 H   0  0  0  0  0  0  0  0  0  0  0  0
   13.7774    4.6471   23.8405 H   0  0  0  0  0  0  0  0  0  0  0  0
   12.9184    2.8701   23.0067 C   0  0  0  0  0  0  0  0  0  0  0  0
   13.6798    2.2650   23.5169 H   0  0  0  0  0  0  0  0  0  0  0  0
   13.3086    3.0628   21.9976 H   0  0  0  0  0  0  0  0  0  0  0  0
   11.6229    2.0660   22.9503 C   0  0  0  0  0  0  0  0  0  0  0  0
   11.3471    1.7416   23.9619 H   0  0  0  0  0  0  0  0  0  0  0  0
   10.7907    2.6857   22.5836 H   0  0  0  0  0  0  0  0  0  0  0  0
   11.7619    0.8174   22.0571 C   0  0  0  0  0  0  0  0  0  0  0  0
   12.0917    1.1561   21.0694 H   0  0  0  0  0  0  0  0  0  0  0  0
   12.5352    0.1478   22.4552 H   0  0  0  0  0  0  0  0  0  0  0  0
   10.4728    0.0720   21.8811 C   0  0  0  0  0  0  0  0  0  0  0  0
   10.0355   -0.7912   22.8071 N   0  0  0  0  0  0  0  0  0  0  0  0
    8.7930   -1.1120   22.3642 N   0  0  0  0  0  0  0  0  0  0  0  0
    7.7108   -1.8454   22.8367 C   0  0  0  0  0  0  0  0  0  0  0  0
    7.7806   -2.3998   23.7597 H   0  0  0  0  0  0  0  0  0  0  0  0
    6.6984   -1.6213   21.9552 C   0  0  0  0  0  0  0  0  0  0  0  0
    5.6923   -2.0070   21.9507 H   0  0  0  0  0  0  0  0  0  0  0  0
    7.1447   -0.7741   20.9389 N   0  0  0  0  0  0  0  0  0  0  0  0
    6.4447   -0.1315   19.8909 C   0  0  0  0  0  0  0  0  0  0  0  0
    7.0278   -0.1043   18.6084 C   0  0  0  0  0  0  0  0  0  0  0  0
    7.9482   -0.6626   18.4324 H   0  0  0  0  0  0  0  0  0  0  0  0
    6.5253    0.5808   17.5773 N   0  0  0  0  0  0  0  0  0  0  0  0
    5.4003    1.2834   17.7879 C   0  0  0  0  0  0  0  0  0  0  0  0
    5.0155    1.8326   16.9315 H   0  0  0  0  0  0  0  0  0  0  0  0
    4.7347    1.3144   19.0182 C   0  0  0  0  0  0  0  0  0  0  0  0
    3.8296    1.9058   19.1193 H   0  0  0  0  0  0  0  0  0  0  0  0
    5.2553    0.5842   20.0944 C   0  0  0  0  0  0  0  0  0  0  0  0
    4.7747    0.6010   21.0733 H   0  0  0  0  0  0  0  0  0  0  0  0
    8.4635   -0.4797   21.2265 C   0  0  0  0  0  0  0  0  0  0  0  0
    9.5460    0.2883   20.8396 C   0  0  0  0  0  0  0  0  0  0  0  0
    9.6423    0.9089   19.9712 H   0  0  0  0  0  0  0  0  0  0  0  0
  1  2  1  0
  2  3  1  0
  3  4  1  0
  3  5  1  0
  5  6  2  0
  5  7  1  0
  7  8  1  0
  7  9  1  0
  7 10  1  0
 10 11  1  0
 10 12  1  0
 10 13  1  0
 13 14  1  0
 13 15  1  0
 13 16  1  0
 16 17  1  0
 16 18  1  0
 16 19  1  0
 19 20  2  0
 20 21  1  0
 21 22  1  0
 22 23  1  0
 22 24  2  0
 24 25  1  0
 24 26  1  0
 26 27  1  0
 27 28  2  0
 28 29  1  0
 28 30  1  0
 30 31  2  0
 31 32  1  0
 31 33  1  0
 33 34  1  0
 33 35  2  0
 35 36  1  0
 26 37  1  0
 37 38  2  0
 38 39  1  0
 38 19  1  0
 37 21  1  0
 35 27  1  0
M  END
>  <cnnaffinity>  (1) 
-5.44653

>  <filename>  (1) 
O=C(CCCCc1cc2n(-c3cccnc3)ccn2n1)NO

$$$$
