
     RDKit          3D

 40 42  0  0  0  0  0  0  0  0999 V2000
   14.5419    2.7554   23.1668 H   0  0  0  0  0  0  0  0  0  0  0  0
   14.0107    3.4213   22.6869 O   0  0  0  0  0  0  0  0  0  0  0  0
   12.6662    3.1820   23.0079 N   0  0  0  0  0  0  0  0  0  0  0  0
   12.2180    4.0652   23.2032 H   0  0  0  0  0  0  0  0  0  0  0  0
   11.8944    2.3626   22.1786 C   0  0  0  0  0  0  0  0  0  0  0  0
   12.3091    1.3414   21.6794 O   0  0  0  0  0  0  0  0  0  0  0  0
   10.4467    2.8073   22.0587 C   0  0  0  0  0  0  0  0  0  0  0  0
   10.3199    3.8512   22.3768 H   0  0  0  0  0  0  0  0  0  0  0  0
   10.2139    2.7290   20.9907 H   0  0  0  0  0  0  0  0  0  0  0  0
    9.4714    1.8754   22.7799 C   0  0  0  0  0  0  0  0  0  0  0  0
    9.7076    0.8559   22.4448 H   0  0  0  0  0  0  0  0  0  0  0  0
    9.6384    1.8983   23.8678 H   0  0  0  0  0  0  0  0  0  0  0  0
    8.0041    2.1770   22.4650 C   0  0  0  0  0  0  0  0  0  0  0  0
    7.7072    3.1320   22.9228 H   0  0  0  0  0  0  0  0  0  0  0  0
    7.8706    2.2861   21.3777 H   0  0  0  0  0  0  0  0  0  0  0  0
    7.0678    1.0680   22.9814 C   0  0  0  0  0  0  0  0  0  0  0  0
    6.0287    1.3515   22.7807 H   0  0  0  0  0  0  0  0  0  0  0  0
    7.1624    0.9952   24.0718 H   0  0  0  0  0  0  0  0  0  0  0  0
    7.3376   -0.2701   22.3771 C   0  0  0  0  0  0  0  0  0  0  0  0
    7.1115   -0.7565   21.0945 C   0  0  0  0  0  0  0  0  0  0  0  0
    6.4773   -0.0687   19.9729 C   0  0  0  0  0  0  0  0  0  0  0  0
    7.0846   -0.1486   18.7054 C   0  0  0  0  0  0  0  0  0  0  0  0
    7.9873   -0.7442   18.5778 H   0  0  0  0  0  0  0  0  0  0  0  0
    6.6327    0.4840   17.6190 N   0  0  0  0  0  0  0  0  0  0  0  0
    5.5208    1.2247   17.7603 C   0  0  0  0  0  0  0  0  0  0  0  0
    5.1776    1.7419   16.8700 H   0  0  0  0  0  0  0  0  0  0  0  0
    4.8204    1.3546   18.9660 C   0  0  0  0  0  0  0  0  0  0  0  0
    3.9311    1.9753   19.0092 H   0  0  0  0  0  0  0  0  0  0  0  0
    5.3059    0.6979   20.0944 C   0  0  0  0  0  0  0  0  0  0  0  0
    4.7679    0.7627   21.0439 H   0  0  0  0  0  0  0  0  0  0  0  0
    7.7117   -1.9847   20.9146 N   0  0  0  0  0  0  0  0  0  0  0  0
    8.2425   -2.2422   22.0728 C   0  0  0  0  0  0  0  0  0  0  0  0
    8.1022   -1.2398   22.9816 N   0  0  0  0  0  0  0  0  0  0  0  0
    8.9550   -1.2811   24.1603 C   0  0  0  0  0  0  0  0  0  0  0  0
    8.3670   -1.5667   25.0367 H   0  0  0  0  0  0  0  0  0  0  0  0
    9.4164   -0.3040   24.3430 H   0  0  0  0  0  0  0  0  0  0  0  0
   10.0300   -2.3270   23.8300 C   0  0  0  0  0  0  0  0  0  0  0  0
   10.4045   -2.8366   24.7179 H   0  0  0  0  0  0  0  0  0  0  0  0
   10.8726   -1.8679   23.2999 H   0  0  0  0  0  0  0  0  0  0  0  0
    9.2335   -3.5356   22.7058 S   0  0  0  0  0  0  0  0  0  0  0  0
  1  2  1  0
  2  3  1  0
  3  4  1  0
  3  5  1  0
  5  6  2  0
  5  7  1  0
  7  8  1  0
  7  9  1  0
  7 10  1  0
 10 11  1  0
 10 12  1  0
 10 13  1  0
 13 14  1  0
 13 15  1  0
 13 16  1  0
 16 17  1  0
 16 18  1  0
 16 19  1  0
 19 20  2  0
 20 21  1  0
 21 22  2  0
 22 23  1  0
 22 24  1  0
 24 25  2  0
 25 26  1  0
 25 27  1  0
 27 28  1  0
 27 29  2  0
 29 30  1  0
 20 31  1  0
 31 32  2  0
 32 33  1  0
 33 34  1  0
 34 35  1  0
 34 36  1  0
 34 37  1  0
 37 38  1  0
 37 39  1  0
 37 40  1  0
 33 19  1  0
 29 21  1  0
 40 32  1  0
M  END
>  <cnnaffinity>  (1) 
-5.64011

>  <filename>  (1) 
O=C(CCCCc1c(-c2cccnc2)nc2n1CCS2)NO

$$$$
