
     RDKit          3D

 36 38  0  0  0  0  0  0  0  0999 V2000
    5.4847    4.2564   28.7044 H   0  0  0  0  0  0  0  0  0  0  0  0
    5.3113    3.4449   28.1970 O   0  0  0  0  0  0  0  0  0  0  0  0
    6.4163    3.2689   27.3586 N   0  0  0  0  0  0  0  0  0  0  0  0
    6.0803    2.9897   26.4423 H   0  0  0  0  0  0  0  0  0  0  0  0
    7.4959    2.4756   27.7684 C   0  0  0  0  0  0  0  0  0  0  0  0
    7.7897    2.2468   28.9203 O   0  0  0  0  0  0  0  0  0  0  0  0
    8.3118    2.0374   26.5633 C   0  0  0  0  0  0  0  0  0  0  0  0
    9.3414    2.3432   26.7410 H   0  0  0  0  0  0  0  0  0  0  0  0
    7.9888    2.5914   25.6755 H   0  0  0  0  0  0  0  0  0  0  0  0
    8.2487    0.5281   26.2929 C   0  0  0  0  0  0  0  0  0  0  0  0
    9.0737    0.2631   25.6185 H   0  0  0  0  0  0  0  0  0  0  0  0
    8.4290   -0.0166   27.2306 H   0  0  0  0  0  0  0  0  0  0  0  0
    6.9143    0.1033   25.6750 C   0  0  0  0  0  0  0  0  0  0  0  0
    6.0920    0.3404   26.3630 H   0  0  0  0  0  0  0  0  0  0  0  0
    6.7279    0.6783   24.7561 H   0  0  0  0  0  0  0  0  0  0  0  0
    6.8522   -1.3960   25.3348 C   0  0  0  0  0  0  0  0  0  0  0  0
    7.0288   -2.0097   26.2241 H   0  0  0  0  0  0  0  0  0  0  0  0
    5.8562   -1.6453   24.9559 H   0  0  0  0  0  0  0  0  0  0  0  0
    7.8616   -1.7981   24.3121 C   0  0  0  0  0  0  0  0  0  0  0  0
    8.9664   -2.4720   24.5057 N   0  0  0  0  0  0  0  0  0  0  0  0
    9.6604   -2.5502   23.3115 N   0  0  0  0  0  0  0  0  0  0  0  0
    8.9341   -1.9176   22.4331 C   0  0  0  0  0  0  0  0  0  0  0  0
    8.9438   -1.5007   20.7414 S   0  0  0  0  0  0  0  0  0  0  0  0
    7.3695   -0.6898   20.9996 C   0  0  0  0  0  0  0  0  0  0  0  0
    6.6388    0.0037   19.9237 C   0  0  0  0  0  0  0  0  0  0  0  0
    7.1655    0.0423   18.6221 C   0  0  0  0  0  0  0  0  0  0  0  0
    8.1146   -0.4451   18.3963 H   0  0  0  0  0  0  0  0  0  0  0  0
    6.5727    0.6613   17.5994 N   0  0  0  0  0  0  0  0  0  0  0  0
    5.4125    1.2904   17.8398 C   0  0  0  0  0  0  0  0  0  0  0  0
    4.9517    1.7965   16.9945 H   0  0  0  0  0  0  0  0  0  0  0  0
    4.7973    1.3133   19.0956 C   0  0  0  0  0  0  0  0  0  0  0  0
    3.8637    1.8497   19.2268 H   0  0  0  0  0  0  0  0  0  0  0  0
    5.4144    0.6614   20.1602 C   0  0  0  0  0  0  0  0  0  0  0  0
    4.9722    0.6663   21.1578 H   0  0  0  0  0  0  0  0  0  0  0  0
    6.9176   -0.7397   22.2116 N   0  0  0  0  0  0  0  0  0  0  0  0
    7.7948   -1.4274   22.9907 N   0  0  0  0  0  0  0  0  0  0  0  0
  1  2  1  0
  2  3  1  0
  3  4  1  0
  3  5  1  0
  5  6  2  0
  5  7  1  0
  7  8  1  0
  7  9  1  0
  7 10  1  0
 10 11  1  0
 10 12  1  0
 10 13  1  0
 13 14  1  0
 13 15  1  0
 13 16  1  0
 16 17  1  0
 16 18  1  0
 16 19  1  0
 19 20  2  0
 20 21  1  0
 21 22  2  0
 22 23  1  0
 23 24  1  0
 24 25  1  0
 25 26  2  0
 26 27  1  0
 26 28  1  0
 28 29  2  0
 29 30  1  0
 29 31  1  0
 31 32  1  0
 31 33  2  0
 33 34  1  0
 24 35  2  0
 35 36  1  0
 36 19  1  0
 36 22  1  0
 33 25  1  0
M  END
>  <cnnaffinity>  (1) 
-5.12329

>  <filename>  (1) 
O=C(CCCCc1nnc2sc(-c3cccnc3)nn12)NO

$$$$
