
     RDKit          3D

 38 41  0  0  0  0  0  0  0  0999 V2000
    5.1100    1.7957   16.7979 H   0  0  0  0  0  0  0  0  0  0  0  0
    5.5573    1.3378   17.6756 C   0  0  0  0  0  0  0  0  0  0  0  0
    6.7295    0.7159   17.4845 N   0  0  0  0  0  0  0  0  0  0  0  0
    7.2992    0.1411   18.5494 C   0  0  0  0  0  0  0  0  0  0  0  0
    8.2551   -0.3466   18.3775 H   0  0  0  0  0  0  0  0  0  0  0  0
    6.7196    0.1243   19.8336 C   0  0  0  0  0  0  0  0  0  0  0  0
    7.3367   -0.6667   20.9158 C   0  0  0  0  0  0  0  0  0  0  0  0
    8.5158   -1.2781   20.7174 N   0  0  0  0  0  0  0  0  0  0  0  0
    8.6787   -1.9779   21.8504 N   0  0  0  0  0  0  0  0  0  0  0  0
    9.6967   -2.7637   22.3587 C   0  0  0  0  0  0  0  0  0  0  0  0
   10.6226   -2.8217   21.8137 H   0  0  0  0  0  0  0  0  0  0  0  0
    9.2407   -3.2432   23.5440 C   0  0  0  0  0  0  0  0  0  0  0  0
    9.6800   -3.8757   24.2978 H   0  0  0  0  0  0  0  0  0  0  0  0
    7.9603   -2.7221   23.7680 N   0  0  0  0  0  0  0  0  0  0  0  0
    7.0681   -3.0522   24.7964 N   0  0  0  0  0  0  0  0  0  0  0  0
    6.1386   -3.2221   24.4316 H   0  0  0  0  0  0  0  0  0  0  0  0
    7.3895   -4.0283   25.7523 C   0  0  0  0  0  0  0  0  0  0  0  0
    8.5170   -4.3868   26.0164 O   0  0  0  0  0  0  0  0  0  0  0  0
    6.2522   -4.5073   26.3641 N   0  0  0  0  0  0  0  0  0  0  0  0
    5.4293   -3.9413   26.2479 H   0  0  0  0  0  0  0  0  0  0  0  0
    6.2626   -5.3000   27.5402 C   0  0  0  0  0  0  0  0  0  0  0  0
    5.2387   -5.1391   28.4861 C   0  0  0  0  0  0  0  0  0  0  0  0
    4.4391   -4.4238   28.3105 H   0  0  0  0  0  0  0  0  0  0  0  0
    5.2343   -5.8934   29.6663 C   0  0  0  0  0  0  0  0  0  0  0  0
    4.4602   -5.7597   30.4182 H   0  0  0  0  0  0  0  0  0  0  0  0
    6.2493   -6.8301   29.8829 C   0  0  0  0  0  0  0  0  0  0  0  0
    6.2823   -7.7561   31.3550 Cl  0  0  0  0  0  0  0  0  0  0  0  0
    7.2604   -7.0192   28.9385 C   0  0  0  0  0  0  0  0  0  0  0  0
    8.0367   -7.7641   29.1069 H   0  0  0  0  0  0  0  0  0  0  0  0
    7.2768   -6.2431   27.7795 C   0  0  0  0  0  0  0  0  0  0  0  0
    8.0853   -6.3479   27.0699 H   0  0  0  0  0  0  0  0  0  0  0  0
    7.6524   -1.8796   22.7275 C   0  0  0  0  0  0  0  0  0  0  0  0
    6.7728   -0.9514   22.1823 C   0  0  0  0  0  0  0  0  0  0  0  0
    5.9449   -0.4498   22.6443 H   0  0  0  0  0  0  0  0  0  0  0  0
    5.5078    0.8081   20.0149 C   0  0  0  0  0  0  0  0  0  0  0  0
    5.0332    0.8633   20.9952 H   0  0  0  0  0  0  0  0  0  0  0  0
    4.9152    1.4231   18.9151 C   0  0  0  0  0  0  0  0  0  0  0  0
    3.9762    1.9587   19.0073 H   0  0  0  0  0  0  0  0  0  0  0  0
  1  2  1  0
  2  3  2  0
  3  4  1  0
  4  5  1  0
  4  6  2  0
  6  7  1  0
  7  8  2  0
  8  9  1  0
  9 10  1  0
 10 11  1  0
 10 12  2  0
 12 13  1  0
 12 14  1  0
 14 15  1  0
 15 16  1  0
 15 17  1  0
 17 18  2  0
 17 19  1  0
 19 20  1  0
 19 21  1  0
 21 22  2  0
 22 23  1  0
 22 24  1  0
 24 25  1  0
 24 26  2  0
 26 27  1  0
 26 28  1  0
 28 29  1  0
 28 30  2  0
 30 31  1  0
 14 32  1  0
 32 33  2  0
 33 34  1  0
  6 35  1  0
 35 36  1  0
 35 37  2  0
 37 38  1  0
 37  2  1  0
 33  7  1  0
 32  9  1  0
 30 21  1  0
M  END
>  <cnnaffinity>  (1) 
-5.8629

>  <filename>  (1) 
O=C(Nc1ccc(Cl)cc1)Nn1ccn2nc(-c3cccnc3)cc12

$$$$
