
     RDKit          3D

 43 44  0  0  0  0  0  0  0  0999 V2000
    8.9366    8.1229   25.9290 H   0  0  0  0  0  0  0  0  0  0  0  0
    8.2878    7.4484   25.6536 O   0  0  0  0  0  0  0  0  0  0  0  0
    9.0291    6.3554   25.1927 N   0  0  0  0  0  0  0  0  0  0  0  0
    8.6334    5.4980   25.5566 H   0  0  0  0  0  0  0  0  0  0  0  0
    9.4291    6.2494   23.8637 C   0  0  0  0  0  0  0  0  0  0  0  0
    9.5256    7.1809   23.0932 O   0  0  0  0  0  0  0  0  0  0  0  0
    9.8381    4.8231   23.5434 C   0  0  0  0  0  0  0  0  0  0  0  0
   10.6424    4.9188   22.8115 H   0  0  0  0  0  0  0  0  0  0  0  0
   10.2539    4.3512   24.4412 H   0  0  0  0  0  0  0  0  0  0  0  0
    8.7190    3.9571   22.9501 C   0  0  0  0  0  0  0  0  0  0  0  0
    8.2981    4.4680   22.0726 H   0  0  0  0  0  0  0  0  0  0  0  0
    7.8897    3.8338   23.6626 H   0  0  0  0  0  0  0  0  0  0  0  0
    9.2154    2.5745   22.5393 C   0  0  0  0  0  0  0  0  0  0  0  0
   10.0185    2.6785   21.7964 H   0  0  0  0  0  0  0  0  0  0  0  0
    9.6660    2.0643   23.4034 H   0  0  0  0  0  0  0  0  0  0  0  0
    8.1039    1.7089   21.9674 C   0  0  0  0  0  0  0  0  0  0  0  0
    7.2950    1.6203   22.7057 H   0  0  0  0  0  0  0  0  0  0  0  0
    7.6622    2.2147   21.0983 H   0  0  0  0  0  0  0  0  0  0  0  0
    8.5821    0.3235   21.5482 C   0  0  0  0  0  0  0  0  0  0  0  0
    9.3284    0.4427   20.7479 H   0  0  0  0  0  0  0  0  0  0  0  0
    9.1101   -0.1548   22.3870 H   0  0  0  0  0  0  0  0  0  0  0  0
    7.4609   -0.6211   21.0488 C   0  0  1  0  0  0  0  0  0  0  0  0
    6.6549    0.0351   19.9098 C   0  0  0  0  0  0  0  0  0  0  0  0
    7.1592    0.0842   18.5914 C   0  0  0  0  0  0  0  0  0  0  0  0
    8.0981   -0.4104   18.3393 H   0  0  0  0  0  0  0  0  0  0  0  0
    6.5525    0.6904   17.5566 N   0  0  0  0  0  0  0  0  0  0  0  0
    5.3900    1.3074   17.8066 C   0  0  0  0  0  0  0  0  0  0  0  0
    4.9227    1.8116   16.9635 H   0  0  0  0  0  0  0  0  0  0  0  0
    4.7829    1.3262   19.0667 C   0  0  0  0  0  0  0  0  0  0  0  0
    3.8439    1.8486   19.2104 H   0  0  0  0  0  0  0  0  0  0  0  0
    5.4250    0.6768   20.1252 C   0  0  0  0  0  0  0  0  0  0  0  0
    4.9685    0.6685   21.1171 H   0  0  0  0  0  0  0  0  0  0  0  0
    8.0576   -1.9772   20.6033 C   0  0  0  0  0  0  0  0  0  0  0  0
    7.2793   -2.4550   19.9917 H   0  0  0  0  0  0  0  0  0  0  0  0
    8.9630   -1.8504   19.9962 H   0  0  0  0  0  0  0  0  0  0  0  0
    8.2903   -2.8156   21.7774 N   0  0  0  0  0  0  0  0  0  0  0  0
    9.2484   -2.7329   22.0975 H   0  0  0  0  0  0  0  0  0  0  0  0
    7.3584   -2.3622   22.8209 C   0  0  0  0  0  0  0  0  0  0  0  0
    6.6726   -3.1764   23.0882 H   0  0  0  0  0  0  0  0  0  0  0  0
    7.8939   -2.0882   23.7394 H   0  0  0  0  0  0  0  0  0  0  0  0
    6.5868   -1.1703   22.2127 C   0  0  0  0  0  0  0  0  0  0  0  0
    6.3131   -0.4244   22.9677 H   0  0  0  0  0  0  0  0  0  0  0  0
    5.6691   -1.5586   21.7560 H   0  0  0  0  0  0  0  0  0  0  0  0
  1  2  1  0
  2  3  1  0
  3  4  1  0
  3  5  1  0
  5  6  2  0
  5  7  1  0
  7  8  1  0
  7  9  1  0
  7 10  1  0
 10 11  1  0
 10 12  1  0
 10 13  1  0
 13 14  1  0
 13 15  1  0
 13 16  1  0
 16 17  1  0
 16 18  1  0
 16 19  1  0
 19 20  1  0
 19 21  1  0
 22 19  1  1
 22 23  1  0
 23 24  2  0
 24 25  1  0
 24 26  1  0
 26 27  2  0
 27 28  1  0
 27 29  1  0
 29 30  1  0
 29 31  2  0
 31 32  1  0
 22 33  1  0
 33 34  1  0
 33 35  1  0
 33 36  1  0
 36 37  1  0
 36 38  1  0
 38 39  1  0
 38 40  1  0
 38 41  1  0
 41 42  1  0
 41 43  1  0
 41 22  1  0
 31 23  1  0
M  END
>  <cnnaffinity>  (1) 
-4.78193

>  <filename>  (1) 
O=C(CCCCC[C@]1(c2cccnc2)CCNC1)NO

$$$$
