
     RDKit          3D

 34 36  0  0  0  0  0  0  0  0999 V2000
    4.9219    1.8034   16.9779 H   0  0  0  0  0  0  0  0  0  0  0  0
    5.3994    1.3010   17.8202 C   0  0  0  0  0  0  0  0  0  0  0  0
    6.5606    0.6812   17.5625 N   0  0  0  0  0  0  0  0  0  0  0  0
    7.1832    0.0644   18.5776 C   0  0  0  0  0  0  0  0  0  0  0  0
    8.1155   -0.4213   18.2977 H   0  0  0  0  0  0  0  0  0  0  0  0
    6.6952    0.0098   19.9006 C   0  0  0  0  0  0  0  0  0  0  0  0
    7.3711   -0.7302   21.0106 C   0  0  0  0  0  0  0  0  0  0  0  0
    6.8116   -1.2787   22.1379 C   0  0  0  0  0  0  0  0  0  0  0  0
    5.7964   -1.3527   22.4171 H   0  0  0  0  0  0  0  0  0  0  0  0
    7.8530   -1.8517   22.8733 C   0  0  0  0  0  0  0  0  0  0  0  0
    7.7998   -2.5619   24.0756 N   0  0  0  0  0  0  0  0  0  0  0  0
    8.6352   -3.0704   24.2791 H   0  0  0  0  0  0  0  0  0  0  0  0
    6.7105   -2.5005   24.9095 C   0  0  0  0  0  0  0  0  0  0  0  0
    5.8141   -1.7089   24.7216 O   0  0  0  0  0  0  0  0  0  0  0  0
    6.7065   -3.4233   25.9279 N   0  0  0  0  0  0  0  0  0  0  0  0
    7.5791   -3.8637   26.1340 H   0  0  0  0  0  0  0  0  0  0  0  0
    5.6113   -3.6921   26.7908 C   0  0  0  0  0  0  0  0  0  0  0  0
    4.2872   -3.5908   26.3313 C   0  0  0  0  0  0  0  0  0  0  0  0
    4.1197   -3.3147   25.2983 H   0  0  0  0  0  0  0  0  0  0  0  0
    3.2142   -3.8484   27.1903 C   0  0  0  0  0  0  0  0  0  0  0  0
    2.1862   -3.8011   26.8409 H   0  0  0  0  0  0  0  0  0  0  0  0
    3.4600   -4.1717   28.5271 C   0  0  0  0  0  0  0  0  0  0  0  0
    2.1179   -4.4741   29.5963 Cl  0  0  0  0  0  0  0  0  0  0  0  0
    4.7688   -4.2840   29.0015 C   0  0  0  0  0  0  0  0  0  0  0  0
    4.9313   -4.5260   30.0497 H   0  0  0  0  0  0  0  0  0  0  0  0
    5.8403   -4.0940   28.1151 C   0  0  0  0  0  0  0  0  0  0  0  0
    6.8539   -4.2913   28.4491 H   0  0  0  0  0  0  0  0  0  0  0  0
    9.0091   -1.7074   22.2528 N   0  0  0  0  0  0  0  0  0  0  0  0
    8.6988   -1.0202   21.1196 N   0  0  0  0  0  0  0  0  0  0  0  0
    9.4462   -0.7349   20.5007 H   0  0  0  0  0  0  0  0  0  0  0  0
    5.4681    0.6596   20.1347 C   0  0  0  0  0  0  0  0  0  0  0  0
    5.0373    0.6508   21.1371 H   0  0  0  0  0  0  0  0  0  0  0  0
    4.8126    1.3151   19.0891 C   0  0  0  0  0  0  0  0  0  0  0  0
    3.8752    1.8405   19.2381 H   0  0  0  0  0  0  0  0  0  0  0  0
  1  2  1  0
  2  3  2  0
  3  4  1  0
  4  5  1  0
  4  6  2  0
  6  7  1  0
  7  8  2  0
  8  9  1  0
  8 10  1  0
 10 11  1  0
 11 12  1  0
 11 13  1  0
 13 14  2  0
 13 15  1  0
 15 16  1  0
 15 17  1  0
 17 18  2  0
 18 19  1  0
 18 20  1  0
 20 21  1  0
 20 22  2  0
 22 23  1  0
 22 24  1  0
 24 25  1  0
 24 26  2  0
 26 27  1  0
 10 28  2  0
 28 29  1  0
 29 30  1  0
  6 31  1  0
 31 32  1  0
 31 33  2  0
 33 34  1  0
 33  2  1  0
 29  7  1  0
 26 17  1  0
M  END
>  <cnnaffinity>  (1) 
-4.98978

>  <filename>  (1) 
O=C(Nc1ccc(Cl)cc1)Nc1cc(-c2cccnc2)[nH]n1

$$$$
