
     RDKit          3D

 35 38  0  0  0  0  0  0  0  0999 V2000
    4.9431    1.7961   16.9795 H   0  0  0  0  0  0  0  0  0  0  0  0
    5.4026    1.2923   17.8290 C   0  0  0  0  0  0  0  0  0  0  0  0
    6.5634    0.6636   17.5840 N   0  0  0  0  0  0  0  0  0  0  0  0
    7.1630    0.0470   18.6052 C   0  0  0  0  0  0  0  0  0  0  0  0
    8.1036   -0.4496   18.3771 H   0  0  0  0  0  0  0  0  0  0  0  0
    6.6556    0.0405   19.9135 C   0  0  0  0  0  0  0  0  0  0  0  0
    7.4019   -0.6281   20.9691 C   0  0  0  0  0  0  0  0  0  0  0  0
    7.9704   -1.8493   20.7349 N   0  0  0  0  0  0  0  0  0  0  0  0
    8.3943   -2.2294   21.9106 C   0  0  0  0  0  0  0  0  0  0  0  0
    9.1872   -3.6214   22.5929 S   0  0  0  0  0  0  0  0  0  0  0  0
    9.2804   -2.8303   24.1521 C   0  0  0  0  0  0  0  0  0  0  0  0
    9.8021   -3.3319   24.9570 H   0  0  0  0  0  0  0  0  0  0  0  0
    8.6711   -1.6305   24.1494 C   0  0  0  0  0  0  0  0  0  0  0  0
    8.4861   -0.9232   24.9492 H   0  0  0  0  0  0  0  0  0  0  0  0
    8.1781   -1.3135   22.8909 N   0  0  0  0  0  0  0  0  0  0  0  0
    7.5569   -0.2399   22.2923 C   0  0  0  0  0  0  0  0  0  0  0  0
    7.1289    0.9605   23.0209 C   0  0  0  0  0  0  0  0  0  0  0  0
    6.8008    0.9490   24.2019 O   0  0  0  0  0  0  0  0  0  0  0  0
    7.1203    2.0887   22.2758 N   0  0  0  0  0  0  0  0  0  0  0  0
    7.5329    2.0232   21.3597 H   0  0  0  0  0  0  0  0  0  0  0  0
    6.6990    3.3702   22.8270 C   0  0  0  0  0  0  0  0  0  0  0  0
    6.5693    4.0773   21.9944 H   0  0  0  0  0  0  0  0  0  0  0  0
    5.7242    3.2292   23.3158 H   0  0  0  0  0  0  0  0  0  0  0  0
    7.6662    3.9406   23.8515 C   0  0  0  0  0  0  0  0  0  0  0  0
    7.7955    3.2842   24.7150 H   0  0  0  0  0  0  0  0  0  0  0  0
    8.8460    4.7536   23.3852 C   0  0  0  0  0  0  0  0  0  0  0  0
    9.8000    4.6353   23.8978 H   0  0  0  0  0  0  0  0  0  0  0  0
    8.9630    4.9048   22.3106 H   0  0  0  0  0  0  0  0  0  0  0  0
    7.6994    5.4302   24.0942 C   0  0  0  0  0  0  0  0  0  0  0  0
    7.0175    6.0639   23.5232 H   0  0  0  0  0  0  0  0  0  0  0  0
    7.8456    5.7957   25.1103 H   0  0  0  0  0  0  0  0  0  0  0  0
    5.4221    0.6665   20.1490 C   0  0  0  0  0  0  0  0  0  0  0  0
    4.9735    0.6614   21.1428 H   0  0  0  0  0  0  0  0  0  0  0  0
    4.7918    1.3129   19.0875 C   0  0  0  0  0  0  0  0  0  0  0  0
    3.8587    1.8471   19.2290 H   0  0  0  0  0  0  0  0  0  0  0  0
  1  2  1  0
  2  3  2  0
  3  4  1  0
  4  5  1  0
  4  6  2  0
  6  7  1  0
  7  8  1  0
  8  9  2  0
  9 10  1  0
 10 11  1  0
 11 12  1  0
 11 13  2  0
 13 14  1  0
 13 15  1  0
 15 16  1  0
 16 17  1  0
 17 18  2  0
 17 19  1  0
 19 20  1  0
 19 21  1  0
 21 22  1  0
 21 23  1  0
 21 24  1  0
 24 25  1  0
 24 26  1  0
 26 27  1  0
 26 28  1  0
 26 29  1  0
 29 30  1  0
 29 31  1  0
  6 32  1  0
 32 33  1  0
 32 34  2  0
 34 35  1  0
 34  2  1  0
 16  7  2  0
 29 24  1  0
 15  9  1  0
M  END
>  <cnnaffinity>  (1) 
-5.49135

>  <filename>  (1) 
O=C(NCC1CC1)c1c(-c2cccnc2)nc2sccn12

$$$$
