
     RDKit          3D

 36 37  0  0  0  0  0  0  0  0999 V2000
   14.0049   -0.3205   25.7619 H   0  0  0  0  0  0  0  0  0  0  0  0
   13.4159    0.4117   25.4898 O   0  0  0  0  0  0  0  0  0  0  0  0
   12.8111    0.0654   24.3018 N   0  0  0  0  0  0  0  0  0  0  0  0
   11.8618   -0.2532   24.4063 H   0  0  0  0  0  0  0  0  0  0  0  0
   13.4256   -0.0343   23.0739 C   0  0  0  0  0  0  0  0  0  0  0  0
   14.5292    0.3979   22.8182 O   0  0  0  0  0  0  0  0  0  0  0  0
   12.6019   -0.8183   22.0647 C   0  0  0  0  0  0  0  0  0  0  0  0
   12.3717   -1.8009   22.4925 H   0  0  0  0  0  0  0  0  0  0  0  0
   13.3029   -1.0099   21.2466 H   0  0  0  0  0  0  0  0  0  0  0  0
   11.3188   -0.1724   21.5024 C   0  0  0  0  0  0  0  0  0  0  0  0
   11.5925    0.7604   20.9951 H   0  0  0  0  0  0  0  0  0  0  0  0
   10.9188   -0.8378   20.7242 H   0  0  0  0  0  0  0  0  0  0  0  0
   10.1997    0.1696   22.4894 C   0  0  0  0  0  0  0  0  0  0  0  0
   10.5599    0.9041   23.2195 H   0  0  0  0  0  0  0  0  0  0  0  0
    9.4065    0.6860   21.9381 H   0  0  0  0  0  0  0  0  0  0  0  0
    9.5308   -1.0134   23.2138 C   0  0  0  0  0  0  0  0  0  0  0  0
   10.2510   -1.6684   23.7314 H   0  0  0  0  0  0  0  0  0  0  0  0
    8.8826   -0.5870   23.9951 H   0  0  0  0  0  0  0  0  0  0  0  0
    8.6784   -1.8638   22.3150 C   0  0  0  0  0  0  0  0  0  0  0  0
    7.6465   -1.5115   21.4687 C   0  0  0  0  0  0  0  0  0  0  0  0
    7.2674   -0.1961   21.2979 O   0  0  0  0  0  0  0  0  0  0  0  0
    6.6405    0.2049   20.1368 C   0  0  0  0  0  0  0  0  0  0  0  0
    7.2484    0.0745   18.8770 C   0  0  0  0  0  0  0  0  0  0  0  0
    8.2262   -0.4037   18.7991 H   0  0  0  0  0  0  0  0  0  0  0  0
    6.6873    0.5297   17.7451 N   0  0  0  0  0  0  0  0  0  0  0  0
    5.4961    1.1399   17.8334 C   0  0  0  0  0  0  0  0  0  0  0  0
    5.0611    1.4980   16.9022 H   0  0  0  0  0  0  0  0  0  0  0  0
    4.8238    1.3211   19.0476 C   0  0  0  0  0  0  0  0  0  0  0  0
    3.8733    1.8401   19.0591 H   0  0  0  0  0  0  0  0  0  0  0  0
    5.3999    0.8433   20.2260 C   0  0  0  0  0  0  0  0  0  0  0  0
    4.9192    0.9638   21.1962 H   0  0  0  0  0  0  0  0  0  0  0  0
    7.1044   -2.7303   20.9853 C   0  0  0  0  0  0  0  0  0  0  0  0
    6.2589   -2.8941   20.3218 H   0  0  0  0  0  0  0  0  0  0  0  0
    7.7864   -3.7680   21.4708 N   0  0  0  0  0  0  0  0  0  0  0  0
    8.7234   -3.2201   22.2547 N   0  0  0  0  0  0  0  0  0  0  0  0
    9.3707   -3.8242   22.7413 H   0  0  0  0  0  0  0  0  0  0  0  0
  1  2  1  0
  2  3  1  0
  3  4  1  0
  3  5  1  0
  5  6  2  0
  5  7  1  0
  7  8  1  0
  7  9  1  0
  7 10  1  0
 10 11  1  0
 10 12  1  0
 10 13  1  0
 13 14  1  0
 13 15  1  0
 13 16  1  0
 16 17  1  0
 16 18  1  0
 16 19  1  0
 19 20  2  0
 20 21  1  0
 21 22  1  0
 22 23  2  0
 23 24  1  0
 23 25  1  0
 25 26  2  0
 26 27  1  0
 26 28  1  0
 28 29  1  0
 28 30  2  0
 30 31  1  0
 20 32  1  0
 32 33  1  0
 32 34  2  0
 34 35  1  0
 35 36  1  0
 35 19  1  0
 30 22  1  0
M  END
>  <cnnaffinity>  (1) 
-5.53676

>  <filename>  (1) 
O=C(CCCCc1[nH]ncc1Oc1cccnc1)NO

$$$$
