
     RDKit          3D

 34 36  0  0  0  0  0  0  0  0999 V2000
    4.9474    1.8255   16.8837 H   0  0  0  0  0  0  0  0  0  0  0  0
    5.3955    1.3305   17.7421 C   0  0  0  0  0  0  0  0  0  0  0  0
    6.5644    0.7063   17.5141 N   0  0  0  0  0  0  0  0  0  0  0  0
    7.1431    0.0933   18.5530 C   0  0  0  0  0  0  0  0  0  0  0  0
    8.1008   -0.3853   18.3453 H   0  0  0  0  0  0  0  0  0  0  0  0
    6.6100    0.0698   19.8622 C   0  0  0  0  0  0  0  0  0  0  0  0
    7.3005   -0.5989   20.9692 C   0  0  0  0  0  0  0  0  0  0  0  0
    7.4928   -0.2584   22.2984 C   0  0  0  0  0  0  0  0  0  0  0  0
    7.0032    0.8650   22.9504 N   0  0  0  0  0  0  0  0  0  0  0  0
    7.1291    1.7217   22.4437 H   0  0  0  0  0  0  0  0  0  0  0  0
    7.1326    0.9812   24.3234 C   0  0  0  0  0  0  0  0  0  0  0  0
    7.2760    0.0719   25.0914 O   0  0  0  0  0  0  0  0  0  0  0  0
    7.0460    2.3181   24.6751 N   0  0  0  0  0  0  0  0  0  0  0  0
    6.4492    2.8392   24.0545 H   0  0  0  0  0  0  0  0  0  0  0  0
    7.0308    2.7460   26.0191 C   0  0  0  0  0  0  0  0  0  0  0  0
    7.7927    2.0980   27.0078 C   0  0  0  0  0  0  0  0  0  0  0  0
    8.3837    1.2277   26.7544 H   0  0  0  0  0  0  0  0  0  0  0  0
    7.7290    2.5294   28.3319 C   0  0  0  0  0  0  0  0  0  0  0  0
    8.2959    1.9926   29.0883 H   0  0  0  0  0  0  0  0  0  0  0  0
    6.9159    3.6171   28.6664 C   0  0  0  0  0  0  0  0  0  0  0  0
    6.7881    4.1356   30.3195 Cl  0  0  0  0  0  0  0  0  0  0  0  0
    6.1873    4.2917   27.6841 C   0  0  0  0  0  0  0  0  0  0  0  0
    5.5562    5.1284   27.9689 H   0  0  0  0  0  0  0  0  0  0  0  0
    6.2653    3.8657   26.3541 C   0  0  0  0  0  0  0  0  0  0  0  0
    5.7053    4.3787   25.5765 H   0  0  0  0  0  0  0  0  0  0  0  0
    8.2561   -1.1721   22.9365 N   0  0  0  0  0  0  0  0  0  0  0  0
    8.5218   -2.0896   22.0462 C   0  0  0  0  0  0  0  0  0  0  0  0
    9.0726   -3.0036   22.2408 H   0  0  0  0  0  0  0  0  0  0  0  0
    7.9924   -1.7914   20.8347 N   0  0  0  0  0  0  0  0  0  0  0  0
    7.9644   -2.4089   20.0406 H   0  0  0  0  0  0  0  0  0  0  0  0
    5.3902    0.7390   20.0726 C   0  0  0  0  0  0  0  0  0  0  0  0
    4.9500    0.7478   21.0703 H   0  0  0  0  0  0  0  0  0  0  0  0
    4.7689    1.3662   18.9923 C   0  0  0  0  0  0  0  0  0  0  0  0
    3.8267    1.8921   19.1075 H   0  0  0  0  0  0  0  0  0  0  0  0
  1  2  1  0
  2  3  2  0
  3  4  1  0
  4  5  1  0
  4  6  2  0
  6  7  1  0
  7  8  2  0
  8  9  1  0
  9 10  1  0
  9 11  1  0
 11 12  2  0
 11 13  1  0
 13 14  1  0
 13 15  1  0
 15 16  2  0
 16 17  1  0
 16 18  1  0
 18 19  1  0
 18 20  2  0
 20 21  1  0
 20 22  1  0
 22 23  1  0
 22 24  2  0
 24 25  1  0
  8 26  1  0
 26 27  2  0
 27 28  1  0
 27 29  1  0
 29 30  1  0
  6 31  1  0
 31 32  1  0
 31 33  2  0
 33 34  1  0
 33  2  1  0
 29  7  1  0
 24 15  1  0
M  END
>  <cnnaffinity>  (1) 
-4.93957

>  <filename>  (1) 
O=C(Nc1ccc(Cl)cc1)Nc1nc[nH]c1-c1cccnc1

$$$$
