
     RDKit          3D

 33 36  0  0  0  0  0  0  0  0999 V2000
    3.3650   -1.7824   29.8824 H   0  0  0  0  0  0  0  0  0  0  0  0
    4.0257   -2.1520   29.2743 O   0  0  0  0  0  0  0  0  0  0  0  0
    4.1298   -1.1264   28.4089 C   0  0  0  0  0  0  0  0  0  0  0  0
    3.4396   -0.1503   28.5943 O   0  0  0  0  0  0  0  0  0  0  0  0
    5.1163   -1.3628   27.3113 C   0  0  0  0  0  0  0  0  0  0  0  0
    5.3282   -0.3704   26.3354 C   0  0  0  0  0  0  0  0  0  0  0  0
    4.7713    0.5596   26.3802 H   0  0  0  0  0  0  0  0  0  0  0  0
    6.2362   -0.5634   25.2984 C   0  0  0  0  0  0  0  0  0  0  0  0
    6.3834    0.1993   24.5415 H   0  0  0  0  0  0  0  0  0  0  0  0
    6.9643   -1.7649   25.1985 C   0  0  0  0  0  0  0  0  0  0  0  0
    7.9554   -2.0205   24.1212 C   0  0  0  0  0  0  0  0  0  0  0  0
    9.0787   -2.7644   24.2018 C   0  0  0  0  0  0  0  0  0  0  0  0
    9.4625   -3.2845   25.0714 H   0  0  0  0  0  0  0  0  0  0  0  0
    9.9984   -2.8088   22.7256 S   0  0  0  0  0  0  0  0  0  0  0  0
    8.8043   -1.8183   21.9470 C   0  0  0  0  0  0  0  0  0  0  0  0
    8.5506   -1.3288   20.7526 N   0  0  0  0  0  0  0  0  0  0  0  0
    7.3673   -0.6887   20.9676 C   0  0  0  0  0  0  0  0  0  0  0  0
    6.6425    0.0176   19.9146 C   0  0  0  0  0  0  0  0  0  0  0  0
    7.1772    0.0519   18.6185 C   0  0  0  0  0  0  0  0  0  0  0  0
    8.1250   -0.4326   18.3887 H   0  0  0  0  0  0  0  0  0  0  0  0
    6.5729    0.6652   17.5979 N   0  0  0  0  0  0  0  0  0  0  0  0
    5.4093    1.2845   17.8463 C   0  0  0  0  0  0  0  0  0  0  0  0
    4.9356    1.7742   17.0005 H   0  0  0  0  0  0  0  0  0  0  0  0
    4.8040    1.3100   19.1078 C   0  0  0  0  0  0  0  0  0  0  0  0
    3.8735    1.8434   19.2519 H   0  0  0  0  0  0  0  0  0  0  0  0
    5.4213    0.6602   20.1704 C   0  0  0  0  0  0  0  0  0  0  0  0
    4.9944    0.6389   21.1777 H   0  0  0  0  0  0  0  0  0  0  0  0
    6.8918   -0.7541   22.2070 N   0  0  0  0  0  0  0  0  0  0  0  0
    7.8387   -1.4879   22.8309 N   0  0  0  0  0  0  0  0  0  0  0  0
    6.7572   -2.7544   26.1856 C   0  0  0  0  0  0  0  0  0  0  0  0
    7.3053   -3.6908   26.1282 H   0  0  0  0  0  0  0  0  0  0  0  0
    5.8507   -2.5676   27.2223 C   0  0  0  0  0  0  0  0  0  0  0  0
    5.7145   -3.3538   27.9653 H   0  0  0  0  0  0  0  0  0  0  0  0
  1  2  1  0
  2  3  1  0
  3  4  2  0
  3  5  1  0
  5  6  2  0
  6  7  1  0
  6  8  1  0
  8  9  1  0
  8 10  2  0
 10 11  1  0
 11 12  2  0
 12 13  1  0
 12 14  1  0
 14 15  1  0
 15 16  2  0
 16 17  1  0
 17 18  1  0
 18 19  2  0
 19 20  1  0
 19 21  1  0
 21 22  2  0
 22 23  1  0
 22 24  1  0
 24 25  1  0
 24 26  2  0
 26 27  1  0
 17 28  2  0
 28 29  1  0
 10 30  1  0
 30 31  1  0
 30 32  2  0
 32 33  1  0
 32  5  1  0
 29 11  1  0
 29 15  1  0
 26 18  1  0
M  END
>  <cnnaffinity>  (1) 
-5.32381

>  <filename>  (1) 
O=C(O)c1ccc(-c2csc3nc(-c4cccnc4)nn23)cc1

$$$$
