
     RDKit          3D

 39 42  0  0  0  0  0  0  0  0999 V2000
    5.0153    1.7926   16.9040 H   0  0  0  0  0  0  0  0  0  0  0  0
    5.4717    1.3133   17.7653 C   0  0  0  0  0  0  0  0  0  0  0  0
    6.6317    0.6803   17.5353 N   0  0  0  0  0  0  0  0  0  0  0  0
    7.2109    0.0482   18.5585 C   0  0  0  0  0  0  0  0  0  0  0  0
    8.1531   -0.4577   18.3387 H   0  0  0  0  0  0  0  0  0  0  0  0
    6.6575    0.0115   19.8444 C   0  0  0  0  0  0  0  0  0  0  0  0
    7.2955   -0.7267   20.9365 C   0  0  0  0  0  0  0  0  0  0  0  0
    6.6699   -0.8859   22.0538 N   0  0  0  0  0  0  0  0  0  0  0  0
    7.4547   -1.5592   22.9365 N   0  0  0  0  0  0  0  0  0  0  0  0
    7.3637   -2.0898   24.1976 C   0  0  0  0  0  0  0  0  0  0  0  0
    6.2802   -2.0586   25.0671 N   0  0  0  0  0  0  0  0  0  0  0  0
    6.3941   -2.7514   25.7914 H   0  0  0  0  0  0  0  0  0  0  0  0
    5.6248   -0.8829   25.3943 C   0  0  0  0  0  0  0  0  0  0  0  0
    5.9875    0.1831   24.9582 O   0  0  0  0  0  0  0  0  0  0  0  0
    4.3888   -1.0327   26.2818 C   0  0  0  0  0  0  0  0  0  0  0  0
    4.3249   -2.0747   26.6155 H   0  0  0  0  0  0  0  0  0  0  0  0
    3.1310   -0.7230   25.4212 C   0  0  0  0  0  0  0  0  0  0  0  0
    3.3550    0.1671   24.8174 H   0  0  0  0  0  0  0  0  0  0  0  0
    2.9696   -1.5614   24.7350 H   0  0  0  0  0  0  0  0  0  0  0  0
    1.8234   -0.4831   26.1965 C   0  0  0  0  0  0  0  0  0  0  0  0
    1.3470   -1.4372   26.4695 H   0  0  0  0  0  0  0  0  0  0  0  0
    1.1211    0.0142   25.5181 H   0  0  0  0  0  0  0  0  0  0  0  0
    2.0236    0.3818   27.4470 C   0  0  0  0  0  0  0  0  0  0  0  0
    1.0928    0.4609   28.0244 H   0  0  0  0  0  0  0  0  0  0  0  0
    2.2722    1.4093   27.1411 H   0  0  0  0  0  0  0  0  0  0  0  0
    3.1749   -0.1506   28.3104 C   0  0  0  0  0  0  0  0  0  0  0  0
    2.9584   -1.1845   28.6227 H   0  0  0  0  0  0  0  0  0  0  0  0
    3.2671    0.4293   29.2325 H   0  0  0  0  0  0  0  0  0  0  0  0
    4.4935   -0.1236   27.5258 C   0  0  0  0  0  0  0  0  0  0  0  0
    5.3306   -0.4405   28.1646 H   0  0  0  0  0  0  0  0  0  0  0  0
    4.7271    0.9017   27.1979 H   0  0  0  0  0  0  0  0  0  0  0  0
    8.4243   -2.7890   24.4595 N   0  0  0  0  0  0  0  0  0  0  0  0
    9.2824   -2.7194   23.3731 N   0  0  0  0  0  0  0  0  0  0  0  0
    8.6710   -1.9986   22.4860 C   0  0  0  0  0  0  0  0  0  0  0  0
    8.9237   -1.4398   20.8586 S   0  0  0  0  0  0  0  0  0  0  0  0
    5.4473    0.6935   20.0813 C   0  0  0  0  0  0  0  0  0  0  0  0
    5.0192    0.6951   21.0843 H   0  0  0  0  0  0  0  0  0  0  0  0
    4.8420    1.3519   19.0156 C   0  0  0  0  0  0  0  0  0  0  0  0
    3.9060    1.8847   19.1391 H   0  0  0  0  0  0  0  0  0  0  0  0
  1  2  1  0
  2  3  2  0
  3  4  1  0
  4  5  1  0
  4  6  2  0
  6  7  1  0
  7  8  2  0
  8  9  1  0
  9 10  1  0
 10 11  1  0
 11 12  1  0
 11 13  1  0
 13 14  2  0
 13 15  1  0
 15 16  1  0
 15 17  1  0
 17 18  1  0
 17 19  1  0
 17 20  1  0
 20 21  1  0
 20 22  1  0
 20 23  1  0
 23 24  1  0
 23 25  1  0
 23 26  1  0
 26 27  1  0
 26 28  1  0
 26 29  1  0
 29 30  1  0
 29 31  1  0
 10 32  2  0
 32 33  1  0
 33 34  2  0
 34 35  1  0
  6 36  1  0
 36 37  1  0
 36 38  2  0
 38 39  1  0
 38  2  1  0
 35  7  1  0
 34  9  1  0
 29 15  1  0
M  END
>  <cnnaffinity>  (1) 
-5.43867

>  <filename>  (1) 
O=C(Nc1nnc2sc(-c3cccnc3)nn12)C1CCCCC1

$$$$
