
     RDKit          3D

 35 37  0  0  0  0  0  0  0  0999 V2000
    5.0425    1.7533   16.9522 H   0  0  0  0  0  0  0  0  0  0  0  0
    5.4650    1.2147   17.7977 C   0  0  0  0  0  0  0  0  0  0  0  0
    6.5901    0.5273   17.5525 N   0  0  0  0  0  0  0  0  0  0  0  0
    7.1443   -0.1241   18.5829 C   0  0  0  0  0  0  0  0  0  0  0  0
    8.0442   -0.6981   18.3563 H   0  0  0  0  0  0  0  0  0  0  0  0
    6.6546   -0.0909   19.8972 C   0  0  0  0  0  0  0  0  0  0  0  0
    7.4030   -0.8107   20.9868 C   0  0  0  0  0  0  0  0  0  0  0  0
    6.9575   -2.1949   20.9667 N   0  0  0  0  0  0  0  0  0  0  0  0
    6.1098   -2.3993   20.4610 H   0  0  0  0  0  0  0  0  0  0  0  0
    7.3621   -3.1366   21.8633 C   0  0  0  0  0  0  0  0  0  0  0  0
    8.4178   -3.0548   22.4783 O   0  0  0  0  0  0  0  0  0  0  0  0
    6.4298   -4.3162   22.0138 C   0  0  0  0  0  0  0  0  0  0  0  0
    5.0222   -4.1935   21.9762 C   0  0  0  0  0  0  0  0  0  0  0  0
    4.5419   -3.2389   21.7495 H   0  0  0  0  0  0  0  0  0  0  0  0
    4.2102   -5.2901   22.2940 C   0  0  0  0  0  0  0  0  0  0  0  0
    3.1264   -5.1969   22.2877 H   0  0  0  0  0  0  0  0  0  0  0  0
    4.7857   -6.5303   22.5976 C   0  0  0  0  0  0  0  0  0  0  0  0
    4.1429   -7.3813   22.8291 H   0  0  0  0  0  0  0  0  0  0  0  0
    6.1786   -6.6654   22.5986 C   0  0  0  0  0  0  0  0  0  0  0  0
    6.6277   -7.6265   22.8322 H   0  0  0  0  0  0  0  0  0  0  0  0
    6.9970   -5.5714   22.3087 C   0  0  0  0  0  0  0  0  0  0  0  0
    8.0833   -5.6752   22.3391 H   0  0  0  0  0  0  0  0  0  0  0  0
    8.9522   -0.6512   20.9751 C   0  0  0  0  0  0  0  0  0  0  0  0
    9.4919   -1.5909   20.8328 H   0  0  0  0  0  0  0  0  0  0  0  0
    9.2999    0.0774   20.2343 H   0  0  0  0  0  0  0  0  0  0  0  0
    8.9245   -0.0917   22.4238 C   0  0  0  0  0  0  0  0  0  0  0  0
    9.3700   -0.7684   23.1595 H   0  0  0  0  0  0  0  0  0  0  0  0
    9.3586    0.9077   22.5544 H   0  0  0  0  0  0  0  0  0  0  0  0
    7.3730   -0.1321   22.3928 C   0  0  0  0  0  0  0  0  0  0  0  0
    6.9067    0.8590   22.3716 H   0  0  0  0  0  0  0  0  0  0  0  0
    6.8772   -0.7334   23.1619 H   0  0  0  0  0  0  0  0  0  0  0  0
    5.4371    0.5714   20.1128 C   0  0  0  0  0  0  0  0  0  0  0  0
    4.9780    0.5562   21.1028 H   0  0  0  0  0  0  0  0  0  0  0  0
    4.8407    1.2478   19.0482 C   0  0  0  0  0  0  0  0  0  0  0  0
    3.9278    1.8149   19.1799 H   0  0  0  0  0  0  0  0  0  0  0  0
  1  2  1  0
  2  3  2  0
  3  4  1  0
  4  5  1  0
  4  6  2  0
  6  7  1  0
  7  8  1  0
  8  9  1  0
  8 10  1  0
 10 11  2  0
 10 12  1  0
 12 13  2  0
 13 14  1  0
 13 15  1  0
 15 16  1  0
 15 17  2  0
 17 18  1  0
 17 19  1  0
 19 20  1  0
 19 21  2  0
 21 22  1  0
  7 23  1  0
 23 24  1  0
 23 25  1  0
 23 26  1  0
 26 27  1  0
 26 28  1  0
 26 29  1  0
 29 30  1  0
 29 31  1  0
  6 32  1  0
 32 33  1  0
 32 34  2  0
 34 35  1  0
 34  2  1  0
 29  7  1  0
 21 12  1  0
M  END
>  <cnnaffinity>  (1) 
-4.3093

>  <filename>  (1) 
O=C(NC1(c2cccnc2)CCC1)c1ccccc1

$$$$
