
     RDKit          3D

 36 38  0  0  0  0  0  0  0  0999 V2000
    7.1354    0.8913   22.4187 H   0  0  0  0  0  0  0  0  0  0  0  0
    7.4162   -0.1198   22.1906 C   0  0  0  0  0  0  0  0  0  0  0  0
    7.2266   -0.6761   20.9856 C   0  0  0  0  0  0  0  0  0  0  0  0
    6.5795    0.0028   19.8562 C   0  0  0  0  0  0  0  0  0  0  0  0
    7.1573   -0.0164   18.5753 C   0  0  0  0  0  0  0  0  0  0  0  0
    8.1150   -0.5155   18.4146 H   0  0  0  0  0  0  0  0  0  0  0  0
    6.6240    0.5912   17.5099 N   0  0  0  0  0  0  0  0  0  0  0  0
    5.4703    1.2547   17.6917 C   0  0  0  0  0  0  0  0  0  0  0  0
    5.0537    1.7386   16.8110 H   0  0  0  0  0  0  0  0  0  0  0  0
    4.8255    1.3603   18.9294 C   0  0  0  0  0  0  0  0  0  0  0  0
    3.9074    1.9294   19.0145 H   0  0  0  0  0  0  0  0  0  0  0  0
    5.3982    0.7418   20.0388 C   0  0  0  0  0  0  0  0  0  0  0  0
    4.9524    0.8160   21.0342 H   0  0  0  0  0  0  0  0  0  0  0  0
    7.6617   -1.9818   20.7789 N   0  0  0  0  0  0  0  0  0  0  0  0
    7.3526   -2.5081   19.9814 H   0  0  0  0  0  0  0  0  0  0  0  0
    8.1372   -2.7830   21.7734 C   0  0  0  0  0  0  0  0  0  0  0  0
    8.1771   -4.4281   21.6142 S   0  0  0  0  0  0  0  0  0  0  0  0
    8.5823   -2.1256   22.8567 N   0  0  0  0  0  0  0  0  0  0  0  0
    9.0407   -2.6855   23.5487 H   0  0  0  0  0  0  0  0  0  0  0  0
    8.1591   -0.8069   23.2732 C   0  0  1  0  0  0  0  0  0  0  0  0
    7.5464   -0.8455   24.1918 H   0  0  0  0  0  0  0  0  0  0  0  0
    9.4252   -0.1726   23.6027 N   0  0  0  0  0  0  0  0  0  0  0  0
   10.1204   -0.4385   22.9308 H   0  0  0  0  0  0  0  0  0  0  0  0
    9.4376    1.1511   23.9637 C   0  0  0  0  0  0  0  0  0  0  0  0
    8.4726    1.6720   24.4996 O   0  0  0  0  0  0  0  0  0  0  0  0
   10.7164    1.9167   23.7055 C   0  0  0  0  0  0  0  0  0  0  0  0
   10.7642    3.2749   24.0920 C   0  0  0  0  0  0  0  0  0  0  0  0
    9.8869    3.7318   24.5496 H   0  0  0  0  0  0  0  0  0  0  0  0
   11.9297    4.0226   23.9245 C   0  0  0  0  0  0  0  0  0  0  0  0
   11.9600    5.0562   24.2640 H   0  0  0  0  0  0  0  0  0  0  0  0
   13.0624    3.4356   23.3488 C   0  0  0  0  0  0  0  0  0  0  0  0
   13.9764    4.0185   23.2642 H   0  0  0  0  0  0  0  0  0  0  0  0
   13.0158    2.0988   22.9319 C   0  0  0  0  0  0  0  0  0  0  0  0
   13.8807    1.6547   22.4442 H   0  0  0  0  0  0  0  0  0  0  0  0
   11.8630    1.3363   23.1294 C   0  0  0  0  0  0  0  0  0  0  0  0
   11.8988    0.2810   22.8505 H   0  0  0  0  0  0  0  0  0  0  0  0
  1  2  1  0
  2  3  2  0
  3  4  1  0
  4  5  2  0
  5  6  1  0
  5  7  1  0
  7  8  2  0
  8  9  1  0
  8 10  1  0
 10 11  1  0
 10 12  2  0
 12 13  1  0
  3 14  1  0
 14 15  1  0
 14 16  1  0
 16 17  2  0
 16 18  1  0
 18 19  1  0
 18 20  1  0
 20 21  1  1
 20 22  1  0
 22 23  1  0
 22 24  1  0
 24 25  2  0
 24 26  1  0
 26 27  2  0
 27 28  1  0
 27 29  1  0
 29 30  1  0
 29 31  2  0
 31 32  1  0
 31 33  1  0
 33 34  1  0
 33 35  2  0
 35 36  1  0
 20  2  1  0
 35 26  1  0
 12  4  1  0
M  END
>  <cnnaffinity>  (1) 
-5.08282

>  <filename>  (1) 
O=C(N[C@H]1C=C(c2cccnc2)NC(=S)N1)c1ccccc1

$$$$
