
     RDKit          3D

 36 37  0  0  0  0  0  0  0  0999 V2000
    9.8267   -7.2663   22.3268 H   0  0  0  0  0  0  0  0  0  0  0  0
    9.0825   -7.8468   22.5577 O   0  0  0  0  0  0  0  0  0  0  0  0
    7.9937   -7.0029   22.7372 N   0  0  0  0  0  0  0  0  0  0  0  0
    7.5504   -7.1815   23.6240 H   0  0  0  0  0  0  0  0  0  0  0  0
    7.1346   -6.5540   21.7488 C   0  0  0  0  0  0  0  0  0  0  0  0
    7.4397   -6.2857   20.6064 O   0  0  0  0  0  0  0  0  0  0  0  0
    5.7897   -6.1908   22.3557 C   0  0  0  0  0  0  0  0  0  0  0  0
    5.5927   -6.7782   23.2637 H   0  0  0  0  0  0  0  0  0  0  0  0
    5.0081   -6.4340   21.6281 H   0  0  0  0  0  0  0  0  0  0  0  0
    5.8238   -4.6709   22.6327 C   0  0  0  0  0  0  0  0  0  0  0  0
    6.1657   -4.2035   21.6977 H   0  0  0  0  0  0  0  0  0  0  0  0
    4.8156   -4.2851   22.8321 H   0  0  0  0  0  0  0  0  0  0  0  0
    6.7604   -4.2817   23.7853 C   0  0  0  0  0  0  0  0  0  0  0  0
    6.4488   -4.7901   24.7086 H   0  0  0  0  0  0  0  0  0  0  0  0
    7.7814   -4.6271   23.5866 H   0  0  0  0  0  0  0  0  0  0  0  0
    6.8357   -2.7671   24.0495 C   0  0  0  0  0  0  0  0  0  0  0  0
    5.8286   -2.3740   24.2345 H   0  0  0  0  0  0  0  0  0  0  0  0
    7.4219   -2.5823   24.9536 H   0  0  0  0  0  0  0  0  0  0  0  0
    7.4896   -2.0078   22.9278 C   0  0  0  0  0  0  0  0  0  0  0  0
    8.8287   -1.9758   22.9041 N   0  0  0  0  0  0  0  0  0  0  0  0
    9.3906   -1.3400   21.8788 C   0  0  0  0  0  0  0  0  0  0  0  0
   10.4776   -1.3412   21.8515 H   0  0  0  0  0  0  0  0  0  0  0  0
    8.7660   -0.7200   20.8764 N   0  0  0  0  0  0  0  0  0  0  0  0
    7.4326   -0.7176   20.9340 C   0  0  0  0  0  0  0  0  0  0  0  0
    6.6869    0.0164   19.8978 C   0  0  0  0  0  0  0  0  0  0  0  0
    7.2020    0.0614   18.5973 C   0  0  0  0  0  0  0  0  0  0  0  0
    8.1520   -0.4218   18.3728 H   0  0  0  0  0  0  0  0  0  0  0  0
    6.5861    0.6632   17.5773 N   0  0  0  0  0  0  0  0  0  0  0  0
    5.4244    1.2861   17.8312 C   0  0  0  0  0  0  0  0  0  0  0  0
    4.9529    1.7837   16.9873 H   0  0  0  0  0  0  0  0  0  0  0  0
    4.8261    1.3104   19.0945 C   0  0  0  0  0  0  0  0  0  0  0  0
    3.8858    1.8325   19.2359 H   0  0  0  0  0  0  0  0  0  0  0  0
    5.4623    0.6612   20.1472 C   0  0  0  0  0  0  0  0  0  0  0  0
    5.0262    0.6788   21.1483 H   0  0  0  0  0  0  0  0  0  0  0  0
    6.7465   -1.3989   21.9308 C   0  0  0  0  0  0  0  0  0  0  0  0
    5.6756   -1.4774   21.8952 H   0  0  0  0  0  0  0  0  0  0  0  0
  1  2  1  0
  2  3  1  0
  3  4  1  0
  3  5  1  0
  5  6  2  0
  5  7  1  0
  7  8  1  0
  7  9  1  0
  7 10  1  0
 10 11  1  0
 10 12  1  0
 10 13  1  0
 13 14  1  0
 13 15  1  0
 13 16  1  0
 16 17  1  0
 16 18  1  0
 16 19  1  0
 19 20  2  0
 20 21  1  0
 21 22  1  0
 21 23  2  0
 23 24  1  0
 24 25  1  0
 25 26  2  0
 26 27  1  0
 26 28  1  0
 28 29  2  0
 29 30  1  0
 29 31  1  0
 31 32  1  0
 31 33  2  0
 33 34  1  0
 24 35  2  0
 35 36  1  0
 35 19  1  0
 33 25  1  0
M  END
>  <cnnaffinity>  (1) 
-5.32911

>  <filename>  (1) 
O=C(CCCCc1cc(-c2cccnc2)ncn1)NO

$$$$
