
     RDKit          3D

 37 39  0  0  0  0  0  0  0  0999 V2000
    4.9836    1.7627   17.0562 H   0  0  0  0  0  0  0  0  0  0  0  0
    5.4527    1.2496   17.8891 C   0  0  0  0  0  0  0  0  0  0  0  0
    6.6162    0.6261   17.6246 N   0  0  0  0  0  0  0  0  0  0  0  0
    7.2280    0.0004   18.6391 C   0  0  0  0  0  0  0  0  0  0  0  0
    8.1815   -0.4821   18.4061 H   0  0  0  0  0  0  0  0  0  0  0  0
    6.7175   -0.0562   19.9694 C   0  0  0  0  0  0  0  0  0  0  0  0
    7.3642   -0.7055   20.9902 N   0  0  0  0  0  0  0  0  0  0  0  0
    8.6151   -1.4305   21.0403 C   0  0  0  0  0  0  0  0  0  0  0  0
    8.6331   -2.3182   20.4058 H   0  0  0  0  0  0  0  0  0  0  0  0
    9.4965   -0.8078   20.8336 H   0  0  0  0  0  0  0  0  0  0  0  0
    8.3167   -1.7161   22.5325 C   0  0  0  0  0  0  0  0  0  0  0  0
    9.0631   -1.3094   23.2198 H   0  0  0  0  0  0  0  0  0  0  0  0
    8.1078   -3.1893   22.8221 C   0  0  0  0  0  0  0  0  0  0  0  0
    8.6046   -4.0563   22.1232 O   0  0  0  0  0  0  0  0  0  0  0  0
    7.2796   -3.4924   23.8790 N   0  0  0  0  0  0  0  0  0  0  0  0
    6.7708   -4.8692   23.9729 C   0  0  0  0  0  0  0  0  0  0  0  0
    6.8355   -5.3272   22.9812 H   0  0  0  0  0  0  0  0  0  0  0  0
    7.4174   -5.4581   24.6445 H   0  0  0  0  0  0  0  0  0  0  0  0
    5.3287   -4.8635   24.4764 C   0  0  0  0  0  0  0  0  0  0  0  0
    4.9637   -5.8965   24.5503 H   0  0  0  0  0  0  0  0  0  0  0  0
    4.7034   -4.3535   23.7307 H   0  0  0  0  0  0  0  0  0  0  0  0
    5.2092   -4.1220   25.8156 C   0  0  0  0  0  0  0  0  0  0  0  0
    4.1618   -4.0755   26.1374 H   0  0  0  0  0  0  0  0  0  0  0  0
    5.7454   -4.6817   26.5966 H   0  0  0  0  0  0  0  0  0  0  0  0
    5.7961   -2.7077   25.6914 C   0  0  0  0  0  0  0  0  0  0  0  0
    5.1744   -2.1202   25.0029 H   0  0  0  0  0  0  0  0  0  0  0  0
    5.7834   -2.1827   26.6556 H   0  0  0  0  0  0  0  0  0  0  0  0
    7.2264   -2.7497   25.1468 C   0  0  0  0  0  0  0  0  0  0  0  0
    7.6200   -1.7375   25.0172 H   0  0  0  0  0  0  0  0  0  0  0  0
    7.8774   -3.2450   25.8882 H   0  0  0  0  0  0  0  0  0  0  0  0
    7.0178   -0.8722   22.3868 C   0  0  0  0  0  0  0  0  0  0  0  0
    6.9972    0.0673   22.9623 H   0  0  0  0  0  0  0  0  0  0  0  0
    6.0725   -1.4105   22.5342 H   0  0  0  0  0  0  0  0  0  0  0  0
    5.4917    0.6003   20.2109 C   0  0  0  0  0  0  0  0  0  0  0  0
    5.0648    0.5981   21.2142 H   0  0  0  0  0  0  0  0  0  0  0  0
    4.8569    1.2576   19.1563 C   0  0  0  0  0  0  0  0  0  0  0  0
    3.9193    1.7883   19.3123 H   0  0  0  0  0  0  0  0  0  0  0  0
  1  2  1  0
  2  3  2  0
  3  4  1  0
  4  5  1  0
  4  6  2  0
  6  7  1  0
  7  8  1  0
  8  9  1  0
  8 10  1  0
  8 11  1  0
 11 12  1  0
 11 13  1  0
 13 14  2  0
 13 15  1  0
 15 16  1  0
 16 17  1  0
 16 18  1  0
 16 19  1  0
 19 20  1  0
 19 21  1  0
 19 22  1  0
 22 23  1  0
 22 24  1  0
 22 25  1  0
 25 26  1  0
 25 27  1  0
 25 28  1  0
 28 29  1  0
 28 30  1  0
 11 31  1  0
 31 32  1  0
 31 33  1  0
  6 34  1  0
 34 35  1  0
 34 36  2  0
 36 37  1  0
 36  2  1  0
 31  7  1  0
 28 15  1  0
M  END
>  <cnnaffinity>  (1) 
-4.95824

>  <filename>  (1) 
O=C(C1CN(c2cccnc2)C1)N1CCCCC1

$$$$
