
     RDKit          3D

 45 48  0  0  0  0  0  0  0  0999 V2000
    4.9459    1.8381   16.9759 H   0  0  0  0  0  0  0  0  0  0  0  0
    5.3995    1.3044   17.8070 C   0  0  0  0  0  0  0  0  0  0  0  0
    6.5523    0.6669   17.5472 N   0  0  0  0  0  0  0  0  0  0  0  0
    7.1476    0.0270   18.5595 C   0  0  0  0  0  0  0  0  0  0  0  0
    8.0967   -0.4576   18.3274 H   0  0  0  0  0  0  0  0  0  0  0  0
    6.6237   -0.0246   19.8650 C   0  0  0  0  0  0  0  0  0  0  0  0
    7.3600   -0.6884   20.9503 C   0  0  0  0  0  0  0  0  0  0  0  0
    8.1306   -1.7602   20.7613 N   0  0  0  0  0  0  0  0  0  0  0  0
    8.6013   -2.0215   21.9778 N   0  0  0  0  0  0  0  0  0  0  0  0
    8.2268   -1.1791   22.9487 C   0  0  0  0  0  0  0  0  0  0  0  0
    7.4141   -0.2672   22.3240 C   0  0  0  0  0  0  0  0  0  0  0  0
    6.9316    0.9296   22.8728 N   0  0  0  0  0  0  0  0  0  0  0  0
    6.6813    0.9160   23.8469 H   0  0  0  0  0  0  0  0  0  0  0  0
    7.2491    2.1618   22.3343 C   0  0  0  0  0  0  0  0  0  0  0  0
    7.9857    2.2879   21.3749 O   0  0  0  0  0  0  0  0  0  0  0  0
    6.5656    3.3404   22.9969 C   0  0  0  0  0  0  0  0  0  0  0  0
    5.9535    2.9565   23.8240 H   0  0  0  0  0  0  0  0  0  0  0  0
    5.6396    4.0216   21.9634 C   0  0  0  0  0  0  0  0  0  0  0  0
    6.2514    4.2848   21.0887 H   0  0  0  0  0  0  0  0  0  0  0  0
    4.8779    3.3135   21.6055 H   0  0  0  0  0  0  0  0  0  0  0  0
    4.9854    5.2794   22.5386 C   0  0  0  0  0  0  0  0  0  0  0  0
    4.3801    5.7694   21.7671 H   0  0  0  0  0  0  0  0  0  0  0  0
    4.2926    4.9951   23.3431 H   0  0  0  0  0  0  0  0  0  0  0  0
    6.0335    6.2538   23.0960 C   0  0  0  0  0  0  0  0  0  0  0  0
    6.6479    6.6283   22.2644 H   0  0  0  0  0  0  0  0  0  0  0  0
    5.5432    7.1290   23.5366 H   0  0  0  0  0  0  0  0  0  0  0  0
    6.9493    5.5798   24.1270 C   0  0  0  0  0  0  0  0  0  0  0  0
    7.7163    6.2794   24.4765 H   0  0  0  0  0  0  0  0  0  0  0  0
    6.3570    5.3050   25.0113 H   0  0  0  0  0  0  0  0  0  0  0  0
    7.6140    4.3257   23.5543 C   0  0  0  0  0  0  0  0  0  0  0  0
    8.2903    4.5968   22.7314 H   0  0  0  0  0  0  0  0  0  0  0  0
    8.2292    3.8350   24.3191 H   0  0  0  0  0  0  0  0  0  0  0  0
    9.0266   -1.4200   24.1933 C   0  0  0  0  0  0  0  0  0  0  0  0
    9.5935   -0.5238   24.4719 H   0  0  0  0  0  0  0  0  0  0  0  0
    8.3914   -1.6511   25.0488 H   0  0  0  0  0  0  0  0  0  0  0  0
    9.9392   -2.6144   23.7883 C   0  0  0  0  0  0  0  0  0  0  0  0
   10.9774   -2.3228   23.8582 H   0  0  0  0  0  0  0  0  0  0  0  0
    9.7837   -3.4808   24.4278 H   0  0  0  0  0  0  0  0  0  0  0  0
    9.6148   -2.9733   22.3173 C   0  0  0  0  0  0  0  0  0  0  0  0
    9.2094   -3.9772   22.1886 H   0  0  0  0  0  0  0  0  0  0  0  0
   10.4711   -2.8392   21.6516 H   0  0  0  0  0  0  0  0  0  0  0  0
    5.4055    0.6294   20.1073 C   0  0  0  0  0  0  0  0  0  0  0  0
    4.9862    0.6252   21.1144 H   0  0  0  0  0  0  0  0  0  0  0  0
    4.7829    1.3056   19.0639 C   0  0  0  0  0  0  0  0  0  0  0  0
    3.8618    1.8587   19.2160 H   0  0  0  0  0  0  0  0  0  0  0  0
  1  2  1  0
  2  3  2  0
  3  4  1  0
  4  5  1  0
  4  6  2  0
  6  7  1  0
  7  8  2  0
  8  9  1  0
  9 10  1  0
 10 11  2  0
 11 12  1  0
 12 13  1  0
 12 14  1  0
 14 15  2  0
 14 16  1  0
 16 17  1  0
 16 18  1  0
 18 19  1  0
 18 20  1  0
 18 21  1  0
 21 22  1  0
 21 23  1  0
 21 24  1  0
 24 25  1  0
 24 26  1  0
 24 27  1  0
 27 28  1  0
 27 29  1  0
 27 30  1  0
 30 31  1  0
 30 32  1  0
 10 33  1  0
 33 34  1  0
 33 35  1  0
 33 36  1  0
 36 37  1  0
 36 38  1  0
 36 39  1  0
 39 40  1  0
 39 41  1  0
  6 42  1  0
 42 43  1  0
 42 44  2  0
 44 45  1  0
 44  2  1  0
 11  7  1  0
 30 16  1  0
 39  9  1  0
M  END
>  <cnnaffinity>  (1) 
-5.80776

>  <filename>  (1) 
O=C(Nc1c(-c2cccnc2)nn2c1CCC2)C1CCCCC1

$$$$
