
     RDKit          3D

 28 30  0  0  0  0  0  0  0  0999 V2000
    4.9341    1.7959   16.9991 H   0  0  0  0  0  0  0  0  0  0  0  0
    5.3993    1.2880   17.8389 C   0  0  0  0  0  0  0  0  0  0  0  0
    6.5548    0.6588   17.5734 N   0  0  0  0  0  0  0  0  0  0  0  0
    7.1743    0.0395   18.5856 C   0  0  0  0  0  0  0  0  0  0  0  0
    8.1275   -0.4338   18.3561 H   0  0  0  0  0  0  0  0  0  0  0  0
    6.6563   -0.0067   19.8985 C   0  0  0  0  0  0  0  0  0  0  0  0
    7.3388   -0.6893   20.9601 N   0  0  0  0  0  0  0  0  0  0  0  0
    6.7465   -1.5920   21.8235 C   0  0  0  0  0  0  0  0  0  0  0  0
    5.6951   -1.8272   21.7547 H   0  0  0  0  0  0  0  0  0  0  0  0
    7.6918   -2.0519   22.6835 C   0  0  0  0  0  0  0  0  0  0  0  0
    7.4564   -2.9987   23.8072 C   0  0  0  0  0  0  0  0  0  0  0  0
    6.3120   -3.2593   24.1517 O   0  0  0  0  0  0  0  0  0  0  0  0
    8.5829   -3.6469   24.5268 C   0  0  0  0  0  0  0  0  0  0  0  0
    9.8775   -3.5727   24.0872 O   0  0  0  0  0  0  0  0  0  0  0  0
   10.6256   -4.3166   24.9409 C   0  0  0  0  0  0  0  0  0  0  0  0
   11.6763   -4.3873   24.7006 H   0  0  0  0  0  0  0  0  0  0  0  0
    9.8518   -4.8491   25.9238 C   0  0  0  0  0  0  0  0  0  0  0  0
   10.1818   -5.4841   26.7394 H   0  0  0  0  0  0  0  0  0  0  0  0
    8.5209   -4.4137   25.6536 C   0  0  0  0  0  0  0  0  0  0  0  0
    7.6009   -4.6103   26.1928 H   0  0  0  0  0  0  0  0  0  0  0  0
    8.8692   -1.3996   22.3223 N   0  0  0  0  0  0  0  0  0  0  0  0
    9.8068   -1.4216   22.7027 H   0  0  0  0  0  0  0  0  0  0  0  0
    8.6670   -0.5174   21.3140 C   0  0  0  0  0  0  0  0  0  0  0  0
    9.8052    0.5482   20.7680 S   0  0  0  0  0  0  0  0  0  0  0  0
    5.4447    0.6409   20.1582 C   0  0  0  0  0  0  0  0  0  0  0  0
    5.0406    0.6321   21.1721 H   0  0  0  0  0  0  0  0  0  0  0  0
    4.8080    1.3072   19.1070 C   0  0  0  0  0  0  0  0  0  0  0  0
    3.8782    1.8432   19.2597 H   0  0  0  0  0  0  0  0  0  0  0  0
  1  2  1  0
  2  3  2  0
  3  4  1  0
  4  5  1  0
  4  6  2  0
  6  7  1  0
  7  8  1  0
  8  9  1  0
  8 10  2  0
 10 11  1  0
 11 12  2  0
 11 13  1  0
 13 14  1  0
 14 15  1  0
 15 16  1  0
 15 17  2  0
 17 18  1  0
 17 19  1  0
 19 20  1  0
 10 21  1  0
 21 22  1  0
 21 23  1  0
 23 24  2  0
  6 25  1  0
 25 26  1  0
 25 27  2  0
 27 28  1  0
 27  2  1  0
 23  7  1  0
 19 13  2  0
M  END
>  <cnnaffinity>  (1) 
-4.867

>  <filename>  (1) 
O=C(c1cn(-c2cccnc2)c(=S)[nH]1)c1ccco1

$$$$
