
     RDKit          3D

 35 36  0  0  0  0  0  0  0  0999 V2000
   11.9042   -2.1111   22.1274 H   0  0  0  0  0  0  0  0  0  0  0  0
   12.0360   -1.6825   21.2654 O   0  0  0  0  0  0  0  0  0  0  0  0
   11.0950   -0.6643   21.1938 N   0  0  0  0  0  0  0  0  0  0  0  0
   10.5434   -0.7401   20.3501 H   0  0  0  0  0  0  0  0  0  0  0  0
   11.2917    0.6130   21.6760 C   0  0  0  0  0  0  0  0  0  0  0  0
   12.1147    0.9252   22.5125 O   0  0  0  0  0  0  0  0  0  0  0  0
   10.3279    1.6063   21.0518 C   0  0  0  0  0  0  0  0  0  0  0  0
    9.5718    1.0871   20.4577 H   0  0  0  0  0  0  0  0  0  0  0  0
   10.9385    2.2257   20.3818 H   0  0  0  0  0  0  0  0  0  0  0  0
    9.6469    2.5343   22.0611 C   0  0  0  0  0  0  0  0  0  0  0  0
    8.9848    3.2265   21.5212 H   0  0  0  0  0  0  0  0  0  0  0  0
   10.4133    3.1601   22.5314 H   0  0  0  0  0  0  0  0  0  0  0  0
    8.8408    1.8470   23.1672 C   0  0  0  0  0  0  0  0  0  0  0  0
    9.4755    1.1273   23.7089 H   0  0  0  0  0  0  0  0  0  0  0  0
    8.5676    2.6303   23.8820 H   0  0  0  0  0  0  0  0  0  0  0  0
    7.5272    1.1625   22.7297 C   0  0  0  0  0  0  0  0  0  0  0  0
    6.8739    1.0970   23.6099 H   0  0  0  0  0  0  0  0  0  0  0  0
    7.0028    1.8079   22.0125 H   0  0  0  0  0  0  0  0  0  0  0  0
    7.6728   -0.2415   22.2097 C   0  0  0  0  0  0  0  0  0  0  0  0
    8.2141   -1.3441   22.8469 C   0  0  0  0  0  0  0  0  0  0  0  0
    8.6043   -1.4037   23.8585 H   0  0  0  0  0  0  0  0  0  0  0  0
    8.2200   -2.3591   21.8735 C   0  0  0  0  0  0  0  0  0  0  0  0
    8.6126   -3.3674   21.9410 H   0  0  0  0  0  0  0  0  0  0  0  0
    7.7173   -1.9429   20.7240 N   0  0  0  0  0  0  0  0  0  0  0  0
    7.3395   -0.6685   20.9469 N   0  0  0  0  0  0  0  0  0  0  0  0
    6.6322    0.0072   19.9182 C   0  0  0  0  0  0  0  0  0  0  0  0
    7.1420   -0.0225   18.6115 C   0  0  0  0  0  0  0  0  0  0  0  0
    8.0294   -0.6072   18.3888 H   0  0  0  0  0  0  0  0  0  0  0  0
    6.5856    0.6242   17.5823 N   0  0  0  0  0  0  0  0  0  0  0  0
    5.4449    1.2952   17.8165 C   0  0  0  0  0  0  0  0  0  0  0  0
    5.0089    1.8172   16.9661 H   0  0  0  0  0  0  0  0  0  0  0  0
    4.8192    1.3176   19.0672 C   0  0  0  0  0  0  0  0  0  0  0  0
    3.8777    1.8387   19.1864 H   0  0  0  0  0  0  0  0  0  0  0  0
    5.4178    0.6644   20.1504 C   0  0  0  0  0  0  0  0  0  0  0  0
    4.9524    0.6456   21.1383 H   0  0  0  0  0  0  0  0  0  0  0  0
  1  2  1  0
  2  3  1  0
  3  4  1  0
  3  5  1  0
  5  6  2  0
  5  7  1  0
  7  8  1  0
  7  9  1  0
  7 10  1  0
 10 11  1  0
 10 12  1  0
 10 13  1  0
 13 14  1  0
 13 15  1  0
 13 16  1  0
 16 17  1  0
 16 18  1  0
 16 19  1  0
 19 20  2  0
 20 21  1  0
 20 22  1  0
 22 23  1  0
 22 24  2  0
 24 25  1  0
 25 26  1  0
 26 27  2  0
 27 28  1  0
 27 29  1  0
 29 30  2  0
 30 31  1  0
 30 32  1  0
 32 33  1  0
 32 34  2  0
 34 35  1  0
 25 19  1  0
 34 26  1  0
M  END
>  <cnnaffinity>  (1) 
-5.08769

>  <filename>  (1) 
O=C(CCCCc1ccnn1-c1cccnc1)NO

$$$$
