
     RDKit          3D

 33 35  0  0  0  0  0  0  0  0999 V2000
    9.1524   -2.9133   22.0588 H   0  0  0  0  0  0  0  0  0  0  0  0
    8.5572   -2.0085   21.9802 C   0  0  0  0  0  0  0  0  0  0  0  0
    8.2331   -1.2261   22.9472 N   0  0  0  0  0  0  0  0  0  0  0  0
    7.4425   -0.2833   22.3476 C   0  0  0  0  0  0  0  0  0  0  0  0
    6.9098    0.7733   23.0743 N   0  0  0  0  0  0  0  0  0  0  0  0
    7.0481    1.6776   22.6593 H   0  0  0  0  0  0  0  0  0  0  0  0
    7.0589    0.8111   24.4588 C   0  0  0  0  0  0  0  0  0  0  0  0
    7.2837   -0.1189   25.1809 O   0  0  0  0  0  0  0  0  0  0  0  0
    6.8930    2.1194   24.8702 N   0  0  0  0  0  0  0  0  0  0  0  0
    6.2714    2.6312   24.2728 H   0  0  0  0  0  0  0  0  0  0  0  0
    6.8749    2.5021   26.2208 C   0  0  0  0  0  0  0  0  0  0  0  0
    5.9764    3.4942   26.6259 C   0  0  0  0  0  0  0  0  0  0  0  0
    5.3001    3.9476   25.9032 H   0  0  0  0  0  0  0  0  0  0  0  0
    5.9552    3.9038   27.9611 C   0  0  0  0  0  0  0  0  0  0  0  0
    5.2723    4.6768   28.2958 H   0  0  0  0  0  0  0  0  0  0  0  0
    6.8387    3.3193   28.8728 C   0  0  0  0  0  0  0  0  0  0  0  0
    6.8211    3.8338   30.5298 Cl  0  0  0  0  0  0  0  0  0  0  0  0
    7.7365    2.3262   28.4719 C   0  0  0  0  0  0  0  0  0  0  0  0
    8.4227    1.8822   29.1875 H   0  0  0  0  0  0  0  0  0  0  0  0
    7.7632    1.9214   27.1392 C   0  0  0  0  0  0  0  0  0  0  0  0
    8.4377    1.1408   26.8028 H   0  0  0  0  0  0  0  0  0  0  0  0
    7.3041   -0.5613   21.0047 C   0  0  0  0  0  0  0  0  0  0  0  0
    6.5929    0.0658   19.9000 C   0  0  0  0  0  0  0  0  0  0  0  0
    7.1334    0.0329   18.5972 C   0  0  0  0  0  0  0  0  0  0  0  0
    8.0576   -0.5104   18.4109 H   0  0  0  0  0  0  0  0  0  0  0  0
    6.5779    0.6467   17.5492 N   0  0  0  0  0  0  0  0  0  0  0  0
    5.4248    1.3007   17.7632 C   0  0  0  0  0  0  0  0  0  0  0  0
    4.9911    1.7877   16.8950 H   0  0  0  0  0  0  0  0  0  0  0  0
    4.7766    1.3582   19.0014 C   0  0  0  0  0  0  0  0  0  0  0  0
    3.8327    1.8852   19.0852 H   0  0  0  0  0  0  0  0  0  0  0  0
    5.3757    0.7414   20.0990 C   0  0  0  0  0  0  0  0  0  0  0  0
    4.9048    0.7560   21.0852 H   0  0  0  0  0  0  0  0  0  0  0  0
    8.0733   -1.6794   20.7720 O   0  0  0  0  0  0  0  0  0  0  0  0
  1  2  1  0
  2  3  2  0
  3  4  1  0
  4  5  1  0
  5  6  1  0
  5  7  1  0
  7  8  2  0
  7  9  1  0
  9 10  1  0
  9 11  1  0
 11 12  2  0
 12 13  1  0
 12 14  1  0
 14 15  1  0
 14 16  2  0
 16 17  1  0
 16 18  1  0
 18 19  1  0
 18 20  2  0
 20 21  1  0
  4 22  2  0
 22 23  1  0
 23 24  2  0
 24 25  1  0
 24 26  1  0
 26 27  2  0
 27 28  1  0
 27 29  1  0
 29 30  1  0
 29 31  2  0
 31 32  1  0
 22 33  1  0
 33  2  1  0
 20 11  1  0
 31 23  1  0
M  END
>  <cnnaffinity>  (1) 
-4.84976

>  <filename>  (1) 
O=C(Nc1ccc(Cl)cc1)Nc1ncoc1-c1cccnc1

$$$$
