
     RDKit          3D

 31 33  0  0  0  0  0  0  0  0999 V2000
    5.0763    1.7380   17.0404 H   0  0  0  0  0  0  0  0  0  0  0  0
    5.5275    1.2334   17.8952 C   0  0  0  0  0  0  0  0  0  0  0  0
    6.6939    0.6077   17.6703 N   0  0  0  0  0  0  0  0  0  0  0  0
    7.2735   -0.0032   18.7050 C   0  0  0  0  0  0  0  0  0  0  0  0
    8.2103   -0.5212   18.4971 H   0  0  0  0  0  0  0  0  0  0  0  0
    6.7264   -0.0294   19.9882 C   0  0  0  0  0  0  0  0  0  0  0  0
    7.4022   -0.7393   21.0768 C   0  0  0  0  0  0  0  0  0  0  0  0
    6.8684   -1.1276   22.0919 O   0  0  0  0  0  0  0  0  0  0  0  0
    8.7401   -0.9121   20.8641 N   0  0  0  0  0  0  0  0  0  0  0  0
    9.3430   -0.3012   20.3490 H   0  0  0  0  0  0  0  0  0  0  0  0
    9.5660   -1.7628   21.9773 S   0  0  0  0  0  0  0  0  0  0  0  0
    8.9896   -3.0848   22.0339 O   0  0  0  0  0  0  0  0  0  0  0  0
   10.9286   -1.5101   21.5541 O   0  0  0  0  0  0  0  0  0  0  0  0
    9.2321   -0.9487   23.5036 C   0  0  0  0  0  0  0  0  0  0  0  0
    9.2054    0.4764   23.6477 C   0  0  0  0  0  0  0  0  0  0  0  0
    9.2861    1.1516   22.7990 H   0  0  0  0  0  0  0  0  0  0  0  0
    9.0499    1.0558   24.8946 C   0  0  0  0  0  0  0  0  0  0  0  0
    9.0283    2.1325   25.0315 H   0  0  0  0  0  0  0  0  0  0  0  0
    8.9264    0.1945   26.0009 C   0  0  0  0  0  0  0  0  0  0  0  0
    8.9344   -1.2092   25.8568 C   0  0  0  0  0  0  0  0  0  0  0  0
    8.8326   -1.6949   27.1888 C   0  0  0  0  0  0  0  0  0  0  0  0
    8.8044   -2.7284   27.5129 H   0  0  0  0  0  0  0  0  0  0  0  0
    8.7787   -0.7111   28.0571 N   0  0  0  0  0  0  0  0  0  0  0  0
    8.8020    0.4242   27.3337 N   0  0  0  0  0  0  0  0  0  0  0  0
    8.9101    1.3125   27.8066 H   0  0  0  0  0  0  0  0  0  0  0  0
    9.0859   -1.7992   24.5860 C   0  0  0  0  0  0  0  0  0  0  0  0
    9.1032   -2.8838   24.4709 H   0  0  0  0  0  0  0  0  0  0  0  0
    5.5026    0.6107   20.2158 C   0  0  0  0  0  0  0  0  0  0  0  0
    5.0699    0.5852   21.2177 H   0  0  0  0  0  0  0  0  0  0  0  0
    4.8944    1.2589   19.1464 C   0  0  0  0  0  0  0  0  0  0  0  0
    3.9562    1.7896   19.2739 H   0  0  0  0  0  0  0  0  0  0  0  0
  1  2  1  0
  2  3  2  0
  3  4  1  0
  4  5  1  0
  4  6  2  0
  6  7  1  0
  7  8  2  0
  7  9  1  0
  9 10  1  0
  9 11  1  0
 11 12  2  0
 11 13  2  0
 11 14  1  0
 14 15  2  0
 15 16  1  0
 15 17  1  0
 17 18  1  0
 17 19  2  0
 19 20  1  0
 20 21  1  0
 21 22  1  0
 21 23  2  0
 23 24  1  0
 24 25  1  0
 20 26  2  0
 26 27  1  0
  6 28  1  0
 28 29  1  0
 28 30  2  0
 30 31  1  0
 30  2  1  0
 26 14  1  0
 24 19  1  0
M  END
>  <cnnaffinity>  (1) 
-5.37364

>  <filename>  (1) 
O=C(NS(=O)(=O)c1ccc2[nH]ncc2c1)c1cccnc1

$$$$
