
     RDKit          3D

 39 41  0  0  0  0  0  0  0  0999 V2000
    4.9190    1.7809   16.9979 H   0  0  0  0  0  0  0  0  0  0  0  0
    5.4016    1.2920   17.8441 C   0  0  0  0  0  0  0  0  0  0  0  0
    6.5696    0.6764   17.5860 N   0  0  0  0  0  0  0  0  0  0  0  0
    7.1757    0.0470   18.5942 C   0  0  0  0  0  0  0  0  0  0  0  0
    8.1246   -0.4400   18.3820 H   0  0  0  0  0  0  0  0  0  0  0  0
    6.6507    0.0023   19.8969 C   0  0  0  0  0  0  0  0  0  0  0  0
    7.3641   -0.6783   20.9301 N   0  0  0  0  0  0  0  0  0  0  0  0
    7.8444   -1.9341   20.7719 N   0  0  0  0  0  0  0  0  0  0  0  0
    8.4044   -2.2587   21.8761 N   0  0  0  0  0  0  0  0  0  0  0  0
    8.3200   -1.2537   22.7823 N   0  0  0  0  0  0  0  0  0  0  0  0
    7.6795   -0.2835   22.1907 C   0  0  0  0  0  0  0  0  0  0  0  0
    7.4706    1.0490   22.8048 C   0  0  0  0  0  0  0  0  0  0  0  0
    7.0961    1.7556   22.0656 H   0  0  0  0  0  0  0  0  0  0  0  0
    8.4272    1.4152   23.1811 H   0  0  0  0  0  0  0  0  0  0  0  0
    6.4332    0.9530   23.9107 C   0  0  0  0  0  0  0  0  0  0  0  0
    5.2755    1.2768   23.7038 O   0  0  0  0  0  0  0  0  0  0  0  0
    6.8471    0.4726   25.1033 N   0  0  0  0  0  0  0  0  0  0  0  0
    7.7932    0.1471   25.1735 H   0  0  0  0  0  0  0  0  0  0  0  0
    5.9514    0.3698   26.2522 C   0  0  0  0  0  0  0  0  0  0  0  0
    5.0185   -0.1081   25.9389 H   0  0  0  0  0  0  0  0  0  0  0  0
    6.3983   -0.2875   27.0004 H   0  0  0  0  0  0  0  0  0  0  0  0
    5.6462    1.7300   26.8932 C   0  0  0  0  0  0  0  0  0  0  0  0
    5.2184    2.3782   26.1224 H   0  0  0  0  0  0  0  0  0  0  0  0
    6.5909    2.1877   27.2053 H   0  0  0  0  0  0  0  0  0  0  0  0
    4.7070    1.6123   28.0707 C   0  0  0  0  0  0  0  0  0  0  0  0
    3.3158    1.6377   27.8773 C   0  0  0  0  0  0  0  0  0  0  0  0
    2.9217    1.7736   26.8705 H   0  0  0  0  0  0  0  0  0  0  0  0
    2.4414    1.4849   28.9576 C   0  0  0  0  0  0  0  0  0  0  0  0
    1.3666    1.5150   28.7914 H   0  0  0  0  0  0  0  0  0  0  0  0
    2.9505    1.2963   30.2480 C   0  0  0  0  0  0  0  0  0  0  0  0
    2.2729    1.1814   31.0897 H   0  0  0  0  0  0  0  0  0  0  0  0
    4.3352    1.2511   30.4512 C   0  0  0  0  0  0  0  0  0  0  0  0
    4.7384    1.0982   31.4502 H   0  0  0  0  0  0  0  0  0  0  0  0
    5.2050    1.4038   29.3667 C   0  0  0  0  0  0  0  0  0  0  0  0
    6.2822    1.3586   29.5228 H   0  0  0  0  0  0  0  0  0  0  0  0
    5.4392    0.6471   20.1726 C   0  0  0  0  0  0  0  0  0  0  0  0
    5.0155    0.6377   21.1829 H   0  0  0  0  0  0  0  0  0  0  0  0
    4.8057    1.3045   19.1090 C   0  0  0  0  0  0  0  0  0  0  0  0
    3.8764    1.8405   19.2625 H   0  0  0  0  0  0  0  0  0  0  0  0
  1  2  1  0
  2  3  2  0
  3  4  1  0
  4  5  1  0
  4  6  2  0
  6  7  1  0
  7  8  1  0
  8  9  2  0
  9 10  1  0
 10 11  2  0
 11 12  1  0
 12 13  1  0
 12 14  1  0
 12 15  1  0
 15 16  2  0
 15 17  1  0
 17 18  1  0
 17 19  1  0
 19 20  1  0
 19 21  1  0
 19 22  1  0
 22 23  1  0
 22 24  1  0
 22 25  1  0
 25 26  2  0
 26 27  1  0
 26 28  1  0
 28 29  1  0
 28 30  2  0
 30 31  1  0
 30 32  1  0
 32 33  1  0
 32 34  2  0
 34 35  1  0
  6 36  1  0
 36 37  1  0
 36 38  2  0
 38 39  1  0
 38  2  1  0
 11  7  1  0
 34 25  1  0
M  END
>  <cnnaffinity>  (1) 
-5.10376

>  <filename>  (1) 
O=C(Cc1nnnn1-c1cccnc1)NCCc1ccccc1

$$$$
