
     RDKit          3D

 35 37  0  0  0  0  0  0  0  0999 V2000
   12.6349    4.7203   22.8074 H   0  0  0  0  0  0  0  0  0  0  0  0
   12.0590    3.9460   22.6969 O   0  0  0  0  0  0  0  0  0  0  0  0
   13.0618    3.0521   22.6021 C   0  0  0  0  0  0  0  0  0  0  0  0
   14.1862    3.4842   22.7182 O   0  0  0  0  0  0  0  0  0  0  0  0
   12.6500    1.6429   22.3405 C   0  0  0  0  0  0  0  0  0  0  0  0
   13.5201    0.5556   22.5712 C   0  0  0  0  0  0  0  0  0  0  0  0
   14.5081    0.7205   22.9933 H   0  0  0  0  0  0  0  0  0  0  0  0
   13.1197   -0.7421   22.2394 C   0  0  0  0  0  0  0  0  0  0  0  0
   13.7647   -1.5889   22.4486 H   0  0  0  0  0  0  0  0  0  0  0  0
   11.8659   -0.9674   21.6572 C   0  0  0  0  0  0  0  0  0  0  0  0
   11.6061   -1.9518   21.2797 H   0  0  0  0  0  0  0  0  0  0  0  0
   10.9745    0.0964   21.4521 C   0  0  0  0  0  0  0  0  0  0  0  0
    9.6008   -0.0502   20.9251 C   0  0  0  0  0  0  0  0  0  0  0  0
    9.3180    0.7512   20.2376 H   0  0  0  0  0  0  0  0  0  0  0  0
    8.6679   -0.9338   21.3179 C   0  0  0  0  0  0  0  0  0  0  0  0
    7.2098   -0.9087   21.0040 C   0  0  0  0  0  0  0  0  0  0  0  0
    6.6069   -0.0991   19.9234 C   0  0  0  0  0  0  0  0  0  0  0  0
    7.2263   -0.0461   18.6700 C   0  0  0  0  0  0  0  0  0  0  0  0
    8.1768   -0.5583   18.5258 H   0  0  0  0  0  0  0  0  0  0  0  0
    6.7354    0.6232   17.6200 N   0  0  0  0  0  0  0  0  0  0  0  0
    5.5867    1.2896   17.8064 C   0  0  0  0  0  0  0  0  0  0  0  0
    5.2065    1.8324   16.9442 H   0  0  0  0  0  0  0  0  0  0  0  0
    4.8777    1.2934   19.0152 C   0  0  0  0  0  0  0  0  0  0  0  0
    3.9578    1.8645   19.0935 H   0  0  0  0  0  0  0  0  0  0  0  0
    5.3863    0.5714   20.0941 C   0  0  0  0  0  0  0  0  0  0  0  0
    4.8560    0.5236   21.0491 H   0  0  0  0  0  0  0  0  0  0  0  0
    6.4992   -1.6529   21.7629 N   0  0  0  0  0  0  0  0  0  0  0  0
    7.3600   -2.2753   22.7733 C   0  0  0  0  0  0  0  0  0  0  0  0
    7.1322   -1.8055   23.7384 H   0  0  0  0  0  0  0  0  0  0  0  0
    7.1191   -3.3377   22.8452 H   0  0  0  0  0  0  0  0  0  0  0  0
    8.8348   -2.0143   22.3659 C   0  0  0  0  0  0  0  0  0  0  0  0
    9.4699   -1.6747   23.1894 H   0  0  0  0  0  0  0  0  0  0  0  0
    9.2964   -2.9172   21.9476 H   0  0  0  0  0  0  0  0  0  0  0  0
   11.3866    1.3963   21.7861 C   0  0  0  0  0  0  0  0  0  0  0  0
   10.6953    2.2237   21.6429 H   0  0  0  0  0  0  0  0  0  0  0  0
  1  2  1  0
  2  3  1  0
  3  4  2  0
  3  5  1  0
  5  6  2  0
  6  7  1  0
  6  8  1  0
  8  9  1  0
  8 10  2  0
 10 11  1  0
 10 12  1  0
 12 13  1  0
 13 14  1  0
 13 15  2  3
 15 16  1  0
 16 17  1  0
 17 18  2  0
 18 19  1  0
 18 20  1  0
 20 21  2  0
 21 22  1  0
 21 23  1  0
 23 24  1  0
 23 25  2  0
 25 26  1  0
 16 27  2  0
 27 28  1  0
 28 29  1  0
 28 30  1  0
 28 31  1  0
 31 32  1  0
 31 33  1  0
 12 34  2  0
 34 35  1  0
 34  5  1  0
 31 15  1  0
 25 17  1  0
M  END
>  <cnnaffinity>  (1) 
-5.86467

>  <filename>  (1) 
O=C(O)c1cccc(C=C2CCN=C2c2cccnc2)c1

$$$$
