
     RDKit          3D

 35 37  0  0  0  0  0  0  0  0999 V2000
    4.9185    1.7998   16.9864 H   0  0  0  0  0  0  0  0  0  0  0  0
    5.3875    1.2988   17.8296 C   0  0  0  0  0  0  0  0  0  0  0  0
    6.5433    0.6706   17.5614 N   0  0  0  0  0  0  0  0  0  0  0  0
    7.1625    0.0520   18.5736 C   0  0  0  0  0  0  0  0  0  0  0  0
    8.1200   -0.4166   18.3513 H   0  0  0  0  0  0  0  0  0  0  0  0
    6.6508    0.0027   19.8863 C   0  0  0  0  0  0  0  0  0  0  0  0
    7.3530   -0.6766   20.9465 N   0  0  0  0  0  0  0  0  0  0  0  0
    6.7169   -1.7312   21.6021 C   0  0  0  0  0  0  0  0  0  0  0  0
    5.7144   -1.9790   21.2681 H   0  0  0  0  0  0  0  0  0  0  0  0
    7.3090   -2.4380   22.5948 C   0  0  0  0  0  0  0  0  0  0  0  0
    6.6184   -3.5272   23.2099 N   0  0  0  0  0  0  0  0  0  0  0  0
    6.7754   -3.6963   24.1937 H   0  0  0  0  0  0  0  0  0  0  0  0
    5.8536   -4.4698   22.5471 C   0  0  0  0  0  0  0  0  0  0  0  0
    5.7112   -4.4454   21.3349 O   0  0  0  0  0  0  0  0  0  0  0  0
    5.1624   -5.5111   23.4082 C   0  0  0  0  0  0  0  0  0  0  0  0
    5.6596   -5.9999   24.6324 C   0  0  0  0  0  0  0  0  0  0  0  0
    6.6131   -5.6588   25.0407 H   0  0  0  0  0  0  0  0  0  0  0  0
    4.9595   -6.9889   25.3370 C   0  0  0  0  0  0  0  0  0  0  0  0
    5.3543   -7.3539   26.2845 H   0  0  0  0  0  0  0  0  0  0  0  0
    3.7591   -7.5045   24.8348 C   0  0  0  0  0  0  0  0  0  0  0  0
    3.2117   -8.2656   25.3870 H   0  0  0  0  0  0  0  0  0  0  0  0
    3.2605   -7.0312   23.6166 C   0  0  0  0  0  0  0  0  0  0  0  0
    2.3357   -7.4291   23.2037 H   0  0  0  0  0  0  0  0  0  0  0  0
    3.9581   -6.0503   22.9118 C   0  0  0  0  0  0  0  0  0  0  0  0
    3.5875   -5.7027   21.9492 H   0  0  0  0  0  0  0  0  0  0  0  0
    8.6990   -2.0478   23.0158 C   0  0  0  0  0  0  0  0  0  0  0  0
    9.4015   -2.5274   23.8805 O   0  0  0  0  0  0  0  0  0  0  0  0
    9.2194   -1.0080   22.2973 N   0  0  0  0  0  0  0  0  0  0  0  0
   10.1413   -0.7212   22.5541 H   0  0  0  0  0  0  0  0  0  0  0  0
    8.6641   -0.2791   21.3026 C   0  0  0  0  0  0  0  0  0  0  0  0
    9.2967    0.6152   20.7937 O   0  0  0  0  0  0  0  0  0  0  0  0
    5.4362    0.6413   20.1488 C   0  0  0  0  0  0  0  0  0  0  0  0
    5.0329    0.6191   21.1622 H   0  0  0  0  0  0  0  0  0  0  0  0
    4.8018    1.3151   19.1001 C   0  0  0  0  0  0  0  0  0  0  0  0
    3.8728    1.8475   19.2535 H   0  0  0  0  0  0  0  0  0  0  0  0
  1  2  1  0
  2  3  2  0
  3  4  1  0
  4  5  1  0
  4  6  2  0
  6  7  1  0
  7  8  1  0
  8  9  1  0
  8 10  2  0
 10 11  1  0
 11 12  1  0
 11 13  1  0
 13 14  2  0
 13 15  1  0
 15 16  2  0
 16 17  1  0
 16 18  1  0
 18 19  1  0
 18 20  2  0
 20 21  1  0
 20 22  1  0
 22 23  1  0
 22 24  2  0
 24 25  1  0
 10 26  1  0
 26 27  2  0
 26 28  1  0
 28 29  1  0
 28 30  1  0
 30 31  2  0
  6 32  1  0
 32 33  1  0
 32 34  2  0
 34 35  1  0
 34  2  1  0
 30  7  1  0
 24 15  1  0
M  END
>  <cnnaffinity>  (1) 
-5.42093

>  <filename>  (1) 
O=C(Nc1cn(-c2cccnc2)c(=O)[nH]c1=O)c1ccccc1

$$$$
