
     RDKit          3D

 38 40  0  0  0  0  0  0  0  0999 V2000
    4.9808    1.7296   16.9394 H   0  0  0  0  0  0  0  0  0  0  0  0
    5.4205    1.3013   17.8359 C   0  0  0  0  0  0  0  0  0  0  0  0
    6.6258    0.7383   17.6787 N   0  0  0  0  0  0  0  0  0  0  0  0
    7.1883    0.2017   18.7671 C   0  0  0  0  0  0  0  0  0  0  0  0
    8.1904   -0.1930   18.6303 H   0  0  0  0  0  0  0  0  0  0  0  0
    6.5874    0.1488   20.0370 C   0  0  0  0  0  0  0  0  0  0  0  0
    7.3437   -0.4658   21.2021 C   0  0  0  0  0  0  0  0  0  0  0  0
    8.0476    0.5822   21.9271 N   0  0  0  0  0  0  0  0  0  0  0  0
    7.8011    0.7671   22.8778 H   0  0  0  0  0  0  0  0  0  0  0  0
    9.1621    1.1392   21.3841 C   0  0  0  0  0  0  0  0  0  0  0  0
    9.5609    0.8105   20.2803 O   0  0  0  0  0  0  0  0  0  0  0  0
    9.9229    2.1221   22.2400 C   0  0  0  0  0  0  0  0  0  0  0  0
   10.5076    2.7302   21.5476 H   0  0  0  0  0  0  0  0  0  0  0  0
    9.2202    2.7840   22.7548 H   0  0  0  0  0  0  0  0  0  0  0  0
   10.8349    1.3831   23.1962 C   0  0  0  0  0  0  0  0  0  0  0  0
   10.3920    1.0144   24.4711 C   0  0  0  0  0  0  0  0  0  0  0  0
    9.3575    1.1940   24.7604 H   0  0  0  0  0  0  0  0  0  0  0  0
   11.2781    0.4352   25.3837 C   0  0  0  0  0  0  0  0  0  0  0  0
   10.9412    0.1932   26.3877 H   0  0  0  0  0  0  0  0  0  0  0  0
   12.6032    0.1945   25.0090 C   0  0  0  0  0  0  0  0  0  0  0  0
   13.3090   -0.2161   25.7218 H   0  0  0  0  0  0  0  0  0  0  0  0
   13.0255    0.4624   23.7039 C   0  0  0  0  0  0  0  0  0  0  0  0
   14.0454    0.2377   23.4012 H   0  0  0  0  0  0  0  0  0  0  0  0
   12.1329    1.0366   22.7955 C   0  0  0  0  0  0  0  0  0  0  0  0
   12.4389    1.2297   21.7694 H   0  0  0  0  0  0  0  0  0  0  0  0
    8.2910   -1.6429   20.8404 C   0  0  0  0  0  0  0  0  0  0  0  0
    8.3325   -1.8013   19.7712 H   0  0  0  0  0  0  0  0  0  0  0  0
    9.3075   -1.4799   21.2087 H   0  0  0  0  0  0  0  0  0  0  0  0
    7.4663   -2.6230   21.6933 C   0  0  0  0  0  0  0  0  0  0  0  0
    6.9913   -3.4315   21.1216 H   0  0  0  0  0  0  0  0  0  0  0  0
    8.0117   -3.0781   22.5305 H   0  0  0  0  0  0  0  0  0  0  0  0
    6.5278   -1.4471   22.0746 C   0  0  0  0  0  0  0  0  0  0  0  0
    6.4824   -1.1778   23.1346 H   0  0  0  0  0  0  0  0  0  0  0  0
    5.5190   -1.6049   21.6913 H   0  0  0  0  0  0  0  0  0  0  0  0
    5.3398    0.7733   20.1861 C   0  0  0  0  0  0  0  0  0  0  0  0
    4.8591    0.8217   21.1676 H   0  0  0  0  0  0  0  0  0  0  0  0
    4.7467    1.3560   19.0625 C   0  0  0  0  0  0  0  0  0  0  0  0
    3.7891    1.8626   19.1209 H   0  0  0  0  0  0  0  0  0  0  0  0
  1  2  1  0
  2  3  2  0
  3  4  1  0
  4  5  1  0
  4  6  2  0
  6  7  1  0
  7  8  1  0
  8  9  1  0
  8 10  1  0
 10 11  2  0
 10 12  1  0
 12 13  1  0
 12 14  1  0
 12 15  1  0
 15 16  2  0
 16 17  1  0
 16 18  1  0
 18 19  1  0
 18 20  2  0
 20 21  1  0
 20 22  1  0
 22 23  1  0
 22 24  2  0
 24 25  1  0
  7 26  1  0
 26 27  1  0
 26 28  1  0
 26 29  1  0
 29 30  1  0
 29 31  1  0
 29 32  1  0
 32 33  1  0
 32 34  1  0
  6 35  1  0
 35 36  1  0
 35 37  2  0
 37 38  1  0
 37  2  1  0
 32  7  1  0
 24 15  1  0
M  END
>  <cnnaffinity>  (1) 
-4.95681

>  <filename>  (1) 
O=C(Cc1ccccc1)NC1(c2cccnc2)CCC1

$$$$
