
     RDKit          3D

 34 36  0  0  0  0  0  0  0  0999 V2000
   11.9575    4.5600   23.3454 H   0  0  0  0  0  0  0  0  0  0  0  0
   11.4592    3.7328   23.2294 O   0  0  0  0  0  0  0  0  0  0  0  0
   12.5263    2.9181   23.2166 C   0  0  0  0  0  0  0  0  0  0  0  0
   13.6098    3.4313   23.4031 O   0  0  0  0  0  0  0  0  0  0  0  0
   12.2488    1.4737   22.9628 C   0  0  0  0  0  0  0  0  0  0  0  0
   13.3438    0.5965   22.8856 C   0  0  0  0  0  0  0  0  0  0  0  0
   14.3478    0.9895   23.0428 H   0  0  0  0  0  0  0  0  0  0  0  0
   13.1350   -0.7522   22.5965 C   0  0  0  0  0  0  0  0  0  0  0  0
   13.9821   -1.4284   22.5380 H   0  0  0  0  0  0  0  0  0  0  0  0
   11.8416   -1.2534   22.4016 C   0  0  0  0  0  0  0  0  0  0  0  0
   11.7054   -2.3085   22.1725 H   0  0  0  0  0  0  0  0  0  0  0  0
   10.7276   -0.3963   22.4830 C   0  0  0  0  0  0  0  0  0  0  0  0
    9.3488   -0.8892   22.2151 C   0  0  0  0  0  0  0  0  0  0  0  0
    8.5958   -0.2946   21.2562 C   0  0  0  0  0  0  0  0  0  0  0  0
    8.9684    0.5663   20.7066 H   0  0  0  0  0  0  0  0  0  0  0  0
    7.3262   -0.7263   20.9002 N   0  0  0  0  0  0  0  0  0  0  0  0
    6.6326   -0.0288   19.8308 C   0  0  0  0  0  0  0  0  0  0  0  0
    7.1662    0.0677   18.5269 C   0  0  0  0  0  0  0  0  0  0  0  0
    8.1082   -0.4136   18.2813 H   0  0  0  0  0  0  0  0  0  0  0  0
    6.5692    0.7175   17.5204 N   0  0  0  0  0  0  0  0  0  0  0  0
    5.4093    1.3406   17.7819 C   0  0  0  0  0  0  0  0  0  0  0  0
    4.9485    1.8767   16.9518 H   0  0  0  0  0  0  0  0  0  0  0  0
    4.8013    1.3195   19.0424 C   0  0  0  0  0  0  0  0  0  0  0  0
    3.8713    1.8602   19.1952 H   0  0  0  0  0  0  0  0  0  0  0  0
    5.4185    0.6189   20.0874 C   0  0  0  0  0  0  0  0  0  0  0  0
    4.9775    0.5810   21.0848 H   0  0  0  0  0  0  0  0  0  0  0  0
    6.7116   -1.7926   21.6059 C   0  0  0  0  0  0  0  0  0  0  0  0
    5.6286   -2.2685   21.3601 O   0  0  0  0  0  0  0  0  0  0  0  0
    7.4581   -2.2991   22.6195 N   0  0  0  0  0  0  0  0  0  0  0  0
    7.0364   -3.0630   23.1029 H   0  0  0  0  0  0  0  0  0  0  0  0
    8.7630   -2.0215   22.9681 C   0  0  0  0  0  0  0  0  0  0  0  0
    9.2590   -2.7111   23.8326 O   0  0  0  0  0  0  0  0  0  0  0  0
   10.9494    0.9678   22.7566 C   0  0  0  0  0  0  0  0  0  0  0  0
   10.0921    1.6337   22.8093 H   0  0  0  0  0  0  0  0  0  0  0  0
  1  2  1  0
  2  3  1  0
  3  4  2  0
  3  5  1  0
  5  6  2  0
  6  7  1  0
  6  8  1  0
  8  9  1  0
  8 10  2  0
 10 11  1  0
 10 12  1  0
 12 13  1  0
 13 14  2  0
 14 15  1  0
 14 16  1  0
 16 17  1  0
 17 18  2  0
 18 19  1  0
 18 20  1  0
 20 21  2  0
 21 22  1  0
 21 23  1  0
 23 24  1  0
 23 25  2  0
 25 26  1  0
 16 27  1  0
 27 28  2  0
 27 29  1  0
 29 30  1  0
 29 31  1  0
 31 32  2  0
 12 33  2  0
 33 34  1  0
 33  5  1  0
 31 13  1  0
 25 17  1  0
M  END
>  <cnnaffinity>  (1) 
-5.43725

>  <filename>  (1) 
O=C(O)c1cccc(-c2cn(-c3cccnc3)c(=O)[nH]c2=O)c1

$$$$
