
     RDKit          3D

 37 39  0  0  0  0  0  0  0  0999 V2000
    5.0761    1.8381   16.8651 H   0  0  0  0  0  0  0  0  0  0  0  0
    5.3969    1.2991   17.7557 C   0  0  0  0  0  0  0  0  0  0  0  0
    6.5296    0.5916   17.6354 N   0  0  0  0  0  0  0  0  0  0  0  0
    6.9565   -0.0622   18.7143 C   0  0  0  0  0  0  0  0  0  0  0  0
    7.8754   -0.6356   18.6030 H   0  0  0  0  0  0  0  0  0  0  0  0
    6.3152   -0.0300   19.9643 C   0  0  0  0  0  0  0  0  0  0  0  0
    7.0561   -0.7610   21.0055 C   0  0  0  0  0  0  0  0  0  0  0  0
    7.8862   -1.6040   20.7256 O   0  0  0  0  0  0  0  0  0  0  0  0
    6.8587   -0.3418   22.2903 N   0  0  0  0  0  0  0  0  0  0  0  0
    5.9822    0.0258   22.6074 H   0  0  0  0  0  0  0  0  0  0  0  0
    7.3155   -1.3696   23.4790 S   0  0  0  0  0  0  0  0  0  0  0  0
    7.2967   -2.7422   23.0461 O   0  0  0  0  0  0  0  0  0  0  0  0
    6.5070   -0.9232   24.5930 O   0  0  0  0  0  0  0  0  0  0  0  0
    8.8538   -0.8270   23.6981 N   0  0  0  0  0  0  0  0  0  0  0  0
    9.8176   -0.8672   22.5888 C   0  0  0  0  0  0  0  0  0  0  0  0
    9.4574   -0.2012   21.7919 H   0  0  0  0  0  0  0  0  0  0  0  0
    9.8706   -1.8702   22.1474 H   0  0  0  0  0  0  0  0  0  0  0  0
   11.2274   -0.4261   22.9780 C   0  0  0  0  0  0  0  0  0  0  0  0
   12.2745   -0.6070   22.0590 C   0  0  0  0  0  0  0  0  0  0  0  0
   12.1174   -1.1771   21.1417 H   0  0  0  0  0  0  0  0  0  0  0  0
   13.5427   -0.0873   22.3209 C   0  0  0  0  0  0  0  0  0  0  0  0
   14.3359   -0.1875   21.5883 H   0  0  0  0  0  0  0  0  0  0  0  0
   13.7903    0.5705   23.5271 C   0  0  0  0  0  0  0  0  0  0  0  0
   14.7768    0.9745   23.7067 H   0  0  0  0  0  0  0  0  0  0  0  0
   12.7697    0.6952   24.4729 C   0  0  0  0  0  0  0  0  0  0  0  0
   12.9744    1.1731   25.4206 H   0  0  0  0  0  0  0  0  0  0  0  0
   11.4867    0.1865   24.2196 C   0  0  0  0  0  0  0  0  0  0  0  0
   10.3707    0.2670   25.2442 C   0  0  0  0  0  0  0  0  0  0  0  0
   10.7897    0.2514   26.2563 H   0  0  0  0  0  0  0  0  0  0  0  0
    9.8348    1.2203   25.1310 H   0  0  0  0  0  0  0  0  0  0  0  0
    9.3762   -0.8778   25.0660 C   0  0  0  0  0  0  0  0  0  0  0  0
    8.5610   -0.7593   25.7845 H   0  0  0  0  0  0  0  0  0  0  0  0
    9.8612   -1.8504   25.2568 H   0  0  0  0  0  0  0  0  0  0  0  0
    5.1129    0.6938   20.0761 C   0  0  0  0  0  0  0  0  0  0  0  0
    4.5365    0.7587   21.0051 H   0  0  0  0  0  0  0  0  0  0  0  0
    4.6544    1.3656   18.9417 C   0  0  0  0  0  0  0  0  0  0  0  0
    3.7467    1.9595   18.9715 H   0  0  0  0  0  0  0  0  0  0  0  0
  1  2  1  0
  2  3  2  0
  3  4  1  0
  4  5  1  0
  4  6  2  0
  6  7  1  0
  7  8  2  0
  7  9  1  0
  9 10  1  0
  9 11  1  0
 11 12  2  0
 11 13  2  0
 11 14  1  0
 14 15  1  0
 15 16  1  0
 15 17  1  0
 15 18  1  0
 18 19  2  0
 19 20  1  0
 19 21  1  0
 21 22  1  0
 21 23  2  0
 23 24  1  0
 23 25  1  0
 25 26  1  0
 25 27  2  0
 27 28  1  0
 28 29  1  0
 28 30  1  0
 28 31  1  0
 31 32  1  0
 31 33  1  0
  6 34  1  0
 34 35  1  0
 34 36  2  0
 36 37  1  0
 36  2  1  0
 31 14  1  0
 27 18  1  0
M  END
>  <cnnaffinity>  (1) 
-5.37522

>  <filename>  (1) 
O=C(NS(=O)(=O)N1CCc2ccccc2C1)c1cccnc1

$$$$
