
     RDKit          3D

 30 33  0  0  0  0  0  0  0  0999 V2000
    4.9681    1.7911   16.9748 H   0  0  0  0  0  0  0  0  0  0  0  0
    5.4126    1.2861   17.8305 C   0  0  0  0  0  0  0  0  0  0  0  0
    6.5644    0.6419   17.5950 N   0  0  0  0  0  0  0  0  0  0  0  0
    7.1501    0.0397   18.6301 C   0  0  0  0  0  0  0  0  0  0  0  0
    8.0795   -0.4893   18.4248 H   0  0  0  0  0  0  0  0  0  0  0  0
    6.6356    0.0622   19.9409 C   0  0  0  0  0  0  0  0  0  0  0  0
    7.4186   -0.6179   20.9800 C   0  0  0  0  0  0  0  0  0  0  0  0
    8.3043   -1.5623   20.7548 N   0  0  0  0  0  0  0  0  0  0  0  0
    8.8053   -2.0166   21.9518 N   0  0  0  0  0  0  0  0  0  0  0  0
    8.2092   -1.3130   22.8752 C   0  0  0  0  0  0  0  0  0  0  0  0
    8.2365   -1.2146   24.6051 S   0  0  0  0  0  0  0  0  0  0  0  0
    7.1096    0.1283   24.4023 C   0  0  0  0  0  0  0  0  0  0  0  0
    6.6369    0.8942   25.4299 N   0  0  0  0  0  0  0  0  0  0  0  0
    6.1145    1.6993   25.1376 H   0  0  0  0  0  0  0  0  0  0  0  0
    6.9367    0.7166   26.7516 C   0  0  0  0  0  0  0  0  0  0  0  0
    7.5067   -0.2803   27.1448 O   0  0  0  0  0  0  0  0  0  0  0  0
    6.4825    1.8496   27.6266 C   0  0  0  0  0  0  0  0  0  0  0  0
    5.4288    1.7906   27.8823 H   0  0  0  0  0  0  0  0  0  0  0  0
    7.4357    2.3333   28.6788 C   0  0  0  0  0  0  0  0  0  0  0  0
    7.0725    2.5382   29.6830 H   0  0  0  0  0  0  0  0  0  0  0  0
    8.4131    1.8640   28.6559 H   0  0  0  0  0  0  0  0  0  0  0  0
    7.0662    3.2385   27.5388 C   0  0  0  0  0  0  0  0  0  0  0  0
    6.3860    4.0547   27.7753 H   0  0  0  0  0  0  0  0  0  0  0  0
    7.8110    3.4594   26.7702 H   0  0  0  0  0  0  0  0  0  0  0  0
    6.7193    0.4514   23.2092 N   0  0  0  0  0  0  0  0  0  0  0  0
    7.3383   -0.4126   22.3400 N   0  0  0  0  0  0  0  0  0  0  0  0
    5.4088    0.7065   20.1732 C   0  0  0  0  0  0  0  0  0  0  0  0
    4.9568    0.7259   21.1659 H   0  0  0  0  0  0  0  0  0  0  0  0
    4.7931    1.3267   19.0848 C   0  0  0  0  0  0  0  0  0  0  0  0
    3.8494    1.8477   19.1895 H   0  0  0  0  0  0  0  0  0  0  0  0
  1  2  1  0
  2  3  2  0
  3  4  1  0
  4  5  1  0
  4  6  2  0
  6  7  1  0
  7  8  2  0
  8  9  1  0
  9 10  2  0
 10 11  1  0
 11 12  1  0
 12 13  1  0
 13 14  1  0
 13 15  1  0
 15 16  2  0
 15 17  1  0
 17 18  1  0
 17 19  1  0
 19 20  1  0
 19 21  1  0
 19 22  1  0
 22 23  1  0
 22 24  1  0
 12 25  2  0
 25 26  1  0
  6 27  1  0
 27 28  1  0
 27 29  2  0
 29 30  1  0
 29  2  1  0
 26  7  1  0
 26 10  1  0
 22 17  1  0
M  END
>  <cnnaffinity>  (1) 
-5.00329

>  <filename>  (1) 
O=C(Nc1nn2c(-c3cccnc3)nnc2s1)C1CC1

$$$$
