
     RDKit          3D

 31 33  0  0  0  0  0  0  0  0999 V2000
    5.2032    1.7972   16.9657 H   0  0  0  0  0  0  0  0  0  0  0  0
    5.6416    1.2960   17.8256 C   0  0  0  0  0  0  0  0  0  0  0  0
    6.8361    0.7105   17.6300 N   0  0  0  0  0  0  0  0  0  0  0  0
    7.4067    0.0865   18.6701 C   0  0  0  0  0  0  0  0  0  0  0  0
    8.3804   -0.3750   18.4973 H   0  0  0  0  0  0  0  0  0  0  0  0
    6.8065   -0.0066   19.9484 C   0  0  0  0  0  0  0  0  0  0  0  0
    7.3608   -0.7643   21.0246 N   0  0  0  0  0  0  0  0  0  0  0  0
    8.1844   -0.4951   21.5333 H   0  0  0  0  0  0  0  0  0  0  0  0
    6.7031   -1.7754   21.6639 C   0  0  0  0  0  0  0  0  0  0  0  0
    5.5868   -2.1792   21.4535 O   0  0  0  0  0  0  0  0  0  0  0  0
    7.5714   -2.2865   22.5725 O   0  0  0  0  0  0  0  0  0  0  0  0
    7.0823   -3.2178   23.4494 C   0  0  0  0  0  0  0  0  0  0  0  0
    7.4093   -2.9984   24.6769 N   0  0  0  0  0  0  0  0  0  0  0  0
    7.0562   -3.9486   25.5966 C   0  0  0  0  0  0  0  0  0  0  0  0
    7.4695   -3.7330   26.9382 C   0  0  0  0  0  0  0  0  0  0  0  0
    8.0258   -2.8194   27.1203 H   0  0  0  0  0  0  0  0  0  0  0  0
    7.2023   -4.6688   27.9121 C   0  0  0  0  0  0  0  0  0  0  0  0
    7.5588   -4.5256   28.9265 H   0  0  0  0  0  0  0  0  0  0  0  0
    6.4725   -5.8501   27.5961 C   0  0  0  0  0  0  0  0  0  0  0  0
    6.2975   -6.5912   28.3776 H   0  0  0  0  0  0  0  0  0  0  0  0
    6.0362   -6.0780   26.3076 C   0  0  0  0  0  0  0  0  0  0  0  0
    5.4711   -6.9812   26.0772 H   0  0  0  0  0  0  0  0  0  0  0  0
    6.3364   -5.1439   25.2651 C   0  0  0  0  0  0  0  0  0  0  0  0
    6.0059   -5.3219   23.8832 C   0  0  0  0  0  0  0  0  0  0  0  0
    5.4643   -6.2180   23.5697 H   0  0  0  0  0  0  0  0  0  0  0  0
    6.3749   -4.3663   22.9733 C   0  0  0  0  0  0  0  0  0  0  0  0
    6.1302   -4.4354   21.9260 H   0  0  0  0  0  0  0  0  0  0  0  0
    5.5614    0.6046   20.1274 C   0  0  0  0  0  0  0  0  0  0  0  0
    5.0813    0.5390   21.1006 H   0  0  0  0  0  0  0  0  0  0  0  0
    4.9729    1.2725   19.0510 C   0  0  0  0  0  0  0  0  0  0  0  0
    4.0194    1.7784   19.1568 H   0  0  0  0  0  0  0  0  0  0  0  0
  1  2  1  0
  2  3  2  0
  3  4  1  0
  4  5  1  0
  4  6  2  0
  6  7  1  0
  7  8  1  0
  7  9  1  0
  9 10  2  0
  9 11  1  0
 11 12  1  0
 12 13  2  0
 13 14  1  0
 14 15  2  0
 15 16  1  0
 15 17  1  0
 17 18  1  0
 17 19  2  0
 19 20  1  0
 19 21  1  0
 21 22  1  0
 21 23  2  0
 23 24  1  0
 24 25  1  0
 24 26  2  0
 26 27  1  0
  6 28  1  0
 28 29  1  0
 28 30  2  0
 30 31  1  0
 30  2  1  0
 26 12  1  0
 23 14  1  0
M  END
>  <cnnaffinity>  (1) 
-4.88516

>  <filename>  (1) 
O=C(Nc1cccnc1)Oc1ccc2ccccc2n1

$$$$
