
     RDKit          3D

 43 45  0  0  0  0  0  0  0  0999 V2000
    4.9943    1.7964   17.0548 H   0  0  0  0  0  0  0  0  0  0  0  0
    5.4369    1.2416   17.8793 C   0  0  0  0  0  0  0  0  0  0  0  0
    6.5638    0.5665   17.5962 N   0  0  0  0  0  0  0  0  0  0  0  0
    7.1593   -0.0875   18.6006 C   0  0  0  0  0  0  0  0  0  0  0  0
    8.0746   -0.6267   18.3734 H   0  0  0  0  0  0  0  0  0  0  0  0
    6.6651   -0.1158   19.9166 C   0  0  0  0  0  0  0  0  0  0  0  0
    7.3582   -0.8138   20.9660 N   0  0  0  0  0  0  0  0  0  0  0  0
    6.6841   -1.8687   21.5480 C   0  0  0  0  0  0  0  0  0  0  0  0
    5.6662   -2.0348   21.2306 H   0  0  0  0  0  0  0  0  0  0  0  0
    7.2618   -2.6646   22.4938 C   0  0  0  0  0  0  0  0  0  0  0  0
    6.5974   -3.8026   23.0140 N   0  0  0  0  0  0  0  0  0  0  0  0
    6.9758   -4.1785   23.8644 H   0  0  0  0  0  0  0  0  0  0  0  0
    5.2320   -4.0620   22.9506 C   0  0  0  0  0  0  0  0  0  0  0  0
    4.4466   -3.5496   22.1759 O   0  0  0  0  0  0  0  0  0  0  0  0
    4.8686   -4.9758   23.9102 N   0  0  0  0  0  0  0  0  0  0  0  0
    5.5598   -5.6610   24.1554 H   0  0  0  0  0  0  0  0  0  0  0  0
    3.4855   -5.1432   24.3436 C   0  0  0  0  0  0  0  0  0  0  0  0
    2.8694   -4.6912   23.5577 H   0  0  0  0  0  0  0  0  0  0  0  0
    3.1724   -4.3731   25.6501 C   0  0  0  0  0  0  0  0  0  0  0  0
    2.0759   -4.2818   25.6982 H   0  0  0  0  0  0  0  0  0  0  0  0
    3.5766   -3.3537   25.5804 H   0  0  0  0  0  0  0  0  0  0  0  0
    3.6723   -5.0720   26.9281 C   0  0  0  0  0  0  0  0  0  0  0  0
    4.7727   -5.0490   26.9484 H   0  0  0  0  0  0  0  0  0  0  0  0
    3.3459   -4.5024   27.8082 H   0  0  0  0  0  0  0  0  0  0  0  0
    3.1702   -6.5262   27.0172 C   0  0  0  0  0  0  0  0  0  0  0  0
    2.0736   -6.5287   27.1411 H   0  0  0  0  0  0  0  0  0  0  0  0
    3.5784   -7.0074   27.9169 H   0  0  0  0  0  0  0  0  0  0  0  0
    3.5353   -7.3370   25.7570 C   0  0  0  0  0  0  0  0  0  0  0  0
    3.0617   -8.3274   25.8032 H   0  0  0  0  0  0  0  0  0  0  0  0
    4.6213   -7.5196   25.7340 H   0  0  0  0  0  0  0  0  0  0  0  0
    3.0655   -6.6211   24.4717 C   0  0  0  0  0  0  0  0  0  0  0  0
    3.3876   -7.1627   23.5724 H   0  0  0  0  0  0  0  0  0  0  0  0
    1.9624   -6.6351   24.4721 H   0  0  0  0  0  0  0  0  0  0  0  0
    8.5800   -2.3162   22.9444 C   0  0  0  0  0  0  0  0  0  0  0  0
    9.0553   -2.9186   23.7172 H   0  0  0  0  0  0  0  0  0  0  0  0
    9.2430   -1.2503   22.4159 C   0  0  0  0  0  0  0  0  0  0  0  0
   10.2230   -0.9192   22.7300 H   0  0  0  0  0  0  0  0  0  0  0  0
    8.6958   -0.4331   21.3447 C   0  0  0  0  0  0  0  0  0  0  0  0
    9.2918    0.4824   20.7997 O   0  0  0  0  0  0  0  0  0  0  0  0
    5.4496    0.5265   20.1796 C   0  0  0  0  0  0  0  0  0  0  0  0
    5.0184    0.4487   21.1802 H   0  0  0  0  0  0  0  0  0  0  0  0
    4.8355    1.2437   19.1452 C   0  0  0  0  0  0  0  0  0  0  0  0
    3.9201    1.8074   19.3067 H   0  0  0  0  0  0  0  0  0  0  0  0
  1  2  1  0
  2  3  2  0
  3  4  1  0
  4  5  1  0
  4  6  2  0
  6  7  1  0
  7  8  1  0
  8  9  1  0
  8 10  2  0
 10 11  1  0
 11 12  1  0
 11 13  1  0
 13 14  2  0
 13 15  1  0
 15 16  1  0
 15 17  1  0
 17 18  1  0
 17 19  1  0
 19 20  1  0
 19 21  1  0
 19 22  1  0
 22 23  1  0
 22 24  1  0
 22 25  1  0
 25 26  1  0
 25 27  1  0
 25 28  1  0
 28 29  1  0
 28 30  1  0
 28 31  1  0
 31 32  1  0
 31 33  1  0
 10 34  1  0
 34 35  1  0
 34 36  2  0
 36 37  1  0
 36 38  1  0
 38 39  2  0
  6 40  1  0
 40 41  1  0
 40 42  2  0
 42 43  1  0
 42  2  1  0
 38  7  1  0
 31 17  1  0
M  END
>  <cnnaffinity>  (1) 
-5.64269

>  <filename>  (1) 
O=C(Nc1ccc(=O)n(-c2cccnc2)c1)NC1CCCCC1

$$$$
