
     RDKit          3D

 32 34  0  0  0  0  0  0  0  0999 V2000
    4.7004    2.1185   16.7194 H   0  0  0  0  0  0  0  0  0  0  0  0
    4.9702    1.3923   17.4815 C   0  0  0  0  0  0  0  0  0  0  0  0
    5.7712    0.3924   17.0813 N   0  0  0  0  0  0  0  0  0  0  0  0
    6.1665   -0.4918   18.0018 C   0  0  0  0  0  0  0  0  0  0  0  0
    6.8121   -1.3071   17.6725 H   0  0  0  0  0  0  0  0  0  0  0  0
    5.7999   -0.4018   19.3552 C   0  0  0  0  0  0  0  0  0  0  0  0
    6.3696   -1.2733   20.3296 N   0  0  0  0  0  0  0  0  0  0  0  0
    5.6835   -2.2144   21.0162 N   0  0  0  0  0  0  0  0  0  0  0  0
    6.5037   -2.7165   21.8626 N   0  0  0  0  0  0  0  0  0  0  0  0
    7.7240   -2.1332   21.7771 N   0  0  0  0  0  0  0  0  0  0  0  0
    7.6228   -1.2313   20.8313 C   0  0  0  0  0  0  0  0  0  0  0  0
    8.6859   -0.3282   20.2837 C   0  0  0  0  0  0  0  0  0  0  0  0
    8.2411    0.6089   19.9249 H   0  0  0  0  0  0  0  0  0  0  0  0
    9.1327   -0.8248   19.4078 H   0  0  0  0  0  0  0  0  0  0  0  0
    9.6846   -0.0284   21.2828 N   0  0  0  0  0  0  0  0  0  0  0  0
    9.9679   -0.7755   21.8932 H   0  0  0  0  0  0  0  0  0  0  0  0
   10.1735    1.2058   21.5600 C   0  0  0  0  0  0  0  0  0  0  0  0
    9.8005    2.2136   20.9829 O   0  0  0  0  0  0  0  0  0  0  0  0
   11.2602    1.1958   22.6324 C   0  0  0  0  0  0  0  0  0  0  0  0
   11.3767    0.2167   23.6454 C   0  0  0  0  0  0  0  0  0  0  0  0
   10.6913   -0.6187   23.7638 H   0  0  0  0  0  0  0  0  0  0  0  0
   12.4249    0.2975   24.5601 C   0  0  0  0  0  0  0  0  0  0  0  0
   12.4986   -0.4613   25.3391 H   0  0  0  0  0  0  0  0  0  0  0  0
   13.3452    1.2634   24.5386 N   0  0  0  0  0  0  0  0  0  0  0  0
   13.2349    2.2011   23.5898 C   0  0  0  0  0  0  0  0  0  0  0  0
   13.9683    3.0001   23.6136 H   0  0  0  0  0  0  0  0  0  0  0  0
   12.2323    2.2079   22.6207 C   0  0  0  0  0  0  0  0  0  0  0  0
   12.2221    2.9938   21.8709 H   0  0  0  0  0  0  0  0  0  0  0  0
    4.9501    0.6273   19.7685 C   0  0  0  0  0  0  0  0  0  0  0  0
    4.6787    0.7112   20.8225 H   0  0  0  0  0  0  0  0  0  0  0  0
    4.5133    1.5335   18.7986 C   0  0  0  0  0  0  0  0  0  0  0  0
    3.8546    2.3557   19.0588 H   0  0  0  0  0  0  0  0  0  0  0  0
  1  2  1  0
  2  3  2  0
  3  4  1  0
  4  5  1  0
  4  6  2  0
  6  7  1  0
  7  8  1  0
  8  9  2  0
  9 10  1  0
 10 11  2  0
 11 12  1  0
 12 13  1  0
 12 14  1  0
 12 15  1  0
 15 16  1  0
 15 17  1  0
 17 18  2  0
 17 19  1  0
 19 20  2  0
 20 21  1  0
 20 22  1  0
 22 23  1  0
 22 24  2  0
 24 25  1  0
 25 26  1  0
 25 27  2  0
 27 28  1  0
  6 29  1  0
 29 30  1  0
 29 31  2  0
 31 32  1  0
 31  2  1  0
 11  7  1  0
 27 19  1  0
M  END
>  <cnnaffinity>  (1) 
-5.09747

>  <filename>  (1) 
O=C(NCc1nnnn1-c1cccnc1)c1ccncc1

$$$$
