
     RDKit          3D

 36 39  0  0  0  0  0  0  0  0999 V2000
    4.9567    1.8286   16.9522 H   0  0  0  0  0  0  0  0  0  0  0  0
    5.4095    1.2991   17.7850 C   0  0  0  0  0  0  0  0  0  0  0  0
    6.5629    0.6664   17.5232 N   0  0  0  0  0  0  0  0  0  0  0  0
    7.1530    0.0124   18.5295 C   0  0  0  0  0  0  0  0  0  0  0  0
    8.1058   -0.4645   18.3002 H   0  0  0  0  0  0  0  0  0  0  0  0
    6.6233   -0.0459   19.8340 C   0  0  0  0  0  0  0  0  0  0  0  0
    7.3634   -0.6794   20.9398 C   0  0  0  0  0  0  0  0  0  0  0  0
    8.5020   -1.3660   20.7379 N   0  0  0  0  0  0  0  0  0  0  0  0
    8.9158   -1.6230   21.9983 N   0  0  0  0  0  0  0  0  0  0  0  0
   10.1051   -2.0833   22.5459 C   0  0  0  0  0  0  0  0  0  0  0  0
   10.8702   -2.4681   21.8969 H   0  0  0  0  0  0  0  0  0  0  0  0
   10.0138   -1.8584   23.8800 C   0  0  0  0  0  0  0  0  0  0  0  0
   10.7136   -2.0102   24.6854 H   0  0  0  0  0  0  0  0  0  0  0  0
    8.7825   -1.2942   24.1488 N   0  0  0  0  0  0  0  0  0  0  0  0
    8.3928   -0.9017   25.4231 N   0  0  0  0  0  0  0  0  0  0  0  0
    8.8509   -0.0511   25.7233 H   0  0  0  0  0  0  0  0  0  0  0  0
    7.0215   -0.8211   25.7095 C   0  0  0  0  0  0  0  0  0  0  0  0
    6.1825   -1.4196   25.0665 O   0  0  0  0  0  0  0  0  0  0  0  0
    6.6644    0.1041   26.8508 C   0  0  0  0  0  0  0  0  0  0  0  0
    7.5642    0.4839   27.8692 C   0  0  0  0  0  0  0  0  0  0  0  0
    8.6008    0.1429   27.8691 H   0  0  0  0  0  0  0  0  0  0  0  0
    7.1246    1.2733   28.9362 C   0  0  0  0  0  0  0  0  0  0  0  0
    7.8270    1.5300   29.7271 H   0  0  0  0  0  0  0  0  0  0  0  0
    5.7980    1.7137   28.9905 C   0  0  0  0  0  0  0  0  0  0  0  0
    5.4602    2.3126   29.8313 H   0  0  0  0  0  0  0  0  0  0  0  0
    4.9021    1.3642   27.9734 C   0  0  0  0  0  0  0  0  0  0  0  0
    3.8676    1.6979   28.0151 H   0  0  0  0  0  0  0  0  0  0  0  0
    5.3320    0.5665   26.9121 C   0  0  0  0  0  0  0  0  0  0  0  0
    4.6307    0.2814   26.1273 H   0  0  0  0  0  0  0  0  0  0  0  0
    8.1095   -1.1300   22.9550 C   0  0  0  0  0  0  0  0  0  0  0  0
    7.0353   -0.5262   22.3070 C   0  0  0  0  0  0  0  0  0  0  0  0
    6.1796   -0.0648   22.7660 H   0  0  0  0  0  0  0  0  0  0  0  0
    5.4101    0.6166   20.0826 C   0  0  0  0  0  0  0  0  0  0  0  0
    4.9723    0.6309   21.0826 H   0  0  0  0  0  0  0  0  0  0  0  0
    4.7968    1.3007   19.0406 C   0  0  0  0  0  0  0  0  0  0  0  0
    3.8777    1.8510   19.1982 H   0  0  0  0  0  0  0  0  0  0  0  0
  1  2  1  0
  2  3  2  0
  3  4  1  0
  4  5  1  0
  4  6  2  0
  6  7  1  0
  7  8  2  0
  8  9  1  0
  9 10  1  0
 10 11  1  0
 10 12  2  0
 12 13  1  0
 12 14  1  0
 14 15  1  0
 15 16  1  0
 15 17  1  0
 17 18  2  0
 17 19  1  0
 19 20  2  0
 20 21  1  0
 20 22  1  0
 22 23  1  0
 22 24  2  0
 24 25  1  0
 24 26  1  0
 26 27  1  0
 26 28  2  0
 28 29  1  0
 14 30  1  0
 30 31  2  0
 31 32  1  0
  6 33  1  0
 33 34  1  0
 33 35  2  0
 35 36  1  0
 35  2  1  0
 31  7  1  0
 30  9  1  0
 28 19  1  0
M  END
>  <cnnaffinity>  (1) 
-5.42554

>  <filename>  (1) 
O=C(Nn1ccn2nc(-c3cccnc3)cc12)c1ccccc1

$$$$
