
     RDKit          3D

 36 38  0  0  0  0  0  0  0  0999 V2000
    4.9863    1.8020   17.0107 H   0  0  0  0  0  0  0  0  0  0  0  0
    5.4344    1.2811   17.8519 C   0  0  0  0  0  0  0  0  0  0  0  0
    6.6039    0.6674   17.6070 N   0  0  0  0  0  0  0  0  0  0  0  0
    7.1845    0.0365   18.6349 C   0  0  0  0  0  0  0  0  0  0  0  0
    8.1364   -0.4606   18.4627 H   0  0  0  0  0  0  0  0  0  0  0  0
    6.6389   -0.0229   19.9278 C   0  0  0  0  0  0  0  0  0  0  0  0
    7.3687   -0.7301   20.8522 O   0  0  0  0  0  0  0  0  0  0  0  0
    7.2757   -0.4237   22.1778 C   0  0  0  0  0  0  0  0  0  0  0  0
    7.1251   -1.3825   23.1967 C   0  0  0  0  0  0  0  0  0  0  0  0
    7.0211   -2.4552   23.0802 H   0  0  0  0  0  0  0  0  0  0  0  0
    7.1156   -0.7960   24.3912 N   0  0  0  0  0  0  0  0  0  0  0  0
    7.2669    0.5073   24.1324 N   0  0  0  0  0  0  0  0  0  0  0  0
    7.2543    1.1535   24.9092 H   0  0  0  0  0  0  0  0  0  0  0  0
    7.3721    0.8056   22.8057 C   0  0  0  0  0  0  0  0  0  0  0  0
    7.5880    2.1994   22.2872 C   0  0  0  0  0  0  0  0  0  0  0  0
    7.3553    2.2415   21.2177 H   0  0  0  0  0  0  0  0  0  0  0  0
    6.9113    2.8935   22.8000 H   0  0  0  0  0  0  0  0  0  0  0  0
    8.9446    2.6881   22.4742 N   0  0  0  0  0  0  0  0  0  0  0  0
    9.1957    3.0512   23.3762 H   0  0  0  0  0  0  0  0  0  0  0  0
    9.9917    2.1095   21.8063 C   0  0  0  0  0  0  0  0  0  0  0  0
    9.8287    1.3428   20.8745 O   0  0  0  0  0  0  0  0  0  0  0  0
   11.3405    2.5257   22.3310 C   0  0  0  0  0  0  0  0  0  0  0  0
   12.3866    1.5866   22.3976 C   0  0  0  0  0  0  0  0  0  0  0  0
   12.1875    0.5374   22.1754 H   0  0  0  0  0  0  0  0  0  0  0  0
   13.6829    2.0131   22.6885 C   0  0  0  0  0  0  0  0  0  0  0  0
   14.5033    1.2955   22.6526 H   0  0  0  0  0  0  0  0  0  0  0  0
   13.9322    3.3769   22.8891 C   0  0  0  0  0  0  0  0  0  0  0  0
   14.9342    3.7812   22.9357 H   0  0  0  0  0  0  0  0  0  0  0  0
   12.8812    4.2941   22.9415 C   0  0  0  0  0  0  0  0  0  0  0  0
   13.0898    5.3335   23.1694 H   0  0  0  0  0  0  0  0  0  0  0  0
   11.5827    3.8635   22.6960 C   0  0  0  0  0  0  0  0  0  0  0  0
   10.7661    4.5834   22.7343 H   0  0  0  0  0  0  0  0  0  0  0  0
    5.4105    0.6007   20.1741 C   0  0  0  0  0  0  0  0  0  0  0  0
    4.9646    0.5872   21.1709 H   0  0  0  0  0  0  0  0  0  0  0  0
    4.8068    1.2740   19.1028 C   0  0  0  0  0  0  0  0  0  0  0  0
    3.8705    1.8066   19.2306 H   0  0  0  0  0  0  0  0  0  0  0  0
  1  2  1  0
  2  3  2  0
  3  4  1  0
  4  5  1  0
  4  6  2  0
  6  7  1  0
  7  8  1  0
  8  9  1  0
  9 10  1  0
  9 11  2  0
 11 12  1  0
 12 13  1  0
 12 14  1  0
 14 15  1  0
 15 16  1  0
 15 17  1  0
 15 18  1  0
 18 19  1  0
 18 20  1  0
 20 21  2  0
 20 22  1  0
 22 23  2  0
 23 24  1  0
 23 25  1  0
 25 26  1  0
 25 27  2  0
 27 28  1  0
 27 29  1  0
 29 30  1  0
 29 31  2  0
 31 32  1  0
  6 33  1  0
 33 34  1  0
 33 35  2  0
 35 36  1  0
 35  2  1  0
 14  8  2  0
 31 22  1  0
M  END
>  <cnnaffinity>  (1) 
-5.30428

>  <filename>  (1) 
O=C(NCc1[nH]ncc1Oc1cccnc1)c1ccccc1

$$$$
