
     RDKit          3D

 32 34  0  0  0  0  0  0  0  0999 V2000
    9.0507   -6.9273   27.0370 H   0  0  0  0  0  0  0  0  0  0  0  0
    8.4843   -6.1425   27.1139 O   0  0  0  0  0  0  0  0  0  0  0  0
    8.7197   -5.6380   25.8899 C   0  0  0  0  0  0  0  0  0  0  0  0
    9.4305   -6.2753   25.1407 O   0  0  0  0  0  0  0  0  0  0  0  0
    8.0602   -4.3241   25.6195 C   0  0  0  0  0  0  0  0  0  0  0  0
    7.2673   -3.6955   26.6023 C   0  0  0  0  0  0  0  0  0  0  0  0
    7.1273   -4.1735   27.5674 H   0  0  0  0  0  0  0  0  0  0  0  0
    6.6613   -2.4695   26.3358 C   0  0  0  0  0  0  0  0  0  0  0  0
    6.0408   -1.9976   27.0928 H   0  0  0  0  0  0  0  0  0  0  0  0
    6.8406   -1.8492   25.0966 C   0  0  0  0  0  0  0  0  0  0  0  0
    6.3735   -0.8944   24.8753 H   0  0  0  0  0  0  0  0  0  0  0  0
    7.6465   -2.4550   24.1206 C   0  0  0  0  0  0  0  0  0  0  0  0
    7.8415   -1.8030   22.8549 N   0  0  0  0  0  0  0  0  0  0  0  0
    6.8231   -1.2398   22.1042 C   0  0  0  0  0  0  0  0  0  0  0  0
    5.8056   -1.3057   22.4147 H   0  0  0  0  0  0  0  0  0  0  0  0
    7.3390   -0.7070   20.9803 C   0  0  0  0  0  0  0  0  0  0  0  0
    6.6670    0.0129   19.8973 C   0  0  0  0  0  0  0  0  0  0  0  0
    7.1729    0.0680   18.5853 C   0  0  0  0  0  0  0  0  0  0  0  0
    8.1084   -0.4239   18.3285 H   0  0  0  0  0  0  0  0  0  0  0  0
    6.5593    0.6842   17.5666 N   0  0  0  0  0  0  0  0  0  0  0  0
    5.3945    1.3033   17.8182 C   0  0  0  0  0  0  0  0  0  0  0  0
    4.9182    1.8011   16.9712 H   0  0  0  0  0  0  0  0  0  0  0  0
    4.7998    1.3202   19.0856 C   0  0  0  0  0  0  0  0  0  0  0  0
    3.8648    1.8516   19.2317 H   0  0  0  0  0  0  0  0  0  0  0  0
    5.4434    0.6629   20.1340 C   0  0  0  0  0  0  0  0  0  0  0  0
    5.0096    0.6603   21.1325 H   0  0  0  0  0  0  0  0  0  0  0  0
    8.6937   -0.9738   21.0436 N   0  0  0  0  0  0  0  0  0  0  0  0
    9.4302   -0.6702   20.4308 H   0  0  0  0  0  0  0  0  0  0  0  0
    9.0372   -1.6138   22.1943 C   0  0  0  0  0  0  0  0  0  0  0  0
   10.6024   -1.9833   22.6082 S   0  0  0  0  0  0  0  0  0  0  0  0
    8.2466   -3.6932   24.3737 C   0  0  0  0  0  0  0  0  0  0  0  0
    8.8679   -4.1438   23.6021 H   0  0  0  0  0  0  0  0  0  0  0  0
  1  2  1  0
  2  3  1  0
  3  4  2  0
  3  5  1  0
  5  6  2  0
  6  7  1  0
  6  8  1  0
  8  9  1  0
  8 10  2  0
 10 11  1  0
 10 12  1  0
 12 13  1  0
 13 14  1  0
 14 15  1  0
 14 16  2  0
 16 17  1  0
 17 18  2  0
 18 19  1  0
 18 20  1  0
 20 21  2  0
 21 22  1  0
 21 23  1  0
 23 24  1  0
 23 25  2  0
 25 26  1  0
 16 27  1  0
 27 28  1  0
 27 29  1  0
 29 30  2  0
 12 31  2  0
 31 32  1  0
 31  5  1  0
 29 13  1  0
 25 17  1  0
M  END
>  <cnnaffinity>  (1) 
-5.31326

>  <filename>  (1) 
O=C(O)c1cccc(-n2cc(-c3cccnc3)[nH]c2=S)c1

$$$$
