
     RDKit          3D

 42 45  0  0  0  0  0  0  0  0999 V2000
    4.9903    1.8374   16.9061 H   0  0  0  0  0  0  0  0  0  0  0  0
    5.4239    1.2969   17.7454 C   0  0  0  0  0  0  0  0  0  0  0  0
    6.5727    0.6464   17.5017 N   0  0  0  0  0  0  0  0  0  0  0  0
    7.1457    0.0082   18.5290 C   0  0  0  0  0  0  0  0  0  0  0  0
    8.0794   -0.5074   18.3110 H   0  0  0  0  0  0  0  0  0  0  0  0
    6.6095   -0.0198   19.8339 C   0  0  0  0  0  0  0  0  0  0  0  0
    7.3324   -0.6575   20.9489 C   0  0  0  0  0  0  0  0  0  0  0  0
    8.4631   -1.3478   20.7449 N   0  0  0  0  0  0  0  0  0  0  0  0
    8.8618   -1.6528   22.0024 N   0  0  0  0  0  0  0  0  0  0  0  0
   10.0267   -2.1831   22.5585 C   0  0  0  0  0  0  0  0  0  0  0  0
   10.8135   -2.5674   21.9368 H   0  0  0  0  0  0  0  0  0  0  0  0
    9.9203   -2.0235   23.8962 C   0  0  0  0  0  0  0  0  0  0  0  0
   10.6103   -2.2695   24.6902 H   0  0  0  0  0  0  0  0  0  0  0  0
    8.6959   -1.3985   24.1891 N   0  0  0  0  0  0  0  0  0  0  0  0
    8.3394   -0.8762   25.4654 C   0  0  0  0  0  0  0  0  0  0  0  0
    9.1615   -0.6605   26.3352 O   0  0  0  0  0  0  0  0  0  0  0  0
    7.0011   -0.6805   25.6144 N   0  0  0  0  0  0  0  0  0  0  0  0
    6.4318   -0.9018   24.8125 H   0  0  0  0  0  0  0  0  0  0  0  0
    6.4730    0.1716   26.6777 C   0  0  0  0  0  0  0  0  0  0  0  0
    6.9271   -0.1712   27.6184 H   0  0  0  0  0  0  0  0  0  0  0  0
    4.9494    0.0126   26.7805 C   0  0  0  0  0  0  0  0  0  0  0  0
    4.6510    0.4212   27.7555 H   0  0  0  0  0  0  0  0  0  0  0  0
    4.6937   -1.0538   26.8021 H   0  0  0  0  0  0  0  0  0  0  0  0
    4.1469    0.7528   25.6920 C   0  0  0  0  0  0  0  0  0  0  0  0
    4.2984    0.2638   24.7185 H   0  0  0  0  0  0  0  0  0  0  0  0
    3.0765    0.6744   25.9227 H   0  0  0  0  0  0  0  0  0  0  0  0
    4.5581    2.2307   25.5781 C   0  0  0  0  0  0  0  0  0  0  0  0
    4.0237    2.7056   24.7442 H   0  0  0  0  0  0  0  0  0  0  0  0
    4.2619    2.7589   26.4991 H   0  0  0  0  0  0  0  0  0  0  0  0
    6.0766    2.3769   25.3843 C   0  0  0  0  0  0  0  0  0  0  0  0
    6.3553    3.4378   25.3720 H   0  0  0  0  0  0  0  0  0  0  0  0
    6.3690    1.9649   24.4037 H   0  0  0  0  0  0  0  0  0  0  0  0
    6.8500    1.6641   26.5079 C   0  0  0  0  0  0  0  0  0  0  0  0
    6.6099    2.1577   27.4616 H   0  0  0  0  0  0  0  0  0  0  0  0
    7.9335    1.7561   26.3620 H   0  0  0  0  0  0  0  0  0  0  0  0
    8.0543   -1.1776   22.9602 C   0  0  0  0  0  0  0  0  0  0  0  0
    7.0013   -0.5494   22.3249 C   0  0  0  0  0  0  0  0  0  0  0  0
    6.1479   -0.0607   22.7514 H   0  0  0  0  0  0  0  0  0  0  0  0
    5.3863    0.6359   20.0573 C   0  0  0  0  0  0  0  0  0  0  0  0
    4.9120    0.6410   21.0440 H   0  0  0  0  0  0  0  0  0  0  0  0
    4.7920    1.3066   18.9939 C   0  0  0  0  0  0  0  0  0  0  0  0
    3.8725    1.8644   19.1313 H   0  0  0  0  0  0  0  0  0  0  0  0
  1  2  1  0
  2  3  2  0
  3  4  1  0
  4  5  1  0
  4  6  2  0
  6  7  1  0
  7  8  2  0
  8  9  1  0
  9 10  1  0
 10 11  1  0
 10 12  2  0
 12 13  1  0
 12 14  1  0
 14 15  1  0
 15 16  2  0
 15 17  1  0
 17 18  1  0
 17 19  1  0
 19 20  1  0
 19 21  1  0
 21 22  1  0
 21 23  1  0
 21 24  1  0
 24 25  1  0
 24 26  1  0
 24 27  1  0
 27 28  1  0
 27 29  1  0
 27 30  1  0
 30 31  1  0
 30 32  1  0
 30 33  1  0
 33 34  1  0
 33 35  1  0
 14 36  1  0
 36 37  2  0
 37 38  1  0
  6 39  1  0
 39 40  1  0
 39 41  2  0
 41 42  1  0
 41  2  1  0
 37  7  1  0
 36  9  1  0
 33 19  1  0
M  END
>  <cnnaffinity>  (1) 
-5.54246

>  <filename>  (1) 
O=C(NC1CCCCC1)n1ccn2nc(-c3cccnc3)cc12

$$$$
