
     RDKit          3D

 32 35  0  0  0  0  0  0  0  0999 V2000
    5.0646    3.6789   30.5011 H   0  0  0  0  0  0  0  0  0  0  0  0
    5.5704    3.0300   29.9840 O   0  0  0  0  0  0  0  0  0  0  0  0
    5.0446    3.3225   28.7803 C   0  0  0  0  0  0  0  0  0  0  0  0
    4.2152    4.2056   28.7350 O   0  0  0  0  0  0  0  0  0  0  0  0
    5.5647    2.5049   27.6475 C   0  0  0  0  0  0  0  0  0  0  0  0
    6.5351    1.5022   27.8570 C   0  0  0  0  0  0  0  0  0  0  0  0
    6.9215    1.3082   28.8555 H   0  0  0  0  0  0  0  0  0  0  0  0
    7.0114    0.7477   26.7913 C   0  0  0  0  0  0  0  0  0  0  0  0
    7.7606   -0.0135   26.9894 H   0  0  0  0  0  0  0  0  0  0  0  0
    6.5357    0.9632   25.4804 C   0  0  0  0  0  0  0  0  0  0  0  0
    7.0348    0.1616   24.3365 C   0  0  0  0  0  0  0  0  0  0  0  0
    6.6304    0.3501   23.1157 N   0  0  0  0  0  0  0  0  0  0  0  0
    7.2912   -0.5029   22.2845 N   0  0  0  0  0  0  0  0  0  0  0  0
    7.4110   -0.6949   20.9224 C   0  0  0  0  0  0  0  0  0  0  0  0
    6.6479    0.0128   19.8967 C   0  0  0  0  0  0  0  0  0  0  0  0
    7.1680    0.0493   18.5925 C   0  0  0  0  0  0  0  0  0  0  0  0
    8.1160   -0.4374   18.3632 H   0  0  0  0  0  0  0  0  0  0  0  0
    6.5626    0.6707   17.5793 N   0  0  0  0  0  0  0  0  0  0  0  0
    5.4001    1.2902   17.8364 C   0  0  0  0  0  0  0  0  0  0  0  0
    4.9285    1.7903   16.9918 H   0  0  0  0  0  0  0  0  0  0  0  0
    4.8009    1.3074   19.1000 C   0  0  0  0  0  0  0  0  0  0  0  0
    3.8716    1.8439   19.2446 H   0  0  0  0  0  0  0  0  0  0  0  0
    5.4301    0.6553   20.1572 C   0  0  0  0  0  0  0  0  0  0  0  0
    5.0089    0.6475   21.1620 H   0  0  0  0  0  0  0  0  0  0  0  0
    8.3289   -1.6057   20.7035 N   0  0  0  0  0  0  0  0  0  0  0  0
    8.8359   -2.0380   21.9081 N   0  0  0  0  0  0  0  0  0  0  0  0
    8.2086   -1.3526   22.8230 C   0  0  0  0  0  0  0  0  0  0  0  0
    8.2629   -1.1161   24.5387 S   0  0  0  0  0  0  0  0  0  0  0  0
    5.5664    1.9712   25.2749 C   0  0  0  0  0  0  0  0  0  0  0  0
    5.1945    2.1562   24.2718 H   0  0  0  0  0  0  0  0  0  0  0  0
    5.0861    2.7301   26.3409 C   0  0  0  0  0  0  0  0  0  0  0  0
    4.3381    3.5029   26.1682 H   0  0  0  0  0  0  0  0  0  0  0  0
  1  2  1  0
  2  3  1  0
  3  4  2  0
  3  5  1  0
  5  6  2  0
  6  7  1  0
  6  8  1  0
  8  9  1  0
  8 10  2  0
 10 11  1  0
 11 12  2  0
 12 13  1  0
 13 14  1  0
 14 15  1  0
 15 16  2  0
 16 17  1  0
 16 18  1  0
 18 19  2  0
 19 20  1  0
 19 21  1  0
 21 22  1  0
 21 23  2  0
 23 24  1  0
 14 25  2  0
 25 26  1  0
 26 27  2  0
 27 28  1  0
 10 29  1  0
 29 30  1  0
 29 31  2  0
 31 32  1  0
 31  5  1  0
 28 11  1  0
 27 13  1  0
 23 15  1  0
M  END
>  <cnnaffinity>  (1) 
-5.15845

>  <filename>  (1) 
O=C(O)c1ccc(-c2nn3c(-c4cccnc4)nnc3s2)cc1

$$$$
