
     RDKit          3D

 31 32  0  0  0  0  0  0  0  0999 V2000
    5.0114    1.7439   17.0582 H   0  0  0  0  0  0  0  0  0  0  0  0
    5.4488    1.2315   17.9104 C   0  0  0  0  0  0  0  0  0  0  0  0
    6.6096    0.5978   17.6875 N   0  0  0  0  0  0  0  0  0  0  0  0
    7.1844   -0.0073   18.7281 C   0  0  0  0  0  0  0  0  0  0  0  0
    8.1457   -0.4879   18.5438 H   0  0  0  0  0  0  0  0  0  0  0  0
    6.6216   -0.0449   20.0108 C   0  0  0  0  0  0  0  0  0  0  0  0
    7.4533   -0.7253   21.0231 C   0  0  0  0  0  0  0  0  0  0  0  0
    8.6507   -0.8675   20.9054 O   0  0  0  0  0  0  0  0  0  0  0  0
    6.8022   -1.1621   22.1324 N   0  0  0  0  0  0  0  0  0  0  0  0
    5.8225   -1.3474   22.2586 H   0  0  0  0  0  0  0  0  0  0  0  0
    7.6084   -2.0931   23.2137 S   0  0  0  0  0  0  0  0  0  0  0  0
    6.4896   -2.4887   24.0442 O   0  0  0  0  0  0  0  0  0  0  0  0
    8.4430   -3.0689   22.5495 O   0  0  0  0  0  0  0  0  0  0  0  0
    8.6640   -0.8836   24.0494 C   0  0  0  0  0  0  0  0  0  0  0  0
    9.9859   -1.3116   24.2906 C   0  0  0  0  0  0  0  0  0  0  0  0
   10.3184   -2.2990   23.9686 H   0  0  0  0  0  0  0  0  0  0  0  0
   10.8915   -0.4725   24.9418 C   0  0  0  0  0  0  0  0  0  0  0  0
   11.8971   -0.7784   25.1893 H   0  0  0  0  0  0  0  0  0  0  0  0
   10.5148    0.8016   25.3398 C   0  0  0  0  0  0  0  0  0  0  0  0
   11.2312    1.4714   25.8042 H   0  0  0  0  0  0  0  0  0  0  0  0
    9.2029    1.2134   25.1509 C   0  0  0  0  0  0  0  0  0  0  0  0
    8.9111    2.1881   25.5259 H   0  0  0  0  0  0  0  0  0  0  0  0
    8.2357    0.3955   24.5343 C   0  0  0  0  0  0  0  0  0  0  0  0
    6.8259    1.0173   24.4204 C   0  0  0  0  0  0  0  0  0  0  0  0
    6.6562    2.0676   25.2504 F   0  0  0  0  0  0  0  0  0  0  0  0
    6.5913    1.4755   23.1707 F   0  0  0  0  0  0  0  0  0  0  0  0
    5.8532    0.1425   24.7110 F   0  0  0  0  0  0  0  0  0  0  0  0
    5.4061    0.6218   20.2370 C   0  0  0  0  0  0  0  0  0  0  0  0
    4.9494    0.6760   21.2316 H   0  0  0  0  0  0  0  0  0  0  0  0
    4.8143    1.2711   19.1565 C   0  0  0  0  0  0  0  0  0  0  0  0
    3.8923    1.8254   19.2777 H   0  0  0  0  0  0  0  0  0  0  0  0
  1  2  1  0
  2  3  2  0
  3  4  1  0
  4  5  1  0
  4  6  2  0
  6  7  1  0
  7  8  2  0
  7  9  1  0
  9 10  1  0
  9 11  1  0
 11 12  2  0
 11 13  2  0
 11 14  1  0
 14 15  2  0
 15 16  1  0
 15 17  1  0
 17 18  1  0
 17 19  2  0
 19 20  1  0
 19 21  1  0
 21 22  1  0
 21 23  2  0
 23 24  1  0
 24 25  1  0
 24 26  1  0
 24 27  1  0
  6 28  1  0
 28 29  1  0
 28 30  2  0
 30 31  1  0
 30  2  1  0
 23 14  1  0
M  END
>  <cnnaffinity>  (1) 
-4.99038

>  <filename>  (1) 
O=C(NS(=O)(=O)c1ccccc1C(F)(F)F)c1cccnc1

$$$$
