
     RDKit          3D

 37 39  0  0  0  0  0  0  0  0999 V2000
    4.9351    1.8024   16.9940 H   0  0  0  0  0  0  0  0  0  0  0  0
    5.4108    1.2953   17.8298 C   0  0  0  0  0  0  0  0  0  0  0  0
    6.5570    0.6515   17.5558 N   0  0  0  0  0  0  0  0  0  0  0  0
    7.1556    0.0077   18.5654 C   0  0  0  0  0  0  0  0  0  0  0  0
    8.0888   -0.5007   18.3421 H   0  0  0  0  0  0  0  0  0  0  0  0
    6.6486   -0.0416   19.8793 C   0  0  0  0  0  0  0  0  0  0  0  0
    7.3389   -0.7437   20.9316 N   0  0  0  0  0  0  0  0  0  0  0  0
    6.6798   -1.7990   21.5281 C   0  0  0  0  0  0  0  0  0  0  0  0
    5.6794   -2.0141   21.1807 H   0  0  0  0  0  0  0  0  0  0  0  0
    7.2588   -2.5339   22.5223 C   0  0  0  0  0  0  0  0  0  0  0  0
    6.6430   -3.6545   23.1120 N   0  0  0  0  0  0  0  0  0  0  0  0
    6.8210   -3.7984   24.0872 H   0  0  0  0  0  0  0  0  0  0  0  0
    5.6538   -4.4186   22.5367 C   0  0  0  0  0  0  0  0  0  0  0  0
    5.3001   -4.3082   21.3776 O   0  0  0  0  0  0  0  0  0  0  0  0
    5.1145   -5.3263   23.4149 N   0  0  0  0  0  0  0  0  0  0  0  0
    5.4922   -5.3593   24.3407 H   0  0  0  0  0  0  0  0  0  0  0  0
    3.9459   -6.0753   23.1406 C   0  0  0  0  0  0  0  0  0  0  0  0
    2.9440   -5.5375   22.3201 C   0  0  0  0  0  0  0  0  0  0  0  0
    3.0540   -4.5094   22.0068 H   0  0  0  0  0  0  0  0  0  0  0  0
    1.8707   -6.3297   21.9138 C   0  0  0  0  0  0  0  0  0  0  0  0
    1.1348   -5.9000   21.2301 H   0  0  0  0  0  0  0  0  0  0  0  0
    1.7737   -7.6564   22.3570 C   0  0  0  0  0  0  0  0  0  0  0  0
    0.9649   -8.2877   21.9977 H   0  0  0  0  0  0  0  0  0  0  0  0
    2.7346   -8.1679   23.2443 C   0  0  0  0  0  0  0  0  0  0  0  0
    2.6756   -9.1990   23.5899 H   0  0  0  0  0  0  0  0  0  0  0  0
    3.8139   -7.3698   23.6482 C   0  0  0  0  0  0  0  0  0  0  0  0
    4.5889   -7.7554   24.3037 H   0  0  0  0  0  0  0  0  0  0  0  0
    8.5472   -2.1542   22.9986 C   0  0  0  0  0  0  0  0  0  0  0  0
    8.9779   -2.7282   23.8169 H   0  0  0  0  0  0  0  0  0  0  0  0
    9.2159   -1.1197   22.4330 C   0  0  0  0  0  0  0  0  0  0  0  0
   10.1989   -0.8058   22.7477 H   0  0  0  0  0  0  0  0  0  0  0  0
    8.6684   -0.3454   21.3284 C   0  0  0  0  0  0  0  0  0  0  0  0
    9.2663    0.5583   20.7704 O   0  0  0  0  0  0  0  0  0  0  0  0
    5.4402    0.6117   20.1426 C   0  0  0  0  0  0  0  0  0  0  0  0
    5.0149    0.5795   21.1468 H   0  0  0  0  0  0  0  0  0  0  0  0
    4.8181    1.3028   19.0978 C   0  0  0  0  0  0  0  0  0  0  0  0
    3.8869    1.8336   19.2564 H   0  0  0  0  0  0  0  0  0  0  0  0
  1  2  1  0
  2  3  2  0
  3  4  1  0
  4  5  1  0
  4  6  2  0
  6  7  1  0
  7  8  1  0
  8  9  1  0
  8 10  2  0
 10 11  1  0
 11 12  1  0
 11 13  1  0
 13 14  2  0
 13 15  1  0
 15 16  1  0
 15 17  1  0
 17 18  2  0
 18 19  1  0
 18 20  1  0
 20 21  1  0
 20 22  2  0
 22 23  1  0
 22 24  1  0
 24 25  1  0
 24 26  2  0
 26 27  1  0
 10 28  1  0
 28 29  1  0
 28 30  2  0
 30 31  1  0
 30 32  1  0
 32 33  2  0
  6 34  1  0
 34 35  1  0
 34 36  2  0
 36 37  1  0
 36  2  1  0
 32  7  1  0
 26 17  1  0
M  END
>  <cnnaffinity>  (1) 
-5.74825

>  <filename>  (1) 
O=C(Nc1ccccc1)Nc1ccc(=O)n(-c2cccnc2)c1

$$$$
