
     RDKit          3D

 26 28  0  0  0  0  0  0  0  0999 V2000
    4.9463    1.7891   16.9980 H   0  0  0  0  0  0  0  0  0  0  0  0
    5.4170    1.2838   17.8368 C   0  0  0  0  0  0  0  0  0  0  0  0
    6.5803    0.6675   17.5806 N   0  0  0  0  0  0  0  0  0  0  0  0
    7.1910    0.0528   18.6031 C   0  0  0  0  0  0  0  0  0  0  0  0
    8.1531   -0.4058   18.3699 H   0  0  0  0  0  0  0  0  0  0  0  0
    6.6630   -0.0209   19.9105 C   0  0  0  0  0  0  0  0  0  0  0  0
    7.3396   -0.7647   20.9988 C   0  0  0  0  0  0  0  0  0  0  0  0
    6.8427   -1.9736   21.5944 C   0  0  0  0  0  0  0  0  0  0  0  0
    5.9086   -2.4534   21.3061 H   0  0  0  0  0  0  0  0  0  0  0  0
    7.5828   -2.5147   22.5129 N   0  0  0  0  0  0  0  0  0  0  0  0
    8.9426   -1.5939   22.7919 S   0  0  0  0  0  0  0  0  0  0  0  0
    8.5300   -0.4117   21.6076 C   0  0  0  0  0  0  0  0  0  0  0  0
    9.2659    0.8516   21.3814 C   0  0  0  0  0  0  0  0  0  0  0  0
    8.8219    1.6592   20.5863 O   0  0  0  0  0  0  0  0  0  0  0  0
   10.5110    1.1780   22.1179 C   0  0  0  0  0  0  0  0  0  0  0  0
   10.8184    0.6603   23.7461 S   0  0  0  0  0  0  0  0  0  0  0  0
   12.1636    1.7144   23.8555 C   0  0  0  0  0  0  0  0  0  0  0  0
   12.6961    1.8009   24.7955 H   0  0  0  0  0  0  0  0  0  0  0  0
   12.4065    2.3871   22.6929 C   0  0  0  0  0  0  0  0  0  0  0  0
   13.2272    3.0865   22.5501 H   0  0  0  0  0  0  0  0  0  0  0  0
   11.4484    2.0817   21.6893 C   0  0  0  0  0  0  0  0  0  0  0  0
   11.4271    2.5234   20.6892 H   0  0  0  0  0  0  0  0  0  0  0  0
    5.4453    0.6350   20.1470 C   0  0  0  0  0  0  0  0  0  0  0  0
    5.0173    0.6381   21.1507 H   0  0  0  0  0  0  0  0  0  0  0  0
    4.8130    1.3013   19.0966 C   0  0  0  0  0  0  0  0  0  0  0  0
    3.8775    1.8332   19.2380 H   0  0  0  0  0  0  0  0  0  0  0  0
  1  2  1  0
  2  3  2  0
  3  4  1  0
  4  5  1  0
  4  6  2  0
  6  7  1  0
  7  8  1  0
  8  9  1  0
  8 10  2  0
 10 11  1  0
 11 12  1  0
 12 13  1  0
 13 14  2  0
 13 15  1  0
 15 16  1  0
 16 17  1  0
 17 18  1  0
 17 19  2  0
 19 20  1  0
 19 21  1  0
 21 22  1  0
  6 23  1  0
 23 24  1  0
 23 25  2  0
 25 26  1  0
 25  2  1  0
 12  7  2  0
 21 15  2  0
M  END
>  <cnnaffinity>  (1) 
-5.60657

>  <filename>  (1) 
O=C(c1cccs1)c1sncc1-c1cccnc1

$$$$
