
     RDKit          3D

 28 29  0  0  0  0  0  0  0  0999 V2000
    5.0905    1.7283   17.0420 H   0  0  0  0  0  0  0  0  0  0  0  0
    5.5427    1.2243   17.8980 C   0  0  0  0  0  0  0  0  0  0  0  0
    6.7099    0.5969   17.6856 N   0  0  0  0  0  0  0  0  0  0  0  0
    7.2895   -0.0040   18.7311 C   0  0  0  0  0  0  0  0  0  0  0  0
    8.2189   -0.5241   18.5089 H   0  0  0  0  0  0  0  0  0  0  0  0
    6.7412   -0.0105   20.0175 C   0  0  0  0  0  0  0  0  0  0  0  0
    7.4042   -0.6958   21.1346 C   0  0  0  0  0  0  0  0  0  0  0  0
    6.8341   -1.1316   22.1091 O   0  0  0  0  0  0  0  0  0  0  0  0
    8.7546   -0.8134   20.9871 N   0  0  0  0  0  0  0  0  0  0  0  0
    9.3575   -0.1574   20.5360 H   0  0  0  0  0  0  0  0  0  0  0  0
    9.5455   -1.7372   22.0724 S   0  0  0  0  0  0  0  0  0  0  0  0
   10.9181   -1.4463   21.7237 O   0  0  0  0  0  0  0  0  0  0  0  0
    8.9669   -3.0612   22.0034 O   0  0  0  0  0  0  0  0  0  0  0  0
    9.1383   -1.0398   23.6499 C   0  0  0  0  0  0  0  0  0  0  0  0
    8.5878   -1.8739   24.6385 C   0  0  0  0  0  0  0  0  0  0  0  0
    8.3253   -2.9083   24.4146 H   0  0  0  0  0  0  0  0  0  0  0  0
    8.3484   -1.3702   25.9164 C   0  0  0  0  0  0  0  0  0  0  0  0
    7.9521   -2.0250   26.6886 H   0  0  0  0  0  0  0  0  0  0  0  0
    8.6341   -0.0378   26.2228 C   0  0  0  0  0  0  0  0  0  0  0  0
    8.4721    0.3588   27.2242 H   0  0  0  0  0  0  0  0  0  0  0  0
    9.1390    0.8064   25.2288 C   0  0  0  0  0  0  0  0  0  0  0  0
    9.4322    2.4590   25.6547 Cl  0  0  0  0  0  0  0  0  0  0  0  0
    9.4131    0.3111   23.9374 C   0  0  0  0  0  0  0  0  0  0  0  0
   10.1117    1.3650   22.7678 Cl  0  0  0  0  0  0  0  0  0  0  0  0
    5.5085    0.6190   20.2212 C   0  0  0  0  0  0  0  0  0  0  0  0
    5.0637    0.5856   21.2164 H   0  0  0  0  0  0  0  0  0  0  0  0
    4.9007    1.2570   19.1457 C   0  0  0  0  0  0  0  0  0  0  0  0
    3.9578    1.7821   19.2692 H   0  0  0  0  0  0  0  0  0  0  0  0
  1  2  1  0
  2  3  2  0
  3  4  1  0
  4  5  1  0
  4  6  2  0
  6  7  1  0
  7  8  2  0
  7  9  1  0
  9 10  1  0
  9 11  1  0
 11 12  2  0
 11 13  2  0
 11 14  1  0
 14 15  2  0
 15 16  1  0
 15 17  1  0
 17 18  1  0
 17 19  2  0
 19 20  1  0
 19 21  1  0
 21 22  1  0
 21 23  2  0
 23 24  1  0
  6 25  1  0
 25 26  1  0
 25 27  2  0
 27 28  1  0
 27  2  1  0
 23 14  1  0
M  END
>  <cnnaffinity>  (1) 
-5.60288

>  <filename>  (1) 
O=C(NS(=O)(=O)c1cccc(Cl)c1Cl)c1cccnc1

$$$$
