
     RDKit          3D

 32 34  0  0  0  0  0  0  0  0999 V2000
    7.9760    5.5909   20.8077 H   0  0  0  0  0  0  0  0  0  0  0  0
    7.9543    4.9737   21.5502 O   0  0  0  0  0  0  0  0  0  0  0  0
    6.6215    4.5307   21.7563 C   0  0  0  0  0  0  0  0  0  0  0  0
    6.1193    4.2117   20.8270 H   0  0  0  0  0  0  0  0  0  0  0  0
    6.0153    5.3404   22.1963 H   0  0  0  0  0  0  0  0  0  0  0  0
    6.5900    3.3719   22.7382 C   0  0  0  0  0  0  0  0  0  0  0  0
    7.1420    3.6519   23.6465 H   0  0  0  0  0  0  0  0  0  0  0  0
    5.5437    3.2380   23.0470 H   0  0  0  0  0  0  0  0  0  0  0  0
    7.0662    2.0952   22.2122 N   0  0  0  0  0  0  0  0  0  0  0  0
    7.5581    2.0111   21.3349 H   0  0  0  0  0  0  0  0  0  0  0  0
    7.1476    0.9971   23.0080 C   0  0  0  0  0  0  0  0  0  0  0  0
    6.8549    1.0221   24.1976 O   0  0  0  0  0  0  0  0  0  0  0  0
    7.5971   -0.2009   22.2904 C   0  0  0  0  0  0  0  0  0  0  0  0
    7.4179   -0.6072   20.9727 C   0  0  0  0  0  0  0  0  0  0  0  0
    6.6522    0.0430   19.9161 C   0  0  0  0  0  0  0  0  0  0  0  0
    7.1582    0.0442   18.6080 C   0  0  0  0  0  0  0  0  0  0  0  0
    8.0994   -0.4519   18.3785 H   0  0  0  0  0  0  0  0  0  0  0  0
    6.5624    0.6596   17.5844 N   0  0  0  0  0  0  0  0  0  0  0  0
    5.4025    1.2919   17.8250 C   0  0  0  0  0  0  0  0  0  0  0  0
    4.9530    1.8017   16.9746 H   0  0  0  0  0  0  0  0  0  0  0  0
    4.7874    1.3079   19.0806 C   0  0  0  0  0  0  0  0  0  0  0  0
    3.8556    1.8447   19.2217 H   0  0  0  0  0  0  0  0  0  0  0  0
    5.4116    0.6606   20.1444 C   0  0  0  0  0  0  0  0  0  0  0  0
    4.9550    0.6590   21.1349 H   0  0  0  0  0  0  0  0  0  0  0  0
    7.9721   -1.8369   20.7461 N   0  0  0  0  0  0  0  0  0  0  0  0
    8.4021   -2.2095   21.9190 C   0  0  0  0  0  0  0  0  0  0  0  0
    9.1798   -3.6063   22.6159 S   0  0  0  0  0  0  0  0  0  0  0  0
    9.3030   -2.7942   24.1654 C   0  0  0  0  0  0  0  0  0  0  0  0
    9.8335   -3.2916   24.9672 H   0  0  0  0  0  0  0  0  0  0  0  0
    8.7038   -1.5869   24.1493 C   0  0  0  0  0  0  0  0  0  0  0  0
    8.5192   -0.8631   24.9335 H   0  0  0  0  0  0  0  0  0  0  0  0
    8.2082   -1.2799   22.8934 N   0  0  0  0  0  0  0  0  0  0  0  0
  1  2  1  0
  2  3  1  0
  3  4  1  0
  3  5  1  0
  3  6  1  0
  6  7  1  0
  6  8  1  0
  6  9  1  0
  9 10  1  0
  9 11  1  0
 11 12  2  0
 11 13  1  0
 13 14  2  0
 14 15  1  0
 15 16  2  0
 16 17  1  0
 16 18  1  0
 18 19  2  0
 19 20  1  0
 19 21  1  0
 21 22  1  0
 21 23  2  0
 23 24  1  0
 14 25  1  0
 25 26  2  0
 26 27  1  0
 27 28  1  0
 28 29  1  0
 28 30  2  0
 30 31  1  0
 30 32  1  0
 32 13  1  0
 23 15  1  0
 32 26  1  0
M  END
>  <cnnaffinity>  (1) 
-5.09927

>  <filename>  (1) 
O=C(NCCO)c1c(-c2cccnc2)nc2sccn12

$$$$
