
     RDKit          3D

 30 31  0  0  0  0  0  0  0  0999 V2000
    6.7538   -5.3801   28.9481 H   0  0  0  0  0  0  0  0  0  0  0  0
    6.1523   -5.2178   28.1980 O   0  0  0  0  0  0  0  0  0  0  0  0
    6.9500   -4.5475   27.3654 C   0  0  0  0  0  0  0  0  0  0  0  0
    8.0843   -4.2871   27.7051 O   0  0  0  0  0  0  0  0  0  0  0  0
    6.2718   -4.1634   25.9685 C   0  0  0  0  0  0  0  0  0  0  0  0
    5.1450   -4.5752   25.6957 O   0  0  0  0  0  0  0  0  0  0  0  0
    7.0187   -3.3328   25.0646 C   0  0  0  0  0  0  0  0  0  0  0  0
    7.9237   -2.8851   25.4357 H   0  0  0  0  0  0  0  0  0  0  0  0
    6.5918   -3.0814   23.7892 C   0  0  0  0  0  0  0  0  0  0  0  0
    5.4406   -3.5635   23.3692 O   0  0  0  0  0  0  0  0  0  0  0  0
    5.0555   -4.0265   24.1637 H   0  0  0  0  0  0  0  0  0  0  0  0
    7.3280   -2.2542   22.8360 C   0  0  0  0  0  0  0  0  0  0  0  0
    8.7044   -2.0387   22.9850 C   0  0  0  0  0  0  0  0  0  0  0  0
    9.2820   -2.5391   23.7598 H   0  0  0  0  0  0  0  0  0  0  0  0
    9.4122   -1.2382   22.1844 N   0  0  0  0  0  0  0  0  0  0  0  0
    8.7652   -0.6057   21.1953 C   0  0  0  0  0  0  0  0  0  0  0  0
    9.3618    0.0620   20.5745 H   0  0  0  0  0  0  0  0  0  0  0  0
    7.3825   -0.7443   20.9399 C   0  0  0  0  0  0  0  0  0  0  0  0
    6.6760    0.0025   19.8456 C   0  0  0  0  0  0  0  0  0  0  0  0
    7.1712    0.0506   18.5254 C   0  0  0  0  0  0  0  0  0  0  0  0
    8.0988   -0.4696   18.2804 H   0  0  0  0  0  0  0  0  0  0  0  0
    6.5707    0.6864   17.5101 N   0  0  0  0  0  0  0  0  0  0  0  0
    5.4210    1.3247   17.7830 C   0  0  0  0  0  0  0  0  0  0  0  0
    4.9513    1.8358   16.9465 H   0  0  0  0  0  0  0  0  0  0  0  0
    4.8282    1.3458   19.0498 C   0  0  0  0  0  0  0  0  0  0  0  0
    3.8939    1.8782   19.2013 H   0  0  0  0  0  0  0  0  0  0  0  0
    5.4628    0.6700   20.0941 C   0  0  0  0  0  0  0  0  0  0  0  0
    5.0410    0.6698   21.1009 H   0  0  0  0  0  0  0  0  0  0  0  0
    6.6692   -1.6022   21.7778 C   0  0  0  0  0  0  0  0  0  0  0  0
    5.6052   -1.7710   21.6227 H   0  0  0  0  0  0  0  0  0  0  0  0
  1  2  1  0
  2  3  1  0
  3  4  2  0
  3  5  1  0
  5  6  2  0
  5  7  1  0
  7  8  1  0
  7  9  2  3
  9 10  1  0
 10 11  1  0
  9 12  1  0
 12 13  2  0
 13 14  1  0
 13 15  1  0
 15 16  2  0
 16 17  1  0
 16 18  1  0
 18 19  1  0
 19 20  2  0
 20 21  1  0
 20 22  1  0
 22 23  2  0
 23 24  1  0
 23 25  1  0
 25 26  1  0
 25 27  2  0
 27 28  1  0
 18 29  2  0
 29 30  1  0
 29 12  1  0
 27 19  1  0
M  END
>  <cnnaffinity>  (1) 
-4.69318

>  <filename>  (1) 
O=C(O)C(=O)C=C(O)c1cncc(-c2cccnc2)c1

$$$$
