
     RDKit          3D

 37 39  0  0  0  0  0  0  0  0999 V2000
    4.9475    1.7770   17.0466 H   0  0  0  0  0  0  0  0  0  0  0  0
    5.4220    1.2613   17.8766 C   0  0  0  0  0  0  0  0  0  0  0  0
    6.5803    0.6429   17.5972 N   0  0  0  0  0  0  0  0  0  0  0  0
    7.2172    0.0295   18.5999 C   0  0  0  0  0  0  0  0  0  0  0  0
    8.1701   -0.4410   18.3710 H   0  0  0  0  0  0  0  0  0  0  0  0
    6.7093   -0.0312   19.9190 C   0  0  0  0  0  0  0  0  0  0  0  0
    7.4193   -0.6956   20.9895 N   0  0  0  0  0  0  0  0  0  0  0  0
    6.8651   -1.6350   21.8908 C   0  0  0  0  0  0  0  0  0  0  0  0
    5.7867   -2.1660   21.7953 O   0  0  0  0  0  0  0  0  0  0  0  0
    7.8209   -1.9159   22.8286 N   0  0  0  0  0  0  0  0  0  0  0  0
    7.5019   -2.7197   23.9774 C   0  0  0  0  0  0  0  0  0  0  0  0
    8.4449   -2.9598   24.4822 H   0  0  0  0  0  0  0  0  0  0  0  0
    7.0150   -3.6445   23.6502 H   0  0  0  0  0  0  0  0  0  0  0  0
    6.6390   -2.0128   24.8819 N   0  0  0  0  0  0  0  0  0  0  0  0
    5.6985   -2.3070   25.0525 H   0  0  0  0  0  0  0  0  0  0  0  0
    7.0760   -0.9298   25.5858 C   0  0  0  0  0  0  0  0  0  0  0  0
    8.2632   -0.6343   25.6291 O   0  0  0  0  0  0  0  0  0  0  0  0
    6.0224   -0.1357   26.3197 C   0  0  0  0  0  0  0  0  0  0  0  0
    6.4333    0.6960   27.3805 C   0  0  0  0  0  0  0  0  0  0  0  0
    7.4839    0.7244   27.6660 H   0  0  0  0  0  0  0  0  0  0  0  0
    5.5060    1.4902   28.0563 C   0  0  0  0  0  0  0  0  0  0  0  0
    5.8344    2.1380   28.8627 H   0  0  0  0  0  0  0  0  0  0  0  0
    4.1584    1.4767   27.6830 C   0  0  0  0  0  0  0  0  0  0  0  0
    3.4397    2.1106   28.1955 H   0  0  0  0  0  0  0  0  0  0  0  0
    3.7400    0.6570   26.6319 C   0  0  0  0  0  0  0  0  0  0  0  0
    2.6990    0.6461   26.3231 H   0  0  0  0  0  0  0  0  0  0  0  0
    4.6608   -0.1440   25.9573 C   0  0  0  0  0  0  0  0  0  0  0  0
    4.2932   -0.7452   25.1279 H   0  0  0  0  0  0  0  0  0  0  0  0
    9.1129   -1.4131   22.4401 C   0  0  0  0  0  0  0  0  0  0  0  0
    9.8099   -2.1951   22.1226 H   0  0  0  0  0  0  0  0  0  0  0  0
    9.6129   -0.8045   23.1988 H   0  0  0  0  0  0  0  0  0  0  0  0
    8.7858   -0.5934   21.2119 C   0  0  0  0  0  0  0  0  0  0  0  0
    9.5756   -0.0107   20.5147 O   0  0  0  0  0  0  0  0  0  0  0  0
    5.4864    0.5959   20.1892 C   0  0  0  0  0  0  0  0  0  0  0  0
    5.0681    0.5425   21.1948 H   0  0  0  0  0  0  0  0  0  0  0  0
    4.8349    1.2706   19.1466 C   0  0  0  0  0  0  0  0  0  0  0  0
    3.9009    1.8068   19.3044 H   0  0  0  0  0  0  0  0  0  0  0  0
  1  2  1  0
  2  3  2  0
  3  4  1  0
  4  5  1  0
  4  6  2  0
  6  7  1  0
  7  8  1  0
  8  9  2  0
  8 10  1  0
 10 11  1  0
 11 12  1  0
 11 13  1  0
 11 14  1  0
 14 15  1  0
 14 16  1  0
 16 17  2  0
 16 18  1  0
 18 19  2  0
 19 20  1  0
 19 21  1  0
 21 22  1  0
 21 23  2  0
 23 24  1  0
 23 25  1  0
 25 26  1  0
 25 27  2  0
 27 28  1  0
 10 29  1  0
 29 30  1  0
 29 31  1  0
 29 32  1  0
 32 33  2  0
  6 34  1  0
 34 35  1  0
 34 36  2  0
 36 37  1  0
 36  2  1  0
 32  7  1  0
 27 18  1  0
M  END
>  <cnnaffinity>  (1) 
-5.14873

>  <filename>  (1) 
O=C(NCN1CC(=O)N(c2cccnc2)C1=O)c1ccccc1

$$$$
