
     RDKit          3D

 31 33  0  0  0  0  0  0  0  0999 V2000
    4.9396    1.7783   17.0031 H   0  0  0  0  0  0  0  0  0  0  0  0
    5.4098    1.2810   17.8490 C   0  0  0  0  0  0  0  0  0  0  0  0
    6.5730    0.6589   17.5969 N   0  0  0  0  0  0  0  0  0  0  0  0
    7.1910    0.0478   18.6100 C   0  0  0  0  0  0  0  0  0  0  0  0
    8.1376   -0.4307   18.3735 H   0  0  0  0  0  0  0  0  0  0  0  0
    6.6752    0.0041   19.9165 C   0  0  0  0  0  0  0  0  0  0  0  0
    7.3870   -0.6870   20.9308 N   0  0  0  0  0  0  0  0  0  0  0  0
    8.7095   -0.9496   20.8326 N   0  0  0  0  0  0  0  0  0  0  0  0
    9.0153   -1.6141   21.9395 C   0  0  0  0  0  0  0  0  0  0  0  0
   10.0339   -1.9429   22.1087 H   0  0  0  0  0  0  0  0  0  0  0  0
    7.8747   -1.7981   22.7665 C   0  0  0  0  0  0  0  0  0  0  0  0
    7.7371   -2.4665   24.0055 N   0  0  0  0  0  0  0  0  0  0  0  0
    8.4916   -3.0497   24.3278 H   0  0  0  0  0  0  0  0  0  0  0  0
    6.6801   -2.3019   24.8732 C   0  0  0  0  0  0  0  0  0  0  0  0
    5.9206   -1.3545   24.8178 O   0  0  0  0  0  0  0  0  0  0  0  0
    6.5145   -3.4155   25.9288 C   0  0  0  0  0  0  0  0  0  0  0  0
    7.0294   -4.7247   25.8123 C   0  0  0  0  0  0  0  0  0  0  0  0
    7.6033   -5.0535   24.9533 H   0  0  0  0  0  0  0  0  0  0  0  0
    6.7559   -5.6726   26.8073 C   0  0  0  0  0  0  0  0  0  0  0  0
    7.1544   -6.6817   26.7342 H   0  0  0  0  0  0  0  0  0  0  0  0
    6.0129   -5.4205   27.8906 N   0  0  0  0  0  0  0  0  0  0  0  0
    5.5061   -4.1877   28.0039 C   0  0  0  0  0  0  0  0  0  0  0  0
    4.8963   -4.0043   28.8854 H   0  0  0  0  0  0  0  0  0  0  0  0
    5.7193   -3.1731   27.0657 C   0  0  0  0  0  0  0  0  0  0  0  0
    5.2444   -2.2110   27.2086 H   0  0  0  0  0  0  0  0  0  0  0  0
    6.8626   -1.1937   22.0731 C   0  0  0  0  0  0  0  0  0  0  0  0
    5.8292   -1.1179   22.3333 H   0  0  0  0  0  0  0  0  0  0  0  0
    5.4526    0.6438   20.1741 C   0  0  0  0  0  0  0  0  0  0  0  0
    5.0141    0.6512   21.1744 H   0  0  0  0  0  0  0  0  0  0  0  0
    4.8210    1.2985   19.1156 C   0  0  0  0  0  0  0  0  0  0  0  0
    3.8895    1.8288   19.2637 H   0  0  0  0  0  0  0  0  0  0  0  0
  1  2  1  0
  2  3  2  0
  3  4  1  0
  4  5  1  0
  4  6  2  0
  6  7  1  0
  7  8  1  0
  8  9  2  0
  9 10  1  0
  9 11  1  0
 11 12  1  0
 12 13  1  0
 12 14  1  0
 14 15  2  0
 14 16  1  0
 16 17  2  0
 17 18  1  0
 17 19  1  0
 19 20  1  0
 19 21  2  0
 21 22  1  0
 22 23  1  0
 22 24  2  0
 24 25  1  0
 11 26  2  0
 26 27  1  0
  6 28  1  0
 28 29  1  0
 28 30  2  0
 30 31  1  0
 30  2  1  0
 26  7  1  0
 24 16  1  0
M  END
>  <cnnaffinity>  (1) 
-5.07305

>  <filename>  (1) 
O=C(Nc1cnn(-c2cccnc2)c1)c1ccncc1

$$$$
