
     RDKit          3D

 38 39  0  0  0  0  0  0  0  0999 V2000
   15.2688   -0.0883   23.2373 H   0  0  0  0  0  0  0  0  0  0  0  0
   14.4786    0.0128   22.6822 O   0  0  0  0  0  0  0  0  0  0  0  0
   13.8164    1.1632   23.1547 N   0  0  0  0  0  0  0  0  0  0  0  0
   13.4752    1.6674   22.3494 H   0  0  0  0  0  0  0  0  0  0  0  0
   12.8952    1.0436   24.1978 C   0  0  0  0  0  0  0  0  0  0  0  0
   13.0679    0.2864   25.1305 O   0  0  0  0  0  0  0  0  0  0  0  0
   11.7265    2.0265   24.1365 C   0  0  0  0  0  0  0  0  0  0  0  0
   11.5161    2.2986   23.0929 H   0  0  0  0  0  0  0  0  0  0  0  0
   12.0358    2.9600   24.6225 H   0  0  0  0  0  0  0  0  0  0  0  0
   10.4642    1.4297   24.7969 C   0  0  0  0  0  0  0  0  0  0  0  0
    9.7624    2.2382   25.0359 H   0  0  0  0  0  0  0  0  0  0  0  0
   10.7605    0.9714   25.7498 H   0  0  0  0  0  0  0  0  0  0  0  0
    9.8319    0.3881   23.8588 C   0  0  0  0  0  0  0  0  0  0  0  0
    9.7745    0.8460   22.8598 H   0  0  0  0  0  0  0  0  0  0  0  0
   10.5222   -0.4619   23.7612 H   0  0  0  0  0  0  0  0  0  0  0  0
    8.4275   -0.1553   24.1915 C   0  0  0  0  0  0  0  0  0  0  0  0
    8.4429   -0.7775   25.0959 H   0  0  0  0  0  0  0  0  0  0  0  0
    7.7491    0.6819   24.4183 H   0  0  0  0  0  0  0  0  0  0  0  0
    7.8785   -0.9432   23.0164 C   0  0  0  0  0  0  0  0  0  0  0  0
    8.1275   -2.3471   22.8620 C   0  0  0  0  0  0  0  0  0  0  0  0
    8.7246   -2.8615   23.6168 H   0  0  0  0  0  0  0  0  0  0  0  0
    7.6111   -3.0301   21.8066 C   0  0  0  0  0  0  0  0  0  0  0  0
    7.7279   -4.0930   21.6595 H   0  0  0  0  0  0  0  0  0  0  0  0
    6.7790   -2.3886   20.8001 C   0  0  0  0  0  0  0  0  0  0  0  0
    6.1623   -2.9974   19.9442 O   0  0  0  0  0  0  0  0  0  0  0  0
    6.7570   -0.9537   20.8855 N   0  0  0  0  0  0  0  0  0  0  0  0
    6.2751   -0.1487   19.7876 C   0  0  0  0  0  0  0  0  0  0  0  0
    6.9850   -0.0573   18.5747 C   0  0  0  0  0  0  0  0  0  0  0  0
    7.8949   -0.6390   18.4440 H   0  0  0  0  0  0  0  0  0  0  0  0
    6.5941    0.7000   17.5424 N   0  0  0  0  0  0  0  0  0  0  0  0
    5.4721    1.4241   17.6869 C   0  0  0  0  0  0  0  0  0  0  0  0
    5.1916    2.0423   16.8371 H   0  0  0  0  0  0  0  0  0  0  0  0
    4.7048    1.4207   18.8576 C   0  0  0  0  0  0  0  0  0  0  0  0
    3.8331    2.0621   18.9264 H   0  0  0  0  0  0  0  0  0  0  0  0
    5.1092    0.6099   19.9248 C   0  0  0  0  0  0  0  0  0  0  0  0
    4.5414    0.5523   20.8530 H   0  0  0  0  0  0  0  0  0  0  0  0
    7.2156   -0.3017   22.0116 C   0  0  0  0  0  0  0  0  0  0  0  0
    7.0186    0.7687   22.0370 H   0  0  0  0  0  0  0  0  0  0  0  0
  1  2  1  0
  2  3  1  0
  3  4  1  0
  3  5  1  0
  5  6  2  0
  5  7  1  0
  7  8  1  0
  7  9  1  0
  7 10  1  0
 10 11  1  0
 10 12  1  0
 10 13  1  0
 13 14  1  0
 13 15  1  0
 13 16  1  0
 16 17  1  0
 16 18  1  0
 16 19  1  0
 19 20  1  0
 20 21  1  0
 20 22  2  0
 22 23  1  0
 22 24  1  0
 24 25  2  0
 24 26  1  0
 26 27  1  0
 27 28  2  0
 28 29  1  0
 28 30  1  0
 30 31  2  0
 31 32  1  0
 31 33  1  0
 33 34  1  0
 33 35  2  0
 35 36  1  0
 26 37  1  0
 37 38  1  0
 37 19  2  0
 35 27  1  0
M  END
>  <cnnaffinity>  (1) 
-5.58025

>  <filename>  (1) 
O=C(CCCCc1ccc(=O)n(-c2cccnc2)c1)NO

$$$$
