
     RDKit          3D

 35 37  0  0  0  0  0  0  0  0999 V2000
    4.9700    1.7843   17.0155 H   0  0  0  0  0  0  0  0  0  0  0  0
    5.4269    1.2714   17.8571 C   0  0  0  0  0  0  0  0  0  0  0  0
    6.5872    0.6461   17.6065 N   0  0  0  0  0  0  0  0  0  0  0  0
    7.1877    0.0277   18.6284 C   0  0  0  0  0  0  0  0  0  0  0  0
    8.1294   -0.4711   18.3997 H   0  0  0  0  0  0  0  0  0  0  0  0
    6.6666    0.0069   19.9364 C   0  0  0  0  0  0  0  0  0  0  0  0
    7.4052   -0.6735   21.0344 C   0  0  0  0  0  0  0  0  0  0  0  0
    8.1188   -1.7597   20.6893 N   0  0  0  0  0  0  0  0  0  0  0  0
    8.7789   -2.4494   21.6217 N   0  0  0  0  0  0  0  0  0  0  0  0
    8.7883   -2.0622   22.9022 C   0  0  0  0  0  0  0  0  0  0  0  0
    9.3592   -2.7057   23.5723 H   0  0  0  0  0  0  0  0  0  0  0  0
    8.0771   -0.9094   23.3358 C   0  0  0  0  0  0  0  0  0  0  0  0
    8.0305   -0.4208   24.6603 N   0  0  0  0  0  0  0  0  0  0  0  0
    8.7300   -0.6967   25.3258 H   0  0  0  0  0  0  0  0  0  0  0  0
    6.8857    0.0745   25.2751 C   0  0  0  0  0  0  0  0  0  0  0  0
    5.7942    0.1354   24.7518 O   0  0  0  0  0  0  0  0  0  0  0  0
    7.1526    0.4694   26.5744 N   0  0  0  0  0  0  0  0  0  0  0  0
    8.1053    0.7368   26.7373 H   0  0  0  0  0  0  0  0  0  0  0  0
    6.1650    0.9898   27.4459 C   0  0  0  0  0  0  0  0  0  0  0  0
    4.9191    0.3490   27.5094 C   0  0  0  0  0  0  0  0  0  0  0  0
    4.7480   -0.4924   26.8496 H   0  0  0  0  0  0  0  0  0  0  0  0
    3.9287    0.8026   28.3801 C   0  0  0  0  0  0  0  0  0  0  0  0
    2.9633    0.3055   28.4448 H   0  0  0  0  0  0  0  0  0  0  0  0
    4.1804    1.9235   29.1759 C   0  0  0  0  0  0  0  0  0  0  0  0
    2.9345    2.4990   30.2509 Cl  0  0  0  0  0  0  0  0  0  0  0  0
    5.4111    2.5871   29.1154 C   0  0  0  0  0  0  0  0  0  0  0  0
    5.5706    3.4583   29.7478 H   0  0  0  0  0  0  0  0  0  0  0  0
    6.4111    2.1123   28.2503 C   0  0  0  0  0  0  0  0  0  0  0  0
    7.3690    2.6256   28.1920 H   0  0  0  0  0  0  0  0  0  0  0  0
    7.3627   -0.2216   22.3614 C   0  0  0  0  0  0  0  0  0  0  0  0
    6.7731    0.6394   22.6517 H   0  0  0  0  0  0  0  0  0  0  0  0
    5.4417    0.6462   20.1724 C   0  0  0  0  0  0  0  0  0  0  0  0
    4.9939    0.6367   21.1686 H   0  0  0  0  0  0  0  0  0  0  0  0
    4.8092    1.2917   19.1113 C   0  0  0  0  0  0  0  0  0  0  0  0
    3.8740    1.8285   19.2506 H   0  0  0  0  0  0  0  0  0  0  0  0
  1  2  1  0
  2  3  2  0
  3  4  1  0
  4  5  1  0
  4  6  2  0
  6  7  1  0
  7  8  2  0
  8  9  1  0
  9 10  2  0
 10 11  1  0
 10 12  1  0
 12 13  1  0
 13 14  1  0
 13 15  1  0
 15 16  2  0
 15 17  1  0
 17 18  1  0
 17 19  1  0
 19 20  2  0
 20 21  1  0
 20 22  1  0
 22 23  1  0
 22 24  2  0
 24 25  1  0
 24 26  1  0
 26 27  1  0
 26 28  2  0
 28 29  1  0
 12 30  2  0
 30 31  1  0
  6 32  1  0
 32 33  1  0
 32 34  2  0
 34 35  1  0
 34  2  1  0
 30  7  1  0
 28 19  1  0
M  END
>  <cnnaffinity>  (1) 
-5.35667

>  <filename>  (1) 
O=C(Nc1ccc(Cl)cc1)Nc1cnnc(-c2cccnc2)c1

$$$$
