
     RDKit          3D

 35 38  0  0  0  0  0  0  0  0999 V2000
    4.9911    1.8799   16.9881 H   0  0  0  0  0  0  0  0  0  0  0  0
    5.4989    1.3437   17.7874 C   0  0  0  0  0  0  0  0  0  0  0  0
    6.6484    0.7378   17.4475 N   0  0  0  0  0  0  0  0  0  0  0  0
    7.3168    0.0689   18.3946 C   0  0  0  0  0  0  0  0  0  0  0  0
    8.2550   -0.3885   18.0746 H   0  0  0  0  0  0  0  0  0  0  0  0
    6.8484   -0.0671   19.7162 C   0  0  0  0  0  0  0  0  0  0  0  0
    7.5293   -0.8715   20.6636 N   0  0  0  0  0  0  0  0  0  0  0  0
    8.8761   -0.7752   21.0100 C   0  0  0  0  0  0  0  0  0  0  0  0
    9.4916   -0.0343   20.5237 H   0  0  0  0  0  0  0  0  0  0  0  0
    9.1469   -1.6546   22.0116 C   0  0  0  0  0  0  0  0  0  0  0  0
   10.0320   -1.8822   22.5812 H   0  0  0  0  0  0  0  0  0  0  0  0
    7.9528   -2.3002   22.2809 N   0  0  0  0  0  0  0  0  0  0  0  0
    7.5572   -3.2572   23.1685 N   0  0  0  0  0  0  0  0  0  0  0  0
    6.2621   -3.3416   22.8898 C   0  0  0  0  0  0  0  0  0  0  0  0
    5.3745   -4.1904   23.5211 N   0  0  0  0  0  0  0  0  0  0  0  0
    4.4563   -4.1999   23.1269 H   0  0  0  0  0  0  0  0  0  0  0  0
    5.6533   -5.1106   24.4946 C   0  0  0  0  0  0  0  0  0  0  0  0
    6.6464   -5.0809   25.1786 O   0  0  0  0  0  0  0  0  0  0  0  0
    4.5576   -6.1850   24.6426 C   0  0  0  0  0  0  0  0  0  0  0  0
    3.7120   -6.6162   23.5946 C   0  0  0  0  0  0  0  0  0  0  0  0
    3.7404   -6.1965   22.5946 H   0  0  0  0  0  0  0  0  0  0  0  0
    2.8162   -7.6673   23.8133 C   0  0  0  0  0  0  0  0  0  0  0  0
    2.1671   -8.0168   23.0123 H   0  0  0  0  0  0  0  0  0  0  0  0
    2.6767   -8.2920   24.9877 N   0  0  0  0  0  0  0  0  0  0  0  0
    3.4455   -7.8657   25.9965 C   0  0  0  0  0  0  0  0  0  0  0  0
    3.2907   -8.3503   26.9559 H   0  0  0  0  0  0  0  0  0  0  0  0
    4.3972   -6.8501   25.8743 C   0  0  0  0  0  0  0  0  0  0  0  0
    5.0095   -6.6119   26.7373 H   0  0  0  0  0  0  0  0  0  0  0  0
    5.8140   -2.5059   21.8571 C   0  0  0  0  0  0  0  0  0  0  0  0
    4.7973   -2.4048   21.5558 H   0  0  0  0  0  0  0  0  0  0  0  0
    6.9649   -1.8375   21.4806 C   0  0  0  0  0  0  0  0  0  0  0  0
    5.6593    0.5927   20.0688 C   0  0  0  0  0  0  0  0  0  0  0  0
    5.3029    0.5546   21.0989 H   0  0  0  0  0  0  0  0  0  0  0  0
    4.9720    1.3052   19.0836 C   0  0  0  0  0  0  0  0  0  0  0  0
    4.0480    1.8321   19.3045 H   0  0  0  0  0  0  0  0  0  0  0  0
  1  2  1  0
  2  3  2  0
  3  4  1  0
  4  5  1  0
  4  6  2  0
  6  7  1  0
  7  8  1  0
  8  9  1  0
  8 10  2  0
 10 11  1  0
 10 12  1  0
 12 13  1  0
 13 14  2  0
 14 15  1  0
 15 16  1  0
 15 17  1  0
 17 18  2  0
 17 19  1  0
 19 20  2  0
 20 21  1  0
 20 22  1  0
 22 23  1  0
 22 24  2  0
 24 25  1  0
 25 26  1  0
 25 27  2  0
 27 28  1  0
 14 29  1  0
 29 30  1  0
 29 31  2  0
  6 32  1  0
 32 33  1  0
 32 34  2  0
 34 35  1  0
 34  2  1  0
 31  7  1  0
 31 12  1  0
 27 19  1  0
M  END
>  <cnnaffinity>  (1) 
-5.30081

>  <filename>  (1) 
O=C(Nc1cc2n(-c3cccnc3)ccn2n1)c1ccncc1

$$$$
