
     RDKit          3D

 38 40  0  0  0  0  0  0  0  0999 V2000
    4.9171    1.7826   16.9926 H   0  0  0  0  0  0  0  0  0  0  0  0
    5.4015    1.2957   17.8359 C   0  0  0  0  0  0  0  0  0  0  0  0
    6.5644    0.6762   17.5759 N   0  0  0  0  0  0  0  0  0  0  0  0
    7.1736    0.0626   18.5974 C   0  0  0  0  0  0  0  0  0  0  0  0
    8.1133   -0.4366   18.3719 H   0  0  0  0  0  0  0  0  0  0  0  0
    6.6579    0.0071   19.9040 C   0  0  0  0  0  0  0  0  0  0  0  0
    7.3470   -0.6892   20.9501 N   0  0  0  0  0  0  0  0  0  0  0  0
    6.5626   -1.3997   21.8180 N   0  0  0  0  0  0  0  0  0  0  0  0
    7.1495   -2.0678   22.7722 C   0  0  0  0  0  0  0  0  0  0  0  0
    6.3036   -2.9236   23.6821 C   0  0  0  0  0  0  0  0  0  0  0  0
    6.6990   -2.8588   24.7096 H   0  0  0  0  0  0  0  0  0  0  0  0
    5.2882   -2.5307   23.7059 H   0  0  0  0  0  0  0  0  0  0  0  0
    6.2256   -4.3044   23.1841 N   0  0  0  0  0  0  0  0  0  0  0  0
    7.1400   -4.7436   23.2791 H   0  0  0  0  0  0  0  0  0  0  0  0
    5.2859   -5.1347   23.9220 C   0  0  0  0  0  0  0  0  0  0  0  0
    4.3211   -4.6067   23.9542 H   0  0  0  0  0  0  0  0  0  0  0  0
    5.0633   -6.4832   23.2475 C   0  0  0  0  0  0  0  0  0  0  0  0
    4.3665   -6.4033   22.4058 H   0  0  0  0  0  0  0  0  0  0  0  0
    6.0173   -6.8353   22.8372 H   0  0  0  0  0  0  0  0  0  0  0  0
    4.5575   -7.4217   24.3549 C   0  0  0  0  0  0  0  0  0  0  0  0
    3.4622   -7.4515   24.3645 H   0  0  0  0  0  0  0  0  0  0  0  0
    4.9028   -8.4414   24.1835 H   0  0  0  0  0  0  0  0  0  0  0  0
    5.0897   -6.8494   25.6912 C   0  0  0  0  0  0  0  0  0  0  0  0
    5.8434   -7.4996   26.1450 H   0  0  0  0  0  0  0  0  0  0  0  0
    4.2799   -6.7524   26.4203 H   0  0  0  0  0  0  0  0  0  0  0  0
    5.7080   -5.4764   25.3624 C   0  0  0  0  0  0  0  0  0  0  0  0
    5.4019   -4.6956   26.0674 H   0  0  0  0  0  0  0  0  0  0  0  0
    6.8040   -5.5235   25.4103 H   0  0  0  0  0  0  0  0  0  0  0  0
    8.6161   -2.0925   23.0224 C   0  0  0  0  0  0  0  0  0  0  0  0
    9.1317   -2.7352   23.9302 O   0  0  0  0  0  0  0  0  0  0  0  0
    9.3638   -1.2625   22.0947 C   0  0  0  0  0  0  0  0  0  0  0  0
   10.4385   -1.2068   22.2276 H   0  0  0  0  0  0  0  0  0  0  0  0
    8.7121   -0.6057   21.1106 C   0  0  0  0  0  0  0  0  0  0  0  0
    9.2273    0.0397   20.3963 H   0  0  0  0  0  0  0  0  0  0  0  0
    5.4386    0.6476   20.1652 C   0  0  0  0  0  0  0  0  0  0  0  0
    5.0235    0.6078   21.1734 H   0  0  0  0  0  0  0  0  0  0  0  0
    4.8119    1.3129   19.1072 C   0  0  0  0  0  0  0  0  0  0  0  0
    3.8770    1.8425   19.2606 H   0  0  0  0  0  0  0  0  0  0  0  0
  1  2  1  0
  2  3  2  0
  3  4  1  0
  4  5  1  0
  4  6  2  0
  6  7  1  0
  7  8  1  0
  8  9  2  0
  9 10  1  0
 10 11  1  0
 10 12  1  0
 10 13  1  0
 13 14  1  0
 13 15  1  0
 15 16  1  0
 15 17  1  0
 17 18  1  0
 17 19  1  0
 17 20  1  0
 20 21  1  0
 20 22  1  0
 20 23  1  0
 23 24  1  0
 23 25  1  0
 23 26  1  0
 26 27  1  0
 26 28  1  0
  9 29  1  0
 29 30  2  0
 29 31  1  0
 31 32  1  0
 31 33  2  0
 33 34  1  0
  6 35  1  0
 35 36  1  0
 35 37  2  0
 37 38  1  0
 37  2  1  0
 33  7  1  0
 26 15  1  0
M  END
>  <cnnaffinity>  (1) 
-5.21205

>  <filename>  (1) 
O=c1ccn(-c2cccnc2)nc1CNC1CCCC1

$$$$
