
     RDKit          3D

 29 31  0  0  0  0  0  0  0  0999 V2000
    4.9068    1.7759   17.0019 H   0  0  0  0  0  0  0  0  0  0  0  0
    5.3977    1.2939   17.8428 C   0  0  0  0  0  0  0  0  0  0  0  0
    6.5631    0.6786   17.5791 N   0  0  0  0  0  0  0  0  0  0  0  0
    7.1800    0.0589   18.5923 C   0  0  0  0  0  0  0  0  0  0  0  0
    8.1292   -0.4309   18.3836 H   0  0  0  0  0  0  0  0  0  0  0  0
    6.6667    0.0020   19.9081 C   0  0  0  0  0  0  0  0  0  0  0  0
    7.3582   -0.6860   20.9483 N   0  0  0  0  0  0  0  0  0  0  0  0
    6.7686   -1.4491   21.9498 C   0  0  0  0  0  0  0  0  0  0  0  0
    5.7018   -1.5993   21.9860 H   0  0  0  0  0  0  0  0  0  0  0  0
    7.7392   -1.9390   22.7520 C   0  0  0  0  0  0  0  0  0  0  0  0
    7.6119   -2.7891   23.9331 C   0  0  0  0  0  0  0  0  0  0  0  0
    8.6945   -3.5381   24.4229 C   0  0  0  0  0  0  0  0  0  0  0  0
    9.6610   -3.5037   23.9276 H   0  0  0  0  0  0  0  0  0  0  0  0
    8.5244   -4.3463   25.5438 C   0  0  0  0  0  0  0  0  0  0  0  0
    9.3643   -4.9214   25.9189 H   0  0  0  0  0  0  0  0  0  0  0  0
    7.2867   -4.4238   26.1880 C   0  0  0  0  0  0  0  0  0  0  0  0
    7.1477   -5.0505   27.0597 H   0  0  0  0  0  0  0  0  0  0  0  0
    6.2225   -3.6772   25.6876 C   0  0  0  0  0  0  0  0  0  0  0  0
    5.0289   -3.7453   26.2989 F   0  0  0  0  0  0  0  0  0  0  0  0
    6.3610   -2.8645   24.5722 C   0  0  0  0  0  0  0  0  0  0  0  0
    5.5114   -2.2878   24.2236 H   0  0  0  0  0  0  0  0  0  0  0  0
    8.9453   -1.4774   22.2333 N   0  0  0  0  0  0  0  0  0  0  0  0
    9.8719   -1.6063   22.5930 H   0  0  0  0  0  0  0  0  0  0  0  0
    8.7511   -0.6809   21.1354 C   0  0  0  0  0  0  0  0  0  0  0  0
    9.5937   -0.1082   20.4747 O   0  0  0  0  0  0  0  0  0  0  0  0
    5.4470    0.6451   20.1624 C   0  0  0  0  0  0  0  0  0  0  0  0
    5.0141    0.6301   21.1622 H   0  0  0  0  0  0  0  0  0  0  0  0
    4.8081    1.3113   19.1112 C   0  0  0  0  0  0  0  0  0  0  0  0
    3.8731    1.8438   19.2680 H   0  0  0  0  0  0  0  0  0  0  0  0
  1  2  1  0
  2  3  2  0
  3  4  1  0
  4  5  1  0
  4  6  2  0
  6  7  1  0
  7  8  1  0
  8  9  1  0
  8 10  2  0
 10 11  1  0
 11 12  2  0
 12 13  1  0
 12 14  1  0
 14 15  1  0
 14 16  2  0
 16 17  1  0
 16 18  1  0
 18 19  1  0
 18 20  2  0
 20 21  1  0
 10 22  1  0
 22 23  1  0
 22 24  1  0
 24 25  2  0
  6 26  1  0
 26 27  1  0
 26 28  2  0
 28 29  1  0
 28  2  1  0
 24  7  1  0
 20 11  1  0
M  END
>  <cnnaffinity>  (1) 
-5.39228

>  <filename>  (1) 
O=c1[nH]c(-c2cccc(F)c2)cn1-c1cccnc1

$$$$
