
     RDKit          3D

 29 31  0  0  0  0  0  0  0  0999 V2000
    4.9249    1.8127   16.9714 H   0  0  0  0  0  0  0  0  0  0  0  0
    5.3928    1.2966   17.8074 C   0  0  0  0  0  0  0  0  0  0  0  0
    6.5524    0.6717   17.5428 N   0  0  0  0  0  0  0  0  0  0  0  0
    7.1593    0.0339   18.5482 C   0  0  0  0  0  0  0  0  0  0  0  0
    8.1243   -0.4131   18.3152 H   0  0  0  0  0  0  0  0  0  0  0  0
    6.6403   -0.0174   19.8591 C   0  0  0  0  0  0  0  0  0  0  0  0
    7.3142   -0.6691   20.9203 N   0  0  0  0  0  0  0  0  0  0  0  0
    7.4420   -0.2298   22.2581 C   0  0  0  0  0  0  0  0  0  0  0  0
    6.9398    0.7843   22.6992 O   0  0  0  0  0  0  0  0  0  0  0  0
    8.2681   -1.2835   22.8911 C   0  0  0  0  0  0  0  0  0  0  0  0
    8.6878   -1.3037   24.2979 C   0  0  0  0  0  0  0  0  0  0  0  0
    8.6189   -2.4598   25.0977 C   0  0  0  0  0  0  0  0  0  0  0  0
    8.1625   -3.6017   24.5462 F   0  0  0  0  0  0  0  0  0  0  0  0
    8.9738   -2.4899   26.4431 C   0  0  0  0  0  0  0  0  0  0  0  0
    8.8913   -3.4414   26.9571 H   0  0  0  0  0  0  0  0  0  0  0  0
    9.4369   -1.3140   27.0481 C   0  0  0  0  0  0  0  0  0  0  0  0
    9.7475   -1.3045   28.0926 H   0  0  0  0  0  0  0  0  0  0  0  0
    9.5406   -0.1431   26.2933 C   0  0  0  0  0  0  0  0  0  0  0  0
    9.8958    0.8026   26.6820 H   0  0  0  0  0  0  0  0  0  0  0  0
    9.1764   -0.1588   24.9537 C   0  0  0  0  0  0  0  0  0  0  0  0
    9.3075    0.9809   24.2592 F   0  0  0  0  0  0  0  0  0  0  0  0
    8.5362   -2.2139   21.9375 C   0  0  0  0  0  0  0  0  0  0  0  0
    9.0724   -3.1486   22.0462 H   0  0  0  0  0  0  0  0  0  0  0  0
    8.0534   -1.8118   20.7342 N   0  0  0  0  0  0  0  0  0  0  0  0
    7.9271   -2.3352   19.8844 H   0  0  0  0  0  0  0  0  0  0  0  0
    5.4374    0.6451   20.1301 C   0  0  0  0  0  0  0  0  0  0  0  0
    5.0597    0.6538   21.1504 H   0  0  0  0  0  0  0  0  0  0  0  0
    4.8031    1.3038   19.0765 C   0  0  0  0  0  0  0  0  0  0  0  0
    3.8786    1.8427   19.2374 H   0  0  0  0  0  0  0  0  0  0  0  0
  1  2  1  0
  2  3  2  0
  3  4  1  0
  4  5  1  0
  4  6  2  0
  6  7  1  0
  7  8  1  0
  8  9  2  0
  8 10  1  0
 10 11  1  0
 11 12  2  0
 12 13  1  0
 12 14  1  0
 14 15  1  0
 14 16  2  0
 16 17  1  0
 16 18  1  0
 18 19  1  0
 18 20  2  0
 20 21  1  0
 10 22  2  0
 22 23  1  0
 22 24  1  0
 24 25  1  0
  6 26  1  0
 26 27  1  0
 26 28  2  0
 28 29  1  0
 28  2  1  0
 24  7  1  0
 20 11  1  0
M  END
>  <cnnaffinity>  (1) 
-5.17292

>  <filename>  (1) 
O=c1c(-c2c(F)cccc2F)c[nH]n1-c1cccnc1

$$$$
