
     RDKit          3D

 34 37  0  0  0  0  0  0  0  0999 V2000
    4.9227    1.8093   16.9778 H   0  0  0  0  0  0  0  0  0  0  0  0
    5.3821    1.3019   17.8246 C   0  0  0  0  0  0  0  0  0  0  0  0
    6.5357    0.6692   17.5607 N   0  0  0  0  0  0  0  0  0  0  0  0
    7.1503    0.0462   18.5710 C   0  0  0  0  0  0  0  0  0  0  0  0
    8.1121   -0.4157   18.3596 H   0  0  0  0  0  0  0  0  0  0  0  0
    6.6418   -0.0012   19.8806 C   0  0  0  0  0  0  0  0  0  0  0  0
    7.3638   -0.6728   20.9324 N   0  0  0  0  0  0  0  0  0  0  0  0
    6.7585   -1.7196   21.5781 C   0  0  0  0  0  0  0  0  0  0  0  0
    5.7538   -1.9411   21.2378 H   0  0  0  0  0  0  0  0  0  0  0  0
    7.3604   -2.4395   22.5724 C   0  0  0  0  0  0  0  0  0  0  0  0
    6.6224   -3.5432   23.1972 C   0  0  0  0  0  0  0  0  0  0  0  0
    7.2544   -4.2510   24.1947 O   0  0  0  0  0  0  0  0  0  0  0  0
    6.3782   -5.2019   24.6241 C   0  0  0  0  0  0  0  0  0  0  0  0
    6.5779   -6.1407   25.6415 C   0  0  0  0  0  0  0  0  0  0  0  0
    7.5158   -6.2221   26.1869 H   0  0  0  0  0  0  0  0  0  0  0  0
    5.5172   -7.0142   25.8922 C   0  0  0  0  0  0  0  0  0  0  0  0
    5.6321   -7.7555   26.6763 H   0  0  0  0  0  0  0  0  0  0  0  0
    4.3138   -6.9645   25.1539 C   0  0  0  0  0  0  0  0  0  0  0  0
    3.5167   -7.6707   25.3684 H   0  0  0  0  0  0  0  0  0  0  0  0
    4.1339   -6.0154   24.1562 C   0  0  0  0  0  0  0  0  0  0  0  0
    3.2107   -5.9366   23.5890 H   0  0  0  0  0  0  0  0  0  0  0  0
    5.1819   -5.1166   23.8887 C   0  0  0  0  0  0  0  0  0  0  0  0
    5.3690   -4.0238   22.9746 C   0  0  0  0  0  0  0  0  0  0  0  0
    4.6382   -3.6545   22.2710 H   0  0  0  0  0  0  0  0  0  0  0  0
    8.6923   -2.0685   22.9736 C   0  0  0  0  0  0  0  0  0  0  0  0
    9.1721   -2.6404   23.7701 H   0  0  0  0  0  0  0  0  0  0  0  0
    9.3135   -1.0261   22.3599 C   0  0  0  0  0  0  0  0  0  0  0  0
   10.3152   -0.6887   22.5958 H   0  0  0  0  0  0  0  0  0  0  0  0
    8.6923   -0.2525   21.2872 C   0  0  0  0  0  0  0  0  0  0  0  0
    9.2438    0.6718   20.7186 O   0  0  0  0  0  0  0  0  0  0  0  0
    5.4254    0.6366   20.1423 C   0  0  0  0  0  0  0  0  0  0  0  0
    5.0348    0.6266   21.1594 H   0  0  0  0  0  0  0  0  0  0  0  0
    4.7932    1.3160   19.0936 C   0  0  0  0  0  0  0  0  0  0  0  0
    3.8681    1.8554   19.2427 H   0  0  0  0  0  0  0  0  0  0  0  0
  1  2  1  0
  2  3  2  0
  3  4  1  0
  4  5  1  0
  4  6  2  0
  6  7  1  0
  7  8  1  0
  8  9  1  0
  8 10  2  0
 10 11  1  0
 11 12  1  0
 12 13  1  0
 13 14  2  0
 14 15  1  0
 14 16  1  0
 16 17  1  0
 16 18  2  0
 18 19  1  0
 18 20  1  0
 20 21  1  0
 20 22  2  0
 22 23  1  0
 23 24  1  0
 10 25  1  0
 25 26  1  0
 25 27  2  0
 27 28  1  0
 27 29  1  0
 29 30  2  0
  6 31  1  0
 31 32  1  0
 31 33  2  0
 33 34  1  0
 33  2  1  0
 29  7  1  0
 23 11  2  0
 22 13  1  0
M  END
>  <cnnaffinity>  (1) 
-5.60536

>  <filename>  (1) 
O=c1ccc(-c2cc3ccccc3o2)cn1-c1cccnc1

$$$$
