
     RDKit          3D

 39 41  0  0  0  0  0  0  0  0999 V2000
    4.9385    1.9393   16.9758 H   0  0  0  0  0  0  0  0  0  0  0  0
    5.4281    1.3684   17.7617 C   0  0  0  0  0  0  0  0  0  0  0  0
    6.5719    0.7563   17.4119 N   0  0  0  0  0  0  0  0  0  0  0  0
    7.2006    0.0387   18.3534 C   0  0  0  0  0  0  0  0  0  0  0  0
    8.1372   -0.4395   18.0630 H   0  0  0  0  0  0  0  0  0  0  0  0
    6.7201   -0.1505   19.6716 C   0  0  0  0  0  0  0  0  0  0  0  0
    7.4234   -0.9711   20.6001 N   0  0  0  0  0  0  0  0  0  0  0  0
    8.6176   -0.3747   21.1904 C   0  0  0  0  0  0  0  0  0  0  0  0
    9.1408    0.1284   20.3724 H   0  0  0  0  0  0  0  0  0  0  0  0
    9.2879   -1.1678   21.5429 H   0  0  0  0  0  0  0  0  0  0  0  0
    8.3703    0.6525   22.3041 C   0  0  0  0  0  0  0  0  0  0  0  0
    7.6136    1.3736   21.9438 H   0  0  0  0  0  0  0  0  0  0  0  0
    9.2974    1.2070   22.4856 H   0  0  0  0  0  0  0  0  0  0  0  0
    7.9998    0.0717   23.6095 N   0  0  0  0  0  0  0  0  0  0  0  0
    7.9022    1.0947   24.5738 N   0  0  0  0  0  0  0  0  0  0  0  0
    6.9607    2.0987   24.6396 C   0  0  0  0  0  0  0  0  0  0  0  0
    6.0855    2.3471   23.8260 O   0  0  0  0  0  0  0  0  0  0  0  0
    7.1869    2.8480   25.9406 C   0  0  0  0  0  0  0  0  0  0  0  0
    6.2760    2.7636   26.5408 H   0  0  0  0  0  0  0  0  0  0  0  0
    7.3061    3.9122   25.7168 H   0  0  0  0  0  0  0  0  0  0  0  0
    8.4215    2.2090   26.5947 C   0  0  0  0  0  0  0  0  0  0  0  0
    9.2737    2.8905   26.5434 H   0  0  0  0  0  0  0  0  0  0  0  0
    8.2596    1.9509   27.6463 H   0  0  0  0  0  0  0  0  0  0  0  0
    8.7068    0.9359   25.7710 C   0  0  0  0  0  0  0  0  0  0  0  0
    9.7593    0.8375   25.4860 H   0  0  0  0  0  0  0  0  0  0  0  0
    8.4205    0.0152   26.3066 H   0  0  0  0  0  0  0  0  0  0  0  0
    6.8114   -0.8055   23.6541 C   0  0  0  0  0  0  0  0  0  0  0  0
    6.6876   -1.0710   24.7121 H   0  0  0  0  0  0  0  0  0  0  0  0
    5.9152   -0.2291   23.3727 H   0  0  0  0  0  0  0  0  0  0  0  0
    6.9697   -2.0935   22.8413 C   0  0  0  0  0  0  0  0  0  0  0  0
    7.9797   -2.4781   23.0126 H   0  0  0  0  0  0  0  0  0  0  0  0
    6.2868   -2.8575   23.2357 H   0  0  0  0  0  0  0  0  0  0  0  0
    6.6831   -1.9917   21.3384 C   0  0  0  0  0  0  0  0  0  0  0  0
    5.6123   -1.8033   21.2039 H   0  0  0  0  0  0  0  0  0  0  0  0
    6.8584   -2.9785   20.8762 H   0  0  0  0  0  0  0  0  0  0  0  0
    5.5394    0.5292   20.0187 C   0  0  0  0  0  0  0  0  0  0  0  0
    5.1825    0.4767   21.0504 H   0  0  0  0  0  0  0  0  0  0  0  0
    4.8800    1.2937   19.0469 C   0  0  0  0  0  0  0  0  0  0  0  0
    3.9560    1.8157   19.2684 H   0  0  0  0  0  0  0  0  0  0  0  0
  1  2  1  0
  2  3  2  0
  3  4  1  0
  4  5  1  0
  4  6  2  0
  6  7  1  0
  7  8  1  0
  8  9  1  0
  8 10  1  0
  8 11  1  0
 11 12  1  0
 11 13  1  0
 11 14  1  0
 14 15  1  0
 15 16  1  0
 16 17  2  0
 16 18  1  0
 18 19  1  0
 18 20  1  0
 18 21  1  0
 21 22  1  0
 21 23  1  0
 21 24  1  0
 24 25  1  0
 24 26  1  0
 14 27  1  0
 27 28  1  0
 27 29  1  0
 27 30  1  0
 30 31  1  0
 30 32  1  0
 30 33  1  0
 33 34  1  0
 33 35  1  0
  6 36  1  0
 36 37  1  0
 36 38  2  0
 38 39  1  0
 38  2  1  0
 33  7  1  0
 24 15  1  0
M  END
>  <cnnaffinity>  (1) 
-4.68788

>  <filename>  (1) 
O=C1CCCN1N1CCCN(c2cccnc2)CC1

$$$$
