
     RDKit          3D

 44 47  0  0  0  0  0  0  0  0999 V2000
    4.9586    1.7717   17.0119 H   0  0  0  0  0  0  0  0  0  0  0  0
    5.4201    1.2686   17.8564 C   0  0  0  0  0  0  0  0  0  0  0  0
    6.5779    0.6471   17.5996 N   0  0  0  0  0  0  0  0  0  0  0  0
    7.1957    0.0493   18.6212 C   0  0  0  0  0  0  0  0  0  0  0  0
    8.1493   -0.4225   18.3906 H   0  0  0  0  0  0  0  0  0  0  0  0
    6.6779    0.0086   19.9216 C   0  0  0  0  0  0  0  0  0  0  0  0
    7.4406   -0.7179   20.9574 C   0  0  0  0  0  0  0  0  0  0  0  0
    8.7486   -0.6999   20.8738 N   0  0  0  0  0  0  0  0  0  0  0  0
    9.4592   -1.3041   21.8759 C   0  0  0  0  0  0  0  0  0  0  0  0
   10.6646   -1.3980   21.9429 O   0  0  0  0  0  0  0  0  0  0  0  0
    8.7616   -1.8657   22.9334 N   0  0  0  0  0  0  0  0  0  0  0  0
    9.3599   -2.4414   23.4930 H   0  0  0  0  0  0  0  0  0  0  0  0
    7.4275   -2.0270   22.9344 C   0  0  0  0  0  0  0  0  0  0  0  0
    6.9469   -2.8094   23.9503 N   0  0  0  0  0  0  0  0  0  0  0  0
    5.6892   -3.5430   23.7651 C   0  0  0  0  0  0  0  0  0  0  0  0
    5.5938   -3.8315   22.7126 H   0  0  0  0  0  0  0  0  0  0  0  0
    4.8151   -2.9258   24.0411 H   0  0  0  0  0  0  0  0  0  0  0  0
    5.6836   -4.8138   24.6411 C   0  0  0  0  0  0  0  0  0  0  0  0
    4.7037   -5.3029   24.5572 H   0  0  0  0  0  0  0  0  0  0  0  0
    6.4581   -5.5014   24.2479 H   0  0  0  0  0  0  0  0  0  0  0  0
    5.9204   -4.4628   26.0376 N   0  0  0  0  0  0  0  0  0  0  0  0
    5.3529   -5.2029   27.0926 C   0  0  0  0  0  0  0  0  0  0  0  0
    5.1522   -6.5914   27.0213 C   0  0  0  0  0  0  0  0  0  0  0  0
    5.4905   -7.1115   26.1310 H   0  0  0  0  0  0  0  0  0  0  0  0
    4.5434   -7.2680   28.0842 C   0  0  0  0  0  0  0  0  0  0  0  0
    4.4037   -8.3419   28.0264 H   0  0  0  0  0  0  0  0  0  0  0  0
    4.1149   -6.5713   29.2197 C   0  0  0  0  0  0  0  0  0  0  0  0
    3.6343   -7.1039   30.0373 H   0  0  0  0  0  0  0  0  0  0  0  0
    4.3145   -5.1875   29.2989 C   0  0  0  0  0  0  0  0  0  0  0  0
    3.9933   -4.6298   30.1773 H   0  0  0  0  0  0  0  0  0  0  0  0
    4.9402   -4.5154   28.2461 C   0  0  0  0  0  0  0  0  0  0  0  0
    5.1055   -3.4438   28.2621 H   0  0  0  0  0  0  0  0  0  0  0  0
    7.1634   -3.7115   26.2352 C   0  0  0  0  0  0  0  0  0  0  0  0
    7.2647   -3.4444   27.2957 H   0  0  0  0  0  0  0  0  0  0  0  0
    8.0449   -4.3190   25.9545 H   0  0  0  0  0  0  0  0  0  0  0  0
    7.1551   -2.4394   25.3686 C   0  0  0  0  0  0  0  0  0  0  0  0
    6.3413   -1.7777   25.7177 H   0  0  0  0  0  0  0  0  0  0  0  0
    8.0977   -1.8954   25.4994 H   0  0  0  0  0  0  0  0  0  0  0  0
    6.7122   -1.4193   21.9445 C   0  0  0  0  0  0  0  0  0  0  0  0
    5.6411   -1.4950   21.9247 H   0  0  0  0  0  0  0  0  0  0  0  0
    5.4515    0.6473   20.1757 C   0  0  0  0  0  0  0  0  0  0  0  0
    5.0060    0.6540   21.1756 H   0  0  0  0  0  0  0  0  0  0  0  0
    4.8199    1.2981   19.1197 C   0  0  0  0  0  0  0  0  0  0  0  0
    3.8862    1.8302   19.2574 H   0  0  0  0  0  0  0  0  0  0  0  0
  1  2  1  0
  2  3  2  0
  3  4  1  0
  4  5  1  0
  4  6  2  0
  6  7  1  0
  7  8  2  0
  8  9  1  0
  9 10  2  0
  9 11  1  0
 11 12  1  0
 11 13  1  0
 13 14  1  0
 14 15  1  0
 15 16  1  0
 15 17  1  0
 15 18  1  0
 18 19  1  0
 18 20  1  0
 18 21  1  0
 21 22  1  0
 22 23  2  0
 23 24  1  0
 23 25  1  0
 25 26  1  0
 25 27  2  0
 27 28  1  0
 27 29  1  0
 29 30  1  0
 29 31  2  0
 31 32  1  0
 21 33  1  0
 33 34  1  0
 33 35  1  0
 33 36  1  0
 36 37  1  0
 36 38  1  0
 13 39  2  0
 39 40  1  0
  6 41  1  0
 41 42  1  0
 41 43  2  0
 43 44  1  0
 43  2  1  0
 39  7  1  0
 36 14  1  0
 31 22  1  0
M  END
>  <cnnaffinity>  (1) 
-5.23459

>  <filename>  (1) 
O=c1nc(-c2cccnc2)cc(N2CCN(c3ccccc3)CC2)[nH]1

$$$$
