
     RDKit          3D

 39 41  0  0  0  0  0  0  0  0999 V2000
    4.5523   -7.7001   26.9848 H   0  0  0  0  0  0  0  0  0  0  0  0
    4.4406   -6.7994   26.6507 O   0  0  0  0  0  0  0  0  0  0  0  0
    4.7095   -6.8024   25.2591 C   0  0  0  0  0  0  0  0  0  0  0  0
    3.8738   -7.2645   24.7105 H   0  0  0  0  0  0  0  0  0  0  0  0
    5.5960   -7.4010   25.0514 H   0  0  0  0  0  0  0  0  0  0  0  0
    4.9362   -5.3728   24.7444 C   0  0  0  0  0  0  0  0  0  0  0  0
    4.0413   -4.7975   25.0401 H   0  0  0  0  0  0  0  0  0  0  0  0
    5.0865   -5.3407   23.2045 C   0  0  0  0  0  0  0  0  0  0  0  0
    4.2177   -5.8041   22.7177 H   0  0  0  0  0  0  0  0  0  0  0  0
    5.9713   -5.9339   22.9186 H   0  0  0  0  0  0  0  0  0  0  0  0
    5.2835   -3.9091   22.6693 C   0  0  0  0  0  0  0  0  0  0  0  0
    4.3712   -3.3114   22.8462 H   0  0  0  0  0  0  0  0  0  0  0  0
    5.4496   -3.9079   21.5875 H   0  0  0  0  0  0  0  0  0  0  0  0
    6.4407   -3.2933   23.3120 N   0  0  0  0  0  0  0  0  0  0  0  0
    7.1407   -2.3081   22.6246 C   0  0  0  0  0  0  0  0  0  0  0  0
    6.5721   -1.6618   21.6359 N   0  0  0  0  0  0  0  0  0  0  0  0
    7.3334   -0.7342   20.9448 N   0  0  0  0  0  0  0  0  0  0  0  0
    6.6326   -0.0492   19.9029 C   0  0  0  0  0  0  0  0  0  0  0  0
    7.1546    0.0138   18.5970 C   0  0  0  0  0  0  0  0  0  0  0  0
    8.1198   -0.4300   18.3748 H   0  0  0  0  0  0  0  0  0  0  0  0
    6.5479    0.6420   17.5849 N   0  0  0  0  0  0  0  0  0  0  0  0
    5.4019    1.2846   17.8513 C   0  0  0  0  0  0  0  0  0  0  0  0
    4.9531    1.8044   17.0073 H   0  0  0  0  0  0  0  0  0  0  0  0
    4.8048    1.2986   19.1196 C   0  0  0  0  0  0  0  0  0  0  0  0
    3.8817    1.8527   19.2598 H   0  0  0  0  0  0  0  0  0  0  0  0
    5.4229    0.6036   20.1673 C   0  0  0  0  0  0  0  0  0  0  0  0
    5.0142    0.5689   21.1791 H   0  0  0  0  0  0  0  0  0  0  0  0
    8.7147   -0.4137   21.2078 C   0  0  0  0  0  0  0  0  0  0  0  0
    9.3292    0.4237   20.5635 O   0  0  0  0  0  0  0  0  0  0  0  0
    9.2822   -1.2057   22.3020 C   0  0  0  0  0  0  0  0  0  0  0  0
   10.3342   -1.0120   22.4803 H   0  0  0  0  0  0  0  0  0  0  0  0
    8.5241   -2.0959   22.9909 C   0  0  0  0  0  0  0  0  0  0  0  0
    8.8924   -2.7448   23.7797 H   0  0  0  0  0  0  0  0  0  0  0  0
    6.3518   -3.2611   24.7770 C   0  0  0  0  0  0  0  0  0  0  0  0
    7.2487   -2.7887   25.1898 H   0  0  0  0  0  0  0  0  0  0  0  0
    5.4950   -2.6409   25.1063 H   0  0  0  0  0  0  0  0  0  0  0  0
    6.1815   -4.6815   25.3473 C   0  0  0  0  0  0  0  0  0  0  0  0
    6.1055   -4.6456   26.4420 H   0  0  0  0  0  0  0  0  0  0  0  0
    7.0827   -5.2662   25.1027 H   0  0  0  0  0  0  0  0  0  0  0  0
  1  2  1  0
  2  3  1  0
  3  4  1  0
  3  5  1  0
  3  6  1  0
  6  7  1  0
  6  8  1  0
  8  9  1  0
  8 10  1  0
  8 11  1  0
 11 12  1  0
 11 13  1  0
 11 14  1  0
 14 15  1  0
 15 16  2  0
 16 17  1  0
 17 18  1  0
 18 19  2  0
 19 20  1  0
 19 21  1  0
 21 22  2  0
 22 23  1  0
 22 24  1  0
 24 25  1  0
 24 26  2  0
 26 27  1  0
 17 28  1  0
 28 29  2  0
 28 30  1  0
 30 31  1  0
 30 32  2  0
 32 33  1  0
 14 34  1  0
 34 35  1  0
 34 36  1  0
 34 37  1  0
 37 38  1  0
 37 39  1  0
 37  6  1  0
 32 15  1  0
 26 18  1  0
M  END
>  <cnnaffinity>  (1) 
-5.32169

>  <filename>  (1) 
O=c1ccc(N2CCC(CO)CC2)nn1-c1cccnc1

$$$$
