
     RDKit          3D

 31 33  0  0  0  0  0  0  0  0999 V2000
    9.8244    1.3015   21.7538 H   0  0  0  0  0  0  0  0  0  0  0  0
   10.6594    1.5165   22.2027 O   0  0  0  0  0  0  0  0  0  0  0  0
   11.4355    0.4033   22.1518 C   0  0  0  0  0  0  0  0  0  0  0  0
   12.8177    0.6095   22.1903 C   0  0  0  0  0  0  0  0  0  0  0  0
   13.1541    1.6450   22.2152 H   0  0  0  0  0  0  0  0  0  0  0  0
   13.6859   -0.4846   22.1374 C   0  0  0  0  0  0  0  0  0  0  0  0
   14.7562   -0.3057   22.1614 H   0  0  0  0  0  0  0  0  0  0  0  0
   13.1830   -1.7895   22.0930 C   0  0  0  0  0  0  0  0  0  0  0  0
   13.8544   -2.6456   22.0422 H   0  0  0  0  0  0  0  0  0  0  0  0
   11.8008   -2.0044   22.1444 C   0  0  0  0  0  0  0  0  0  0  0  0
   11.4084   -3.0130   22.2400 H   0  0  0  0  0  0  0  0  0  0  0  0
   10.9181   -0.9163   22.1346 C   0  0  0  0  0  0  0  0  0  0  0  0
    9.4944   -1.1460   22.0957 N   0  0  0  0  0  0  0  0  0  0  0  0
    8.8024   -0.4193   21.1465 N   0  0  0  0  0  0  0  0  0  0  0  0
    7.5036   -0.6089   21.0513 C   0  0  0  0  0  0  0  0  0  0  0  0
    6.7977    0.0890   19.9494 C   0  0  0  0  0  0  0  0  0  0  0  0
    7.3512    0.1094   18.6602 C   0  0  0  0  0  0  0  0  0  0  0  0
    8.3154   -0.3577   18.4617 H   0  0  0  0  0  0  0  0  0  0  0  0
    6.7360    0.6600   17.6052 N   0  0  0  0  0  0  0  0  0  0  0  0
    5.5477    1.2477   17.8204 C   0  0  0  0  0  0  0  0  0  0  0  0
    5.0649    1.6877   16.9503 H   0  0  0  0  0  0  0  0  0  0  0  0
    4.9217    1.3005   19.0716 C   0  0  0  0  0  0  0  0  0  0  0  0
    3.9600    1.7915   19.1838 H   0  0  0  0  0  0  0  0  0  0  0  0
    5.5544    0.7021   20.1578 C   0  0  0  0  0  0  0  0  0  0  0  0
    5.1019    0.7176   21.1520 H   0  0  0  0  0  0  0  0  0  0  0  0
    6.7825   -1.4348   21.9710 C   0  0  0  0  0  0  0  0  0  0  0  0
    5.7072   -1.5212   21.8368 H   0  0  0  0  0  0  0  0  0  0  0  0
    7.4477   -2.1058   22.9469 C   0  0  0  0  0  0  0  0  0  0  0  0
    6.9645   -2.7391   23.6858 H   0  0  0  0  0  0  0  0  0  0  0  0
    8.8985   -2.0420   23.0514 C   0  0  0  0  0  0  0  0  0  0  0  0
    9.5520   -2.6716   23.8664 O   0  0  0  0  0  0  0  0  0  0  0  0
  1  2  1  0
  2  3  1  0
  3  4  2  0
  4  5  1  0
  4  6  1  0
  6  7  1  0
  6  8  2  0
  8  9  1  0
  8 10  1  0
 10 11  1  0
 10 12  2  0
 12 13  1  0
 13 14  1  0
 14 15  2  0
 15 16  1  0
 16 17  2  0
 17 18  1  0
 17 19  1  0
 19 20  2  0
 20 21  1  0
 20 22  1  0
 22 23  1  0
 22 24  2  0
 24 25  1  0
 15 26  1  0
 26 27  1  0
 26 28  2  0
 28 29  1  0
 28 30  1  0
 30 31  2  0
 12  3  1  0
 30 13  1  0
 24 16  1  0
M  END
>  <cnnaffinity>  (1) 
-5.37213

>  <filename>  (1) 
O=c1ccc(-c2cccnc2)nn1-c1ccccc1O

$$$$
