
     RDKit          3D

 30 32  0  0  0  0  0  0  0  0999 V2000
    4.9354    1.9625   16.8849 H   0  0  0  0  0  0  0  0  0  0  0  0
    5.3687    1.3893   17.7008 C   0  0  0  0  0  0  0  0  0  0  0  0
    6.5207    0.7526   17.4289 N   0  0  0  0  0  0  0  0  0  0  0  0
    7.0880    0.0658   18.4280 C   0  0  0  0  0  0  0  0  0  0  0  0
    8.0461   -0.4075   18.2207 H   0  0  0  0  0  0  0  0  0  0  0  0
    6.5267   -0.0589   19.7137 C   0  0  0  0  0  0  0  0  0  0  0  0
    7.2555   -0.7107   20.7712 N   0  0  0  0  0  0  0  0  0  0  0  0
    8.4531   -0.1098   21.1460 C   0  0  0  0  0  0  0  0  0  0  0  0
    8.7352    0.7645   20.5650 H   0  0  0  0  0  0  0  0  0  0  0  0
    9.2067   -0.5729   22.1897 C   0  0  0  0  0  0  0  0  0  0  0  0
   10.3642    0.0263   22.6406 N   0  0  0  0  0  0  0  0  0  0  0  0
   11.4278   -0.6798   23.3443 C   0  0  0  0  0  0  0  0  0  0  0  0
   11.2710   -0.7640   24.4287 H   0  0  0  0  0  0  0  0  0  0  0  0
   11.6192   -1.6802   22.9114 H   0  0  0  0  0  0  0  0  0  0  0  0
   12.4233    0.3911   22.8668 C   0  0  0  0  0  0  0  0  0  0  0  0
   12.7080    1.0954   23.6548 H   0  0  0  0  0  0  0  0  0  0  0  0
   13.3297    0.0010   22.4024 H   0  0  0  0  0  0  0  0  0  0  0  0
   11.3051    0.8914   21.9216 C   0  0  0  0  0  0  0  0  0  0  0  0
   11.0664    1.9553   21.9554 H   0  0  0  0  0  0  0  0  0  0  0  0
   11.4640    0.5996   20.8787 H   0  0  0  0  0  0  0  0  0  0  0  0
    8.7215   -1.7306   22.8887 C   0  0  0  0  0  0  0  0  0  0  0  0
    9.3474   -2.1038   23.6975 H   0  0  0  0  0  0  0  0  0  0  0  0
    7.5394   -2.3079   22.5707 C   0  0  0  0  0  0  0  0  0  0  0  0
    7.1520   -3.1638   23.1026 H   0  0  0  0  0  0  0  0  0  0  0  0
    6.6828   -1.8215   21.4969 C   0  0  0  0  0  0  0  0  0  0  0  0
    5.6119   -2.3310   21.2161 O   0  0  0  0  0  0  0  0  0  0  0  0
    5.3273    0.6061   19.9830 C   0  0  0  0  0  0  0  0  0  0  0  0
    4.9030    0.5588   20.9862 H   0  0  0  0  0  0  0  0  0  0  0  0
    4.7421    1.3515   18.9527 C   0  0  0  0  0  0  0  0  0  0  0  0
    3.8288    1.9142   19.1173 H   0  0  0  0  0  0  0  0  0  0  0  0
  1  2  1  0
  2  3  2  0
  3  4  1  0
  4  5  1  0
  4  6  2  0
  6  7  1  0
  7  8  1  0
  8  9  1  0
  8 10  2  0
 10 11  1  0
 11 12  1  0
 12 13  1  0
 12 14  1  0
 12 15  1  0
 15 16  1  0
 15 17  1  0
 15 18  1  0
 18 19  1  0
 18 20  1  0
 10 21  1  0
 21 22  1  0
 21 23  2  0
 23 24  1  0
 23 25  1  0
 25 26  2  0
  6 27  1  0
 27 28  1  0
 27 29  2  0
 29 30  1  0
 29  2  1  0
 25  7  1  0
 18 11  1  0
M  END
>  <cnnaffinity>  (1) 
-4.90139

>  <filename>  (1) 
O=c1ccc(N2CCC2)cn1-c1cccnc1

$$$$
