
     RDKit          3D

 33 35  0  0  0  0  0  0  0  0999 V2000
    4.9332    1.7888   16.9886 H   0  0  0  0  0  0  0  0  0  0  0  0
    5.3975    1.2939   17.8390 C   0  0  0  0  0  0  0  0  0  0  0  0
    6.5525    0.6649   17.5853 N   0  0  0  0  0  0  0  0  0  0  0  0
    7.1463    0.0407   18.6066 C   0  0  0  0  0  0  0  0  0  0  0  0
    8.1105   -0.4133   18.3876 H   0  0  0  0  0  0  0  0  0  0  0  0
    6.6153   -0.0168   19.9061 C   0  0  0  0  0  0  0  0  0  0  0  0
    7.3154   -0.7378   20.9812 C   0  0  0  0  0  0  0  0  0  0  0  0
    6.5908   -1.5127   21.7615 N   0  0  0  0  0  0  0  0  0  0  0  0
    7.1820   -2.2022   22.8055 C   0  0  0  0  0  0  0  0  0  0  0  0
    6.2899   -3.0463   23.6758 C   0  0  0  0  0  0  0  0  0  0  0  0
    6.6232   -3.2985   25.0226 C   0  0  0  0  0  0  0  0  0  0  0  0
    7.5227   -2.8715   25.4609 H   0  0  0  0  0  0  0  0  0  0  0  0
    5.7902   -4.0812   25.8228 C   0  0  0  0  0  0  0  0  0  0  0  0
    6.0574   -4.2718   26.8586 H   0  0  0  0  0  0  0  0  0  0  0  0
    4.6169   -4.6283   25.2995 C   0  0  0  0  0  0  0  0  0  0  0  0
    3.9732   -5.2390   25.9257 H   0  0  0  0  0  0  0  0  0  0  0  0
    4.2642   -4.3940   23.9632 C   0  0  0  0  0  0  0  0  0  0  0  0
    2.9625   -4.9934   23.4453 C   0  0  0  0  0  0  0  0  0  0  0  0
    1.8894   -4.2217   23.7072 F   0  0  0  0  0  0  0  0  0  0  0  0
    3.0175   -5.1765   22.1174 F   0  0  0  0  0  0  0  0  0  0  0  0
    2.6875   -6.1917   24.0021 F   0  0  0  0  0  0  0  0  0  0  0  0
    5.1026   -3.5995   23.1568 C   0  0  0  0  0  0  0  0  0  0  0  0
    4.8726   -3.3518   22.1211 H   0  0  0  0  0  0  0  0  0  0  0  0
    8.5348   -2.1280   23.0261 C   0  0  0  0  0  0  0  0  0  0  0  0
    9.0433   -2.6866   23.8022 H   0  0  0  0  0  0  0  0  0  0  0  0
    9.3056   -1.3317   22.2156 N   0  0  0  0  0  0  0  0  0  0  0  0
   10.3032   -1.1665   22.2965 H   0  0  0  0  0  0  0  0  0  0  0  0
    8.8092   -0.5623   21.1737 C   0  0  0  0  0  0  0  0  0  0  0  0
    9.6172    0.1289   20.5717 O   0  0  0  0  0  0  0  0  0  0  0  0
    5.4033    0.6448   20.1553 C   0  0  0  0  0  0  0  0  0  0  0  0
    4.9712    0.6353   21.1606 H   0  0  0  0  0  0  0  0  0  0  0  0
    4.7949    1.3216   19.1016 C   0  0  0  0  0  0  0  0  0  0  0  0
    3.8672    1.8580   19.2427 H   0  0  0  0  0  0  0  0  0  0  0  0
  1  2  1  0
  2  3  2  0
  3  4  1  0
  4  5  1  0
  4  6  2  0
  6  7  1  0
  7  8  2  0
  8  9  1  0
  9 10  1  0
 10 11  2  0
 11 12  1  0
 11 13  1  0
 13 14  1  0
 13 15  2  0
 15 16  1  0
 15 17  1  0
 17 18  1  0
 18 19  1  0
 18 20  1  0
 18 21  1  0
 17 22  2  0
 22 23  1  0
  9 24  2  0
 24 25  1  0
 24 26  1  0
 26 27  1  0
 26 28  1  0
 28 29  2  0
  6 30  1  0
 30 31  1  0
 30 32  2  0
 32 33  1  0
 32  2  1  0
 28  7  1  0
 22 10  1  0
M  END
>  <cnnaffinity>  (1) 
-5.53675

>  <filename>  (1) 
O=c1[nH]cc(-c2cccc(C(F)(F)F)c2)nc1-c1cccnc1

$$$$
