
     RDKit          3D

 29 31  0  0  0  0  0  0  0  0999 V2000
    5.0506    1.9191   16.7131 H   0  0  0  0  0  0  0  0  0  0  0  0
    5.5097    1.4035   17.5591 C   0  0  0  0  0  0  0  0  0  0  0  0
    6.6537    0.7474   17.3036 N   0  0  0  0  0  0  0  0  0  0  0  0
    7.2500    0.0977   18.3137 C   0  0  0  0  0  0  0  0  0  0  0  0
    8.1742   -0.4155   18.0431 H   0  0  0  0  0  0  0  0  0  0  0  0
    6.7340    0.0465   19.6267 C   0  0  0  0  0  0  0  0  0  0  0  0
    7.3382   -0.7197   20.7178 C   0  0  0  0  0  0  0  0  0  0  0  0
    6.7689   -1.2872   21.8054 C   0  0  0  0  0  0  0  0  0  0  0  0
    5.7344   -1.3250   22.0864 H   0  0  0  0  0  0  0  0  0  0  0  0
    7.7567   -1.9211   22.5655 N   0  0  0  0  0  0  0  0  0  0  0  0
    7.5508   -2.6617   23.7585 C   0  0  0  0  0  0  0  0  0  0  0  0
    8.5613   -2.8238   24.7190 C   0  0  0  0  0  0  0  0  0  0  0  0
    9.5437   -2.4014   24.5704 H   0  0  0  0  0  0  0  0  0  0  0  0
    8.2764   -3.5511   25.8754 C   0  0  0  0  0  0  0  0  0  0  0  0
    9.5443   -3.8154   27.0188 Cl  0  0  0  0  0  0  0  0  0  0  0  0
    7.0135   -4.0819   26.1376 C   0  0  0  0  0  0  0  0  0  0  0  0
    6.8026   -4.5853   27.0762 H   0  0  0  0  0  0  0  0  0  0  0  0
    6.0348   -3.9139   25.1593 C   0  0  0  0  0  0  0  0  0  0  0  0
    4.4434   -4.5461   25.4373 Cl  0  0  0  0  0  0  0  0  0  0  0  0
    6.2903   -3.2363   23.9701 C   0  0  0  0  0  0  0  0  0  0  0  0
    5.5121   -3.1736   23.2212 H   0  0  0  0  0  0  0  0  0  0  0  0
    8.9846   -1.7244   21.9285 C   0  0  0  0  0  0  0  0  0  0  0  0
   10.1013   -2.0553   22.2696 O   0  0  0  0  0  0  0  0  0  0  0  0
    8.6884   -1.0345   20.7759 N   0  0  0  0  0  0  0  0  0  0  0  0
    9.4596   -0.5497   20.3544 H   0  0  0  0  0  0  0  0  0  0  0  0
    5.5487    0.7599   19.8736 C   0  0  0  0  0  0  0  0  0  0  0  0
    5.1418    0.7928   20.8849 H   0  0  0  0  0  0  0  0  0  0  0  0
    4.9247    1.4370   18.8285 C   0  0  0  0  0  0  0  0  0  0  0  0
    4.0104    1.9951   18.9864 H   0  0  0  0  0  0  0  0  0  0  0  0
  1  2  1  0
  2  3  2  0
  3  4  1  0
  4  5  1  0
  4  6  2  0
  6  7  1  0
  7  8  2  0
  8  9  1  0
  8 10  1  0
 10 11  1  0
 11 12  2  0
 12 13  1  0
 12 14  1  0
 14 15  1  0
 14 16  2  0
 16 17  1  0
 16 18  1  0
 18 19  1  0
 18 20  2  0
 20 21  1  0
 10 22  1  0
 22 23  2  0
 22 24  1  0
 24 25  1  0
  6 26  1  0
 26 27  1  0
 26 28  2  0
 28 29  1  0
 28  2  1  0
 24  7  1  0
 20 11  1  0
M  END
>  <cnnaffinity>  (1) 
-5.67118

>  <filename>  (1) 
O=c1[nH]c(-c2cccnc2)cn1-c1cc(Cl)cc(Cl)c1

$$$$
