
     RDKit          3D

 33 36  0  0  0  0  0  0  0  0999 V2000
    5.0034    2.1239   16.8085 H   0  0  0  0  0  0  0  0  0  0  0  0
    5.3271    1.4894   17.6297 C   0  0  0  0  0  0  0  0  0  0  0  0
    6.4919    0.8461   17.4451 N   0  0  0  0  0  0  0  0  0  0  0  0
    6.9276    0.0893   18.4535 C   0  0  0  0  0  0  0  0  0  0  0  0
    7.8678   -0.4373   18.3007 H   0  0  0  0  0  0  0  0  0  0  0  0
    6.2263   -0.0909   19.6625 C   0  0  0  0  0  0  0  0  0  0  0  0
    6.9237   -0.8324   20.7538 C   0  0  0  0  0  0  0  0  0  0  0  0
    8.1658   -0.4509   20.9217 N   0  0  0  0  0  0  0  0  0  0  0  0
    8.9123   -1.0320   21.8968 N   0  0  0  0  0  0  0  0  0  0  0  0
   10.3039   -0.6719   21.9249 C   0  0  0  0  0  0  0  0  0  0  0  0
   10.6527    0.6967   22.1043 C   0  0  0  0  0  0  0  0  0  0  0  0
    9.8455    1.4228   22.0941 H   0  0  0  0  0  0  0  0  0  0  0  0
   11.9750    1.0711   22.2859 C   0  0  0  0  0  0  0  0  0  0  0  0
   12.2838    2.1035   22.4047 H   0  0  0  0  0  0  0  0  0  0  0  0
   12.9325    0.0340   22.3151 C   0  0  0  0  0  0  0  0  0  0  0  0
   12.6171   -1.3012   21.9843 C   0  0  0  0  0  0  0  0  0  0  0  0
   13.8657   -1.9815   22.0427 C   0  0  0  0  0  0  0  0  0  0  0  0
   14.0794   -3.0261   21.8378 H   0  0  0  0  0  0  0  0  0  0  0  0
   14.8117   -1.1822   22.4689 N   0  0  0  0  0  0  0  0  0  0  0  0
   14.2576    0.0368   22.6170 N   0  0  0  0  0  0  0  0  0  0  0  0
   14.8067    0.7992   22.9834 H   0  0  0  0  0  0  0  0  0  0  0  0
   11.2624   -1.6657   21.8096 C   0  0  0  0  0  0  0  0  0  0  0  0
   10.9395   -2.6845   21.6412 H   0  0  0  0  0  0  0  0  0  0  0  0
    8.3633   -1.8863   22.8301 C   0  0  0  0  0  0  0  0  0  0  0  0
    9.0062   -2.1558   23.6697 H   0  0  0  0  0  0  0  0  0  0  0  0
    7.1116   -2.3549   22.7010 C   0  0  0  0  0  0  0  0  0  0  0  0
    6.6703   -3.0807   23.3708 H   0  0  0  0  0  0  0  0  0  0  0  0
    6.2942   -1.9511   21.5707 C   0  0  0  0  0  0  0  0  0  0  0  0
    5.2323   -2.5076   21.3340 O   0  0  0  0  0  0  0  0  0  0  0  0
    4.9837    0.5335   19.8146 C   0  0  0  0  0  0  0  0  0  0  0  0
    4.3877    0.3676   20.7152 H   0  0  0  0  0  0  0  0  0  0  0  0
    4.5441    1.3692   18.7833 C   0  0  0  0  0  0  0  0  0  0  0  0
    3.6260    1.9397   18.8679 H   0  0  0  0  0  0  0  0  0  0  0  0
  1  2  1  0
  2  3  2  0
  3  4  1  0
  4  5  1  0
  4  6  2  0
  6  7  1  0
  7  8  2  0
  8  9  1  0
  9 10  1  0
 10 11  2  0
 11 12  1  0
 11 13  1  0
 13 14  1  0
 13 15  2  0
 15 16  1  0
 16 17  1  0
 17 18  1  0
 17 19  2  0
 19 20  1  0
 20 21  1  0
 16 22  2  0
 22 23  1  0
  9 24  1  0
 24 25  1  0
 24 26  2  0
 26 27  1  0
 26 28  1  0
 28 29  2  0
  6 30  1  0
 30 31  1  0
 30 32  2  0
 32 33  1  0
 32  2  1  0
 28  7  1  0
 22 10  1  0
 20 15  1  0
M  END
>  <cnnaffinity>  (1) 
-6.2361

>  <filename>  (1) 
O=c1ccn(-c2ccc3[nH]ncc3c2)nc1-c1cccnc1

$$$$
