
     RDKit          3D

 32 34  0  0  0  0  0  0  0  0999 V2000
    4.9596    1.8248   17.0034 H   0  0  0  0  0  0  0  0  0  0  0  0
    5.4199    1.3032   17.8391 C   0  0  0  0  0  0  0  0  0  0  0  0
    6.5710    0.6623   17.5772 N   0  0  0  0  0  0  0  0  0  0  0  0
    7.1785    0.0250   18.5859 C   0  0  0  0  0  0  0  0  0  0  0  0
    8.1055   -0.4902   18.3331 H   0  0  0  0  0  0  0  0  0  0  0  0
    6.6651   -0.0174   19.8953 C   0  0  0  0  0  0  0  0  0  0  0  0
    7.3333   -0.6987   20.9638 N   0  0  0  0  0  0  0  0  0  0  0  0
    6.5350   -1.3808   21.8329 N   0  0  0  0  0  0  0  0  0  0  0  0
    7.0914   -2.0838   22.7863 C   0  0  0  0  0  0  0  0  0  0  0  0
    6.2172   -2.8762   23.6974 C   0  0  0  0  0  0  0  0  0  0  0  0
    5.1550   -3.5062   23.1584 N   0  0  0  0  0  0  0  0  0  0  0  0
    4.3436   -4.2017   23.9676 C   0  0  0  0  0  0  0  0  0  0  0  0
    3.0884   -4.9244   23.4144 C   0  0  0  0  0  0  0  0  0  0  0  0
    2.8950   -4.8110   22.1064 F   0  0  0  0  0  0  0  0  0  0  0  0
    1.9780   -4.4523   24.0258 F   0  0  0  0  0  0  0  0  0  0  0  0
    3.1283   -6.2463   23.6912 F   0  0  0  0  0  0  0  0  0  0  0  0
    4.5497   -4.2992   25.3520 C   0  0  0  0  0  0  0  0  0  0  0  0
    3.8635   -4.8815   25.9573 H   0  0  0  0  0  0  0  0  0  0  0  0
    5.6579   -3.6624   25.9078 C   0  0  0  0  0  0  0  0  0  0  0  0
    5.8642   -3.7511   26.9708 H   0  0  0  0  0  0  0  0  0  0  0  0
    6.5174   -2.9577   25.0746 C   0  0  0  0  0  0  0  0  0  0  0  0
    7.4373   -2.5082   25.4338 H   0  0  0  0  0  0  0  0  0  0  0  0
    8.5623   -2.1197   23.0377 C   0  0  0  0  0  0  0  0  0  0  0  0
    9.1075   -2.7538   23.9399 O   0  0  0  0  0  0  0  0  0  0  0  0
    9.3310   -1.3025   22.1040 C   0  0  0  0  0  0  0  0  0  0  0  0
   10.4009   -1.2585   22.2521 H   0  0  0  0  0  0  0  0  0  0  0  0
    8.7030   -0.6366   21.1203 C   0  0  0  0  0  0  0  0  0  0  0  0
    9.2166    0.0176   20.4130 H   0  0  0  0  0  0  0  0  0  0  0  0
    5.4478    0.6304   20.1479 C   0  0  0  0  0  0  0  0  0  0  0  0
    5.0419    0.5563   21.1546 H   0  0  0  0  0  0  0  0  0  0  0  0
    4.8184    1.3119   19.1030 C   0  0  0  0  0  0  0  0  0  0  0  0
    3.8803    1.8426   19.2495 H   0  0  0  0  0  0  0  0  0  0  0  0
  1  2  1  0
  2  3  2  0
  3  4  1  0
  4  5  1  0
  4  6  2  0
  6  7  1  0
  7  8  1  0
  8  9  2  0
  9 10  1  0
 10 11  2  0
 11 12  1  0
 12 13  1  0
 13 14  1  0
 13 15  1  0
 13 16  1  0
 12 17  2  0
 17 18  1  0
 17 19  1  0
 19 20  1  0
 19 21  2  0
 21 22  1  0
  9 23  1  0
 23 24  2  0
 23 25  1  0
 25 26  1  0
 25 27  2  0
 27 28  1  0
  6 29  1  0
 29 30  1  0
 29 31  2  0
 31 32  1  0
 31  2  1  0
 27  7  1  0
 21 10  1  0
M  END
>  <cnnaffinity>  (1) 
-5.4997

>  <filename>  (1) 
O=c1ccn(-c2cccnc2)nc1-c1cccc(C(F)(F)F)n1

$$$$
