
     RDKit          3D

 32 34  0  0  0  0  0  0  0  0999 V2000
    4.9546    1.8230   17.0243 H   0  0  0  0  0  0  0  0  0  0  0  0
    5.4056    1.2783   17.8531 C   0  0  0  0  0  0  0  0  0  0  0  0
    6.5506    0.6294   17.5888 N   0  0  0  0  0  0  0  0  0  0  0  0
    7.1523   -0.0060   18.5996 C   0  0  0  0  0  0  0  0  0  0  0  0
    8.1040   -0.4819   18.3801 H   0  0  0  0  0  0  0  0  0  0  0  0
    6.6333   -0.0603   19.9057 C   0  0  0  0  0  0  0  0  0  0  0  0
    7.3480   -0.7291   20.9474 N   0  0  0  0  0  0  0  0  0  0  0  0
    6.6085   -1.6444   21.6610 N   0  0  0  0  0  0  0  0  0  0  0  0
    7.2158   -2.3476   22.5859 C   0  0  0  0  0  0  0  0  0  0  0  0
    6.4183   -3.3155   23.1464 N   0  0  0  0  0  0  0  0  0  0  0  0
    5.4703   -2.9953   22.9964 H   0  0  0  0  0  0  0  0  0  0  0  0
    6.7252   -3.9828   24.3936 C   0  0  0  0  0  0  0  0  0  0  0  0
    6.0001   -4.7952   24.5197 H   0  0  0  0  0  0  0  0  0  0  0  0
    7.6916   -4.4952   24.3015 H   0  0  0  0  0  0  0  0  0  0  0  0
    6.7719   -3.1211   25.6353 C   0  0  0  0  0  0  0  0  0  0  0  0
    7.4810   -2.3019   25.5782 H   0  0  0  0  0  0  0  0  0  0  0  0
    6.6854   -3.7785   26.9821 C   0  0  0  0  0  0  0  0  0  0  0  0
    7.3762   -3.4438   27.7468 H   0  0  0  0  0  0  0  0  0  0  0  0
    6.4611   -4.8429   27.0294 H   0  0  0  0  0  0  0  0  0  0  0  0
    5.5863   -2.8608   26.5177 C   0  0  0  0  0  0  0  0  0  0  0  0
    4.6430   -3.3196   26.2319 H   0  0  0  0  0  0  0  0  0  0  0  0
    5.4900   -1.8805   26.9807 H   0  0  0  0  0  0  0  0  0  0  0  0
    8.5877   -2.1198   22.9521 C   0  0  0  0  0  0  0  0  0  0  0  0
    9.0035   -2.6890   23.7759 H   0  0  0  0  0  0  0  0  0  0  0  0
    9.3025   -1.1801   22.2803 C   0  0  0  0  0  0  0  0  0  0  0  0
   10.3400   -0.9456   22.4788 H   0  0  0  0  0  0  0  0  0  0  0  0
    8.7251   -0.3933   21.1967 C   0  0  0  0  0  0  0  0  0  0  0  0
    9.3321    0.4432   20.5501 O   0  0  0  0  0  0  0  0  0  0  0  0
    5.4179    0.5797   20.1655 C   0  0  0  0  0  0  0  0  0  0  0  0
    4.9867    0.5240   21.1651 H   0  0  0  0  0  0  0  0  0  0  0  0
    4.8089    1.2820   19.1205 C   0  0  0  0  0  0  0  0  0  0  0  0
    3.8946    1.8423   19.2762 H   0  0  0  0  0  0  0  0  0  0  0  0
  1  2  1  0
  2  3  2  0
  3  4  1  0
  4  5  1  0
  4  6  2  0
  6  7  1  0
  7  8  1  0
  8  9  2  0
  9 10  1  0
 10 11  1  0
 10 12  1  0
 12 13  1  0
 12 14  1  0
 12 15  1  0
 15 16  1  0
 15 17  1  0
 17 18  1  0
 17 19  1  0
 17 20  1  0
 20 21  1  0
 20 22  1  0
  9 23  1  0
 23 24  1  0
 23 25  2  0
 25 26  1  0
 25 27  1  0
 27 28  2  0
  6 29  1  0
 29 30  1  0
 29 31  2  0
 31 32  1  0
 31  2  1  0
 27  7  1  0
 20 15  1  0
M  END
>  <cnnaffinity>  (1) 
-5.06785

>  <filename>  (1) 
O=c1ccc(NCC2CC2)nn1-c1cccnc1

$$$$
