
     RDKit          3D

 29 31  0  0  0  0  0  0  0  0999 V2000
    4.9071    1.7762   17.0015 H   0  0  0  0  0  0  0  0  0  0  0  0
    5.3978    1.2940   17.8425 C   0  0  0  0  0  0  0  0  0  0  0  0
    6.5629    0.6783   17.5788 N   0  0  0  0  0  0  0  0  0  0  0  0
    7.1797    0.0589   18.5921 C   0  0  0  0  0  0  0  0  0  0  0  0
    8.1289   -0.4306   18.3835 H   0  0  0  0  0  0  0  0  0  0  0  0
    6.6666    0.0022   19.9078 C   0  0  0  0  0  0  0  0  0  0  0  0
    7.3588   -0.6839   20.9480 N   0  0  0  0  0  0  0  0  0  0  0  0
    6.7702   -1.4537   21.9440 C   0  0  0  0  0  0  0  0  0  0  0  0
    5.7017   -1.5831   21.9960 H   0  0  0  0  0  0  0  0  0  0  0  0
    7.7398   -1.9385   22.7509 C   0  0  0  0  0  0  0  0  0  0  0  0
    7.6158   -2.7895   23.9285 C   0  0  0  0  0  0  0  0  0  0  0  0
    8.6363   -2.8916   24.8875 C   0  0  0  0  0  0  0  0  0  0  0  0
    9.5563   -2.3253   24.7724 H   0  0  0  0  0  0  0  0  0  0  0  0
    8.4784   -3.7025   26.0076 C   0  0  0  0  0  0  0  0  0  0  0  0
    9.2710   -3.7779   26.7418 H   0  0  0  0  0  0  0  0  0  0  0  0
    7.2895   -4.4180   26.1750 C   0  0  0  0  0  0  0  0  0  0  0  0
    7.0895   -5.4319   27.5721 Cl  0  0  0  0  0  0  0  0  0  0  0  0
    6.2595   -4.3285   25.2352 C   0  0  0  0  0  0  0  0  0  0  0  0
    5.3415   -4.8847   25.3735 H   0  0  0  0  0  0  0  0  0  0  0  0
    6.4264   -3.5153   24.1192 C   0  0  0  0  0  0  0  0  0  0  0  0
    5.6267   -3.4540   23.3853 H   0  0  0  0  0  0  0  0  0  0  0  0
    8.9431   -1.4590   22.2443 N   0  0  0  0  0  0  0  0  0  0  0  0
    9.8739   -1.6274   22.5760 H   0  0  0  0  0  0  0  0  0  0  0  0
    8.7513   -0.6745   21.1383 C   0  0  0  0  0  0  0  0  0  0  0  0
    9.5947   -0.1057   20.4753 O   0  0  0  0  0  0  0  0  0  0  0  0
    5.4470    0.6450   20.1625 C   0  0  0  0  0  0  0  0  0  0  0  0
    5.0141    0.6305   21.1626 H   0  0  0  0  0  0  0  0  0  0  0  0
    4.8082    1.3112   19.1111 C   0  0  0  0  0  0  0  0  0  0  0  0
    3.8731    1.8438   19.2679 H   0  0  0  0  0  0  0  0  0  0  0  0
  1  2  1  0
  2  3  2  0
  3  4  1  0
  4  5  1  0
  4  6  2  0
  6  7  1  0
  7  8  1  0
  8  9  1  0
  8 10  2  0
 10 11  1  0
 11 12  2  0
 12 13  1  0
 12 14  1  0
 14 15  1  0
 14 16  2  0
 16 17  1  0
 16 18  1  0
 18 19  1  0
 18 20  2  0
 20 21  1  0
 10 22  1  0
 22 23  1  0
 22 24  1  0
 24 25  2  0
  6 26  1  0
 26 27  1  0
 26 28  2  0
 28 29  1  0
 28  2  1  0
 24  7  1  0
 20 11  1  0
M  END
>  <cnnaffinity>  (1) 
-5.35899

>  <filename>  (1) 
O=c1[nH]c(-c2ccc(Cl)cc2)cn1-c1cccnc1

$$$$
