
     RDKit          3D

 33 35  0  0  0  0  0  0  0  0999 V2000
    4.9467    1.7800   16.9927 H   0  0  0  0  0  0  0  0  0  0  0  0
    5.4199    1.2874   17.8378 C   0  0  0  0  0  0  0  0  0  0  0  0
    6.5939    0.6798   17.5894 N   0  0  0  0  0  0  0  0  0  0  0  0
    7.2169    0.0836   18.6098 C   0  0  0  0  0  0  0  0  0  0  0  0
    8.1760   -0.3776   18.3977 H   0  0  0  0  0  0  0  0  0  0  0  0
    6.6767    0.0204   19.9060 C   0  0  0  0  0  0  0  0  0  0  0  0
    7.3705   -0.6911   20.9403 N   0  0  0  0  0  0  0  0  0  0  0  0
    8.7213   -0.4370   20.9946 N   0  0  0  0  0  0  0  0  0  0  0  0
    9.3964   -0.9348   21.9960 C   0  0  0  0  0  0  0  0  0  0  0  0
   10.8485   -0.5164   22.1459 C   0  0  0  0  0  0  0  0  0  0  0  0
   11.8147   -1.5376   22.2125 C   0  0  0  0  0  0  0  0  0  0  0  0
   11.4896   -2.5742   22.2336 H   0  0  0  0  0  0  0  0  0  0  0  0
   13.1825   -1.2528   22.2653 C   0  0  0  0  0  0  0  0  0  0  0  0
   13.9118   -2.0648   22.2671 H   0  0  0  0  0  0  0  0  0  0  0  0
   13.6117    0.0722   22.3238 C   0  0  0  0  0  0  0  0  0  0  0  0
   14.6747    0.3014   22.3883 H   0  0  0  0  0  0  0  0  0  0  0  0
   12.6720    1.1028   22.2963 C   0  0  0  0  0  0  0  0  0  0  0  0
   13.0243    2.1334   22.3280 H   0  0  0  0  0  0  0  0  0  0  0  0
   11.2917    0.8314   22.2165 C   0  0  0  0  0  0  0  0  0  0  0  0
   10.3274    2.0179   22.2204 C   0  0  0  0  0  0  0  0  0  0  0  0
   10.9116    3.1577   22.6437 F   0  0  0  0  0  0  0  0  0  0  0  0
    9.2693    1.8105   23.0259 F   0  0  0  0  0  0  0  0  0  0  0  0
    9.8441    2.2666   20.9932 F   0  0  0  0  0  0  0  0  0  0  0  0
    8.8173   -1.8898   22.9057 C   0  0  0  0  0  0  0  0  0  0  0  0
    9.4572   -2.3038   23.6829 H   0  0  0  0  0  0  0  0  0  0  0  0
    7.5097   -2.2491   22.7754 C   0  0  0  0  0  0  0  0  0  0  0  0
    7.0055   -2.9808   23.3969 H   0  0  0  0  0  0  0  0  0  0  0  0
    6.6818   -1.7001   21.7116 C   0  0  0  0  0  0  0  0  0  0  0  0
    5.5467   -2.0625   21.4544 O   0  0  0  0  0  0  0  0  0  0  0  0
    5.4562    0.6518   20.1633 C   0  0  0  0  0  0  0  0  0  0  0  0
    5.0183    0.6016   21.1569 H   0  0  0  0  0  0  0  0  0  0  0  0
    4.8246    1.3100   19.1032 C   0  0  0  0  0  0  0  0  0  0  0  0
    3.8827    1.8328   19.2434 H   0  0  0  0  0  0  0  0  0  0  0  0
  1  2  1  0
  2  3  2  0
  3  4  1  0
  4  5  1  0
  4  6  2  0
  6  7  1  0
  7  8  1  0
  8  9  2  0
  9 10  1  0
 10 11  2  0
 11 12  1  0
 11 13  1  0
 13 14  1  0
 13 15  2  0
 15 16  1  0
 15 17  1  0
 17 18  1  0
 17 19  2  0
 19 20  1  0
 20 21  1  0
 20 22  1  0
 20 23  1  0
  9 24  1  0
 24 25  1  0
 24 26  2  0
 26 27  1  0
 26 28  1  0
 28 29  2  0
  6 30  1  0
 30 31  1  0
 30 32  2  0
 32 33  1  0
 32  2  1  0
 28  7  1  0
 19 10  1  0
M  END
>  <cnnaffinity>  (1) 
-5.4935

>  <filename>  (1) 
O=c1ccc(-c2ccccc2C(F)(F)F)nn1-c1cccnc1

$$$$
