
     RDKit          3D

 31 33  0  0  0  0  0  0  0  0999 V2000
    4.9119    1.7885   16.9889 H   0  0  0  0  0  0  0  0  0  0  0  0
    5.3936    1.2996   17.8288 C   0  0  0  0  0  0  0  0  0  0  0  0
    6.5521    0.6801   17.5568 N   0  0  0  0  0  0  0  0  0  0  0  0
    7.1579    0.0689   18.5770 C   0  0  0  0  0  0  0  0  0  0  0  0
    8.1106   -0.4134   18.3725 H   0  0  0  0  0  0  0  0  0  0  0  0
    6.6435    0.0036   19.8864 C   0  0  0  0  0  0  0  0  0  0  0  0
    7.3507   -0.7117   20.9629 C   0  0  0  0  0  0  0  0  0  0  0  0
    6.6917   -1.6463   21.7337 C   0  0  0  0  0  0  0  0  0  0  0  0
    5.6331   -1.8390   21.5415 H   0  0  0  0  0  0  0  0  0  0  0  0
    7.3446   -2.3690   22.7744 C   0  0  0  0  0  0  0  0  0  0  0  0
    6.6119   -3.3782   23.5829 C   0  0  0  0  0  0  0  0  0  0  0  0
    5.6962   -4.2569   22.9764 C   0  0  0  0  0  0  0  0  0  0  0  0
    5.5380   -4.2018   21.9032 H   0  0  0  0  0  0  0  0  0  0  0  0
    5.0100   -5.2107   23.7259 C   0  0  0  0  0  0  0  0  0  0  0  0
    4.3040   -5.8992   23.2729 H   0  0  0  0  0  0  0  0  0  0  0  0
    5.2425   -5.2628   25.0996 C   0  0  0  0  0  0  0  0  0  0  0  0
    4.5886   -6.1754   25.8313 F   0  0  0  0  0  0  0  0  0  0  0  0
    6.1291   -4.4005   25.7411 C   0  0  0  0  0  0  0  0  0  0  0  0
    6.2867   -4.4776   26.8114 H   0  0  0  0  0  0  0  0  0  0  0  0
    6.8113   -3.4612   24.9711 C   0  0  0  0  0  0  0  0  0  0  0  0
    7.4919   -2.7650   25.4512 H   0  0  0  0  0  0  0  0  0  0  0  0
    8.6666   -2.0962   23.0097 C   0  0  0  0  0  0  0  0  0  0  0  0
    9.2402   -2.6121   23.7809 H   0  0  0  0  0  0  0  0  0  0  0  0
    9.3191   -1.1676   22.2522 N   0  0  0  0  0  0  0  0  0  0  0  0
   10.2824   -0.9031   22.3748 H   0  0  0  0  0  0  0  0  0  0  0  0
    8.7715   -0.4058   21.2191 C   0  0  0  0  0  0  0  0  0  0  0  0
    9.5107    0.3946   20.6677 O   0  0  0  0  0  0  0  0  0  0  0  0
    5.4242    0.6460   20.1462 C   0  0  0  0  0  0  0  0  0  0  0  0
    5.0121    0.6328   21.1614 H   0  0  0  0  0  0  0  0  0  0  0  0
    4.7992    1.3199   19.0981 C   0  0  0  0  0  0  0  0  0  0  0  0
    3.8664    1.8514   19.2533 H   0  0  0  0  0  0  0  0  0  0  0  0
  1  2  1  0
  2  3  2  0
  3  4  1  0
  4  5  1  0
  4  6  2  0
  6  7  1  0
  7  8  2  0
  8  9  1  0
  8 10  1  0
 10 11  1  0
 11 12  2  0
 12 13  1  0
 12 14  1  0
 14 15  1  0
 14 16  2  0
 16 17  1  0
 16 18  1  0
 18 19  1  0
 18 20  2  0
 20 21  1  0
 10 22  2  0
 22 23  1  0
 22 24  1  0
 24 25  1  0
 24 26  1  0
 26 27  2  0
  6 28  1  0
 28 29  1  0
 28 30  2  0
 30 31  1  0
 30  2  1  0
 26  7  1  0
 20 11  1  0
M  END
>  <cnnaffinity>  (1) 
-5.16755

>  <filename>  (1) 
O=c1[nH]cc(-c2ccc(F)cc2)cc1-c1cccnc1

$$$$
