
     RDKit          3D

 32 34  0  0  0  0  0  0  0  0999 V2000
   11.6850    3.2342   23.1890 H   0  0  0  0  0  0  0  0  0  0  0  0
   12.4946    2.7386   23.3676 O   0  0  0  0  0  0  0  0  0  0  0  0
   12.2665    1.4478   23.0127 C   0  0  0  0  0  0  0  0  0  0  0  0
   13.3692    0.5944   22.8693 C   0  0  0  0  0  0  0  0  0  0  0  0
   14.3685    0.9982   22.9887 H   0  0  0  0  0  0  0  0  0  0  0  0
   13.1543   -0.7417   22.5329 C   0  0  0  0  0  0  0  0  0  0  0  0
   13.9956   -1.4248   22.4384 H   0  0  0  0  0  0  0  0  0  0  0  0
   11.8541   -1.2193   22.3380 C   0  0  0  0  0  0  0  0  0  0  0  0
   11.6826   -2.2588   22.0877 H   0  0  0  0  0  0  0  0  0  0  0  0
   10.7507   -0.3567   22.4567 C   0  0  0  0  0  0  0  0  0  0  0  0
    9.3721   -0.8285   22.1879 C   0  0  0  0  0  0  0  0  0  0  0  0
    8.6035   -0.2404   21.2380 C   0  0  0  0  0  0  0  0  0  0  0  0
    8.9490    0.6284   20.6791 H   0  0  0  0  0  0  0  0  0  0  0  0
    7.3385   -0.7032   20.8899 N   0  0  0  0  0  0  0  0  0  0  0  0
    6.6277   -0.0290   19.8169 C   0  0  0  0  0  0  0  0  0  0  0  0
    7.1683    0.0634   18.5158 C   0  0  0  0  0  0  0  0  0  0  0  0
    8.1146   -0.4228   18.2755 H   0  0  0  0  0  0  0  0  0  0  0  0
    6.5732    0.7214   17.5142 N   0  0  0  0  0  0  0  0  0  0  0  0
    5.4147    1.3468   17.7757 C   0  0  0  0  0  0  0  0  0  0  0  0
    4.9639    1.8893   16.9477 H   0  0  0  0  0  0  0  0  0  0  0  0
    4.7999    1.3200   19.0301 C   0  0  0  0  0  0  0  0  0  0  0  0
    3.8719    1.8576   19.1831 H   0  0  0  0  0  0  0  0  0  0  0  0
    5.4104    0.6124   20.0711 C   0  0  0  0  0  0  0  0  0  0  0  0
    4.9692    0.5612   21.0651 H   0  0  0  0  0  0  0  0  0  0  0  0
    6.7448   -1.7753   21.6073 C   0  0  0  0  0  0  0  0  0  0  0  0
    5.6716   -2.2778   21.3677 O   0  0  0  0  0  0  0  0  0  0  0  0
    7.5020   -2.2525   22.6300 N   0  0  0  0  0  0  0  0  0  0  0  0
    7.1112   -3.0381   23.1095 H   0  0  0  0  0  0  0  0  0  0  0  0
    8.8121   -1.9651   22.9459 C   0  0  0  0  0  0  0  0  0  0  0  0
    9.3426   -2.6521   23.7934 O   0  0  0  0  0  0  0  0  0  0  0  0
   10.9687    0.9907   22.7793 C   0  0  0  0  0  0  0  0  0  0  0  0
   10.1368    1.6919   22.8567 H   0  0  0  0  0  0  0  0  0  0  0  0
  1  2  1  0
  2  3  1  0
  3  4  2  0
  4  5  1  0
  4  6  1  0
  6  7  1  0
  6  8  2  0
  8  9  1  0
  8 10  1  0
 10 11  1  0
 11 12  2  0
 12 13  1  0
 12 14  1  0
 14 15  1  0
 15 16  2  0
 16 17  1  0
 16 18  1  0
 18 19  2  0
 19 20  1  0
 19 21  1  0
 21 22  1  0
 21 23  2  0
 23 24  1  0
 14 25  1  0
 25 26  2  0
 25 27  1  0
 27 28  1  0
 27 29  1  0
 29 30  2  0
 10 31  2  0
 31 32  1  0
 31  3  1  0
 29 11  1  0
 23 15  1  0
M  END
>  <cnnaffinity>  (1) 
-5.03641

>  <filename>  (1) 
O=c1[nH]c(=O)n(-c2cccnc2)cc1-c1cccc(O)c1

$$$$
