
     RDKit          3D

 33 36  0  0  0  0  0  0  0  0999 V2000
    4.8478    1.7287   16.9851 H   0  0  0  0  0  0  0  0  0  0  0  0
    5.3686    1.2837   17.8291 C   0  0  0  0  0  0  0  0  0  0  0  0
    6.5574    0.7119   17.5523 N   0  0  0  0  0  0  0  0  0  0  0  0
    7.2331    0.1884   18.5683 C   0  0  0  0  0  0  0  0  0  0  0  0
    8.1866   -0.2951   18.3597 H   0  0  0  0  0  0  0  0  0  0  0  0
    6.7971    0.2096   19.9238 C   0  0  0  0  0  0  0  0  0  0  0  0
    7.6627   -0.3474   20.8577 N   0  0  0  0  0  0  0  0  0  0  0  0
    7.6540   -0.0734   22.1093 C   0  0  0  0  0  0  0  0  0  0  0  0
    7.3457    1.2369   22.7237 C   0  0  0  0  0  0  0  0  0  0  0  0
    7.8395    2.3987   22.1304 C   0  0  0  0  0  0  0  0  0  0  0  0
    8.4607    2.3635   21.2367 H   0  0  0  0  0  0  0  0  0  0  0  0
    7.6367    3.6563   22.6047 N   0  0  0  0  0  0  0  0  0  0  0  0
    6.9205    3.8009   23.6973 C   0  0  0  0  0  0  0  0  0  0  0  0
    6.7561    4.8175   24.0630 H   0  0  0  0  0  0  0  0  0  0  0  0
    6.3638    2.7155   24.4363 C   0  0  0  0  0  0  0  0  0  0  0  0
    5.6169    2.9252   25.6332 C   0  0  0  0  0  0  0  0  0  0  0  0
    5.4755    3.9408   25.9929 H   0  0  0  0  0  0  0  0  0  0  0  0
    5.0731    1.8616   26.3075 C   0  0  0  0  0  0  0  0  0  0  0  0
    4.4970    2.0270   27.2120 H   0  0  0  0  0  0  0  0  0  0  0  0
    5.2462    0.5435   25.8160 C   0  0  0  0  0  0  0  0  0  0  0  0
    4.8011   -0.2867   26.3544 H   0  0  0  0  0  0  0  0  0  0  0  0
    5.9704    0.3109   24.6634 C   0  0  0  0  0  0  0  0  0  0  0  0
    6.0750   -0.7004   24.2819 H   0  0  0  0  0  0  0  0  0  0  0  0
    6.5671    1.3910   23.9429 C   0  0  0  0  0  0  0  0  0  0  0  0
    8.3255   -1.0988   22.9860 C   0  0  0  0  0  0  0  0  0  0  0  0
    8.4426   -0.8117   24.0500 H   0  0  0  0  0  0  0  0  0  0  0  0
    8.7433   -2.1562   22.5696 O   0  0  0  0  0  0  0  0  0  0  0  0
    6.8783   -2.7669   21.0568 C   0  0  0  0  0  0  0  0  0  0  0  0
    6.6515   -3.0722   20.9450 O   0  0  0  0  0  0  0  0  0  0  0  0
    5.5309    0.7614   20.1840 C   0  0  0  0  0  0  0  0  0  0  0  0
    5.1464    0.7919   21.2057 H   0  0  0  0  0  0  0  0  0  0  0  0
    4.8186    1.3109   19.1111 C   0  0  0  0  0  0  0  0  0  0  0  0
    3.8594    1.7897   19.2682 H   0  0  0  0  0  0  0  0  0  0  0  0
  1  2  1  0
  2  3  2  0
  3  4  1  0
  4  5  1  0
  4  6  2  0
  6  7  1  0
  7  8  1  0
  8  9  1  0
  9 10  2  0
 10 11  1  0
 10 12  1  0
 12 13  2  0
 13 14  1  0
 13 15  1  0
 15 16  2  0
 16 17  1  0
 16 18  1  0
 18 19  1  0
 18 20  2  0
 20 21  1  0
 20 22  1  0
 22 23  1  0
 22 24  2  0
  8 25  2  0
 25 26  1  0
 25 27  1  0
 27 28  1  0
 28 29  2  0
  6 30  1  0
 30 31  1  0
 30 32  2  0
 32 33  1  0
 32  2  1  0
 28  7  1  0
 24  9  1  0
 24 15  1  0
M  END
>  <cnnaffinity>  (1) 
-5.21945

>  <filename>  (1) 
O=c1occ(-c2cncc3ccccc23)n1-c1cccnc1

$$$$
