
     RDKit          3D

 40 42  0  0  0  0  0  0  0  0999 V2000
    4.9407    1.8562   16.9443 H   0  0  0  0  0  0  0  0  0  0  0  0
    5.3923    1.3369   17.7875 C   0  0  0  0  0  0  0  0  0  0  0  0
    6.5664    0.7320   17.5512 N   0  0  0  0  0  0  0  0  0  0  0  0
    7.1533    0.0945   18.5724 C   0  0  0  0  0  0  0  0  0  0  0  0
    8.1066   -0.3823   18.3635 H   0  0  0  0  0  0  0  0  0  0  0  0
    6.6103    0.0239   19.8730 C   0  0  0  0  0  0  0  0  0  0  0  0
    7.3139   -0.6537   20.9474 N   0  0  0  0  0  0  0  0  0  0  0  0
    7.8312    0.0969   22.0052 C   0  0  0  0  0  0  0  0  0  0  0  0
    7.6707    1.1731   21.9116 H   0  0  0  0  0  0  0  0  0  0  0  0
    8.4730   -0.4972   23.0396 C   0  0  0  0  0  0  0  0  0  0  0  0
    8.8023    0.1945   24.3240 C   0  0  0  0  0  0  0  0  0  0  0  0
    9.0027    1.2517   24.1096 H   0  0  0  0  0  0  0  0  0  0  0  0
    9.7185   -0.2496   24.7297 H   0  0  0  0  0  0  0  0  0  0  0  0
    7.6847    0.0666   25.3771 C   0  0  0  0  0  0  0  0  0  0  0  0
    6.7329    0.3857   24.9355 H   0  0  0  0  0  0  0  0  0  0  0  0
    7.5612   -0.9899   25.6436 H   0  0  0  0  0  0  0  0  0  0  0  0
    7.9227    0.8881   26.6561 C   0  0  0  0  0  0  0  0  0  0  0  0
    7.1364    0.6585   27.3859 H   0  0  0  0  0  0  0  0  0  0  0  0
    8.8679    0.5808   27.1292 H   0  0  0  0  0  0  0  0  0  0  0  0
    7.9593    2.3808   26.3974 C   0  0  0  0  0  0  0  0  0  0  0  0
    9.1769    3.0096   26.1030 C   0  0  0  0  0  0  0  0  0  0  0  0
   10.0586    2.3761   26.0125 H   0  0  0  0  0  0  0  0  0  0  0  0
    9.2597    4.3934   25.9069 C   0  0  0  0  0  0  0  0  0  0  0  0
   10.2219    4.8553   25.6969 H   0  0  0  0  0  0  0  0  0  0  0  0
    8.0964    5.1673   25.9509 C   0  0  0  0  0  0  0  0  0  0  0  0
    8.1457    6.2438   25.8027 H   0  0  0  0  0  0  0  0  0  0  0  0
    6.8614    4.5430   26.1614 C   0  0  0  0  0  0  0  0  0  0  0  0
    5.9461    5.1288   26.1420 H   0  0  0  0  0  0  0  0  0  0  0  0
    6.7935    3.1633   26.3821 C   0  0  0  0  0  0  0  0  0  0  0  0
    5.8242    2.6968   26.5460 H   0  0  0  0  0  0  0  0  0  0  0  0
    8.7226   -1.9501   22.9762 C   0  0  0  0  0  0  0  0  0  0  0  0
    9.2293   -2.6404   23.8362 O   0  0  0  0  0  0  0  0  0  0  0  0
    8.3326   -2.5667   21.8007 N   0  0  0  0  0  0  0  0  0  0  0  0
    8.2265   -3.5558   21.9431 H   0  0  0  0  0  0  0  0  0  0  0  0
    7.2881   -2.0655   21.0652 C   0  0  0  0  0  0  0  0  0  0  0  0
    6.4743   -2.8022   20.5670 O   0  0  0  0  0  0  0  0  0  0  0  0
    5.3955    0.6794   20.1082 C   0  0  0  0  0  0  0  0  0  0  0  0
    4.9761    0.7028   21.1160 H   0  0  0  0  0  0  0  0  0  0  0  0
    4.7681    1.3355   19.0402 C   0  0  0  0  0  0  0  0  0  0  0  0
    3.8422    1.8828   19.1807 H   0  0  0  0  0  0  0  0  0  0  0  0
  1  2  1  0
  2  3  2  0
  3  4  1  0
  4  5  1  0
  4  6  2  0
  6  7  1  0
  7  8  1  0
  8  9  1  0
  8 10  2  0
 10 11  1  0
 11 12  1  0
 11 13  1  0
 11 14  1  0
 14 15  1  0
 14 16  1  0
 14 17  1  0
 17 18  1  0
 17 19  1  0
 17 20  1  0
 20 21  2  0
 21 22  1  0
 21 23  1  0
 23 24  1  0
 23 25  2  0
 25 26  1  0
 25 27  1  0
 27 28  1  0
 27 29  2  0
 29 30  1  0
 10 31  1  0
 31 32  2  0
 31 33  1  0
 33 34  1  0
 33 35  1  0
 35 36  2  0
  6 37  1  0
 37 38  1  0
 37 39  2  0
 39 40  1  0
 39  2  1  0
 35  7  1  0
 29 20  1  0
M  END
>  <cnnaffinity>  (1) 
-5.17458

>  <filename>  (1) 
O=c1[nH]c(=O)n(-c2cccnc2)cc1CCCc1ccccc1

$$$$
