
     RDKit          3D

 31 33  0  0  0  0  0  0  0  0999 V2000
    5.0174    2.0244   16.7801 H   0  0  0  0  0  0  0  0  0  0  0  0
    5.3374    1.4217   17.6282 C   0  0  0  0  0  0  0  0  0  0  0  0
    6.4350    0.6734   17.4333 N   0  0  0  0  0  0  0  0  0  0  0  0
    6.8672   -0.0430   18.4767 C   0  0  0  0  0  0  0  0  0  0  0  0
    7.7745   -0.6206   18.3120 H   0  0  0  0  0  0  0  0  0  0  0  0
    6.2436   -0.0928   19.7395 C   0  0  0  0  0  0  0  0  0  0  0  0
    6.8858   -0.8665   20.8346 C   0  0  0  0  0  0  0  0  0  0  0  0
    6.1736   -1.7347   21.7116 C   0  0  0  0  0  0  0  0  0  0  0  0
    5.1185   -1.9138   21.5224 H   0  0  0  0  0  0  0  0  0  0  0  0
    6.8114   -2.3430   22.7457 C   0  0  0  0  0  0  0  0  0  0  0  0
    6.3075   -2.9527   23.4786 H   0  0  0  0  0  0  0  0  0  0  0  0
    8.2377   -2.1864   22.9956 C   0  0  0  0  0  0  0  0  0  0  0  0
    8.8176   -2.7681   23.8945 O   0  0  0  0  0  0  0  0  0  0  0  0
    8.8927   -1.2882   22.0977 N   0  0  0  0  0  0  0  0  0  0  0  0
   10.2714   -0.9431   22.2601 C   0  0  0  0  0  0  0  0  0  0  0  0
   11.2592   -1.9120   22.1216 C   0  0  0  0  0  0  0  0  0  0  0  0
   10.9378   -2.9316   21.9737 H   0  0  0  0  0  0  0  0  0  0  0  0
   12.6018   -1.5446   22.1615 C   0  0  0  0  0  0  0  0  0  0  0  0
   13.3840   -2.2851   22.0195 H   0  0  0  0  0  0  0  0  0  0  0  0
   12.9548   -0.2070   22.3902 C   0  0  0  0  0  0  0  0  0  0  0  0
   14.6260    0.2072   22.4881 Cl  0  0  0  0  0  0  0  0  0  0  0  0
   11.9564    0.7710   22.5443 C   0  0  0  0  0  0  0  0  0  0  0  0
   12.3192    2.4386   22.8367 Cl  0  0  0  0  0  0  0  0  0  0  0  0
   10.6162    0.3963   22.4536 C   0  0  0  0  0  0  0  0  0  0  0  0
    9.8310    1.1378   22.5037 H   0  0  0  0  0  0  0  0  0  0  0  0
    8.2220   -0.7090   21.0531 C   0  0  0  0  0  0  0  0  0  0  0  0
    8.8291   -0.0806   20.4108 H   0  0  0  0  0  0  0  0  0  0  0  0
    5.0810    0.6744   19.9092 C   0  0  0  0  0  0  0  0  0  0  0  0
    4.5593    0.6879   20.8697 H   0  0  0  0  0  0  0  0  0  0  0  0
    4.6323    1.4523   18.8368 C   0  0  0  0  0  0  0  0  0  0  0  0
    3.7667    2.1004   18.9243 H   0  0  0  0  0  0  0  0  0  0  0  0
  1  2  1  0
  2  3  2  0
  3  4  1  0
  4  5  1  0
  4  6  2  0
  6  7  1  0
  7  8  1  0
  8  9  1  0
  8 10  2  0
 10 11  1  0
 10 12  1  0
 12 13  2  0
 12 14  1  0
 14 15  1  0
 15 16  2  0
 16 17  1  0
 16 18  1  0
 18 19  1  0
 18 20  2  0
 20 21  1  0
 20 22  1  0
 22 23  1  0
 22 24  2  0
 24 25  1  0
 14 26  1  0
 26 27  1  0
  6 28  1  0
 28 29  1  0
 28 30  2  0
 30 31  1  0
 30  2  1  0
 26  7  2  0
 24 15  1  0
M  END
>  <cnnaffinity>  (1) 
-5.26184

>  <filename>  (1) 
O=c1ccc(-c2cccnc2)cn1-c1ccc(Cl)c(Cl)c1

$$$$
