
     RDKit          3D

 35 38  0  0  0  0  0  0  0  0999 V2000
    5.4130    1.5032   16.6083 H   0  0  0  0  0  0  0  0  0  0  0  0
    5.7284    1.0446   17.5442 C   0  0  0  0  0  0  0  0  0  0  0  0
    6.6119    0.0445   17.4429 N   0  0  0  0  0  0  0  0  0  0  0  0
    7.0230   -0.5405   18.5762 C   0  0  0  0  0  0  0  0  0  0  0  0
    7.7072   -1.3779   18.4392 H   0  0  0  0  0  0  0  0  0  0  0  0
    6.6200   -0.1385   19.8778 C   0  0  0  0  0  0  0  0  0  0  0  0
    7.1804   -0.6914   21.1387 C   0  0  0  0  0  0  0  0  0  0  0  0
    7.0124    0.0709   22.2015 N   0  0  0  0  0  0  0  0  0  0  0  0
    7.7544   -0.3018   23.3332 N   0  0  0  0  0  0  0  0  0  0  0  0
    7.6006    0.4319   24.5278 C   0  0  0  0  0  0  0  0  0  0  0  0
    8.1556   -0.0787   25.6090 N   0  0  0  0  0  0  0  0  0  0  0  0
    8.0107    0.6149   26.7775 C   0  0  0  0  0  0  0  0  0  0  0  0
    8.5276    0.0196   27.9606 C   0  0  0  0  0  0  0  0  0  0  0  0
    9.0316   -0.9338   27.8385 H   0  0  0  0  0  0  0  0  0  0  0  0
    8.4068    0.6589   29.1760 C   0  0  0  0  0  0  0  0  0  0  0  0
    8.8188    0.2065   30.0762 H   0  0  0  0  0  0  0  0  0  0  0  0
    7.7989    1.9422   29.2577 C   0  0  0  0  0  0  0  0  0  0  0  0
    7.7405    2.4349   30.2241 H   0  0  0  0  0  0  0  0  0  0  0  0
    7.3020    2.5563   28.1276 C   0  0  0  0  0  0  0  0  0  0  0  0
    6.8500    3.5471   28.1784 H   0  0  0  0  0  0  0  0  0  0  0  0
    7.3750    1.8953   26.8657 C   0  0  0  0  0  0  0  0  0  0  0  0
    6.8113    2.4193   25.6599 C   0  0  0  0  0  0  0  0  0  0  0  0
    6.3135    3.3912   25.6721 H   0  0  0  0  0  0  0  0  0  0  0  0
    6.9009    1.6860   24.5059 C   0  0  0  0  0  0  0  0  0  0  0  0
    6.4720    2.0098   23.5701 H   0  0  0  0  0  0  0  0  0  0  0  0
    8.7938   -1.2231   23.1902 C   0  0  0  0  0  0  0  0  0  0  0  0
    9.4998   -1.3298   23.9985 H   0  0  0  0  0  0  0  0  0  0  0  0
    8.9476   -1.9718   22.0550 C   0  0  0  0  0  0  0  0  0  0  0  0
    9.6239   -2.8241   21.9749 H   0  0  0  0  0  0  0  0  0  0  0  0
    7.7408   -2.1554   21.0658 C   0  0  0  0  0  0  0  0  0  0  0  0
    7.7818   -2.0728   21.0785 O   0  0  0  0  0  0  0  0  0  0  0  0
    5.6738    0.9122   19.9406 C   0  0  0  0  0  0  0  0  0  0  0  0
    5.3268    1.2655   20.9127 H   0  0  0  0  0  0  0  0  0  0  0  0
    5.2181    1.4995   18.7637 C   0  0  0  0  0  0  0  0  0  0  0  0
    4.4851    2.2988   18.7871 H   0  0  0  0  0  0  0  0  0  0  0  0
  1  2  1  0
  2  3  2  0
  3  4  1  0
  4  5  1  0
  4  6  2  0
  6  7  1  0
  7  8  2  0
  8  9  1  0
  9 10  1  0
 10 11  2  0
 11 12  1  0
 12 13  2  0
 13 14  1  0
 13 15  1  0
 15 16  1  0
 15 17  2  0
 17 18  1  0
 17 19  1  0
 19 20  1  0
 19 21  2  0
 21 22  1  0
 22 23  1  0
 22 24  2  0
 24 25  1  0
  9 26  1  0
 26 27  1  0
 26 28  2  0
 28 29  1  0
 28 30  1  0
 30 31  2  0
  6 32  1  0
 32 33  1  0
 32 34  2  0
 34 35  1  0
 34  2  1  0
 30  7  1  0
 24 10  1  0
 21 12  1  0
M  END
>  <cnnaffinity>  (1) 
-5.08157

>  <filename>  (1) 
O=c1ccn(-c2ccc3ccccc3n2)nc1-c1cccnc1

$$$$
