
     RDKit          3D

 33 35  0  0  0  0  0  0  0  0999 V2000
    7.0644   -4.3808   21.5498 H   0  0  0  0  0  0  0  0  0  0  0  0
    6.2567   -4.8518   21.3036 O   0  0  0  0  0  0  0  0  0  0  0  0
    5.3392   -4.6465   22.2875 C   0  0  0  0  0  0  0  0  0  0  0  0
    4.1210   -5.3149   22.1506 C   0  0  0  0  0  0  0  0  0  0  0  0
    4.0346   -6.0855   21.4015 H   0  0  0  0  0  0  0  0  0  0  0  0
    3.0617   -5.0188   23.0043 C   0  0  0  0  0  0  0  0  0  0  0  0
    1.4828   -5.6346   22.6314 Cl  0  0  0  0  0  0  0  0  0  0  0  0
    3.2258   -4.1632   24.0913 C   0  0  0  0  0  0  0  0  0  0  0  0
    2.3951   -3.9490   24.7568 H   0  0  0  0  0  0  0  0  0  0  0  0
    4.4795   -3.5825   24.2975 C   0  0  0  0  0  0  0  0  0  0  0  0
    4.6672   -2.9495   25.1542 H   0  0  0  0  0  0  0  0  0  0  0  0
    5.5294   -3.8020   23.4018 C   0  0  0  0  0  0  0  0  0  0  0  0
    6.7402   -3.2081   23.6972 O   0  0  0  0  0  0  0  0  0  0  0  0
    7.3485   -2.3189   22.8296 C   0  0  0  0  0  0  0  0  0  0  0  0
    6.6929   -1.6231   21.7805 C   0  0  0  0  0  0  0  0  0  0  0  0
    5.6407   -1.8295   21.6049 H   0  0  0  0  0  0  0  0  0  0  0  0
    7.3661   -0.7298   20.9577 C   0  0  0  0  0  0  0  0  0  0  0  0
    6.6486   -0.0156   19.8591 C   0  0  0  0  0  0  0  0  0  0  0  0
    7.1459    0.0655   18.5340 C   0  0  0  0  0  0  0  0  0  0  0  0
    8.0958   -0.4060   18.2961 H   0  0  0  0  0  0  0  0  0  0  0  0
    6.5354    0.6919   17.5191 N   0  0  0  0  0  0  0  0  0  0  0  0
    5.3809    1.3172   17.7933 C   0  0  0  0  0  0  0  0  0  0  0  0
    4.9084    1.8414   16.9641 H   0  0  0  0  0  0  0  0  0  0  0  0
    4.7879    1.3129   19.0602 C   0  0  0  0  0  0  0  0  0  0  0  0
    3.8571    1.8488   19.2147 H   0  0  0  0  0  0  0  0  0  0  0  0
    5.4217    0.6293   20.1022 C   0  0  0  0  0  0  0  0  0  0  0  0
    4.9895    0.6173   21.1060 H   0  0  0  0  0  0  0  0  0  0  0  0
    8.8024   -0.4600   21.2162 C   0  0  0  0  0  0  0  0  0  0  0  0
    9.5582    0.3149   20.6506 O   0  0  0  0  0  0  0  0  0  0  0  0
    9.3447   -1.2067   22.2662 N   0  0  0  0  0  0  0  0  0  0  0  0
   10.3079   -0.9350   22.3958 H   0  0  0  0  0  0  0  0  0  0  0  0
    8.6772   -2.1012   23.0585 C   0  0  0  0  0  0  0  0  0  0  0  0
    9.1992   -2.6291   23.8509 H   0  0  0  0  0  0  0  0  0  0  0  0
  1  2  1  0
  2  3  1  0
  3  4  2  0
  4  5  1  0
  4  6  1  0
  6  7  1  0
  6  8  2  0
  8  9  1  0
  8 10  1  0
 10 11  1  0
 10 12  2  0
 12 13  1  0
 13 14  1  0
 14 15  1  0
 15 16  1  0
 15 17  2  0
 17 18  1  0
 18 19  2  0
 19 20  1  0
 19 21  1  0
 21 22  2  0
 22 23  1  0
 22 24  1  0
 24 25  1  0
 24 26  2  0
 26 27  1  0
 17 28  1  0
 28 29  2  0
 28 30  1  0
 30 31  1  0
 30 32  1  0
 32 33  1  0
 12  3  1  0
 32 14  2  0
 26 18  1  0
M  END
>  <cnnaffinity>  (1) 
-5.57356

>  <filename>  (1) 
O=c1[nH]cc(Oc2ccc(Cl)cc2O)cc1-c1cccnc1

$$$$
