
     RDKit          3D

 32 34  0  0  0  0  0  0  0  0999 V2000
    6.6331   -4.0406   26.8455 H   0  0  0  0  0  0  0  0  0  0  0  0
    6.2735   -3.9301   25.8233 C   0  0  0  0  0  0  0  0  0  0  0  0
    6.9858   -3.1421   25.0320 N   0  0  0  0  0  0  0  0  0  0  0  0
    6.5757   -3.0390   23.7748 C   0  0  0  0  0  0  0  0  0  0  0  0
    7.3029   -2.2149   22.9131 N   0  0  0  0  0  0  0  0  0  0  0  0
    6.6718   -1.5553   21.8669 C   0  0  0  0  0  0  0  0  0  0  0  0
    5.6046   -1.7337   21.7650 H   0  0  0  0  0  0  0  0  0  0  0  0
    7.3407   -0.7388   20.9991 C   0  0  0  0  0  0  0  0  0  0  0  0
    6.6346   -0.0111   19.9077 C   0  0  0  0  0  0  0  0  0  0  0  0
    7.1542    0.0597   18.5984 C   0  0  0  0  0  0  0  0  0  0  0  0
    8.1015   -0.4225   18.3588 H   0  0  0  0  0  0  0  0  0  0  0  0
    6.5543    0.6785   17.5730 N   0  0  0  0  0  0  0  0  0  0  0  0
    5.3922    1.3010   17.8262 C   0  0  0  0  0  0  0  0  0  0  0  0
    4.9262    1.8011   16.9778 H   0  0  0  0  0  0  0  0  0  0  0  0
    4.7944    1.3183   19.0914 C   0  0  0  0  0  0  0  0  0  0  0  0
    3.8644    1.8537   19.2359 H   0  0  0  0  0  0  0  0  0  0  0  0
    5.4183    0.6464   20.1443 C   0  0  0  0  0  0  0  0  0  0  0  0
    5.0007    0.6434   21.1515 H   0  0  0  0  0  0  0  0  0  0  0  0
    8.7500   -0.5825   21.1715 C   0  0  0  0  0  0  0  0  0  0  0  0
    9.2773    0.0810   20.4910 H   0  0  0  0  0  0  0  0  0  0  0  0
    9.3960   -1.2285   22.1767 C   0  0  0  0  0  0  0  0  0  0  0  0
   10.4608   -1.1649   22.3422 H   0  0  0  0  0  0  0  0  0  0  0  0
    8.7217   -2.1301   23.1015 C   0  0  0  0  0  0  0  0  0  0  0  0
    9.3297   -2.7821   23.9189 O   0  0  0  0  0  0  0  0  0  0  0  0
    5.4891   -3.6143   23.2608 N   0  0  0  0  0  0  0  0  0  0  0  0
    4.7587   -4.4077   24.0639 C   0  0  0  0  0  0  0  0  0  0  0  0
    3.4645   -5.1057   23.5343 C   0  0  0  0  0  0  0  0  0  0  0  0
    3.2004   -4.8491   22.2547 F   0  0  0  0  0  0  0  0  0  0  0  0
    3.5479   -6.4462   23.6691 F   0  0  0  0  0  0  0  0  0  0  0  0
    2.3838   -4.7283   24.2509 F   0  0  0  0  0  0  0  0  0  0  0  0
    5.1315   -4.6041   25.3924 C   0  0  0  0  0  0  0  0  0  0  0  0
    4.5634   -5.2243   26.0680 H   0  0  0  0  0  0  0  0  0  0  0  0
  1  2  1  0
  2  3  2  0
  3  4  1  0
  4  5  1  0
  5  6  1  0
  6  7  1  0
  6  8  2  0
  8  9  1  0
  9 10  2  0
 10 11  1  0
 10 12  1  0
 12 13  2  0
 13 14  1  0
 13 15  1  0
 15 16  1  0
 15 17  2  0
 17 18  1  0
  8 19  1  0
 19 20  1  0
 19 21  2  0
 21 22  1  0
 21 23  1  0
 23 24  2  0
  4 25  2  0
 25 26  1  0
 26 27  1  0
 27 28  1  0
 27 29  1  0
 27 30  1  0
 26 31  2  0
 31 32  1  0
 31  2  1  0
 23  5  1  0
 17  9  1  0
M  END
>  <cnnaffinity>  (1) 
-5.53776

>  <filename>  (1) 
O=c1ccc(-c2cccnc2)cn1-c1nccc(C(F)(F)F)n1

$$$$
