
     RDKit          3D

 31 33  0  0  0  0  0  0  0  0999 V2000
    8.8429   -4.5595   26.4139 H   0  0  0  0  0  0  0  0  0  0  0  0
    8.8421   -3.8535   27.0663 O   0  0  0  0  0  0  0  0  0  0  0  0
    8.6443   -2.6948   26.4024 C   0  0  0  0  0  0  0  0  0  0  0  0
    8.6385   -1.5347   27.1684 C   0  0  0  0  0  0  0  0  0  0  0  0
    8.8211   -1.6031   28.2258 H   0  0  0  0  0  0  0  0  0  0  0  0
    8.4226   -0.3197   26.5373 C   0  0  0  0  0  0  0  0  0  0  0  0
    8.3578    0.8393   27.2273 O   0  0  0  0  0  0  0  0  0  0  0  0
    8.5862    0.6279   28.1374 H   0  0  0  0  0  0  0  0  0  0  0  0
    8.2490   -0.2473   25.1624 C   0  0  0  0  0  0  0  0  0  0  0  0
    8.1055    0.7341   24.7337 H   0  0  0  0  0  0  0  0  0  0  0  0
    8.2799   -1.4170   24.4076 C   0  0  0  0  0  0  0  0  0  0  0  0
    8.0863   -1.3150   23.0060 N   0  0  0  0  0  0  0  0  0  0  0  0
    7.2378   -0.4286   22.3469 C   0  0  0  0  0  0  0  0  0  0  0  0
    6.6459    0.2929   22.8826 H   0  0  0  0  0  0  0  0  0  0  0  0
    7.3337   -0.6468   21.0159 C   0  0  0  0  0  0  0  0  0  0  0  0
    6.6494    0.0036   19.9068 C   0  0  0  0  0  0  0  0  0  0  0  0
    7.1652    0.0522   18.5966 C   0  0  0  0  0  0  0  0  0  0  0  0
    8.1209   -0.4061   18.3442 H   0  0  0  0  0  0  0  0  0  0  0  0
    6.5589    0.6725   17.5757 N   0  0  0  0  0  0  0  0  0  0  0  0
    5.3942    1.2971   17.8206 C   0  0  0  0  0  0  0  0  0  0  0  0
    4.9240    1.7996   16.9729 H   0  0  0  0  0  0  0  0  0  0  0  0
    4.7948    1.3161   19.0847 C   0  0  0  0  0  0  0  0  0  0  0  0
    3.8642    1.8522   19.2308 H   0  0  0  0  0  0  0  0  0  0  0  0
    5.4290    0.6578   20.1346 C   0  0  0  0  0  0  0  0  0  0  0  0
    4.9872    0.6444   21.1277 H   0  0  0  0  0  0  0  0  0  0  0  0
    8.2678   -1.6567   20.8545 N   0  0  0  0  0  0  0  0  0  0  0  0
    8.5504   -2.1634   20.0383 H   0  0  0  0  0  0  0  0  0  0  0  0
    8.7268   -2.1136   22.0623 C   0  0  0  0  0  0  0  0  0  0  0  0
    9.5047   -3.0302   22.2231 O   0  0  0  0  0  0  0  0  0  0  0  0
    8.4732   -2.6629   25.0186 C   0  0  0  0  0  0  0  0  0  0  0  0
    8.5075   -3.5581   24.4141 H   0  0  0  0  0  0  0  0  0  0  0  0
  1  2  1  0
  2  3  1  0
  3  4  2  0
  4  5  1  0
  4  6  1  0
  6  7  1  0
  7  8  1  0
  6  9  2  0
  9 10  1  0
  9 11  1  0
 11 12  1  0
 12 13  1  0
 13 14  1  0
 13 15  2  0
 15 16  1  0
 16 17  2  0
 17 18  1  0
 17 19  1  0
 19 20  2  0
 20 21  1  0
 20 22  1  0
 22 23  1  0
 22 24  2  0
 24 25  1  0
 15 26  1  0
 26 27  1  0
 26 28  1  0
 28 29  2  0
 11 30  2  0
 30 31  1  0
 30  3  1  0
 28 12  1  0
 24 16  1  0
M  END
>  <cnnaffinity>  (1) 
-5.14402

>  <filename>  (1) 
O=c1[nH]c(-c2cccnc2)cn1-c1cc(O)cc(O)c1

$$$$
