
     RDKit          3D

 31 33  0  0  0  0  0  0  0  0999 V2000
    5.1024    1.8109   16.8445 H   0  0  0  0  0  0  0  0  0  0  0  0
    5.4854    1.2884   17.7193 C   0  0  0  0  0  0  0  0  0  0  0  0
    6.6204    0.5953   17.5368 N   0  0  0  0  0  0  0  0  0  0  0  0
    7.1349   -0.0206   18.6108 C   0  0  0  0  0  0  0  0  0  0  0  0
    8.0658   -0.5677   18.4553 H   0  0  0  0  0  0  0  0  0  0  0  0
    6.5544   -0.0045   19.8959 C   0  0  0  0  0  0  0  0  0  0  0  0
    7.2480   -0.6406   21.0504 C   0  0  0  0  0  0  0  0  0  0  0  0
    8.6013   -0.3053   21.3442 C   0  0  0  0  0  0  0  0  0  0  0  0
    9.1119    0.4340   20.7264 H   0  0  0  0  0  0  0  0  0  0  0  0
    9.2668   -0.8622   22.4126 C   0  0  0  0  0  0  0  0  0  0  0  0
   10.6901   -0.6094   22.6429 C   0  0  0  0  0  0  0  0  0  0  0  0
   11.1303    0.1244   23.7535 C   0  0  0  0  0  0  0  0  0  0  0  0
   10.3853    0.4765   24.4619 H   0  0  0  0  0  0  0  0  0  0  0  0
   12.4972    0.3707   23.9403 C   0  0  0  0  0  0  0  0  0  0  0  0
   12.8938    0.8950   24.8035 H   0  0  0  0  0  0  0  0  0  0  0  0
   13.4019   -0.1205   23.0052 C   0  0  0  0  0  0  0  0  0  0  0  0
   14.7037    0.1290   23.1546 F   0  0  0  0  0  0  0  0  0  0  0  0
   12.9690   -0.8872   21.9160 C   0  0  0  0  0  0  0  0  0  0  0  0
   13.8647   -1.3731   21.0486 F   0  0  0  0  0  0  0  0  0  0  0  0
   11.6174   -1.1415   21.7306 C   0  0  0  0  0  0  0  0  0  0  0  0
   11.2973   -1.7606   20.8974 H   0  0  0  0  0  0  0  0  0  0  0  0
    8.5904   -1.8168   23.2922 C   0  0  0  0  0  0  0  0  0  0  0  0
    8.9946   -2.3703   24.3033 O   0  0  0  0  0  0  0  0  0  0  0  0
    7.2910   -2.1288   22.8856 N   0  0  0  0  0  0  0  0  0  0  0  0
    6.9112   -2.7900   23.5413 H   0  0  0  0  0  0  0  0  0  0  0  0
    6.6190   -1.5683   21.8368 C   0  0  0  0  0  0  0  0  0  0  0  0
    5.5902   -1.8689   21.6553 H   0  0  0  0  0  0  0  0  0  0  0  0
    5.3371    0.6770   20.0430 C   0  0  0  0  0  0  0  0  0  0  0  0
    4.8352    0.7093   21.0116 H   0  0  0  0  0  0  0  0  0  0  0  0
    4.8057    1.3533   18.9416 C   0  0  0  0  0  0  0  0  0  0  0  0
    3.8975    1.9416   19.0177 H   0  0  0  0  0  0  0  0  0  0  0  0
  1  2  1  0
  2  3  2  0
  3  4  1  0
  4  5  1  0
  4  6  2  0
  6  7  1  0
  7  8  1  0
  8  9  1  0
  8 10  2  0
 10 11  1  0
 11 12  2  0
 12 13  1  0
 12 14  1  0
 14 15  1  0
 14 16  2  0
 16 17  1  0
 16 18  1  0
 18 19  1  0
 18 20  2  0
 20 21  1  0
 10 22  1  0
 22 23  2  0
 22 24  1  0
 24 25  1  0
 24 26  1  0
 26 27  1  0
  6 28  1  0
 28 29  1  0
 28 30  2  0
 30 31  1  0
 30  2  1  0
 26  7  2  0
 20 11  1  0
M  END
>  <cnnaffinity>  (1) 
-5.58043

>  <filename>  (1) 
O=c1[nH]cc(-c2cccnc2)cc1-c1ccc(F)c(F)c1

$$$$
