
     RDKit          3D

 31 33  0  0  0  0  0  0  0  0999 V2000
    4.9897    1.7723   17.0074 H   0  0  0  0  0  0  0  0  0  0  0  0
    5.4705    1.2906   17.8538 C   0  0  0  0  0  0  0  0  0  0  0  0
    6.6530    0.6987   17.6017 N   0  0  0  0  0  0  0  0  0  0  0  0
    7.2664    0.0796   18.6148 C   0  0  0  0  0  0  0  0  0  0  0  0
    8.2342   -0.3732   18.4143 H   0  0  0  0  0  0  0  0  0  0  0  0
    6.7079   -0.0164   19.9029 C   0  0  0  0  0  0  0  0  0  0  0  0
    7.3958   -0.7356   20.9270 N   0  0  0  0  0  0  0  0  0  0  0  0
    8.7190   -0.4083   21.0553 N   0  0  0  0  0  0  0  0  0  0  0  0
    9.3845   -0.9572   22.0252 C   0  0  0  0  0  0  0  0  0  0  0  0
   10.4325   -0.6920   22.1360 H   0  0  0  0  0  0  0  0  0  0  0  0
    8.7944   -1.9023   22.9396 C   0  0  0  0  0  0  0  0  0  0  0  0
    9.6337   -2.3391   23.9225 O   0  0  0  0  0  0  0  0  0  0  0  0
    9.1439   -2.8709   25.1000 C   0  0  0  0  0  0  0  0  0  0  0  0
    9.8294   -3.9660   25.6343 C   0  0  0  0  0  0  0  0  0  0  0  0
   10.7492   -4.2999   25.1536 H   0  0  0  0  0  0  0  0  0  0  0  0
    9.3136   -4.5986   26.7701 C   0  0  0  0  0  0  0  0  0  0  0  0
    9.7886   -5.4736   27.1997 H   0  0  0  0  0  0  0  0  0  0  0  0
    8.1423   -4.1172   27.3655 C   0  0  0  0  0  0  0  0  0  0  0  0
    7.3851   -5.0584   28.6158 Cl  0  0  0  0  0  0  0  0  0  0  0  0
    7.5473   -2.9339   26.9169 C   0  0  0  0  0  0  0  0  0  0  0  0
    6.6888   -2.5197   27.4361 H   0  0  0  0  0  0  0  0  0  0  0  0
    8.0643   -2.2933   25.7853 C   0  0  0  0  0  0  0  0  0  0  0  0
    7.6496   -1.3532   25.4224 H   0  0  0  0  0  0  0  0  0  0  0  0
    7.5091   -2.3135   22.7558 C   0  0  0  0  0  0  0  0  0  0  0  0
    7.0002   -3.0292   23.3864 H   0  0  0  0  0  0  0  0  0  0  0  0
    6.7178   -1.7876   21.6648 C   0  0  0  0  0  0  0  0  0  0  0  0
    5.6029   -2.1702   21.3680 O   0  0  0  0  0  0  0  0  0  0  0  0
    5.4855    0.6078   20.1662 C   0  0  0  0  0  0  0  0  0  0  0  0
    5.0548    0.5755   21.1645 H   0  0  0  0  0  0  0  0  0  0  0  0
    4.8636    1.2841   19.1124 C   0  0  0  0  0  0  0  0  0  0  0  0
    3.9212    1.7991   19.2548 H   0  0  0  0  0  0  0  0  0  0  0  0
  1  2  1  0
  2  3  2  0
  3  4  1  0
  4  5  1  0
  4  6  2  0
  6  7  1  0
  7  8  1  0
  8  9  2  0
  9 10  1  0
  9 11  1  0
 11 12  1  0
 12 13  1  0
 13 14  2  0
 14 15  1  0
 14 16  1  0
 16 17  1  0
 16 18  2  0
 18 19  1  0
 18 20  1  0
 20 21  1  0
 20 22  2  0
 22 23  1  0
 11 24  2  0
 24 25  1  0
 24 26  1  0
 26 27  2  0
  6 28  1  0
 28 29  1  0
 28 30  2  0
 30 31  1  0
 30  2  1  0
 26  7  1  0
 22 13  1  0
M  END
>  <cnnaffinity>  (1) 
-4.96139

>  <filename>  (1) 
O=c1cc(Oc2ccc(Cl)cc2)cnn1-c1cccnc1

$$$$
