
     RDKit          3D

 38 41  0  0  0  0  0  0  0  0999 V2000
    4.9521    1.8651   16.9220 H   0  0  0  0  0  0  0  0  0  0  0  0
    5.4006    1.3337   17.7595 C   0  0  0  0  0  0  0  0  0  0  0  0
    6.5678    0.7166   17.5107 N   0  0  0  0  0  0  0  0  0  0  0  0
    7.1431    0.0720   18.5345 C   0  0  0  0  0  0  0  0  0  0  0  0
    8.0971   -0.4041   18.3086 H   0  0  0  0  0  0  0  0  0  0  0  0
    6.5973   -0.0148   19.8355 C   0  0  0  0  0  0  0  0  0  0  0  0
    7.3066   -0.7132   20.9927 C   0  0  2  0  0  0  0  0  0  0  0  0
    8.1475   -1.2718   20.5642 H   0  0  0  0  0  0  0  0  0  0  0  0
    6.4747   -1.7668   21.7483 C   0  0  0  0  0  0  0  0  0  0  0  0
    5.8334   -2.6840   21.2887 O   0  0  0  0  0  0  0  0  0  0  0  0
    6.5936   -1.5232   23.0932 N   0  0  0  0  0  0  0  0  0  0  0  0
    5.8136   -1.9085   23.6100 H   0  0  0  0  0  0  0  0  0  0  0  0
    7.0621   -0.1818   23.3893 C   0  0  0  0  0  0  0  0  0  0  0  0
    6.2255    0.4910   23.6222 H   0  0  0  0  0  0  0  0  0  0  0  0
    7.7196   -0.1712   24.2684 H   0  0  0  0  0  0  0  0  0  0  0  0
    7.7978    0.2605   22.1047 C   0  0  1  0  0  0  0  0  0  0  0  0
    7.5206    1.2975   21.8775 H   0  0  0  0  0  0  0  0  0  0  0  0
    9.3070    0.2219   22.2554 C   0  0  0  0  0  0  0  0  0  0  0  0
    9.9663   -1.0057   22.5736 C   0  0  0  0  0  0  0  0  0  0  0  0
    9.3824   -1.9093   22.7306 H   0  0  0  0  0  0  0  0  0  0  0  0
   11.3364   -1.0734   22.6511 C   0  0  0  0  0  0  0  0  0  0  0  0
   11.8310   -2.0332   22.7841 H   0  0  0  0  0  0  0  0  0  0  0  0
   12.1292    0.1107   22.5688 C   0  0  0  0  0  0  0  0  0  0  0  0
   13.5395    0.1145   22.7843 C   0  0  0  0  0  0  0  0  0  0  0  0
   14.0602   -0.8344   22.9126 H   0  0  0  0  0  0  0  0  0  0  0  0
   14.2139    1.3092   22.8413 C   0  0  0  0  0  0  0  0  0  0  0  0
   15.2758    1.3321   23.0013 H   0  0  0  0  0  0  0  0  0  0  0  0
   13.5419    2.5520   22.6641 C   0  0  0  0  0  0  0  0  0  0  0  0
   14.1176    3.4712   22.7303 H   0  0  0  0  0  0  0  0  0  0  0  0
   12.2094    2.5722   22.3513 C   0  0  0  0  0  0  0  0  0  0  0  0
   11.6921    3.5084   22.1504 H   0  0  0  0  0  0  0  0  0  0  0  0
   11.4654    1.3578   22.3075 C   0  0  0  0  0  0  0  0  0  0  0  0
   10.0599    1.3612   22.0889 C   0  0  0  0  0  0  0  0  0  0  0  0
    9.5892    2.3019   21.8082 H   0  0  0  0  0  0  0  0  0  0  0  0
    5.3864    0.6468   20.0655 C   0  0  0  0  0  0  0  0  0  0  0  0
    4.9370    0.6464   21.0628 H   0  0  0  0  0  0  0  0  0  0  0  0
    4.7730    1.3261   19.0105 C   0  0  0  0  0  0  0  0  0  0  0  0
    3.8417    1.8666   19.1499 H   0  0  0  0  0  0  0  0  0  0  0  0
  1  2  1  0
  2  3  2  0
  3  4  1  0
  4  5  1  0
  4  6  2  0
  6  7  1  0
  7  8  1  6
  7  9  1  0
  9 10  2  0
  9 11  1  0
 11 12  1  0
 11 13  1  0
 13 14  1  0
 13 15  1  0
 13 16  1  0
 16 17  1  6
 16 18  1  0
 18 19  2  0
 19 20  1  0
 19 21  1  0
 21 22  1  0
 21 23  2  0
 23 24  1  0
 24 25  1  0
 24 26  2  0
 26 27  1  0
 26 28  1  0
 28 29  1  0
 28 30  2  0
 30 31  1  0
 30 32  1  0
 32 33  2  0
 33 34  1  0
  6 35  1  0
 35 36  1  0
 35 37  2  0
 37 38  1  0
 37  2  1  0
 16  7  1  0
 33 18  1  0
 32 23  1  0
M  END
>  <cnnaffinity>  (1) 
-5.8313

>  <filename>  (1) 
O=C1NC[C@@H](c2ccc3ccccc3c2)[C@@H]1c1cccnc1

$$$$
