
     RDKit          3D

 31 33  0  0  0  0  0  0  0  0999 V2000
    4.9489    1.8663   16.9389 H   0  0  0  0  0  0  0  0  0  0  0  0
    5.4129    1.3446   17.7710 C   0  0  0  0  0  0  0  0  0  0  0  0
    6.5815    0.7379   17.5032 N   0  0  0  0  0  0  0  0  0  0  0  0
    7.1739    0.1007   18.5201 C   0  0  0  0  0  0  0  0  0  0  0  0
    8.1252   -0.3808   18.2906 H   0  0  0  0  0  0  0  0  0  0  0  0
    6.6326   -0.0069   19.8241 C   0  0  0  0  0  0  0  0  0  0  0  0
    7.3624   -0.7029   20.9108 C   0  0  0  0  0  0  0  0  0  0  0  0
    8.6770   -0.3878   21.1665 C   0  0  0  0  0  0  0  0  0  0  0  0
    9.1725    0.3615   20.5516 H   0  0  0  0  0  0  0  0  0  0  0  0
    9.4333   -0.9994   22.2022 C   0  0  0  0  0  0  0  0  0  0  0  0
   10.8591   -0.6015   22.3839 C   0  0  0  0  0  0  0  0  0  0  0  0
   11.2336    0.7325   22.6119 C   0  0  0  0  0  0  0  0  0  0  0  0
   10.4463    1.4817   22.6710 H   0  0  0  0  0  0  0  0  0  0  0  0
   12.5794    1.0926   22.7546 C   0  0  0  0  0  0  0  0  0  0  0  0
   12.8273    2.1051   23.0416 H   0  0  0  0  0  0  0  0  0  0  0  0
   13.5927    0.1439   22.5596 C   0  0  0  0  0  0  0  0  0  0  0  0
   14.6457    0.4142   22.6371 H   0  0  0  0  0  0  0  0  0  0  0  0
   13.2450   -1.1856   22.3116 C   0  0  0  0  0  0  0  0  0  0  0  0
   13.9806   -1.9683   22.1722 H   0  0  0  0  0  0  0  0  0  0  0  0
   11.8969   -1.5340   22.3057 C   0  0  0  0  0  0  0  0  0  0  0  0
   11.5823   -2.8358   22.2742 F   0  0  0  0  0  0  0  0  0  0  0  0
    8.8221   -1.9414   22.9927 C   0  0  0  0  0  0  0  0  0  0  0  0
    9.3357   -2.4563   23.8034 H   0  0  0  0  0  0  0  0  0  0  0  0
    7.5166   -2.2565   22.7514 N   0  0  0  0  0  0  0  0  0  0  0  0
    6.9737   -2.9559   23.2385 H   0  0  0  0  0  0  0  0  0  0  0  0
    6.7119   -1.7577   21.7213 C   0  0  0  0  0  0  0  0  0  0  0  0
    5.6169   -2.2813   21.5918 O   0  0  0  0  0  0  0  0  0  0  0  0
    5.4023    0.6201   20.0666 C   0  0  0  0  0  0  0  0  0  0  0  0
    4.9635    0.5579   21.0655 H   0  0  0  0  0  0  0  0  0  0  0  0
    4.7911    1.3202   19.0242 C   0  0  0  0  0  0  0  0  0  0  0  0
    3.8551    1.8464   19.1734 H   0  0  0  0  0  0  0  0  0  0  0  0
  1  2  1  0
  2  3  2  0
  3  4  1  0
  4  5  1  0
  4  6  2  0
  6  7  1  0
  7  8  2  0
  8  9  1  0
  8 10  1  0
 10 11  1  0
 11 12  2  0
 12 13  1  0
 12 14  1  0
 14 15  1  0
 14 16  2  0
 16 17  1  0
 16 18  1  0
 18 19  1  0
 18 20  2  0
 20 21  1  0
 10 22  2  0
 22 23  1  0
 22 24  1  0
 24 25  1  0
 24 26  1  0
 26 27  2  0
  6 28  1  0
 28 29  1  0
 28 30  2  0
 30 31  1  0
 30  2  1  0
 26  7  1  0
 20 11  1  0
M  END
>  <cnnaffinity>  (1) 
-5.23044

>  <filename>  (1) 
O=c1[nH]cc(-c2ccccc2F)cc1-c1cccnc1

$$$$
