
     RDKit          3D

 33 35  0  0  0  0  0  0  0  0999 V2000
    4.9313    1.8072   17.0159 H   0  0  0  0  0  0  0  0  0  0  0  0
    5.4218    1.2950   17.8433 C   0  0  0  0  0  0  0  0  0  0  0  0
    6.5871    0.6914   17.5653 N   0  0  0  0  0  0  0  0  0  0  0  0
    7.2175    0.0607   18.5634 C   0  0  0  0  0  0  0  0  0  0  0  0
    8.1590   -0.4254   18.3177 H   0  0  0  0  0  0  0  0  0  0  0  0
    6.7127   -0.0440   19.8782 C   0  0  0  0  0  0  0  0  0  0  0  0
    7.4132   -0.7679   20.8716 N   0  0  0  0  0  0  0  0  0  0  0  0
    6.8182   -1.6442   21.7753 C   0  0  0  0  0  0  0  0  0  0  0  0
    5.7395   -2.1738   21.7356 O   0  0  0  0  0  0  0  0  0  0  0  0
    7.7659   -1.9112   22.7365 N   0  0  0  0  0  0  0  0  0  0  0  0
    7.5855   -2.6170   23.4227 H   0  0  0  0  0  0  0  0  0  0  0  0
    9.0233   -1.5985   22.3182 C   0  0  0  0  0  0  0  0  0  0  0  0
   10.0399   -1.9443   22.8634 O   0  0  0  0  0  0  0  0  0  0  0  0
    8.8668   -0.7186   21.0810 C   0  0  2  0  0  0  0  0  0  0  0  0
    9.4052   -1.2029   20.2577 H   0  0  0  0  0  0  0  0  0  0  0  0
    9.4683    0.6900   21.2818 C   0  0  0  0  0  0  0  0  0  0  0  0
   10.5404    0.5673   21.4770 H   0  0  0  0  0  0  0  0  0  0  0  0
    9.3992    1.2168   20.3292 H   0  0  0  0  0  0  0  0  0  0  0  0
    8.8138    1.4939   22.3821 C   0  0  0  0  0  0  0  0  0  0  0  0
    9.1542    1.2990   23.7311 C   0  0  0  0  0  0  0  0  0  0  0  0
    9.9185    0.5683   23.9883 H   0  0  0  0  0  0  0  0  0  0  0  0
    8.5150    2.0173   24.7475 C   0  0  0  0  0  0  0  0  0  0  0  0
    8.7581    1.8933   25.7978 H   0  0  0  0  0  0  0  0  0  0  0  0
    7.5214    2.9257   24.3960 C   0  0  0  0  0  0  0  0  0  0  0  0
    6.8987    3.6180   25.3657 F   0  0  0  0  0  0  0  0  0  0  0  0
    7.1462    3.1390   23.0738 C   0  0  0  0  0  0  0  0  0  0  0  0
    6.3639    3.8603   22.8583 H   0  0  0  0  0  0  0  0  0  0  0  0
    7.8043    2.4182   22.0732 C   0  0  0  0  0  0  0  0  0  0  0  0
    7.5215    2.5621   21.0345 H   0  0  0  0  0  0  0  0  0  0  0  0
    5.4955    0.6011   20.1569 C   0  0  0  0  0  0  0  0  0  0  0  0
    5.0761    0.5591   21.1651 H   0  0  0  0  0  0  0  0  0  0  0  0
    4.8438    1.2841   19.1204 C   0  0  0  0  0  0  0  0  0  0  0  0
    3.9036    1.8058   19.2828 H   0  0  0  0  0  0  0  0  0  0  0  0
  1  2  1  0
  2  3  2  0
  3  4  1  0
  4  5  1  0
  4  6  2  0
  6  7  1  0
  7  8  1  0
  8  9  2  0
  8 10  1  0
 10 11  1  0
 10 12  1  0
 12 13  2  0
 12 14  1  0
 14 15  1  6
 14 16  1  0
 16 17  1  0
 16 18  1  0
 16 19  1  0
 19 20  2  0
 20 21  1  0
 20 22  1  0
 22 23  1  0
 22 24  2  0
 24 25  1  0
 24 26  1  0
 26 27  1  0
 26 28  2  0
 28 29  1  0
  6 30  1  0
 30 31  1  0
 30 32  2  0
 32 33  1  0
 32  2  1  0
 14  7  1  0
 28 19  1  0
M  END
>  <cnnaffinity>  (1) 
-5.10566

>  <filename>  (1) 
O=C1NC(=O)N(c2cccnc2)[C@H]1Cc1ccc(F)cc1

$$$$
