
     RDKit          3D

 33 35  0  0  0  0  0  0  0  0999 V2000
    5.0548    1.8587   16.9755 H   0  0  0  0  0  0  0  0  0  0  0  0
    5.5412    1.3228   17.7854 C   0  0  0  0  0  0  0  0  0  0  0  0
    6.7052    0.7247   17.4842 N   0  0  0  0  0  0  0  0  0  0  0  0
    7.3349    0.0709   18.4693 C   0  0  0  0  0  0  0  0  0  0  0  0
    8.2847   -0.4012   18.2290 H   0  0  0  0  0  0  0  0  0  0  0  0
    6.8213   -0.0378   19.7803 C   0  0  0  0  0  0  0  0  0  0  0  0
    7.4862   -0.7670   20.8211 N   0  0  0  0  0  0  0  0  0  0  0  0
    8.6949   -0.5184   21.4441 C   0  0  0  0  0  0  0  0  0  0  0  0
    9.5256    0.4339   20.9251 N   0  0  0  0  0  0  0  0  0  0  0  0
    9.0205    1.2950   20.7959 H   0  0  0  0  0  0  0  0  0  0  0  0
   10.9046    0.5665   21.3970 C   0  0  0  0  0  0  0  0  0  0  0  0
   11.3532    1.3619   20.7851 H   0  0  0  0  0  0  0  0  0  0  0  0
   11.6950   -0.7543   21.2121 C   0  0  0  0  0  0  0  0  0  0  0  0
   12.1356   -0.8636   20.2188 H   0  0  0  0  0  0  0  0  0  0  0  0
   11.0026   -1.5915   21.3444 H   0  0  0  0  0  0  0  0  0  0  0  0
   12.6918   -0.7687   22.3713 C   0  0  0  0  0  0  0  0  0  0  0  0
   13.5120   -0.0553   22.1937 H   0  0  0  0  0  0  0  0  0  0  0  0
   13.1407   -1.7558   22.5069 H   0  0  0  0  0  0  0  0  0  0  0  0
   11.8050   -0.2767   23.5270 C   0  0  0  0  0  0  0  0  0  0  0  0
   11.0412   -1.0395   23.7526 H   0  0  0  0  0  0  0  0  0  0  0  0
   12.3588   -0.0507   24.4480 H   0  0  0  0  0  0  0  0  0  0  0  0
   11.1098    0.9420   22.8979 C   0  0  0  0  0  0  0  0  0  0  0  0
   10.1772    1.2148   23.3957 H   0  0  0  0  0  0  0  0  0  0  0  0
   11.7693    1.8222   22.9589 H   0  0  0  0  0  0  0  0  0  0  0  0
    8.9097   -1.2806   22.4759 N   0  0  0  0  0  0  0  0  0  0  0  0
    7.7982   -2.0987   22.4889 N   0  0  0  0  0  0  0  0  0  0  0  0
    7.6310   -2.8401   23.1428 H   0  0  0  0  0  0  0  0  0  0  0  0
    6.9032   -1.8395   21.5085 C   0  0  0  0  0  0  0  0  0  0  0  0
    5.8570   -2.4211   21.2756 O   0  0  0  0  0  0  0  0  0  0  0  0
    5.5993    0.5705   20.0720 C   0  0  0  0  0  0  0  0  0  0  0  0
    5.1861    0.4667   21.0764 H   0  0  0  0  0  0  0  0  0  0  0  0
    4.9522    1.2774   19.0555 C   0  0  0  0  0  0  0  0  0  0  0  0
    4.0132    1.7874   19.2389 H   0  0  0  0  0  0  0  0  0  0  0  0
  1  2  1  0
  2  3  2  0
  3  4  1  0
  4  5  1  0
  4  6  2  0
  6  7  1  0
  7  8  1  0
  8  9  1  0
  9 10  1  0
  9 11  1  0
 11 12  1  0
 11 13  1  0
 13 14  1  0
 13 15  1  0
 13 16  1  0
 16 17  1  0
 16 18  1  0
 16 19  1  0
 19 20  1  0
 19 21  1  0
 19 22  1  0
 22 23  1  0
 22 24  1  0
  8 25  2  0
 25 26  1  0
 26 27  1  0
 26 28  1  0
 28 29  2  0
  6 30  1  0
 30 31  1  0
 30 32  2  0
 32 33  1  0
 32  2  1  0
 28  7  1  0
 22 11  1  0
M  END
>  <cnnaffinity>  (1) 
-4.47544

>  <filename>  (1) 
O=c1[nH]nc(NC2CCCC2)n1-c1cccnc1

$$$$
