
     RDKit          3D

 36 39  0  0  0  0  0  0  0  0999 V2000
    4.9124    1.7994   16.9806 H   0  0  0  0  0  0  0  0  0  0  0  0
    5.3856    1.3025   17.8242 C   0  0  0  0  0  0  0  0  0  0  0  0
    6.5435    0.6822   17.5518 N   0  0  0  0  0  0  0  0  0  0  0  0
    7.1533    0.0671   18.5714 C   0  0  0  0  0  0  0  0  0  0  0  0
    8.1105   -0.4087   18.3636 H   0  0  0  0  0  0  0  0  0  0  0  0
    6.6425    0.0050   19.8838 C   0  0  0  0  0  0  0  0  0  0  0  0
    7.3462   -0.7214   20.9554 C   0  0  0  0  0  0  0  0  0  0  0  0
    6.6806   -1.6422   21.7301 C   0  0  0  0  0  0  0  0  0  0  0  0
    5.6273   -1.8437   21.5359 H   0  0  0  0  0  0  0  0  0  0  0  0
    7.3210   -2.3627   22.7818 C   0  0  0  0  0  0  0  0  0  0  0  0
    6.5479   -3.3662   23.5814 C   0  0  0  0  0  0  0  0  0  0  0  0
    5.2448   -3.1950   23.6934 N   0  0  0  0  0  0  0  0  0  0  0  0
    4.5246   -4.0798   24.4478 C   0  0  0  0  0  0  0  0  0  0  0  0
    3.1174   -3.8684   24.6146 C   0  0  0  0  0  0  0  0  0  0  0  0
    2.6996   -2.9687   24.1791 H   0  0  0  0  0  0  0  0  0  0  0  0
    2.3560   -4.7602   25.3343 C   0  0  0  0  0  0  0  0  0  0  0  0
    1.2846   -4.6024   25.4487 H   0  0  0  0  0  0  0  0  0  0  0  0
    2.9580   -5.8975   25.9480 C   0  0  0  0  0  0  0  0  0  0  0  0
    2.3425   -6.5827   26.5249 H   0  0  0  0  0  0  0  0  0  0  0  0
    4.3082   -6.1204   25.8220 C   0  0  0  0  0  0  0  0  0  0  0  0
    4.7871   -6.9785   26.2889 H   0  0  0  0  0  0  0  0  0  0  0  0
    5.1196   -5.2238   25.0717 C   0  0  0  0  0  0  0  0  0  0  0  0
    6.5219   -5.4038   24.8985 C   0  0  0  0  0  0  0  0  0  0  0  0
    7.0108   -6.2585   25.3676 H   0  0  0  0  0  0  0  0  0  0  0  0
    7.2262   -4.4897   24.1640 C   0  0  0  0  0  0  0  0  0  0  0  0
    8.2862   -4.6150   23.9850 H   0  0  0  0  0  0  0  0  0  0  0  0
    8.6427   -2.1031   23.0320 C   0  0  0  0  0  0  0  0  0  0  0  0
    9.2349   -2.5773   23.8172 H   0  0  0  0  0  0  0  0  0  0  0  0
    9.2942   -1.1811   22.2776 N   0  0  0  0  0  0  0  0  0  0  0  0
   10.2572   -0.9044   22.3670 H   0  0  0  0  0  0  0  0  0  0  0  0
    8.7631   -0.4304   21.2318 C   0  0  0  0  0  0  0  0  0  0  0  0
    9.5342    0.3547   20.7006 O   0  0  0  0  0  0  0  0  0  0  0  0
    5.4227    0.6468   20.1392 C   0  0  0  0  0  0  0  0  0  0  0  0
    5.0137    0.6298   21.1519 H   0  0  0  0  0  0  0  0  0  0  0  0
    4.7939    1.3210   19.0937 C   0  0  0  0  0  0  0  0  0  0  0  0
    3.8655    1.8539   19.2445 H   0  0  0  0  0  0  0  0  0  0  0  0
  1  2  1  0
  2  3  2  0
  3  4  1  0
  4  5  1  0
  4  6  2  0
  6  7  1  0
  7  8  2  0
  8  9  1  0
  8 10  1  0
 10 11  1  0
 11 12  2  0
 12 13  1  0
 13 14  2  0
 14 15  1  0
 14 16  1  0
 16 17  1  0
 16 18  2  0
 18 19  1  0
 18 20  1  0
 20 21  1  0
 20 22  2  0
 22 23  1  0
 23 24  1  0
 23 25  2  0
 25 26  1  0
 10 27  2  0
 27 28  1  0
 27 29  1  0
 29 30  1  0
 29 31  1  0
 31 32  2  0
  6 33  1  0
 33 34  1  0
 33 35  2  0
 35 36  1  0
 35  2  1  0
 31  7  1  0
 25 11  1  0
 22 13  1  0
M  END
>  <cnnaffinity>  (1) 
-5.57739

>  <filename>  (1) 
O=c1[nH]cc(-c2ccc3ccccc3n2)cc1-c1cccnc1

$$$$
