
     RDKit          3D

 41 44  0  0  0  0  0  0  0  0999 V2000
    4.8473    1.7997   16.9909 H   0  0  0  0  0  0  0  0  0  0  0  0
    5.3722    1.3010   17.8017 C   0  0  0  0  0  0  0  0  0  0  0  0
    6.5326    0.7060   17.4787 N   0  0  0  0  0  0  0  0  0  0  0  0
    7.2116    0.1083   18.4665 C   0  0  0  0  0  0  0  0  0  0  0  0
    8.1347   -0.3889   18.1778 H   0  0  0  0  0  0  0  0  0  0  0  0
    6.8003    0.0942   19.8247 C   0  0  0  0  0  0  0  0  0  0  0  0
    7.6040   -0.5039   20.8474 N   0  0  0  0  0  0  0  0  0  0  0  0
    7.8864   -1.8640   20.9169 C   0  0  0  0  0  0  0  0  0  0  0  0
    7.1923   -2.7551   20.4849 O   0  0  0  0  0  0  0  0  0  0  0  0
    9.1605   -2.0132   21.7339 C   0  0  0  0  0  0  0  0  0  0  0  0
    9.0080   -2.7923   22.4842 H   0  0  0  0  0  0  0  0  0  0  0  0
    9.9687   -2.3502   21.0813 H   0  0  0  0  0  0  0  0  0  0  0  0
    9.3878   -0.6100   22.3271 C   0  0  0  0  0  0  0  0  0  0  0  0
    9.6434   -0.6366   23.3892 H   0  0  0  0  0  0  0  0  0  0  0  0
   10.2067   -0.0855   21.8254 H   0  0  0  0  0  0  0  0  0  0  0  0
    8.0474    0.1206   22.0971 C   0  0  2  0  0  0  0  0  0  0  0  0
    8.1686    1.2027   21.9477 H   0  0  0  0  0  0  0  0  0  0  0  0
    7.0697   -0.1084   23.2904 C   0  0  0  0  0  0  0  0  0  0  0  0
    6.1095    0.3564   23.0335 H   0  0  0  0  0  0  0  0  0  0  0  0
    7.4386    0.4677   24.1469 H   0  0  0  0  0  0  0  0  0  0  0  0
    6.8186   -1.5617   23.6966 C   0  0  0  0  0  0  0  0  0  0  0  0
    5.9452   -2.3341   22.8726 C   0  0  0  0  0  0  0  0  0  0  0  0
    5.5575   -1.8708   21.9668 H   0  0  0  0  0  0  0  0  0  0  0  0
    5.5038   -3.5778   23.2228 C   0  0  0  0  0  0  0  0  0  0  0  0
    4.7811   -4.1070   22.6118 H   0  0  0  0  0  0  0  0  0  0  0  0
    6.0236   -4.2119   24.3869 C   0  0  0  0  0  0  0  0  0  0  0  0
    5.5652   -5.4978   24.8029 C   0  0  0  0  0  0  0  0  0  0  0  0
    4.7158   -5.9403   24.2853 H   0  0  0  0  0  0  0  0  0  0  0  0
    6.1792   -6.1455   25.8506 C   0  0  0  0  0  0  0  0  0  0  0  0
    5.8316   -7.1239   26.1721 H   0  0  0  0  0  0  0  0  0  0  0  0
    7.2641   -5.5250   26.5360 C   0  0  0  0  0  0  0  0  0  0  0  0
    7.7399   -6.0582   27.3558 H   0  0  0  0  0  0  0  0  0  0  0  0
    7.6659   -4.2487   26.2124 C   0  0  0  0  0  0  0  0  0  0  0  0
    8.4524   -3.7535   26.7783 H   0  0  0  0  0  0  0  0  0  0  0  0
    7.0374   -3.5369   25.1410 C   0  0  0  0  0  0  0  0  0  0  0  0
    7.3740   -2.1780   24.8002 C   0  0  0  0  0  0  0  0  0  0  0  0
    8.0834   -1.6581   25.4416 H   0  0  0  0  0  0  0  0  0  0  0  0
    5.5786    0.7032   20.1302 C   0  0  0  0  0  0  0  0  0  0  0  0
    5.2084    0.6829   21.1545 H   0  0  0  0  0  0  0  0  0  0  0  0
    4.8510    1.3101   19.0993 C   0  0  0  0  0  0  0  0  0  0  0  0
    3.9073    1.8032   19.3013 H   0  0  0  0  0  0  0  0  0  0  0  0
  1  2  1  0
  2  3  2  0
  3  4  1  0
  4  5  1  0
  4  6  2  0
  6  7  1  0
  7  8  1  0
  8  9  2  0
  8 10  1  0
 10 11  1  0
 10 12  1  0
 10 13  1  0
 13 14  1  0
 13 15  1  0
 13 16  1  0
 16 17  1  6
 16 18  1  0
 18 19  1  0
 18 20  1  0
 18 21  1  0
 21 22  2  0
 22 23  1  0
 22 24  1  0
 24 25  1  0
 24 26  2  0
 26 27  1  0
 27 28  1  0
 27 29  2  0
 29 30  1  0
 29 31  1  0
 31 32  1  0
 31 33  2  0
 33 34  1  0
 33 35  1  0
 35 36  2  0
 36 37  1  0
  6 38  1  0
 38 39  1  0
 38 40  2  0
 40 41  1  0
 40  2  1  0
 16  7  1  0
 36 21  1  0
 35 26  1  0
M  END
>  <cnnaffinity>  (1) 
-5.24035

>  <filename>  (1) 
O=C1CC[C@H](Cc2ccc3ccccc3c2)N1c1cccnc1

$$$$
