
     RDKit          3D

 32 34  0  0  0  0  0  0  0  0999 V2000
   13.5151   -3.5709   21.5631 H   0  0  0  0  0  0  0  0  0  0  0  0
   14.0377   -2.7899   21.8214 O   0  0  0  0  0  0  0  0  0  0  0  0
   13.1488   -1.7904   22.0595 C   0  0  0  0  0  0  0  0  0  0  0  0
   13.6496   -0.5064   22.2838 C   0  0  0  0  0  0  0  0  0  0  0  0
   14.7261   -0.3787   22.3141 H   0  0  0  0  0  0  0  0  0  0  0  0
   12.7502    0.5466   22.4695 C   0  0  0  0  0  0  0  0  0  0  0  0
   13.1289    1.5430   22.6677 H   0  0  0  0  0  0  0  0  0  0  0  0
   11.3707    0.3326   22.3900 C   0  0  0  0  0  0  0  0  0  0  0  0
   10.6604    1.1474   22.5034 H   0  0  0  0  0  0  0  0  0  0  0  0
   10.8893   -0.9695   22.2344 C   0  0  0  0  0  0  0  0  0  0  0  0
    9.4738   -1.1907   22.1312 N   0  0  0  0  0  0  0  0  0  0  0  0
    8.7630   -0.5593   21.1272 C   0  0  0  0  0  0  0  0  0  0  0  0
    9.3527    0.0747   20.4730 H   0  0  0  0  0  0  0  0  0  0  0  0
    7.4133   -0.7070   20.9602 C   0  0  0  0  0  0  0  0  0  0  0  0
    6.6761    0.0061   19.8681 C   0  0  0  0  0  0  0  0  0  0  0  0
    7.1725    0.0669   18.5472 C   0  0  0  0  0  0  0  0  0  0  0  0
    8.1067   -0.4319   18.2928 H   0  0  0  0  0  0  0  0  0  0  0  0
    6.5694    0.6915   17.5239 N   0  0  0  0  0  0  0  0  0  0  0  0
    5.4114    1.3189   17.7839 C   0  0  0  0  0  0  0  0  0  0  0  0
    4.9413    1.8346   16.9451 H   0  0  0  0  0  0  0  0  0  0  0  0
    4.8184    1.3250   19.0501 C   0  0  0  0  0  0  0  0  0  0  0  0
    3.8807    1.8487   19.1942 H   0  0  0  0  0  0  0  0  0  0  0  0
    5.4529    0.6601   20.1041 C   0  0  0  0  0  0  0  0  0  0  0  0
    5.0235    0.6781   21.1069 H   0  0  0  0  0  0  0  0  0  0  0  0
    6.7258   -1.5614   21.8836 C   0  0  0  0  0  0  0  0  0  0  0  0
    5.6511   -1.7083   21.7758 H   0  0  0  0  0  0  0  0  0  0  0  0
    7.4064   -2.2103   22.8652 C   0  0  0  0  0  0  0  0  0  0  0  0
    6.9364   -2.8590   23.5882 H   0  0  0  0  0  0  0  0  0  0  0  0
    8.8473   -2.0940   23.0385 C   0  0  0  0  0  0  0  0  0  0  0  0
    9.4723   -2.7150   23.8808 O   0  0  0  0  0  0  0  0  0  0  0  0
   11.7771   -2.0436   22.1471 C   0  0  0  0  0  0  0  0  0  0  0  0
   11.4006   -3.0519   22.2370 H   0  0  0  0  0  0  0  0  0  0  0  0
  1  2  1  0
  2  3  1  0
  3  4  2  0
  4  5  1  0
  4  6  1  0
  6  7  1  0
  6  8  2  0
  8  9  1  0
  8 10  1  0
 10 11  1  0
 11 12  1  0
 12 13  1  0
 12 14  2  0
 14 15  1  0
 15 16  2  0
 16 17  1  0
 16 18  1  0
 18 19  2  0
 19 20  1  0
 19 21  1  0
 21 22  1  0
 21 23  2  0
 23 24  1  0
 14 25  1  0
 25 26  1  0
 25 27  2  0
 27 28  1  0
 27 29  1  0
 29 30  2  0
 10 31  2  0
 31 32  1  0
 31  3  1  0
 29 11  1  0
 23 15  1  0
M  END
>  <cnnaffinity>  (1) 
-5.7763

>  <filename>  (1) 
O=c1ccc(-c2cccnc2)cn1-c1cccc(O)c1

$$$$
