
     RDKit          3D

 32 34  0  0  0  0  0  0  0  0999 V2000
    5.0070    1.7844   16.9952 H   0  0  0  0  0  0  0  0  0  0  0  0
    5.4829    1.2901   17.8398 C   0  0  0  0  0  0  0  0  0  0  0  0
    6.6747    0.7149   17.5970 N   0  0  0  0  0  0  0  0  0  0  0  0
    7.2834    0.1085   18.6203 C   0  0  0  0  0  0  0  0  0  0  0  0
    8.2634   -0.3282   18.4459 H   0  0  0  0  0  0  0  0  0  0  0  0
    6.7103   -0.0102   19.8973 C   0  0  0  0  0  0  0  0  0  0  0  0
    7.4213   -0.7317   20.9121 N   0  0  0  0  0  0  0  0  0  0  0  0
    8.7416   -0.3896   21.0241 N   0  0  0  0  0  0  0  0  0  0  0  0
    9.4371   -0.9125   22.0034 C   0  0  0  0  0  0  0  0  0  0  0  0
   10.9066   -0.5164   22.0971 C   0  0  0  0  0  0  0  0  0  0  0  0
   11.7463   -1.5619   22.0861 N   0  0  0  0  0  0  0  0  0  0  0  0
   13.0647   -1.3594   22.1160 C   0  0  0  0  0  0  0  0  0  0  0  0
   13.6845   -2.2545   22.0520 H   0  0  0  0  0  0  0  0  0  0  0  0
   13.6245   -0.0882   22.2496 C   0  0  0  0  0  0  0  0  0  0  0  0
   14.6965    0.0381   22.2419 H   0  0  0  0  0  0  0  0  0  0  0  0
   12.7836    1.0115   22.3417 C   0  0  0  0  0  0  0  0  0  0  0  0
   13.2201    2.0040   22.4863 H   0  0  0  0  0  0  0  0  0  0  0  0
   11.3985    0.8081   22.2119 C   0  0  0  0  0  0  0  0  0  0  0  0
   10.4769    1.9997   22.1251 C   0  0  0  0  0  0  0  0  0  0  0  0
    9.4202    1.9086   22.9508 F   0  0  0  0  0  0  0  0  0  0  0  0
    9.9949    2.1273   20.8834 F   0  0  0  0  0  0  0  0  0  0  0  0
   11.1019    3.1553   22.4211 F   0  0  0  0  0  0  0  0  0  0  0  0
    8.8759   -1.8835   22.9154 C   0  0  0  0  0  0  0  0  0  0  0  0
    9.4911   -2.3208   23.7024 H   0  0  0  0  0  0  0  0  0  0  0  0
    7.5766   -2.2512   22.7700 C   0  0  0  0  0  0  0  0  0  0  0  0
    7.0683   -2.9575   23.4116 H   0  0  0  0  0  0  0  0  0  0  0  0
    6.7569   -1.7527   21.6771 C   0  0  0  0  0  0  0  0  0  0  0  0
    5.6397   -2.1553   21.4079 O   0  0  0  0  0  0  0  0  0  0  0  0
    5.4777    0.5987   20.1542 C   0  0  0  0  0  0  0  0  0  0  0  0
    5.0288    0.5582   21.1460 H   0  0  0  0  0  0  0  0  0  0  0  0
    4.8643    1.2747   19.0937 C   0  0  0  0  0  0  0  0  0  0  0  0
    3.9241    1.7967   19.2307 H   0  0  0  0  0  0  0  0  0  0  0  0
  1  2  1  0
  2  3  2  0
  3  4  1  0
  4  5  1  0
  4  6  2  0
  6  7  1  0
  7  8  1  0
  8  9  2  0
  9 10  1  0
 10 11  2  0
 11 12  1  0
 12 13  1  0
 12 14  2  0
 14 15  1  0
 14 16  1  0
 16 17  1  0
 16 18  2  0
 18 19  1  0
 19 20  1  0
 19 21  1  0
 19 22  1  0
  9 23  1  0
 23 24  1  0
 23 25  2  0
 25 26  1  0
 25 27  1  0
 27 28  2  0
  6 29  1  0
 29 30  1  0
 29 31  2  0
 31 32  1  0
 31  2  1  0
 27  7  1  0
 18 10  1  0
M  END
>  <cnnaffinity>  (1) 
-5.474

>  <filename>  (1) 
O=c1ccc(-c2ncccc2C(F)(F)F)nn1-c1cccnc1

$$$$
