
     RDKit          3D

 33 35  0  0  0  0  0  0  0  0999 V2000
    8.1892    0.4188   24.0689 H   0  0  0  0  0  0  0  0  0  0  0  0
    8.2725    0.9081   23.0873 C   0  0  0  0  0  0  0  0  0  0  0  0
    8.4041    2.2427   22.9736 C   0  0  0  0  0  0  0  0  0  0  0  0
    8.6024    3.4298   24.2658 S   0  0  0  0  0  0  0  0  0  0  0  0
    8.5626    4.7882   23.0759 C   0  0  0  0  0  0  0  0  0  0  0  0
    8.7596    5.9465   23.3004 O   0  0  0  0  0  0  0  0  0  0  0  0
    8.2567    4.2778   21.8441 N   0  0  0  0  0  0  0  0  0  0  0  0
    8.4153    4.8593   21.0409 H   0  0  0  0  0  0  0  0  0  0  0  0
    8.4081    2.9256   21.6648 C   0  0  0  0  0  0  0  0  0  0  0  0
    8.5585    2.4357   20.5705 O   0  0  0  0  0  0  0  0  0  0  0  0
    8.3960    0.1123   21.9506 N   0  0  0  0  0  0  0  0  0  0  0  0
    9.6919   -0.0222   21.2900 C   0  0  0  0  0  0  0  0  0  0  0  0
   10.4204    0.6219   21.7885 H   0  0  0  0  0  0  0  0  0  0  0  0
    9.6265    0.2578   20.2315 H   0  0  0  0  0  0  0  0  0  0  0  0
   10.0659   -1.4933   21.3376 C   0  0  0  0  0  0  0  0  0  0  0  0
   11.0367   -1.6762   20.8698 H   0  0  0  0  0  0  0  0  0  0  0  0
   10.1154   -1.8341   22.3844 H   0  0  0  0  0  0  0  0  0  0  0  0
    9.0913   -2.2145   20.5949 O   0  0  0  0  0  0  0  0  0  0  0  0
    7.7630   -2.0949   21.1100 C   0  0  0  0  0  0  0  0  0  0  0  0
    7.6850   -2.6542   22.0537 H   0  0  0  0  0  0  0  0  0  0  0  0
    7.1008   -2.5628   20.3728 H   0  0  0  0  0  0  0  0  0  0  0  0
    7.2849   -0.6350   21.3750 C   0  0  2  0  0  0  0  0  0  0  0  0
    6.5076   -0.6687   22.1524 H   0  0  0  0  0  0  0  0  0  0  0  0
    6.6501    0.0432   20.1547 C   0  0  0  0  0  0  0  0  0  0  0  0
    7.2457   -0.0190   18.8869 C   0  0  0  0  0  0  0  0  0  0  0  0
    8.1823   -0.5601   18.7420 H   0  0  0  0  0  0  0  0  0  0  0  0
    6.7158    0.5214   17.7769 N   0  0  0  0  0  0  0  0  0  0  0  0
    5.5613    1.1881   17.9092 C   0  0  0  0  0  0  0  0  0  0  0  0
    5.1590    1.6305   17.0015 H   0  0  0  0  0  0  0  0  0  0  0  0
    4.8885    1.3314   19.1256 C   0  0  0  0  0  0  0  0  0  0  0  0
    3.9612    1.8910   19.1691 H   0  0  0  0  0  0  0  0  0  0  0  0
    5.4488    0.7583   20.2683 C   0  0  0  0  0  0  0  0  0  0  0  0
    4.9610    0.8700   21.2395 H   0  0  0  0  0  0  0  0  0  0  0  0
  1  2  1  0
  2  3  2  3
  3  4  1  0
  4  5  1  0
  5  6  2  0
  5  7  1  0
  7  8  1  0
  7  9  1  0
  9 10  2  0
  2 11  1  0
 11 12  1  0
 12 13  1  0
 12 14  1  0
 12 15  1  0
 15 16  1  0
 15 17  1  0
 15 18  1  0
 18 19  1  0
 19 20  1  0
 19 21  1  0
 19 22  1  0
 22 23  1  1
 22 24  1  0
 24 25  2  0
 25 26  1  0
 25 27  1  0
 27 28  2  0
 28 29  1  0
 28 30  1  0
 30 31  1  0
 30 32  2  0
 32 33  1  0
  9  3  1  0
 22 11  1  0
 32 24  1  0
M  END
>  <cnnaffinity>  (1) 
-4.63457

>  <filename>  (1) 
O=C1NC(=O)C(=CN2CCOC[C@@H]2c2cccnc2)S1

$$$$
