
     RDKit          3D

 40 42  0  0  0  0  0  0  0  0999 V2000
    4.9603    1.8340   16.8662 H   0  0  0  0  0  0  0  0  0  0  0  0
    5.3780    1.3770   17.7596 C   0  0  0  0  0  0  0  0  0  0  0  0
    6.5614    0.7638   17.5978 N   0  0  0  0  0  0  0  0  0  0  0  0
    7.0880    0.1640   18.6734 C   0  0  0  0  0  0  0  0  0  0  0  0
    8.0640   -0.2976   18.5119 H   0  0  0  0  0  0  0  0  0  0  0  0
    6.4788    0.1330   19.9492 C   0  0  0  0  0  0  0  0  0  0  0  0
    7.0733   -0.6359   21.0863 C   0  0  0  0  0  0  0  0  0  0  0  0
    7.2709   -0.0433   22.3734 C   0  0  0  0  0  0  0  0  0  0  0  0
    6.9411    0.9884   22.5184 H   0  0  0  0  0  0  0  0  0  0  0  0
    7.9517   -0.6932   23.3897 C   0  0  0  0  0  0  0  0  0  0  0  0
    8.3298   -0.0706   24.7033 C   0  0  0  0  0  0  0  0  0  0  0  0
    8.4953   -0.8636   25.4448 H   0  0  0  0  0  0  0  0  0  0  0  0
    7.5004    0.5342   25.0959 H   0  0  0  0  0  0  0  0  0  0  0  0
    9.6022    0.8158   24.6398 C   0  0  0  0  0  0  0  0  0  0  0  0
    9.7224    1.2542   25.6473 H   0  0  0  0  0  0  0  0  0  0  0  0
    9.4589    1.9716   23.6282 C   0  0  0  0  0  0  0  0  0  0  0  0
    9.3313    1.5394   22.6242 H   0  0  0  0  0  0  0  0  0  0  0  0
    8.5478    2.5515   23.8387 H   0  0  0  0  0  0  0  0  0  0  0  0
   10.6928    2.8820   23.6081 C   0  0  0  0  0  0  0  0  0  0  0  0
   10.7278    3.4268   24.5589 H   0  0  0  0  0  0  0  0  0  0  0  0
   10.5790    3.6384   22.8236 H   0  0  0  0  0  0  0  0  0  0  0  0
   12.0016    2.0992   23.4027 C   0  0  0  0  0  0  0  0  0  0  0  0
   12.0145    1.6897   22.3804 H   0  0  0  0  0  0  0  0  0  0  0  0
   12.8637    2.7753   23.4800 H   0  0  0  0  0  0  0  0  0  0  0  0
   12.1305    0.9182   24.3813 C   0  0  0  0  0  0  0  0  0  0  0  0
   12.2415    1.2939   25.4028 H   0  0  0  0  0  0  0  0  0  0  0  0
   13.0301    0.3314   24.1535 H   0  0  0  0  0  0  0  0  0  0  0  0
   10.8828    0.0237   24.2987 C   0  0  0  0  0  0  0  0  0  0  0  0
   10.9775   -0.8691   24.9295 H   0  0  0  0  0  0  0  0  0  0  0  0
   10.7882   -0.3352   23.2603 H   0  0  0  0  0  0  0  0  0  0  0  0
    8.4931   -2.0331   23.1359 C   0  0  0  0  0  0  0  0  0  0  0  0
    9.2126   -2.7078   23.8615 O   0  0  0  0  0  0  0  0  0  0  0  0
    8.1670   -2.5769   21.9049 N   0  0  0  0  0  0  0  0  0  0  0  0
    8.7335   -3.4092   21.8085 H   0  0  0  0  0  0  0  0  0  0  0  0
    7.4868   -1.9288   20.9059 C   0  0  0  0  0  0  0  0  0  0  0  0
    7.2318   -2.4834   20.0123 H   0  0  0  0  0  0  0  0  0  0  0  0
    5.2830    0.8508   20.1065 C   0  0  0  0  0  0  0  0  0  0  0  0
    4.8183    0.9242   21.0926 H   0  0  0  0  0  0  0  0  0  0  0  0
    4.7058    1.4525   18.9851 C   0  0  0  0  0  0  0  0  0  0  0  0
    3.7630    1.9861   19.0497 H   0  0  0  0  0  0  0  0  0  0  0  0
  1  2  1  0
  2  3  2  0
  3  4  1  0
  4  5  1  0
  4  6  2  0
  6  7  1  0
  7  8  1  0
  8  9  1  0
  8 10  2  0
 10 11  1  0
 11 12  1  0
 11 13  1  0
 11 14  1  0
 14 15  1  0
 14 16  1  0
 16 17  1  0
 16 18  1  0
 16 19  1  0
 19 20  1  0
 19 21  1  0
 19 22  1  0
 22 23  1  0
 22 24  1  0
 22 25  1  0
 25 26  1  0
 25 27  1  0
 25 28  1  0
 28 29  1  0
 28 30  1  0
 10 31  1  0
 31 32  2  0
 31 33  1  0
 33 34  1  0
 33 35  1  0
 35 36  1  0
  6 37  1  0
 37 38  1  0
 37 39  2  0
 39 40  1  0
 39  2  1  0
 35  7  2  0
 28 14  1  0
M  END
>  <cnnaffinity>  (1) 
-5.50734

>  <filename>  (1) 
O=c1[nH]cc(-c2cccnc2)cc1CC1CCCCC1

$$$$
