
     RDKit          3D

 30 32  0  0  0  0  0  0  0  0999 V2000
    4.9847    1.8976   16.9385 H   0  0  0  0  0  0  0  0  0  0  0  0
    5.4544    1.3605   17.7625 C   0  0  0  0  0  0  0  0  0  0  0  0
    6.6261    0.7671   17.4812 N   0  0  0  0  0  0  0  0  0  0  0  0
    7.2344    0.1085   18.4777 C   0  0  0  0  0  0  0  0  0  0  0  0
    8.1818   -0.3679   18.2221 H   0  0  0  0  0  0  0  0  0  0  0  0
    6.7177   -0.0266   19.7870 C   0  0  0  0  0  0  0  0  0  0  0  0
    7.4640   -0.7373   20.8669 C   0  0  0  0  0  0  0  0  0  0  0  0
    8.7658   -0.3961   21.1914 C   0  0  0  0  0  0  0  0  0  0  0  0
    9.2815    0.3603   20.5980 H   0  0  0  0  0  0  0  0  0  0  0  0
    9.4557   -0.9733   22.3028 C   0  0  0  0  0  0  0  0  0  0  0  0
   10.8476   -0.5896   22.6623 C   0  0  0  0  0  0  0  0  0  0  0  0
   11.8836   -0.7882   21.7453 C   0  0  0  0  0  0  0  0  0  0  0  0
   11.6660   -1.2662   20.8000 H   0  0  0  0  0  0  0  0  0  0  0  0
   13.1851   -0.4299   22.0953 C   0  0  0  0  0  0  0  0  0  0  0  0
   13.9997   -0.5547   21.3797 H   0  0  0  0  0  0  0  0  0  0  0  0
   13.5041    0.1210   23.2736 N   0  0  0  0  0  0  0  0  0  0  0  0
   12.5101    0.2997   24.1551 C   0  0  0  0  0  0  0  0  0  0  0  0
   12.7925    0.7322   25.1094 H   0  0  0  0  0  0  0  0  0  0  0  0
   11.1789   -0.0557   23.9163 C   0  0  0  0  0  0  0  0  0  0  0  0
   10.4297    0.0879   24.6839 H   0  0  0  0  0  0  0  0  0  0  0  0
    8.8254   -1.9419   23.0317 C   0  0  0  0  0  0  0  0  0  0  0  0
    9.3173   -2.4401   23.8658 H   0  0  0  0  0  0  0  0  0  0  0  0
    7.5747   -2.3427   22.6716 N   0  0  0  0  0  0  0  0  0  0  0  0
    7.0229   -3.0404   23.1432 H   0  0  0  0  0  0  0  0  0  0  0  0
    6.7956   -1.8160   21.6373 C   0  0  0  0  0  0  0  0  0  0  0  0
    5.6918   -2.3226   21.4967 O   0  0  0  0  0  0  0  0  0  0  0  0
    5.4698    0.5725   20.0370 C   0  0  0  0  0  0  0  0  0  0  0  0
    5.0158    0.4737   21.0231 H   0  0  0  0  0  0  0  0  0  0  0  0
    4.8398    1.2921   19.0161 C   0  0  0  0  0  0  0  0  0  0  0  0
    3.8889    1.7924   19.1716 H   0  0  0  0  0  0  0  0  0  0  0  0
  1  2  1  0
  2  3  2  0
  3  4  1  0
  4  5  1  0
  4  6  2  0
  6  7  1  0
  7  8  2  0
  8  9  1  0
  8 10  1  0
 10 11  1  0
 11 12  2  0
 12 13  1  0
 12 14  1  0
 14 15  1  0
 14 16  2  0
 16 17  1  0
 17 18  1  0
 17 19  2  0
 19 20  1  0
 10 21  2  0
 21 22  1  0
 21 23  1  0
 23 24  1  0
 23 25  1  0
 25 26  2  0
  6 27  1  0
 27 28  1  0
 27 29  2  0
 29 30  1  0
 29  2  1  0
 25  7  1  0
 19 11  1  0
M  END
>  <cnnaffinity>  (1) 
-5.01662

>  <filename>  (1) 
O=c1[nH]cc(-c2ccncc2)cc1-c1cccnc1

$$$$
