
     RDKit          3D

 33 36  0  0  0  0  0  0  0  0999 V2000
    4.9274    1.7910   16.9919 H   0  0  0  0  0  0  0  0  0  0  0  0
    5.4009    1.2962   17.8379 C   0  0  0  0  0  0  0  0  0  0  0  0
    6.5614    0.6731   17.5793 N   0  0  0  0  0  0  0  0  0  0  0  0
    7.1728    0.0556   18.5973 C   0  0  0  0  0  0  0  0  0  0  0  0
    8.1114   -0.4428   18.3633 H   0  0  0  0  0  0  0  0  0  0  0  0
    6.6623    0.0005   19.9077 C   0  0  0  0  0  0  0  0  0  0  0  0
    7.3497   -0.6986   20.9548 N   0  0  0  0  0  0  0  0  0  0  0  0
    6.5743   -1.4350   21.8073 N   0  0  0  0  0  0  0  0  0  0  0  0
    7.1434   -2.0758   22.8029 C   0  0  0  0  0  0  0  0  0  0  0  0
    6.2364   -2.8427   23.7088 C   0  0  0  0  0  0  0  0  0  0  0  0
    6.4679   -2.8704   25.1263 C   0  0  0  0  0  0  0  0  0  0  0  0
    7.3365   -2.3427   25.5125 H   0  0  0  0  0  0  0  0  0  0  0  0
    5.6576   -3.5912   25.9818 C   0  0  0  0  0  0  0  0  0  0  0  0
    5.8396   -3.6112   27.0523 H   0  0  0  0  0  0  0  0  0  0  0  0
    4.5910   -4.3118   25.3979 C   0  0  0  0  0  0  0  0  0  0  0  0
    4.3489   -4.3103   24.0026 C   0  0  0  0  0  0  0  0  0  0  0  0
    3.1885   -5.1268   23.8486 C   0  0  0  0  0  0  0  0  0  0  0  0
    2.6664   -5.3744   22.9315 H   0  0  0  0  0  0  0  0  0  0  0  0
    2.7617   -5.5790   25.0093 N   0  0  0  0  0  0  0  0  0  0  0  0
    3.6135   -5.0869   25.9377 N   0  0  0  0  0  0  0  0  0  0  0  0
    3.4821   -5.3088   26.9136 H   0  0  0  0  0  0  0  0  0  0  0  0
    5.1844   -3.5579   23.1484 C   0  0  0  0  0  0  0  0  0  0  0  0
    5.0442   -3.5248   22.0716 H   0  0  0  0  0  0  0  0  0  0  0  0
    8.6387   -2.0855   23.0280 C   0  0  0  0  0  0  0  0  0  0  0  0
    9.2089   -2.7201   23.9097 O   0  0  0  0  0  0  0  0  0  0  0  0
    9.3760   -1.2580   22.0833 C   0  0  0  0  0  0  0  0  0  0  0  0
   10.4495   -1.2139   22.2106 H   0  0  0  0  0  0  0  0  0  0  0  0
    8.7163   -0.6114   21.1080 C   0  0  0  0  0  0  0  0  0  0  0  0
    9.2113    0.0363   20.3886 H   0  0  0  0  0  0  0  0  0  0  0  0
    5.4437    0.6417   20.1647 C   0  0  0  0  0  0  0  0  0  0  0  0
    5.0364    0.5897   21.1743 H   0  0  0  0  0  0  0  0  0  0  0  0
    4.8132    1.3112   19.1094 C   0  0  0  0  0  0  0  0  0  0  0  0
    3.8791    1.8415   19.2565 H   0  0  0  0  0  0  0  0  0  0  0  0
  1  2  1  0
  2  3  2  0
  3  4  1  0
  4  5  1  0
  4  6  2  0
  6  7  1  0
  7  8  1  0
  8  9  2  0
  9 10  1  0
 10 11  2  0
 11 12  1  0
 11 13  1  0
 13 14  1  0
 13 15  2  0
 15 16  1  0
 16 17  1  0
 17 18  1  0
 17 19  2  0
 19 20  1  0
 20 21  1  0
 16 22  2  0
 22 23  1  0
  9 24  1  0
 24 25  2  0
 24 26  1  0
 26 27  1  0
 26 28  2  0
 28 29  1  0
  6 30  1  0
 30 31  1  0
 30 32  2  0
 32 33  1  0
 32  2  1  0
 28  7  1  0
 22 10  1  0
 20 15  1  0
M  END
>  <cnnaffinity>  (1) 
-6.295

>  <filename>  (1) 
O=c1ccn(-c2cccnc2)nc1-c1ccc2[nH]ncc2c1

$$$$
