
     RDKit          3D

 31 33  0  0  0  0  0  0  0  0999 V2000
    4.9276    1.8301   16.9510 H   0  0  0  0  0  0  0  0  0  0  0  0
    5.3875    1.3163   17.7917 C   0  0  0  0  0  0  0  0  0  0  0  0
    6.5450    0.6837   17.5421 N   0  0  0  0  0  0  0  0  0  0  0  0
    7.1403    0.0654   18.5719 C   0  0  0  0  0  0  0  0  0  0  0  0
    8.0857   -0.4285   18.3427 H   0  0  0  0  0  0  0  0  0  0  0  0
    6.6153    0.0059   19.8806 C   0  0  0  0  0  0  0  0  0  0  0  0
    7.3297   -0.7179   20.9773 C   0  0  0  0  0  0  0  0  0  0  0  0
    8.7351   -0.5531   21.1607 C   0  0  0  0  0  0  0  0  0  0  0  0
    9.2910    0.1065   20.4944 H   0  0  0  0  0  0  0  0  0  0  0  0
    9.4351   -1.1975   22.1580 C   0  0  0  0  0  0  0  0  0  0  0  0
   10.9016   -1.0208   22.2697 C   0  0  0  0  0  0  0  0  0  0  0  0
   11.7555   -2.1303   22.1995 C   0  0  0  0  0  0  0  0  0  0  0  0
   11.2908   -3.1097   22.2073 H   0  0  0  0  0  0  0  0  0  0  0  0
   13.1433   -1.9870   22.1461 C   0  0  0  0  0  0  0  0  0  0  0  0
   13.8007   -2.8458   22.0380 H   0  0  0  0  0  0  0  0  0  0  0  0
   13.7109   -0.7268   22.3423 C   0  0  0  0  0  0  0  0  0  0  0  0
   14.7876   -0.6359   22.4351 H   0  0  0  0  0  0  0  0  0  0  0  0
   12.8943    0.3986   22.4635 C   0  0  0  0  0  0  0  0  0  0  0  0
   13.2954    1.3878   22.6553 H   0  0  0  0  0  0  0  0  0  0  0  0
   11.5144    0.2450   22.3648 C   0  0  0  0  0  0  0  0  0  0  0  0
   10.7508    1.3505   22.4256 F   0  0  0  0  0  0  0  0  0  0  0  0
    8.7259   -2.1202   23.0645 C   0  0  0  0  0  0  0  0  0  0  0  0
    9.1441   -2.8057   23.9825 O   0  0  0  0  0  0  0  0  0  0  0  0
    7.3504   -2.2013   22.8200 N   0  0  0  0  0  0  0  0  0  0  0  0
    6.9546   -2.7901   23.5387 H   0  0  0  0  0  0  0  0  0  0  0  0
    6.6580   -1.5471   21.8417 C   0  0  0  0  0  0  0  0  0  0  0  0
    5.5839   -1.7218   21.7667 H   0  0  0  0  0  0  0  0  0  0  0  0
    5.3996    0.6714   20.1069 C   0  0  0  0  0  0  0  0  0  0  0  0
    4.9701    0.6936   21.1074 H   0  0  0  0  0  0  0  0  0  0  0  0
    4.7776    1.3381   19.0498 C   0  0  0  0  0  0  0  0  0  0  0  0
    3.8460    1.8765   19.1936 H   0  0  0  0  0  0  0  0  0  0  0  0
  1  2  1  0
  2  3  2  0
  3  4  1  0
  4  5  1  0
  4  6  2  0
  6  7  1  0
  7  8  1  0
  8  9  1  0
  8 10  2  0
 10 11  1  0
 11 12  2  0
 12 13  1  0
 12 14  1  0
 14 15  1  0
 14 16  2  0
 16 17  1  0
 16 18  1  0
 18 19  1  0
 18 20  2  0
 20 21  1  0
 10 22  1  0
 22 23  2  0
 22 24  1  0
 24 25  1  0
 24 26  1  0
 26 27  1  0
  6 28  1  0
 28 29  1  0
 28 30  2  0
 30 31  1  0
 30  2  1  0
 26  7  2  0
 20 11  1  0
M  END
>  <cnnaffinity>  (1) 
-5.62115

>  <filename>  (1) 
O=c1[nH]cc(-c2cccnc2)cc1-c1ccccc1F

$$$$
