
     RDKit          3D

 31 33  0  0  0  0  0  0  0  0999 V2000
    5.0034    1.9755   16.8150 H   0  0  0  0  0  0  0  0  0  0  0  0
    5.3574    1.4018   17.6677 C   0  0  0  0  0  0  0  0  0  0  0  0
    6.4771    0.6885   17.4634 N   0  0  0  0  0  0  0  0  0  0  0  0
    6.9419   -0.0170   18.5004 C   0  0  0  0  0  0  0  0  0  0  0  0
    7.8761   -0.5523   18.3274 H   0  0  0  0  0  0  0  0  0  0  0  0
    6.3164   -0.0988   19.7633 C   0  0  0  0  0  0  0  0  0  0  0  0
    6.9449   -0.8867   20.8596 C   0  0  0  0  0  0  0  0  0  0  0  0
    6.2229   -1.7291   21.7623 C   0  0  0  0  0  0  0  0  0  0  0  0
    5.1586   -1.8930   21.5907 H   0  0  0  0  0  0  0  0  0  0  0  0
    6.8696   -2.3380   22.7997 C   0  0  0  0  0  0  0  0  0  0  0  0
    6.3728   -2.9399   23.5493 H   0  0  0  0  0  0  0  0  0  0  0  0
    8.3140   -2.2105   23.0133 C   0  0  0  0  0  0  0  0  0  0  0  0
    8.9133   -2.7964   23.8979 O   0  0  0  0  0  0  0  0  0  0  0  0
    8.9691   -1.3288   22.0973 N   0  0  0  0  0  0  0  0  0  0  0  0
   10.3538   -0.9581   22.2483 C   0  0  0  0  0  0  0  0  0  0  0  0
   10.6825    0.3974   22.3983 C   0  0  0  0  0  0  0  0  0  0  0  0
    9.8785    1.1345   22.4586 H   0  0  0  0  0  0  0  0  0  0  0  0
   12.0216    0.7833   22.4560 C   0  0  0  0  0  0  0  0  0  0  0  0
   12.3106    1.8249   22.5669 H   0  0  0  0  0  0  0  0  0  0  0  0
   13.0192   -0.1858   22.3089 C   0  0  0  0  0  0  0  0  0  0  0  0
   14.6685    0.3549   22.3756 Cl  0  0  0  0  0  0  0  0  0  0  0  0
   12.7033   -1.5349   22.1073 C   0  0  0  0  0  0  0  0  0  0  0  0
   13.4914   -2.2654   21.9386 H   0  0  0  0  0  0  0  0  0  0  0  0
   11.3558   -1.9229   22.1158 C   0  0  0  0  0  0  0  0  0  0  0  0
   11.0488   -2.9604   22.0335 H   0  0  0  0  0  0  0  0  0  0  0  0
    8.2886   -0.7531   21.0546 C   0  0  0  0  0  0  0  0  0  0  0  0
    8.8871   -0.1325   20.3975 H   0  0  0  0  0  0  0  0  0  0  0  0
    5.1574    0.6669   19.9550 C   0  0  0  0  0  0  0  0  0  0  0  0
    4.6924    0.7085   20.9439 H   0  0  0  0  0  0  0  0  0  0  0  0
    4.6722    1.4287   18.8886 C   0  0  0  0  0  0  0  0  0  0  0  0
    3.7901    2.0503   18.9906 H   0  0  0  0  0  0  0  0  0  0  0  0
  1  2  1  0
  2  3  2  0
  3  4  1  0
  4  5  1  0
  4  6  2  0
  6  7  1  0
  7  8  1  0
  8  9  1  0
  8 10  2  0
 10 11  1  0
 10 12  1  0
 12 13  2  0
 12 14  1  0
 14 15  1  0
 15 16  2  0
 16 17  1  0
 16 18  1  0
 18 19  1  0
 18 20  2  0
 20 21  1  0
 20 22  1  0
 22 23  1  0
 22 24  2  0
 24 25  1  0
 14 26  1  0
 26 27  1  0
  6 28  1  0
 28 29  1  0
 28 30  2  0
 30 31  1  0
 30  2  1  0
 26  7  2  0
 24 15  1  0
M  END
>  <cnnaffinity>  (1) 
-5.03873

>  <filename>  (1) 
O=c1ccc(-c2cccnc2)cn1-c1ccc(Cl)cc1

$$$$
