
     RDKit          3D

 23 24  0  0  0  0  0  0  0  0999 V2000
    4.9833    1.8690   16.8883 H   0  0  0  0  0  0  0  0  0  0  0  0
    5.4819    1.3653   17.7164 C   0  0  0  0  0  0  0  0  0  0  0  0
    6.6690    0.7953   17.4434 N   0  0  0  0  0  0  0  0  0  0  0  0
    7.2871    0.1465   18.4365 C   0  0  0  0  0  0  0  0  0  0  0  0
    8.2378   -0.3216   18.2016 H   0  0  0  0  0  0  0  0  0  0  0  0
    6.7574    0.0141   19.7326 C   0  0  0  0  0  0  0  0  0  0  0  0
    7.4180   -0.7410   20.7350 N   0  0  0  0  0  0  0  0  0  0  0  0
    6.8422   -1.7370   21.5408 C   0  0  0  0  0  0  0  0  0  0  0  0
    5.7092   -2.1583   21.4399 O   0  0  0  0  0  0  0  0  0  0  0  0
    7.9562   -2.1129   22.4503 C   0  0  0  0  0  0  0  0  0  0  0  0
    7.8073   -3.0444   23.9391 S   0  0  0  0  0  0  0  0  0  0  0  0
    7.7516   -4.8045   23.4040 C   0  0  0  0  0  0  0  0  0  0  0  0
    7.6236   -5.5300   24.5087 F   0  0  0  0  0  0  0  0  0  0  0  0
    6.7173   -5.0071   22.6040 F   0  0  0  0  0  0  0  0  0  0  0  0
    8.8680   -5.1304   22.7707 F   0  0  0  0  0  0  0  0  0  0  0  0
    9.0433   -1.3941   22.0830 C   0  0  0  0  0  0  0  0  0  0  0  0
   10.0262   -1.3906   22.5448 H   0  0  0  0  0  0  0  0  0  0  0  0
    8.7956   -0.6434   20.9422 N   0  0  0  0  0  0  0  0  0  0  0  0
    9.1561    0.3024   20.8834 H   0  0  0  0  0  0  0  0  0  0  0  0
    5.5307    0.6287   20.0156 C   0  0  0  0  0  0  0  0  0  0  0  0
    5.1116    0.5743   21.0212 H   0  0  0  0  0  0  0  0  0  0  0  0
    4.8849    1.3135   18.9822 C   0  0  0  0  0  0  0  0  0  0  0  0
    3.9298    1.8018   19.1458 H   0  0  0  0  0  0  0  0  0  0  0  0
  1  2  1  0
  2  3  2  0
  3  4  1  0
  4  5  1  0
  4  6  2  0
  6  7  1  0
  7  8  1  0
  8  9  2  0
  8 10  1  0
 10 11  1  0
 11 12  1  0
 12 13  1  0
 12 14  1  0
 12 15  1  0
 10 16  2  0
 16 17  1  0
 16 18  1  0
 18 19  1  0
  6 20  1  0
 20 21  1  0
 20 22  2  0
 22 23  1  0
 22  2  1  0
 18  7  1  0
M  END
>  <cnnaffinity>  (1) 
-4.97246

>  <filename>  (1) 
O=c1c(SC(F)(F)F)c[nH]n1-c1cccnc1

$$$$
