
     RDKit          3D

 30 32  0  0  0  0  0  0  0  0999 V2000
    4.9496    1.7988   17.0868 H   0  0  0  0  0  0  0  0  0  0  0  0
    5.4131    1.2380   17.8951 C   0  0  0  0  0  0  0  0  0  0  0  0
    6.5575    0.6017   17.5895 N   0  0  0  0  0  0  0  0  0  0  0  0
    7.1600   -0.0708   18.5740 C   0  0  0  0  0  0  0  0  0  0  0  0
    8.1204   -0.5240   18.3444 H   0  0  0  0  0  0  0  0  0  0  0  0
    6.6481   -0.1868   19.8896 C   0  0  0  0  0  0  0  0  0  0  0  0
    7.4028   -0.8607   20.9139 N   0  0  0  0  0  0  0  0  0  0  0  0
    7.0768   -1.8151   21.8774 C   0  0  0  0  0  0  0  0  0  0  0  0
    5.8928   -2.4822   21.8508 N   0  0  0  0  0  0  0  0  0  0  0  0
    5.2519   -2.0045   21.2353 H   0  0  0  0  0  0  0  0  0  0  0  0
    5.2921   -3.0877   23.0062 C   0  0  0  0  0  0  0  0  0  0  0  0
    5.6019   -2.7078   24.3284 C   0  0  0  0  0  0  0  0  0  0  0  0
    6.4553   -2.0578   24.4986 H   0  0  0  0  0  0  0  0  0  0  0  0
    4.8090   -3.1464   25.3992 C   0  0  0  0  0  0  0  0  0  0  0  0
    5.0219   -2.8427   26.4224 H   0  0  0  0  0  0  0  0  0  0  0  0
    3.7597   -4.0300   25.1537 C   0  0  0  0  0  0  0  0  0  0  0  0
    3.0228   -4.4783   26.1856 F   0  0  0  0  0  0  0  0  0  0  0  0
    3.4788   -4.4839   23.8652 C   0  0  0  0  0  0  0  0  0  0  0  0
    2.6768   -5.2001   23.7156 H   0  0  0  0  0  0  0  0  0  0  0  0
    4.2644   -4.0174   22.8006 C   0  0  0  0  0  0  0  0  0  0  0  0
    4.0866   -4.3818   21.7969 H   0  0  0  0  0  0  0  0  0  0  0  0
    8.0471   -2.0845   22.6980 N   0  0  0  0  0  0  0  0  0  0  0  0
    9.0299   -1.2089   22.2951 N   0  0  0  0  0  0  0  0  0  0  0  0
    9.9818   -1.2520   22.5980 H   0  0  0  0  0  0  0  0  0  0  0  0
    8.7319   -0.4999   21.1868 C   0  0  0  0  0  0  0  0  0  0  0  0
    9.4633    0.2563   20.5750 O   0  0  0  0  0  0  0  0  0  0  0  0
    5.4586    0.4823   20.1945 C   0  0  0  0  0  0  0  0  0  0  0  0
    5.0657    0.4752   21.2145 H   0  0  0  0  0  0  0  0  0  0  0  0
    4.8363    1.2132   19.1704 C   0  0  0  0  0  0  0  0  0  0  0  0
    3.9278    1.7756   19.3589 H   0  0  0  0  0  0  0  0  0  0  0  0
  1  2  1  0
  2  3  2  0
  3  4  1  0
  4  5  1  0
  4  6  2  0
  6  7  1  0
  7  8  1  0
  8  9  1  0
  9 10  1  0
  9 11  1  0
 11 12  2  0
 12 13  1  0
 12 14  1  0
 14 15  1  0
 14 16  2  0
 16 17  1  0
 16 18  1  0
 18 19  1  0
 18 20  2  0
 20 21  1  0
  8 22  2  0
 22 23  1  0
 23 24  1  0
 23 25  1  0
 25 26  2  0
  6 27  1  0
 27 28  1  0
 27 29  2  0
 29 30  1  0
 29  2  1  0
 25  7  1  0
 20 11  1  0
M  END
>  <cnnaffinity>  (1) 
-4.94071

>  <filename>  (1) 
O=c1[nH]nc(Nc2ccc(F)cc2)n1-c1cccnc1

$$$$
