
     RDKit          3D

 33 36  0  0  0  0  0  0  0  0999 V2000
    4.9083    1.7799   16.9972 H   0  0  0  0  0  0  0  0  0  0  0  0
    5.3967    1.2966   17.8388 C   0  0  0  0  0  0  0  0  0  0  0  0
    6.5596    0.6785   17.5718 N   0  0  0  0  0  0  0  0  0  0  0  0
    7.1749    0.0603   18.5859 C   0  0  0  0  0  0  0  0  0  0  0  0
    8.1245   -0.4278   18.3764 H   0  0  0  0  0  0  0  0  0  0  0  0
    6.6515    0.0044   19.8907 C   0  0  0  0  0  0  0  0  0  0  0  0
    7.3432   -0.6936   20.9450 N   0  0  0  0  0  0  0  0  0  0  0  0
    6.7024   -1.7405   21.5823 C   0  0  0  0  0  0  0  0  0  0  0  0
    5.6928   -1.9700   21.2389 H   0  0  0  0  0  0  0  0  0  0  0  0
    7.3022   -2.4492   22.5700 C   0  0  0  0  0  0  0  0  0  0  0  0
    6.5978   -3.5465   23.2255 C   0  0  0  0  0  0  0  0  0  0  0  0
    5.3912   -3.8761   22.8672 N   0  0  0  0  0  0  0  0  0  0  0  0
    4.9188   -4.9413   23.6201 C   0  0  0  0  0  0  0  0  0  0  0  0
    3.6482   -5.5495   23.5009 C   0  0  0  0  0  0  0  0  0  0  0  0
    2.9513   -5.1657   22.7609 H   0  0  0  0  0  0  0  0  0  0  0  0
    3.3159   -6.6222   24.3296 C   0  0  0  0  0  0  0  0  0  0  0  0
    2.3374   -7.0935   24.2425 H   0  0  0  0  0  0  0  0  0  0  0  0
    4.2371   -7.1035   25.2862 C   0  0  0  0  0  0  0  0  0  0  0  0
    3.9618   -7.9394   25.9304 H   0  0  0  0  0  0  0  0  0  0  0  0
    5.4930   -6.5125   25.4204 C   0  0  0  0  0  0  0  0  0  0  0  0
    6.2075   -6.8821   26.1552 H   0  0  0  0  0  0  0  0  0  0  0  0
    5.8318   -5.4341   24.5838 C   0  0  0  0  0  0  0  0  0  0  0  0
    7.3033   -4.5188   24.5243 S   0  0  0  0  0  0  0  0  0  0  0  0
    8.6617   -2.0850   22.9746 C   0  0  0  0  0  0  0  0  0  0  0  0
    9.3207   -2.6219   23.8347 O   0  0  0  0  0  0  0  0  0  0  0  0
    9.2126   -1.0290   22.2835 N   0  0  0  0  0  0  0  0  0  0  0  0
   10.1409   -0.7492   22.5344 H   0  0  0  0  0  0  0  0  0  0  0  0
    8.6528   -0.2873   21.2990 C   0  0  0  0  0  0  0  0  0  0  0  0
    9.2492    0.6229   20.7691 O   0  0  0  0  0  0  0  0  0  0  0  0
    5.4393    0.6455   20.1562 C   0  0  0  0  0  0  0  0  0  0  0  0
    5.0211    0.6204   21.1656 H   0  0  0  0  0  0  0  0  0  0  0  0
    4.8037    1.3174   19.1072 C   0  0  0  0  0  0  0  0  0  0  0  0
    3.8693    1.8475   19.2640 H   0  0  0  0  0  0  0  0  0  0  0  0
  1  2  1  0
  2  3  2  0
  3  4  1  0
  4  5  1  0
  4  6  2  0
  6  7  1  0
  7  8  1  0
  8  9  1  0
  8 10  2  0
 10 11  1  0
 11 12  2  0
 12 13  1  0
 13 14  2  0
 14 15  1  0
 14 16  1  0
 16 17  1  0
 16 18  2  0
 18 19  1  0
 18 20  1  0
 20 21  1  0
 20 22  2  0
 22 23  1  0
 10 24  1  0
 24 25  2  0
 24 26  1  0
 26 27  1  0
 26 28  1  0
 28 29  2  0
  6 30  1  0
 30 31  1  0
 30 32  2  0
 32 33  1  0
 32  2  1  0
 28  7  1  0
 23 11  1  0
 22 13  1  0
M  END
>  <cnnaffinity>  (1) 
-5.75839

>  <filename>  (1) 
O=c1[nH]c(=O)n(-c2cccnc2)cc1-c1nc2ccccc2s1

$$$$
