
     RDKit          3D

 34 37  0  0  0  0  0  0  0  0999 V2000
    4.9345    1.8839   16.7251 H   0  0  0  0  0  0  0  0  0  0  0  0
    5.3639    1.3730   17.5854 C   0  0  0  0  0  0  0  0  0  0  0  0
    6.5229    0.7285   17.3717 N   0  0  0  0  0  0  0  0  0  0  0  0
    7.0858    0.1004   18.4109 C   0  0  0  0  0  0  0  0  0  0  0  0
    8.0462   -0.3734   18.2023 H   0  0  0  0  0  0  0  0  0  0  0  0
    6.5298    0.0817   19.7014 C   0  0  0  0  0  0  0  0  0  0  0  0
    7.1773   -0.5895   20.8305 C   0  0  0  0  0  0  0  0  0  0  0  0
    7.2073   -0.0933   22.1027 C   0  0  0  0  0  0  0  0  0  0  0  0
    6.8491    0.9018   22.3223 H   0  0  0  0  0  0  0  0  0  0  0  0
    7.8117   -0.8760   23.1197 C   0  0  0  0  0  0  0  0  0  0  0  0
    7.9869   -0.2740   24.4691 C   0  0  0  0  0  0  0  0  0  0  0  0
    6.9146    0.2590   25.1958 C   0  0  0  0  0  0  0  0  0  0  0  0
    5.9144    0.3015   24.7662 H   0  0  0  0  0  0  0  0  0  0  0  0
    7.1093    0.7327   26.5081 C   0  0  0  0  0  0  0  0  0  0  0  0
    6.2725    1.1210   27.0749 H   0  0  0  0  0  0  0  0  0  0  0  0
    8.3675    0.7553   27.1007 C   0  0  0  0  0  0  0  0  0  0  0  0
    8.4800    1.1030   28.1234 H   0  0  0  0  0  0  0  0  0  0  0  0
    9.4561    0.3246   26.3246 C   0  0  0  0  0  0  0  0  0  0  0  0
    9.2917   -0.1964   25.0174 C   0  0  0  0  0  0  0  0  0  0  0  0
   10.6181   -0.4549   24.5102 C   0  0  0  0  0  0  0  0  0  0  0  0
   10.8636   -0.8434   23.5312 H   0  0  0  0  0  0  0  0  0  0  0  0
   11.5070   -0.0942   25.4818 C   0  0  0  0  0  0  0  0  0  0  0  0
   12.5885   -0.1561   25.5014 H   0  0  0  0  0  0  0  0  0  0  0  0
   10.8029    0.3453   26.5866 N   0  0  0  0  0  0  0  0  0  0  0  0
   11.1865    0.7332   27.4340 H   0  0  0  0  0  0  0  0  0  0  0  0
    8.2530   -2.0962   22.9261 N   0  0  0  0  0  0  0  0  0  0  0  0
    8.1280   -2.6403   21.6802 C   0  0  0  0  0  0  0  0  0  0  0  0
    8.3468   -3.7977   21.3901 O   0  0  0  0  0  0  0  0  0  0  0  0
    7.7725   -1.7881   20.6324 N   0  0  0  0  0  0  0  0  0  0  0  0
    7.7269   -2.3086   19.7779 H   0  0  0  0  0  0  0  0  0  0  0  0
    5.3198    0.7649   19.9066 C   0  0  0  0  0  0  0  0  0  0  0  0
    4.8698    0.7721   20.9017 H   0  0  0  0  0  0  0  0  0  0  0  0
    4.7234    1.4134   18.8289 C   0  0  0  0  0  0  0  0  0  0  0  0
    3.7964    1.9621   18.9493 H   0  0  0  0  0  0  0  0  0  0  0  0
  1  2  1  0
  2  3  2  0
  3  4  1  0
  4  5  1  0
  4  6  2  0
  6  7  1  0
  7  8  2  0
  8  9  1  0
  8 10  1  0
 10 11  1  0
 11 12  2  0
 12 13  1  0
 12 14  1  0
 14 15  1  0
 14 16  2  0
 16 17  1  0
 16 18  1  0
 18 19  2  0
 19 20  1  0
 20 21  1  0
 20 22  2  0
 22 23  1  0
 22 24  1  0
 24 25  1  0
 10 26  2  0
 26 27  1  0
 27 28  2  0
 27 29  1  0
 29 30  1  0
  6 31  1  0
 31 32  1  0
 31 33  2  0
 33 34  1  0
 33  2  1  0
 29  7  1  0
 19 11  1  0
 24 18  1  0
M  END
>  <cnnaffinity>  (1) 
-5.40182

>  <filename>  (1) 
O=c1nc(-c2cccc3[nH]ccc23)cc(-c2cccnc2)[nH]1

$$$$
