
     RDKit          3D

 31 33  0  0  0  0  0  0  0  0999 V2000
    5.0540    1.7628   16.9425 H   0  0  0  0  0  0  0  0  0  0  0  0
    5.5319    1.3147   17.8162 C   0  0  0  0  0  0  0  0  0  0  0  0
    6.7531    0.7922   17.6302 N   0  0  0  0  0  0  0  0  0  0  0  0
    7.3651    0.2340   18.6874 C   0  0  0  0  0  0  0  0  0  0  0  0
    8.3586   -0.1557   18.4896 H   0  0  0  0  0  0  0  0  0  0  0  0
    6.7857    0.1286   19.9644 C   0  0  0  0  0  0  0  0  0  0  0  0
    7.3874   -0.6395   21.1351 C   0  0  1  0  0  0  0  0  0  0  0  0
    6.7857   -0.4153   22.0327 H   0  0  0  0  0  0  0  0  0  0  0  0
    7.3779   -2.1890   21.0327 C   0  0  0  0  0  0  0  0  0  0  0  0
    6.4479   -2.9332   20.8609 O   0  0  0  0  0  0  0  0  0  0  0  0
    8.6583   -2.6030   21.2500 N   0  0  0  0  0  0  0  0  0  0  0  0
    8.9506   -3.5469   21.0863 H   0  0  0  0  0  0  0  0  0  0  0  0
    9.5670   -1.5718   21.3099 C   0  0  0  0  0  0  0  0  0  0  0  0
   10.7609   -1.7034   21.3058 O   0  0  0  0  0  0  0  0  0  0  0  0
    8.8235   -0.4095   21.4628 N   0  0  0  0  0  0  0  0  0  0  0  0
    9.4314    0.7801   21.1055 O   0  0  0  0  0  0  0  0  0  0  0  0
   10.4991    1.2598   21.8889 C   0  0  0  0  0  0  0  0  0  0  0  0
   11.1115    2.3597   21.2823 C   0  0  0  0  0  0  0  0  0  0  0  0
   10.7131    2.7501   20.3589 H   0  0  0  0  0  0  0  0  0  0  0  0
   12.2074    2.9796   21.8658 C   0  0  0  0  0  0  0  0  0  0  0  0
   12.7140    3.8138   21.3974 H   0  0  0  0  0  0  0  0  0  0  0  0
   12.6767    2.5126   23.0850 C   0  0  0  0  0  0  0  0  0  0  0  0
   13.7245    3.1440   23.6305 F   0  0  0  0  0  0  0  0  0  0  0  0
   12.0809    1.4307   23.7244 C   0  0  0  0  0  0  0  0  0  0  0  0
   12.5048    1.1013   24.6664 H   0  0  0  0  0  0  0  0  0  0  0  0
   10.9688    0.7997   23.1315 C   0  0  0  0  0  0  0  0  0  0  0  0
   10.5067   -0.0475   23.6314 H   0  0  0  0  0  0  0  0  0  0  0  0
    5.5194    0.7093   20.1377 C   0  0  0  0  0  0  0  0  0  0  0  0
    5.0497    0.7099   21.1240 H   0  0  0  0  0  0  0  0  0  0  0  0
    4.8764    1.3075   19.0519 C   0  0  0  0  0  0  0  0  0  0  0  0
    3.8982    1.7717   19.1512 H   0  0  0  0  0  0  0  0  0  0  0  0
  1  2  1  0
  2  3  2  0
  3  4  1  0
  4  5  1  0
  4  6  2  0
  6  7  1  0
  7  8  1  1
  7  9  1  0
  9 10  2  0
  9 11  1  0
 11 12  1  0
 11 13  1  0
 13 14  2  0
 13 15  1  0
 15 16  1  0
 16 17  1  0
 17 18  2  0
 18 19  1  0
 18 20  1  0
 20 21  1  0
 20 22  2  0
 22 23  1  0
 22 24  1  0
 24 25  1  0
 24 26  2  0
 26 27  1  0
  6 28  1  0
 28 29  1  0
 28 30  2  0
 30 31  1  0
 30  2  1  0
 15  7  1  0
 26 17  1  0
M  END
>  <cnnaffinity>  (1) 
-5.41994

>  <filename>  (1) 
O=C1NC(=O)N(Oc2ccc(F)cc2)[C@H]1c1cccnc1

$$$$
