
     RDKit          3D

 30 32  0  0  0  0  0  0  0  0999 V2000
    4.9311    1.7871   16.9899 H   0  0  0  0  0  0  0  0  0  0  0  0
    5.3975    1.2939   17.8396 C   0  0  0  0  0  0  0  0  0  0  0  0
    6.5545    0.6654   17.5864 N   0  0  0  0  0  0  0  0  0  0  0  0
    7.1480    0.0422   18.6059 C   0  0  0  0  0  0  0  0  0  0  0  0
    8.1123   -0.4140   18.3865 H   0  0  0  0  0  0  0  0  0  0  0  0
    6.6181   -0.0161   19.9056 C   0  0  0  0  0  0  0  0  0  0  0  0
    7.3174   -0.7348   20.9819 C   0  0  0  0  0  0  0  0  0  0  0  0
    6.5918   -1.5089   21.7656 N   0  0  0  0  0  0  0  0  0  0  0  0
    7.1848   -2.1972   22.8059 C   0  0  0  0  0  0  0  0  0  0  0  0
    6.2949   -3.0445   23.6716 C   0  0  0  0  0  0  0  0  0  0  0  0
    6.6256   -3.3174   25.0155 C   0  0  0  0  0  0  0  0  0  0  0  0
    7.5217   -2.8954   25.4592 H   0  0  0  0  0  0  0  0  0  0  0  0
    5.7925   -4.1150   25.8046 C   0  0  0  0  0  0  0  0  0  0  0  0
    6.0672   -4.3188   26.8370 H   0  0  0  0  0  0  0  0  0  0  0  0
    4.6166   -4.6561   25.2788 C   0  0  0  0  0  0  0  0  0  0  0  0
    3.9586   -5.2750   25.8799 H   0  0  0  0  0  0  0  0  0  0  0  0
    4.2896   -4.3816   23.9478 C   0  0  0  0  0  0  0  0  0  0  0  0
    2.8212   -5.0356   23.2829 Cl  0  0  0  0  0  0  0  0  0  0  0  0
    5.1075   -3.5881   23.1466 C   0  0  0  0  0  0  0  0  0  0  0  0
    4.8243   -3.3668   22.1220 H   0  0  0  0  0  0  0  0  0  0  0  0
    8.5370   -2.1257   23.0271 C   0  0  0  0  0  0  0  0  0  0  0  0
    9.0463   -2.6848   23.8021 H   0  0  0  0  0  0  0  0  0  0  0  0
    9.3062   -1.3280   22.2150 N   0  0  0  0  0  0  0  0  0  0  0  0
   10.3047   -1.1680   22.3004 H   0  0  0  0  0  0  0  0  0  0  0  0
    8.8082   -0.5607   21.1746 C   0  0  0  0  0  0  0  0  0  0  0  0
    9.6101    0.1320   20.5674 O   0  0  0  0  0  0  0  0  0  0  0  0
    5.4051    0.6461   20.1550 C   0  0  0  0  0  0  0  0  0  0  0  0
    4.9747    0.6350   21.1603 H   0  0  0  0  0  0  0  0  0  0  0  0
    4.7972    1.3204   19.1029 C   0  0  0  0  0  0  0  0  0  0  0  0
    3.8675    1.8565   19.2454 H   0  0  0  0  0  0  0  0  0  0  0  0
  1  2  1  0
  2  3  2  0
  3  4  1  0
  4  5  1  0
  4  6  2  0
  6  7  1  0
  7  8  2  0
  8  9  1  0
  9 10  1  0
 10 11  2  0
 11 12  1  0
 11 13  1  0
 13 14  1  0
 13 15  2  0
 15 16  1  0
 15 17  1  0
 17 18  1  0
 17 19  2  0
 19 20  1  0
  9 21  2  0
 21 22  1  0
 21 23  1  0
 23 24  1  0
 23 25  1  0
 25 26  2  0
  6 27  1  0
 27 28  1  0
 27 29  2  0
 29 30  1  0
 29  2  1  0
 25  7  1  0
 19 10  1  0
M  END
>  <cnnaffinity>  (1) 
-5.41723

>  <filename>  (1) 
O=c1[nH]cc(-c2cccc(Cl)c2)nc1-c1cccnc1

$$$$
