
     RDKit          3D

 42 45  0  0  0  0  0  0  0  0999 V2000
    5.0156    1.7474   16.9180 H   0  0  0  0  0  0  0  0  0  0  0  0
    5.4569    1.2601   17.7864 C   0  0  0  0  0  0  0  0  0  0  0  0
    6.6136    0.6105   17.5834 N   0  0  0  0  0  0  0  0  0  0  0  0
    7.1853    0.0090   18.6354 C   0  0  0  0  0  0  0  0  0  0  0  0
    8.1374   -0.4789   18.4223 H   0  0  0  0  0  0  0  0  0  0  0  0
    6.6508    0.0144   19.9398 C   0  0  0  0  0  0  0  0  0  0  0  0
    7.3535   -0.6294   21.0688 C   0  0  0  0  0  0  0  0  0  0  0  0
    8.1965   -1.6704   21.1139 C   0  0  0  0  0  0  0  0  0  0  0  0
    8.5886   -2.3302   20.3631 H   0  0  0  0  0  0  0  0  0  0  0  0
    8.6419   -1.8917   22.3932 O   0  0  0  0  0  0  0  0  0  0  0  0
    8.0957   -0.9567   23.2194 C   0  0  0  0  0  0  0  0  0  0  0  0
    8.3202   -0.8837   24.4020 O   0  0  0  0  0  0  0  0  0  0  0  0
    7.2731   -0.1638   22.4049 N   0  0  0  0  0  0  0  0  0  0  0  0
    6.6658    1.0482   22.7513 N   0  0  0  0  0  0  0  0  0  0  0  0
    7.5903    2.1741   22.4797 C   0  0  0  0  0  0  0  0  0  0  0  0
    7.6358    2.3236   21.3948 H   0  0  0  0  0  0  0  0  0  0  0  0
    8.6011    1.9144   22.8352 H   0  0  0  0  0  0  0  0  0  0  0  0
    7.1072    3.4483   23.1722 C   0  0  0  0  0  0  0  0  0  0  0  0
    7.7896    4.2670   22.9161 H   0  0  0  0  0  0  0  0  0  0  0  0
    6.1102    3.7171   22.7805 H   0  0  0  0  0  0  0  0  0  0  0  0
    7.0808    3.2654   24.6295 N   0  0  0  0  0  0  0  0  0  0  0  0
    7.2088    4.3489   25.4883 C   0  0  0  0  0  0  0  0  0  0  0  0
    6.8727    5.6481   25.0484 C   0  0  0  0  0  0  0  0  0  0  0  0
    6.4982    5.7639   24.0368 H   0  0  0  0  0  0  0  0  0  0  0  0
    6.9947    6.7487   25.8983 C   0  0  0  0  0  0  0  0  0  0  0  0
    6.7309    7.7375   25.5268 H   0  0  0  0  0  0  0  0  0  0  0  0
    7.4583    6.5757   27.2053 C   0  0  0  0  0  0  0  0  0  0  0  0
    7.5403    7.4245   27.8776 H   0  0  0  0  0  0  0  0  0  0  0  0
    7.8068    5.2983   27.6494 C   0  0  0  0  0  0  0  0  0  0  0  0
    8.1772    5.1725   28.6622 H   0  0  0  0  0  0  0  0  0  0  0  0
    7.6799    4.1876   26.8090 C   0  0  0  0  0  0  0  0  0  0  0  0
    7.9433    3.1865   27.1396 H   0  0  0  0  0  0  0  0  0  0  0  0
    6.8638    1.8956   25.1183 C   0  0  0  0  0  0  0  0  0  0  0  0
    6.3078    1.9149   26.0638 H   0  0  0  0  0  0  0  0  0  0  0  0
    7.8149    1.3731   25.3066 H   0  0  0  0  0  0  0  0  0  0  0  0
    6.0500    1.0710   24.1006 C   0  0  0  0  0  0  0  0  0  0  0  0
    5.0474    1.5103   24.0076 H   0  0  0  0  0  0  0  0  0  0  0  0
    5.9514    0.0429   24.4601 H   0  0  0  0  0  0  0  0  0  0  0  0
    5.4337    0.6997   20.1246 C   0  0  0  0  0  0  0  0  0  0  0  0
    5.0121    0.7562   21.1262 H   0  0  0  0  0  0  0  0  0  0  0  0
    4.8302    1.3202   19.0354 C   0  0  0  0  0  0  0  0  0  0  0  0
    3.9079    1.8761   19.1568 H   0  0  0  0  0  0  0  0  0  0  0  0
  1  2  1  0
  2  3  2  0
  3  4  1  0
  4  5  1  0
  4  6  2  0
  6  7  1  0
  7  8  2  0
  8  9  1  0
  8 10  1  0
 10 11  1  0
 11 12  2  0
 11 13  1  0
 13 14  1  0
 14 15  1  0
 15 16  1  0
 15 17  1  0
 15 18  1  0
 18 19  1  0
 18 20  1  0
 18 21  1  0
 21 22  1  0
 22 23  2  0
 23 24  1  0
 23 25  1  0
 25 26  1  0
 25 27  2  0
 27 28  1  0
 27 29  1  0
 29 30  1  0
 29 31  2  0
 31 32  1  0
 21 33  1  0
 33 34  1  0
 33 35  1  0
 33 36  1  0
 36 37  1  0
 36 38  1  0
  6 39  1  0
 39 40  1  0
 39 41  2  0
 41 42  1  0
 41  2  1  0
 13  7  1  0
 36 14  1  0
 31 22  1  0
M  END
>  <cnnaffinity>  (1) 
-5.06422

>  <filename>  (1) 
O=c1occ(-c2cccnc2)n1N1CCN(c2ccccc2)CC1

$$$$
