
     RDKit          3D

 37 39  0  0  0  0  0  0  0  0999 V2000
    4.9390    1.7783   16.8329 H   0  0  0  0  0  0  0  0  0  0  0  0
    5.4001    1.3584   17.7243 C   0  0  0  0  0  0  0  0  0  0  0  0
    6.5675    0.7195   17.5377 N   0  0  0  0  0  0  0  0  0  0  0  0
    7.1530    0.1743   18.6091 C   0  0  0  0  0  0  0  0  0  0  0  0
    8.1002   -0.3388   18.4416 H   0  0  0  0  0  0  0  0  0  0  0  0
    6.6154    0.2426   19.9108 C   0  0  0  0  0  0  0  0  0  0  0  0
    7.2328   -0.4534   21.0203 N   0  0  0  0  0  0  0  0  0  0  0  0
    7.3569   -1.8419   20.9691 C   0  0  0  0  0  0  0  0  0  0  0  0
    6.9413   -2.2908   20.0684 H   0  0  0  0  0  0  0  0  0  0  0  0
    7.9588   -2.5545   21.9449 C   0  0  0  0  0  0  0  0  0  0  0  0
    8.1187   -4.0631   21.9052 C   0  0  0  0  0  0  0  0  0  0  0  0
    8.2750   -4.3941   20.8685 H   0  0  0  0  0  0  0  0  0  0  0  0
    9.0289   -4.3214   22.4569 H   0  0  0  0  0  0  0  0  0  0  0  0
    6.9556   -4.8715   22.4694 C   0  0  0  0  0  0  0  0  0  0  0  0
    6.9104   -5.2583   23.8179 C   0  0  0  0  0  0  0  0  0  0  0  0
    7.7428   -5.0030   24.4699 H   0  0  0  0  0  0  0  0  0  0  0  0
    5.8226   -5.9686   24.3334 C   0  0  0  0  0  0  0  0  0  0  0  0
    5.8335   -6.2782   25.3777 H   0  0  0  0  0  0  0  0  0  0  0  0
    4.7390   -6.3002   23.4981 C   0  0  0  0  0  0  0  0  0  0  0  0
    3.5098   -7.0020   24.0574 C   0  0  0  0  0  0  0  0  0  0  0  0
    2.6251   -7.3631   23.1067 F   0  0  0  0  0  0  0  0  0  0  0  0
    3.8303   -8.1281   24.7273 F   0  0  0  0  0  0  0  0  0  0  0  0
    2.8373   -6.2121   24.9204 F   0  0  0  0  0  0  0  0  0  0  0  0
    4.7950   -5.9500   22.1416 C   0  0  0  0  0  0  0  0  0  0  0  0
    3.9793   -6.2453   21.4903 H   0  0  0  0  0  0  0  0  0  0  0  0
    5.8937   -5.2563   21.6376 C   0  0  0  0  0  0  0  0  0  0  0  0
    5.9278   -5.0211   20.5783 H   0  0  0  0  0  0  0  0  0  0  0  0
    8.5151   -1.8208   23.1010 C   0  0  0  0  0  0  0  0  0  0  0  0
    9.0727   -2.3079   24.0620 O   0  0  0  0  0  0  0  0  0  0  0  0
    8.3963   -0.4541   23.0381 N   0  0  0  0  0  0  0  0  0  0  0  0
    8.6386    0.0590   23.8627 H   0  0  0  0  0  0  0  0  0  0  0  0
    7.6301    0.2584   22.1692 C   0  0  0  0  0  0  0  0  0  0  0  0
    7.3764    1.4168   22.4036 O   0  0  0  0  0  0  0  0  0  0  0  0
    5.4311    0.9596   20.1025 C   0  0  0  0  0  0  0  0  0  0  0  0
    5.0458    1.0967   21.1115 H   0  0  0  0  0  0  0  0  0  0  0  0
    4.7931    1.4952   18.9780 C   0  0  0  0  0  0  0  0  0  0  0  0
    3.8537    2.0311   19.0724 H   0  0  0  0  0  0  0  0  0  0  0  0
  1  2  1  0
  2  3  2  0
  3  4  1  0
  4  5  1  0
  4  6  2  0
  6  7  1  0
  7  8  1  0
  8  9  1  0
  8 10  2  0
 10 11  1  0
 11 12  1  0
 11 13  1  0
 11 14  1  0
 14 15  2  0
 15 16  1  0
 15 17  1  0
 17 18  1  0
 17 19  2  0
 19 20  1  0
 20 21  1  0
 20 22  1  0
 20 23  1  0
 19 24  1  0
 24 25  1  0
 24 26  2  0
 26 27  1  0
 10 28  1  0
 28 29  2  0
 28 30  1  0
 30 31  1  0
 30 32  1  0
 32 33  2  0
  6 34  1  0
 34 35  1  0
 34 36  2  0
 36 37  1  0
 36  2  1  0
 32  7  1  0
 26 14  1  0
M  END
>  <cnnaffinity>  (1) 
-4.994

>  <filename>  (1) 
O=c1[nH]c(=O)n(-c2cccnc2)cc1Cc1ccc(C(F)(F)F)cc1

$$$$
