
     RDKit          3D

 39 41  0  0  0  0  0  0  0  0999 V2000
    4.9164    1.7813   16.9938 H   0  0  0  0  0  0  0  0  0  0  0  0
    5.4018    1.2949   17.8377 C   0  0  0  0  0  0  0  0  0  0  0  0
    6.5649    0.6758   17.5790 N   0  0  0  0  0  0  0  0  0  0  0  0
    7.1754    0.0621   18.5995 C   0  0  0  0  0  0  0  0  0  0  0  0
    8.1147   -0.4353   18.3708 H   0  0  0  0  0  0  0  0  0  0  0  0
    6.6587    0.0028   19.9070 C   0  0  0  0  0  0  0  0  0  0  0  0
    7.3474   -0.6945   20.9495 N   0  0  0  0  0  0  0  0  0  0  0  0
    6.5646   -1.4306   21.8055 N   0  0  0  0  0  0  0  0  0  0  0  0
    7.1462   -2.0953   22.7632 C   0  0  0  0  0  0  0  0  0  0  0  0
    6.2667   -2.8638   23.7154 C   0  0  0  0  0  0  0  0  0  0  0  0
    6.8094   -3.7510   24.0595 H   0  0  0  0  0  0  0  0  0  0  0  0
    5.3659   -3.1924   23.1865 H   0  0  0  0  0  0  0  0  0  0  0  0
    5.8861   -2.0251   24.9449 C   0  0  0  0  0  0  0  0  0  0  0  0
    6.7877   -1.6977   25.4779 H   0  0  0  0  0  0  0  0  0  0  0  0
    5.4031   -1.0971   24.6296 H   0  0  0  0  0  0  0  0  0  0  0  0
    4.9636   -2.7746   25.9075 C   0  0  0  0  0  0  0  0  0  0  0  0
    4.0698   -3.1115   25.3696 H   0  0  0  0  0  0  0  0  0  0  0  0
    5.4788   -3.6805   26.2576 H   0  0  0  0  0  0  0  0  0  0  0  0
    4.5504   -1.9113   27.0755 C   0  0  0  0  0  0  0  0  0  0  0  0
    3.4280   -1.0801   27.0118 C   0  0  0  0  0  0  0  0  0  0  0  0
    2.8237   -1.0885   26.1092 H   0  0  0  0  0  0  0  0  0  0  0  0
    3.1008   -0.2497   28.0865 C   0  0  0  0  0  0  0  0  0  0  0  0
    2.2197    0.3794   28.0218 H   0  0  0  0  0  0  0  0  0  0  0  0
    3.8998   -0.2330   29.2373 C   0  0  0  0  0  0  0  0  0  0  0  0
    3.6382    0.4095   30.0735 H   0  0  0  0  0  0  0  0  0  0  0  0
    5.0392   -1.0423   29.3061 C   0  0  0  0  0  0  0  0  0  0  0  0
    5.6708   -1.0341   30.1944 H   0  0  0  0  0  0  0  0  0  0  0  0
    5.3515   -1.8619   28.2173 C   0  0  0  0  0  0  0  0  0  0  0  0
    6.2284   -2.4850   28.1751 H   0  0  0  0  0  0  0  0  0  0  0  0
    8.6233   -2.0549   23.0480 C   0  0  0  0  0  0  0  0  0  0  0  0
    9.1531   -2.6496   23.9795 O   0  0  0  0  0  0  0  0  0  0  0  0
    9.3647   -1.2375   22.1068 C   0  0  0  0  0  0  0  0  0  0  0  0
   10.4378   -1.1762   22.2468 H   0  0  0  0  0  0  0  0  0  0  0  0
    8.7117   -0.6027   21.1123 C   0  0  0  0  0  0  0  0  0  0  0  0
    9.2292    0.0384   20.3939 H   0  0  0  0  0  0  0  0  0  0  0  0
    5.4394    0.6451   20.1661 C   0  0  0  0  0  0  0  0  0  0  0  0
    5.0230    0.6091   21.1742 H   0  0  0  0  0  0  0  0  0  0  0  0
    4.8114    1.3120   19.1090 C   0  0  0  0  0  0  0  0  0  0  0  0
    3.8767    1.8428   19.2616 H   0  0  0  0  0  0  0  0  0  0  0  0
  1  2  1  0
  2  3  2  0
  3  4  1  0
  4  5  1  0
  4  6  2  0
  6  7  1  0
  7  8  1  0
  8  9  2  0
  9 10  1  0
 10 11  1  0
 10 12  1  0
 10 13  1  0
 13 14  1  0
 13 15  1  0
 13 16  1  0
 16 17  1  0
 16 18  1  0
 16 19  1  0
 19 20  2  0
 20 21  1  0
 20 22  1  0
 22 23  1  0
 22 24  2  0
 24 25  1  0
 24 26  1  0
 26 27  1  0
 26 28  2  0
 28 29  1  0
  9 30  1  0
 30 31  2  0
 30 32  1  0
 32 33  1  0
 32 34  2  0
 34 35  1  0
  6 36  1  0
 36 37  1  0
 36 38  2  0
 38 39  1  0
 38  2  1  0
 34  7  1  0
 28 19  1  0
M  END
>  <cnnaffinity>  (1) 
-5.22935

>  <filename>  (1) 
O=c1ccn(-c2cccnc2)nc1CCCc1ccccc1

$$$$
