
     RDKit          3D

 34 37  0  0  0  0  0  0  0  0999 V2000
    4.9693    1.8918   16.9473 H   0  0  0  0  0  0  0  0  0  0  0  0
    5.4106    1.3489   17.7778 C   0  0  0  0  0  0  0  0  0  0  0  0
    6.5692    0.7183   17.5194 N   0  0  0  0  0  0  0  0  0  0  0  0
    7.1297    0.0379   18.5257 C   0  0  0  0  0  0  0  0  0  0  0  0
    8.0884   -0.4403   18.3227 H   0  0  0  0  0  0  0  0  0  0  0  0
    6.5485   -0.0896   19.8052 C   0  0  0  0  0  0  0  0  0  0  0  0
    7.2176   -0.8211   20.8534 N   0  0  0  0  0  0  0  0  0  0  0  0
    8.4830   -0.3926   21.1851 C   0  0  0  0  0  0  0  0  0  0  0  0
    8.8323    0.4698   20.6225 H   0  0  0  0  0  0  0  0  0  0  0  0
    9.2561   -0.9832   22.1457 C   0  0  0  0  0  0  0  0  0  0  0  0
   10.6248   -0.4547   22.3855 C   0  0  0  0  0  0  0  0  0  0  0  0
   11.7641   -1.2798   22.3662 C   0  0  0  0  0  0  0  0  0  0  0  0
   11.6251   -2.3458   22.1968 H   0  0  0  0  0  0  0  0  0  0  0  0
   13.0648   -0.7519   22.5617 C   0  0  0  0  0  0  0  0  0  0  0  0
   13.9699   -1.3526   22.6002 H   0  0  0  0  0  0  0  0  0  0  0  0
   13.1571    0.6138   22.7552 C   0  0  0  0  0  0  0  0  0  0  0  0
   12.0267    1.4374   22.7474 C   0  0  0  0  0  0  0  0  0  0  0  0
   10.7596    0.9422   22.5905 C   0  0  0  0  0  0  0  0  0  0  0  0
    9.8936    1.6020   22.6228 H   0  0  0  0  0  0  0  0  0  0  0  0
   12.3942    2.7390   22.8848 O   0  0  0  0  0  0  0  0  0  0  0  0
   13.8128    2.7321   22.9741 C   0  0  0  0  0  0  0  0  0  0  0  0
   14.2395    3.2983   22.1398 H   0  0  0  0  0  0  0  0  0  0  0  0
   14.0906    3.2075   23.9149 H   0  0  0  0  0  0  0  0  0  0  0  0
   14.2744    1.3774   22.9443 O   0  0  0  0  0  0  0  0  0  0  0  0
    8.6662   -2.0411   22.9123 C   0  0  0  0  0  0  0  0  0  0  0  0
    9.2353   -2.4891   23.7304 H   0  0  0  0  0  0  0  0  0  0  0  0
    7.3956   -2.4571   22.6474 C   0  0  0  0  0  0  0  0  0  0  0  0
    6.9004   -3.2520   23.1900 H   0  0  0  0  0  0  0  0  0  0  0  0
    6.5808   -1.9022   21.5690 C   0  0  0  0  0  0  0  0  0  0  0  0
    5.4821   -2.3351   21.2719 O   0  0  0  0  0  0  0  0  0  0  0  0
    5.3676    0.6078   20.0725 C   0  0  0  0  0  0  0  0  0  0  0  0
    4.9485    0.5854   21.0778 H   0  0  0  0  0  0  0  0  0  0  0  0
    4.7844    1.3344   19.0289 C   0  0  0  0  0  0  0  0  0  0  0  0
    3.8672    1.8928   19.1811 H   0  0  0  0  0  0  0  0  0  0  0  0
  1  2  1  0
  2  3  2  0
  3  4  1  0
  4  5  1  0
  4  6  2  0
  6  7  1  0
  7  8  1  0
  8  9  1  0
  8 10  2  0
 10 11  1  0
 11 12  2  0
 12 13  1  0
 12 14  1  0
 14 15  1  0
 14 16  2  0
 16 17  1  0
 17 18  2  0
 18 19  1  0
 17 20  1  0
 20 21  1  0
 21 22  1  0
 21 23  1  0
 21 24  1  0
 10 25  1  0
 25 26  1  0
 25 27  2  0
 27 28  1  0
 27 29  1  0
 29 30  2  0
  6 31  1  0
 31 32  1  0
 31 33  2  0
 33 34  1  0
 33  2  1  0
 29  7  1  0
 18 11  1  0
 24 16  1  0
M  END
>  <cnnaffinity>  (1) 
-5.7373

>  <filename>  (1) 
O=c1ccc(-c2ccc3c(c2)OCO3)cn1-c1cccnc1

$$$$
