
     RDKit          3D

 29 31  0  0  0  0  0  0  0  0999 V2000
    4.9962    1.7981   16.9656 H   0  0  0  0  0  0  0  0  0  0  0  0
    5.4855    1.3160   17.8085 C   0  0  0  0  0  0  0  0  0  0  0  0
    6.6789    0.7570   17.5536 N   0  0  0  0  0  0  0  0  0  0  0  0
    7.3006    0.1497   18.5696 C   0  0  0  0  0  0  0  0  0  0  0  0
    8.2823   -0.2750   18.3639 H   0  0  0  0  0  0  0  0  0  0  0  0
    6.7395    0.0152   19.8517 C   0  0  0  0  0  0  0  0  0  0  0  0
    7.4750   -0.7811   20.8769 C   0  0  0  0  0  0  0  0  0  0  0  0
    8.7454   -0.4915   20.9857 N   0  0  0  0  0  0  0  0  0  0  0  0
    9.4870   -1.1226   21.9506 N   0  0  0  0  0  0  0  0  0  0  0  0
   10.8796   -0.8012   21.9704 C   0  0  0  0  0  0  0  0  0  0  0  0
   11.2885    0.5424   21.9565 C   0  0  0  0  0  0  0  0  0  0  0  0
   10.5371    1.3245   21.9225 H   0  0  0  0  0  0  0  0  0  0  0  0
   12.5753    0.9038   22.0668 N   0  0  0  0  0  0  0  0  0  0  0  0
   13.5131   -0.0561   22.0956 C   0  0  0  0  0  0  0  0  0  0  0  0
   14.5527    0.2443   22.1853 H   0  0  0  0  0  0  0  0  0  0  0  0
   13.1856   -1.4088   21.9839 C   0  0  0  0  0  0  0  0  0  0  0  0
   14.1622   -2.3200   21.9171 F   0  0  0  0  0  0  0  0  0  0  0  0
   11.8542   -1.8089   21.9787 C   0  0  0  0  0  0  0  0  0  0  0  0
   11.5791   -2.8536   21.9771 H   0  0  0  0  0  0  0  0  0  0  0  0
    8.9102   -1.9277   22.9095 C   0  0  0  0  0  0  0  0  0  0  0  0
    9.5828   -2.2590   23.7051 H   0  0  0  0  0  0  0  0  0  0  0  0
    7.6127   -2.2752   22.8528 C   0  0  0  0  0  0  0  0  0  0  0  0
    7.1360   -2.8977   23.5984 H   0  0  0  0  0  0  0  0  0  0  0  0
    6.7915   -1.8521   21.7219 C   0  0  0  0  0  0  0  0  0  0  0  0
    5.6824   -2.3210   21.5031 O   0  0  0  0  0  0  0  0  0  0  0  0
    5.5095    0.6372   20.1112 C   0  0  0  0  0  0  0  0  0  0  0  0
    5.0707    0.5967   21.1093 H   0  0  0  0  0  0  0  0  0  0  0  0
    4.8723    1.2985   19.0640 C   0  0  0  0  0  0  0  0  0  0  0  0
    3.9269    1.8064   19.2077 H   0  0  0  0  0  0  0  0  0  0  0  0
  1  2  1  0
  2  3  2  0
  3  4  1  0
  4  5  1  0
  4  6  2  0
  6  7  1  0
  7  8  2  0
  8  9  1  0
  9 10  1  0
 10 11  2  0
 11 12  1  0
 11 13  1  0
 13 14  2  0
 14 15  1  0
 14 16  1  0
 16 17  1  0
 16 18  2  0
 18 19  1  0
  9 20  1  0
 20 21  1  0
 20 22  2  0
 22 23  1  0
 22 24  1  0
 24 25  2  0
  6 26  1  0
 26 27  1  0
 26 28  2  0
 28 29  1  0
 28  2  1  0
 24  7  1  0
 18 10  1  0
M  END
>  <cnnaffinity>  (1) 
-5.60413

>  <filename>  (1) 
O=c1ccn(-c2cncc(F)c2)nc1-c1cccnc1

$$$$
