
     RDKit          3D

 30 32  0  0  0  0  0  0  0  0999 V2000
    4.9309    1.7871   16.9900 H   0  0  0  0  0  0  0  0  0  0  0  0
    5.3976    1.2938   17.8396 C   0  0  0  0  0  0  0  0  0  0  0  0
    6.5543    0.6655   17.5866 N   0  0  0  0  0  0  0  0  0  0  0  0
    7.1484    0.0422   18.6060 C   0  0  0  0  0  0  0  0  0  0  0  0
    8.1124   -0.4139   18.3863 H   0  0  0  0  0  0  0  0  0  0  0  0
    6.6184   -0.0160   19.9058 C   0  0  0  0  0  0  0  0  0  0  0  0
    7.3181   -0.7340   20.9828 C   0  0  0  0  0  0  0  0  0  0  0  0
    6.5929   -1.5070   21.7676 N   0  0  0  0  0  0  0  0  0  0  0  0
    7.1846   -2.1967   22.8078 C   0  0  0  0  0  0  0  0  0  0  0  0
    6.2959   -3.0454   23.6706 C   0  0  0  0  0  0  0  0  0  0  0  0
    5.1131   -3.6006   23.1499 C   0  0  0  0  0  0  0  0  0  0  0  0
    4.8466   -3.3757   22.1234 H   0  0  0  0  0  0  0  0  0  0  0  0
    4.2858   -4.3965   23.9381 C   0  0  0  0  0  0  0  0  0  0  0  0
    3.3667   -4.8146   23.5410 H   0  0  0  0  0  0  0  0  0  0  0  0
    4.6207   -4.6582   25.2727 C   0  0  0  0  0  0  0  0  0  0  0  0
    3.5613   -5.6509   26.2115 Cl  0  0  0  0  0  0  0  0  0  0  0  0
    5.7956   -4.1091   25.8098 C   0  0  0  0  0  0  0  0  0  0  0  0
    6.2636   -4.3954   27.4524 Cl  0  0  0  0  0  0  0  0  0  0  0  0
    6.6223   -3.3111   25.0135 C   0  0  0  0  0  0  0  0  0  0  0  0
    7.5051   -2.8890   25.4816 H   0  0  0  0  0  0  0  0  0  0  0  0
    8.5363   -2.1254   23.0296 C   0  0  0  0  0  0  0  0  0  0  0  0
    9.0481   -2.6866   23.8011 H   0  0  0  0  0  0  0  0  0  0  0  0
    9.3054   -1.3275   22.2171 N   0  0  0  0  0  0  0  0  0  0  0  0
   10.3045   -1.1678   22.3020 H   0  0  0  0  0  0  0  0  0  0  0  0
    8.8082   -0.5604   21.1759 C   0  0  0  0  0  0  0  0  0  0  0  0
    9.6104    0.1325   20.5685 O   0  0  0  0  0  0  0  0  0  0  0  0
    5.4056    0.6460   20.1551 C   0  0  0  0  0  0  0  0  0  0  0  0
    4.9750    0.6349   21.1604 H   0  0  0  0  0  0  0  0  0  0  0  0
    4.7973    1.3204   19.1028 C   0  0  0  0  0  0  0  0  0  0  0  0
    3.8677    1.8563   19.2455 H   0  0  0  0  0  0  0  0  0  0  0  0
  1  2  1  0
  2  3  2  0
  3  4  1  0
  4  5  1  0
  4  6  2  0
  6  7  1  0
  7  8  2  0
  8  9  1  0
  9 10  1  0
 10 11  2  0
 11 12  1  0
 11 13  1  0
 13 14  1  0
 13 15  2  0
 15 16  1  0
 15 17  1  0
 17 18  1  0
 17 19  2  0
 19 20  1  0
  9 21  2  0
 21 22  1  0
 21 23  1  0
 23 24  1  0
 23 25  1  0
 25 26  2  0
  6 27  1  0
 27 28  1  0
 27 29  2  0
 29 30  1  0
 29  2  1  0
 25  7  1  0
 19 10  1  0
M  END
>  <cnnaffinity>  (1) 
-5.60533

>  <filename>  (1) 
O=c1[nH]cc(-c2ccc(Cl)c(Cl)c2)nc1-c1cccnc1

$$$$
