
     RDKit          3D

 29 31  0  0  0  0  0  0  0  0999 V2000
    5.6770   -6.6180   24.8431 H   0  0  0  0  0  0  0  0  0  0  0  0
    6.1724   -5.8498   24.2590 C   0  0  0  0  0  0  0  0  0  0  0  0
    5.9493   -4.5199   24.5488 N   0  0  0  0  0  0  0  0  0  0  0  0
    6.6109   -3.7922   23.7069 C   0  0  0  0  0  0  0  0  0  0  0  0
    6.5731   -2.4249   23.7394 N   0  0  0  0  0  0  0  0  0  0  0  0
    6.2276   -2.0539   24.6129 H   0  0  0  0  0  0  0  0  0  0  0  0
    7.4139   -1.6766   22.9153 N   0  0  0  0  0  0  0  0  0  0  0  0
    6.7970   -1.1473   21.8018 C   0  0  0  0  0  0  0  0  0  0  0  0
    5.7251   -1.3090   21.7877 H   0  0  0  0  0  0  0  0  0  0  0  0
    7.4771   -0.4785   20.8244 C   0  0  0  0  0  0  0  0  0  0  0  0
    6.7246    0.1620   19.7057 C   0  0  0  0  0  0  0  0  0  0  0  0
    7.1888    0.1718   18.3746 C   0  0  0  0  0  0  0  0  0  0  0  0
    8.1108   -0.3457   18.1150 H   0  0  0  0  0  0  0  0  0  0  0  0
    6.5554    0.7577   17.3484 N   0  0  0  0  0  0  0  0  0  0  0  0
    5.3950    1.3782   17.6144 C   0  0  0  0  0  0  0  0  0  0  0  0
    4.9080    1.8553   16.7667 H   0  0  0  0  0  0  0  0  0  0  0  0
    4.8147    1.4091   18.8875 C   0  0  0  0  0  0  0  0  0  0  0  0
    3.8585    1.9037   19.0353 H   0  0  0  0  0  0  0  0  0  0  0  0
    5.4873    0.7917   19.9434 C   0  0  0  0  0  0  0  0  0  0  0  0
    5.0697    0.8049   20.9513 H   0  0  0  0  0  0  0  0  0  0  0  0
    8.8946   -0.3616   20.9642 C   0  0  0  0  0  0  0  0  0  0  0  0
    9.4410    0.2000   20.2100 H   0  0  0  0  0  0  0  0  0  0  0  0
    9.5405   -0.8599   22.0595 C   0  0  0  0  0  0  0  0  0  0  0  0
   10.6025   -0.7563   22.2338 H   0  0  0  0  0  0  0  0  0  0  0  0
    8.8443   -1.5353   23.1468 C   0  0  0  0  0  0  0  0  0  0  0  0
    9.3839   -1.9509   24.1507 O   0  0  0  0  0  0  0  0  0  0  0  0
    7.5536   -4.6375   22.5067 S   0  0  0  0  0  0  0  0  0  0  0  0
    7.0067   -6.1156   23.2241 C   0  0  0  0  0  0  0  0  0  0  0  0
    7.3643   -7.0710   22.8708 H   0  0  0  0  0  0  0  0  0  0  0  0
  1  2  1  0
  2  3  1  0
  3  4  2  0
  4  5  1  0
  5  6  1  0
  5  7  1  0
  7  8  1  0
  8  9  1  0
  8 10  2  0
 10 11  1  0
 11 12  2  0
 12 13  1  0
 12 14  1  0
 14 15  2  0
 15 16  1  0
 15 17  1  0
 17 18  1  0
 17 19  2  0
 19 20  1  0
 10 21  1  0
 21 22  1  0
 21 23  2  0
 23 24  1  0
 23 25  1  0
 25 26  2  0
  4 27  1  0
 27 28  1  0
 28 29  1  0
 28  2  2  0
 25  7  1  0
 19 11  1  0
M  END
>  <cnnaffinity>  (1) 
-5.19318

>  <filename>  (1) 
O=c1ccc(-c2cccnc2)cn1Nc1nccs1

$$$$
