
     RDKit          3D

 33 35  0  0  0  0  0  0  0  0999 V2000
   14.1813    1.7139   22.6833 H   0  0  0  0  0  0  0  0  0  0  0  0
   13.2212    1.7783   22.7550 O   0  0  0  0  0  0  0  0  0  0  0  0
   12.7551    0.5403   22.4906 C   0  0  0  0  0  0  0  0  0  0  0  0
   13.6489   -0.5062   22.2946 C   0  0  0  0  0  0  0  0  0  0  0  0
   14.7184   -0.3323   22.3246 H   0  0  0  0  0  0  0  0  0  0  0  0
   13.1414   -1.7811   22.0625 C   0  0  0  0  0  0  0  0  0  0  0  0
   14.0303   -2.7651   21.7974 O   0  0  0  0  0  0  0  0  0  0  0  0
   13.5061   -3.5494   21.5544 H   0  0  0  0  0  0  0  0  0  0  0  0
   11.7689   -2.0337   22.1421 C   0  0  0  0  0  0  0  0  0  0  0  0
   11.3818   -3.0396   22.2202 H   0  0  0  0  0  0  0  0  0  0  0  0
   10.8933   -0.9543   22.2317 C   0  0  0  0  0  0  0  0  0  0  0  0
    9.4781   -1.1770   22.1149 N   0  0  0  0  0  0  0  0  0  0  0  0
    8.7595   -0.5491   21.1155 C   0  0  0  0  0  0  0  0  0  0  0  0
    9.3345    0.0964   20.4603 H   0  0  0  0  0  0  0  0  0  0  0  0
    7.4120   -0.7054   20.9559 C   0  0  0  0  0  0  0  0  0  0  0  0
    6.6766    0.0042   19.8686 C   0  0  0  0  0  0  0  0  0  0  0  0
    7.1783    0.0635   18.5518 C   0  0  0  0  0  0  0  0  0  0  0  0
    8.1111   -0.4380   18.3020 H   0  0  0  0  0  0  0  0  0  0  0  0
    6.5756    0.6878   17.5296 N   0  0  0  0  0  0  0  0  0  0  0  0
    5.4175    1.3147   17.7878 C   0  0  0  0  0  0  0  0  0  0  0  0
    4.9470    1.8268   16.9474 H   0  0  0  0  0  0  0  0  0  0  0  0
    4.8222    1.3221   19.0528 C   0  0  0  0  0  0  0  0  0  0  0  0
    3.8863    1.8484   19.1978 H   0  0  0  0  0  0  0  0  0  0  0  0
    5.4570    0.6588   20.1057 C   0  0  0  0  0  0  0  0  0  0  0  0
    5.0288    0.6704   21.1086 H   0  0  0  0  0  0  0  0  0  0  0  0
    6.7322   -1.5586   21.8820 C   0  0  0  0  0  0  0  0  0  0  0  0
    5.6581   -1.7028   21.7833 H   0  0  0  0  0  0  0  0  0  0  0  0
    7.4182   -2.2059   22.8614 C   0  0  0  0  0  0  0  0  0  0  0  0
    6.9546   -2.8538   23.5878 H   0  0  0  0  0  0  0  0  0  0  0  0
    8.8580   -2.0818   23.0275 C   0  0  0  0  0  0  0  0  0  0  0  0
    9.4900   -2.6969   23.8690 O   0  0  0  0  0  0  0  0  0  0  0  0
   11.3721    0.3424   22.4083 C   0  0  0  0  0  0  0  0  0  0  0  0
   10.6776    1.1621   22.5156 H   0  0  0  0  0  0  0  0  0  0  0  0
  1  2  1  0
  2  3  1  0
  3  4  2  0
  4  5  1  0
  4  6  1  0
  6  7  1  0
  7  8  1  0
  6  9  2  0
  9 10  1  0
  9 11  1  0
 11 12  1  0
 12 13  1  0
 13 14  1  0
 13 15  2  0
 15 16  1  0
 16 17  2  0
 17 18  1  0
 17 19  1  0
 19 20  2  0
 20 21  1  0
 20 22  1  0
 22 23  1  0
 22 24  2  0
 24 25  1  0
 15 26  1  0
 26 27  1  0
 26 28  2  0
 28 29  1  0
 28 30  1  0
 30 31  2  0
 11 32  2  0
 32 33  1  0
 32  3  1  0
 30 12  1  0
 24 16  1  0
M  END
>  <cnnaffinity>  (1) 
-5.89026

>  <filename>  (1) 
O=c1ccc(-c2cccnc2)cn1-c1cc(O)cc(O)c1

$$$$
