
     RDKit          3D

 27 29  0  0  0  0  0  0  0  0999 V2000
    4.9734    2.0439   16.7718 H   0  0  0  0  0  0  0  0  0  0  0  0
    5.3777    1.4666   17.6025 C   0  0  0  0  0  0  0  0  0  0  0  0
    6.5730    0.8839   17.3994 N   0  0  0  0  0  0  0  0  0  0  0  0
    7.1195    0.2067   18.4147 C   0  0  0  0  0  0  0  0  0  0  0  0
    8.1181   -0.1924   18.2472 H   0  0  0  0  0  0  0  0  0  0  0  0
    6.4623    0.0004   19.6421 C   0  0  0  0  0  0  0  0  0  0  0  0
    7.1231   -0.6974   20.7156 N   0  0  0  0  0  0  0  0  0  0  0  0
    8.3602   -0.2033   21.0085 N   0  0  0  0  0  0  0  0  0  0  0  0
    9.0112   -0.7108   22.0283 C   0  0  0  0  0  0  0  0  0  0  0  0
   10.3756   -0.1901   22.2610 C   0  0  0  0  0  0  0  0  0  0  0  0
   10.8141    1.3942   21.7403 S   0  0  0  0  0  0  0  0  0  0  0  0
   12.4050    1.2115   22.3728 C   0  0  0  0  0  0  0  0  0  0  0  0
   13.0890    2.0516   22.3435 H   0  0  0  0  0  0  0  0  0  0  0  0
   12.6085   -0.0191   22.9241 C   0  0  0  0  0  0  0  0  0  0  0  0
   13.5598   -0.3369   23.3553 H   0  0  0  0  0  0  0  0  0  0  0  0
   11.4323   -0.8251   22.8507 C   0  0  0  0  0  0  0  0  0  0  0  0
   11.3410   -1.8478   23.1915 H   0  0  0  0  0  0  0  0  0  0  0  0
    8.4440   -1.7422   22.8673 C   0  0  0  0  0  0  0  0  0  0  0  0
    8.9927   -2.0645   23.7471 H   0  0  0  0  0  0  0  0  0  0  0  0
    7.2473   -2.2926   22.5333 C   0  0  0  0  0  0  0  0  0  0  0  0
    6.7679   -3.1150   23.0572 H   0  0  0  0  0  0  0  0  0  0  0  0
    6.4994   -1.8308   21.3678 C   0  0  0  0  0  0  0  0  0  0  0  0
    5.4826   -2.3579   20.9693 O   0  0  0  0  0  0  0  0  0  0  0  0
    5.2169    0.5950   19.8445 C   0  0  0  0  0  0  0  0  0  0  0  0
    4.7111    0.4679   20.7996 H   0  0  0  0  0  0  0  0  0  0  0  0
    4.6762    1.3605   18.8050 C   0  0  0  0  0  0  0  0  0  0  0  0
    3.7411    1.8917   18.9295 H   0  0  0  0  0  0  0  0  0  0  0  0
  1  2  1  0
  2  3  2  0
  3  4  1  0
  4  5  1  0
  4  6  2  0
  6  7  1  0
  7  8  1  0
  8  9  2  0
  9 10  1  0
 10 11  1  0
 11 12  1  0
 12 13  1  0
 12 14  2  0
 14 15  1  0
 14 16  1  0
 16 17  1  0
  9 18  1  0
 18 19  1  0
 18 20  2  0
 20 21  1  0
 20 22  1  0
 22 23  2  0
  6 24  1  0
 24 25  1  0
 24 26  2  0
 26 27  1  0
 26  2  1  0
 22  7  1  0
 16 10  2  0
M  END
>  <cnnaffinity>  (1) 
-5.08903

>  <filename>  (1) 
O=c1ccc(-c2cccs2)nn1-c1cccnc1

$$$$
