
     RDKit          3D

 32 34  0  0  0  0  0  0  0  0999 V2000
    4.9606    1.7337   16.9537 H   0  0  0  0  0  0  0  0  0  0  0  0
    5.4262    1.3064   17.8393 C   0  0  0  0  0  0  0  0  0  0  0  0
    6.6308    0.7422   17.6580 N   0  0  0  0  0  0  0  0  0  0  0  0
    7.2352    0.2200   18.7281 C   0  0  0  0  0  0  0  0  0  0  0  0
    8.2309   -0.1772   18.5283 H   0  0  0  0  0  0  0  0  0  0  0  0
    6.6813    0.1968   20.0152 C   0  0  0  0  0  0  0  0  0  0  0  0
    7.4259   -0.4352   21.1398 C   0  0  0  0  0  0  0  0  0  0  0  0
    7.1247   -0.0213   22.3482 N   0  0  0  0  0  0  0  0  0  0  0  0
    7.7787   -0.5894   23.4265 N   0  0  0  0  0  0  0  0  0  0  0  0
    7.6047    0.0070   24.6963 C   0  0  0  0  0  0  0  0  0  0  0  0
    8.5998   -0.0911   25.5819 N   0  0  0  0  0  0  0  0  0  0  0  0
    8.4016    0.4152   26.7934 C   0  0  0  0  0  0  0  0  0  0  0  0
    9.2075    0.2753   27.5062 H   0  0  0  0  0  0  0  0  0  0  0  0
    7.2248    1.0553   27.1759 C   0  0  0  0  0  0  0  0  0  0  0  0
    7.0206    1.4664   28.5967 C   0  0  0  0  0  0  0  0  0  0  0  0
    6.1922    0.6207   29.2394 F   0  0  0  0  0  0  0  0  0  0  0  0
    6.4534    2.6835   28.6900 F   0  0  0  0  0  0  0  0  0  0  0  0
    8.1608    1.5099   29.3061 F   0  0  0  0  0  0  0  0  0  0  0  0
    6.2077    1.2254   26.2192 C   0  0  0  0  0  0  0  0  0  0  0  0
    5.2867    1.7553   26.4584 H   0  0  0  0  0  0  0  0  0  0  0  0
    6.4137    0.6924   24.9667 C   0  0  0  0  0  0  0  0  0  0  0  0
    5.6900    0.7734   24.1758 H   0  0  0  0  0  0  0  0  0  0  0  0
    8.4764   -1.8470   23.3682 C   0  0  0  0  0  0  0  0  0  0  0  0
    8.6652   -2.5567   24.3283 O   0  0  0  0  0  0  0  0  0  0  0  0
    8.8998   -2.1672   21.9957 C   0  0  0  0  0  0  0  0  0  0  0  0
    9.5900   -2.9999   21.9097 H   0  0  0  0  0  0  0  0  0  0  0  0
    8.4067   -1.4825   20.9270 C   0  0  0  0  0  0  0  0  0  0  0  0
    8.7121   -1.7204   19.9128 H   0  0  0  0  0  0  0  0  0  0  0  0
    5.4227    0.8025   20.1922 C   0  0  0  0  0  0  0  0  0  0  0  0
    4.9635    0.8539   21.1810 H   0  0  0  0  0  0  0  0  0  0  0  0
    4.7875    1.3571   19.0823 C   0  0  0  0  0  0  0  0  0  0  0  0
    3.8294    1.8599   19.1688 H   0  0  0  0  0  0  0  0  0  0  0  0
  1  2  1  0
  2  3  2  0
  3  4  1  0
  4  5  1  0
  4  6  2  0
  6  7  1  0
  7  8  2  0
  8  9  1  0
  9 10  1  0
 10 11  2  0
 11 12  1  0
 12 13  1  0
 12 14  2  0
 14 15  1  0
 15 16  1  0
 15 17  1  0
 15 18  1  0
 14 19  1  0
 19 20  1  0
 19 21  2  0
 21 22  1  0
  9 23  1  0
 23 24  2  0
 23 25  1  0
 25 26  1  0
 25 27  2  0
 27 28  1  0
  6 29  1  0
 29 30  1  0
 29 31  2  0
 31 32  1  0
 31  2  1  0
 27  7  1  0
 21 10  1  0
M  END
>  <cnnaffinity>  (1) 
-5.1819

>  <filename>  (1) 
O=c1ccc(-c2cccnc2)nn1-c1ccc(C(F)(F)F)cn1

$$$$
