
     RDKit          3D

 32 34  0  0  0  0  0  0  0  0999 V2000
   10.3463    2.6871   23.2030 H   0  0  0  0  0  0  0  0  0  0  0  0
    9.9797    1.8330   22.9384 O   0  0  0  0  0  0  0  0  0  0  0  0
   11.0023    0.9401   22.8927 C   0  0  0  0  0  0  0  0  0  0  0  0
   12.3055    1.3479   23.1916 C   0  0  0  0  0  0  0  0  0  0  0  0
   12.4567    2.3769   23.5145 H   0  0  0  0  0  0  0  0  0  0  0  0
   13.3671    0.4440   23.0918 C   0  0  0  0  0  0  0  0  0  0  0  0
   14.3694    0.7643   23.3768 H   0  0  0  0  0  0  0  0  0  0  0  0
   13.1184   -0.8665   22.6668 C   0  0  0  0  0  0  0  0  0  0  0  0
   13.9452   -1.5554   22.5173 H   0  0  0  0  0  0  0  0  0  0  0  0
   11.8005   -1.3000   22.4732 C   0  0  0  0  0  0  0  0  0  0  0  0
   11.5700   -2.3499   22.2841 H   0  0  0  0  0  0  0  0  0  0  0  0
   10.7171   -0.4086   22.5645 C   0  0  0  0  0  0  0  0  0  0  0  0
    9.3395   -0.8870   22.2652 C   0  0  0  0  0  0  0  0  0  0  0  0
    8.6110   -0.2897   21.2901 C   0  0  0  0  0  0  0  0  0  0  0  0
    9.0021    0.5504   20.7241 H   0  0  0  0  0  0  0  0  0  0  0  0
    7.3399   -0.7075   20.9265 N   0  0  0  0  0  0  0  0  0  0  0  0
    6.6491   -0.0011   19.8646 C   0  0  0  0  0  0  0  0  0  0  0  0
    7.1750    0.0734   18.5594 C   0  0  0  0  0  0  0  0  0  0  0  0
    8.1229   -0.4100   18.3238 H   0  0  0  0  0  0  0  0  0  0  0  0
    6.5591    0.7027   17.5505 N   0  0  0  0  0  0  0  0  0  0  0  0
    5.3947    1.3173   17.8134 C   0  0  0  0  0  0  0  0  0  0  0  0
    4.9208    1.8172   16.9717 H   0  0  0  0  0  0  0  0  0  0  0  0
    4.7982    1.3269   19.0790 C   0  0  0  0  0  0  0  0  0  0  0  0
    3.8592    1.8556   19.2290 H   0  0  0  0  0  0  0  0  0  0  0  0
    5.4374    0.6489   20.1245 C   0  0  0  0  0  0  0  0  0  0  0  0
    5.0164    0.6088   21.1274 H   0  0  0  0  0  0  0  0  0  0  0  0
    6.7093   -1.7770   21.6086 C   0  0  0  0  0  0  0  0  0  0  0  0
    5.6128   -2.2167   21.3540 O   0  0  0  0  0  0  0  0  0  0  0  0
    7.4515   -2.3298   22.5988 N   0  0  0  0  0  0  0  0  0  0  0  0
    7.0106   -3.0803   23.0883 H   0  0  0  0  0  0  0  0  0  0  0  0
    8.7365   -2.0298   22.9922 C   0  0  0  0  0  0  0  0  0  0  0  0
    9.2082   -2.7156   23.8721 O   0  0  0  0  0  0  0  0  0  0  0  0
  1  2  1  0
  2  3  1  0
  3  4  2  0
  4  5  1  0
  4  6  1  0
  6  7  1  0
  6  8  2  0
  8  9  1  0
  8 10  1  0
 10 11  1  0
 10 12  2  0
 12 13  1  0
 13 14  2  0
 14 15  1  0
 14 16  1  0
 16 17  1  0
 17 18  2  0
 18 19  1  0
 18 20  1  0
 20 21  2  0
 21 22  1  0
 21 23  1  0
 23 24  1  0
 23 25  2  0
 25 26  1  0
 16 27  1  0
 27 28  2  0
 27 29  1  0
 29 30  1  0
 29 31  1  0
 31 32  2  0
 12  3  1  0
 31 13  1  0
 25 17  1  0
M  END
>  <cnnaffinity>  (1) 
-5.58702

>  <filename>  (1) 
O=c1[nH]c(=O)n(-c2cccnc2)cc1-c1ccccc1O

$$$$
