
     RDKit          3D

 33 35  0  0  0  0  0  0  0  0999 V2000
    4.9915    1.8762   16.7720 H   0  0  0  0  0  0  0  0  0  0  0  0
    5.4155    1.4023   17.6539 C   0  0  0  0  0  0  0  0  0  0  0  0
    6.5979    0.7862   17.4905 N   0  0  0  0  0  0  0  0  0  0  0  0
    7.1418    0.2244   18.5733 C   0  0  0  0  0  0  0  0  0  0  0  0
    8.1033   -0.2584   18.4123 H   0  0  0  0  0  0  0  0  0  0  0  0
    6.5605    0.2185   19.8540 C   0  0  0  0  0  0  0  0  0  0  0  0
    7.2121   -0.5391   20.9155 C   0  0  0  0  0  0  0  0  0  0  0  0
    8.1542   -1.5088   20.8199 C   0  0  0  0  0  0  0  0  0  0  0  0
    8.7554   -1.8219   19.9869 H   0  0  0  0  0  0  0  0  0  0  0  0
    8.2523   -2.1433   22.0458 N   0  0  0  0  0  0  0  0  0  0  0  0
    9.1443   -3.2174   22.2910 N   0  0  0  0  0  0  0  0  0  0  0  0
    9.7532   -3.3107   21.4750 H   0  0  0  0  0  0  0  0  0  0  0  0
    9.9648   -2.9682   23.4928 C   0  0  0  0  0  0  0  0  0  0  0  0
    9.2919   -2.9724   24.3542 H   0  0  0  0  0  0  0  0  0  0  0  0
   10.6319   -3.8316   23.5904 H   0  0  0  0  0  0  0  0  0  0  0  0
   10.7296   -1.6513   23.5005 C   0  0  0  0  0  0  0  0  0  0  0  0
   10.6043   -0.7513   24.5749 C   0  0  0  0  0  0  0  0  0  0  0  0
    9.8611   -0.9159   25.3496 H   0  0  0  0  0  0  0  0  0  0  0  0
   11.4482    0.3629   24.6404 C   0  0  0  0  0  0  0  0  0  0  0  0
   11.4067    1.0233   25.5065 H   0  0  0  0  0  0  0  0  0  0  0  0
   12.3586    0.6576   23.7035 N   0  0  0  0  0  0  0  0  0  0  0  0
   12.4219   -0.1533   22.6385 C   0  0  0  0  0  0  0  0  0  0  0  0
   13.1522    0.1136   21.8761 H   0  0  0  0  0  0  0  0  0  0  0  0
   11.6496   -1.3111   22.4959 C   0  0  0  0  0  0  0  0  0  0  0  0
   11.7976   -1.9505   21.6298 H   0  0  0  0  0  0  0  0  0  0  0  0
    7.4334   -1.4790   22.9779 C   0  0  0  0  0  0  0  0  0  0  0  0
    7.3238   -1.6363   24.1814 O   0  0  0  0  0  0  0  0  0  0  0  0
    6.7773   -0.5272   22.2361 N   0  0  0  0  0  0  0  0  0  0  0  0
    6.3432    0.2149   22.7626 H   0  0  0  0  0  0  0  0  0  0  0  0
    5.3211    0.8689   19.9995 C   0  0  0  0  0  0  0  0  0  0  0  0
    4.8183    0.8879   20.9671 H   0  0  0  0  0  0  0  0  0  0  0  0
    4.7431    1.4657   18.8809 C   0  0  0  0  0  0  0  0  0  0  0  0
    3.7978    1.9947   18.9567 H   0  0  0  0  0  0  0  0  0  0  0  0
  1  2  1  0
  2  3  2  0
  3  4  1  0
  4  5  1  0
  4  6  2  0
  6  7  1  0
  7  8  2  0
  8  9  1  0
  8 10  1  0
 10 11  1  0
 11 12  1  0
 11 13  1  0
 13 14  1  0
 13 15  1  0
 13 16  1  0
 16 17  2  0
 17 18  1  0
 17 19  1  0
 19 20  1  0
 19 21  2  0
 21 22  1  0
 22 23  1  0
 22 24  2  0
 24 25  1  0
 10 26  1  0
 26 27  2  0
 26 28  1  0
 28 29  1  0
  6 30  1  0
 30 31  1  0
 30 32  2  0
 32 33  1  0
 32  2  1  0
 28  7  1  0
 24 16  1  0
M  END
>  <cnnaffinity>  (1) 
-5.19473

>  <filename>  (1) 
O=c1[nH]c(-c2cccnc2)cn1NCc1ccncc1

$$$$
