
     RDKit          3D

 18 19  0  0  0  0  0  0  0  0999 V2000
    4.9562    1.8469   17.0346 H   0  0  0  0  0  0  0  0  0  0  0  0
    5.4456    1.3067   17.8352 C   0  0  0  0  0  0  0  0  0  0  0  0
    6.6306    0.7087   17.5939 N   0  0  0  0  0  0  0  0  0  0  0  0
    7.2269    0.0804   18.6302 C   0  0  0  0  0  0  0  0  0  0  0  0
    8.1744   -0.4187   18.4440 H   0  0  0  0  0  0  0  0  0  0  0  0
    6.6662   -0.0009   19.9340 C   0  0  0  0  0  0  0  0  0  0  0  0
    7.2762   -0.6970   21.0060 N   0  0  0  0  0  0  0  0  0  0  0  0
    8.5196   -0.4642   21.5842 C   0  0  0  0  0  0  0  0  0  0  0  0
    9.9601    1.2314   21.3149 I   0  0  0  0  0  0  0  0  0  0  0  0
    8.7457   -1.4746   22.4760 C   0  0  0  0  0  0  0  0  0  0  0  0
    9.6481   -1.5525   23.0802 H   0  0  0  0  0  0  0  0  0  0  0  0
    7.6712   -2.3286   22.5081 O   0  0  0  0  0  0  0  0  0  0  0  0
    6.7493   -1.8139   21.6490 C   0  0  0  0  0  0  0  0  0  0  0  0
    5.6400   -2.2920   21.4082 O   0  0  0  0  0  0  0  0  0  0  0  0
    5.4248    0.6006   20.1523 C   0  0  0  0  0  0  0  0  0  0  0  0
    4.9645    0.5509   21.1417 H   0  0  0  0  0  0  0  0  0  0  0  0
    4.8201    1.2794   19.0908 C   0  0  0  0  0  0  0  0  0  0  0  0
    3.8744    1.7979   19.2308 H   0  0  0  0  0  0  0  0  0  0  0  0
  1  2  1  0
  2  3  2  0
  3  4  1  0
  4  5  1  0
  4  6  2  0
  6  7  1  0
  7  8  1  0
  8  9  1  0
  8 10  2  0
 10 11  1  0
 10 12  1  0
 12 13  1  0
 13 14  2  0
  6 15  1  0
 15 16  1  0
 15 17  2  0
 17 18  1  0
 17  2  1  0
 13  7  1  0
M  END
>  <cnnaffinity>  (1) 
-4.23717

>  <filename>  (1) 
O=c1occ(I)n1-c1cccnc1

$$$$
