
     RDKit          3D

 42 44  0  0  0  0  0  0  0  0999 V2000
    4.9190    1.8035   16.9784 H   0  0  0  0  0  0  0  0  0  0  0  0
    5.3848    1.3026   17.8254 C   0  0  0  0  0  0  0  0  0  0  0  0
    6.5404    0.6719   17.5611 N   0  0  0  0  0  0  0  0  0  0  0  0
    7.1539    0.0521   18.5738 C   0  0  0  0  0  0  0  0  0  0  0  0
    8.1140   -0.4121   18.3598 H   0  0  0  0  0  0  0  0  0  0  0  0
    6.6434    0.0018   19.8811 C   0  0  0  0  0  0  0  0  0  0  0  0
    7.3584   -0.6713   20.9327 N   0  0  0  0  0  0  0  0  0  0  0  0
    6.7418   -1.7328   21.5676 C   0  0  0  0  0  0  0  0  0  0  0  0
    5.7341   -1.9430   21.2240 H   0  0  0  0  0  0  0  0  0  0  0  0
    7.3510   -2.4507   22.5579 C   0  0  0  0  0  0  0  0  0  0  0  0
    6.6238   -3.5556   23.2880 C   0  0  0  0  0  0  0  0  0  0  0  0
    5.9233   -4.0852   22.6226 H   0  0  0  0  0  0  0  0  0  0  0  0
    7.3461   -4.3032   23.6433 H   0  0  0  0  0  0  0  0  0  0  0  0
    5.8320   -3.0373   24.5085 C   0  0  0  0  0  0  0  0  0  0  0  0
    5.1173   -2.2797   24.1958 H   0  0  0  0  0  0  0  0  0  0  0  0
    6.5170   -2.5162   25.1923 H   0  0  0  0  0  0  0  0  0  0  0  0
    5.0803   -4.0398   25.2453 N   0  0  0  0  0  0  0  0  0  0  0  0
    4.0073   -4.6682   24.4718 C   0  0  0  0  0  0  0  0  0  0  0  0
    4.3947   -5.3355   23.6739 H   0  0  0  0  0  0  0  0  0  0  0  0
    3.4324   -3.8816   23.9653 H   0  0  0  0  0  0  0  0  0  0  0  0
    3.0999   -5.4845   25.3940 C   0  0  0  0  0  0  0  0  0  0  0  0
    2.5929   -4.7963   26.0827 H   0  0  0  0  0  0  0  0  0  0  0  0
    2.3212   -5.9715   24.7961 H   0  0  0  0  0  0  0  0  0  0  0  0
    3.9146   -6.5223   26.1848 C   0  0  0  0  0  0  0  0  0  0  0  0
    4.2979   -7.2898   25.4934 H   0  0  0  0  0  0  0  0  0  0  0  0
    3.2794   -7.0481   26.9065 H   0  0  0  0  0  0  0  0  0  0  0  0
    5.0969   -5.8457   26.8975 C   0  0  0  0  0  0  0  0  0  0  0  0
    4.7307   -5.1778   27.6885 H   0  0  0  0  0  0  0  0  0  0  0  0
    5.7483   -6.5869   27.3729 H   0  0  0  0  0  0  0  0  0  0  0  0
    5.9252   -5.0212   25.9158 C   0  0  0  0  0  0  0  0  0  0  0  0
    6.4249   -5.7036   25.1975 H   0  0  0  0  0  0  0  0  0  0  0  0
    6.7205   -4.4770   26.4400 H   0  0  0  0  0  0  0  0  0  0  0  0
    8.6691   -2.0577   22.9618 C   0  0  0  0  0  0  0  0  0  0  0  0
    9.1517   -2.6121   23.7711 H   0  0  0  0  0  0  0  0  0  0  0  0
    9.3012   -1.0159   22.3579 C   0  0  0  0  0  0  0  0  0  0  0  0
   10.2995   -0.6830   22.6036 H   0  0  0  0  0  0  0  0  0  0  0  0
    8.6852   -0.2499   21.2842 C   0  0  0  0  0  0  0  0  0  0  0  0
    9.2428    0.6707   20.7076 O   0  0  0  0  0  0  0  0  0  0  0  0
    5.4284    0.6405   20.1450 C   0  0  0  0  0  0  0  0  0  0  0  0
    5.0341    0.6243   21.1645 H   0  0  0  0  0  0  0  0  0  0  0  0
    4.7968    1.3188   19.0950 C   0  0  0  0  0  0  0  0  0  0  0  0
    3.8681    1.8531   19.2462 H   0  0  0  0  0  0  0  0  0  0  0  0
  1  2  1  0
  2  3  2  0
  3  4  1  0
  4  5  1  0
  4  6  2  0
  6  7  1  0
  7  8  1  0
  8  9  1  0
  8 10  2  0
 10 11  1  0
 11 12  1  0
 11 13  1  0
 11 14  1  0
 14 15  1  0
 14 16  1  0
 14 17  1  0
 17 18  1  0
 18 19  1  0
 18 20  1  0
 18 21  1  0
 21 22  1  0
 21 23  1  0
 21 24  1  0
 24 25  1  0
 24 26  1  0
 24 27  1  0
 27 28  1  0
 27 29  1  0
 27 30  1  0
 30 31  1  0
 30 32  1  0
 10 33  1  0
 33 34  1  0
 33 35  2  0
 35 36  1  0
 35 37  1  0
 37 38  2  0
  6 39  1  0
 39 40  1  0
 39 41  2  0
 41 42  1  0
 41  2  1  0
 37  7  1  0
 30 17  1  0
M  END
>  <cnnaffinity>  (1) 
-5.36509

>  <filename>  (1) 
O=c1ccc(CCN2CCCCC2)cn1-c1cccnc1

$$$$
