
     RDKit          3D

 33 35  0  0  0  0  0  0  0  0999 V2000
    5.1792    1.9454   16.9555 H   0  0  0  0  0  0  0  0  0  0  0  0
    5.5885    1.4055   17.8068 C   0  0  0  0  0  0  0  0  0  0  0  0
    6.7672    0.7964   17.6022 N   0  0  0  0  0  0  0  0  0  0  0  0
    7.2805    0.1158   18.6330 C   0  0  0  0  0  0  0  0  0  0  0  0
    8.2469   -0.3621   18.4615 H   0  0  0  0  0  0  0  0  0  0  0  0
    6.6548   -0.0264   19.8898 C   0  0  0  0  0  0  0  0  0  0  0  0
    7.2946   -0.8631   20.9855 C   0  0  2  0  0  0  0  0  0  0  0  0
    8.1637   -1.3692   20.5609 H   0  0  0  0  0  0  0  0  0  0  0  0
    6.4136   -1.9882   21.5664 C   0  0  0  0  0  0  0  0  0  0  0  0
    5.7752   -2.8237   20.9670 O   0  0  0  0  0  0  0  0  0  0  0  0
    6.4806   -1.9194   22.9296 N   0  0  0  0  0  0  0  0  0  0  0  0
    5.7271   -2.4166   23.3797 H   0  0  0  0  0  0  0  0  0  0  0  0
    6.8990   -0.6022   23.3871 C   0  0  0  0  0  0  0  0  0  0  0  0
    6.0426    0.0741   23.5473 H   0  0  0  0  0  0  0  0  0  0  0  0
    7.4793   -0.6461   24.3145 H   0  0  0  0  0  0  0  0  0  0  0  0
    7.7681   -0.0883   22.2355 C   0  0  1  0  0  0  0  0  0  0  0  0
    7.6785    0.9972   22.1293 H   0  0  0  0  0  0  0  0  0  0  0  0
    9.1253   -0.4504   22.5248 O   0  0  0  0  0  0  0  0  0  0  0  0
   10.1635    0.4085   22.2995 C   0  0  0  0  0  0  0  0  0  0  0  0
   10.1696    1.3646   21.2741 C   0  0  0  0  0  0  0  0  0  0  0  0
    9.3087    1.4102   20.6143 H   0  0  0  0  0  0  0  0  0  0  0  0
   11.2688    2.2270   21.1453 C   0  0  0  0  0  0  0  0  0  0  0  0
   11.2617    3.0140   20.3925 H   0  0  0  0  0  0  0  0  0  0  0  0
   12.3533    2.1168   22.0162 C   0  0  0  0  0  0  0  0  0  0  0  0
   13.1841    2.8099   21.9513 H   0  0  0  0  0  0  0  0  0  0  0  0
   12.3679    1.1288   23.0048 C   0  0  0  0  0  0  0  0  0  0  0  0
   13.2413    1.0205   23.6471 H   0  0  0  0  0  0  0  0  0  0  0  0
   11.2713    0.2776   23.1555 C   0  0  0  0  0  0  0  0  0  0  0  0
   11.2406   -0.4617   23.9469 H   0  0  0  0  0  0  0  0  0  0  0  0
    5.4374    0.6358   20.0863 C   0  0  0  0  0  0  0  0  0  0  0  0
    4.9222    0.5857   21.0502 H   0  0  0  0  0  0  0  0  0  0  0  0
    4.8968    1.3631   19.0224 C   0  0  0  0  0  0  0  0  0  0  0  0
    3.9601    1.8972   19.1212 H   0  0  0  0  0  0  0  0  0  0  0  0
  1  2  1  0
  2  3  2  0
  3  4  1  0
  4  5  1  0
  4  6  2  0
  6  7  1  0
  7  8  1  6
  7  9  1  0
  9 10  2  0
  9 11  1  0
 11 12  1  0
 11 13  1  0
 13 14  1  0
 13 15  1  0
 13 16  1  0
 16 17  1  6
 16 18  1  0
 18 19  1  0
 19 20  2  0
 20 21  1  0
 20 22  1  0
 22 23  1  0
 22 24  2  0
 24 25  1  0
 24 26  1  0
 26 27  1  0
 26 28  2  0
 28 29  1  0
  6 30  1  0
 30 31  1  0
 30 32  2  0
 32 33  1  0
 32  2  1  0
 16  7  1  0
 28 19  1  0
M  END
>  <cnnaffinity>  (1) 
-4.69109

>  <filename>  (1) 
O=C1NC[C@@H](Oc2ccccc2)[C@@H]1c1cccnc1

$$$$
