
     RDKit          3D

 30 32  0  0  0  0  0  0  0  0999 V2000
    5.0065    1.8107   16.9669 H   0  0  0  0  0  0  0  0  0  0  0  0
    5.4668    1.3062   17.8129 C   0  0  0  0  0  0  0  0  0  0  0  0
    6.6636    0.7346   17.5844 N   0  0  0  0  0  0  0  0  0  0  0  0
    7.2461    0.1074   18.6076 C   0  0  0  0  0  0  0  0  0  0  0  0
    8.2326   -0.3205   18.4533 H   0  0  0  0  0  0  0  0  0  0  0  0
    6.6513   -0.0281   19.8728 C   0  0  0  0  0  0  0  0  0  0  0  0
    7.3502   -0.7599   20.8794 N   0  0  0  0  0  0  0  0  0  0  0  0
    8.6743   -0.4272   20.9643 N   0  0  0  0  0  0  0  0  0  0  0  0
    9.3930   -0.9548   21.9256 C   0  0  0  0  0  0  0  0  0  0  0  0
   10.8091   -0.4785   22.0097 C   0  0  0  0  0  0  0  0  0  0  0  0
   11.8798   -1.3608   22.2382 C   0  0  0  0  0  0  0  0  0  0  0  0
   11.7196   -2.4402   22.3020 H   0  0  0  0  0  0  0  0  0  0  0  0
   13.1817   -0.8609   22.3683 C   0  0  0  0  0  0  0  0  0  0  0  0
   14.0439   -1.5072   22.5031 H   0  0  0  0  0  0  0  0  0  0  0  0
   13.4095    0.5105   22.3102 C   0  0  0  0  0  0  0  0  0  0  0  0
   14.6528    0.9717   22.4976 F   0  0  0  0  0  0  0  0  0  0  0  0
   12.3507    1.3925   22.0467 C   0  0  0  0  0  0  0  0  0  0  0  0
   12.5819    2.7105   21.9817 F   0  0  0  0  0  0  0  0  0  0  0  0
   11.0638    0.9024   21.8611 C   0  0  0  0  0  0  0  0  0  0  0  0
   10.2684    1.5976   21.5945 H   0  0  0  0  0  0  0  0  0  0  0  0
    8.8291   -1.8914   22.8646 C   0  0  0  0  0  0  0  0  0  0  0  0
    9.4442   -2.2621   23.6835 H   0  0  0  0  0  0  0  0  0  0  0  0
    7.5286   -2.2725   22.7356 C   0  0  0  0  0  0  0  0  0  0  0  0
    7.0263   -2.9652   23.4002 H   0  0  0  0  0  0  0  0  0  0  0  0
    6.6853   -1.7809   21.6516 C   0  0  0  0  0  0  0  0  0  0  0  0
    5.5624   -2.1770   21.3955 O   0  0  0  0  0  0  0  0  0  0  0  0
    5.4304    0.6023   20.1207 C   0  0  0  0  0  0  0  0  0  0  0  0
    4.9756    0.5594   21.1090 H   0  0  0  0  0  0  0  0  0  0  0  0
    4.8302    1.2885   19.0590 C   0  0  0  0  0  0  0  0  0  0  0  0
    3.8921    1.8205   19.1902 H   0  0  0  0  0  0  0  0  0  0  0  0
  1  2  1  0
  2  3  2  0
  3  4  1  0
  4  5  1  0
  4  6  2  0
  6  7  1  0
  7  8  1  0
  8  9  2  0
  9 10  1  0
 10 11  2  0
 11 12  1  0
 11 13  1  0
 13 14  1  0
 13 15  2  0
 15 16  1  0
 15 17  1  0
 17 18  1  0
 17 19  2  0
 19 20  1  0
  9 21  1  0
 21 22  1  0
 21 23  2  0
 23 24  1  0
 23 25  1  0
 25 26  2  0
  6 27  1  0
 27 28  1  0
 27 29  2  0
 29 30  1  0
 29  2  1  0
 25  7  1  0
 19 10  1  0
M  END
>  <cnnaffinity>  (1) 
-5.29187

>  <filename>  (1) 
O=c1ccc(-c2ccc(F)c(F)c2)nn1-c1cccnc1

$$$$
