
     RDKit          3D

 38 40  0  0  0  0  0  0  0  0999 V2000
    4.9098    1.8075   16.9577 H   0  0  0  0  0  0  0  0  0  0  0  0
    5.3874    1.2868   17.7831 C   0  0  0  0  0  0  0  0  0  0  0  0
    6.5290    0.6403   17.4938 N   0  0  0  0  0  0  0  0  0  0  0  0
    7.1547    0.0138   18.4976 C   0  0  0  0  0  0  0  0  0  0  0  0
    8.0889   -0.4932   18.2719 H   0  0  0  0  0  0  0  0  0  0  0  0
    6.6727   -0.0164   19.8202 C   0  0  0  0  0  0  0  0  0  0  0  0
    7.3942   -0.6845   20.8285 N   0  0  0  0  0  0  0  0  0  0  0  0
    8.7714   -0.6024   21.1343 C   0  0  0  0  0  0  0  0  0  0  0  0
    9.6084    0.0063   20.4873 O   0  0  0  0  0  0  0  0  0  0  0  0
    8.8818   -1.3716   22.3627 C   0  0  0  0  0  0  0  0  0  0  0  0
    9.8078   -1.4831   22.8953 H   0  0  0  0  0  0  0  0  0  0  0  0
    7.6650   -1.8589   22.6976 C   0  0  0  0  0  0  0  0  0  0  0  0
    7.2523   -2.7687   23.7992 C   0  0  0  0  0  0  0  0  0  0  0  0
    7.9916   -2.6690   24.6044 H   0  0  0  0  0  0  0  0  0  0  0  0
    6.2913   -2.4291   24.2079 H   0  0  0  0  0  0  0  0  0  0  0  0
    7.1461   -4.2656   23.4020 C   0  0  0  0  0  0  0  0  0  0  0  0
    6.8440   -4.8087   24.3146 H   0  0  0  0  0  0  0  0  0  0  0  0
    6.0655   -4.5422   22.3049 C   0  0  0  0  0  0  0  0  0  0  0  0
    5.9526   -3.6688   21.6547 H   0  0  0  0  0  0  0  0  0  0  0  0
    5.0946   -4.6614   22.8055 H   0  0  0  0  0  0  0  0  0  0  0  0
    6.3774   -5.7878   21.4303 C   0  0  0  0  0  0  0  0  0  0  0  0
    5.4666   -6.2008   20.9824 H   0  0  0  0  0  0  0  0  0  0  0  0
    6.9968   -5.4664   20.5833 H   0  0  0  0  0  0  0  0  0  0  0  0
    7.1155   -6.8487   22.2534 C   0  0  0  0  0  0  0  0  0  0  0  0
    7.2062   -7.8075   21.7322 H   0  0  0  0  0  0  0  0  0  0  0  0
    6.4877   -7.0604   23.1253 H   0  0  0  0  0  0  0  0  0  0  0  0
    8.4989   -6.3268   22.7029 C   0  0  0  0  0  0  0  0  0  0  0  0
    9.2368   -6.5070   21.9209 H   0  0  0  0  0  0  0  0  0  0  0  0
    8.8389   -6.8771   23.5856 H   0  0  0  0  0  0  0  0  0  0  0  0
    8.5182   -4.8070   22.9686 C   0  0  0  0  0  0  0  0  0  0  0  0
    8.7990   -4.2771   22.0472 H   0  0  0  0  0  0  0  0  0  0  0  0
    9.2864   -4.5427   23.7082 H   0  0  0  0  0  0  0  0  0  0  0  0
    6.7080   -1.4733   21.7589 N   0  0  0  0  0  0  0  0  0  0  0  0
    5.8956   -0.9981   22.1647 H   0  0  0  0  0  0  0  0  0  0  0  0
    5.4679    0.6470   20.1033 C   0  0  0  0  0  0  0  0  0  0  0  0
    5.0679    0.6526   21.1184 H   0  0  0  0  0  0  0  0  0  0  0  0
    4.8194    1.3139   19.0641 C   0  0  0  0  0  0  0  0  0  0  0  0
    3.8962    1.8587   19.2390 H   0  0  0  0  0  0  0  0  0  0  0  0
  1  2  1  0
  2  3  2  0
  3  4  1  0
  4  5  1  0
  4  6  2  0
  6  7  1  0
  7  8  1  0
  8  9  2  0
  8 10  1  0
 10 11  1  0
 10 12  2  0
 12 13  1  0
 13 14  1  0
 13 15  1  0
 13 16  1  0
 16 17  1  0
 16 18  1  0
 18 19  1  0
 18 20  1  0
 18 21  1  0
 21 22  1  0
 21 23  1  0
 21 24  1  0
 24 25  1  0
 24 26  1  0
 24 27  1  0
 27 28  1  0
 27 29  1  0
 27 30  1  0
 30 31  1  0
 30 32  1  0
 12 33  1  0
 33 34  1  0
  6 35  1  0
 35 36  1  0
 35 37  2  0
 37 38  1  0
 37  2  1  0
 33  7  1  0
 30 16  1  0
M  END
>  <cnnaffinity>  (1) 
-5.36172

>  <filename>  (1) 
O=c1cc(CC2CCCCC2)[nH]n1-c1cccnc1

$$$$
