
     RDKit          3D

 35 37  0  0  0  0  0  0  0  0999 V2000
    4.9174    1.7991   16.9765 H   0  0  0  0  0  0  0  0  0  0  0  0
    5.3888    1.3035   17.8218 C   0  0  0  0  0  0  0  0  0  0  0  0
    6.5522    0.6832   17.5598 N   0  0  0  0  0  0  0  0  0  0  0  0
    7.1581    0.0729   18.5860 C   0  0  0  0  0  0  0  0  0  0  0  0
    8.1034   -0.4193   18.3558 H   0  0  0  0  0  0  0  0  0  0  0  0
    6.6475    0.0093   19.8977 C   0  0  0  0  0  0  0  0  0  0  0  0
    7.3675   -0.7129   20.9778 C   0  0  0  0  0  0  0  0  0  0  0  0
    8.7833   -0.5620   21.1317 C   0  0  0  0  0  0  0  0  0  0  0  0
    9.3069    0.1089   20.4466 H   0  0  0  0  0  0  0  0  0  0  0  0
    9.4312   -1.2142   22.1317 C   0  0  0  0  0  0  0  0  0  0  0  0
   10.4965   -1.1430   22.2998 H   0  0  0  0  0  0  0  0  0  0  0  0
    8.7455   -2.0944   23.0746 C   0  0  0  0  0  0  0  0  0  0  0  0
    9.3332   -2.6970   23.9579 O   0  0  0  0  0  0  0  0  0  0  0  0
    7.3289   -2.2099   22.8762 N   0  0  0  0  0  0  0  0  0  0  0  0
    6.5494   -3.0487   23.7536 C   0  0  0  0  0  0  0  0  0  0  0  0
    6.5620   -2.8277   25.1357 C   0  0  0  0  0  0  0  0  0  0  0  0
    7.1824   -2.0281   25.5231 H   0  0  0  0  0  0  0  0  0  0  0  0
    5.8167   -3.6462   25.9879 C   0  0  0  0  0  0  0  0  0  0  0  0
    5.8222   -3.5013   27.0649 H   0  0  0  0  0  0  0  0  0  0  0  0
    5.0627   -4.6925   25.4469 C   0  0  0  0  0  0  0  0  0  0  0  0
    4.3600   -5.4483   26.3823 O   0  0  0  0  0  0  0  0  0  0  0  0
    3.5749   -6.4867   26.0328 C   0  0  0  0  0  0  0  0  0  0  0  0
    4.2459   -7.4660   25.3994 F   0  0  0  0  0  0  0  0  0  0  0  0
    2.5668   -6.1317   25.2144 F   0  0  0  0  0  0  0  0  0  0  0  0
    3.0627   -6.9722   27.1560 F   0  0  0  0  0  0  0  0  0  0  0  0
    5.0342   -4.9324   24.0727 C   0  0  0  0  0  0  0  0  0  0  0  0
    4.4382   -5.7409   23.6649 H   0  0  0  0  0  0  0  0  0  0  0  0
    5.7779   -4.0917   23.2334 C   0  0  0  0  0  0  0  0  0  0  0  0
    5.7943   -4.2489   22.1611 H   0  0  0  0  0  0  0  0  0  0  0  0
    6.7045   -1.5278   21.8513 C   0  0  0  0  0  0  0  0  0  0  0  0
    5.6342   -1.6891   21.7675 H   0  0  0  0  0  0  0  0  0  0  0  0
    5.4241    0.6537   20.1406 C   0  0  0  0  0  0  0  0  0  0  0  0
    5.0059    0.6481   21.1501 H   0  0  0  0  0  0  0  0  0  0  0  0
    4.7954    1.3207   19.0889 C   0  0  0  0  0  0  0  0  0  0  0  0
    3.8655    1.8520   19.2397 H   0  0  0  0  0  0  0  0  0  0  0  0
  1  2  1  0
  2  3  2  0
  3  4  1  0
  4  5  1  0
  4  6  2  0
  6  7  1  0
  7  8  1  0
  8  9  1  0
  8 10  2  0
 10 11  1  0
 10 12  1  0
 12 13  2  0
 12 14  1  0
 14 15  1  0
 15 16  2  0
 16 17  1  0
 16 18  1  0
 18 19  1  0
 18 20  2  0
 20 21  1  0
 21 22  1  0
 22 23  1  0
 22 24  1  0
 22 25  1  0
 20 26  1  0
 26 27  1  0
 26 28  2  0
 28 29  1  0
 14 30  1  0
 30 31  1  0
  6 32  1  0
 32 33  1  0
 32 34  2  0
 34 35  1  0
 34  2  1  0
 30  7  2  0
 28 15  1  0
M  END
>  <cnnaffinity>  (1) 
-5.45341

>  <filename>  (1) 
O=c1ccc(-c2cccnc2)cn1-c1ccc(OC(F)(F)F)cc1

$$$$
