
     RDKit          3D

 30 32  0  0  0  0  0  0  0  0999 V2000
    4.9275    1.7864   16.9773 H   0  0  0  0  0  0  0  0  0  0  0  0
    5.4194    1.3102   17.8213 C   0  0  0  0  0  0  0  0  0  0  0  0
    6.5929    0.7143   17.5591 N   0  0  0  0  0  0  0  0  0  0  0  0
    7.2165    0.1047   18.5674 C   0  0  0  0  0  0  0  0  0  0  0  0
    8.1791   -0.3546   18.3405 H   0  0  0  0  0  0  0  0  0  0  0  0
    6.6854    0.0132   19.8653 C   0  0  0  0  0  0  0  0  0  0  0  0
    7.4386   -0.7284   20.8907 C   0  0  0  0  0  0  0  0  0  0  0  0
    8.7377   -0.5027   20.9886 N   0  0  0  0  0  0  0  0  0  0  0  0
    9.4535   -1.0885   22.0102 C   0  0  0  0  0  0  0  0  0  0  0  0
   10.9172   -0.7967   22.0571 C   0  0  0  0  0  0  0  0  0  0  0  0
   11.8827   -1.7984   22.2446 C   0  0  0  0  0  0  0  0  0  0  0  0
   11.4871   -3.0444   22.5622 F   0  0  0  0  0  0  0  0  0  0  0  0
   13.2527   -1.5813   22.1605 C   0  0  0  0  0  0  0  0  0  0  0  0
   13.9000   -2.4523   22.1613 H   0  0  0  0  0  0  0  0  0  0  0  0
   13.7116   -0.2663   22.1083 C   0  0  0  0  0  0  0  0  0  0  0  0
   14.7696   -0.0474   22.1735 H   0  0  0  0  0  0  0  0  0  0  0  0
   12.7994    0.7867   22.0220 C   0  0  0  0  0  0  0  0  0  0  0  0
   13.1101    1.8240   22.0059 H   0  0  0  0  0  0  0  0  0  0  0  0
   11.4404    0.5001   21.9132 C   0  0  0  0  0  0  0  0  0  0  0  0
   10.6192    1.5336   21.7003 F   0  0  0  0  0  0  0  0  0  0  0  0
    8.8605   -1.9076   22.9477 C   0  0  0  0  0  0  0  0  0  0  0  0
    9.4203   -2.4018   23.7362 H   0  0  0  0  0  0  0  0  0  0  0  0
    7.5078   -2.1327   22.8586 N   0  0  0  0  0  0  0  0  0  0  0  0
    6.9845   -2.7850   23.4352 H   0  0  0  0  0  0  0  0  0  0  0  0
    6.7187   -1.7273   21.7851 C   0  0  0  0  0  0  0  0  0  0  0  0
    5.6101   -2.2285   21.6762 O   0  0  0  0  0  0  0  0  0  0  0  0
    5.4602    0.6513   20.1297 C   0  0  0  0  0  0  0  0  0  0  0  0
    5.0168    0.6201   21.1248 H   0  0  0  0  0  0  0  0  0  0  0  0
    4.8223    1.3209   19.0861 C   0  0  0  0  0  0  0  0  0  0  0  0
    3.8760    1.8360   19.2292 H   0  0  0  0  0  0  0  0  0  0  0  0
  1  2  1  0
  2  3  2  0
  3  4  1  0
  4  5  1  0
  4  6  2  0
  6  7  1  0
  7  8  2  0
  8  9  1  0
  9 10  1  0
 10 11  2  0
 11 12  1  0
 11 13  1  0
 13 14  1  0
 13 15  2  0
 15 16  1  0
 15 17  1  0
 17 18  1  0
 17 19  2  0
 19 20  1  0
  9 21  2  0
 21 22  1  0
 21 23  1  0
 23 24  1  0
 23 25  1  0
 25 26  2  0
  6 27  1  0
 27 28  1  0
 27 29  2  0
 29 30  1  0
 29  2  1  0
 25  7  1  0
 19 10  1  0
M  END
>  <cnnaffinity>  (1) 
-5.61455

>  <filename>  (1) 
O=c1[nH]cc(-c2c(F)cccc2F)nc1-c1cccnc1

$$$$
