
     RDKit          3D

 32 34  0  0  0  0  0  0  0  0999 V2000
    4.9743    1.7686   17.0085 H   0  0  0  0  0  0  0  0  0  0  0  0
    5.4324    1.2640   17.8569 C   0  0  0  0  0  0  0  0  0  0  0  0
    6.5899    0.6340   17.6122 N   0  0  0  0  0  0  0  0  0  0  0  0
    7.2001    0.0390   18.6401 C   0  0  0  0  0  0  0  0  0  0  0  0
    8.1551   -0.4363   18.4277 H   0  0  0  0  0  0  0  0  0  0  0  0
    6.6757    0.0021   19.9364 C   0  0  0  0  0  0  0  0  0  0  0  0
    7.4361   -0.7249   20.9730 C   0  0  0  0  0  0  0  0  0  0  0  0
    8.7438   -0.7103   20.8760 N   0  0  0  0  0  0  0  0  0  0  0  0
    9.4649   -1.3259   21.8538 C   0  0  0  0  0  0  0  0  0  0  0  0
   10.6718   -1.3424   21.9332 O   0  0  0  0  0  0  0  0  0  0  0  0
    8.7751   -2.0115   22.8426 N   0  0  0  0  0  0  0  0  0  0  0  0
    9.3758   -2.3724   23.5531 H   0  0  0  0  0  0  0  0  0  0  0  0
    7.4453   -2.0136   22.9503 C   0  0  0  0  0  0  0  0  0  0  0  0
    6.8911   -2.6434   24.0124 N   0  0  0  0  0  0  0  0  0  0  0  0
    5.9276   -2.3804   24.1352 H   0  0  0  0  0  0  0  0  0  0  0  0
    7.3134   -3.8619   24.5965 C   0  0  0  0  0  0  0  0  0  0  0  0
    8.1102   -4.7955   23.9125 C   0  0  0  0  0  0  0  0  0  0  0  0
    8.3137   -4.6346   22.8620 H   0  0  0  0  0  0  0  0  0  0  0  0
    8.6322   -5.9047   24.5781 C   0  0  0  0  0  0  0  0  0  0  0  0
    9.2597   -6.6455   24.0913 H   0  0  0  0  0  0  0  0  0  0  0  0
    8.3342   -6.0723   25.9241 C   0  0  0  0  0  0  0  0  0  0  0  0
    8.9238   -7.0761   26.5774 F   0  0  0  0  0  0  0  0  0  0  0  0
    7.4616   -5.2287   26.6035 C   0  0  0  0  0  0  0  0  0  0  0  0
    7.1962   -5.4627   27.6305 H   0  0  0  0  0  0  0  0  0  0  0  0
    6.9489   -4.1207   25.9218 C   0  0  0  0  0  0  0  0  0  0  0  0
    6.2891   -3.4150   26.4097 H   0  0  0  0  0  0  0  0  0  0  0  0
    6.7196   -1.3934   21.9823 C   0  0  0  0  0  0  0  0  0  0  0  0
    5.6522   -1.4942   21.9327 H   0  0  0  0  0  0  0  0  0  0  0  0
    5.4498    0.6475   20.1782 C   0  0  0  0  0  0  0  0  0  0  0  0
    5.0043    0.6704   21.1774 H   0  0  0  0  0  0  0  0  0  0  0  0
    4.8208    1.2964   19.1169 C   0  0  0  0  0  0  0  0  0  0  0  0
    3.8847    1.8322   19.2495 H   0  0  0  0  0  0  0  0  0  0  0  0
  1  2  1  0
  2  3  2  0
  3  4  1  0
  4  5  1  0
  4  6  2  0
  6  7  1  0
  7  8  2  0
  8  9  1  0
  9 10  2  0
  9 11  1  0
 11 12  1  0
 11 13  1  0
 13 14  1  0
 14 15  1  0
 14 16  1  0
 16 17  2  0
 17 18  1  0
 17 19  1  0
 19 20  1  0
 19 21  2  0
 21 22  1  0
 21 23  1  0
 23 24  1  0
 23 25  2  0
 25 26  1  0
 13 27  2  0
 27 28  1  0
  6 29  1  0
 29 30  1  0
 29 31  2  0
 31 32  1  0
 31  2  1  0
 27  7  1  0
 25 16  1  0
M  END
>  <cnnaffinity>  (1) 
-5.1697

>  <filename>  (1) 
O=c1nc(-c2cccnc2)cc(Nc2ccc(F)cc2)[nH]1

$$$$
