
     RDKit          3D

 34 36  0  0  0  0  0  0  0  0999 V2000
    4.9993    1.8261   16.9397 H   0  0  0  0  0  0  0  0  0  0  0  0
    5.4754    1.3337   17.7876 C   0  0  0  0  0  0  0  0  0  0  0  0
    6.6716    0.7746   17.5501 N   0  0  0  0  0  0  0  0  0  0  0  0
    7.2673    0.1416   18.5664 C   0  0  0  0  0  0  0  0  0  0  0  0
    8.2555   -0.2677   18.3701 H   0  0  0  0  0  0  0  0  0  0  0  0
    6.6849   -0.0278   19.8352 C   0  0  0  0  0  0  0  0  0  0  0  0
    7.4190   -0.8444   20.8552 C   0  0  0  0  0  0  0  0  0  0  0  0
    8.6945   -0.5659   20.9584 N   0  0  0  0  0  0  0  0  0  0  0  0
    9.4402   -1.1940   21.9225 N   0  0  0  0  0  0  0  0  0  0  0  0
   10.8280   -0.8255   21.9787 C   0  0  0  0  0  0  0  0  0  0  0  0
   11.8440   -1.7894   22.0458 C   0  0  0  0  0  0  0  0  0  0  0  0
   11.5625   -2.8342   22.0434 H   0  0  0  0  0  0  0  0  0  0  0  0
   13.1845   -1.3827   22.1123 C   0  0  0  0  0  0  0  0  0  0  0  0
   13.9841   -2.1202   22.1213 H   0  0  0  0  0  0  0  0  0  0  0  0
   13.5013   -0.0235   22.1934 C   0  0  0  0  0  0  0  0  0  0  0  0
   14.5207    0.3486   22.2741 H   0  0  0  0  0  0  0  0  0  0  0  0
   12.4638    0.9111   22.1232 C   0  0  0  0  0  0  0  0  0  0  0  0
   12.8531    2.2454   22.1919 O   0  0  0  0  0  0  0  0  0  0  0  0
   12.1549    3.2285   21.5810 C   0  0  0  0  0  0  0  0  0  0  0  0
   12.9918    4.2328   21.3422 F   0  0  0  0  0  0  0  0  0  0  0  0
   11.1645    3.6908   22.3604 F   0  0  0  0  0  0  0  0  0  0  0  0
   11.6033    2.8442   20.4196 F   0  0  0  0  0  0  0  0  0  0  0  0
   11.1332    0.5351   21.9750 C   0  0  0  0  0  0  0  0  0  0  0  0
   10.3298    1.2539   21.8463 H   0  0  0  0  0  0  0  0  0  0  0  0
    8.8521   -1.9622   22.9016 C   0  0  0  0  0  0  0  0  0  0  0  0
    9.5153   -2.2737   23.7076 H   0  0  0  0  0  0  0  0  0  0  0  0
    7.5491   -2.2939   22.8623 C   0  0  0  0  0  0  0  0  0  0  0  0
    7.0790   -2.8906   23.6307 H   0  0  0  0  0  0  0  0  0  0  0  0
    6.7327   -1.8953   21.7238 C   0  0  0  0  0  0  0  0  0  0  0  0
    5.6232   -2.3719   21.5274 O   0  0  0  0  0  0  0  0  0  0  0  0
    5.4611    0.6166   20.0847 C   0  0  0  0  0  0  0  0  0  0  0  0
    5.0130    0.6054   21.0795 H   0  0  0  0  0  0  0  0  0  0  0  0
    4.8485    1.3037   19.0354 C   0  0  0  0  0  0  0  0  0  0  0  0
    3.9133    1.8334   19.1705 H   0  0  0  0  0  0  0  0  0  0  0  0
  1  2  1  0
  2  3  2  0
  3  4  1  0
  4  5  1  0
  4  6  2  0
  6  7  1  0
  7  8  2  0
  8  9  1  0
  9 10  1  0
 10 11  2  0
 11 12  1  0
 11 13  1  0
 13 14  1  0
 13 15  2  0
 15 16  1  0
 15 17  1  0
 17 18  1  0
 18 19  1  0
 19 20  1  0
 19 21  1  0
 19 22  1  0
 17 23  2  0
 23 24  1  0
  9 25  1  0
 25 26  1  0
 25 27  2  0
 27 28  1  0
 27 29  1  0
 29 30  2  0
  6 31  1  0
 31 32  1  0
 31 33  2  0
 33 34  1  0
 33  2  1  0
 29  7  1  0
 23 10  1  0
M  END
>  <cnnaffinity>  (1) 
-6.28108

>  <filename>  (1) 
O=c1ccn(-c2cccc(OC(F)(F)F)c2)nc1-c1cccnc1

$$$$
