
     RDKit          3D

 35 38  0  0  0  0  0  0  0  0999 V2000
    4.9557    1.8431   16.9360 H   0  0  0  0  0  0  0  0  0  0  0  0
    5.4110    1.3247   17.7775 C   0  0  0  0  0  0  0  0  0  0  0  0
    6.5770    0.7067   17.5298 N   0  0  0  0  0  0  0  0  0  0  0  0
    7.1566    0.0638   18.5507 C   0  0  0  0  0  0  0  0  0  0  0  0
    8.1119   -0.4167   18.3327 H   0  0  0  0  0  0  0  0  0  0  0  0
    6.6123   -0.0182   19.8480 C   0  0  0  0  0  0  0  0  0  0  0  0
    7.3302   -0.7174   20.9873 C   0  0  2  0  0  0  0  0  0  0  0  0
    8.1769   -1.2765   20.5733 H   0  0  0  0  0  0  0  0  0  0  0  0
    6.4967   -1.7695   21.7280 C   0  0  0  0  0  0  0  0  0  0  0  0
    5.8899   -2.7096   21.2674 O   0  0  0  0  0  0  0  0  0  0  0  0
    6.5744   -1.5065   23.0622 N   0  0  0  0  0  0  0  0  0  0  0  0
    5.8297   -1.9480   23.5816 H   0  0  0  0  0  0  0  0  0  0  0  0
    7.1080   -0.2041   23.4031 C   0  0  0  0  0  0  0  0  0  0  0  0
    7.7933   -0.2625   24.2580 H   0  0  0  0  0  0  0  0  0  0  0  0
    6.3040    0.4960   23.6800 H   0  0  0  0  0  0  0  0  0  0  0  0
    7.8041    0.2703   22.0965 C   0  0  1  0  0  0  0  0  0  0  0  0
    7.4881    1.2976   21.8805 H   0  0  0  0  0  0  0  0  0  0  0  0
    9.2997    0.3564   22.1598 C   0  0  0  0  0  0  0  0  0  0  0  0
    9.9826   -0.8225   22.2686 O   0  0  0  0  0  0  0  0  0  0  0  0
   11.3097   -0.5152   22.3128 C   0  0  0  0  0  0  0  0  0  0  0  0
   12.3511   -1.4373   22.4034 C   0  0  0  0  0  0  0  0  0  0  0  0
   12.1355   -2.4996   22.4988 H   0  0  0  0  0  0  0  0  0  0  0  0
   13.6414   -0.9038   22.4814 C   0  0  0  0  0  0  0  0  0  0  0  0
   14.5033   -1.5669   22.5602 H   0  0  0  0  0  0  0  0  0  0  0  0
   13.8588    0.4915   22.4722 C   0  0  0  0  0  0  0  0  0  0  0  0
   14.8718    0.8828   22.5555 H   0  0  0  0  0  0  0  0  0  0  0  0
   12.7954    1.3870   22.3600 C   0  0  0  0  0  0  0  0  0  0  0  0
   12.9662    2.4579   22.3910 H   0  0  0  0  0  0  0  0  0  0  0  0
   11.4859    0.8736   22.2520 C   0  0  0  0  0  0  0  0  0  0  0  0
   10.1504    1.4130   22.1183 C   0  0  0  0  0  0  0  0  0  0  0  0
    9.8939    2.4573   22.0091 H   0  0  0  0  0  0  0  0  0  0  0  0
    5.3998    0.6398   20.0811 C   0  0  0  0  0  0  0  0  0  0  0  0
    4.9566    0.6338   21.0803 H   0  0  0  0  0  0  0  0  0  0  0  0
    4.7853    1.3196   19.0290 C   0  0  0  0  0  0  0  0  0  0  0  0
    3.8555    1.8581   19.1722 H   0  0  0  0  0  0  0  0  0  0  0  0
  1  2  1  0
  2  3  2  0
  3  4  1  0
  4  5  1  0
  4  6  2  0
  6  7  1  0
  7  8  1  6
  7  9  1  0
  9 10  2  0
  9 11  1  0
 11 12  1  0
 11 13  1  0
 13 14  1  0
 13 15  1  0
 13 16  1  0
 16 17  1  6
 16 18  1  0
 18 19  1  0
 19 20  1  0
 20 21  2  0
 21 22  1  0
 21 23  1  0
 23 24  1  0
 23 25  2  0
 25 26  1  0
 25 27  1  0
 27 28  1  0
 27 29  2  0
 29 30  1  0
 30 31  1  0
  6 32  1  0
 32 33  1  0
 32 34  2  0
 34 35  1  0
 34  2  1  0
 16  7  1  0
 30 18  2  0
 29 20  1  0
M  END
>  <cnnaffinity>  (1) 
-5.26704

>  <filename>  (1) 
O=C1NC[C@@H](c2cc3ccccc3o2)[C@@H]1c1cccnc1

$$$$
