
     RDKit          3D

 39 41  0  0  0  0  0  0  0  0999 V2000
    4.9426    1.7884   16.9893 H   0  0  0  0  0  0  0  0  0  0  0  0
    5.4056    1.2904   17.8393 C   0  0  0  0  0  0  0  0  0  0  0  0
    6.5655    0.6684   17.5878 N   0  0  0  0  0  0  0  0  0  0  0  0
    7.1716    0.0562   18.6103 C   0  0  0  0  0  0  0  0  0  0  0  0
    8.1109   -0.4283   18.3510 H   0  0  0  0  0  0  0  0  0  0  0  0
    6.6576   -0.0045   19.9185 C   0  0  0  0  0  0  0  0  0  0  0  0
    7.4080   -0.7285   20.9811 C   0  0  0  0  0  0  0  0  0  0  0  0
    6.4125   -1.6675   22.0617 S   0  0  0  0  0  0  0  0  0  0  0  0
    7.5526   -2.3097   23.2103 C   0  0  0  0  0  0  0  0  0  0  0  0
    6.9628   -3.1982   24.2882 C   0  0  0  0  0  0  0  0  0  0  0  0
    5.8910   -3.0152   24.4135 H   0  0  0  0  0  0  0  0  0  0  0  0
    7.4406   -2.9440   25.2448 H   0  0  0  0  0  0  0  0  0  0  0  0
    7.2056   -4.7093   24.0455 C   0  0  0  0  0  0  0  0  0  0  0  0
    8.2878   -4.8532   23.9119 H   0  0  0  0  0  0  0  0  0  0  0  0
    6.5079   -5.2360   22.7663 C   0  0  0  0  0  0  0  0  0  0  0  0
    6.7648   -4.5885   21.9166 H   0  0  0  0  0  0  0  0  0  0  0  0
    6.9120   -6.2316   22.5287 H   0  0  0  0  0  0  0  0  0  0  0  0
    4.9796   -5.3463   22.9139 C   0  0  0  0  0  0  0  0  0  0  0  0
    4.5393   -5.7584   21.9954 H   0  0  0  0  0  0  0  0  0  0  0  0
    4.5546   -4.3375   23.0220 H   0  0  0  0  0  0  0  0  0  0  0  0
    4.6013   -6.2166   24.1256 C   0  0  0  0  0  0  0  0  0  0  0  0
    4.9185   -7.2534   23.9342 H   0  0  0  0  0  0  0  0  0  0  0  0
    3.5085   -6.2585   24.2415 H   0  0  0  0  0  0  0  0  0  0  0  0
    5.2642   -5.7038   25.4208 C   0  0  0  0  0  0  0  0  0  0  0  0
    4.8143   -4.7342   25.6903 H   0  0  0  0  0  0  0  0  0  0  0  0
    5.0333   -6.3796   26.2534 H   0  0  0  0  0  0  0  0  0  0  0  0
    6.7943   -5.5243   25.2929 C   0  0  0  0  0  0  0  0  0  0  0  0
    7.3203   -6.4822   25.2544 H   0  0  0  0  0  0  0  0  0  0  0  0
    7.1949   -5.0497   26.2022 H   0  0  0  0  0  0  0  0  0  0  0  0
    8.8827   -2.1244   23.1099 C   0  0  0  0  0  0  0  0  0  0  0  0
    9.5487   -2.6110   23.8122 H   0  0  0  0  0  0  0  0  0  0  0  0
    9.5759   -1.3206   22.1001 C   0  0  0  0  0  0  0  0  0  0  0  0
   10.7958   -1.2088   22.1101 O   0  0  0  0  0  0  0  0  0  0  0  0
    8.7547   -0.6643   21.0807 C   0  0  0  0  0  0  0  0  0  0  0  0
    9.3185   -0.0597   20.3886 H   0  0  0  0  0  0  0  0  0  0  0  0
    5.4363    0.6498   20.1607 C   0  0  0  0  0  0  0  0  0  0  0  0
    5.0069    0.6423   21.1656 H   0  0  0  0  0  0  0  0  0  0  0  0
    4.8093    1.3090   19.1048 C   0  0  0  0  0  0  0  0  0  0  0  0
    3.8782    1.8432   19.2448 H   0  0  0  0  0  0  0  0  0  0  0  0
  1  2  1  0
  2  3  2  0
  3  4  1  0
  4  5  1  0
  4  6  2  0
  6  7  1  0
  7  8  1  0
  8  9  1  0
  9 10  1  0
 10 11  1  0
 10 12  1  0
 10 13  1  0
 13 14  1  0
 13 15  1  0
 15 16  1  0
 15 17  1  0
 15 18  1  0
 18 19  1  0
 18 20  1  0
 18 21  1  0
 21 22  1  0
 21 23  1  0
 21 24  1  0
 24 25  1  0
 24 26  1  0
 24 27  1  0
 27 28  1  0
 27 29  1  0
  9 30  2  0
 30 31  1  0
 30 32  1  0
 32 33  2  0
 32 34  1  0
 34 35  1  0
  6 36  1  0
 36 37  1  0
 36 38  2  0
 38 39  1  0
 38  2  1  0
 34  7  2  0
 27 13  1  0
M  END
>  <cnnaffinity>  (1) 
-5.72348

>  <filename>  (1) 
O=c1cc(CC2CCCCC2)sc(-c2cccnc2)c1

$$$$
