
     RDKit          3D

 38 40  0  0  0  0  0  0  0  0999 V2000
    4.9258    1.6811   16.8308 H   0  0  0  0  0  0  0  0  0  0  0  0
    5.3450    1.3447   17.7800 C   0  0  0  0  0  0  0  0  0  0  0  0
    6.5498    0.7576   17.7088 N   0  0  0  0  0  0  0  0  0  0  0  0
    7.0832    0.2985   18.8406 C   0  0  0  0  0  0  0  0  0  0  0  0
    8.0580   -0.1821   18.7649 H   0  0  0  0  0  0  0  0  0  0  0  0
    6.4640    0.3936   20.1046 C   0  0  0  0  0  0  0  0  0  0  0  0
    7.0697   -0.2496   21.2142 N   0  0  0  0  0  0  0  0  0  0  0  0
    7.7896   -1.4390   21.1142 C   0  0  0  0  0  0  0  0  0  0  0  0
    7.9087   -1.9294   20.1631 H   0  0  0  0  0  0  0  0  0  0  0  0
    8.2895   -1.7680   22.3233 C   0  0  0  0  0  0  0  0  0  0  0  0
    9.1230   -2.9559   22.6633 C   0  0  0  0  0  0  0  0  0  0  0  0
    9.8140   -3.1132   21.8242 H   0  0  0  0  0  0  0  0  0  0  0  0
    9.7554   -2.7376   23.5343 H   0  0  0  0  0  0  0  0  0  0  0  0
    8.3551   -4.2815   22.9565 C   0  0  0  0  0  0  0  0  0  0  0  0
    9.1291   -5.0409   23.1617 H   0  0  0  0  0  0  0  0  0  0  0  0
    7.5105   -4.1464   24.2405 C   0  0  0  0  0  0  0  0  0  0  0  0
    8.1596   -3.8097   25.0587 H   0  0  0  0  0  0  0  0  0  0  0  0
    6.7528   -3.3617   24.1015 H   0  0  0  0  0  0  0  0  0  0  0  0
    6.8182   -5.4592   24.6289 C   0  0  0  0  0  0  0  0  0  0  0  0
    7.5864   -6.1991   24.8923 H   0  0  0  0  0  0  0  0  0  0  0  0
    6.2163   -5.3163   25.5345 H   0  0  0  0  0  0  0  0  0  0  0  0
    5.9554   -5.9890   23.4772 C   0  0  0  0  0  0  0  0  0  0  0  0
    5.4687   -6.9316   23.7537 H   0  0  0  0  0  0  0  0  0  0  0  0
    5.1420   -5.2750   23.2952 H   0  0  0  0  0  0  0  0  0  0  0  0
    6.7719   -6.1551   22.1863 C   0  0  0  0  0  0  0  0  0  0  0  0
    6.1190   -6.4872   21.3679 H   0  0  0  0  0  0  0  0  0  0  0  0
    7.5032   -6.9647   22.3292 H   0  0  0  0  0  0  0  0  0  0  0  0
    7.5110   -4.8551   21.7873 C   0  0  0  0  0  0  0  0  0  0  0  0
    6.7743   -4.1120   21.4425 H   0  0  0  0  0  0  0  0  0  0  0  0
    8.1592   -5.0641   20.9253 H   0  0  0  0  0  0  0  0  0  0  0  0
    7.8422   -0.7713   23.1889 N   0  0  0  0  0  0  0  0  0  0  0  0
    8.0197   -0.6222   24.1633 H   0  0  0  0  0  0  0  0  0  0  0  0
    7.0983    0.1899   22.5435 C   0  0  0  0  0  0  0  0  0  0  0  0
    6.6179    1.1841   23.0536 O   0  0  0  0  0  0  0  0  0  0  0  0
    5.2410    1.0790   20.1821 C   0  0  0  0  0  0  0  0  0  0  0  0
    4.7752    1.2613   21.1483 H   0  0  0  0  0  0  0  0  0  0  0  0
    4.6611    1.5279   18.9852 C   0  0  0  0  0  0  0  0  0  0  0  0
    3.6966    2.0252   18.9648 H   0  0  0  0  0  0  0  0  0  0  0  0
  1  2  1  0
  2  3  2  0
  3  4  1  0
  4  5  1  0
  4  6  2  0
  6  7  1  0
  7  8  1  0
  8  9  1  0
  8 10  2  0
 10 11  1  0
 11 12  1  0
 11 13  1  0
 11 14  1  0
 14 15  1  0
 14 16  1  0
 16 17  1  0
 16 18  1  0
 16 19  1  0
 19 20  1  0
 19 21  1  0
 19 22  1  0
 22 23  1  0
 22 24  1  0
 22 25  1  0
 25 26  1  0
 25 27  1  0
 25 28  1  0
 28 29  1  0
 28 30  1  0
 10 31  1  0
 31 32  1  0
 31 33  1  0
 33 34  2  0
  6 35  1  0
 35 36  1  0
 35 37  2  0
 37 38  1  0
 37  2  1  0
 33  7  1  0
 28 14  1  0
M  END
>  <cnnaffinity>  (1) 
-5.35112

>  <filename>  (1) 
O=c1[nH]c(CC2CCCCC2)cn1-c1cccnc1

$$$$
