
     RDKit          3D

 36 39  0  0  0  0  0  0  0  0999 V2000
    4.9313    1.7933   16.9933 H   0  0  0  0  0  0  0  0  0  0  0  0
    5.4025    1.2956   17.8401 C   0  0  0  0  0  0  0  0  0  0  0  0
    6.5629    0.6702   17.5836 N   0  0  0  0  0  0  0  0  0  0  0  0
    7.1719    0.0497   18.6019 C   0  0  0  0  0  0  0  0  0  0  0  0
    8.1102   -0.4460   18.3621 H   0  0  0  0  0  0  0  0  0  0  0  0
    6.6597   -0.0099   19.9123 C   0  0  0  0  0  0  0  0  0  0  0  0
    7.3432   -0.7094   20.9635 N   0  0  0  0  0  0  0  0  0  0  0  0
    6.5678   -1.4421   21.8240 N   0  0  0  0  0  0  0  0  0  0  0  0
    7.1380   -2.0827   22.8165 C   0  0  0  0  0  0  0  0  0  0  0  0
    6.2283   -2.8572   23.7349 C   0  0  0  0  0  0  0  0  0  0  0  0
    5.1518   -3.5918   23.1993 C   0  0  0  0  0  0  0  0  0  0  0  0
    5.0025   -3.5827   22.1262 H   0  0  0  0  0  0  0  0  0  0  0  0
    4.3087   -4.3354   24.0271 C   0  0  0  0  0  0  0  0  0  0  0  0
    3.4703   -4.9124   23.6470 H   0  0  0  0  0  0  0  0  0  0  0  0
    4.5139   -4.3448   25.4063 C   0  0  0  0  0  0  0  0  0  0  0  0
    5.6015   -3.6292   25.9587 C   0  0  0  0  0  0  0  0  0  0  0  0
    6.4398   -2.8956   25.1287 C   0  0  0  0  0  0  0  0  0  0  0  0
    7.2897   -2.3948   25.5807 H   0  0  0  0  0  0  0  0  0  0  0  0
    5.8472   -3.6267   27.3071 O   0  0  0  0  0  0  0  0  0  0  0  0
    5.1594   -4.6279   28.0643 C   0  0  0  0  0  0  0  0  0  0  0  0
    5.6899   -5.5875   27.9864 H   0  0  0  0  0  0  0  0  0  0  0  0
    5.1820   -4.2787   29.0994 H   0  0  0  0  0  0  0  0  0  0  0  0
    3.7164   -4.7877   27.5889 C   0  0  0  0  0  0  0  0  0  0  0  0
    3.2456   -5.6439   28.0769 H   0  0  0  0  0  0  0  0  0  0  0  0
    3.1454   -3.8740   27.8080 H   0  0  0  0  0  0  0  0  0  0  0  0
    3.6595   -5.0734   26.1881 O   0  0  0  0  0  0  0  0  0  0  0  0
    8.6365   -2.0882   23.0386 C   0  0  0  0  0  0  0  0  0  0  0  0
    9.2133   -2.7211   23.9144 O   0  0  0  0  0  0  0  0  0  0  0  0
    9.3704   -1.2599   22.0871 C   0  0  0  0  0  0  0  0  0  0  0  0
   10.4431   -1.2133   22.2117 H   0  0  0  0  0  0  0  0  0  0  0  0
    8.7094   -0.6162   21.1130 C   0  0  0  0  0  0  0  0  0  0  0  0
    9.2017    0.0341   20.3914 H   0  0  0  0  0  0  0  0  0  0  0  0
    5.4438    0.6378   20.1658 C   0  0  0  0  0  0  0  0  0  0  0  0
    5.0365    0.5865   21.1747 H   0  0  0  0  0  0  0  0  0  0  0  0
    4.8138    1.3098   19.1109 C   0  0  0  0  0  0  0  0  0  0  0  0
    3.8795    1.8414   19.2562 H   0  0  0  0  0  0  0  0  0  0  0  0
  1  2  1  0
  2  3  2  0
  3  4  1  0
  4  5  1  0
  4  6  2  0
  6  7  1  0
  7  8  1  0
  8  9  2  0
  9 10  1  0
 10 11  2  0
 11 12  1  0
 11 13  1  0
 13 14  1  0
 13 15  2  0
 15 16  1  0
 16 17  2  0
 17 18  1  0
 16 19  1  0
 19 20  1  0
 20 21  1  0
 20 22  1  0
 20 23  1  0
 23 24  1  0
 23 25  1  0
 23 26  1  0
  9 27  1  0
 27 28  2  0
 27 29  1  0
 29 30  1  0
 29 31  2  0
 31 32  1  0
  6 33  1  0
 33 34  1  0
 33 35  2  0
 35 36  1  0
 35  2  1  0
 31  7  1  0
 17 10  1  0
 26 15  1  0
M  END
>  <cnnaffinity>  (1) 
-5.28425

>  <filename>  (1) 
O=c1ccn(-c2cccnc2)nc1-c1ccc2c(c1)OCCO2

$$$$
