
     RDKit          3D

 33 35  0  0  0  0  0  0  0  0999 V2000
    6.4567   -3.2124   26.0358 H   0  0  0  0  0  0  0  0  0  0  0  0
    6.8622   -2.8527   25.2370 O   0  0  0  0  0  0  0  0  0  0  0  0
    8.1435   -3.3156   25.2016 C   0  0  0  0  0  0  0  0  0  0  0  0
    8.6299   -4.0749   26.2715 C   0  0  0  0  0  0  0  0  0  0  0  0
    7.9560   -4.2821   27.1055 H   0  0  0  0  0  0  0  0  0  0  0  0
    9.9461   -4.5501   26.2628 C   0  0  0  0  0  0  0  0  0  0  0  0
   10.3126   -5.1265   27.1146 H   0  0  0  0  0  0  0  0  0  0  0  0
   10.7748   -4.2772   25.1689 C   0  0  0  0  0  0  0  0  0  0  0  0
   11.7858   -4.6757   25.1517 H   0  0  0  0  0  0  0  0  0  0  0  0
   10.2958   -3.5071   24.0994 C   0  0  0  0  0  0  0  0  0  0  0  0
   10.9389   -3.2603   23.2571 H   0  0  0  0  0  0  0  0  0  0  0  0
    8.9791   -3.0272   24.0926 C   0  0  0  0  0  0  0  0  0  0  0  0
    8.5398   -2.2057   23.0036 N   0  0  0  0  0  0  0  0  0  0  0  0
    8.3710   -2.7610   21.7528 C   0  0  0  0  0  0  0  0  0  0  0  0
    8.4937   -3.9366   21.4744 O   0  0  0  0  0  0  0  0  0  0  0  0
    8.0242   -1.8735   20.7504 N   0  0  0  0  0  0  0  0  0  0  0  0
    7.7721   -2.4425   19.9597 H   0  0  0  0  0  0  0  0  0  0  0  0
    7.3951   -0.6579   21.0085 C   0  0  0  0  0  0  0  0  0  0  0  0
    6.6524   -0.0305   19.9009 C   0  0  0  0  0  0  0  0  0  0  0  0
    7.1681    0.0113   18.5938 C   0  0  0  0  0  0  0  0  0  0  0  0
    8.1259   -0.4531   18.3604 H   0  0  0  0  0  0  0  0  0  0  0  0
    6.5709    0.6419   17.5757 N   0  0  0  0  0  0  0  0  0  0  0  0
    5.4120    1.2729   17.8260 C   0  0  0  0  0  0  0  0  0  0  0  0
    4.9615    1.7995   16.9866 H   0  0  0  0  0  0  0  0  0  0  0  0
    4.7993    1.2868   19.0846 C   0  0  0  0  0  0  0  0  0  0  0  0
    3.8768    1.8411   19.2314 H   0  0  0  0  0  0  0  0  0  0  0  0
    5.4319    0.6318   20.1396 C   0  0  0  0  0  0  0  0  0  0  0  0
    5.0049    0.6280   21.1443 H   0  0  0  0  0  0  0  0  0  0  0  0
    7.5220   -0.1150   22.2315 C   0  0  0  0  0  0  0  0  0  0  0  0
    7.1351    0.8686   22.4482 H   0  0  0  0  0  0  0  0  0  0  0  0
    8.3440   -0.7791   23.2815 C   0  0  0  0  0  0  0  0  0  0  0  0
    7.8655   -0.6677   24.2661 H   0  0  0  0  0  0  0  0  0  0  0  0
    9.3316   -0.2903   23.3751 H   0  0  0  0  0  0  0  0  0  0  0  0
  1  2  1  0
  2  3  1  0
  3  4  2  0
  4  5  1  0
  4  6  1  0
  6  7  1  0
  6  8  2  0
  8  9  1  0
  8 10  1  0
 10 11  1  0
 10 12  2  0
 12 13  1  0
 13 14  1  0
 14 15  2  0
 14 16  1  0
 16 17  1  0
 16 18  1  0
 18 19  1  0
 19 20  2  0
 20 21  1  0
 20 22  1  0
 22 23  2  0
 23 24  1  0
 23 25  1  0
 25 26  1  0
 25 27  2  0
 27 28  1  0
 18 29  2  0
 29 30  1  0
 29 31  1  0
 31 32  1  0
 31 33  1  0
 12  3  1  0
 31 13  1  0
 27 19  1  0
M  END
>  <cnnaffinity>  (1) 
-5.39165

>  <filename>  (1) 
O=C1NC(c2cccnc2)=CCN1c1ccccc1O

$$$$
