
     RDKit          3D

 29 31  0  0  0  0  0  0  0  0999 V2000
    6.6853   -5.0489   26.3009 H   0  0  0  0  0  0  0  0  0  0  0  0
    6.1519   -4.5130   25.5156 C   0  0  0  0  0  0  0  0  0  0  0  0
    6.9048   -3.7437   24.7170 N   0  0  0  0  0  0  0  0  0  0  0  0
    6.3132   -3.1144   23.6783 C   0  0  0  0  0  0  0  0  0  0  0  0
    7.1872   -2.2193   22.8119 C   0  0  0  0  0  0  0  0  0  0  0  0
    6.5951   -1.5094   21.7812 N   0  0  0  0  0  0  0  0  0  0  0  0
    7.3166   -0.7415   20.9872 C   0  0  0  0  0  0  0  0  0  0  0  0
    6.6148   -0.0191   19.9075 C   0  0  0  0  0  0  0  0  0  0  0  0
    7.1439    0.0372   18.6073 C   0  0  0  0  0  0  0  0  0  0  0  0
    8.1101   -0.4163   18.3900 H   0  0  0  0  0  0  0  0  0  0  0  0
    6.5476    0.6627   17.5878 N   0  0  0  0  0  0  0  0  0  0  0  0
    5.3939    1.2937   17.8379 C   0  0  0  0  0  0  0  0  0  0  0  0
    4.9368    1.7954   16.9876 H   0  0  0  0  0  0  0  0  0  0  0  0
    4.7892    1.3180   19.0998 C   0  0  0  0  0  0  0  0  0  0  0  0
    3.8642    1.8633   19.2372 H   0  0  0  0  0  0  0  0  0  0  0  0
    5.4001    0.6375   20.1525 C   0  0  0  0  0  0  0  0  0  0  0  0
    4.9626    0.6305   21.1530 H   0  0  0  0  0  0  0  0  0  0  0  0
    8.8020   -0.5773   21.1893 C   0  0  0  0  0  0  0  0  0  0  0  0
    9.6159    0.1057   20.5874 O   0  0  0  0  0  0  0  0  0  0  0  0
    9.2917   -1.3320   22.2462 N   0  0  0  0  0  0  0  0  0  0  0  0
   10.2878   -1.1586   22.3110 H   0  0  0  0  0  0  0  0  0  0  0  0
    8.5395   -2.1312   23.0575 C   0  0  0  0  0  0  0  0  0  0  0  0
    9.0414   -2.6638   23.8575 H   0  0  0  0  0  0  0  0  0  0  0  0
    4.9459   -3.2972   23.4003 C   0  0  0  0  0  0  0  0  0  0  0  0
    4.5591   -2.8761   22.4823 H   0  0  0  0  0  0  0  0  0  0  0  0
    4.1430   -4.0051   24.2978 C   0  0  0  0  0  0  0  0  0  0  0  0
    3.0608   -4.0485   24.1613 H   0  0  0  0  0  0  0  0  0  0  0  0
    4.7672   -4.6530   25.3672 C   0  0  0  0  0  0  0  0  0  0  0  0
    4.2207   -5.2903   26.0555 H   0  0  0  0  0  0  0  0  0  0  0  0
  1  2  1  0
  2  3  2  0
  3  4  1  0
  4  5  1  0
  5  6  1  0
  6  7  2  0
  7  8  1  0
  8  9  2  0
  9 10  1  0
  9 11  1  0
 11 12  2  0
 12 13  1  0
 12 14  1  0
 14 15  1  0
 14 16  2  0
 16 17  1  0
  7 18  1  0
 18 19  2  0
 18 20  1  0
 20 21  1  0
 20 22  1  0
 22 23  1  0
  4 24  2  0
 24 25  1  0
 24 26  1  0
 26 27  1  0
 26 28  2  0
 28 29  1  0
 28  2  1  0
 22  5  2  0
 16  8  1  0
M  END
>  <cnnaffinity>  (1) 
-5.08195

>  <filename>  (1) 
O=c1[nH]cc(-c2ccccn2)nc1-c1cccnc1

$$$$
