
     RDKit          3D

 30 32  0  0  0  0  0  0  0  0999 V2000
    5.1797    1.6786   16.9154 H   0  0  0  0  0  0  0  0  0  0  0  0
    5.5819    1.2347   17.8216 C   0  0  0  0  0  0  0  0  0  0  0  0
    6.7649    0.6060   17.7025 N   0  0  0  0  0  0  0  0  0  0  0  0
    7.2928    0.0634   18.8079 C   0  0  0  0  0  0  0  0  0  0  0  0
    8.2568   -0.4343   18.7170 H   0  0  0  0  0  0  0  0  0  0  0  0
    6.6461    0.0765   20.0560 C   0  0  0  0  0  0  0  0  0  0  0  0
    7.2531   -0.5753   21.1752 N   0  0  0  0  0  0  0  0  0  0  0  0
    8.5930   -0.3560   21.3296 N   0  0  0  0  0  0  0  0  0  0  0  0
    9.1770   -0.8432   22.3950 C   0  0  0  0  0  0  0  0  0  0  0  0
   10.6375   -0.5575   22.5180 C   0  0  0  0  0  0  0  0  0  0  0  0
   11.4429   -1.0681   21.4949 C   0  0  0  0  0  0  0  0  0  0  0  0
   10.9531   -1.5095   20.6472 H   0  0  0  0  0  0  0  0  0  0  0  0
   12.8261   -1.0719   21.6238 C   0  0  0  0  0  0  0  0  0  0  0  0
   13.8074   -1.7904   20.3842 Cl  0  0  0  0  0  0  0  0  0  0  0  0
   13.4322   -0.5380   22.7611 C   0  0  0  0  0  0  0  0  0  0  0  0
   14.5070   -0.5869   22.8823 H   0  0  0  0  0  0  0  0  0  0  0  0
   12.6100   -0.0014   23.7571 C   0  0  0  0  0  0  0  0  0  0  0  0
   13.3150    0.4502   25.2611 Cl  0  0  0  0  0  0  0  0  0  0  0  0
   11.2202    0.0462   23.6433 C   0  0  0  0  0  0  0  0  0  0  0  0
   10.6220    0.4412   24.4607 H   0  0  0  0  0  0  0  0  0  0  0  0
    8.5310   -1.8269   23.3387 C   0  0  0  0  0  0  0  0  0  0  0  0
    9.0931   -2.3630   24.2847 O   0  0  0  0  0  0  0  0  0  0  0  0
    7.1562   -2.1341   22.9745 C   0  0  0  0  0  0  0  0  0  0  0  0
    6.6429   -2.8713   23.5751 H   0  0  0  0  0  0  0  0  0  0  0  0
    6.5724   -1.4889   21.9477 C   0  0  0  0  0  0  0  0  0  0  0  0
    5.5411   -1.6650   21.6482 H   0  0  0  0  0  0  0  0  0  0  0  0
    5.4137    0.7337   20.1718 C   0  0  0  0  0  0  0  0  0  0  0  0
    4.9206    0.7819   21.1428 H   0  0  0  0  0  0  0  0  0  0  0  0
    4.8803    1.3335   19.0280 C   0  0  0  0  0  0  0  0  0  0  0  0
    3.9428    1.8773   19.0662 H   0  0  0  0  0  0  0  0  0  0  0  0
  1  2  1  0
  2  3  2  0
  3  4  1  0
  4  5  1  0
  4  6  2  0
  6  7  1  0
  7  8  1  0
  8  9  2  0
  9 10  1  0
 10 11  2  0
 11 12  1  0
 11 13  1  0
 13 14  1  0
 13 15  2  0
 15 16  1  0
 15 17  1  0
 17 18  1  0
 17 19  2  0
 19 20  1  0
  9 21  1  0
 21 22  2  0
 21 23  1  0
 23 24  1  0
 23 25  2  0
 25 26  1  0
  6 27  1  0
 27 28  1  0
 27 29  2  0
 29 30  1  0
 29  2  1  0
 25  7  1  0
 19 10  1  0
M  END
>  <cnnaffinity>  (1) 
-5.5961

>  <filename>  (1) 
O=c1ccn(-c2cccnc2)nc1-c1cc(Cl)cc(Cl)c1

$$$$
