
     RDKit          3D

 30 32  0  0  0  0  0  0  0  0999 V2000
    4.9286    1.7840   16.9780 H   0  0  0  0  0  0  0  0  0  0  0  0
    5.4187    1.2980   17.8206 C   0  0  0  0  0  0  0  0  0  0  0  0
    6.5891    0.6950   17.5578 N   0  0  0  0  0  0  0  0  0  0  0  0
    7.2264    0.1162   18.5835 C   0  0  0  0  0  0  0  0  0  0  0  0
    8.1691   -0.3754   18.3506 H   0  0  0  0  0  0  0  0  0  0  0  0
    6.7139    0.0726   19.8908 C   0  0  0  0  0  0  0  0  0  0  0  0
    7.4552   -0.6772   20.9434 C   0  0  0  0  0  0  0  0  0  0  0  0
    8.7381   -0.4214   21.0396 N   0  0  0  0  0  0  0  0  0  0  0  0
    9.4732   -1.0625   21.9941 N   0  0  0  0  0  0  0  0  0  0  0  0
   10.8678   -0.7915   22.0307 C   0  0  0  0  0  0  0  0  0  0  0  0
   11.3259    0.5279   21.8837 C   0  0  0  0  0  0  0  0  0  0  0  0
   10.5819    1.2989   21.7103 H   0  0  0  0  0  0  0  0  0  0  0  0
   12.6900    0.8269   21.9822 C   0  0  0  0  0  0  0  0  0  0  0  0
   13.0252    1.8629   21.9319 H   0  0  0  0  0  0  0  0  0  0  0  0
   13.6280   -0.2113   22.0814 C   0  0  0  0  0  0  0  0  0  0  0  0
   14.6913    0.0141   22.1116 H   0  0  0  0  0  0  0  0  0  0  0  0
   13.1954   -1.5398   22.1511 C   0  0  0  0  0  0  0  0  0  0  0  0
   13.8873   -2.3799   22.1518 H   0  0  0  0  0  0  0  0  0  0  0  0
   11.8293   -1.8018   22.2366 C   0  0  0  0  0  0  0  0  0  0  0  0
   11.4505   -3.0545   22.5724 F   0  0  0  0  0  0  0  0  0  0  0  0
    8.8745   -1.9007   22.9079 C   0  0  0  0  0  0  0  0  0  0  0  0
    9.5558   -2.3351   23.6429 H   0  0  0  0  0  0  0  0  0  0  0  0
    7.5614   -2.1759   22.8905 C   0  0  0  0  0  0  0  0  0  0  0  0
    7.1073   -2.8253   23.6142 H   0  0  0  0  0  0  0  0  0  0  0  0
    6.7310   -1.7008   21.7998 C   0  0  0  0  0  0  0  0  0  0  0  0
    5.6052   -2.1238   21.5808 O   0  0  0  0  0  0  0  0  0  0  0  0
    5.4747    0.6849   20.1387 C   0  0  0  0  0  0  0  0  0  0  0  0
    5.0185    0.6071   21.1269 H   0  0  0  0  0  0  0  0  0  0  0  0
    4.8238    1.3254   19.0867 C   0  0  0  0  0  0  0  0  0  0  0  0
    3.8748    1.8300   19.2317 H   0  0  0  0  0  0  0  0  0  0  0  0
  1  2  1  0
  2  3  2  0
  3  4  1  0
  4  5  1  0
  4  6  2  0
  6  7  1  0
  7  8  2  0
  8  9  1  0
  9 10  1  0
 10 11  2  0
 11 12  1  0
 11 13  1  0
 13 14  1  0
 13 15  2  0
 15 16  1  0
 15 17  1  0
 17 18  1  0
 17 19  2  0
 19 20  1  0
  9 21  1  0
 21 22  1  0
 21 23  2  0
 23 24  1  0
 23 25  1  0
 25 26  2  0
  6 27  1  0
 27 28  1  0
 27 29  2  0
 29 30  1  0
 29  2  1  0
 25  7  1  0
 19 10  1  0
M  END
>  <cnnaffinity>  (1) 
-5.13974

>  <filename>  (1) 
O=c1ccn(-c2ccccc2F)nc1-c1cccnc1

$$$$
