
     RDKit          3D

 35 37  0  0  0  0  0  0  0  0999 V2000
    4.9182    1.8022   16.9831 H   0  0  0  0  0  0  0  0  0  0  0  0
    5.3854    1.3001   17.8285 C   0  0  0  0  0  0  0  0  0  0  0  0
    6.5419    0.6719   17.5665 N   0  0  0  0  0  0  0  0  0  0  0  0
    7.1572    0.0493   18.5771 C   0  0  0  0  0  0  0  0  0  0  0  0
    8.1162   -0.4179   18.3622 H   0  0  0  0  0  0  0  0  0  0  0  0
    6.6408   -0.0035   19.8844 C   0  0  0  0  0  0  0  0  0  0  0  0
    7.3478   -0.6844   20.9380 N   0  0  0  0  0  0  0  0  0  0  0  0
    6.7332   -1.7363   21.5835 C   0  0  0  0  0  0  0  0  0  0  0  0
    5.7220   -1.9455   21.2487 H   0  0  0  0  0  0  0  0  0  0  0  0
    7.3347   -2.4551   22.5786 C   0  0  0  0  0  0  0  0  0  0  0  0
    6.6445   -3.5887   23.2585 C   0  0  0  0  0  0  0  0  0  0  0  0
    6.7443   -3.7687   24.6490 C   0  0  0  0  0  0  0  0  0  0  0  0
    7.3240   -3.0529   25.2245 H   0  0  0  0  0  0  0  0  0  0  0  0
    6.1084   -4.8202   25.3093 C   0  0  0  0  0  0  0  0  0  0  0  0
    6.2049   -4.9407   26.3831 H   0  0  0  0  0  0  0  0  0  0  0  0
    5.3533   -5.7194   24.5536 C   0  0  0  0  0  0  0  0  0  0  0  0
    4.6727   -6.7984   25.0922 O   0  0  0  0  0  0  0  0  0  0  0  0
    4.6706   -7.0616   26.4151 C   0  0  0  0  0  0  0  0  0  0  0  0
    3.8962   -8.1225   26.5737 F   0  0  0  0  0  0  0  0  0  0  0  0
    4.1787   -6.0586   27.1616 F   0  0  0  0  0  0  0  0  0  0  0  0
    5.8964   -7.3218   26.8924 F   0  0  0  0  0  0  0  0  0  0  0  0
    5.2271   -5.5822   23.1667 C   0  0  0  0  0  0  0  0  0  0  0  0
    4.6266   -6.3076   22.6211 H   0  0  0  0  0  0  0  0  0  0  0  0
    5.8687   -4.5167   22.5313 C   0  0  0  0  0  0  0  0  0  0  0  0
    5.7930   -4.4071   21.4535 H   0  0  0  0  0  0  0  0  0  0  0  0
    8.6611   -2.0681   22.9639 C   0  0  0  0  0  0  0  0  0  0  0  0
    9.1629   -2.6348   23.7473 H   0  0  0  0  0  0  0  0  0  0  0  0
    9.2933   -1.0316   22.3520 C   0  0  0  0  0  0  0  0  0  0  0  0
   10.2902   -0.7004   22.6013 H   0  0  0  0  0  0  0  0  0  0  0  0
    8.6751   -0.2589   21.2878 C   0  0  0  0  0  0  0  0  0  0  0  0
    9.2280    0.6696   20.7215 O   0  0  0  0  0  0  0  0  0  0  0  0
    5.4285    0.6399   20.1449 C   0  0  0  0  0  0  0  0  0  0  0  0
    5.0312    0.6255   21.1596 H   0  0  0  0  0  0  0  0  0  0  0  0
    4.7950    1.3172   19.0964 C   0  0  0  0  0  0  0  0  0  0  0  0
    3.8682    1.8538   19.2478 H   0  0  0  0  0  0  0  0  0  0  0  0
  1  2  1  0
  2  3  2  0
  3  4  1  0
  4  5  1  0
  4  6  2  0
  6  7  1  0
  7  8  1  0
  8  9  1  0
  8 10  2  0
 10 11  1  0
 11 12  2  0
 12 13  1  0
 12 14  1  0
 14 15  1  0
 14 16  2  0
 16 17  1  0
 17 18  1  0
 18 19  1  0
 18 20  1  0
 18 21  1  0
 16 22  1  0
 22 23  1  0
 22 24  2  0
 24 25  1  0
 10 26  1  0
 26 27  1  0
 26 28  2  0
 28 29  1  0
 28 30  1  0
 30 31  2  0
  6 32  1  0
 32 33  1  0
 32 34  2  0
 34 35  1  0
 34  2  1  0
 30  7  1  0
 24 11  1  0
M  END
>  <cnnaffinity>  (1) 
-5.68701

>  <filename>  (1) 
O=c1ccc(-c2ccc(OC(F)(F)F)cc2)cn1-c1cccnc1

$$$$
