
     RDKit          3D

 27 29  0  0  0  0  0  0  0  0999 V2000
    7.1739   -4.9841   26.9611 H   0  0  0  0  0  0  0  0  0  0  0  0
    7.3013   -4.3491   26.0837 C   0  0  0  0  0  0  0  0  0  0  0  0
    8.5243   -4.2828   25.5552 N   0  0  0  0  0  0  0  0  0  0  0  0
    8.6694   -3.5024   24.4872 C   0  0  0  0  0  0  0  0  0  0  0  0
    9.6658   -3.4573   24.0437 H   0  0  0  0  0  0  0  0  0  0  0  0
    7.6175   -2.7809   23.9216 C   0  0  0  0  0  0  0  0  0  0  0  0
    7.7351   -1.9376   22.7498 C   0  0  0  0  0  0  0  0  0  0  0  0
    6.7654   -1.4500   21.9514 C   0  0  0  0  0  0  0  0  0  0  0  0
    5.6998   -1.6000   21.9863 H   0  0  0  0  0  0  0  0  0  0  0  0
    7.3575   -0.6856   20.9503 N   0  0  0  0  0  0  0  0  0  0  0  0
    6.6672    0.0018   19.9089 C   0  0  0  0  0  0  0  0  0  0  0  0
    7.1804    0.0586   18.5929 C   0  0  0  0  0  0  0  0  0  0  0  0
    8.1290   -0.4302   18.3811 H   0  0  0  0  0  0  0  0  0  0  0  0
    6.5629    0.6780   17.5794 N   0  0  0  0  0  0  0  0  0  0  0  0
    5.3978    1.2940   17.8427 C   0  0  0  0  0  0  0  0  0  0  0  0
    4.9074    1.7762   17.0012 H   0  0  0  0  0  0  0  0  0  0  0  0
    4.8076    1.3115   19.1113 C   0  0  0  0  0  0  0  0  0  0  0  0
    3.8729    1.8444   19.2668 H   0  0  0  0  0  0  0  0  0  0  0  0
    5.4473    0.6452   20.1619 C   0  0  0  0  0  0  0  0  0  0  0  0
    5.0158    0.6298   21.1636 H   0  0  0  0  0  0  0  0  0  0  0  0
    8.7503   -0.6846   21.1402 C   0  0  0  0  0  0  0  0  0  0  0  0
    9.5948   -0.1107   20.4804 O   0  0  0  0  0  0  0  0  0  0  0  0
    8.9396   -1.4831   22.2401 N   0  0  0  0  0  0  0  0  0  0  0  0
    9.8690   -1.6085   22.5946 H   0  0  0  0  0  0  0  0  0  0  0  0
    6.3889   -2.9403   24.5677 C   0  0  0  0  0  0  0  0  0  0  0  0
    5.5086   -2.4075   24.1997 H   0  0  0  0  0  0  0  0  0  0  0  0
    6.2172   -3.7120   25.6363 N   0  0  0  0  0  0  0  0  0  0  0  0
  1  2  1  0
  2  3  2  0
  3  4  1  0
  4  5  1  0
  4  6  2  0
  6  7  1  0
  7  8  2  0
  8  9  1  0
  8 10  1  0
 10 11  1  0
 11 12  2  0
 12 13  1  0
 12 14  1  0
 14 15  2  0
 15 16  1  0
 15 17  1  0
 17 18  1  0
 17 19  2  0
 19 20  1  0
 10 21  1  0
 21 22  2  0
 21 23  1  0
 23 24  1  0
  6 25  1  0
 25 26  1  0
 25 27  2  0
 27  2  1  0
 23  7  1  0
 19 11  1  0
M  END
>  <cnnaffinity>  (1) 
-5.08629

>  <filename>  (1) 
O=c1[nH]c(-c2cncnc2)cn1-c1cccnc1

$$$$
