
     RDKit          3D

 39 42  0  0  0  0  0  0  0  0999 V2000
    4.9075    1.7765   17.0009 H   0  0  0  0  0  0  0  0  0  0  0  0
    5.3980    1.2939   17.8420 C   0  0  0  0  0  0  0  0  0  0  0  0
    6.5626    0.6777   17.5793 N   0  0  0  0  0  0  0  0  0  0  0  0
    7.1801    0.0585   18.5922 C   0  0  0  0  0  0  0  0  0  0  0  0
    8.1285   -0.4299   18.3811 H   0  0  0  0  0  0  0  0  0  0  0  0
    6.6672    0.0024   19.9077 C   0  0  0  0  0  0  0  0  0  0  0  0
    7.3585   -0.6825   20.9481 N   0  0  0  0  0  0  0  0  0  0  0  0
    6.7689   -1.4536   21.9432 C   0  0  0  0  0  0  0  0  0  0  0  0
    5.7002   -1.5815   21.9959 H   0  0  0  0  0  0  0  0  0  0  0  0
    7.7400   -1.9376   22.7490 C   0  0  0  0  0  0  0  0  0  0  0  0
    7.6188   -2.7870   23.9296 C   0  0  0  0  0  0  0  0  0  0  0  0
    8.6368   -2.8682   24.8923 C   0  0  0  0  0  0  0  0  0  0  0  0
    9.5485   -2.2894   24.7812 H   0  0  0  0  0  0  0  0  0  0  0  0
    8.4737   -3.6798   26.0108 C   0  0  0  0  0  0  0  0  0  0  0  0
    9.2625   -3.7387   26.7520 H   0  0  0  0  0  0  0  0  0  0  0  0
    7.2977   -4.4108   26.1829 C   0  0  0  0  0  0  0  0  0  0  0  0
    7.1883   -5.0525   27.0522 H   0  0  0  0  0  0  0  0  0  0  0  0
    6.2633   -4.3447   25.2327 C   0  0  0  0  0  0  0  0  0  0  0  0
    5.0100   -5.1285   25.4117 C   0  0  0  0  0  0  0  0  0  0  0  0
    4.4046   -5.2290   26.6774 C   0  0  0  0  0  0  0  0  0  0  0  0
    4.8468   -4.7158   27.5296 H   0  0  0  0  0  0  0  0  0  0  0  0
    3.2296   -5.9629   26.8494 C   0  0  0  0  0  0  0  0  0  0  0  0
    2.7767   -6.0320   27.8347 H   0  0  0  0  0  0  0  0  0  0  0  0
    2.6447   -6.6134   25.7587 C   0  0  0  0  0  0  0  0  0  0  0  0
    1.7325   -7.1863   25.8937 H   0  0  0  0  0  0  0  0  0  0  0  0
    3.2368   -6.5256   24.4949 C   0  0  0  0  0  0  0  0  0  0  0  0
    2.7846   -7.0258   23.6432 H   0  0  0  0  0  0  0  0  0  0  0  0
    4.4082   -5.7861   24.3222 C   0  0  0  0  0  0  0  0  0  0  0  0
    4.8714   -5.7337   23.3390 H   0  0  0  0  0  0  0  0  0  0  0  0
    6.4400   -3.5273   24.1115 C   0  0  0  0  0  0  0  0  0  0  0  0
    5.6442   -3.4602   23.3715 H   0  0  0  0  0  0  0  0  0  0  0  0
    8.9412   -1.4586   22.2427 N   0  0  0  0  0  0  0  0  0  0  0  0
    9.8721   -1.6277   22.5737 H   0  0  0  0  0  0  0  0  0  0  0  0
    8.7509   -0.6746   21.1370 C   0  0  0  0  0  0  0  0  0  0  0  0
    9.5965   -0.1065   20.4765 O   0  0  0  0  0  0  0  0  0  0  0  0
    5.4472    0.6451   20.1624 C   0  0  0  0  0  0  0  0  0  0  0  0
    5.0161    0.6300   21.1643 H   0  0  0  0  0  0  0  0  0  0  0  0
    4.8081    1.3113   19.1109 C   0  0  0  0  0  0  0  0  0  0  0  0
    3.8729    1.8442   19.2668 H   0  0  0  0  0  0  0  0  0  0  0  0
  1  2  1  0
  2  3  2  0
  3  4  1  0
  4  5  1  0
  4  6  2  0
  6  7  1  0
  7  8  1  0
  8  9  1  0
  8 10  2  0
 10 11  1  0
 11 12  2  0
 12 13  1  0
 12 14  1  0
 14 15  1  0
 14 16  2  0
 16 17  1  0
 16 18  1  0
 18 19  1  0
 19 20  2  0
 20 21  1  0
 20 22  1  0
 22 23  1  0
 22 24  2  0
 24 25  1  0
 24 26  1  0
 26 27  1  0
 26 28  2  0
 28 29  1  0
 18 30  2  0
 30 31  1  0
 10 32  1  0
 32 33  1  0
 32 34  1  0
 34 35  2  0
  6 36  1  0
 36 37  1  0
 36 38  2  0
 38 39  1  0
 38  2  1  0
 34  7  1  0
 30 11  1  0
 28 19  1  0
M  END
>  <cnnaffinity>  (1) 
-5.62421

>  <filename>  (1) 
O=c1[nH]c(-c2cccc(-c3ccccc3)c2)cn1-c1cccnc1

$$$$
