
     RDKit          3D

 29 31  0  0  0  0  0  0  0  0999 V2000
    5.0176    1.8610   16.9377 H   0  0  0  0  0  0  0  0  0  0  0  0
    5.4918    1.3322   17.7626 C   0  0  0  0  0  0  0  0  0  0  0  0
    6.6704    0.7450   17.4968 N   0  0  0  0  0  0  0  0  0  0  0  0
    7.2707    0.0735   18.4846 C   0  0  0  0  0  0  0  0  0  0  0  0
    8.2316   -0.3793   18.2512 H   0  0  0  0  0  0  0  0  0  0  0  0
    6.7188   -0.0806   19.7734 C   0  0  0  0  0  0  0  0  0  0  0  0
    7.3759   -0.8553   20.7663 N   0  0  0  0  0  0  0  0  0  0  0  0
    6.8371   -1.8050   21.6614 C   0  0  0  0  0  0  0  0  0  0  0  0
    5.7011   -2.2386   21.6068 O   0  0  0  0  0  0  0  0  0  0  0  0
    7.9611   -2.1112   22.5797 C   0  0  0  0  0  0  0  0  0  0  0  0
    7.8657   -2.9272   23.8039 C   0  0  0  0  0  0  0  0  0  0  0  0
    6.6819   -2.9255   24.5655 C   0  0  0  0  0  0  0  0  0  0  0  0
    5.8489   -2.3116   24.2344 H   0  0  0  0  0  0  0  0  0  0  0  0
    6.5796   -3.7050   25.7174 C   0  0  0  0  0  0  0  0  0  0  0  0
    5.6648   -3.6922   26.3019 H   0  0  0  0  0  0  0  0  0  0  0  0
    7.6459   -4.5166   26.1189 C   0  0  0  0  0  0  0  0  0  0  0  0
    7.5738   -5.1507   26.9950 H   0  0  0  0  0  0  0  0  0  0  0  0
    8.8247   -4.5106   25.3688 C   0  0  0  0  0  0  0  0  0  0  0  0
   10.1470   -5.5331   25.8555 Cl  0  0  0  0  0  0  0  0  0  0  0  0
    8.9553   -3.7096   24.2336 C   0  0  0  0  0  0  0  0  0  0  0  0
    9.8926   -3.7073   23.6839 H   0  0  0  0  0  0  0  0  0  0  0  0
    9.0403   -1.4377   22.1068 C   0  0  0  0  0  0  0  0  0  0  0  0
   10.0370   -1.3952   22.5285 H   0  0  0  0  0  0  0  0  0  0  0  0
    8.7636   -0.7637   20.9206 N   0  0  0  0  0  0  0  0  0  0  0  0
    9.1168    0.1854   20.7881 H   0  0  0  0  0  0  0  0  0  0  0  0
    5.5059    0.5709   20.0499 C   0  0  0  0  0  0  0  0  0  0  0  0
    5.0867    0.5375   21.0528 H   0  0  0  0  0  0  0  0  0  0  0  0
    4.8838    1.2839   19.0198 C   0  0  0  0  0  0  0  0  0  0  0  0
    3.9517    1.8140   19.1831 H   0  0  0  0  0  0  0  0  0  0  0  0
  1  2  1  0
  2  3  2  0
  3  4  1  0
  4  5  1  0
  4  6  2  0
  6  7  1  0
  7  8  1  0
  8  9  2  0
  8 10  1  0
 10 11  1  0
 11 12  2  0
 12 13  1  0
 12 14  1  0
 14 15  1  0
 14 16  2  0
 16 17  1  0
 16 18  1  0
 18 19  1  0
 18 20  2  0
 20 21  1  0
 10 22  2  0
 22 23  1  0
 22 24  1  0
 24 25  1  0
  6 26  1  0
 26 27  1  0
 26 28  2  0
 28 29  1  0
 28  2  1  0
 24  7  1  0
 20 11  1  0
M  END
>  <cnnaffinity>  (1) 
-5.33947

>  <filename>  (1) 
O=c1c(-c2cccc(Cl)c2)c[nH]n1-c1cccnc1

$$$$
