
     RDKit          3D

 35 38  0  0  0  0  0  0  0  0999 V2000
    4.8924    1.8072   16.8705 H   0  0  0  0  0  0  0  0  0  0  0  0
    5.3923    1.3312   17.7094 C   0  0  0  0  0  0  0  0  0  0  0  0
    6.5387    0.6917   17.4266 N   0  0  0  0  0  0  0  0  0  0  0  0
    7.1908    0.0891   18.4300 C   0  0  0  0  0  0  0  0  0  0  0  0
    8.1129   -0.4278   18.1688 H   0  0  0  0  0  0  0  0  0  0  0  0
    6.7272    0.0927   19.7644 C   0  0  0  0  0  0  0  0  0  0  0  0
    7.3797   -0.5832   20.8345 N   0  0  0  0  0  0  0  0  0  0  0  0
    6.7266   -1.4043   21.7478 C   0  0  0  0  0  0  0  0  0  0  0  0
    5.6603   -1.5355   21.6856 H   0  0  0  0  0  0  0  0  0  0  0  0
    7.6358   -1.9160   22.6090 C   0  0  0  0  0  0  0  0  0  0  0  0
    7.4960   -2.8613   23.7097 C   0  0  0  0  0  0  0  0  0  0  0  0
    6.2693   -3.5249   23.9091 C   0  0  0  0  0  0  0  0  0  0  0  0
    5.4137   -3.2700   23.2893 H   0  0  0  0  0  0  0  0  0  0  0  0
    6.1248   -4.4651   24.9285 C   0  0  0  0  0  0  0  0  0  0  0  0
    5.1791   -4.9708   25.1025 H   0  0  0  0  0  0  0  0  0  0  0  0
    7.2027   -4.7580   25.7664 C   0  0  0  0  0  0  0  0  0  0  0  0
    8.4264   -4.0613   25.5925 C   0  0  0  0  0  0  0  0  0  0  0  0
    8.5652   -3.1351   24.5800 C   0  0  0  0  0  0  0  0  0  0  0  0
    9.5254   -2.6337   24.5284 H   0  0  0  0  0  0  0  0  0  0  0  0
    9.5020   -4.2736   26.4146 O   0  0  0  0  0  0  0  0  0  0  0  0
    9.1425   -4.8222   27.6778 C   0  0  0  0  0  0  0  0  0  0  0  0
    8.6098   -4.0532   28.2552 H   0  0  0  0  0  0  0  0  0  0  0  0
   10.0764   -5.1097   28.1621 H   0  0  0  0  0  0  0  0  0  0  0  0
    8.2344   -6.0278   27.4834 C   0  0  0  0  0  0  0  0  0  0  0  0
    8.7713   -6.8123   26.9310 H   0  0  0  0  0  0  0  0  0  0  0  0
    7.9256   -6.4054   28.4584 H   0  0  0  0  0  0  0  0  0  0  0  0
    7.0381   -5.6587   26.7844 O   0  0  0  0  0  0  0  0  0  0  0  0
    8.8549   -1.3475   22.2539 N   0  0  0  0  0  0  0  0  0  0  0  0
    9.7807   -1.6635   22.4770 H   0  0  0  0  0  0  0  0  0  0  0  0
    8.7502   -0.5819   21.1249 C   0  0  0  0  0  0  0  0  0  0  0  0
    9.6711   -0.0629   20.5325 O   0  0  0  0  0  0  0  0  0  0  0  0
    5.5231    0.7522   20.0359 C   0  0  0  0  0  0  0  0  0  0  0  0
    5.1454    0.7573   21.0575 H   0  0  0  0  0  0  0  0  0  0  0  0
    4.8439    1.3853   18.9944 C   0  0  0  0  0  0  0  0  0  0  0  0
    3.9069    1.9038   19.1679 H   0  0  0  0  0  0  0  0  0  0  0  0
  1  2  1  0
  2  3  2  0
  3  4  1  0
  4  5  1  0
  4  6  2  0
  6  7  1  0
  7  8  1  0
  8  9  1  0
  8 10  2  0
 10 11  1  0
 11 12  2  0
 12 13  1  0
 12 14  1  0
 14 15  1  0
 14 16  2  0
 16 17  1  0
 17 18  2  0
 18 19  1  0
 17 20  1  0
 20 21  1  0
 21 22  1  0
 21 23  1  0
 21 24  1  0
 24 25  1  0
 24 26  1  0
 24 27  1  0
 10 28  1  0
 28 29  1  0
 28 30  1  0
 30 31  2  0
  6 32  1  0
 32 33  1  0
 32 34  2  0
 34 35  1  0
 34  2  1  0
 30  7  1  0
 18 11  1  0
 27 16  1  0
M  END
>  <cnnaffinity>  (1) 
-5.3251

>  <filename>  (1) 
O=c1[nH]c(-c2ccc3c(c2)OCCO3)cn1-c1cccnc1

$$$$
