
     RDKit          3D

 35 38  0  0  0  0  0  0  0  0999 V2000
    4.9486    1.8426   16.9217 H   0  0  0  0  0  0  0  0  0  0  0  0
    5.3974    1.3289   17.7714 C   0  0  0  0  0  0  0  0  0  0  0  0
    6.5551    0.6899   17.5376 N   0  0  0  0  0  0  0  0  0  0  0  0
    7.1281    0.0626   18.5757 C   0  0  0  0  0  0  0  0  0  0  0  0
    8.0724   -0.4336   18.3506 H   0  0  0  0  0  0  0  0  0  0  0  0
    6.5928    0.0027   19.8812 C   0  0  0  0  0  0  0  0  0  0  0  0
    7.3000   -0.7384   20.9746 C   0  0  0  0  0  0  0  0  0  0  0  0
    8.7088   -0.6210   21.1332 C   0  0  0  0  0  0  0  0  0  0  0  0
    9.2662    0.0415   20.4741 H   0  0  0  0  0  0  0  0  0  0  0  0
    9.4269   -1.2975   22.0977 C   0  0  0  0  0  0  0  0  0  0  0  0
   10.8682   -1.1152   22.2026 C   0  0  0  0  0  0  0  0  0  0  0  0
   11.7970   -2.1101   22.3242 C   0  0  0  0  0  0  0  0  0  0  0  0
   11.6067   -3.1724   22.4356 H   0  0  0  0  0  0  0  0  0  0  0  0
   13.0618   -1.5735   22.3395 N   0  0  0  0  0  0  0  0  0  0  0  0
   13.9045   -2.0840   22.5466 H   0  0  0  0  0  0  0  0  0  0  0  0
   12.9734   -0.1980   22.3504 C   0  0  0  0  0  0  0  0  0  0  0  0
   13.9568    0.7777   22.5943 C   0  0  0  0  0  0  0  0  0  0  0  0
   15.0011    0.5099   22.7308 H   0  0  0  0  0  0  0  0  0  0  0  0
   13.5503    2.1106   22.6122 C   0  0  0  0  0  0  0  0  0  0  0  0
   14.2725    2.8899   22.8393 H   0  0  0  0  0  0  0  0  0  0  0  0
   12.2087    2.4786   22.3265 C   0  0  0  0  0  0  0  0  0  0  0  0
   11.9323    3.5320   22.2682 H   0  0  0  0  0  0  0  0  0  0  0  0
   11.2417    1.5035   22.1075 C   0  0  0  0  0  0  0  0  0  0  0  0
   10.2016    1.7785   21.9335 H   0  0  0  0  0  0  0  0  0  0  0  0
   11.6086    0.1381   22.1722 C   0  0  0  0  0  0  0  0  0  0  0  0
    8.7171   -2.2044   23.0190 C   0  0  0  0  0  0  0  0  0  0  0  0
    9.1473   -2.8950   23.9275 O   0  0  0  0  0  0  0  0  0  0  0  0
    7.3297   -2.2361   22.8106 N   0  0  0  0  0  0  0  0  0  0  0  0
    6.9125   -2.8040   23.5347 H   0  0  0  0  0  0  0  0  0  0  0  0
    6.6347   -1.5618   21.8493 C   0  0  0  0  0  0  0  0  0  0  0  0
    5.5623   -1.7328   21.7935 H   0  0  0  0  0  0  0  0  0  0  0  0
    5.3814    0.6825   20.0939 C   0  0  0  0  0  0  0  0  0  0  0  0
    4.9378    0.7228   21.0892 H   0  0  0  0  0  0  0  0  0  0  0  0
    4.7798    1.3511   19.0250 C   0  0  0  0  0  0  0  0  0  0  0  0
    3.8472    1.8869   19.1499 H   0  0  0  0  0  0  0  0  0  0  0  0
  1  2  1  0
  2  3  2  0
  3  4  1  0
  4  5  1  0
  4  6  2  0
  6  7  1  0
  7  8  1  0
  8  9  1  0
  8 10  2  0
 10 11  1  0
 11 12  2  0
 12 13  1  0
 12 14  1  0
 14 15  1  0
 14 16  1  0
 16 17  2  0
 17 18  1  0
 17 19  1  0
 19 20  1  0
 19 21  2  0
 21 22  1  0
 21 23  1  0
 23 24  1  0
 23 25  2  0
 10 26  1  0
 26 27  2  0
 26 28  1  0
 28 29  1  0
 28 30  1  0
 30 31  1  0
  6 32  1  0
 32 33  1  0
 32 34  2  0
 34 35  1  0
 34  2  1  0
 30  7  2  0
 25 11  1  0
 25 16  1  0
M  END
>  <cnnaffinity>  (1) 
-6.0635

>  <filename>  (1) 
O=c1[nH]cc(-c2cccnc2)cc1-c1c[nH]c2ccccc12

$$$$
