
     RDKit          3D

 33 36  0  0  0  0  0  0  0  0999 V2000
    4.9422    1.7765   16.9530 H   0  0  0  0  0  0  0  0  0  0  0  0
    5.4051    1.3122   17.8226 C   0  0  0  0  0  0  0  0  0  0  0  0
    6.5867    0.7101   17.6148 N   0  0  0  0  0  0  0  0  0  0  0  0
    7.1625    0.1288   18.6725 C   0  0  0  0  0  0  0  0  0  0  0  0
    8.1263   -0.3352   18.4785 H   0  0  0  0  0  0  0  0  0  0  0  0
    6.6270    0.1029   19.9707 C   0  0  0  0  0  0  0  0  0  0  0  0
    7.3751   -0.5941   21.0559 C   0  0  0  0  0  0  0  0  0  0  0  0
    7.1588   -0.1650   22.3284 N   0  0  0  0  0  0  0  0  0  0  0  0
    7.8056   -0.7426   23.3345 C   0  0  0  0  0  0  0  0  0  0  0  0
    7.6262   -0.1038   24.6197 C   0  0  0  0  0  0  0  0  0  0  0  0
    8.2726   -0.6133   25.7101 O   0  0  0  0  0  0  0  0  0  0  0  0
    7.9300    0.1789   26.7540 C   0  0  0  0  0  0  0  0  0  0  0  0
    8.3599    0.0233   28.0675 C   0  0  0  0  0  0  0  0  0  0  0  0
    9.0722   -0.7563   28.3122 H   0  0  0  0  0  0  0  0  0  0  0  0
    7.8394    0.9095   29.0121 C   0  0  0  0  0  0  0  0  0  0  0  0
    8.1206    0.7991   30.0530 H   0  0  0  0  0  0  0  0  0  0  0  0
    6.9548    1.9468   28.6503 C   0  0  0  0  0  0  0  0  0  0  0  0
    6.5671    2.6237   29.4116 H   0  0  0  0  0  0  0  0  0  0  0  0
    6.5716    2.1114   27.3232 C   0  0  0  0  0  0  0  0  0  0  0  0
    5.9072    2.9202   27.0407 H   0  0  0  0  0  0  0  0  0  0  0  0
    7.0570    1.2071   26.3478 C   0  0  0  0  0  0  0  0  0  0  0  0
    6.8912    1.0000   24.9344 C   0  0  0  0  0  0  0  0  0  0  0  0
    6.3358    1.5658   24.1950 H   0  0  0  0  0  0  0  0  0  0  0  0
    8.6706   -1.9690   23.1718 C   0  0  0  0  0  0  0  0  0  0  0  0
    9.2471   -2.6568   23.9920 O   0  0  0  0  0  0  0  0  0  0  0  0
    8.8045   -2.3266   21.8209 N   0  0  0  0  0  0  0  0  0  0  0  0
    9.3897   -3.1502   21.7244 H   0  0  0  0  0  0  0  0  0  0  0  0
    8.2451   -1.6235   20.7855 C   0  0  0  0  0  0  0  0  0  0  0  0
    8.5591   -1.8744   19.7863 H   0  0  0  0  0  0  0  0  0  0  0  0
    5.3919    0.7460   20.1693 C   0  0  0  0  0  0  0  0  0  0  0  0
    4.9445    0.7771   21.1646 H   0  0  0  0  0  0  0  0  0  0  0  0
    4.7725    1.3482   19.0716 C   0  0  0  0  0  0  0  0  0  0  0  0
    3.8129    1.8446   19.1678 H   0  0  0  0  0  0  0  0  0  0  0  0
  1  2  1  0
  2  3  2  0
  3  4  1  0
  4  5  1  0
  4  6  2  0
  6  7  1  0
  7  8  1  0
  8  9  2  0
  9 10  1  0
 10 11  1  0
 11 12  1  0
 12 13  2  0
 13 14  1  0
 13 15  1  0
 15 16  1  0
 15 17  2  0
 17 18  1  0
 17 19  1  0
 19 20  1  0
 19 21  2  0
 21 22  1  0
 22 23  1  0
  9 24  1  0
 24 25  2  0
 24 26  1  0
 26 27  1  0
 26 28  1  0
 28 29  1  0
  6 30  1  0
 30 31  1  0
 30 32  2  0
 32 33  1  0
 32  2  1  0
 28  7  2  0
 22 10  2  0
 21 12  1  0
M  END
>  <cnnaffinity>  (1) 
-5.00067

>  <filename>  (1) 
O=c1[nH]cc(-c2cccnc2)nc1-c1cc2ccccc2o1

$$$$
