
     RDKit          3D

 35 38  0  0  0  0  0  0  0  0999 V2000
    4.9957    1.8276   17.0638 H   0  0  0  0  0  0  0  0  0  0  0  0
    5.4382    1.2755   17.8923 C   0  0  0  0  0  0  0  0  0  0  0  0
    6.5799    0.6193   17.6276 N   0  0  0  0  0  0  0  0  0  0  0  0
    7.1541   -0.0479   18.6344 C   0  0  0  0  0  0  0  0  0  0  0  0
    8.0778   -0.5755   18.4082 H   0  0  0  0  0  0  0  0  0  0  0  0
    6.6292   -0.1185   19.9362 C   0  0  0  0  0  0  0  0  0  0  0  0
    7.3322   -0.8213   20.9641 N   0  0  0  0  0  0  0  0  0  0  0  0
    6.5924   -1.5903   21.8002 N   0  0  0  0  0  0  0  0  0  0  0  0
    7.1944   -2.2285   22.7851 C   0  0  0  0  0  0  0  0  0  0  0  0
    6.3106   -3.0749   23.6499 C   0  0  0  0  0  0  0  0  0  0  0  0
    6.8157   -3.6565   24.7136 N   0  0  0  0  0  0  0  0  0  0  0  0
    6.0012   -4.3606   25.5368 C   0  0  0  0  0  0  0  0  0  0  0  0
    6.6374   -5.0552   26.6042 C   0  0  0  0  0  0  0  0  0  0  0  0
    7.7144   -4.9205   26.6675 H   0  0  0  0  0  0  0  0  0  0  0  0
    5.8867   -5.8156   27.4723 C   0  0  0  0  0  0  0  0  0  0  0  0
    6.3717   -6.3623   28.2807 H   0  0  0  0  0  0  0  0  0  0  0  0
    4.4613   -5.8433   27.3528 C   0  0  0  0  0  0  0  0  0  0  0  0
    3.8881   -6.4105   28.0828 H   0  0  0  0  0  0  0  0  0  0  0  0
    3.8143   -5.1662   26.3395 C   0  0  0  0  0  0  0  0  0  0  0  0
    2.7258   -5.1742   26.2622 H   0  0  0  0  0  0  0  0  0  0  0  0
    4.5804   -4.4542   25.3640 C   0  0  0  0  0  0  0  0  0  0  0  0
    4.0647   -3.8762   24.1642 C   0  0  0  0  0  0  0  0  0  0  0  0
    3.0039   -3.9590   23.9320 H   0  0  0  0  0  0  0  0  0  0  0  0
    4.9243   -3.2486   23.2985 C   0  0  0  0  0  0  0  0  0  0  0  0
    4.5963   -2.8132   22.3646 H   0  0  0  0  0  0  0  0  0  0  0  0
    8.6635   -2.1493   23.0609 C   0  0  0  0  0  0  0  0  0  0  0  0
    9.2744   -2.7322   23.9436 O   0  0  0  0  0  0  0  0  0  0  0  0
    9.3663   -1.2783   22.1144 C   0  0  0  0  0  0  0  0  0  0  0  0
   10.4343   -1.1647   22.2481 H   0  0  0  0  0  0  0  0  0  0  0  0
    8.6948   -0.6646   21.1320 C   0  0  0  0  0  0  0  0  0  0  0  0
    9.1763    0.0236   20.4368 H   0  0  0  0  0  0  0  0  0  0  0  0
    5.4240    0.5442   20.1997 C   0  0  0  0  0  0  0  0  0  0  0  0
    4.9985    0.4864   21.2016 H   0  0  0  0  0  0  0  0  0  0  0  0
    4.8292    1.2632   19.1544 C   0  0  0  0  0  0  0  0  0  0  0  0
    3.9116    1.8219   19.3050 H   0  0  0  0  0  0  0  0  0  0  0  0
  1  2  1  0
  2  3  2  0
  3  4  1  0
  4  5  1  0
  4  6  2  0
  6  7  1  0
  7  8  1  0
  8  9  2  0
  9 10  1  0
 10 11  2  0
 11 12  1  0
 12 13  2  0
 13 14  1  0
 13 15  1  0
 15 16  1  0
 15 17  2  0
 17 18  1  0
 17 19  1  0
 19 20  1  0
 19 21  2  0
 21 22  1  0
 22 23  1  0
 22 24  2  0
 24 25  1  0
  9 26  1  0
 26 27  2  0
 26 28  1  0
 28 29  1  0
 28 30  2  0
 30 31  1  0
  6 32  1  0
 32 33  1  0
 32 34  2  0
 34 35  1  0
 34  2  1  0
 30  7  1  0
 24 10  1  0
 21 12  1  0
M  END
>  <cnnaffinity>  (1) 
-5.47774

>  <filename>  (1) 
O=c1ccn(-c2cccnc2)nc1-c1ccc2ccccc2n1

$$$$
