
     RDKit          3D

 29 31  0  0  0  0  0  0  0  0999 V2000
    4.9498    1.7981   17.0906 H   0  0  0  0  0  0  0  0  0  0  0  0
    5.4123    1.2368   17.8994 C   0  0  0  0  0  0  0  0  0  0  0  0
    6.5578    0.6001   17.6001 N   0  0  0  0  0  0  0  0  0  0  0  0
    7.1584   -0.0730   18.5864 C   0  0  0  0  0  0  0  0  0  0  0  0
    8.1210   -0.5235   18.3572 H   0  0  0  0  0  0  0  0  0  0  0  0
    6.6418   -0.1912   19.8997 C   0  0  0  0  0  0  0  0  0  0  0  0
    7.3972   -0.8675   20.9244 N   0  0  0  0  0  0  0  0  0  0  0  0
    7.0815   -1.8267   21.8836 C   0  0  0  0  0  0  0  0  0  0  0  0
    5.8965   -2.4929   21.8538 N   0  0  0  0  0  0  0  0  0  0  0  0
    5.2589   -2.0440   21.2167 H   0  0  0  0  0  0  0  0  0  0  0  0
    5.2973   -3.0839   22.9880 C   0  0  0  0  0  0  0  0  0  0  0  0
    5.6101   -2.7085   24.3007 C   0  0  0  0  0  0  0  0  0  0  0  0
    6.4673   -2.0834   24.5152 H   0  0  0  0  0  0  0  0  0  0  0  0
    4.7731   -3.1528   25.3181 C   0  0  0  0  0  0  0  0  0  0  0  0
    4.9580   -2.8442   26.3504 H   0  0  0  0  0  0  0  0  0  0  0  0
    3.7278   -3.9734   25.1308 N   0  0  0  0  0  0  0  0  0  0  0  0
    3.5057   -4.3958   23.8800 C   0  0  0  0  0  0  0  0  0  0  0  0
    2.6787   -5.0965   23.7493 H   0  0  0  0  0  0  0  0  0  0  0  0
    4.2589   -3.9924   22.7828 C   0  0  0  0  0  0  0  0  0  0  0  0
    4.0687   -4.3913   21.7994 H   0  0  0  0  0  0  0  0  0  0  0  0
    8.0533   -2.0866   22.7065 N   0  0  0  0  0  0  0  0  0  0  0  0
    9.0252   -1.1860   22.3207 N   0  0  0  0  0  0  0  0  0  0  0  0
    9.9902   -1.2471   22.5950 H   0  0  0  0  0  0  0  0  0  0  0  0
    8.7247   -0.5020   21.1967 C   0  0  0  0  0  0  0  0  0  0  0  0
    9.4538    0.2379   20.5648 O   0  0  0  0  0  0  0  0  0  0  0  0
    5.4523    0.4823   20.1971 C   0  0  0  0  0  0  0  0  0  0  0  0
    5.0517    0.4849   21.2129 H   0  0  0  0  0  0  0  0  0  0  0  0
    4.8323    1.2137   19.1712 C   0  0  0  0  0  0  0  0  0  0  0  0
    3.9256    1.7801   19.3561 H   0  0  0  0  0  0  0  0  0  0  0  0
  1  2  1  0
  2  3  2  0
  3  4  1  0
  4  5  1  0
  4  6  2  0
  6  7  1  0
  7  8  1  0
  8  9  1  0
  9 10  1  0
  9 11  1  0
 11 12  2  0
 12 13  1  0
 12 14  1  0
 14 15  1  0
 14 16  2  0
 16 17  1  0
 17 18  1  0
 17 19  2  0
 19 20  1  0
  8 21  2  0
 21 22  1  0
 22 23  1  0
 22 24  1  0
 24 25  2  0
  6 26  1  0
 26 27  1  0
 26 28  2  0
 28 29  1  0
 28  2  1  0
 24  7  1  0
 19 11  1  0
M  END
>  <cnnaffinity>  (1) 
-4.80784

>  <filename>  (1) 
O=c1[nH]nc(Nc2ccncc2)n1-c1cccnc1

$$$$
