
     RDKit          3D

 31 33  0  0  0  0  0  0  0  0999 V2000
    5.1599    2.0776   16.8226 H   0  0  0  0  0  0  0  0  0  0  0  0
    5.4962    1.4469   17.6448 C   0  0  0  0  0  0  0  0  0  0  0  0
    6.6197    0.7447   17.4269 N   0  0  0  0  0  0  0  0  0  0  0  0
    7.0701   -0.0273   18.4237 C   0  0  0  0  0  0  0  0  0  0  0  0
    7.9777   -0.5977   18.2331 H   0  0  0  0  0  0  0  0  0  0  0  0
    6.4263   -0.1572   19.6682 C   0  0  0  0  0  0  0  0  0  0  0  0
    7.0149   -0.9380   20.7310 N   0  0  0  0  0  0  0  0  0  0  0  0
    8.2186   -0.5085   21.2537 C   0  0  0  0  0  0  0  0  0  0  0  0
    8.6577    0.3681   20.7855 H   0  0  0  0  0  0  0  0  0  0  0  0
    8.8115   -1.1310   22.3110 C   0  0  0  0  0  0  0  0  0  0  0  0
   10.1674   -0.7440   22.7550 C   0  0  0  0  0  0  0  0  0  0  0  0
   10.3521    0.0618   23.8874 C   0  0  0  0  0  0  0  0  0  0  0  0
    9.4854    0.3742   24.4604 H   0  0  0  0  0  0  0  0  0  0  0  0
   11.6360    0.4539   24.2678 C   0  0  0  0  0  0  0  0  0  0  0  0
   11.8010    1.1194   25.1134 H   0  0  0  0  0  0  0  0  0  0  0  0
   12.7412    0.0042   23.5354 C   0  0  0  0  0  0  0  0  0  0  0  0
   14.3156    0.4436   24.0571 Cl  0  0  0  0  0  0  0  0  0  0  0  0
   12.5652   -0.8283   22.4171 C   0  0  0  0  0  0  0  0  0  0  0  0
   13.9002   -1.3915   21.4779 Cl  0  0  0  0  0  0  0  0  0  0  0  0
   11.2782   -1.2051   22.0369 C   0  0  0  0  0  0  0  0  0  0  0  0
   11.1403   -1.8727   21.1936 H   0  0  0  0  0  0  0  0  0  0  0  0
    8.1179   -2.1904   22.9688 C   0  0  0  0  0  0  0  0  0  0  0  0
    8.5705   -2.6304   23.8594 H   0  0  0  0  0  0  0  0  0  0  0  0
    6.9556   -2.6640   22.4483 C   0  0  0  0  0  0  0  0  0  0  0  0
    6.4152   -3.5039   22.8591 H   0  0  0  0  0  0  0  0  0  0  0  0
    6.3909   -2.1457   21.2085 C   0  0  0  0  0  0  0  0  0  0  0  0
    5.4822   -2.6940   20.6078 O   0  0  0  0  0  0  0  0  0  0  0  0
    5.2371    0.5515   19.8710 C   0  0  0  0  0  0  0  0  0  0  0  0
    4.7082    0.4588   20.8180 H   0  0  0  0  0  0  0  0  0  0  0  0
    4.7711    1.3767   18.8384 C   0  0  0  0  0  0  0  0  0  0  0  0
    3.8727    1.9736   18.9480 H   0  0  0  0  0  0  0  0  0  0  0  0
  1  2  1  0
  2  3  2  0
  3  4  1  0
  4  5  1  0
  4  6  2  0
  6  7  1  0
  7  8  1  0
  8  9  1  0
  8 10  2  0
 10 11  1  0
 11 12  2  0
 12 13  1  0
 12 14  1  0
 14 15  1  0
 14 16  2  0
 16 17  1  0
 16 18  1  0
 18 19  1  0
 18 20  2  0
 20 21  1  0
 10 22  1  0
 22 23  1  0
 22 24  2  0
 24 25  1  0
 24 26  1  0
 26 27  2  0
  6 28  1  0
 28 29  1  0
 28 30  2  0
 30 31  1  0
 30  2  1  0
 26  7  1  0
 20 11  1  0
M  END
>  <cnnaffinity>  (1) 
-5.58687

>  <filename>  (1) 
O=c1ccc(-c2ccc(Cl)c(Cl)c2)cn1-c1cccnc1

$$$$
