
     RDKit          3D

 27 29  0  0  0  0  0  0  0  0999 V2000
    4.9399    1.7883   16.9996 H   0  0  0  0  0  0  0  0  0  0  0  0
    5.4203    1.3148   17.8576 C   0  0  0  0  0  0  0  0  0  0  0  0
    6.6000    0.7111   17.6294 N   0  0  0  0  0  0  0  0  0  0  0  0
    7.1897    0.0716   18.6505 C   0  0  0  0  0  0  0  0  0  0  0  0
    8.1509   -0.4041   18.4490 H   0  0  0  0  0  0  0  0  0  0  0  0
    6.6272   -0.0004   19.9495 C   0  0  0  0  0  0  0  0  0  0  0  0
    7.2301   -0.6936   21.0556 N   0  0  0  0  0  0  0  0  0  0  0  0
    7.7207   -0.2029   22.2698 C   0  0  0  0  0  0  0  0  0  0  0  0
    7.4515    1.1503   22.7861 C   0  0  0  0  0  0  0  0  0  0  0  0
    7.0128    1.2990   24.1161 C   0  0  0  0  0  0  0  0  0  0  0  0
    6.8483    0.4393   24.7607 H   0  0  0  0  0  0  0  0  0  0  0  0
    6.7545    2.4895   24.6719 N   0  0  0  0  0  0  0  0  0  0  0  0
    6.9348    3.5923   23.9344 C   0  0  0  0  0  0  0  0  0  0  0  0
    6.7282    4.5546   24.4015 H   0  0  0  0  0  0  0  0  0  0  0  0
    7.3707    3.5373   22.6066 C   0  0  0  0  0  0  0  0  0  0  0  0
    7.5310    4.6737   21.9154 F   0  0  0  0  0  0  0  0  0  0  0  0
    7.6248    2.3099   22.0076 C   0  0  0  0  0  0  0  0  0  0  0  0
    7.9204    2.2614   20.9614 H   0  0  0  0  0  0  0  0  0  0  0  0
    8.3466   -1.1214   22.9440 N   0  0  0  0  0  0  0  0  0  0  0  0
    8.2108   -2.2500   22.1699 N   0  0  0  0  0  0  0  0  0  0  0  0
    8.3760   -3.1741   22.5295 H   0  0  0  0  0  0  0  0  0  0  0  0
    7.3534   -2.0932   21.1228 C   0  0  0  0  0  0  0  0  0  0  0  0
    6.7969   -2.9488   20.4723 O   0  0  0  0  0  0  0  0  0  0  0  0
    5.4241    0.6632   20.1755 C   0  0  0  0  0  0  0  0  0  0  0  0
    5.0362    0.6708   21.1935 H   0  0  0  0  0  0  0  0  0  0  0  0
    4.8009    1.3227   19.1119 C   0  0  0  0  0  0  0  0  0  0  0  0
    3.8483    1.8224   19.2457 H   0  0  0  0  0  0  0  0  0  0  0  0
  1  2  1  0
  2  3  2  0
  3  4  1  0
  4  5  1  0
  4  6  2  0
  6  7  1  0
  7  8  1  0
  8  9  1  0
  9 10  2  0
 10 11  1  0
 10 12  1  0
 12 13  2  0
 13 14  1  0
 13 15  1  0
 15 16  1  0
 15 17  2  0
 17 18  1  0
  8 19  2  0
 19 20  1  0
 20 21  1  0
 20 22  1  0
 22 23  2  0
  6 24  1  0
 24 25  1  0
 24 26  2  0
 26 27  1  0
 26  2  1  0
 22  7  1  0
 17  9  1  0
M  END
>  <cnnaffinity>  (1) 
-4.789

>  <filename>  (1) 
O=c1[nH]nc(-c2cncc(F)c2)n1-c1cccnc1

$$$$
