
     RDKit          3D

 33 36  0  0  0  0  0  0  0  0999 V2000
    4.9395    1.7998   16.9852 H   0  0  0  0  0  0  0  0  0  0  0  0
    5.3924    1.2939   17.8353 C   0  0  0  0  0  0  0  0  0  0  0  0
    6.5453    0.6596   17.5840 N   0  0  0  0  0  0  0  0  0  0  0  0
    7.1414    0.0382   18.6047 C   0  0  0  0  0  0  0  0  0  0  0  0
    8.1067   -0.4199   18.3932 H   0  0  0  0  0  0  0  0  0  0  0  0
    6.6159   -0.0131   19.9073 C   0  0  0  0  0  0  0  0  0  0  0  0
    7.3254   -0.7347   20.9811 C   0  0  0  0  0  0  0  0  0  0  0  0
    6.6014   -1.5034   21.7697 N   0  0  0  0  0  0  0  0  0  0  0  0
    7.1952   -2.2078   22.7954 C   0  0  0  0  0  0  0  0  0  0  0  0
    6.3110   -3.0695   23.6257 C   0  0  0  0  0  0  0  0  0  0  0  0
    6.9111   -3.9622   25.0238 S   0  0  0  0  0  0  0  0  0  0  0  0
    5.3219   -4.5778   25.3919 C   0  0  0  0  0  0  0  0  0  0  0  0
    4.9540   -5.4638   26.4195 C   0  0  0  0  0  0  0  0  0  0  0  0
    5.6961   -5.8722   27.1008 H   0  0  0  0  0  0  0  0  0  0  0  0
    3.6131   -5.8139   26.5361 C   0  0  0  0  0  0  0  0  0  0  0  0
    3.3079   -6.4970   27.3207 H   0  0  0  0  0  0  0  0  0  0  0  0
    2.6429   -5.2939   25.6539 C   0  0  0  0  0  0  0  0  0  0  0  0
    1.6012   -5.5777   25.7680 H   0  0  0  0  0  0  0  0  0  0  0  0
    3.0120   -4.4357   24.6321 C   0  0  0  0  0  0  0  0  0  0  0  0
    2.2698   -4.0270   23.9572 H   0  0  0  0  0  0  0  0  0  0  0  0
    4.3716   -4.0924   24.4694 C   0  0  0  0  0  0  0  0  0  0  0  0
    4.9848   -3.2965   23.4463 C   0  0  0  0  0  0  0  0  0  0  0  0
    4.4440   -2.9344   22.5823 H   0  0  0  0  0  0  0  0  0  0  0  0
    8.5510   -2.1226   23.0458 C   0  0  0  0  0  0  0  0  0  0  0  0
    9.0469   -2.6561   23.8481 H   0  0  0  0  0  0  0  0  0  0  0  0
    9.3058   -1.3226   22.2378 N   0  0  0  0  0  0  0  0  0  0  0  0
   10.3028   -1.1511   22.3076 H   0  0  0  0  0  0  0  0  0  0  0  0
    8.8177   -0.5666   21.1779 C   0  0  0  0  0  0  0  0  0  0  0  0
    9.6324    0.1164   20.5771 O   0  0  0  0  0  0  0  0  0  0  0  0
    5.3952    0.6404   20.1486 C   0  0  0  0  0  0  0  0  0  0  0  0
    4.9523    0.6342   21.1473 H   0  0  0  0  0  0  0  0  0  0  0  0
    4.7849    1.3176   19.0960 C   0  0  0  0  0  0  0  0  0  0  0  0
    3.8600    1.8689   19.2326 H   0  0  0  0  0  0  0  0  0  0  0  0
  1  2  1  0
  2  3  2  0
  3  4  1  0
  4  5  1  0
  4  6  2  0
  6  7  1  0
  7  8  2  0
  8  9  1  0
  9 10  1  0
 10 11  1  0
 11 12  1  0
 12 13  2  0
 13 14  1  0
 13 15  1  0
 15 16  1  0
 15 17  2  0
 17 18  1  0
 17 19  1  0
 19 20  1  0
 19 21  2  0
 21 22  1  0
 22 23  1  0
  9 24  2  0
 24 25  1  0
 24 26  1  0
 26 27  1  0
 26 28  1  0
 28 29  2  0
  6 30  1  0
 30 31  1  0
 30 32  2  0
 32 33  1  0
 32  2  1  0
 28  7  1  0
 22 10  2  0
 21 12  1  0
M  END
>  <cnnaffinity>  (1) 
-5.45875

>  <filename>  (1) 
O=c1[nH]cc(-c2cc3ccccc3s2)nc1-c1cccnc1

$$$$
