
     RDKit          3D

 35 37  0  0  0  0  0  0  0  0999 V2000
    5.0413    1.9203   16.8831 H   0  0  0  0  0  0  0  0  0  0  0  0
    5.4255    1.3556   17.7292 C   0  0  0  0  0  0  0  0  0  0  0  0
    6.5554    0.6559   17.5164 N   0  0  0  0  0  0  0  0  0  0  0  0
    7.0521   -0.0425   18.5439 C   0  0  0  0  0  0  0  0  0  0  0  0
    7.9830   -0.5812   18.3894 H   0  0  0  0  0  0  0  0  0  0  0  0
    6.4316   -0.1162   19.8047 C   0  0  0  0  0  0  0  0  0  0  0  0
    7.0334   -0.9019   20.8304 N   0  0  0  0  0  0  0  0  0  0  0  0
    8.3938   -0.8668   20.8646 N   0  0  0  0  0  0  0  0  0  0  0  0
    8.9921   -1.4437   21.8694 C   0  0  0  0  0  0  0  0  0  0  0  0
   10.4414   -1.1401   22.0424 C   0  0  0  0  0  0  0  0  0  0  0  0
   10.8107   -0.6511   21.1299 H   0  0  0  0  0  0  0  0  0  0  0  0
   11.0043   -2.0693   22.1651 H   0  0  0  0  0  0  0  0  0  0  0  0
   10.6718   -0.3074   23.2357 N   0  0  0  0  0  0  0  0  0  0  0  0
    9.9380    0.3440   23.4747 H   0  0  0  0  0  0  0  0  0  0  0  0
   11.9139    0.3425   23.2240 C   0  0  0  0  0  0  0  0  0  0  0  0
   12.0170    1.7243   23.4204 C   0  0  0  0  0  0  0  0  0  0  0  0
   11.1200    2.2913   23.6563 H   0  0  0  0  0  0  0  0  0  0  0  0
   13.2500    2.3525   23.2029 C   0  0  0  0  0  0  0  0  0  0  0  0
   13.3456    3.4273   23.3364 H   0  0  0  0  0  0  0  0  0  0  0  0
   14.3715    1.5989   22.8383 C   0  0  0  0  0  0  0  0  0  0  0  0
   15.3068    2.0783   22.5670 H   0  0  0  0  0  0  0  0  0  0  0  0
   14.2800    0.2132   22.7508 C   0  0  0  0  0  0  0  0  0  0  0  0
   15.1318   -0.4063   22.5158 H   0  0  0  0  0  0  0  0  0  0  0  0
   13.0534   -0.4033   22.9125 C   0  0  0  0  0  0  0  0  0  0  0  0
   12.9381   -1.4661   22.7459 H   0  0  0  0  0  0  0  0  0  0  0  0
    8.3415   -2.2944   22.8990 C   0  0  0  0  0  0  0  0  0  0  0  0
    8.9495   -2.9506   23.7373 O   0  0  0  0  0  0  0  0  0  0  0  0
    6.8947   -2.2681   22.7836 C   0  0  0  0  0  0  0  0  0  0  0  0
    6.3285   -2.8007   23.5345 H   0  0  0  0  0  0  0  0  0  0  0  0
    6.3079   -1.6053   21.7588 C   0  0  0  0  0  0  0  0  0  0  0  0
    5.2361   -1.6048   21.5835 H   0  0  0  0  0  0  0  0  0  0  0  0
    5.2647    0.6272   20.0232 C   0  0  0  0  0  0  0  0  0  0  0  0
    4.8032    0.6414   21.0115 H   0  0  0  0  0  0  0  0  0  0  0  0
    4.7568    1.3814   18.9603 C   0  0  0  0  0  0  0  0  0  0  0  0
    3.8604    1.9845   19.0774 H   0  0  0  0  0  0  0  0  0  0  0  0
  1  2  1  0
  2  3  2  0
  3  4  1  0
  4  5  1  0
  4  6  2  0
  6  7  1  0
  7  8  1  0
  8  9  2  0
  9 10  1  0
 10 11  1  0
 10 12  1  0
 10 13  1  0
 13 14  1  0
 13 15  1  0
 15 16  2  0
 16 17  1  0
 16 18  1  0
 18 19  1  0
 18 20  2  0
 20 21  1  0
 20 22  1  0
 22 23  1  0
 22 24  2  0
 24 25  1  0
  9 26  1  0
 26 27  2  0
 26 28  1  0
 28 29  1  0
 28 30  2  0
 30 31  1  0
  6 32  1  0
 32 33  1  0
 32 34  2  0
 34 35  1  0
 34  2  1  0
 30  7  1  0
 24 15  1  0
M  END
>  <cnnaffinity>  (1) 
-5.43806

>  <filename>  (1) 
O=c1ccn(-c2cccnc2)nc1CNc1ccccc1

$$$$
