
     RDKit          3D

 33 35  0  0  0  0  0  0  0  0999 V2000
    4.9539    1.8001   17.0014 H   0  0  0  0  0  0  0  0  0  0  0  0
    5.4156    1.2749   17.8366 C   0  0  0  0  0  0  0  0  0  0  0  0
    6.5583    0.6227   17.5655 N   0  0  0  0  0  0  0  0  0  0  0  0
    7.1603   -0.0283   18.5684 C   0  0  0  0  0  0  0  0  0  0  0  0
    8.0966   -0.5270   18.3268 H   0  0  0  0  0  0  0  0  0  0  0  0
    6.6519   -0.0752   19.8825 C   0  0  0  0  0  0  0  0  0  0  0  0
    7.3734   -0.7130   20.9590 N   0  0  0  0  0  0  0  0  0  0  0  0
    6.7567   -1.7037   21.7030 C   0  0  0  0  0  0  0  0  0  0  0  0
    5.7518   -1.9703   21.3762 H   0  0  0  0  0  0  0  0  0  0  0  0
    7.3831   -2.3408   22.7409 C   0  0  0  0  0  0  0  0  0  0  0  0
    6.7063   -3.4222   23.5229 C   0  0  0  0  0  0  0  0  0  0  0  0
    5.7473   -4.1207   22.8986 N   0  0  0  0  0  0  0  0  0  0  0  0
    5.1933   -5.1684   23.5272 C   0  0  0  0  0  0  0  0  0  0  0  0
    4.2257   -6.0101   22.6673 C   0  0  0  0  0  0  0  0  0  0  0  0
    3.9478   -7.1868   23.2645 F   0  0  0  0  0  0  0  0  0  0  0  0
    4.7327   -6.2814   21.4528 F   0  0  0  0  0  0  0  0  0  0  0  0
    3.0482   -5.3924   22.4702 F   0  0  0  0  0  0  0  0  0  0  0  0
    5.5050   -5.5277   24.8497 C   0  0  0  0  0  0  0  0  0  0  0  0
    5.0156   -6.3630   25.3378 H   0  0  0  0  0  0  0  0  0  0  0  0
    6.4794   -4.7777   25.5171 C   0  0  0  0  0  0  0  0  0  0  0  0
    6.7821   -5.0220   26.5353 H   0  0  0  0  0  0  0  0  0  0  0  0
    7.0821   -3.7188   24.8463 C   0  0  0  0  0  0  0  0  0  0  0  0
    7.8379   -3.1015   25.3125 H   0  0  0  0  0  0  0  0  0  0  0  0
    8.7412   -1.9787   23.0321 C   0  0  0  0  0  0  0  0  0  0  0  0
    9.3079   -2.5180   23.7958 H   0  0  0  0  0  0  0  0  0  0  0  0
    9.3643   -1.0021   22.3215 C   0  0  0  0  0  0  0  0  0  0  0  0
   10.3858   -0.6973   22.4873 H   0  0  0  0  0  0  0  0  0  0  0  0
    8.7145   -0.2700   21.2514 C   0  0  0  0  0  0  0  0  0  0  0  0
    9.2535    0.6268   20.6243 O   0  0  0  0  0  0  0  0  0  0  0  0
    5.4473    0.5843   20.1437 C   0  0  0  0  0  0  0  0  0  0  0  0
    5.0476    0.5644   21.1578 H   0  0  0  0  0  0  0  0  0  0  0  0
    4.8234    1.2851   19.1044 C   0  0  0  0  0  0  0  0  0  0  0  0
    3.9011    1.8320   19.2691 H   0  0  0  0  0  0  0  0  0  0  0  0
  1  2  1  0
  2  3  2  0
  3  4  1  0
  4  5  1  0
  4  6  2  0
  6  7  1  0
  7  8  1  0
  8  9  1  0
  8 10  2  0
 10 11  1  0
 11 12  2  0
 12 13  1  0
 13 14  1  0
 14 15  1  0
 14 16  1  0
 14 17  1  0
 13 18  2  0
 18 19  1  0
 18 20  1  0
 20 21  1  0
 20 22  2  0
 22 23  1  0
 10 24  1  0
 24 25  1  0
 24 26  2  0
 26 27  1  0
 26 28  1  0
 28 29  2  0
  6 30  1  0
 30 31  1  0
 30 32  2  0
 32 33  1  0
 32  2  1  0
 28  7  1  0
 22 11  1  0
M  END
>  <cnnaffinity>  (1) 
-5.90547

>  <filename>  (1) 
O=c1ccc(-c2cccc(C(F)(F)F)n2)cn1-c1cccnc1

$$$$
