
     RDKit          3D

 32 34  0  0  0  0  0  0  0  0999 V2000
    4.8908    1.8450   16.9936 H   0  0  0  0  0  0  0  0  0  0  0  0
    5.4096    1.3197   17.7880 C   0  0  0  0  0  0  0  0  0  0  0  0
    6.5803    0.7094   17.5179 N   0  0  0  0  0  0  0  0  0  0  0  0
    7.2051    0.0701   18.5275 C   0  0  0  0  0  0  0  0  0  0  0  0
    8.1575   -0.4100   18.3209 H   0  0  0  0  0  0  0  0  0  0  0  0
    6.6858    0.0026   19.8392 C   0  0  0  0  0  0  0  0  0  0  0  0
    7.4184   -0.7060   20.9750 C   0  0  2  0  0  0  0  0  0  0  0  0
    8.2336   -1.3071   20.5675 H   0  0  0  0  0  0  0  0  0  0  0  0
    6.5471   -1.6287   21.8327 C   0  0  0  0  0  0  0  0  0  0  0  0
    5.8121   -2.5414   21.4773 O   0  0  0  0  0  0  0  0  0  0  0  0
    6.7336   -1.3831   23.1596 N   0  0  0  0  0  0  0  0  0  0  0  0
    6.1202   -1.8088   23.8519 H   0  0  0  0  0  0  0  0  0  0  0  0
    7.6140   -0.2675   23.4169 C   0  0  0  0  0  0  0  0  0  0  0  0
    8.5129   -0.6302   23.9267 H   0  0  0  0  0  0  0  0  0  0  0  0
    7.1361    0.4898   24.0500 H   0  0  0  0  0  0  0  0  0  0  0  0
    7.9562    0.3134   22.0217 C   0  0  1  0  0  0  0  0  0  0  0  0
    7.4300    1.2685   21.9083 H   0  0  0  0  0  0  0  0  0  0  0  0
    9.4515    0.5253   21.8862 C   0  0  0  0  0  0  0  0  0  0  0  0
   10.3168   -0.5592   22.0755 C   0  0  0  0  0  0  0  0  0  0  0  0
    9.8889   -1.5395   22.2529 H   0  0  0  0  0  0  0  0  0  0  0  0
   11.7044   -0.3901   22.0668 C   0  0  0  0  0  0  0  0  0  0  0  0
   12.3567   -1.2475   22.2080 H   0  0  0  0  0  0  0  0  0  0  0  0
   12.2421    0.8810   21.8732 C   0  0  0  0  0  0  0  0  0  0  0  0
   13.3232    1.0223   21.8953 H   0  0  0  0  0  0  0  0  0  0  0  0
   11.4064    1.9595   21.5782 C   0  0  0  0  0  0  0  0  0  0  0  0
   12.2046    3.6385   21.1245 Br  0  0  0  0  0  0  0  0  0  0  0  0
   10.0105    1.7807   21.5853 C   0  0  0  0  0  0  0  0  0  0  0  0
    9.3651    2.6246   21.3589 H   0  0  0  0  0  0  0  0  0  0  0  0
    5.4736    0.6449   20.1047 C   0  0  0  0  0  0  0  0  0  0  0  0
    5.0605    0.6512   21.1108 H   0  0  0  0  0  0  0  0  0  0  0  0
    4.8241    1.3049   19.0608 C   0  0  0  0  0  0  0  0  0  0  0  0
    3.8801    1.8197   19.2208 H   0  0  0  0  0  0  0  0  0  0  0  0
  1  2  1  0
  2  3  2  0
  3  4  1  0
  4  5  1  0
  4  6  2  0
  6  7  1  0
  7  8  1  6
  7  9  1  0
  9 10  2  0
  9 11  1  0
 11 12  1  0
 11 13  1  0
 13 14  1  0
 13 15  1  0
 13 16  1  0
 16 17  1  6
 16 18  1  0
 18 19  2  0
 19 20  1  0
 19 21  1  0
 21 22  1  0
 21 23  2  0
 23 24  1  0
 23 25  1  0
 25 26  1  0
 25 27  2  0
 27 28  1  0
  6 29  1  0
 29 30  1  0
 29 31  2  0
 31 32  1  0
 31  2  1  0
 16  7  1  0
 27 18  1  0
M  END
>  <cnnaffinity>  (1) 
-5.20731

>  <filename>  (1) 
O=C1NC[C@@H](c2cccc(Br)c2)[C@@H]1c1cccnc1

$$$$
