
     RDKit          3D

 33 35  0  0  0  0  0  0  0  0999 V2000
    5.6421    1.7672   16.6904 H   0  0  0  0  0  0  0  0  0  0  0  0
    5.8327    1.1999   17.6002 C   0  0  0  0  0  0  0  0  0  0  0  0
    6.8352    0.3105   17.5437 N   0  0  0  0  0  0  0  0  0  0  0  0
    7.1072   -0.3959   18.6487 C   0  0  0  0  0  0  0  0  0  0  0  0
    7.9179   -1.1169   18.5770 H   0  0  0  0  0  0  0  0  0  0  0  0
    6.4128   -0.2324   19.8733 C   0  0  0  0  0  0  0  0  0  0  0  0
    6.7775   -0.9517   21.0832 N   0  0  0  0  0  0  0  0  0  0  0  0
    6.7777   -2.3829   21.1467 C   0  0  0  0  0  0  0  0  0  0  0  0
    6.1372   -3.0346   20.3492 O   0  0  0  0  0  0  0  0  0  0  0  0
    7.5887   -2.9711   22.1794 C   0  0  0  0  0  0  0  0  0  0  0  0
    7.5901   -4.0402   22.1886 H   0  0  0  0  0  0  0  0  0  0  0  0
    8.1804   -2.1831   23.0935 C   0  0  0  0  0  0  0  0  0  0  0  0
    9.1280   -2.4912   24.0132 N   0  0  0  0  0  0  0  0  0  0  0  0
    9.6675   -1.6392   24.1475 H   0  0  0  0  0  0  0  0  0  0  0  0
    9.9007   -3.7609   23.8476 C   0  0  0  0  0  0  0  0  0  0  0  0
   10.9606   -3.6255   23.9558 H   0  0  0  0  0  0  0  0  0  0  0  0
    9.6529   -4.1163   22.8606 H   0  0  0  0  0  0  0  0  0  0  0  0
    9.7801   -4.9123   24.8553 C   0  0  0  0  0  0  0  0  0  0  0  0
    8.7070   -5.7536   24.6539 H   0  0  0  0  0  0  0  0  0  0  0  0
    9.6174   -4.9337   24.9049 C   0  0  0  0  0  0  0  0  0  0  0  0
    8.1070   -4.5259   26.1977 H   0  0  0  0  0  0  0  0  0  0  0  0
   10.9987   -5.2656   24.7939 H   0  0  0  0  0  0  0  0  0  0  0  0
    9.2114   -4.2978   26.2533 C   0  0  0  0  0  0  0  0  0  0  0  0
    9.3361   -3.1951   26.4170 H   0  0  0  0  0  0  0  0  0  0  0  0
    9.6746   -4.7202   27.1938 H   0  0  0  0  0  0  0  0  0  0  0  0
    7.8618   -0.8476   23.1392 N   0  0  0  0  0  0  0  0  0  0  0  0
    7.8140   -0.3886   24.0315 H   0  0  0  0  0  0  0  0  0  0  0  0
    6.9444   -0.2826   22.2939 C   0  0  0  0  0  0  0  0  0  0  0  0
    6.3990    0.7439   22.6262 O   0  0  0  0  0  0  0  0  0  0  0  0
    5.3600    0.6857   19.9063 C   0  0  0  0  0  0  0  0  0  0  0  0
    4.8179    0.8378   20.8353 H   0  0  0  0  0  0  0  0  0  0  0  0
    5.0634    1.4102   18.7462 C   0  0  0  0  0  0  0  0  0  0  0  0
    4.2713    2.1513   18.7355 H   0  0  0  0  0  0  0  0  0  0  0  0
  1  2  1  0
  2  3  2  0
  3  4  1  0
  4  5  1  0
  4  6  2  0
  6  7  1  0
  7  8  1  0
  8  9  2  0
  8 10  1  0
 10 11  1  0
 10 12  2  0
 12 13  1  0
 13 14  1  0
 13 15  1  0
 15 16  1  0
 15 17  1  0
 15 18  1  0
 18 19  1  0
 18 20  1  0
 20 21  1  0
 20 22  1  0
 20 23  1  0
 23 24  1  0
 23 25  1  0
 12 26  1  0
 26 27  1  0
 26 28  1  0
 28 29  2  0
  6 30  1  0
 30 31  1  0
 30 32  2  0
 32 33  1  0
 32  2  1  0
 28  7  1  0
 23 18  1  0
M  END
>  <cnnaffinity>  (1) 
-4.92309

>  <filename>  (1) 
O=c1cc(NCC2CC2)[nH]c(=O)n1-c1cccnc1

$$$$
