
     RDKit          3D

 34 36  0  0  0  0  0  0  0  0999 V2000
    4.9126    1.7877   16.9881 H   0  0  0  0  0  0  0  0  0  0  0  0
    5.3960    1.2987   17.8303 C   0  0  0  0  0  0  0  0  0  0  0  0
    6.5593    0.6836   17.5662 N   0  0  0  0  0  0  0  0  0  0  0  0
    7.1809    0.0780   18.5828 C   0  0  0  0  0  0  0  0  0  0  0  0
    8.1210   -0.4258   18.3628 H   0  0  0  0  0  0  0  0  0  0  0  0
    6.6608    0.0258   19.8881 C   0  0  0  0  0  0  0  0  0  0  0  0
    7.3604   -0.6744   20.9351 N   0  0  0  0  0  0  0  0  0  0  0  0
    8.6451   -0.2702   21.2720 C   0  0  0  0  0  0  0  0  0  0  0  0
    9.0444    0.5620   20.6910 H   0  0  0  0  0  0  0  0  0  0  0  0
    9.3410   -0.8529   22.2793 C   0  0  0  0  0  0  0  0  0  0  0  0
   10.7117   -0.4371   22.6178 C   0  0  0  0  0  0  0  0  0  0  0  0
   11.7790   -1.2769   22.2505 C   0  0  0  0  0  0  0  0  0  0  0  0
   11.5482   -2.2272   21.7782 H   0  0  0  0  0  0  0  0  0  0  0  0
   13.0985   -0.8958   22.4939 C   0  0  0  0  0  0  0  0  0  0  0  0
   13.9130   -1.5601   22.2201 H   0  0  0  0  0  0  0  0  0  0  0  0
   13.3641    0.3198   23.1281 C   0  0  0  0  0  0  0  0  0  0  0  0
   14.3862    0.6222   23.3316 H   0  0  0  0  0  0  0  0  0  0  0  0
   12.3162    1.1562   23.5140 C   0  0  0  0  0  0  0  0  0  0  0  0
   12.5280    2.1056   24.0024 H   0  0  0  0  0  0  0  0  0  0  0  0
   10.9861    0.7830   23.2741 C   0  0  0  0  0  0  0  0  0  0  0  0
    9.8480    1.6999   23.7022 C   0  0  0  0  0  0  0  0  0  0  0  0
    8.8216    1.0188   24.2530 F   0  0  0  0  0  0  0  0  0  0  0  0
   10.2412    2.6207   24.6007 F   0  0  0  0  0  0  0  0  0  0  0  0
    9.3372    2.3797   22.6515 F   0  0  0  0  0  0  0  0  0  0  0  0
    8.7467   -1.9873   23.0022 C   0  0  0  0  0  0  0  0  0  0  0  0
    9.2262   -2.6524   23.8877 O   0  0  0  0  0  0  0  0  0  0  0  0
    7.4820   -2.3113   22.5777 N   0  0  0  0  0  0  0  0  0  0  0  0
    7.0356   -3.0637   23.0613 H   0  0  0  0  0  0  0  0  0  0  0  0
    6.7300   -1.7457   21.6082 C   0  0  0  0  0  0  0  0  0  0  0  0
    5.6304   -2.1874   21.3623 O   0  0  0  0  0  0  0  0  0  0  0  0
    5.4427    0.6551   20.1559 C   0  0  0  0  0  0  0  0  0  0  0  0
    5.0178    0.6134   21.1608 H   0  0  0  0  0  0  0  0  0  0  0  0
    4.8084    1.3165   19.1007 C   0  0  0  0  0  0  0  0  0  0  0  0
    3.8752    1.8430   19.2555 H   0  0  0  0  0  0  0  0  0  0  0  0
  1  2  1  0
  2  3  2  0
  3  4  1  0
  4  5  1  0
  4  6  2  0
  6  7  1  0
  7  8  1  0
  8  9  1  0
  8 10  2  0
 10 11  1  0
 11 12  2  0
 12 13  1  0
 12 14  1  0
 14 15  1  0
 14 16  2  0
 16 17  1  0
 16 18  1  0
 18 19  1  0
 18 20  2  0
 20 21  1  0
 21 22  1  0
 21 23  1  0
 21 24  1  0
 10 25  1  0
 25 26  2  0
 25 27  1  0
 27 28  1  0
 27 29  1  0
 29 30  2  0
  6 31  1  0
 31 32  1  0
 31 33  2  0
 33 34  1  0
 33  2  1  0
 29  7  1  0
 20 11  1  0
M  END
>  <cnnaffinity>  (1) 
-5.54179

>  <filename>  (1) 
O=c1[nH]c(=O)n(-c2cccnc2)cc1-c1ccccc1C(F)(F)F

$$$$
