
     RDKit          3D

 30 32  0  0  0  0  0  0  0  0999 V2000
    8.5572    0.6762   28.1532 H   0  0  0  0  0  0  0  0  0  0  0  0
    8.3466    0.8618   27.2318 O   0  0  0  0  0  0  0  0  0  0  0  0
    8.4167   -0.3047   26.5447 C   0  0  0  0  0  0  0  0  0  0  0  0
    8.6362   -1.5316   27.1735 C   0  0  0  0  0  0  0  0  0  0  0  0
    8.8104   -1.5602   28.2394 H   0  0  0  0  0  0  0  0  0  0  0  0
    8.6480   -2.6989   26.4033 C   0  0  0  0  0  0  0  0  0  0  0  0
    8.8121   -3.6635   26.8733 H   0  0  0  0  0  0  0  0  0  0  0  0
    8.4673   -2.6410   25.0220 C   0  0  0  0  0  0  0  0  0  0  0  0
    8.4927   -3.5273   24.4011 H   0  0  0  0  0  0  0  0  0  0  0  0
    8.2753   -1.3960   24.4079 C   0  0  0  0  0  0  0  0  0  0  0  0
    8.0963   -1.3030   23.0056 N   0  0  0  0  0  0  0  0  0  0  0  0
    7.2400   -0.4292   22.3400 C   0  0  0  0  0  0  0  0  0  0  0  0
    6.6413    0.3018   22.8591 H   0  0  0  0  0  0  0  0  0  0  0  0
    7.3343   -0.6527   21.0138 C   0  0  0  0  0  0  0  0  0  0  0  0
    6.6480    0.0046   19.8980 C   0  0  0  0  0  0  0  0  0  0  0  0
    7.1637    0.0552   18.5877 C   0  0  0  0  0  0  0  0  0  0  0  0
    8.1217   -0.4064   18.3462 H   0  0  0  0  0  0  0  0  0  0  0  0
    6.5587    0.6783   17.5673 N   0  0  0  0  0  0  0  0  0  0  0  0
    5.3939    1.2977   17.8224 C   0  0  0  0  0  0  0  0  0  0  0  0
    4.9196    1.7946   16.9782 H   0  0  0  0  0  0  0  0  0  0  0  0
    4.7963    1.3178   19.0866 C   0  0  0  0  0  0  0  0  0  0  0  0
    3.8656    1.8504   19.2404 H   0  0  0  0  0  0  0  0  0  0  0  0
    5.4292    0.6592   20.1371 C   0  0  0  0  0  0  0  0  0  0  0  0
    4.9931    0.6392   21.1378 H   0  0  0  0  0  0  0  0  0  0  0  0
    8.2616   -1.6632   20.8554 N   0  0  0  0  0  0  0  0  0  0  0  0
    8.5445   -2.1497   20.0276 H   0  0  0  0  0  0  0  0  0  0  0  0
    8.7324   -2.1116   22.0627 C   0  0  0  0  0  0  0  0  0  0  0  0
    9.5195   -3.0236   22.2001 O   0  0  0  0  0  0  0  0  0  0  0  0
    8.2421   -0.2292   25.1683 C   0  0  0  0  0  0  0  0  0  0  0  0
    8.0925    0.7560   24.7460 H   0  0  0  0  0  0  0  0  0  0  0  0
  1  2  1  0
  2  3  1  0
  3  4  2  0
  4  5  1  0
  4  6  1  0
  6  7  1  0
  6  8  2  0
  8  9  1  0
  8 10  1  0
 10 11  1  0
 11 12  1  0
 12 13  1  0
 12 14  2  0
 14 15  1  0
 15 16  2  0
 16 17  1  0
 16 18  1  0
 18 19  2  0
 19 20  1  0
 19 21  1  0
 21 22  1  0
 21 23  2  0
 23 24  1  0
 14 25  1  0
 25 26  1  0
 25 27  1  0
 27 28  2  0
 10 29  2  0
 29 30  1  0
 29  3  1  0
 27 11  1  0
 23 15  1  0
M  END
>  <cnnaffinity>  (1) 
-5.16205

>  <filename>  (1) 
O=c1[nH]c(-c2cccnc2)cn1-c1cccc(O)c1

$$$$
