
     RDKit          3D

 32 34  0  0  0  0  0  0  0  0999 V2000
   10.9287   -1.2186   20.4677 H   0  0  0  0  0  0  0  0  0  0  0  0
   11.8261   -0.9022   20.6321 O   0  0  0  0  0  0  0  0  0  0  0  0
   11.8702   -0.4330   21.8975 C   0  0  0  0  0  0  0  0  0  0  0  0
   13.1256    0.0131   22.3391 C   0  0  0  0  0  0  0  0  0  0  0  0
   13.9585   -0.0655   21.6495 H   0  0  0  0  0  0  0  0  0  0  0  0
   13.2759    0.5063   23.6278 C   0  0  0  0  0  0  0  0  0  0  0  0
   14.2391    0.8771   23.9715 H   0  0  0  0  0  0  0  0  0  0  0  0
   12.1836    0.4970   24.4947 C   0  0  0  0  0  0  0  0  0  0  0  0
   12.3109    0.8453   25.5066 H   0  0  0  0  0  0  0  0  0  0  0  0
   10.9478    0.0159   24.0610 C   0  0  0  0  0  0  0  0  0  0  0  0
   10.1356   -0.0070   24.7795 H   0  0  0  0  0  0  0  0  0  0  0  0
   10.7337   -0.4209   22.7407 C   0  0  0  0  0  0  0  0  0  0  0  0
    9.3683   -0.8780   22.3090 C   0  0  0  0  0  0  0  0  0  0  0  0
    8.7538   -1.9682   23.0053 C   0  0  0  0  0  0  0  0  0  0  0  0
    9.3107   -2.4671   23.8034 H   0  0  0  0  0  0  0  0  0  0  0  0
    7.5136   -2.3971   22.6627 C   0  0  0  0  0  0  0  0  0  0  0  0
    7.0057   -3.1991   23.1722 H   0  0  0  0  0  0  0  0  0  0  0  0
    6.7364   -1.7953   21.5904 C   0  0  0  0  0  0  0  0  0  0  0  0
    5.6293   -2.2043   21.2758 O   0  0  0  0  0  0  0  0  0  0  0  0
    7.3880   -0.7024   20.9114 N   0  0  0  0  0  0  0  0  0  0  0  0
    6.6845    0.0037   19.8617 C   0  0  0  0  0  0  0  0  0  0  0  0
    7.1983    0.0752   18.5506 C   0  0  0  0  0  0  0  0  0  0  0  0
    8.1326   -0.4282   18.3106 H   0  0  0  0  0  0  0  0  0  0  0  0
    6.5868    0.7066   17.5386 N   0  0  0  0  0  0  0  0  0  0  0  0
    5.4240    1.3228   17.8038 C   0  0  0  0  0  0  0  0  0  0  0  0
    4.9515    1.8407   16.9705 H   0  0  0  0  0  0  0  0  0  0  0  0
    4.8300    1.3117   19.0688 C   0  0  0  0  0  0  0  0  0  0  0  0
    3.8976    1.8404   19.2192 H   0  0  0  0  0  0  0  0  0  0  0  0
    5.4571    0.6338   20.1200 C   0  0  0  0  0  0  0  0  0  0  0  0
    5.0180    0.5985   21.1165 H   0  0  0  0  0  0  0  0  0  0  0  0
    8.6588   -0.2860   21.2910 C   0  0  0  0  0  0  0  0  0  0  0  0
    9.0463    0.5758   20.7535 H   0  0  0  0  0  0  0  0  0  0  0  0
  1  2  1  0
  2  3  1  0
  3  4  2  0
  4  5  1  0
  4  6  1  0
  6  7  1  0
  6  8  2  0
  8  9  1  0
  8 10  1  0
 10 11  1  0
 10 12  2  0
 12 13  1  0
 13 14  1  0
 14 15  1  0
 14 16  2  0
 16 17  1  0
 16 18  1  0
 18 19  2  0
 18 20  1  0
 20 21  1  0
 21 22  2  0
 22 23  1  0
 22 24  1  0
 24 25  2  0
 25 26  1  0
 25 27  1  0
 27 28  1  0
 27 29  2  0
 29 30  1  0
 20 31  1  0
 31 32  1  0
 12  3  1  0
 31 13  2  0
 29 21  1  0
M  END
>  <cnnaffinity>  (1) 
-5.63586

>  <filename>  (1) 
O=c1ccc(-c2ccccc2O)cn1-c1cccnc1

$$$$
