
     RDKit          3D

 34 37  0  0  0  0  0  0  0  0999 V2000
    4.9120    1.8064   16.9766 H   0  0  0  0  0  0  0  0  0  0  0  0
    5.3804    1.3045   17.8192 C   0  0  0  0  0  0  0  0  0  0  0  0
    6.5374    0.6829   17.5477 N   0  0  0  0  0  0  0  0  0  0  0  0
    7.1484    0.0673   18.5650 C   0  0  0  0  0  0  0  0  0  0  0  0
    8.1082   -0.4068   18.3590 H   0  0  0  0  0  0  0  0  0  0  0  0
    6.6407    0.0104   19.8774 C   0  0  0  0  0  0  0  0  0  0  0  0
    7.3537   -0.7088   20.9515 C   0  0  0  0  0  0  0  0  0  0  0  0
    6.6939   -1.6359   21.7233 C   0  0  0  0  0  0  0  0  0  0  0  0
    5.6438   -1.8275   21.4957 H   0  0  0  0  0  0  0  0  0  0  0  0
    7.3471   -2.3575   22.7640 C   0  0  0  0  0  0  0  0  0  0  0  0
    6.6799   -3.3643   23.5951 C   0  0  0  0  0  0  0  0  0  0  0  0
    7.2844   -4.1488   24.4522 N   0  0  0  0  0  0  0  0  0  0  0  0
    6.2825   -4.9272   24.9953 C   0  0  0  0  0  0  0  0  0  0  0  0
    6.3597   -5.9389   25.9677 C   0  0  0  0  0  0  0  0  0  0  0  0
    7.3320   -6.1923   26.3822 H   0  0  0  0  0  0  0  0  0  0  0  0
    5.1797   -6.5667   26.3557 C   0  0  0  0  0  0  0  0  0  0  0  0
    5.2260   -7.3456   27.1083 H   0  0  0  0  0  0  0  0  0  0  0  0
    3.9331   -6.2000   25.7922 C   0  0  0  0  0  0  0  0  0  0  0  0
    3.0331   -6.7082   26.1247 H   0  0  0  0  0  0  0  0  0  0  0  0
    3.8408   -5.2006   24.8257 C   0  0  0  0  0  0  0  0  0  0  0  0
    2.8870   -4.9117   24.3931 H   0  0  0  0  0  0  0  0  0  0  0  0
    5.0318   -4.5797   24.4380 C   0  0  0  0  0  0  0  0  0  0  0  0
    5.3280   -3.5826   23.5316 N   0  0  0  0  0  0  0  0  0  0  0  0
    4.6800   -3.0255   23.0054 H   0  0  0  0  0  0  0  0  0  0  0  0
    8.6737   -2.1058   23.0097 C   0  0  0  0  0  0  0  0  0  0  0  0
    9.2395   -2.6196   23.7837 H   0  0  0  0  0  0  0  0  0  0  0  0
    9.3148   -1.1795   22.2644 N   0  0  0  0  0  0  0  0  0  0  0  0
   10.2811   -0.8978   22.3495 H   0  0  0  0  0  0  0  0  0  0  0  0
    8.7763   -0.4208   21.2264 C   0  0  0  0  0  0  0  0  0  0  0  0
    9.5453    0.3655   20.6995 O   0  0  0  0  0  0  0  0  0  0  0  0
    5.4187    0.6478   20.1330 C   0  0  0  0  0  0  0  0  0  0  0  0
    5.0108    0.6385   21.1458 H   0  0  0  0  0  0  0  0  0  0  0  0
    4.7885    1.3212   19.0881 C   0  0  0  0  0  0  0  0  0  0  0  0
    3.8621    1.8579   19.2392 H   0  0  0  0  0  0  0  0  0  0  0  0
  1  2  1  0
  2  3  2  0
  3  4  1  0
  4  5  1  0
  4  6  2  0
  6  7  1  0
  7  8  2  0
  8  9  1  0
  8 10  1  0
 10 11  1  0
 11 12  2  0
 12 13  1  0
 13 14  2  0
 14 15  1  0
 14 16  1  0
 16 17  1  0
 16 18  2  0
 18 19  1  0
 18 20  1  0
 20 21  1  0
 20 22  2  0
 22 23  1  0
 23 24  1  0
 10 25  2  0
 25 26  1  0
 25 27  1  0
 27 28  1  0
 27 29  1  0
 29 30  2  0
  6 31  1  0
 31 32  1  0
 31 33  2  0
 33 34  1  0
 33  2  1  0
 29  7  1  0
 23 11  1  0
 22 13  1  0
M  END
>  <cnnaffinity>  (1) 
-5.66664

>  <filename>  (1) 
O=c1[nH]cc(-c2nc3ccccc3[nH]2)cc1-c1cccnc1

$$$$
