
     RDKit          3D

 32 34  0  0  0  0  0  0  0  0999 V2000
    4.9200    1.8070   16.9776 H   0  0  0  0  0  0  0  0  0  0  0  0
    5.3942    1.3035   17.8159 C   0  0  0  0  0  0  0  0  0  0  0  0
    6.5599    0.6931   17.5497 N   0  0  0  0  0  0  0  0  0  0  0  0
    7.1694    0.0714   18.5660 C   0  0  0  0  0  0  0  0  0  0  0  0
    8.1231   -0.4068   18.3326 H   0  0  0  0  0  0  0  0  0  0  0  0
    6.6542    0.0026   19.8749 C   0  0  0  0  0  0  0  0  0  0  0  0
    7.3886   -0.6933   21.0108 C   0  0  2  0  0  0  0  0  0  0  0  0
    8.2357   -1.2503   20.5810 H   0  0  0  0  0  0  0  0  0  0  0  0
    6.5283   -1.7374   21.7435 C   0  0  0  0  0  0  0  0  0  0  0  0
    5.9517   -2.7034   21.2893 O   0  0  0  0  0  0  0  0  0  0  0  0
    6.5281   -1.4358   23.0640 N   0  0  0  0  0  0  0  0  0  0  0  0
    5.7691   -1.8918   23.5524 H   0  0  0  0  0  0  0  0  0  0  0  0
    7.0869   -0.1431   23.4096 C   0  0  0  0  0  0  0  0  0  0  0  0
    6.3194    0.5976   23.6765 H   0  0  0  0  0  0  0  0  0  0  0  0
    7.7407   -0.2434   24.2875 H   0  0  0  0  0  0  0  0  0  0  0  0
    7.8619    0.2930   22.1311 C   0  0  1  0  0  0  0  0  0  0  0  0
    7.6048    1.3318   21.8721 H   0  0  0  0  0  0  0  0  0  0  0  0
    9.3637    0.2474   22.3204 C   0  0  0  0  0  0  0  0  0  0  0  0
   10.1634    1.3795   22.0947 C   0  0  0  0  0  0  0  0  0  0  0  0
    9.7007    2.3077   21.7503 H   0  0  0  0  0  0  0  0  0  0  0  0
   11.5524    1.3130   22.2662 C   0  0  0  0  0  0  0  0  0  0  0  0
   12.1969    2.1682   22.0941 H   0  0  0  0  0  0  0  0  0  0  0  0
   12.1300    0.0961   22.6199 C   0  0  0  0  0  0  0  0  0  0  0  0
   13.4575    0.0321   22.8233 F   0  0  0  0  0  0  0  0  0  0  0  0
   11.3670   -1.0628   22.7754 C   0  0  0  0  0  0  0  0  0  0  0  0
   11.8499   -2.0251   22.9063 H   0  0  0  0  0  0  0  0  0  0  0  0
    9.9785   -0.9600   22.6861 C   0  0  0  0  0  0  0  0  0  0  0  0
    9.3635   -1.8344   22.9035 H   0  0  0  0  0  0  0  0  0  0  0  0
    5.4404    0.6525   20.1287 C   0  0  0  0  0  0  0  0  0  0  0  0
    5.0130    0.6380   21.1340 H   0  0  0  0  0  0  0  0  0  0  0  0
    4.7978    1.3154   19.0821 C   0  0  0  0  0  0  0  0  0  0  0  0
    3.8658    1.8473   19.2383 H   0  0  0  0  0  0  0  0  0  0  0  0
  1  2  1  0
  2  3  2  0
  3  4  1  0
  4  5  1  0
  4  6  2  0
  6  7  1  0
  7  8  1  6
  7  9  1  0
  9 10  2  0
  9 11  1  0
 11 12  1  0
 11 13  1  0
 13 14  1  0
 13 15  1  0
 13 16  1  0
 16 17  1  6
 16 18  1  0
 18 19  2  0
 19 20  1  0
 19 21  1  0
 21 22  1  0
 21 23  2  0
 23 24  1  0
 23 25  1  0
 25 26  1  0
 25 27  2  0
 27 28  1  0
  6 29  1  0
 29 30  1  0
 29 31  2  0
 31 32  1  0
 31  2  1  0
 16  7  1  0
 27 18  1  0
M  END
>  <cnnaffinity>  (1) 
-5.41219

>  <filename>  (1) 
O=C1NC[C@@H](c2ccc(F)cc2)[C@@H]1c1cccnc1

$$$$
