
     RDKit          3D

 32 34  0  0  0  0  0  0  0  0999 V2000
    8.9907    1.0845   26.3024 H   0  0  0  0  0  0  0  0  0  0  0  0
    8.4851    1.8019   26.7134 O   0  0  0  0  0  0  0  0  0  0  0  0
    7.2462    1.7914   26.1709 C   0  0  0  0  0  0  0  0  0  0  0  0
    6.3133    2.6454   26.7452 C   0  0  0  0  0  0  0  0  0  0  0  0
    6.6233    3.2455   27.5915 H   0  0  0  0  0  0  0  0  0  0  0  0
    5.0147    2.6937   26.2364 C   0  0  0  0  0  0  0  0  0  0  0  0
    3.8511    3.7054   27.0296 Cl  0  0  0  0  0  0  0  0  0  0  0  0
    4.6294    1.9064   25.1523 C   0  0  0  0  0  0  0  0  0  0  0  0
    3.6107    1.9541   24.7772 H   0  0  0  0  0  0  0  0  0  0  0  0
    5.5717    1.0437   24.5759 C   0  0  0  0  0  0  0  0  0  0  0  0
    5.3115    0.4304   23.7261 H   0  0  0  0  0  0  0  0  0  0  0  0
    6.8712    0.9803   25.0748 C   0  0  0  0  0  0  0  0  0  0  0  0
    7.8559    0.1013   24.6221 O   0  0  0  0  0  0  0  0  0  0  0  0
    7.8839   -0.4625   23.3974 C   0  0  0  0  0  0  0  0  0  0  0  0
    7.3097    0.0870   22.3750 N   0  0  0  0  0  0  0  0  0  0  0  0
    7.5819   -0.3958   21.1034 C   0  0  0  0  0  0  0  0  0  0  0  0
    6.8136    0.2343   20.0001 C   0  0  0  0  0  0  0  0  0  0  0  0
    7.2974    0.2343   18.6803 C   0  0  0  0  0  0  0  0  0  0  0  0
    8.2852   -0.1623   18.4468 H   0  0  0  0  0  0  0  0  0  0  0  0
    6.6310    0.7310   17.6313 N   0  0  0  0  0  0  0  0  0  0  0  0
    5.4351    1.2901   17.8662 C   0  0  0  0  0  0  0  0  0  0  0  0
    4.9295    1.7127   17.0001 H   0  0  0  0  0  0  0  0  0  0  0  0
    4.8602    1.3566   19.1395 C   0  0  0  0  0  0  0  0  0  0  0  0
    3.9003    1.8386   19.2708 H   0  0  0  0  0  0  0  0  0  0  0  0
    5.5571    0.8296   20.2232 C   0  0  0  0  0  0  0  0  0  0  0  0
    5.1554    0.8836   21.2375 H   0  0  0  0  0  0  0  0  0  0  0  0
    8.4676   -1.4220   20.8958 C   0  0  0  0  0  0  0  0  0  0  0  0
    8.7685   -1.7743   19.9183 H   0  0  0  0  0  0  0  0  0  0  0  0
    9.0095   -2.0607   22.0025 N   0  0  0  0  0  0  0  0  0  0  0  0
    9.5917   -2.8953   22.0022 H   0  0  0  0  0  0  0  0  0  0  0  0
    8.7153   -1.7307   23.3203 C   0  0  0  0  0  0  0  0  0  0  0  0
    9.1547   -2.4588   24.1940 O   0  0  0  0  0  0  0  0  0  0  0  0
  1  2  1  0
  2  3  1  0
  3  4  2  0
  4  5  1  0
  4  6  1  0
  6  7  1  0
  6  8  2  0
  8  9  1  0
  8 10  1  0
 10 11  1  0
 10 12  2  0
 12 13  1  0
 13 14  1  0
 14 15  2  0
 15 16  1  0
 16 17  1  0
 17 18  2  0
 18 19  1  0
 18 20  1  0
 20 21  2  0
 21 22  1  0
 21 23  1  0
 23 24  1  0
 23 25  2  0
 25 26  1  0
 16 27  2  0
 27 28  1  0
 27 29  1  0
 29 30  1  0
 29 31  1  0
 31 32  2  0
 12  3  1  0
 31 14  1  0
 25 17  1  0
M  END
>  <cnnaffinity>  (1) 
-5.25211

>  <filename>  (1) 
O=c1[nH]cc(-c2cccnc2)nc1Oc1ccc(Cl)cc1O

$$$$
