
     RDKit          3D

 33 35  0  0  0  0  0  0  0  0999 V2000
    4.9319    1.7823   16.9952 H   0  0  0  0  0  0  0  0  0  0  0  0
    5.4016    1.2912   17.8450 C   0  0  0  0  0  0  0  0  0  0  0  0
    6.5600    0.6626   17.5964 N   0  0  0  0  0  0  0  0  0  0  0  0
    7.1496    0.0369   18.6168 C   0  0  0  0  0  0  0  0  0  0  0  0
    8.1134   -0.4143   18.3884 H   0  0  0  0  0  0  0  0  0  0  0  0
    6.6137   -0.0327   19.9157 C   0  0  0  0  0  0  0  0  0  0  0  0
    7.2980   -0.7608   20.9969 C   0  0  0  0  0  0  0  0  0  0  0  0
    6.5677   -1.5438   21.7681 N   0  0  0  0  0  0  0  0  0  0  0  0
    7.1656   -2.2088   22.8225 C   0  0  0  0  0  0  0  0  0  0  0  0
    6.3209   -2.9535   23.6443 N   0  0  0  0  0  0  0  0  0  0  0  0
    6.7689   -3.4294   24.9634 C   0  0  0  0  0  0  0  0  0  0  0  0
    7.3752   -2.6541   25.4441 H   0  0  0  0  0  0  0  0  0  0  0  0
    7.3855   -4.3380   24.8899 H   0  0  0  0  0  0  0  0  0  0  0  0
    5.5775   -3.7279   25.8819 C   0  0  0  0  0  0  0  0  0  0  0  0
    5.9216   -4.2208   26.7929 H   0  0  0  0  0  0  0  0  0  0  0  0
    5.0859   -2.7857   26.1666 H   0  0  0  0  0  0  0  0  0  0  0  0
    4.6325   -4.5916   25.2737 O   0  0  0  0  0  0  0  0  0  0  0  0
    4.1147   -3.9792   24.1037 C   0  0  0  0  0  0  0  0  0  0  0  0
    3.3655   -4.6634   23.7000 H   0  0  0  0  0  0  0  0  0  0  0  0
    3.6154   -3.0370   24.3727 H   0  0  0  0  0  0  0  0  0  0  0  0
    5.1996   -3.7037   23.0583 C   0  0  0  0  0  0  0  0  0  0  0  0
    4.7764   -3.1196   22.2354 H   0  0  0  0  0  0  0  0  0  0  0  0
    5.5327   -4.6703   22.6467 H   0  0  0  0  0  0  0  0  0  0  0  0
    8.5280   -2.1211   23.0390 C   0  0  0  0  0  0  0  0  0  0  0  0
    9.0161   -2.6811   23.8277 H   0  0  0  0  0  0  0  0  0  0  0  0
    9.3091   -1.3257   22.2209 N   0  0  0  0  0  0  0  0  0  0  0  0
   10.3086   -1.1645   22.3081 H   0  0  0  0  0  0  0  0  0  0  0  0
    8.7975   -0.5636   21.1784 C   0  0  0  0  0  0  0  0  0  0  0  0
    9.5873    0.1335   20.5613 O   0  0  0  0  0  0  0  0  0  0  0  0
    5.4068    0.6411   20.1623 C   0  0  0  0  0  0  0  0  0  0  0  0
    4.9771    0.6312   21.1661 H   0  0  0  0  0  0  0  0  0  0  0  0
    4.8025    1.3180   19.1081 C   0  0  0  0  0  0  0  0  0  0  0  0
    3.8712    1.8528   19.2503 H   0  0  0  0  0  0  0  0  0  0  0  0
  1  2  1  0
  2  3  2  0
  3  4  1  0
  4  5  1  0
  4  6  2  0
  6  7  1  0
  7  8  2  0
  8  9  1  0
  9 10  1  0
 10 11  1  0
 11 12  1  0
 11 13  1  0
 11 14  1  0
 14 15  1  0
 14 16  1  0
 14 17  1  0
 17 18  1  0
 18 19  1  0
 18 20  1  0
 18 21  1  0
 21 22  1  0
 21 23  1  0
  9 24  2  0
 24 25  1  0
 24 26  1  0
 26 27  1  0
 26 28  1  0
 28 29  2  0
  6 30  1  0
 30 31  1  0
 30 32  2  0
 32 33  1  0
 32  2  1  0
 28  7  1  0
 21 10  1  0
M  END
>  <cnnaffinity>  (1) 
-4.75678

>  <filename>  (1) 
O=c1[nH]cc(N2CCOCC2)nc1-c1cccnc1

$$$$
