
     RDKit          3D

 40 42  0  0  0  0  0  0  0  0999 V2000
    4.9005    1.8244   16.9749 H   0  0  0  0  0  0  0  0  0  0  0  0
    5.3785    1.3103   17.8055 C   0  0  0  0  0  0  0  0  0  0  0  0
    6.5434    0.6984   17.5295 N   0  0  0  0  0  0  0  0  0  0  0  0
    7.1728    0.0758   18.5363 C   0  0  0  0  0  0  0  0  0  0  0  0
    8.1207   -0.4089   18.3063 H   0  0  0  0  0  0  0  0  0  0  0  0
    6.6679    0.0270   19.8536 C   0  0  0  0  0  0  0  0  0  0  0  0
    7.3532   -0.6421   20.9447 N   0  0  0  0  0  0  0  0  0  0  0  0
    7.8732    0.1128   22.0357 C   0  0  0  0  0  0  0  0  0  0  0  0
    7.7106    1.3147   22.0987 O   0  0  0  0  0  0  0  0  0  0  0  0
    8.6090   -0.6375   23.0295 C   0  0  0  0  0  0  0  0  0  0  0  0
    8.9535   -0.0502   23.8625 H   0  0  0  0  0  0  0  0  0  0  0  0
    8.7768   -1.9690   22.9532 C   0  0  0  0  0  0  0  0  0  0  0  0
    9.3946   -2.8239   24.0089 C   0  0  0  0  0  0  0  0  0  0  0  0
   10.0473   -2.1908   24.6221 H   0  0  0  0  0  0  0  0  0  0  0  0
   10.0409   -3.5714   23.5368 H   0  0  0  0  0  0  0  0  0  0  0  0
    8.3830   -3.5330   24.9410 C   0  0  0  0  0  0  0  0  0  0  0  0
    7.6958   -4.1540   24.3363 H   0  0  0  0  0  0  0  0  0  0  0  0
    9.1256   -4.4927   25.8978 C   0  0  0  0  0  0  0  0  0  0  0  0
    9.7323   -5.2107   25.3277 H   0  0  0  0  0  0  0  0  0  0  0  0
    9.8334   -3.9042   26.5093 H   0  0  0  0  0  0  0  0  0  0  0  0
    8.1588   -5.2344   26.8371 C   0  0  0  0  0  0  0  0  0  0  0  0
    7.5188   -5.9191   26.2557 H   0  0  0  0  0  0  0  0  0  0  0  0
    8.7146   -5.8631   27.5448 H   0  0  0  0  0  0  0  0  0  0  0  0
    7.3279   -4.2074   27.6194 C   0  0  0  0  0  0  0  0  0  0  0  0
    6.6574   -4.6850   28.3430 H   0  0  0  0  0  0  0  0  0  0  0  0
    8.0532   -3.6231   28.2011 H   0  0  0  0  0  0  0  0  0  0  0  0
    6.5568   -3.2477   26.7003 C   0  0  0  0  0  0  0  0  0  0  0  0
    5.9992   -2.5117   27.2947 H   0  0  0  0  0  0  0  0  0  0  0  0
    5.8013   -3.8036   26.1218 H   0  0  0  0  0  0  0  0  0  0  0  0
    7.5115   -2.5301   25.7341 C   0  0  0  0  0  0  0  0  0  0  0  0
    8.1673   -1.8528   26.3109 H   0  0  0  0  0  0  0  0  0  0  0  0
    6.9338   -1.8917   25.0504 H   0  0  0  0  0  0  0  0  0  0  0  0
    8.2451   -2.5972   21.8447 N   0  0  0  0  0  0  0  0  0  0  0  0
    8.1167   -3.5895   21.7808 H   0  0  0  0  0  0  0  0  0  0  0  0
    7.2952   -2.0295   21.0238 C   0  0  0  0  0  0  0  0  0  0  0  0
    6.5193   -2.7383   20.4265 O   0  0  0  0  0  0  0  0  0  0  0  0
    5.4577    0.6652   20.1183 C   0  0  0  0  0  0  0  0  0  0  0  0
    5.0682    0.6485   21.1334 H   0  0  0  0  0  0  0  0  0  0  0  0
    4.7895    1.3164   19.0732 C   0  0  0  0  0  0  0  0  0  0  0  0
    3.8513    1.8407   19.2376 H   0  0  0  0  0  0  0  0  0  0  0  0
  1  2  1  0
  2  3  2  0
  3  4  1  0
  4  5  1  0
  4  6  2  0
  6  7  1  0
  7  8  1  0
  8  9  2  0
  8 10  1  0
 10 11  1  0
 10 12  2  0
 12 13  1  0
 13 14  1  0
 13 15  1  0
 13 16  1  0
 16 17  1  0
 16 18  1  0
 18 19  1  0
 18 20  1  0
 18 21  1  0
 21 22  1  0
 21 23  1  0
 21 24  1  0
 24 25  1  0
 24 26  1  0
 24 27  1  0
 27 28  1  0
 27 29  1  0
 27 30  1  0
 30 31  1  0
 30 32  1  0
 12 33  1  0
 33 34  1  0
 33 35  1  0
 35 36  2  0
  6 37  1  0
 37 38  1  0
 37 39  2  0
 39 40  1  0
 39  2  1  0
 35  7  1  0
 30 16  1  0
M  END
>  <cnnaffinity>  (1) 
-5.21356

>  <filename>  (1) 
O=c1cc(CC2CCCCC2)[nH]c(=O)n1-c1cccnc1

$$$$
