
     RDKit          3D

 33 35  0  0  0  0  0  0  0  0999 V2000
    4.9129    1.8007   16.9784 H   0  0  0  0  0  0  0  0  0  0  0  0
    5.3848    1.3023   17.8226 C   0  0  0  0  0  0  0  0  0  0  0  0
    6.5419    0.6807   17.5530 N   0  0  0  0  0  0  0  0  0  0  0  0
    7.1514    0.0651   18.5733 C   0  0  0  0  0  0  0  0  0  0  0  0
    8.1084   -0.4093   18.3639 H   0  0  0  0  0  0  0  0  0  0  0  0
    6.6416    0.0078   19.8850 C   0  0  0  0  0  0  0  0  0  0  0  0
    7.3534   -0.7096   20.9583 C   0  0  0  0  0  0  0  0  0  0  0  0
    6.6960   -1.6391   21.7336 C   0  0  0  0  0  0  0  0  0  0  0  0
    5.6468   -1.8495   21.5441 H   0  0  0  0  0  0  0  0  0  0  0  0
    7.3502   -2.3633   22.7725 C   0  0  0  0  0  0  0  0  0  0  0  0
    6.6509   -3.3297   23.5587 C   0  0  0  0  0  0  0  0  0  0  0  0
    6.0406   -4.1415   24.2141 C   0  0  0  0  0  0  0  0  0  0  0  0
    5.3308   -5.1109   24.9985 C   0  0  0  0  0  0  0  0  0  0  0  0
    5.9975   -5.8099   26.0234 C   0  0  0  0  0  0  0  0  0  0  0  0
    7.0476   -5.6043   26.2138 H   0  0  0  0  0  0  0  0  0  0  0  0
    5.3112   -6.7560   26.7871 C   0  0  0  0  0  0  0  0  0  0  0  0
    5.8343   -7.2899   27.5762 H   0  0  0  0  0  0  0  0  0  0  0  0
    3.9584   -7.0101   26.5358 C   0  0  0  0  0  0  0  0  0  0  0  0
    3.4279   -7.7454   27.1349 H   0  0  0  0  0  0  0  0  0  0  0  0
    3.2878   -6.3193   25.5197 C   0  0  0  0  0  0  0  0  0  0  0  0
    2.2367   -6.5139   25.3252 H   0  0  0  0  0  0  0  0  0  0  0  0
    3.9690   -5.3721   24.7512 C   0  0  0  0  0  0  0  0  0  0  0  0
    3.4583   -4.8287   23.9603 H   0  0  0  0  0  0  0  0  0  0  0  0
    8.6772   -2.1074   23.0182 C   0  0  0  0  0  0  0  0  0  0  0  0
    9.2402   -2.6152   23.7979 H   0  0  0  0  0  0  0  0  0  0  0  0
    9.3190   -1.1814   22.2626 N   0  0  0  0  0  0  0  0  0  0  0  0
   10.2862   -0.9031   22.3501 H   0  0  0  0  0  0  0  0  0  0  0  0
    8.7759   -0.4242   21.2244 C   0  0  0  0  0  0  0  0  0  0  0  0
    9.5394    0.3615   20.6861 O   0  0  0  0  0  0  0  0  0  0  0  0
    5.4210    0.6515   20.1370 C   0  0  0  0  0  0  0  0  0  0  0  0
    5.0067    0.6471   21.1486 H   0  0  0  0  0  0  0  0  0  0  0  0
    4.7919    1.3225   19.0898 C   0  0  0  0  0  0  0  0  0  0  0  0
    3.8644    1.8559   19.2419 H   0  0  0  0  0  0  0  0  0  0  0  0
  1  2  1  0
  2  3  2  0
  3  4  1  0
  4  5  1  0
  4  6  2  0
  6  7  1  0
  7  8  2  0
  8  9  1  0
  8 10  1  0
 10 11  1  0
 11 12  3  0
 12 13  1  0
 13 14  2  0
 14 15  1  0
 14 16  1  0
 16 17  1  0
 16 18  2  0
 18 19  1  0
 18 20  1  0
 20 21  1  0
 20 22  2  0
 22 23  1  0
 10 24  2  0
 24 25  1  0
 24 26  1  0
 26 27  1  0
 26 28  1  0
 28 29  2  0
  6 30  1  0
 30 31  1  0
 30 32  2  0
 32 33  1  0
 32  2  1  0
 28  7  1  0
 22 13  1  0
M  END
>  <cnnaffinity>  (1) 
-5.309

>  <filename>  (1) 
O=c1[nH]cc(C#Cc2ccccc2)cc1-c1cccnc1

$$$$
