
     RDKit          3D

 34 37  0  0  0  0  0  0  0  0999 V2000
    4.9689    2.1353   16.6551 H   0  0  0  0  0  0  0  0  0  0  0  0
    5.2222    1.4744   17.4825 C   0  0  0  0  0  0  0  0  0  0  0  0
    6.2708    0.6591   17.2792 N   0  0  0  0  0  0  0  0  0  0  0  0
    6.6517   -0.1039   18.3099 C   0  0  0  0  0  0  0  0  0  0  0  0
    7.5030   -0.7632   18.1297 H   0  0  0  0  0  0  0  0  0  0  0  0
    6.0385   -0.0972   19.5811 C   0  0  0  0  0  0  0  0  0  0  0  0
    6.7304   -0.7366   20.7314 C   0  0  0  0  0  0  0  0  0  0  0  0
    6.1290   -1.6763   21.6194 C   0  0  0  0  0  0  0  0  0  0  0  0
    5.1010   -1.9870   21.4600 H   0  0  0  0  0  0  0  0  0  0  0  0
    6.8549   -2.2322   22.6287 C   0  0  0  0  0  0  0  0  0  0  0  0
    6.4706   -2.9820   23.3030 H   0  0  0  0  0  0  0  0  0  0  0  0
    8.2536   -1.9010   22.8644 C   0  0  0  0  0  0  0  0  0  0  0  0
    8.9285   -2.4403   23.7227 O   0  0  0  0  0  0  0  0  0  0  0  0
    8.7826   -0.9069   21.9806 N   0  0  0  0  0  0  0  0  0  0  0  0
   10.1558   -0.4817   22.1246 C   0  0  0  0  0  0  0  0  0  0  0  0
   10.4356    0.8492   22.5466 C   0  0  0  0  0  0  0  0  0  0  0  0
    9.6117    1.5541   22.6495 H   0  0  0  0  0  0  0  0  0  0  0  0
   11.7390    1.2517   22.8109 C   0  0  0  0  0  0  0  0  0  0  0  0
   11.9644    2.2626   23.1341 H   0  0  0  0  0  0  0  0  0  0  0  0
   12.7625    0.2907   22.6300 C   0  0  0  0  0  0  0  0  0  0  0  0
   12.5056   -1.0028   22.1243 C   0  0  0  0  0  0  0  0  0  0  0  0
   13.7879   -1.6295   22.0782 C   0  0  0  0  0  0  0  0  0  0  0  0
   14.0345   -2.6341   21.7451 H   0  0  0  0  0  0  0  0  0  0  0  0
   14.7208   -0.8202   22.5263 N   0  0  0  0  0  0  0  0  0  0  0  0
   14.1024    0.3329   22.8543 N   0  0  0  0  0  0  0  0  0  0  0  0
   14.6363    1.1175   23.1932 H   0  0  0  0  0  0  0  0  0  0  0  0
   11.1689   -1.3909   21.8695 C   0  0  0  0  0  0  0  0  0  0  0  0
   10.9051   -2.3719   21.5012 H   0  0  0  0  0  0  0  0  0  0  0  0
    8.0357   -0.3944   20.9513 C   0  0  0  0  0  0  0  0  0  0  0  0
    8.5532    0.2986   20.2979 H   0  0  0  0  0  0  0  0  0  0  0  0
    4.8756    0.6680   19.7289 C   0  0  0  0  0  0  0  0  0  0  0  0
    4.3243    0.6493   20.6708 H   0  0  0  0  0  0  0  0  0  0  0  0
    4.4801    1.4907   18.6689 C   0  0  0  0  0  0  0  0  0  0  0  0
    3.6416    2.1702   18.7641 H   0  0  0  0  0  0  0  0  0  0  0  0
  1  2  1  0
  2  3  2  0
  3  4  1  0
  4  5  1  0
  4  6  2  0
  6  7  1  0
  7  8  1  0
  8  9  1  0
  8 10  2  0
 10 11  1  0
 10 12  1  0
 12 13  2  0
 12 14  1  0
 14 15  1  0
 15 16  2  0
 16 17  1  0
 16 18  1  0
 18 19  1  0
 18 20  2  0
 20 21  1  0
 21 22  1  0
 22 23  1  0
 22 24  2  0
 24 25  1  0
 25 26  1  0
 21 27  2  0
 27 28  1  0
 14 29  1  0
 29 30  1  0
  6 31  1  0
 31 32  1  0
 31 33  2  0
 33 34  1  0
 33  2  1  0
 29  7  2  0
 27 15  1  0
 25 20  1  0
M  END
>  <cnnaffinity>  (1) 
-6.06988

>  <filename>  (1) 
O=c1ccc(-c2cccnc2)cn1-c1ccc2[nH]ncc2c1

$$$$
