
     RDKit          3D

 34 37  0  0  0  0  0  0  0  0999 V2000
    4.9723    1.7794   16.9810 H   0  0  0  0  0  0  0  0  0  0  0  0
    5.4329    1.2823   17.8307 C   0  0  0  0  0  0  0  0  0  0  0  0
    6.6031    0.6621   17.5962 N   0  0  0  0  0  0  0  0  0  0  0  0
    7.2009    0.0525   18.6277 C   0  0  0  0  0  0  0  0  0  0  0  0
    8.1654   -0.4209   18.4518 H   0  0  0  0  0  0  0  0  0  0  0  0
    6.6429   -0.0112   19.9168 C   0  0  0  0  0  0  0  0  0  0  0  0
    7.3306   -0.7286   20.9393 N   0  0  0  0  0  0  0  0  0  0  0  0
    8.6976   -0.6382   20.9064 N   0  0  0  0  0  0  0  0  0  0  0  0
    9.3796   -1.2128   21.8736 C   0  0  0  0  0  0  0  0  0  0  0  0
   10.8407   -0.9891   21.9147 C   0  0  0  0  0  0  0  0  0  0  0  0
   11.7371   -2.0576   22.0383 C   0  0  0  0  0  0  0  0  0  0  0  0
   11.3392   -3.0539   22.2035 H   0  0  0  0  0  0  0  0  0  0  0  0
   13.1267   -1.8360   22.0470 C   0  0  0  0  0  0  0  0  0  0  0  0
   13.8012   -2.6886   22.0097 H   0  0  0  0  0  0  0  0  0  0  0  0
   13.6462   -0.5481   22.1314 C   0  0  0  0  0  0  0  0  0  0  0  0
   14.7160   -0.3734   22.1869 H   0  0  0  0  0  0  0  0  0  0  0  0
   12.7320    0.5206   22.1135 C   0  0  0  0  0  0  0  0  0  0  0  0
   11.3527    0.3238   21.8626 C   0  0  0  0  0  0  0  0  0  0  0  0
   10.7863    1.6149   21.5798 C   0  0  0  0  0  0  0  0  0  0  0  0
    9.7857    1.7804   21.1982 H   0  0  0  0  0  0  0  0  0  0  0  0
   11.7890    2.5211   21.7306 C   0  0  0  0  0  0  0  0  0  0  0  0
   11.7888    3.5848   21.5414 H   0  0  0  0  0  0  0  0  0  0  0  0
   12.9460    1.8774   22.1225 N   0  0  0  0  0  0  0  0  0  0  0  0
   13.8700    2.2743   22.0910 H   0  0  0  0  0  0  0  0  0  0  0  0
    8.7637   -2.0583   22.9412 C   0  0  0  0  0  0  0  0  0  0  0  0
    9.3963   -2.6219   23.8318 O   0  0  0  0  0  0  0  0  0  0  0  0
    7.3147   -2.1536   22.8461 C   0  0  0  0  0  0  0  0  0  0  0  0
    6.8080   -2.7377   23.6010 H   0  0  0  0  0  0  0  0  0  0  0  0
    6.6705   -1.4944   21.8711 C   0  0  0  0  0  0  0  0  0  0  0  0
    5.5895   -1.5481   21.7497 H   0  0  0  0  0  0  0  0  0  0  0  0
    5.4311    0.6525   20.1579 C   0  0  0  0  0  0  0  0  0  0  0  0
    5.0166    0.6785   21.1663 H   0  0  0  0  0  0  0  0  0  0  0  0
    4.8183    1.3103   19.0876 C   0  0  0  0  0  0  0  0  0  0  0  0
    3.8811    1.8413   19.2196 H   0  0  0  0  0  0  0  0  0  0  0  0
  1  2  1  0
  2  3  2  0
  3  4  1  0
  4  5  1  0
  4  6  2  0
  6  7  1  0
  7  8  1  0
  8  9  2  0
  9 10  1  0
 10 11  2  0
 11 12  1  0
 11 13  1  0
 13 14  1  0
 13 15  2  0
 15 16  1  0
 15 17  1  0
 17 18  2  0
 18 19  1  0
 19 20  1  0
 19 21  2  0
 21 22  1  0
 21 23  1  0
 23 24  1  0
  9 25  1  0
 25 26  2  0
 25 27  1  0
 27 28  1  0
 27 29  2  0
 29 30  1  0
  6 31  1  0
 31 32  1  0
 31 33  2  0
 33 34  1  0
 33  2  1  0
 29  7  1  0
 18 10  1  0
 23 17  1  0
M  END
>  <cnnaffinity>  (1) 
-6.22239

>  <filename>  (1) 
O=c1ccn(-c2cccnc2)nc1-c1cccc2[nH]ccc12

$$$$
