
     RDKit          3D

 35 38  0  0  0  0  0  0  0  0999 V2000
    4.9113    1.7866   16.9904 H   0  0  0  0  0  0  0  0  0  0  0  0
    5.3947    1.2991   17.8329 C   0  0  0  0  0  0  0  0  0  0  0  0
    6.5559    0.6770   17.5660 N   0  0  0  0  0  0  0  0  0  0  0  0
    7.1645    0.0572   18.5823 C   0  0  0  0  0  0  0  0  0  0  0  0
    8.1184   -0.4215   18.3788 H   0  0  0  0  0  0  0  0  0  0  0  0
    6.6414   -0.0047   19.8863 C   0  0  0  0  0  0  0  0  0  0  0  0
    7.3463   -0.6843   20.9367 N   0  0  0  0  0  0  0  0  0  0  0  0
    6.7256   -1.7375   21.5799 C   0  0  0  0  0  0  0  0  0  0  0  0
    5.7107   -1.9574   21.2449 H   0  0  0  0  0  0  0  0  0  0  0  0
    7.3340   -2.4447   22.5807 C   0  0  0  0  0  0  0  0  0  0  0  0
    6.6505   -3.5747   23.2534 C   0  0  0  0  0  0  0  0  0  0  0  0
    6.7714   -3.7516   24.6668 C   0  0  0  0  0  0  0  0  0  0  0  0
    7.3599   -3.0320   25.2354 H   0  0  0  0  0  0  0  0  0  0  0  0
    6.1413   -4.7937   25.3310 C   0  0  0  0  0  0  0  0  0  0  0  0
    6.2328   -4.9323   26.4069 H   0  0  0  0  0  0  0  0  0  0  0  0
    5.3821   -5.6814   24.5497 C   0  0  0  0  0  0  0  0  0  0  0  0
    5.2455   -5.5346   23.1478 C   0  0  0  0  0  0  0  0  0  0  0  0
    5.8843   -4.4696   22.5055 C   0  0  0  0  0  0  0  0  0  0  0  0
    5.8022   -4.3656   21.4275 H   0  0  0  0  0  0  0  0  0  0  0  0
    4.4075   -6.6015   22.6929 C   0  0  0  0  0  0  0  0  0  0  0  0
    4.1184   -6.7685   21.6663 H   0  0  0  0  0  0  0  0  0  0  0  0
    4.0712   -7.3456   23.7830 C   0  0  0  0  0  0  0  0  0  0  0  0
    3.4501   -8.2342   23.8499 H   0  0  0  0  0  0  0  0  0  0  0  0
    4.6606   -6.7906   24.9060 N   0  0  0  0  0  0  0  0  0  0  0  0
    4.5883   -7.1176   25.8510 H   0  0  0  0  0  0  0  0  0  0  0  0
    8.6620   -2.0603   22.9606 C   0  0  0  0  0  0  0  0  0  0  0  0
    9.1651   -2.6304   23.7449 H   0  0  0  0  0  0  0  0  0  0  0  0
    9.2926   -1.0284   22.3454 C   0  0  0  0  0  0  0  0  0  0  0  0
   10.2881   -0.6999   22.5978 H   0  0  0  0  0  0  0  0  0  0  0  0
    8.6738   -0.2492   21.2876 C   0  0  0  0  0  0  0  0  0  0  0  0
    9.2182    0.6820   20.7155 O   0  0  0  0  0  0  0  0  0  0  0  0
    5.4309    0.6417   20.1540 C   0  0  0  0  0  0  0  0  0  0  0  0
    5.0225    0.6245   21.1694 H   0  0  0  0  0  0  0  0  0  0  0  0
    4.8017    1.3188   19.1020 C   0  0  0  0  0  0  0  0  0  0  0  0
    3.8684    1.8488   19.2595 H   0  0  0  0  0  0  0  0  0  0  0  0
  1  2  1  0
  2  3  2  0
  3  4  1  0
  4  5  1  0
  4  6  2  0
  6  7  1  0
  7  8  1  0
  8  9  1  0
  8 10  2  0
 10 11  1  0
 11 12  2  0
 12 13  1  0
 12 14  1  0
 14 15  1  0
 14 16  2  0
 16 17  1  0
 17 18  2  0
 18 19  1  0
 17 20  1  0
 20 21  1  0
 20 22  2  0
 22 23  1  0
 22 24  1  0
 24 25  1  0
 10 26  1  0
 26 27  1  0
 26 28  2  0
 28 29  1  0
 28 30  1  0
 30 31  2  0
  6 32  1  0
 32 33  1  0
 32 34  2  0
 34 35  1  0
 34  2  1  0
 30  7  1  0
 18 11  1  0
 24 16  1  0
M  END
>  <cnnaffinity>  (1) 
-5.61202

>  <filename>  (1) 
O=c1ccc(-c2ccc3[nH]ccc3c2)cn1-c1cccnc1

$$$$
