
     RDKit          3D

 32 34  0  0  0  0  0  0  0  0999 V2000
    4.9221    1.8018   16.9820 H   0  0  0  0  0  0  0  0  0  0  0  0
    5.3969    1.2990   17.8209 C   0  0  0  0  0  0  0  0  0  0  0  0
    6.5616    0.6879   17.5519 N   0  0  0  0  0  0  0  0  0  0  0  0
    7.1735    0.0699   18.5707 C   0  0  0  0  0  0  0  0  0  0  0  0
    8.1271   -0.4082   18.3342 H   0  0  0  0  0  0  0  0  0  0  0  0
    6.6610    0.0047   19.8791 C   0  0  0  0  0  0  0  0  0  0  0  0
    7.3967   -0.6920   21.0097 C   0  0  2  0  0  0  0  0  0  0  0  0
    8.1900   -1.3207   20.5767 H   0  0  0  0  0  0  0  0  0  0  0  0
    6.5185   -1.6491   21.8330 C   0  0  0  0  0  0  0  0  0  0  0  0
    5.8244   -2.5715   21.4591 O   0  0  0  0  0  0  0  0  0  0  0  0
    6.6871   -1.3363   23.1332 N   0  0  0  0  0  0  0  0  0  0  0  0
    6.1204   -1.8830   23.7566 H   0  0  0  0  0  0  0  0  0  0  0  0
    7.5902   -0.2589   23.4527 C   0  0  0  0  0  0  0  0  0  0  0  0
    8.4531   -0.6238   24.0333 H   0  0  0  0  0  0  0  0  0  0  0  0
    7.1097    0.5087   24.0723 H   0  0  0  0  0  0  0  0  0  0  0  0
    7.9852    0.3037   22.0553 C   0  0  1  0  0  0  0  0  0  0  0  0
    7.5106    1.2882   21.9377 H   0  0  0  0  0  0  0  0  0  0  0  0
    9.4741    0.5189   21.8870 C   0  0  0  0  0  0  0  0  0  0  0  0
   10.3499   -0.5645   22.0708 C   0  0  0  0  0  0  0  0  0  0  0  0
    9.9870   -1.5627   22.3020 H   0  0  0  0  0  0  0  0  0  0  0  0
   11.7230   -0.3604   21.9716 C   0  0  0  0  0  0  0  0  0  0  0  0
   12.8249   -1.6979   22.0803 Cl  0  0  0  0  0  0  0  0  0  0  0  0
   12.2422    0.9092   21.7387 C   0  0  0  0  0  0  0  0  0  0  0  0
   13.3123    1.0657   21.7258 H   0  0  0  0  0  0  0  0  0  0  0  0
   11.3720    1.9618   21.4767 C   0  0  0  0  0  0  0  0  0  0  0  0
   12.0959    3.4751   21.0222 Cl  0  0  0  0  0  0  0  0  0  0  0  0
    9.9889    1.7879   21.5588 C   0  0  0  0  0  0  0  0  0  0  0  0
    9.3247    2.6319   21.3836 H   0  0  0  0  0  0  0  0  0  0  0  0
    5.4455    0.6517   20.1364 C   0  0  0  0  0  0  0  0  0  0  0  0
    5.0200    0.6311   21.1406 H   0  0  0  0  0  0  0  0  0  0  0  0
    4.8035    1.3128   19.0865 C   0  0  0  0  0  0  0  0  0  0  0  0
    3.8744    1.8430   19.2404 H   0  0  0  0  0  0  0  0  0  0  0  0
  1  2  1  0
  2  3  2  0
  3  4  1  0
  4  5  1  0
  4  6  2  0
  6  7  1  0
  7  8  1  6
  7  9  1  0
  9 10  2  0
  9 11  1  0
 11 12  1  0
 11 13  1  0
 13 14  1  0
 13 15  1  0
 13 16  1  0
 16 17  1  6
 16 18  1  0
 18 19  2  0
 19 20  1  0
 19 21  1  0
 21 22  1  0
 21 23  2  0
 23 24  1  0
 23 25  1  0
 25 26  1  0
 25 27  2  0
 27 28  1  0
  6 29  1  0
 29 30  1  0
 29 31  2  0
 31 32  1  0
 31  2  1  0
 16  7  1  0
 27 18  1  0
M  END
>  <cnnaffinity>  (1) 
-5.07613

>  <filename>  (1) 
O=C1NC[C@@H](c2cc(Cl)cc(Cl)c2)[C@@H]1c1cccnc1

$$$$
