
     RDKit          3D

 32 34  0  0  0  0  0  0  0  0999 V2000
    4.9561    1.7817   16.9741 H   0  0  0  0  0  0  0  0  0  0  0  0
    5.4163    1.3125   17.8439 C   0  0  0  0  0  0  0  0  0  0  0  0
    6.6069    0.7232   17.6447 N   0  0  0  0  0  0  0  0  0  0  0  0
    7.1886    0.1220   18.6913 C   0  0  0  0  0  0  0  0  0  0  0  0
    8.1524   -0.3447   18.5031 H   0  0  0  0  0  0  0  0  0  0  0  0
    6.6130    0.0791   19.9776 C   0  0  0  0  0  0  0  0  0  0  0  0
    7.2061   -0.6419   21.0631 N   0  0  0  0  0  0  0  0  0  0  0  0
    7.5083    0.1065   22.1698 N   0  0  0  0  0  0  0  0  0  0  0  0
    8.2096   -0.4524   23.1157 C   0  0  0  0  0  0  0  0  0  0  0  0
    8.5004    0.3696   24.3558 C   0  0  0  0  0  0  0  0  0  0  0  0
    7.6792    1.0869   24.4843 H   0  0  0  0  0  0  0  0  0  0  0  0
    8.4933   -0.3013   25.2223 H   0  0  0  0  0  0  0  0  0  0  0  0
    9.8197    1.1126   24.2667 C   0  0  0  0  0  0  0  0  0  0  0  0
   11.0344    0.6036   24.7605 C   0  0  0  0  0  0  0  0  0  0  0  0
   11.0488   -0.3318   25.3223 H   0  0  0  0  0  0  0  0  0  0  0  0
   12.2245    1.1957   24.5875 N   0  0  0  0  0  0  0  0  0  0  0  0
   12.2445    2.3487   23.9048 C   0  0  0  0  0  0  0  0  0  0  0  0
   13.2223    2.7996   23.7437 H   0  0  0  0  0  0  0  0  0  0  0  0
   11.0933    2.9629   23.4060 C   0  0  0  0  0  0  0  0  0  0  0  0
   11.1631    3.9052   22.8773 H   0  0  0  0  0  0  0  0  0  0  0  0
    9.8624    2.3359   23.5881 C   0  0  0  0  0  0  0  0  0  0  0  0
    8.9382    2.7821   23.2122 H   0  0  0  0  0  0  0  0  0  0  0  0
    8.7049   -1.8107   22.9957 C   0  0  0  0  0  0  0  0  0  0  0  0
    9.4128   -2.1718   23.7436 H   0  0  0  0  0  0  0  0  0  0  0  0
    8.2367   -2.6006   21.9901 C   0  0  0  0  0  0  0  0  0  0  0  0
    8.4946   -3.6444   21.8586 H   0  0  0  0  0  0  0  0  0  0  0  0
    7.2544   -2.0839   21.0278 C   0  0  0  0  0  0  0  0  0  0  0  0
    6.5774   -2.7415   20.2660 O   0  0  0  0  0  0  0  0  0  0  0  0
    5.4179    0.7641   20.1910 C   0  0  0  0  0  0  0  0  0  0  0  0
    5.0398    0.8594   21.2105 H   0  0  0  0  0  0  0  0  0  0  0  0
    4.7867    1.3568   19.0942 C   0  0  0  0  0  0  0  0  0  0  0  0
    3.8493    1.8848   19.2126 H   0  0  0  0  0  0  0  0  0  0  0  0
  1  2  1  0
  2  3  2  0
  3  4  1  0
  4  5  1  0
  4  6  2  0
  6  7  1  0
  7  8  1  0
  8  9  2  0
  9 10  1  0
 10 11  1  0
 10 12  1  0
 10 13  1  0
 13 14  2  0
 14 15  1  0
 14 16  1  0
 16 17  2  0
 17 18  1  0
 17 19  1  0
 19 20  1  0
 19 21  2  0
 21 22  1  0
  9 23  1  0
 23 24  1  0
 23 25  2  0
 25 26  1  0
 25 27  1  0
 27 28  2  0
  6 29  1  0
 29 30  1  0
 29 31  2  0
 31 32  1  0
 31  2  1  0
 27  7  1  0
 21 13  1  0
M  END
>  <cnnaffinity>  (1) 
-5.31009

>  <filename>  (1) 
O=c1ccc(Cc2cccnc2)nn1-c1cccnc1

$$$$
