
     RDKit          3D

 27 29  0  0  0  0  0  0  0  0999 V2000
    4.9343    1.7928   16.9923 H   0  0  0  0  0  0  0  0  0  0  0  0
    5.4028    1.2957   17.8415 C   0  0  0  0  0  0  0  0  0  0  0  0
    6.5627    0.6696   17.5873 N   0  0  0  0  0  0  0  0  0  0  0  0
    7.1704    0.0481   18.6051 C   0  0  0  0  0  0  0  0  0  0  0  0
    8.1090   -0.4449   18.3626 H   0  0  0  0  0  0  0  0  0  0  0  0
    6.6558   -0.0126   19.9132 C   0  0  0  0  0  0  0  0  0  0  0  0
    7.3363   -0.7173   20.9657 N   0  0  0  0  0  0  0  0  0  0  0  0
    6.5610   -1.4453   21.8249 N   0  0  0  0  0  0  0  0  0  0  0  0
    7.1475   -2.1033   22.8023 C   0  0  0  0  0  0  0  0  0  0  0  0
    6.2610   -2.8853   23.6920 C   0  0  0  0  0  0  0  0  0  0  0  0
    4.9023   -3.2070   23.4653 C   0  0  0  0  0  0  0  0  0  0  0  0
    4.2789   -2.9658   22.6125 H   0  0  0  0  0  0  0  0  0  0  0  0
    4.3964   -3.8954   24.4769 N   0  0  0  0  0  0  0  0  0  0  0  0
    5.4122   -4.0350   25.3397 N   0  0  0  0  0  0  0  0  0  0  0  0
    5.2438   -4.5546   26.1907 H   0  0  0  0  0  0  0  0  0  0  0  0
    6.5591   -3.4671   24.9211 C   0  0  0  0  0  0  0  0  0  0  0  0
    7.5003   -3.5301   25.4510 H   0  0  0  0  0  0  0  0  0  0  0  0
    8.6528   -2.0798   23.0431 C   0  0  0  0  0  0  0  0  0  0  0  0
    9.2296   -2.6897   23.9394 O   0  0  0  0  0  0  0  0  0  0  0  0
    9.3801   -1.2526   22.0884 C   0  0  0  0  0  0  0  0  0  0  0  0
   10.4525   -1.1983   22.2132 H   0  0  0  0  0  0  0  0  0  0  0  0
    8.7030   -0.6215   21.1163 C   0  0  0  0  0  0  0  0  0  0  0  0
    9.1846    0.0266   20.3895 H   0  0  0  0  0  0  0  0  0  0  0  0
    5.4414    0.6362   20.1677 C   0  0  0  0  0  0  0  0  0  0  0  0
    5.0365    0.5808   21.1781 H   0  0  0  0  0  0  0  0  0  0  0  0
    4.8141    1.3103   19.1115 C   0  0  0  0  0  0  0  0  0  0  0  0
    3.8796    1.8418   19.2553 H   0  0  0  0  0  0  0  0  0  0  0  0
  1  2  1  0
  2  3  2  0
  3  4  1  0
  4  5  1  0
  4  6  2  0
  6  7  1  0
  7  8  1  0
  8  9  2  0
  9 10  1  0
 10 11  1  0
 11 12  1  0
 11 13  2  0
 13 14  1  0
 14 15  1  0
 14 16  1  0
 16 17  1  0
  9 18  1  0
 18 19  2  0
 18 20  1  0
 20 21  1  0
 20 22  2  0
 22 23  1  0
  6 24  1  0
 24 25  1  0
 24 26  2  0
 26 27  1  0
 26  2  1  0
 22  7  1  0
 16 10  2  0
M  END
>  <cnnaffinity>  (1) 
-4.70007

>  <filename>  (1) 
O=c1ccn(-c2cccnc2)nc1-c1cn[nH]c1

$$$$
