
     RDKit          3D

 32 34  0  0  0  0  0  0  0  0999 V2000
    4.9652    1.8208   17.0432 H   0  0  0  0  0  0  0  0  0  0  0  0
    5.4095    1.2651   17.8668 C   0  0  0  0  0  0  0  0  0  0  0  0
    6.5531    0.6161   17.5971 N   0  0  0  0  0  0  0  0  0  0  0  0
    7.1534   -0.0251   18.6054 C   0  0  0  0  0  0  0  0  0  0  0  0
    8.1134   -0.4959   18.3972 H   0  0  0  0  0  0  0  0  0  0  0  0
    6.6217   -0.0941   19.9065 C   0  0  0  0  0  0  0  0  0  0  0  0
    7.3371   -0.7781   20.9421 N   0  0  0  0  0  0  0  0  0  0  0  0
    6.6038   -1.7115   21.6592 N   0  0  0  0  0  0  0  0  0  0  0  0
    7.2059   -2.3347   22.6398 C   0  0  0  0  0  0  0  0  0  0  0  0
    6.4493   -3.2954   23.2757 N   0  0  0  0  0  0  0  0  0  0  0  0
    5.5441   -3.3225   22.8282 H   0  0  0  0  0  0  0  0  0  0  0  0
    6.5576   -3.6432   24.6343 C   0  0  0  0  0  0  0  0  0  0  0  0
    6.2030   -4.9429   25.0029 C   0  0  0  0  0  0  0  0  0  0  0  0
    5.8303   -5.5992   24.2254 H   0  0  0  0  0  0  0  0  0  0  0  0
    6.3499   -5.3771   26.3200 C   0  0  0  0  0  0  0  0  0  0  0  0
    6.1048   -6.3927   26.6024 H   0  0  0  0  0  0  0  0  0  0  0  0
    6.8313   -4.4971   27.2905 C   0  0  0  0  0  0  0  0  0  0  0  0
    6.9945   -5.0567   28.9285 Cl  0  0  0  0  0  0  0  0  0  0  0  0
    7.1757   -3.1884   26.9480 C   0  0  0  0  0  0  0  0  0  0  0  0
    7.5762   -2.5089   27.6893 H   0  0  0  0  0  0  0  0  0  0  0  0
    7.0277   -2.7597   25.6235 C   0  0  0  0  0  0  0  0  0  0  0  0
    7.2599   -1.7367   25.3542 H   0  0  0  0  0  0  0  0  0  0  0  0
    8.5860   -2.1161   22.9846 C   0  0  0  0  0  0  0  0  0  0  0  0
    9.0128   -2.7102   23.7916 H   0  0  0  0  0  0  0  0  0  0  0  0
    9.3069   -1.1978   22.2815 C   0  0  0  0  0  0  0  0  0  0  0  0
   10.3524   -0.9663   22.4498 H   0  0  0  0  0  0  0  0  0  0  0  0
    8.7100   -0.4179   21.2002 C   0  0  0  0  0  0  0  0  0  0  0  0
    9.3000    0.4350   20.5565 O   0  0  0  0  0  0  0  0  0  0  0  0
    5.4128    0.5630   20.1704 C   0  0  0  0  0  0  0  0  0  0  0  0
    4.9873    0.5298   21.1730 H   0  0  0  0  0  0  0  0  0  0  0  0
    4.8024    1.2716   19.1289 C   0  0  0  0  0  0  0  0  0  0  0  0
    3.8956    1.8518   19.2868 H   0  0  0  0  0  0  0  0  0  0  0  0
  1  2  1  0
  2  3  2  0
  3  4  1  0
  4  5  1  0
  4  6  2  0
  6  7  1  0
  7  8  1  0
  8  9  2  0
  9 10  1  0
 10 11  1  0
 10 12  1  0
 12 13  2  0
 13 14  1  0
 13 15  1  0
 15 16  1  0
 15 17  2  0
 17 18  1  0
 17 19  1  0
 19 20  1  0
 19 21  2  0
 21 22  1  0
  9 23  1  0
 23 24  1  0
 23 25  2  0
 25 26  1  0
 25 27  1  0
 27 28  2  0
  6 29  1  0
 29 30  1  0
 29 31  2  0
 31 32  1  0
 31  2  1  0
 27  7  1  0
 21 12  1  0
M  END
>  <cnnaffinity>  (1) 
-5.35813

>  <filename>  (1) 
O=c1ccc(Nc2ccc(Cl)cc2)nn1-c1cccnc1

$$$$
