
     RDKit          3D

 33 35  0  0  0  0  0  0  0  0999 V2000
    4.9606    1.7783   16.9805 H   0  0  0  0  0  0  0  0  0  0  0  0
    5.4160    1.3067   17.8499 C   0  0  0  0  0  0  0  0  0  0  0  0
    6.6050    0.7172   17.6454 N   0  0  0  0  0  0  0  0  0  0  0  0
    7.1920    0.1236   18.6939 C   0  0  0  0  0  0  0  0  0  0  0  0
    8.1523   -0.3512   18.5028 H   0  0  0  0  0  0  0  0  0  0  0  0
    6.6265    0.0906   19.9815 C   0  0  0  0  0  0  0  0  0  0  0  0
    7.2274   -0.6314   21.0632 N   0  0  0  0  0  0  0  0  0  0  0  0
    7.5126    0.1101   22.1803 N   0  0  0  0  0  0  0  0  0  0  0  0
    8.2069   -0.4560   23.1300 C   0  0  0  0  0  0  0  0  0  0  0  0
    8.4760    0.3597   24.3744 C   0  0  0  0  0  0  0  0  0  0  0  0
    7.6445    1.0632   24.5011 H   0  0  0  0  0  0  0  0  0  0  0  0
    8.4786   -0.3063   25.2434 H   0  0  0  0  0  0  0  0  0  0  0  0
    9.7851    1.1106   24.2694 C   0  0  0  0  0  0  0  0  0  0  0  0
   10.9994    0.5742   24.7226 C   0  0  0  0  0  0  0  0  0  0  0  0
   11.0161   -0.3550   25.2924 H   0  0  0  0  0  0  0  0  0  0  0  0
   12.2090    1.2236   24.4518 C   0  0  0  0  0  0  0  0  0  0  0  0
   13.1580    0.7993   24.7642 H   0  0  0  0  0  0  0  0  0  0  0  0
   12.1875    2.4259   23.7409 C   0  0  0  0  0  0  0  0  0  0  0  0
   13.6767    3.2010   23.2993 Cl  0  0  0  0  0  0  0  0  0  0  0  0
   10.9869    3.0072   23.3284 C   0  0  0  0  0  0  0  0  0  0  0  0
   10.9948    3.9484   22.7873 H   0  0  0  0  0  0  0  0  0  0  0  0
    9.7930    2.3379   23.5964 C   0  0  0  0  0  0  0  0  0  0  0  0
    8.8484    2.7652   23.2641 H   0  0  0  0  0  0  0  0  0  0  0  0
    8.7073   -1.8092   23.0017 C   0  0  0  0  0  0  0  0  0  0  0  0
    9.4090   -2.1778   23.7547 H   0  0  0  0  0  0  0  0  0  0  0  0
    8.2542   -2.5971   21.9874 C   0  0  0  0  0  0  0  0  0  0  0  0
    8.5092   -3.6423   21.8627 H   0  0  0  0  0  0  0  0  0  0  0  0
    7.2712   -2.0759   21.0325 C   0  0  0  0  0  0  0  0  0  0  0  0
    6.5884   -2.7336   20.2699 O   0  0  0  0  0  0  0  0  0  0  0  0
    5.4263    0.7682   20.1994 C   0  0  0  0  0  0  0  0  0  0  0  0
    5.0374    0.8448   21.2130 H   0  0  0  0  0  0  0  0  0  0  0  0
    4.7904    1.3581   19.0997 C   0  0  0  0  0  0  0  0  0  0  0  0
    3.8495    1.8826   19.2155 H   0  0  0  0  0  0  0  0  0  0  0  0
  1  2  1  0
  2  3  2  0
  3  4  1  0
  4  5  1  0
  4  6  2  0
  6  7  1  0
  7  8  1  0
  8  9  2  0
  9 10  1  0
 10 11  1  0
 10 12  1  0
 10 13  1  0
 13 14  2  0
 14 15  1  0
 14 16  1  0
 16 17  1  0
 16 18  2  0
 18 19  1  0
 18 20  1  0
 20 21  1  0
 20 22  2  0
 22 23  1  0
  9 24  1  0
 24 25  1  0
 24 26  2  0
 26 27  1  0
 26 28  1  0
 28 29  2  0
  6 30  1  0
 30 31  1  0
 30 32  2  0
 32 33  1  0
 32  2  1  0
 28  7  1  0
 22 13  1  0
M  END
>  <cnnaffinity>  (1) 
-5.60488

>  <filename>  (1) 
O=c1ccc(Cc2ccc(Cl)cc2)nn1-c1cccnc1

$$$$
