
     RDKit          3D

 27 29  0  0  0  0  0  0  0  0999 V2000
    4.9669    1.7737   16.9863 H   0  0  0  0  0  0  0  0  0  0  0  0
    5.4425    1.2987   17.8374 C   0  0  0  0  0  0  0  0  0  0  0  0
    6.6228    0.7024   17.5880 N   0  0  0  0  0  0  0  0  0  0  0  0
    7.2295    0.0866   18.6044 C   0  0  0  0  0  0  0  0  0  0  0  0
    8.2058   -0.3624   18.4210 H   0  0  0  0  0  0  0  0  0  0  0  0
    6.6571    0.0015   19.8837 C   0  0  0  0  0  0  0  0  0  0  0  0
    7.3501   -0.7016   20.9093 N   0  0  0  0  0  0  0  0  0  0  0  0
    8.6697   -0.3714   21.0132 N   0  0  0  0  0  0  0  0  0  0  0  0
    9.3619   -0.8990   21.9917 C   0  0  0  0  0  0  0  0  0  0  0  0
   10.7561   -0.4309   22.1583 C   0  0  0  0  0  0  0  0  0  0  0  0
   11.5452   -1.0939   22.9952 N   0  0  0  0  0  0  0  0  0  0  0  0
   12.7135   -0.4683   22.9384 N   0  0  0  0  0  0  0  0  0  0  0  0
   13.4632   -0.7817   23.5370 H   0  0  0  0  0  0  0  0  0  0  0  0
   12.7084    0.5906   22.1043 C   0  0  0  0  0  0  0  0  0  0  0  0
   13.6238    1.1330   21.9265 H   0  0  0  0  0  0  0  0  0  0  0  0
   11.4437    0.6602   21.5663 C   0  0  0  0  0  0  0  0  0  0  0  0
   11.0482    1.3575   20.8396 H   0  0  0  0  0  0  0  0  0  0  0  0
    8.7985   -1.8907   22.8848 C   0  0  0  0  0  0  0  0  0  0  0  0
    9.4173   -2.3282   23.6671 H   0  0  0  0  0  0  0  0  0  0  0  0
    7.5033   -2.2568   22.7331 C   0  0  0  0  0  0  0  0  0  0  0  0
    6.9927   -2.9810   23.3575 H   0  0  0  0  0  0  0  0  0  0  0  0
    6.6716   -1.7223   21.6646 C   0  0  0  0  0  0  0  0  0  0  0  0
    5.5474   -2.1079   21.4019 O   0  0  0  0  0  0  0  0  0  0  0  0
    5.4440    0.6388   20.1478 C   0  0  0  0  0  0  0  0  0  0  0  0
    5.0133    0.6024   21.1471 H   0  0  0  0  0  0  0  0  0  0  0  0
    4.8251    1.3133   19.0927 C   0  0  0  0  0  0  0  0  0  0  0  0
    3.8787    1.8311   19.2273 H   0  0  0  0  0  0  0  0  0  0  0  0
  1  2  1  0
  2  3  2  0
  3  4  1  0
  4  5  1  0
  4  6  2  0
  6  7  1  0
  7  8  1  0
  8  9  2  0
  9 10  1  0
 10 11  2  0
 11 12  1  0
 12 13  1  0
 12 14  1  0
 14 15  1  0
 14 16  2  0
 16 17  1  0
  9 18  1  0
 18 19  1  0
 18 20  2  0
 20 21  1  0
 20 22  1  0
 22 23  2  0
  6 24  1  0
 24 25  1  0
 24 26  2  0
 26 27  1  0
 26  2  1  0
 22  7  1  0
 16 10  1  0
M  END
>  <cnnaffinity>  (1) 
-4.31643

>  <filename>  (1) 
O=c1ccc(-c2cc[nH]n2)nn1-c1cccnc1

$$$$
