
     RDKit          3D

 32 34  0  0  0  0  0  0  0  0999 V2000
    4.9231    1.7826   16.9950 H   0  0  0  0  0  0  0  0  0  0  0  0
    5.4002    1.2947   17.8408 C   0  0  0  0  0  0  0  0  0  0  0  0
    6.5602    0.6710   17.5842 N   0  0  0  0  0  0  0  0  0  0  0  0
    7.1498    0.0433   18.6014 C   0  0  0  0  0  0  0  0  0  0  0  0
    8.1145   -0.4146   18.3922 H   0  0  0  0  0  0  0  0  0  0  0  0
    6.6055   -0.0301   19.8993 C   0  0  0  0  0  0  0  0  0  0  0  0
    7.3065   -0.7502   20.9954 C   0  0  0  0  0  0  0  0  0  0  0  0
    6.5673   -1.5127   21.7635 N   0  0  0  0  0  0  0  0  0  0  0  0
    7.1636   -2.1843   22.8048 N   0  0  0  0  0  0  0  0  0  0  0  0
    6.3055   -2.9797   23.6293 C   0  0  0  0  0  0  0  0  0  0  0  0
    5.1986   -3.6470   23.0716 C   0  0  0  0  0  0  0  0  0  0  0  0
    4.9814   -3.5673   22.0125 H   0  0  0  0  0  0  0  0  0  0  0  0
    4.3761   -4.4201   23.7820 N   0  0  0  0  0  0  0  0  0  0  0  0
    4.5871   -4.5582   25.1060 C   0  0  0  0  0  0  0  0  0  0  0  0
    3.6265   -5.4331   25.9440 C   0  0  0  0  0  0  0  0  0  0  0  0
    3.0281   -4.7008   26.9098 F   0  0  0  0  0  0  0  0  0  0  0  0
    4.3032   -6.4073   26.5916 F   0  0  0  0  0  0  0  0  0  0  0  0
    2.6610   -6.0224   25.2332 F   0  0  0  0  0  0  0  0  0  0  0  0
    5.6619   -3.9181   25.7552 C   0  0  0  0  0  0  0  0  0  0  0  0
    5.8161   -4.0420   26.8222 H   0  0  0  0  0  0  0  0  0  0  0  0
    6.5320   -3.1260   25.0081 C   0  0  0  0  0  0  0  0  0  0  0  0
    7.3575   -2.5986   25.4841 H   0  0  0  0  0  0  0  0  0  0  0  0
    8.5258   -2.1119   23.0178 C   0  0  0  0  0  0  0  0  0  0  0  0
    8.9016   -2.7308   23.8329 H   0  0  0  0  0  0  0  0  0  0  0  0
    9.3444   -1.3569   22.2719 C   0  0  0  0  0  0  0  0  0  0  0  0
   10.4127   -1.2752   22.4397 H   0  0  0  0  0  0  0  0  0  0  0  0
    8.7956   -0.5587   21.1818 C   0  0  0  0  0  0  0  0  0  0  0  0
    9.4973    0.1764   20.4924 O   0  0  0  0  0  0  0  0  0  0  0  0
    5.4077    0.6428   20.1586 C   0  0  0  0  0  0  0  0  0  0  0  0
    4.9985    0.6199   21.1722 H   0  0  0  0  0  0  0  0  0  0  0  0
    4.7990    1.3219   19.1044 C   0  0  0  0  0  0  0  0  0  0  0  0
    3.8675    1.8550   19.2509 H   0  0  0  0  0  0  0  0  0  0  0  0
  1  2  1  0
  2  3  2  0
  3  4  1  0
  4  5  1  0
  4  6  2  0
  6  7  1  0
  7  8  2  0
  8  9  1  0
  9 10  1  0
 10 11  2  0
 11 12  1  0
 11 13  1  0
 13 14  2  0
 14 15  1  0
 15 16  1  0
 15 17  1  0
 15 18  1  0
 14 19  1  0
 19 20  1  0
 19 21  2  0
 21 22  1  0
  9 23  1  0
 23 24  1  0
 23 25  2  0
 25 26  1  0
 25 27  1  0
 27 28  2  0
  6 29  1  0
 29 30  1  0
 29 31  2  0
 31 32  1  0
 31  2  1  0
 27  7  1  0
 21 10  1  0
M  END
>  <cnnaffinity>  (1) 
-5.5269

>  <filename>  (1) 
O=c1ccn(-c2ccc(C(F)(F)F)nc2)nc1-c1cccnc1

$$$$
