
     RDKit          3D

 35 38  0  0  0  0  0  0  0  0999 V2000
    4.9330    1.8730   16.9233 H   0  0  0  0  0  0  0  0  0  0  0  0
    5.3958    1.3516   17.7612 C   0  0  0  0  0  0  0  0  0  0  0  0
    6.5690    0.7501   17.5087 N   0  0  0  0  0  0  0  0  0  0  0  0
    7.1580    0.1125   18.5286 C   0  0  0  0  0  0  0  0  0  0  0  0
    8.1123   -0.3589   18.2951 H   0  0  0  0  0  0  0  0  0  0  0  0
    6.6109   -0.0090   19.8281 C   0  0  0  0  0  0  0  0  0  0  0  0
    7.3297   -0.7466   20.8997 C   0  0  0  0  0  0  0  0  0  0  0  0
    8.6514   -0.4654   21.1516 C   0  0  0  0  0  0  0  0  0  0  0  0
    9.1583    0.2868   20.5539 H   0  0  0  0  0  0  0  0  0  0  0  0
    9.4144   -1.1047   22.1726 C   0  0  0  0  0  0  0  0  0  0  0  0
   10.8553   -0.7945   22.3142 C   0  0  0  0  0  0  0  0  0  0  0  0
   11.8751   -1.7025   22.4200 C   0  0  0  0  0  0  0  0  0  0  0  0
   11.8307   -2.7867   22.3713 H   0  0  0  0  0  0  0  0  0  0  0  0
   13.0890   -1.0546   22.5401 N   0  0  0  0  0  0  0  0  0  0  0  0
   13.9470   -1.4751   22.8724 H   0  0  0  0  0  0  0  0  0  0  0  0
   12.8755    0.3024   22.5601 C   0  0  0  0  0  0  0  0  0  0  0  0
   13.7911    1.3564   22.7435 C   0  0  0  0  0  0  0  0  0  0  0  0
   14.8450    1.1633   22.9330 H   0  0  0  0  0  0  0  0  0  0  0  0
   13.3099    2.6580   22.6261 C   0  0  0  0  0  0  0  0  0  0  0  0
   13.9922    3.4987   22.7491 H   0  0  0  0  0  0  0  0  0  0  0  0
   11.9441    2.9013   22.3377 C   0  0  0  0  0  0  0  0  0  0  0  0
   11.5918    3.9248   22.2346 H   0  0  0  0  0  0  0  0  0  0  0  0
   11.0334    1.8528   22.2267 C   0  0  0  0  0  0  0  0  0  0  0  0
    9.9735    2.0544   22.0811 H   0  0  0  0  0  0  0  0  0  0  0  0
   11.4907    0.5188   22.3520 C   0  0  0  0  0  0  0  0  0  0  0  0
    8.7679   -2.0069   22.9834 C   0  0  0  0  0  0  0  0  0  0  0  0
    9.2421   -2.5193   23.8184 H   0  0  0  0  0  0  0  0  0  0  0  0
    7.4515   -2.2816   22.7578 N   0  0  0  0  0  0  0  0  0  0  0  0
    6.9138   -2.9827   23.2452 H   0  0  0  0  0  0  0  0  0  0  0  0
    6.6718   -1.8044   21.6970 C   0  0  0  0  0  0  0  0  0  0  0  0
    5.5882   -2.3383   21.5376 O   0  0  0  0  0  0  0  0  0  0  0  0
    5.3881    0.6370   20.0641 C   0  0  0  0  0  0  0  0  0  0  0  0
    4.9454    0.6048   21.0602 H   0  0  0  0  0  0  0  0  0  0  0  0
    4.7774    1.3316   19.0145 C   0  0  0  0  0  0  0  0  0  0  0  0
    3.8485    1.8695   19.1564 H   0  0  0  0  0  0  0  0  0  0  0  0
  1  2  1  0
  2  3  2  0
  3  4  1  0
  4  5  1  0
  4  6  2  0
  6  7  1  0
  7  8  2  0
  8  9  1  0
  8 10  1  0
 10 11  1  0
 11 12  2  0
 12 13  1  0
 12 14  1  0
 14 15  1  0
 14 16  1  0
 16 17  2  0
 17 18  1  0
 17 19  1  0
 19 20  1  0
 19 21  2  0
 21 22  1  0
 21 23  1  0
 23 24  1  0
 23 25  2  0
 10 26  2  0
 26 27  1  0
 26 28  1  0
 28 29  1  0
 28 30  1  0
 30 31  2  0
  6 32  1  0
 32 33  1  0
 32 34  2  0
 34 35  1  0
 34  2  1  0
 30  7  1  0
 25 11  1  0
 25 16  1  0
M  END
>  <cnnaffinity>  (1) 
-5.72586

>  <filename>  (1) 
O=c1[nH]cc(-c2c[nH]c3ccccc23)cc1-c1cccnc1

$$$$
