
     RDKit          3D

 28 30  0  0  0  0  0  0  0  0999 V2000
    4.9257    1.7829   16.9923 H   0  0  0  0  0  0  0  0  0  0  0  0
    5.4018    1.2897   17.8371 C   0  0  0  0  0  0  0  0  0  0  0  0
    6.5674    0.6672   17.5845 N   0  0  0  0  0  0  0  0  0  0  0  0
    7.1883    0.0643   18.6076 C   0  0  0  0  0  0  0  0  0  0  0  0
    8.1377   -0.4239   18.4008 H   0  0  0  0  0  0  0  0  0  0  0  0
    6.6651    0.0155   19.9122 C   0  0  0  0  0  0  0  0  0  0  0  0
    7.3756   -0.6695   20.9477 N   0  0  0  0  0  0  0  0  0  0  0  0
    8.7393   -0.5270   20.9501 N   0  0  0  0  0  0  0  0  0  0  0  0
    9.4223   -1.1507   21.8782 C   0  0  0  0  0  0  0  0  0  0  0  0
   10.9052   -0.9780   21.8545 C   0  0  0  0  0  0  0  0  0  0  0  0
   11.4654    0.3043   21.6878 C   0  0  0  0  0  0  0  0  0  0  0  0
   10.8435    1.1488   21.4122 H   0  0  0  0  0  0  0  0  0  0  0  0
   12.7608    0.5506   21.9007 N   0  0  0  0  0  0  0  0  0  0  0  0
   13.6169   -0.4706   22.0525 N   0  0  0  0  0  0  0  0  0  0  0  0
   13.1528   -1.7243   22.1027 C   0  0  0  0  0  0  0  0  0  0  0  0
   13.9124   -2.4918   22.1843 H   0  0  0  0  0  0  0  0  0  0  0  0
   11.7855   -2.0300   22.1098 C   0  0  0  0  0  0  0  0  0  0  0  0
   11.4264   -3.0134   22.4161 H   0  0  0  0  0  0  0  0  0  0  0  0
    8.8006   -1.9986   22.9636 C   0  0  0  0  0  0  0  0  0  0  0  0
    9.4280   -2.5460   23.8676 O   0  0  0  0  0  0  0  0  0  0  0  0
    7.3558   -2.1247   22.8467 C   0  0  0  0  0  0  0  0  0  0  0  0
    6.8556   -2.7349   23.5886 H   0  0  0  0  0  0  0  0  0  0  0  0
    6.7204   -1.4680   21.8626 C   0  0  0  0  0  0  0  0  0  0  0  0
    5.6469   -1.5437   21.7122 H   0  0  0  0  0  0  0  0  0  0  0  0
    5.4384    0.6489   20.1613 C   0  0  0  0  0  0  0  0  0  0  0  0
    5.0253    0.6391   21.1707 H   0  0  0  0  0  0  0  0  0  0  0  0
    4.8086    1.3110   19.1039 C   0  0  0  0  0  0  0  0  0  0  0  0
    3.8762    1.8415   19.2546 H   0  0  0  0  0  0  0  0  0  0  0  0
  1  2  1  0
  2  3  2  0
  3  4  1  0
  4  5  1  0
  4  6  2  0
  6  7  1  0
  7  8  1  0
  8  9  2  0
  9 10  1  0
 10 11  2  0
 11 12  1  0
 11 13  1  0
 13 14  2  0
 14 15  1  0
 15 16  1  0
 15 17  2  0
 17 18  1  0
  9 19  1  0
 19 20  2  0
 19 21  1  0
 21 22  1  0
 21 23  2  0
 23 24  1  0
  6 25  1  0
 25 26  1  0
 25 27  2  0
 27 28  1  0
 27  2  1  0
 23  7  1  0
 17 10  1  0
M  END
>  <cnnaffinity>  (1) 
-5.53145

>  <filename>  (1) 
O=c1ccn(-c2cccnc2)nc1-c1ccnnc1

$$$$
