
     RDKit          3D

 29 31  0  0  0  0  0  0  0  0999 V2000
    4.9068    1.7760   17.0018 H   0  0  0  0  0  0  0  0  0  0  0  0
    5.3977    1.2940   17.8428 C   0  0  0  0  0  0  0  0  0  0  0  0
    6.5630    0.6786   17.5790 N   0  0  0  0  0  0  0  0  0  0  0  0
    7.1800    0.0590   18.5921 C   0  0  0  0  0  0  0  0  0  0  0  0
    8.1292   -0.4309   18.3835 H   0  0  0  0  0  0  0  0  0  0  0  0
    6.6668    0.0020   19.9080 C   0  0  0  0  0  0  0  0  0  0  0  0
    7.3586   -0.6860   20.9483 N   0  0  0  0  0  0  0  0  0  0  0  0
    6.7687   -1.4490   21.9492 C   0  0  0  0  0  0  0  0  0  0  0  0
    5.7017   -1.5987   21.9853 H   0  0  0  0  0  0  0  0  0  0  0  0
    7.7389   -1.9398   22.7525 C   0  0  0  0  0  0  0  0  0  0  0  0
    7.6139   -2.7888   23.9325 C   0  0  0  0  0  0  0  0  0  0  0  0
    6.3699   -2.8695   24.5784 C   0  0  0  0  0  0  0  0  0  0  0  0
    5.5266   -2.2874   24.2180 H   0  0  0  0  0  0  0  0  0  0  0  0
    6.2051   -3.6782   25.6980 C   0  0  0  0  0  0  0  0  0  0  0  0
    5.2488   -3.7398   26.1997 H   0  0  0  0  0  0  0  0  0  0  0  0
    7.2833   -4.4145   26.1788 C   0  0  0  0  0  0  0  0  0  0  0  0
    7.1306   -5.1935   27.2555 F   0  0  0  0  0  0  0  0  0  0  0  0
    8.5274   -4.3426   25.5380 C   0  0  0  0  0  0  0  0  0  0  0  0
    9.5600   -5.0558   26.0046 F   0  0  0  0  0  0  0  0  0  0  0  0
    8.6966   -3.5381   24.4228 C   0  0  0  0  0  0  0  0  0  0  0  0
    9.6667   -3.5169   23.9396 H   0  0  0  0  0  0  0  0  0  0  0  0
    8.9447   -1.4785   22.2343 N   0  0  0  0  0  0  0  0  0  0  0  0
    9.8714   -1.6069   22.5942 H   0  0  0  0  0  0  0  0  0  0  0  0
    8.7515   -0.6814   21.1361 C   0  0  0  0  0  0  0  0  0  0  0  0
    9.5938   -0.1085   20.4752 O   0  0  0  0  0  0  0  0  0  0  0  0
    5.4470    0.6450   20.1624 C   0  0  0  0  0  0  0  0  0  0  0  0
    5.0141    0.6302   21.1622 H   0  0  0  0  0  0  0  0  0  0  0  0
    4.8081    1.3113   19.1112 C   0  0  0  0  0  0  0  0  0  0  0  0
    3.8731    1.8438   19.2680 H   0  0  0  0  0  0  0  0  0  0  0  0
  1  2  1  0
  2  3  2  0
  3  4  1  0
  4  5  1  0
  4  6  2  0
  6  7  1  0
  7  8  1  0
  8  9  1  0
  8 10  2  0
 10 11  1  0
 11 12  2  0
 12 13  1  0
 12 14  1  0
 14 15  1  0
 14 16  2  0
 16 17  1  0
 16 18  1  0
 18 19  1  0
 18 20  2  0
 20 21  1  0
 10 22  1  0
 22 23  1  0
 22 24  1  0
 24 25  2  0
  6 26  1  0
 26 27  1  0
 26 28  2  0
 28 29  1  0
 28  2  1  0
 24  7  1  0
 20 11  1  0
M  END
>  <cnnaffinity>  (1) 
-5.51083

>  <filename>  (1) 
O=c1[nH]c(-c2ccc(F)c(F)c2)cn1-c1cccnc1

$$$$
