
     RDKit          3D

 32 34  0  0  0  0  0  0  0  0999 V2000
    4.9197    1.8057   16.9787 H   0  0  0  0  0  0  0  0  0  0  0  0
    5.3946    1.3029   17.8170 C   0  0  0  0  0  0  0  0  0  0  0  0
    6.5601    0.6930   17.5502 N   0  0  0  0  0  0  0  0  0  0  0  0
    7.1703    0.0718   18.5668 C   0  0  0  0  0  0  0  0  0  0  0  0
    8.1238   -0.4070   18.3344 H   0  0  0  0  0  0  0  0  0  0  0  0
    6.6547    0.0034   19.8757 C   0  0  0  0  0  0  0  0  0  0  0  0
    7.3893   -0.6933   21.0102 C   0  0  2  0  0  0  0  0  0  0  0  0
    8.2347   -1.2518   20.5791 H   0  0  0  0  0  0  0  0  0  0  0  0
    6.5282   -1.7348   21.7448 C   0  0  0  0  0  0  0  0  0  0  0  0
    5.9507   -2.6997   21.2921 O   0  0  0  0  0  0  0  0  0  0  0  0
    6.5300   -1.4307   23.0658 N   0  0  0  0  0  0  0  0  0  0  0  0
    5.7755   -1.8863   23.5583 H   0  0  0  0  0  0  0  0  0  0  0  0
    7.0942   -0.1405   23.4101 C   0  0  0  0  0  0  0  0  0  0  0  0
    7.7516   -0.2438   24.2851 H   0  0  0  0  0  0  0  0  0  0  0  0
    6.3311    0.6035   23.6802 H   0  0  0  0  0  0  0  0  0  0  0  0
    7.8646    0.2926   22.1292 C   0  0  1  0  0  0  0  0  0  0  0  0
    7.6121    1.3319   21.8707 H   0  0  0  0  0  0  0  0  0  0  0  0
    9.3661    0.2450   22.3154 C   0  0  0  0  0  0  0  0  0  0  0  0
    9.9866   -0.9566   22.6848 C   0  0  0  0  0  0  0  0  0  0  0  0
    9.3779   -1.8320   22.9080 H   0  0  0  0  0  0  0  0  0  0  0  0
   11.3740   -1.0482   22.7648 C   0  0  0  0  0  0  0  0  0  0  0  0
   11.8433   -2.0188   22.9029 H   0  0  0  0  0  0  0  0  0  0  0  0
   12.1625    0.1024   22.6045 C   0  0  0  0  0  0  0  0  0  0  0  0
   13.8698   -0.0152   22.8703 Cl  0  0  0  0  0  0  0  0  0  0  0  0
   11.5469    1.3157   22.2480 C   0  0  0  0  0  0  0  0  0  0  0  0
   12.4546    2.7607   21.9485 Cl  0  0  0  0  0  0  0  0  0  0  0  0
   10.1595    1.3750   22.0814 C   0  0  0  0  0  0  0  0  0  0  0  0
    9.7217    2.3113   21.7325 H   0  0  0  0  0  0  0  0  0  0  0  0
    5.4412    0.6530   20.1299 C   0  0  0  0  0  0  0  0  0  0  0  0
    5.0135    0.6378   21.1353 H   0  0  0  0  0  0  0  0  0  0  0  0
    4.7980    1.3155   19.0833 C   0  0  0  0  0  0  0  0  0  0  0  0
    3.8663    1.8470   19.2392 H   0  0  0  0  0  0  0  0  0  0  0  0
  1  2  1  0
  2  3  2  0
  3  4  1  0
  4  5  1  0
  4  6  2  0
  6  7  1  0
  7  8  1  6
  7  9  1  0
  9 10  2  0
  9 11  1  0
 11 12  1  0
 11 13  1  0
 13 14  1  0
 13 15  1  0
 13 16  1  0
 16 17  1  6
 16 18  1  0
 18 19  2  0
 19 20  1  0
 19 21  1  0
 21 22  1  0
 21 23  2  0
 23 24  1  0
 23 25  1  0
 25 26  1  0
 25 27  2  0
 27 28  1  0
  6 29  1  0
 29 30  1  0
 29 31  2  0
 31 32  1  0
 31  2  1  0
 16  7  1  0
 27 18  1  0
M  END
>  <cnnaffinity>  (1) 
-5.53368

>  <filename>  (1) 
O=C1NC[C@@H](c2ccc(Cl)c(Cl)c2)[C@@H]1c1cccnc1

$$$$
