
     RDKit          3D

 31 33  0  0  0  0  0  0  0  0999 V2000
    4.9151    1.7885   16.9873 H   0  0  0  0  0  0  0  0  0  0  0  0
    5.3920    1.2982   17.8319 C   0  0  0  0  0  0  0  0  0  0  0  0
    6.5541    0.6753   17.5711 N   0  0  0  0  0  0  0  0  0  0  0  0
    7.1602    0.0564   18.5887 C   0  0  0  0  0  0  0  0  0  0  0  0
    8.1170   -0.4174   18.3890 H   0  0  0  0  0  0  0  0  0  0  0  0
    6.6351   -0.0034   19.8942 C   0  0  0  0  0  0  0  0  0  0  0  0
    7.3507   -0.6814   20.9048 N   0  0  0  0  0  0  0  0  0  0  0  0
    8.7573   -0.6543   21.1350 C   0  0  0  0  0  0  0  0  0  0  0  0
    9.5744   -0.0533   20.4629 O   0  0  0  0  0  0  0  0  0  0  0  0
    8.9090   -1.4885   22.3025 C   0  0  0  0  0  0  0  0  0  0  0  0
    9.8829   -1.6706   22.7127 H   0  0  0  0  0  0  0  0  0  0  0  0
    7.6938   -1.9321   22.7228 C   0  0  0  0  0  0  0  0  0  0  0  0
    7.3469   -2.8095   23.8834 C   0  0  0  0  0  0  0  0  0  0  0  0
    6.0512   -3.0971   24.0857 N   0  0  0  0  0  0  0  0  0  0  0  0
    5.7222   -3.8727   25.1251 C   0  0  0  0  0  0  0  0  0  0  0  0
    4.2255   -4.1906   25.3577 C   0  0  0  0  0  0  0  0  0  0  0  0
    3.8411   -3.7847   26.5861 F   0  0  0  0  0  0  0  0  0  0  0  0
    3.3953   -3.6328   24.4723 F   0  0  0  0  0  0  0  0  0  0  0  0
    4.0175   -5.5243   25.3213 F   0  0  0  0  0  0  0  0  0  0  0  0
    6.6807   -4.4135   26.0039 C   0  0  0  0  0  0  0  0  0  0  0  0
    6.3765   -5.0442   26.8299 H   0  0  0  0  0  0  0  0  0  0  0  0
    8.0309   -4.1232   25.7890 C   0  0  0  0  0  0  0  0  0  0  0  0
    8.8081   -4.5221   26.4451 H   0  0  0  0  0  0  0  0  0  0  0  0
    8.3687   -3.3075   24.7125 C   0  0  0  0  0  0  0  0  0  0  0  0
    9.3962   -3.0475   24.4954 H   0  0  0  0  0  0  0  0  0  0  0  0
    6.7412   -1.4212   21.8915 N   0  0  0  0  0  0  0  0  0  0  0  0
    5.7397   -1.5798   21.9296 H   0  0  0  0  0  0  0  0  0  0  0  0
    5.4241    0.6491   20.1586 C   0  0  0  0  0  0  0  0  0  0  0  0
    5.0135    0.6382   21.1701 H   0  0  0  0  0  0  0  0  0  0  0  0
    4.7997    1.3167   19.1024 C   0  0  0  0  0  0  0  0  0  0  0  0
    3.8681    1.8484   19.2569 H   0  0  0  0  0  0  0  0  0  0  0  0
  1  2  1  0
  2  3  2  0
  3  4  1  0
  4  5  1  0
  4  6  2  0
  6  7  1  0
  7  8  1  0
  8  9  2  0
  8 10  1  0
 10 11  1  0
 10 12  2  0
 12 13  1  0
 13 14  2  0
 14 15  1  0
 15 16  1  0
 16 17  1  0
 16 18  1  0
 16 19  1  0
 15 20  2  0
 20 21  1  0
 20 22  1  0
 22 23  1  0
 22 24  2  0
 24 25  1  0
 12 26  1  0
 26 27  1  0
  6 28  1  0
 28 29  1  0
 28 30  2  0
 30 31  1  0
 30  2  1  0
 26  7  1  0
 24 13  1  0
M  END
>  <cnnaffinity>  (1) 
-5.41248

>  <filename>  (1) 
O=c1cc(-c2cccc(C(F)(F)F)n2)[nH]n1-c1cccnc1

$$$$
