
     RDKit          3D

 32 35  0  0  0  0  0  0  0  0999 V2000
    4.9858    1.9141   16.7258 H   0  0  0  0  0  0  0  0  0  0  0  0
    5.4632    1.4083   17.5643 C   0  0  0  0  0  0  0  0  0  0  0  0
    6.6122    0.7663   17.2967 N   0  0  0  0  0  0  0  0  0  0  0  0
    7.2307    0.1306   18.3013 C   0  0  0  0  0  0  0  0  0  0  0  0
    8.1520   -0.3813   18.0176 H   0  0  0  0  0  0  0  0  0  0  0  0
    6.7342    0.0907   19.6200 C   0  0  0  0  0  0  0  0  0  0  0  0
    7.3684   -0.6458   20.7121 C   0  0  0  0  0  0  0  0  0  0  0  0
    6.8040   -1.1736   21.8200 C   0  0  0  0  0  0  0  0  0  0  0  0
    5.7820   -1.1525   22.1444 H   0  0  0  0  0  0  0  0  0  0  0  0
    7.7774   -1.8275   22.5725 N   0  0  0  0  0  0  0  0  0  0  0  0
    7.5581   -2.5696   23.7820 C   0  0  0  0  0  0  0  0  0  0  0  0
    6.2855   -3.1955   23.9833 C   0  0  0  0  0  0  0  0  0  0  0  0
    5.5230   -3.0523   23.2272 H   0  0  0  0  0  0  0  0  0  0  0  0
    6.0083   -3.9633   25.1047 C   0  0  0  0  0  0  0  0  0  0  0  0
    5.0447   -4.4486   25.2706 H   0  0  0  0  0  0  0  0  0  0  0  0
    7.0466   -4.1193   26.0461 C   0  0  0  0  0  0  0  0  0  0  0  0
    8.3039   -3.4963   25.8897 C   0  0  0  0  0  0  0  0  0  0  0  0
    9.0282   -3.9183   27.0522 C   0  0  0  0  0  0  0  0  0  0  0  0
   10.0442   -3.6827   27.3267 H   0  0  0  0  0  0  0  0  0  0  0  0
    8.3044   -4.7021   27.8283 N   0  0  0  0  0  0  0  0  0  0  0  0
    7.1031   -4.8159   27.2156 N   0  0  0  0  0  0  0  0  0  0  0  0
    6.4399   -5.5134   27.5200 H   0  0  0  0  0  0  0  0  0  0  0  0
    8.5594   -2.6896   24.7424 C   0  0  0  0  0  0  0  0  0  0  0  0
    9.4894   -2.1482   24.6107 H   0  0  0  0  0  0  0  0  0  0  0  0
    9.0125   -1.6507   21.9303 C   0  0  0  0  0  0  0  0  0  0  0  0
   10.1289   -1.9643   22.2823 O   0  0  0  0  0  0  0  0  0  0  0  0
    8.7132   -0.9896   20.7582 N   0  0  0  0  0  0  0  0  0  0  0  0
    9.4899   -0.5419   20.3066 H   0  0  0  0  0  0  0  0  0  0  0  0
    5.5364    0.7795   19.8766 C   0  0  0  0  0  0  0  0  0  0  0  0
    5.1379    0.8088   20.8913 H   0  0  0  0  0  0  0  0  0  0  0  0
    4.8859    1.4357   18.8373 C   0  0  0  0  0  0  0  0  0  0  0  0
    3.9573    1.9678   19.0032 H   0  0  0  0  0  0  0  0  0  0  0  0
  1  2  1  0
  2  3  2  0
  3  4  1  0
  4  5  1  0
  4  6  2  0
  6  7  1  0
  7  8  2  0
  8  9  1  0
  8 10  1  0
 10 11  1  0
 11 12  2  0
 12 13  1  0
 12 14  1  0
 14 15  1  0
 14 16  2  0
 16 17  1  0
 17 18  1  0
 18 19  1  0
 18 20  2  0
 20 21  1  0
 21 22  1  0
 17 23  2  0
 23 24  1  0
 10 25  1  0
 25 26  2  0
 25 27  1  0
 27 28  1  0
  6 29  1  0
 29 30  1  0
 29 31  2  0
 31 32  1  0
 31  2  1  0
 27  7  1  0
 23 11  1  0
 21 16  1  0
M  END
>  <cnnaffinity>  (1) 
-5.60572

>  <filename>  (1) 
O=c1[nH]c(-c2cccnc2)cn1-c1ccc2[nH]ncc2c1

$$$$
