
     RDKit          3D

 19 20  0  0  0  0  0  0  0  0999 V2000
    4.9293    1.7856   17.0000 H   0  0  0  0  0  0  0  0  0  0  0  0
    5.4042    1.2908   17.8424 C   0  0  0  0  0  0  0  0  0  0  0  0
    6.5663    0.6747   17.5734 N   0  0  0  0  0  0  0  0  0  0  0  0
    7.1932    0.0692   18.5865 C   0  0  0  0  0  0  0  0  0  0  0  0
    8.1305   -0.4339   18.3435 H   0  0  0  0  0  0  0  0  0  0  0  0
    6.6967    0.0228   19.9068 C   0  0  0  0  0  0  0  0  0  0  0  0
    7.4168   -0.6665   20.9225 N   0  0  0  0  0  0  0  0  0  0  0  0
    8.8233   -0.6667   21.1052 C   0  0  0  0  0  0  0  0  0  0  0  0
    9.4936   -0.1382   20.4558 H   0  0  0  0  0  0  0  0  0  0  0  0
    9.0490   -1.4176   22.1916 C   0  0  0  0  0  0  0  0  0  0  0  0
   10.1580   -1.7828   22.8010 F   0  0  0  0  0  0  0  0  0  0  0  0
    7.8521   -1.8617   22.6981 N   0  0  0  0  0  0  0  0  0  0  0  0
    7.6631   -2.5022   23.4383 H   0  0  0  0  0  0  0  0  0  0  0  0
    6.8341   -1.5605   21.8261 C   0  0  0  0  0  0  0  0  0  0  0  0
    5.7360   -2.0713   21.8402 O   0  0  0  0  0  0  0  0  0  0  0  0
    5.4620    0.6436   20.1670 C   0  0  0  0  0  0  0  0  0  0  0  0
    5.0273    0.5978   21.1647 H   0  0  0  0  0  0  0  0  0  0  0  0
    4.8215    1.3024   19.1128 C   0  0  0  0  0  0  0  0  0  0  0  0
    3.8884    1.8303   19.2600 H   0  0  0  0  0  0  0  0  0  0  0  0
  1  2  1  0
  2  3  2  0
  3  4  1  0
  4  5  1  0
  4  6  2  0
  6  7  1  0
  7  8  1  0
  8  9  1  0
  8 10  2  0
 10 11  1  0
 10 12  1  0
 12 13  1  0
 12 14  1  0
 14 15  2  0
  6 16  1  0
 16 17  1  0
 16 18  2  0
 18 19  1  0
 18  2  1  0
 14  7  1  0
M  END
>  <cnnaffinity>  (1) 
-4.39072

>  <filename>  (1) 
O=c1[nH]c(F)cn1-c1cccnc1

$$$$
