
     RDKit          3D

 31 33  0  0  0  0  0  0  0  0999 V2000
    4.9202    1.7814   16.9968 H   0  0  0  0  0  0  0  0  0  0  0  0
    5.4055    1.2901   17.8364 C   0  0  0  0  0  0  0  0  0  0  0  0
    6.5720    0.6752   17.5727 N   0  0  0  0  0  0  0  0  0  0  0  0
    7.1644    0.0420   18.5903 C   0  0  0  0  0  0  0  0  0  0  0  0
    8.1232   -0.4281   18.3680 H   0  0  0  0  0  0  0  0  0  0  0  0
    6.6418   -0.0116   19.8937 C   0  0  0  0  0  0  0  0  0  0  0  0
    7.3726   -0.6726   20.9794 C   0  0  0  0  0  0  0  0  0  0  0  0
    7.7120   -0.0622   22.1750 C   0  0  0  0  0  0  0  0  0  0  0  0
    7.4865    1.3846   22.4198 C   0  0  0  0  0  0  0  0  0  0  0  0
    7.9926    2.3533   21.5386 C   0  0  0  0  0  0  0  0  0  0  0  0
    8.5371    2.0251   20.6589 H   0  0  0  0  0  0  0  0  0  0  0  0
    7.7936    3.7097   21.8005 C   0  0  0  0  0  0  0  0  0  0  0  0
    8.1945    4.5100   21.1916 H   0  0  0  0  0  0  0  0  0  0  0  0
    7.0554    4.0975   22.9055 C   0  0  0  0  0  0  0  0  0  0  0  0
    6.8437    5.4011   23.1279 F   0  0  0  0  0  0  0  0  0  0  0  0
    6.5579    3.1404   23.7917 C   0  0  0  0  0  0  0  0  0  0  0  0
    5.8823    3.5396   24.8759 F   0  0  0  0  0  0  0  0  0  0  0  0
    6.7817    1.7913   23.5626 C   0  0  0  0  0  0  0  0  0  0  0  0
    6.3851    1.0725   24.2728 H   0  0  0  0  0  0  0  0  0  0  0  0
    8.3391   -0.8579   23.1892 C   0  0  0  0  0  0  0  0  0  0  0  0
    8.5998   -0.3657   24.1322 H   0  0  0  0  0  0  0  0  0  0  0  0
    8.6268   -2.1692   22.9707 C   0  0  0  0  0  0  0  0  0  0  0  0
    9.1037   -2.8031   23.7014 H   0  0  0  0  0  0  0  0  0  0  0  0
    8.2996   -2.8266   21.7121 C   0  0  0  0  0  0  0  0  0  0  0  0
    8.4839   -3.9971   21.4244 O   0  0  0  0  0  0  0  0  0  0  0  0
    7.7158   -1.9871   20.7805 N   0  0  0  0  0  0  0  0  0  0  0  0
    7.4606   -2.4758   19.9389 H   0  0  0  0  0  0  0  0  0  0  0  0
    5.4294    0.6502   20.1581 C   0  0  0  0  0  0  0  0  0  0  0  0
    5.0127    0.6387   21.1726 H   0  0  0  0  0  0  0  0  0  0  0  0
    4.8017    1.3051   19.1013 C   0  0  0  0  0  0  0  0  0  0  0  0
    3.8724    1.8447   19.2550 H   0  0  0  0  0  0  0  0  0  0  0  0
  1  2  1  0
  2  3  2  0
  3  4  1  0
  4  5  1  0
  4  6  2  0
  6  7  1  0
  7  8  2  0
  8  9  1  0
  9 10  2  0
 10 11  1  0
 10 12  1  0
 12 13  1  0
 12 14  2  0
 14 15  1  0
 14 16  1  0
 16 17  1  0
 16 18  2  0
 18 19  1  0
  8 20  1  0
 20 21  1  0
 20 22  2  0
 22 23  1  0
 22 24  1  0
 24 25  2  0
 24 26  1  0
 26 27  1  0
  6 28  1  0
 28 29  1  0
 28 30  2  0
 30 31  1  0
 30  2  1  0
 26  7  1  0
 18  9  1  0
M  END
>  <cnnaffinity>  (1) 
-5.28697

>  <filename>  (1) 
O=c1ccc(-c2ccc(F)c(F)c2)c(-c2cccnc2)[nH]1

$$$$
