
     RDKit          3D

 30 32  0  0  0  0  0  0  0  0999 V2000
    4.9772    1.7896   16.9642 H   0  0  0  0  0  0  0  0  0  0  0  0
    5.4326    1.2941   17.8185 C   0  0  0  0  0  0  0  0  0  0  0  0
    6.6029    0.6697   17.5908 N   0  0  0  0  0  0  0  0  0  0  0  0
    7.1760    0.0448   18.6262 C   0  0  0  0  0  0  0  0  0  0  0  0
    8.1390   -0.4348   18.4706 H   0  0  0  0  0  0  0  0  0  0  0  0
    6.6020   -0.0303   19.9076 C   0  0  0  0  0  0  0  0  0  0  0  0
    7.2739   -0.7713   20.9226 N   0  0  0  0  0  0  0  0  0  0  0  0
    8.6409   -0.6732   20.9049 N   0  0  0  0  0  0  0  0  0  0  0  0
    9.3211   -1.2561   21.8612 C   0  0  0  0  0  0  0  0  0  0  0  0
   10.7903   -0.9735   21.8831 C   0  0  0  0  0  0  0  0  0  0  0  0
   11.7416   -2.0012   22.0160 C   0  0  0  0  0  0  0  0  0  0  0  0
   11.4209   -3.0336   22.1337 H   0  0  0  0  0  0  0  0  0  0  0  0
   13.0991   -1.6818   22.1223 C   0  0  0  0  0  0  0  0  0  0  0  0
   13.8730   -2.4423   22.1713 H   0  0  0  0  0  0  0  0  0  0  0  0
   13.4797   -0.3504   22.2425 C   0  0  0  0  0  0  0  0  0  0  0  0
   14.7536   -0.0419   22.4983 F   0  0  0  0  0  0  0  0  0  0  0  0
   12.5373    0.6796   22.1179 C   0  0  0  0  0  0  0  0  0  0  0  0
   12.9151    1.9563   22.2573 F   0  0  0  0  0  0  0  0  0  0  0  0
   11.2135    0.3677   21.8489 C   0  0  0  0  0  0  0  0  0  0  0  0
   10.5162    1.1690   21.6175 H   0  0  0  0  0  0  0  0  0  0  0  0
    8.6885   -2.1037   22.9359 C   0  0  0  0  0  0  0  0  0  0  0  0
    9.3039   -2.6767   23.8284 O   0  0  0  0  0  0  0  0  0  0  0  0
    7.2357   -2.1779   22.8402 C   0  0  0  0  0  0  0  0  0  0  0  0
    6.7125   -2.7485   23.5955 H   0  0  0  0  0  0  0  0  0  0  0  0
    6.5959   -1.5246   21.8567 C   0  0  0  0  0  0  0  0  0  0  0  0
    5.5127   -1.5613   21.7378 H   0  0  0  0  0  0  0  0  0  0  0  0
    5.4029    0.6563   20.1482 C   0  0  0  0  0  0  0  0  0  0  0  0
    4.9865    0.6956   21.1573 H   0  0  0  0  0  0  0  0  0  0  0  0
    4.8083    1.3249   19.0723 C   0  0  0  0  0  0  0  0  0  0  0  0
    3.8743    1.8645   19.1989 H   0  0  0  0  0  0  0  0  0  0  0  0
  1  2  1  0
  2  3  2  0
  3  4  1  0
  4  5  1  0
  4  6  2  0
  6  7  1  0
  7  8  1  0
  8  9  2  0
  9 10  1  0
 10 11  2  0
 11 12  1  0
 11 13  1  0
 13 14  1  0
 13 15  2  0
 15 16  1  0
 15 17  1  0
 17 18  1  0
 17 19  2  0
 19 20  1  0
  9 21  1  0
 21 22  2  0
 21 23  1  0
 23 24  1  0
 23 25  2  0
 25 26  1  0
  6 27  1  0
 27 28  1  0
 27 29  2  0
 29 30  1  0
 29  2  1  0
 25  7  1  0
 19 10  1  0
M  END
>  <cnnaffinity>  (1) 
-6.00752

>  <filename>  (1) 
O=c1ccn(-c2cccnc2)nc1-c1ccc(F)c(F)c1

$$$$
