
     RDKit          3D

 36 39  0  0  0  0  0  0  0  0999 V2000
    5.1482    1.6643   16.9165 H   0  0  0  0  0  0  0  0  0  0  0  0
    5.6111    1.2249   17.7961 C   0  0  0  0  0  0  0  0  0  0  0  0
    6.8071    0.6439   17.6055 N   0  0  0  0  0  0  0  0  0  0  0  0
    7.4065    0.1208   18.6815 C   0  0  0  0  0  0  0  0  0  0  0  0
    8.3870   -0.3283   18.5354 H   0  0  0  0  0  0  0  0  0  0  0  0
    6.8283    0.1102   19.9575 C   0  0  0  0  0  0  0  0  0  0  0  0
    7.5391   -0.5601   21.0630 C   0  0  0  0  0  0  0  0  0  0  0  0
    8.8356   -0.3576   21.1517 N   0  0  0  0  0  0  0  0  0  0  0  0
    9.5278   -1.0237   22.1257 N   0  0  0  0  0  0  0  0  0  0  0  0
   10.9408   -0.8219   22.1470 C   0  0  0  0  0  0  0  0  0  0  0  0
   11.7389   -1.9455   22.0638 C   0  0  0  0  0  0  0  0  0  0  0  0
   11.2719   -2.9204   22.0334 H   0  0  0  0  0  0  0  0  0  0  0  0
   13.1493   -1.8323   22.0612 C   0  0  0  0  0  0  0  0  0  0  0  0
   13.7644   -2.7235   21.9476 H   0  0  0  0  0  0  0  0  0  0  0  0
   13.7353   -0.6115   22.2807 C   0  0  0  0  0  0  0  0  0  0  0  0
   14.8149   -0.5213   22.3474 H   0  0  0  0  0  0  0  0  0  0  0  0
   12.9388    0.5607   22.4636 C   0  0  0  0  0  0  0  0  0  0  0  0
   13.5479    1.8031   22.8071 C   0  0  0  0  0  0  0  0  0  0  0  0
   14.6274    1.8236   22.9230 H   0  0  0  0  0  0  0  0  0  0  0  0
   12.7971    2.9441   22.9356 C   0  0  0  0  0  0  0  0  0  0  0  0
   13.2734    3.8759   23.2263 H   0  0  0  0  0  0  0  0  0  0  0  0
   11.4003    2.9131   22.6791 C   0  0  0  0  0  0  0  0  0  0  0  0
   10.8318    3.8403   22.7262 H   0  0  0  0  0  0  0  0  0  0  0  0
   10.7713    1.7311   22.3451 C   0  0  0  0  0  0  0  0  0  0  0  0
    9.7176    1.7325   22.0793 H   0  0  0  0  0  0  0  0  0  0  0  0
   11.5109    0.4967   22.2887 C   0  0  0  0  0  0  0  0  0  0  0  0
    8.9468   -1.9727   23.0315 C   0  0  0  0  0  0  0  0  0  0  0  0
    9.6129   -2.6041   23.8402 O   0  0  0  0  0  0  0  0  0  0  0  0
    7.5100   -2.1015   22.9036 C   0  0  0  0  0  0  0  0  0  0  0  0
    7.0621   -2.7804   23.6169 H   0  0  0  0  0  0  0  0  0  0  0  0
    6.8266   -1.4190   21.9550 C   0  0  0  0  0  0  0  0  0  0  0  0
    5.7514   -1.5291   21.8230 H   0  0  0  0  0  0  0  0  0  0  0  0
    5.5770    0.7099   20.1417 C   0  0  0  0  0  0  0  0  0  0  0  0
    5.1139    0.7392   21.1312 H   0  0  0  0  0  0  0  0  0  0  0  0
    4.9614    1.2906   19.0363 C   0  0  0  0  0  0  0  0  0  0  0  0
    4.0020    1.7897   19.1283 H   0  0  0  0  0  0  0  0  0  0  0  0
  1  2  1  0
  2  3  2  0
  3  4  1  0
  4  5  1  0
  4  6  2  0
  6  7  1  0
  7  8  2  0
  8  9  1  0
  9 10  1  0
 10 11  2  0
 11 12  1  0
 11 13  1  0
 13 14  1  0
 13 15  2  0
 15 16  1  0
 15 17  1  0
 17 18  2  0
 18 19  1  0
 18 20  1  0
 20 21  1  0
 20 22  2  0
 22 23  1  0
 22 24  1  0
 24 25  1  0
 24 26  2  0
  9 27  1  0
 27 28  2  0
 27 29  1  0
 29 30  1  0
 29 31  2  0
 31 32  1  0
  6 33  1  0
 33 34  1  0
 33 35  2  0
 35 36  1  0
 35  2  1  0
 31  7  1  0
 26 10  1  0
 26 17  1  0
M  END
>  <cnnaffinity>  (1) 
-6.0824

>  <filename>  (1) 
O=c1ccc(-c2cccnc2)nn1-c1cccc2ccccc12

$$$$
