
     RDKit          3D

 33 36  0  0  0  0  0  0  0  0999 V2000
    5.0397    1.8503   16.9443 H   0  0  0  0  0  0  0  0  0  0  0  0
    5.4984    1.3179   17.7744 C   0  0  0  0  0  0  0  0  0  0  0  0
    6.6734    0.7177   17.5158 N   0  0  0  0  0  0  0  0  0  0  0  0
    7.2689    0.0549   18.5127 C   0  0  0  0  0  0  0  0  0  0  0  0
    8.2330   -0.4040   18.2916 H   0  0  0  0  0  0  0  0  0  0  0  0
    6.7033   -0.0805   19.7992 C   0  0  0  0  0  0  0  0  0  0  0  0
    7.3361   -0.8517   20.8077 N   0  0  0  0  0  0  0  0  0  0  0  0
    6.7655   -1.7493   21.7364 C   0  0  0  0  0  0  0  0  0  0  0  0
    5.6330   -2.1936   21.6649 O   0  0  0  0  0  0  0  0  0  0  0  0
    7.8675   -2.0096   22.6961 C   0  0  0  0  0  0  0  0  0  0  0  0
    7.7564   -2.7342   23.9628 C   0  0  0  0  0  0  0  0  0  0  0  0
    6.6009   -2.5798   24.7432 C   0  0  0  0  0  0  0  0  0  0  0  0
    5.8459   -1.8785   24.4032 H   0  0  0  0  0  0  0  0  0  0  0  0
    6.3945   -3.3177   25.9247 C   0  0  0  0  0  0  0  0  0  0  0  0
    5.4881   -3.1619   26.5050 H   0  0  0  0  0  0  0  0  0  0  0  0
    7.3317   -4.2542   26.3492 C   0  0  0  0  0  0  0  0  0  0  0  0
    7.1715   -4.8688   27.2305 H   0  0  0  0  0  0  0  0  0  0  0  0
    8.5040   -4.3926   25.5916 C   0  0  0  0  0  0  0  0  0  0  0  0
    8.7767   -3.6161   24.4349 C   0  0  0  0  0  0  0  0  0  0  0  0
   10.1064   -3.9954   24.0230 C   0  0  0  0  0  0  0  0  0  0  0  0
   10.6598   -3.5916   23.1872 H   0  0  0  0  0  0  0  0  0  0  0  0
   10.5490   -4.9711   24.8711 C   0  0  0  0  0  0  0  0  0  0  0  0
   11.4656   -5.5503   24.8712 H   0  0  0  0  0  0  0  0  0  0  0  0
    9.5801   -5.2153   25.8141 N   0  0  0  0  0  0  0  0  0  0  0  0
    9.6045   -5.9450   26.5087 H   0  0  0  0  0  0  0  0  0  0  0  0
    8.9619   -1.3853   22.2064 C   0  0  0  0  0  0  0  0  0  0  0  0
    9.9298   -1.3338   22.6865 H   0  0  0  0  0  0  0  0  0  0  0  0
    8.7233   -0.7762   20.9816 N   0  0  0  0  0  0  0  0  0  0  0  0
    9.0934    0.1550   20.8313 H   0  0  0  0  0  0  0  0  0  0  0  0
    5.4873    0.5693   20.0648 C   0  0  0  0  0  0  0  0  0  0  0  0
    5.0535    0.5276   21.0636 H   0  0  0  0  0  0  0  0  0  0  0  0
    4.8803    1.2828   19.0288 C   0  0  0  0  0  0  0  0  0  0  0  0
    3.9501    1.8189   19.1828 H   0  0  0  0  0  0  0  0  0  0  0  0
  1  2  1  0
  2  3  2  0
  3  4  1  0
  4  5  1  0
  4  6  2  0
  6  7  1  0
  7  8  1  0
  8  9  2  0
  8 10  1  0
 10 11  1  0
 11 12  2  0
 12 13  1  0
 12 14  1  0
 14 15  1  0
 14 16  2  0
 16 17  1  0
 16 18  1  0
 18 19  2  0
 19 20  1  0
 20 21  1  0
 20 22  2  0
 22 23  1  0
 22 24  1  0
 24 25  1  0
 10 26  2  0
 26 27  1  0
 26 28  1  0
 28 29  1  0
  6 30  1  0
 30 31  1  0
 30 32  2  0
 32 33  1  0
 32  2  1  0
 28  7  1  0
 19 11  1  0
 24 18  1  0
M  END
>  <cnnaffinity>  (1) 
-5.3035

>  <filename>  (1) 
O=c1c(-c2cccc3[nH]ccc23)c[nH]n1-c1cccnc1

$$$$
