
     RDKit          3D

 28 30  0  0  0  0  0  0  0  0999 V2000
    4.9356    1.7913   16.9970 H   0  0  0  0  0  0  0  0  0  0  0  0
    5.4156    1.3113   17.8517 C   0  0  0  0  0  0  0  0  0  0  0  0
    6.5934    0.7053   17.6198 N   0  0  0  0  0  0  0  0  0  0  0  0
    7.1869    0.0662   18.6391 C   0  0  0  0  0  0  0  0  0  0  0  0
    8.1462   -0.4100   18.4307 H   0  0  0  0  0  0  0  0  0  0  0  0
    6.6321   -0.0009   19.9415 C   0  0  0  0  0  0  0  0  0  0  0  0
    7.2378   -0.6951   21.0456 N   0  0  0  0  0  0  0  0  0  0  0  0
    7.7317   -0.2150   22.2697 C   0  0  0  0  0  0  0  0  0  0  0  0
    7.4392    1.1267   22.8321 C   0  0  0  0  0  0  0  0  0  0  0  0
    7.6180    2.2915   22.0619 C   0  0  0  0  0  0  0  0  0  0  0  0
    7.9353    2.2003   21.0265 H   0  0  0  0  0  0  0  0  0  0  0  0
    7.3712    3.5571   22.5964 C   0  0  0  0  0  0  0  0  0  0  0  0
    7.5067    4.4654   22.0184 H   0  0  0  0  0  0  0  0  0  0  0  0
    6.9280    3.6515   23.9119 C   0  0  0  0  0  0  0  0  0  0  0  0
    6.6920    4.8644   24.4400 F   0  0  0  0  0  0  0  0  0  0  0  0
    6.7158    2.5229   24.6990 C   0  0  0  0  0  0  0  0  0  0  0  0
    6.3532    2.6552   25.7133 H   0  0  0  0  0  0  0  0  0  0  0  0
    6.9739    1.2628   24.1580 C   0  0  0  0  0  0  0  0  0  0  0  0
    6.8068    0.3792   24.7718 H   0  0  0  0  0  0  0  0  0  0  0  0
    8.3809   -1.1407   22.9137 N   0  0  0  0  0  0  0  0  0  0  0  0
    8.2395   -2.2587   22.1273 N   0  0  0  0  0  0  0  0  0  0  0  0
    8.3957   -3.1842   22.4866 H   0  0  0  0  0  0  0  0  0  0  0  0
    7.3561   -2.0956   21.0995 C   0  0  0  0  0  0  0  0  0  0  0  0
    6.7900   -2.9432   20.4470 O   0  0  0  0  0  0  0  0  0  0  0  0
    5.4264    0.6574   20.1676 C   0  0  0  0  0  0  0  0  0  0  0  0
    5.0401    0.6617   21.1860 H   0  0  0  0  0  0  0  0  0  0  0  0
    4.7998    1.3187   19.1080 C   0  0  0  0  0  0  0  0  0  0  0  0
    3.8494    1.8227   19.2457 H   0  0  0  0  0  0  0  0  0  0  0  0
  1  2  1  0
  2  3  2  0
  3  4  1  0
  4  5  1  0
  4  6  2  0
  6  7  1  0
  7  8  1  0
  8  9  1  0
  9 10  2  0
 10 11  1  0
 10 12  1  0
 12 13  1  0
 12 14  2  0
 14 15  1  0
 14 16  1  0
 16 17  1  0
 16 18  2  0
 18 19  1  0
  8 20  2  0
 20 21  1  0
 21 22  1  0
 21 23  1  0
 23 24  2  0
  6 25  1  0
 25 26  1  0
 25 27  2  0
 27 28  1  0
 27  2  1  0
 23  7  1  0
 18  9  1  0
M  END
>  <cnnaffinity>  (1) 
-4.68329

>  <filename>  (1) 
O=c1[nH]nc(-c2ccc(F)cc2)n1-c1cccnc1

$$$$
