
     RDKit          3D

 34 36  0  0  0  0  0  0  0  0999 V2000
    5.0207    1.7710   16.9748 H   0  0  0  0  0  0  0  0  0  0  0  0
    5.4591    1.2867   17.8452 C   0  0  0  0  0  0  0  0  0  0  0  0
    6.6295    0.6639   17.6374 N   0  0  0  0  0  0  0  0  0  0  0  0
    7.1944    0.0532   18.6848 C   0  0  0  0  0  0  0  0  0  0  0  0
    8.1489   -0.4309   18.4803 H   0  0  0  0  0  0  0  0  0  0  0  0
    6.6427    0.0232   19.9765 C   0  0  0  0  0  0  0  0  0  0  0  0
    7.3502   -0.6833   21.0461 C   0  0  0  0  0  0  0  0  0  0  0  0
    8.3693   -1.5679   20.9695 C   0  0  0  0  0  0  0  0  0  0  0  0
    8.9454   -1.8635   20.1127 H   0  0  0  0  0  0  0  0  0  0  0  0
    8.6979   -2.0156   22.3072 C   0  0  0  0  0  0  0  0  0  0  0  0
    9.5124   -2.8351   22.7305 O   0  0  0  0  0  0  0  0  0  0  0  0
    7.8949   -1.2477   23.1238 N   0  0  0  0  0  0  0  0  0  0  0  0
    8.0414   -1.3329   24.5561 C   0  0  0  0  0  0  0  0  0  0  0  0
    9.0747   -1.0520   24.7780 H   0  0  0  0  0  0  0  0  0  0  0  0
    7.3817   -0.6197   25.0700 H   0  0  0  0  0  0  0  0  0  0  0  0
    7.8460   -2.6786   25.0411 N   0  0  0  0  0  0  0  0  0  0  0  0
    8.4830   -3.2664   24.5064 H   0  0  0  0  0  0  0  0  0  0  0  0
    6.5505   -3.2182   25.0151 C   0  0  0  0  0  0  0  0  0  0  0  0
    5.4075   -2.4387   24.7812 C   0  0  0  0  0  0  0  0  0  0  0  0
    5.5270   -1.3750   24.6217 H   0  0  0  0  0  0  0  0  0  0  0  0
    4.1466   -3.0404   24.7095 C   0  0  0  0  0  0  0  0  0  0  0  0
    3.2707   -2.4342   24.4929 H   0  0  0  0  0  0  0  0  0  0  0  0
    4.0098   -4.4163   24.8964 C   0  0  0  0  0  0  0  0  0  0  0  0
    3.0307   -4.8784   24.8111 H   0  0  0  0  0  0  0  0  0  0  0  0
    5.1412   -5.1876   25.1847 C   0  0  0  0  0  0  0  0  0  0  0  0
    5.0424   -6.2573   25.3418 H   0  0  0  0  0  0  0  0  0  0  0  0
    6.4015   -4.5923   25.2581 C   0  0  0  0  0  0  0  0  0  0  0  0
    7.2871   -5.1645   25.5191 H   0  0  0  0  0  0  0  0  0  0  0  0
    6.9588   -0.4809   22.3834 N   0  0  0  0  0  0  0  0  0  0  0  0
    6.9858    0.5152   22.6212 H   0  0  0  0  0  0  0  0  0  0  0  0
    5.4108    0.6776   20.1729 C   0  0  0  0  0  0  0  0  0  0  0  0
    4.9436    0.6617   21.1596 H   0  0  0  0  0  0  0  0  0  0  0  0
    4.8143    1.3184   19.0885 C   0  0  0  0  0  0  0  0  0  0  0  0
    3.8688    1.8420   19.1912 H   0  0  0  0  0  0  0  0  0  0  0  0
  1  2  1  0
  2  3  2  0
  3  4  1  0
  4  5  1  0
  4  6  2  0
  6  7  1  0
  7  8  2  0
  8  9  1  0
  8 10  1  0
 10 11  2  0
 10 12  1  0
 12 13  1  0
 13 14  1  0
 13 15  1  0
 13 16  1  0
 16 17  1  0
 16 18  1  0
 18 19  2  0
 19 20  1  0
 19 21  1  0
 21 22  1  0
 21 23  2  0
 23 24  1  0
 23 25  1  0
 25 26  1  0
 25 27  2  0
 27 28  1  0
 12 29  1  0
 29 30  1  0
  6 31  1  0
 31 32  1  0
 31 33  2  0
 33 34  1  0
 33  2  1  0
 29  7  1  0
 27 18  1  0
M  END
>  <cnnaffinity>  (1) 
-4.80989

>  <filename>  (1) 
O=c1cc(-c2cccnc2)[nH]n1CNc1ccccc1

$$$$
