
     RDKit          3D

 37 39  0  0  0  0  0  0  0  0999 V2000
    5.1311    1.5880   16.7439 H   0  0  0  0  0  0  0  0  0  0  0  0
    5.4788    1.1824   17.6909 C   0  0  0  0  0  0  0  0  0  0  0  0
    6.5355    0.3563   17.6177 N   0  0  0  0  0  0  0  0  0  0  0  0
    6.9993   -0.1587   18.7602 C   0  0  0  0  0  0  0  0  0  0  0  0
    7.8754   -0.8057   18.7180 H   0  0  0  0  0  0  0  0  0  0  0  0
    6.4324    0.1237   20.0175 C   0  0  0  0  0  0  0  0  0  0  0  0
    7.0235   -0.4541   21.1807 N   0  0  0  0  0  0  0  0  0  0  0  0
    7.3799   -1.7708   21.0257 N   0  0  0  0  0  0  0  0  0  0  0  0
    7.9241   -2.3973   22.0348 C   0  0  0  0  0  0  0  0  0  0  0  0
    8.2124   -3.8615   21.8318 C   0  0  0  0  0  0  0  0  0  0  0  0
    8.9649   -4.1857   22.5573 H   0  0  0  0  0  0  0  0  0  0  0  0
    8.6276   -3.9686   20.8302 H   0  0  0  0  0  0  0  0  0  0  0  0
    6.9796   -4.7623   21.9548 C   0  0  0  0  0  0  0  0  0  0  0  0
    6.1166   -4.3208   21.4294 H   0  0  0  0  0  0  0  0  0  0  0  0
    7.1956   -5.7517   21.5209 H   0  0  0  0  0  0  0  0  0  0  0  0
    6.7150   -4.8737   23.3393 O   0  0  0  0  0  0  0  0  0  0  0  0
    5.8108   -5.7558   23.8477 C   0  0  0  0  0  0  0  0  0  0  0  0
    5.7663   -5.7619   25.2526 C   0  0  0  0  0  0  0  0  0  0  0  0
    6.4512   -5.1053   25.7790 H   0  0  0  0  0  0  0  0  0  0  0  0
    4.8746   -6.5891   25.9251 C   0  0  0  0  0  0  0  0  0  0  0  0
    4.8432   -6.5697   27.0137 H   0  0  0  0  0  0  0  0  0  0  0  0
    4.0198   -7.4359   25.2060 C   0  0  0  0  0  0  0  0  0  0  0  0
    3.3216   -8.0800   25.7376 H   0  0  0  0  0  0  0  0  0  0  0  0
    4.0746   -7.4397   23.8118 C   0  0  0  0  0  0  0  0  0  0  0  0
    3.4196   -8.0996   23.2446 H   0  0  0  0  0  0  0  0  0  0  0  0
    4.9611   -6.5999   23.1180 C   0  0  0  0  0  0  0  0  0  0  0  0
    4.9824   -6.6058   22.0315 H   0  0  0  0  0  0  0  0  0  0  0  0
    8.2615   -1.7195   23.2601 C   0  0  0  0  0  0  0  0  0  0  0  0
    8.7501   -2.3071   24.0324 H   0  0  0  0  0  0  0  0  0  0  0  0
    7.9906   -0.3956   23.3945 C   0  0  0  0  0  0  0  0  0  0  0  0
    8.2182    0.1929   24.2773 H   0  0  0  0  0  0  0  0  0  0  0  0
    7.3486    0.3579   22.3252 C   0  0  0  0  0  0  0  0  0  0  0  0
    7.1105    1.5532   22.3816 O   0  0  0  0  0  0  0  0  0  0  0  0
    5.3305    0.9803   20.0922 C   0  0  0  0  0  0  0  0  0  0  0  0
    4.8823    1.2267   21.0519 H   0  0  0  0  0  0  0  0  0  0  0  0
    4.8496    1.5166   18.8923 C   0  0  0  0  0  0  0  0  0  0  0  0
    4.0189    2.2099   18.8799 H   0  0  0  0  0  0  0  0  0  0  0  0
  1  2  1  0
  2  3  2  0
  3  4  1  0
  4  5  1  0
  4  6  2  0
  6  7  1  0
  7  8  1  0
  8  9  2  0
  9 10  1  0
 10 11  1  0
 10 12  1  0
 10 13  1  0
 13 14  1  0
 13 15  1  0
 13 16  1  0
 16 17  1  0
 17 18  2  0
 18 19  1  0
 18 20  1  0
 20 21  1  0
 20 22  2  0
 22 23  1  0
 22 24  1  0
 24 25  1  0
 24 26  2  0
 26 27  1  0
  9 28  1  0
 28 29  1  0
 28 30  2  0
 30 31  1  0
 30 32  1  0
 32 33  2  0
  6 34  1  0
 34 35  1  0
 34 36  2  0
 36 37  1  0
 36  2  1  0
 32  7  1  0
 26 17  1  0
M  END
>  <cnnaffinity>  (1) 
-5.33844

>  <filename>  (1) 
O=c1ccc(CCOc2ccccc2)nn1-c1cccnc1

$$$$
