
     RDKit          3D

 35 38  0  0  0  0  0  0  0  0999 V2000
    4.9400    1.8370   16.9495 H   0  0  0  0  0  0  0  0  0  0  0  0
    5.4042    1.3166   17.7853 C   0  0  0  0  0  0  0  0  0  0  0  0
    6.5704    0.7025   17.5305 N   0  0  0  0  0  0  0  0  0  0  0  0
    7.1624    0.0648   18.5489 C   0  0  0  0  0  0  0  0  0  0  0  0
    8.1191   -0.4050   18.3139 H   0  0  0  0  0  0  0  0  0  0  0  0
    6.6321   -0.0156   19.8537 C   0  0  0  0  0  0  0  0  0  0  0  0
    7.3619   -0.7018   21.0055 C   0  0  2  0  0  0  0  0  0  0  0  0
    8.1554   -1.3295   20.5723 H   0  0  0  0  0  0  0  0  0  0  0  0
    6.4950   -1.6690   21.8356 C   0  0  0  0  0  0  0  0  0  0  0  0
    5.7971   -2.5760   21.4334 O   0  0  0  0  0  0  0  0  0  0  0  0
    6.6989   -1.3849   23.1448 N   0  0  0  0  0  0  0  0  0  0  0  0
    6.0962   -1.8590   23.8010 H   0  0  0  0  0  0  0  0  0  0  0  0
    7.5704   -0.2743   23.4464 C   0  0  0  0  0  0  0  0  0  0  0  0
    7.0709    0.4757   24.0751 H   0  0  0  0  0  0  0  0  0  0  0  0
    8.4558   -0.6131   24.0079 H   0  0  0  0  0  0  0  0  0  0  0  0
    7.9515    0.2972   22.0470 C   0  0  1  0  0  0  0  0  0  0  0  0
    7.4540    1.2715   21.9336 H   0  0  0  0  0  0  0  0  0  0  0  0
    9.4502    0.4877   21.8824 C   0  0  0  0  0  0  0  0  0  0  0  0
   10.0070    1.7700   21.5904 C   0  0  0  0  0  0  0  0  0  0  0  0
    9.3427    2.5993   21.3568 H   0  0  0  0  0  0  0  0  0  0  0  0
   11.3747    1.9985   21.6202 C   0  0  0  0  0  0  0  0  0  0  0  0
   11.8004    2.9726   21.3961 H   0  0  0  0  0  0  0  0  0  0  0  0
   12.2011    0.8957   21.9394 C   0  0  0  0  0  0  0  0  0  0  0  0
   11.6905   -0.4160   22.0594 C   0  0  0  0  0  0  0  0  0  0  0  0
   12.8589   -1.2300   22.1870 C   0  0  0  0  0  0  0  0  0  0  0  0
   12.9160   -2.3090   22.2053 H   0  0  0  0  0  0  0  0  0  0  0  0
   13.9562   -0.5018   22.2340 N   0  0  0  0  0  0  0  0  0  0  0  0
   13.5469    0.7829   22.1199 N   0  0  0  0  0  0  0  0  0  0  0  0
   14.2305    1.5216   22.0418 H   0  0  0  0  0  0  0  0  0  0  0  0
   10.2883   -0.6068   22.0599 C   0  0  0  0  0  0  0  0  0  0  0  0
    9.8472   -1.5899   22.1985 H   0  0  0  0  0  0  0  0  0  0  0  0
    5.4182    0.6390   20.0927 C   0  0  0  0  0  0  0  0  0  0  0  0
    4.9865    0.6366   21.0958 H   0  0  0  0  0  0  0  0  0  0  0  0
    4.7931    1.3127   19.0419 C   0  0  0  0  0  0  0  0  0  0  0  0
    3.8652    1.8507   19.1912 H   0  0  0  0  0  0  0  0  0  0  0  0
  1  2  1  0
  2  3  2  0
  3  4  1  0
  4  5  1  0
  4  6  2  0
  6  7  1  0
  7  8  1  6
  7  9  1  0
  9 10  2  0
  9 11  1  0
 11 12  1  0
 11 13  1  0
 13 14  1  0
 13 15  1  0
 13 16  1  0
 16 17  1  6
 16 18  1  0
 18 19  2  0
 19 20  1  0
 19 21  1  0
 21 22  1  0
 21 23  2  0
 23 24  1  0
 24 25  1  0
 25 26  1  0
 25 27  2  0
 27 28  1  0
 28 29  1  0
 24 30  2  0
 30 31  1  0
  6 32  1  0
 32 33  1  0
 32 34  2  0
 34 35  1  0
 34  2  1  0
 16  7  1  0
 30 18  1  0
 28 23  1  0
M  END
>  <cnnaffinity>  (1) 
-6.06404

>  <filename>  (1) 
O=C1NC[C@@H](c2ccc3[nH]ncc3c2)[C@@H]1c1cccnc1

$$$$
