
     RDKit          3D

 37 40  0  0  0  0  0  0  0  0999 V2000
    4.9033    1.8314   16.9633 H   0  0  0  0  0  0  0  0  0  0  0  0
    5.3830    1.3166   17.7938 C   0  0  0  0  0  0  0  0  0  0  0  0
    6.5325    0.6827   17.5170 N   0  0  0  0  0  0  0  0  0  0  0  0
    7.1639    0.0615   18.5218 C   0  0  0  0  0  0  0  0  0  0  0  0
    8.1065   -0.4190   18.2689 H   0  0  0  0  0  0  0  0  0  0  0  0
    6.6745    0.0198   19.8456 C   0  0  0  0  0  0  0  0  0  0  0  0
    7.3829   -0.6627   20.9149 N   0  0  0  0  0  0  0  0  0  0  0  0
    6.7546   -1.7045   21.5889 C   0  0  0  0  0  0  0  0  0  0  0  0
    5.7302   -1.9061   21.2852 H   0  0  0  0  0  0  0  0  0  0  0  0
    7.3495   -2.4195   22.5760 C   0  0  0  0  0  0  0  0  0  0  0  0
    6.6678   -3.5570   23.2600 C   0  0  0  0  0  0  0  0  0  0  0  0
    6.6740   -3.6209   24.6969 C   0  0  0  0  0  0  0  0  0  0  0  0
    7.2037   -2.8483   25.2502 H   0  0  0  0  0  0  0  0  0  0  0  0
    6.0058   -4.6163   25.3667 C   0  0  0  0  0  0  0  0  0  0  0  0
    6.0030   -4.6463   26.4551 H   0  0  0  0  0  0  0  0  0  0  0  0
    5.2851   -5.6274   24.6618 C   0  0  0  0  0  0  0  0  0  0  0  0
    4.6015   -6.6859   25.3370 C   0  0  0  0  0  0  0  0  0  0  0  0
    4.7215   -6.7915   26.4146 H   0  0  0  0  0  0  0  0  0  0  0  0
    3.8093   -7.5618   24.6341 C   0  0  0  0  0  0  0  0  0  0  0  0
    3.2564   -8.3375   25.1539 H   0  0  0  0  0  0  0  0  0  0  0  0
    3.7078   -7.4533   23.2185 C   0  0  0  0  0  0  0  0  0  0  0  0
    3.0210   -8.1077   22.6886 H   0  0  0  0  0  0  0  0  0  0  0  0
    4.4437   -6.5188   22.5281 C   0  0  0  0  0  0  0  0  0  0  0  0
    4.4155   -6.4935   21.4405 H   0  0  0  0  0  0  0  0  0  0  0  0
    5.2482   -5.5658   23.2263 C   0  0  0  0  0  0  0  0  0  0  0  0
    5.9816   -4.5337   22.5553 C   0  0  0  0  0  0  0  0  0  0  0  0
    6.0055   -4.5366   21.4656 H   0  0  0  0  0  0  0  0  0  0  0  0
    8.7140   -2.0284   22.9933 C   0  0  0  0  0  0  0  0  0  0  0  0
    9.4070   -2.5241   23.8542 O   0  0  0  0  0  0  0  0  0  0  0  0
    9.2492   -0.9762   22.2866 N   0  0  0  0  0  0  0  0  0  0  0  0
   10.1917   -0.7337   22.5182 H   0  0  0  0  0  0  0  0  0  0  0  0
    8.7007   -0.2783   21.2648 C   0  0  0  0  0  0  0  0  0  0  0  0
    9.3309    0.5975   20.7162 O   0  0  0  0  0  0  0  0  0  0  0  0
    5.4583    0.6582   20.1109 C   0  0  0  0  0  0  0  0  0  0  0  0
    5.0471    0.6455   21.1215 H   0  0  0  0  0  0  0  0  0  0  0  0
    4.8097    1.3279   19.0678 C   0  0  0  0  0  0  0  0  0  0  0  0
    3.8776    1.8532   19.2291 H   0  0  0  0  0  0  0  0  0  0  0  0
  1  2  1  0
  2  3  2  0
  3  4  1  0
  4  5  1  0
  4  6  2  0
  6  7  1  0
  7  8  1  0
  8  9  1  0
  8 10  2  0
 10 11  1  0
 11 12  2  0
 12 13  1  0
 12 14  1  0
 14 15  1  0
 14 16  2  0
 16 17  1  0
 17 18  1  0
 17 19  2  0
 19 20  1  0
 19 21  1  0
 21 22  1  0
 21 23  2  0
 23 24  1  0
 23 25  1  0
 25 26  2  0
 26 27  1  0
 10 28  1  0
 28 29  2  0
 28 30  1  0
 30 31  1  0
 30 32  1  0
 32 33  2  0
  6 34  1  0
 34 35  1  0
 34 36  2  0
 36 37  1  0
 36  2  1  0
 32  7  1  0
 26 11  1  0
 25 16  1  0
M  END
>  <cnnaffinity>  (1) 
-5.42431

>  <filename>  (1) 
O=c1[nH]c(=O)n(-c2cccnc2)cc1-c1ccc2ccccc2c1

$$$$
