
     RDKit          3D

 30 32  0  0  0  0  0  0  0  0999 V2000
    4.9012    1.7870   16.9830 H   0  0  0  0  0  0  0  0  0  0  0  0
    5.3870    1.3131   17.8130 C   0  0  0  0  0  0  0  0  0  0  0  0
    6.5530    0.7088   17.5207 N   0  0  0  0  0  0  0  0  0  0  0  0
    7.1698    0.1297   18.5500 C   0  0  0  0  0  0  0  0  0  0  0  0
    8.1163   -0.4060   18.3524 H   0  0  0  0  0  0  0  0  0  0  0  0
    6.6404    0.1475   19.8837 C   0  0  0  0  0  0  0  0  0  0  0  0
    7.2795   -0.7045   20.8959 N   0  0  0  0  0  0  0  0  0  0  0  0
    7.6127   -0.2886   22.1594 C   0  0  0  0  0  0  0  0  0  0  0  0
    7.3312    1.1549   22.7367 C   0  0  0  0  0  0  0  0  0  0  0  0
    7.7766    2.1715   21.9586 N   0  0  0  0  0  0  0  0  0  0  0  0
    7.5814    3.4258   22.3698 C   0  0  0  0  0  0  0  0  0  0  0  0
    7.9572    4.2071   21.7253 H   0  0  0  0  0  0  0  0  0  0  0  0
    6.9405    3.7411   23.5638 C   0  0  0  0  0  0  0  0  0  0  0  0
    6.8200    4.7623   23.8653 H   0  0  0  0  0  0  0  0  0  0  0  0
    6.4491    2.7357   24.3700 C   0  0  0  0  0  0  0  0  0  0  0  0
    5.9433    2.9252   25.3031 H   0  0  0  0  0  0  0  0  0  0  0  0
    6.6301    1.4173   23.9489 C   0  0  0  0  0  0  0  0  0  0  0  0
    6.1453    0.2756   24.8090 C   0  0  0  0  0  0  0  0  0  0  0  0
    5.0883    0.6609   25.5609 F   0  0  0  0  0  0  0  0  0  0  0  0
    7.0906   -0.1979   25.6511 F   0  0  0  0  0  0  0  0  0  0  0  0
    5.8156   -0.8133   24.1466 F   0  0  0  0  0  0  0  0  0  0  0  0
    8.4142   -1.2626   22.9017 C   0  0  0  0  0  0  0  0  0  0  0  0
    8.7076   -1.1664   23.9795 H   0  0  0  0  0  0  0  0  0  0  0  0
    8.7292   -2.3199   22.4286 O   0  0  0  0  0  0  0  0  0  0  0  0
    7.5845   -2.1493   20.7049 C   0  0  0  0  0  0  0  0  0  0  0  0
    7.5845   -2.1492   20.7048 O   0  0  0  0  0  0  0  0  0  0  0  0
    5.3700    0.7060   20.1413 C   0  0  0  0  0  0  0  0  0  0  0  0
    4.9958    0.6370   21.1646 H   0  0  0  0  0  0  0  0  0  0  0  0
    4.7577    1.3438   19.0657 C   0  0  0  0  0  0  0  0  0  0  0  0
    3.8374    1.8652   19.2514 H   0  0  0  0  0  0  0  0  0  0  0  0
  1  2  1  0
  2  3  2  0
  3  4  1  0
  4  5  1  0
  4  6  2  0
  6  7  1  0
  7  8  1  0
  8  9  1  0
  9 10  2  0
 10 11  1  0
 11 12  1  0
 11 13  2  0
 13 14  1  0
 13 15  1  0
 15 16  1  0
 15 17  2  0
 17 18  1  0
 18 19  1  0
 18 20  1  0
 18 21  1  0
  8 22  2  0
 22 23  1  0
 22 24  1  0
 24 25  1  0
 25 26  2  0
  6 27  1  0
 27 28  1  0
 27 29  2  0
 29 30  1  0
 29  2  1  0
 25  7  1  0
 17  9  1  0
M  END
>  <cnnaffinity>  (1) 
-4.6046

>  <filename>  (1) 
O=c1occ(-c2ncccc2C(F)(F)F)n1-c1cccnc1

$$$$
