
     RDKit          3D

 29 31  0  0  0  0  0  0  0  0999 V2000
    4.9011    1.7496   16.9429 H   0  0  0  0  0  0  0  0  0  0  0  0
    5.4249    1.3142   17.7851 C   0  0  0  0  0  0  0  0  0  0  0  0
    6.5745    0.6655   17.5372 N   0  0  0  0  0  0  0  0  0  0  0  0
    7.2016    0.0953   18.5830 C   0  0  0  0  0  0  0  0  0  0  0  0
    8.1040   -0.4816   18.4060 H   0  0  0  0  0  0  0  0  0  0  0  0
    6.7298    0.1660   19.9124 C   0  0  0  0  0  0  0  0  0  0  0  0
    7.4172   -0.5517   21.0114 C   0  0  0  0  0  0  0  0  0  0  0  0
    8.4020   -1.4959   20.8212 C   0  0  0  0  0  0  0  0  0  0  0  0
    8.8252   -1.7355   19.8470 H   0  0  0  0  0  0  0  0  0  0  0  0
    8.7492   -2.0850   22.0424 N   0  0  0  0  0  0  0  0  0  0  0  0
    9.6885   -2.4581   22.2127 H   0  0  0  0  0  0  0  0  0  0  0  0
    8.0165   -1.3944   23.0677 N   0  0  0  0  0  0  0  0  0  0  0  0
    8.3697   -1.4199   24.4228 C   0  0  0  0  0  0  0  0  0  0  0  0
    8.4891   -0.2143   25.1270 C   0  0  0  0  0  0  0  0  0  0  0  0
    8.2838    0.7175   24.6116 H   0  0  0  0  0  0  0  0  0  0  0  0
    8.8951   -0.2069   26.4628 C   0  0  0  0  0  0  0  0  0  0  0  0
    9.0217    0.7344   26.9888 H   0  0  0  0  0  0  0  0  0  0  0  0
    9.1396   -1.4120   27.1227 C   0  0  0  0  0  0  0  0  0  0  0  0
    9.4468   -1.3831   28.1613 H   0  0  0  0  0  0  0  0  0  0  0  0
    8.9905   -2.6316   26.4515 C   0  0  0  0  0  0  0  0  0  0  0  0
    9.2843   -4.2852   27.3717 Br  0  0  0  0  0  0  0  0  0  0  0  0
    8.6227   -2.6277   25.1000 C   0  0  0  0  0  0  0  0  0  0  0  0
    8.5166   -3.5783   24.5876 H   0  0  0  0  0  0  0  0  0  0  0  0
    7.2066   -0.4327   22.4609 C   0  0  0  0  0  0  0  0  0  0  0  0
    6.5564    0.4553   23.0153 O   0  0  0  0  0  0  0  0  0  0  0  0
    5.5467    0.8665   20.1624 C   0  0  0  0  0  0  0  0  0  0  0  0
    5.1380    0.9380   21.1718 H   0  0  0  0  0  0  0  0  0  0  0  0
    4.8791    1.4251   19.0704 C   0  0  0  0  0  0  0  0  0  0  0  0
    3.9344    1.9395   19.1963 H   0  0  0  0  0  0  0  0  0  0  0  0
  1  2  1  0
  2  3  2  0
  3  4  1  0
  4  5  1  0
  4  6  2  0
  6  7  1  0
  7  8  2  0
  8  9  1  0
  8 10  1  0
 10 11  1  0
 10 12  1  0
 12 13  1  0
 13 14  2  0
 14 15  1  0
 14 16  1  0
 16 17  1  0
 16 18  2  0
 18 19  1  0
 18 20  1  0
 20 21  1  0
 20 22  2  0
 22 23  1  0
 12 24  1  0
 24 25  2  0
  6 26  1  0
 26 27  1  0
 26 28  2  0
 28 29  1  0
 28  2  1  0
 24  7  1  0
 22 13  1  0
M  END
>  <cnnaffinity>  (1) 
-4.8505

>  <filename>  (1) 
O=c1c(-c2cccnc2)c[nH]n1-c1cccc(Br)c1

$$$$
