
     RDKit          3D

 34 36  0  0  0  0  0  0  0  0999 V2000
    4.9677    1.9954   16.8630 H   0  0  0  0  0  0  0  0  0  0  0  0
    5.4162    1.4310   17.6781 C   0  0  0  0  0  0  0  0  0  0  0  0
    6.5726    0.8047   17.4008 N   0  0  0  0  0  0  0  0  0  0  0  0
    7.1572    0.1211   18.3918 C   0  0  0  0  0  0  0  0  0  0  0  0
    8.0936   -0.3781   18.1435 H   0  0  0  0  0  0  0  0  0  0  0  0
    6.6149    0.0029   19.6886 C   0  0  0  0  0  0  0  0  0  0  0  0
    7.2938   -0.7226   20.7344 N   0  0  0  0  0  0  0  0  0  0  0  0
    8.5736   -0.3228   21.0829 C   0  0  0  0  0  0  0  0  0  0  0  0
    8.9541    0.5451   20.5492 H   0  0  0  0  0  0  0  0  0  0  0  0
    9.2755   -0.9662   22.0505 C   0  0  0  0  0  0  0  0  0  0  0  0
   10.2867   -0.6555   22.2814 H   0  0  0  0  0  0  0  0  0  0  0  0
    8.6938   -2.0727   22.7459 C   0  0  0  0  0  0  0  0  0  0  0  0
    9.4265   -2.6765   23.9224 C   0  0  0  0  0  0  0  0  0  0  0  0
    9.1121   -3.7145   24.0853 H   0  0  0  0  0  0  0  0  0  0  0  0
   10.4983   -2.6989   23.6920 H   0  0  0  0  0  0  0  0  0  0  0  0
    9.2152   -1.8728   25.1923 C   0  0  0  0  0  0  0  0  0  0  0  0
   10.1085   -0.8445   25.5266 C   0  0  0  0  0  0  0  0  0  0  0  0
   10.8867   -0.5628   24.8230 H   0  0  0  0  0  0  0  0  0  0  0  0
   10.0805   -0.2282   26.7713 C   0  0  0  0  0  0  0  0  0  0  0  0
   10.8525    0.4965   27.0028 H   0  0  0  0  0  0  0  0  0  0  0  0
    9.0974   -0.5697   27.7010 C   0  0  0  0  0  0  0  0  0  0  0  0
    9.1238   -0.1287   28.6936 H   0  0  0  0  0  0  0  0  0  0  0  0
    8.1147   -1.4994   27.3481 C   0  0  0  0  0  0  0  0  0  0  0  0
    7.2847   -1.7493   27.9956 H   0  0  0  0  0  0  0  0  0  0  0  0
    8.1755   -2.1258   26.1011 C   0  0  0  0  0  0  0  0  0  0  0  0
    6.9154   -3.2737   25.7282 Cl  0  0  0  0  0  0  0  0  0  0  0  0
    7.4600   -2.5056   22.3800 C   0  0  0  0  0  0  0  0  0  0  0  0
    6.9901   -3.3749   22.8135 H   0  0  0  0  0  0  0  0  0  0  0  0
    6.6581   -1.8571   21.3650 C   0  0  0  0  0  0  0  0  0  0  0  0
    5.5557   -2.2563   21.0345 O   0  0  0  0  0  0  0  0  0  0  0  0
    5.3986    0.6374   19.9555 C   0  0  0  0  0  0  0  0  0  0  0  0
    4.9557    0.5433   20.9456 H   0  0  0  0  0  0  0  0  0  0  0  0
    4.7976    1.3764   18.9315 C   0  0  0  0  0  0  0  0  0  0  0  0
    3.8700    1.9132   19.0989 H   0  0  0  0  0  0  0  0  0  0  0  0
  1  2  1  0
  2  3  2  0
  3  4  1  0
  4  5  1  0
  4  6  2  0
  6  7  1  0
  7  8  1  0
  8  9  1  0
  8 10  2  0
 10 11  1  0
 10 12  1  0
 12 13  1  0
 13 14  1  0
 13 15  1  0
 13 16  1  0
 16 17  2  0
 17 18  1  0
 17 19  1  0
 19 20  1  0
 19 21  2  0
 21 22  1  0
 21 23  1  0
 23 24  1  0
 23 25  2  0
 25 26  1  0
 12 27  2  0
 27 28  1  0
 27 29  1  0
 29 30  2  0
  6 31  1  0
 31 32  1  0
 31 33  2  0
 33 34  1  0
 33  2  1  0
 29  7  1  0
 25 16  1  0
M  END
>  <cnnaffinity>  (1) 
-5.42365

>  <filename>  (1) 
O=c1cc(Cc2ccccc2Cl)ccn1-c1cccnc1

$$$$
