
     RDKit          3D

 30 32  0  0  0  0  0  0  0  0999 V2000
    9.4625   -4.2586   26.2116 H   0  0  0  0  0  0  0  0  0  0  0  0
    8.5587   -3.9575   25.6842 C   0  0  0  0  0  0  0  0  0  0  0  0
    8.7406   -3.1828   24.6150 N   0  0  0  0  0  0  0  0  0  0  0  0
    7.6300   -2.8091   23.9605 C   0  0  0  0  0  0  0  0  0  0  0  0
    7.7544   -1.9460   22.7621 C   0  0  0  0  0  0  0  0  0  0  0  0
    6.7783   -1.4553   21.9579 C   0  0  0  0  0  0  0  0  0  0  0  0
    5.7072   -1.6193   22.0017 H   0  0  0  0  0  0  0  0  0  0  0  0
    7.3569   -0.6830   20.9564 N   0  0  0  0  0  0  0  0  0  0  0  0
    6.6617   -0.0060   19.9089 C   0  0  0  0  0  0  0  0  0  0  0  0
    7.1719    0.0480   18.5919 C   0  0  0  0  0  0  0  0  0  0  0  0
    8.1273   -0.4196   18.3694 H   0  0  0  0  0  0  0  0  0  0  0  0
    6.5545    0.6645   17.5791 N   0  0  0  0  0  0  0  0  0  0  0  0
    5.3965    1.2898   17.8410 C   0  0  0  0  0  0  0  0  0  0  0  0
    4.9227    1.7889   16.9972 H   0  0  0  0  0  0  0  0  0  0  0  0
    4.8131    1.3042   19.1116 C   0  0  0  0  0  0  0  0  0  0  0  0
    3.8830    1.8370   19.2624 H   0  0  0  0  0  0  0  0  0  0  0  0
    5.4472    0.6386   20.1661 C   0  0  0  0  0  0  0  0  0  0  0  0
    5.0310    0.6351   21.1745 H   0  0  0  0  0  0  0  0  0  0  0  0
    8.7578   -0.6718   21.1286 C   0  0  0  0  0  0  0  0  0  0  0  0
    9.6226   -0.1176   20.4829 O   0  0  0  0  0  0  0  0  0  0  0  0
    8.9560   -1.4573   22.2250 N   0  0  0  0  0  0  0  0  0  0  0  0
    9.9022   -1.5853   22.5373 H   0  0  0  0  0  0  0  0  0  0  0  0
    6.3805   -3.1547   24.2883 N   0  0  0  0  0  0  0  0  0  0  0  0
    6.2014   -3.9248   25.3643 C   0  0  0  0  0  0  0  0  0  0  0  0
    4.7556   -4.3380   25.7784 C   0  0  0  0  0  0  0  0  0  0  0  0
    4.4878   -3.9269   27.0361 F   0  0  0  0  0  0  0  0  0  0  0  0
    4.6339   -5.6830   25.7836 F   0  0  0  0  0  0  0  0  0  0  0  0
    3.7954   -3.8542   24.9862 F   0  0  0  0  0  0  0  0  0  0  0  0
    7.2968   -4.3668   26.1146 C   0  0  0  0  0  0  0  0  0  0  0  0
    7.1824   -4.9973   26.9842 H   0  0  0  0  0  0  0  0  0  0  0  0
  1  2  1  0
  2  3  2  0
  3  4  1  0
  4  5  1  0
  5  6  2  0
  6  7  1  0
  6  8  1  0
  8  9  1  0
  9 10  2  0
 10 11  1  0
 10 12  1  0
 12 13  2  0
 13 14  1  0
 13 15  1  0
 15 16  1  0
 15 17  2  0
 17 18  1  0
  8 19  1  0
 19 20  2  0
 19 21  1  0
 21 22  1  0
  4 23  2  0
 23 24  1  0
 24 25  1  0
 25 26  1  0
 25 27  1  0
 25 28  1  0
 24 29  2  0
 29 30  1  0
 29  2  1  0
 21  5  1  0
 17  9  1  0
M  END
>  <cnnaffinity>  (1) 
-5.40633

>  <filename>  (1) 
O=c1[nH]c(-c2nccc(C(F)(F)F)n2)cn1-c1cccnc1

$$$$
