
     RDKit          3D

 30 32  0  0  0  0  0  0  0  0999 V2000
    4.9099    1.7893   16.9343 H   0  0  0  0  0  0  0  0  0  0  0  0
    5.3651    1.3379   17.8156 C   0  0  0  0  0  0  0  0  0  0  0  0
    6.5433    0.7257   17.6182 N   0  0  0  0  0  0  0  0  0  0  0  0
    7.1252    0.1688   18.6823 C   0  0  0  0  0  0  0  0  0  0  0  0
    8.0807   -0.3148   18.4860 H   0  0  0  0  0  0  0  0  0  0  0  0
    6.5997    0.2021   19.9865 C   0  0  0  0  0  0  0  0  0  0  0  0
    7.3634   -0.4691   21.0543 C   0  0  0  0  0  0  0  0  0  0  0  0
    7.1004   -0.0485   22.3308 O   0  0  0  0  0  0  0  0  0  0  0  0
    7.7731   -0.6330   23.3831 C   0  0  0  0  0  0  0  0  0  0  0  0
    7.5326    0.0117   24.6978 C   0  0  0  0  0  0  0  0  0  0  0  0
    8.4670   -0.1438   25.7399 C   0  0  0  0  0  0  0  0  0  0  0  0
    9.3939   -0.6879   25.5778 H   0  0  0  0  0  0  0  0  0  0  0  0
    8.2218    0.4131   26.9935 C   0  0  0  0  0  0  0  0  0  0  0  0
    8.9412    0.2704   27.7925 H   0  0  0  0  0  0  0  0  0  0  0  0
    7.0539    1.1389   27.2348 C   0  0  0  0  0  0  0  0  0  0  0  0
    6.8582    1.5797   28.2059 H   0  0  0  0  0  0  0  0  0  0  0  0
    6.1270    1.2799   26.1986 C   0  0  0  0  0  0  0  0  0  0  0  0
    4.6636    2.1641   26.4836 Cl  0  0  0  0  0  0  0  0  0  0  0  0
    6.3464    0.7231   24.9428 C   0  0  0  0  0  0  0  0  0  0  0  0
    5.5971    0.8198   24.1643 H   0  0  0  0  0  0  0  0  0  0  0  0
    8.4844   -1.7682   23.2257 C   0  0  0  0  0  0  0  0  0  0  0  0
    8.9189   -2.2960   24.0620 H   0  0  0  0  0  0  0  0  0  0  0  0
    8.6036   -2.3740   21.9070 C   0  0  0  0  0  0  0  0  0  0  0  0
    8.9752   -3.5222   21.7386 O   0  0  0  0  0  0  0  0  0  0  0  0
    8.1896   -1.5030   20.8242 C   0  0  0  0  0  0  0  0  0  0  0  0
    8.4868   -1.7934   19.8344 H   0  0  0  0  0  0  0  0  0  0  0  0
    5.3499    0.8160   20.1699 C   0  0  0  0  0  0  0  0  0  0  0  0
    4.8796    0.8308   21.1538 H   0  0  0  0  0  0  0  0  0  0  0  0
    4.7344    1.3923   19.0618 C   0  0  0  0  0  0  0  0  0  0  0  0
    3.7732    1.8854   19.1426 H   0  0  0  0  0  0  0  0  0  0  0  0
  1  2  1  0
  2  3  2  0
  3  4  1  0
  4  5  1  0
  4  6  2  0
  6  7  1  0
  7  8  1  0
  8  9  1  0
  9 10  1  0
 10 11  2  0
 11 12  1  0
 11 13  1  0
 13 14  1  0
 13 15  2  0
 15 16  1  0
 15 17  1  0
 17 18  1  0
 17 19  2  0
 19 20  1  0
  9 21  2  0
 21 22  1  0
 21 23  1  0
 23 24  2  0
 23 25  1  0
 25 26  1  0
  6 27  1  0
 27 28  1  0
 27 29  2  0
 29 30  1  0
 29  2  1  0
 25  7  2  0
 19 10  1  0
M  END
>  <cnnaffinity>  (1) 
-5.15134

>  <filename>  (1) 
O=c1cc(-c2cccnc2)oc(-c2cccc(Cl)c2)c1

$$$$
