
     RDKit          3D

 32 34  0  0  0  0  0  0  0  0999 V2000
    4.9160    1.8028   16.9777 H   0  0  0  0  0  0  0  0  0  0  0  0
    5.3943    1.3076   17.8194 C   0  0  0  0  0  0  0  0  0  0  0  0
    6.5590    0.6941   17.5568 N   0  0  0  0  0  0  0  0  0  0  0  0
    7.1829    0.0832   18.5699 C   0  0  0  0  0  0  0  0  0  0  0  0
    8.1191   -0.4219   18.3343 H   0  0  0  0  0  0  0  0  0  0  0  0
    6.6699    0.0345   19.8791 C   0  0  0  0  0  0  0  0  0  0  0  0
    7.3616   -0.6652   20.9314 N   0  0  0  0  0  0  0  0  0  0  0  0
    8.6430   -0.2755   21.2642 C   0  0  0  0  0  0  0  0  0  0  0  0
    9.0219    0.5730   20.7022 H   0  0  0  0  0  0  0  0  0  0  0  0
    9.3518   -0.9106   22.2367 C   0  0  0  0  0  0  0  0  0  0  0  0
   10.3426   -0.5611   22.4943 H   0  0  0  0  0  0  0  0  0  0  0  0
    8.7690   -2.0117   22.9369 C   0  0  0  0  0  0  0  0  0  0  0  0
    9.6391   -2.8020   24.2859 S   0  0  0  0  0  0  0  0  0  0  0  0
    9.0232   -1.7262   25.5913 C   0  0  0  0  0  0  0  0  0  0  0  0
    9.6681   -0.5056   25.8339 C   0  0  0  0  0  0  0  0  0  0  0  0
   10.5978   -0.2754   25.3224 H   0  0  0  0  0  0  0  0  0  0  0  0
    9.1128    0.4323   26.7018 C   0  0  0  0  0  0  0  0  0  0  0  0
    9.5548    1.4245   26.7398 H   0  0  0  0  0  0  0  0  0  0  0  0
    7.9684    0.1073   27.4365 C   0  0  0  0  0  0  0  0  0  0  0  0
    7.6000    0.7889   28.1992 H   0  0  0  0  0  0  0  0  0  0  0  0
    7.3106   -1.1053   27.1970 C   0  0  0  0  0  0  0  0  0  0  0  0
    6.3747   -1.3301   27.7042 H   0  0  0  0  0  0  0  0  0  0  0  0
    7.8160   -2.0096   26.2522 C   0  0  0  0  0  0  0  0  0  0  0  0
    7.2508   -2.9036   25.9926 H   0  0  0  0  0  0  0  0  0  0  0  0
    7.5008   -2.4028   22.6258 C   0  0  0  0  0  0  0  0  0  0  0  0
    6.9729   -3.1937   23.1321 H   0  0  0  0  0  0  0  0  0  0  0  0
    6.7161   -1.7686   21.5932 C   0  0  0  0  0  0  0  0  0  0  0  0
    5.6008   -2.1461   21.2798 O   0  0  0  0  0  0  0  0  0  0  0  0
    5.4509    0.6647   20.1400 C   0  0  0  0  0  0  0  0  0  0  0  0
    5.0316    0.6039   21.1419 H   0  0  0  0  0  0  0  0  0  0  0  0
    4.8082    1.3247   19.0893 C   0  0  0  0  0  0  0  0  0  0  0  0
    3.8697    1.8429   19.2412 H   0  0  0  0  0  0  0  0  0  0  0  0
  1  2  1  0
  2  3  2  0
  3  4  1  0
  4  5  1  0
  4  6  2  0
  6  7  1  0
  7  8  1  0
  8  9  1  0
  8 10  2  0
 10 11  1  0
 10 12  1  0
 12 13  1  0
 13 14  1  0
 14 15  2  0
 15 16  1  0
 15 17  1  0
 17 18  1  0
 17 19  2  0
 19 20  1  0
 19 21  1  0
 21 22  1  0
 21 23  2  0
 23 24  1  0
 12 25  2  0
 25 26  1  0
 25 27  1  0
 27 28  2  0
  6 29  1  0
 29 30  1  0
 29 31  2  0
 31 32  1  0
 31  2  1  0
 27  7  1  0
 23 14  1  0
M  END
>  <cnnaffinity>  (1) 
-5.28102

>  <filename>  (1) 
O=c1cc(Sc2ccccc2)ccn1-c1cccnc1

$$$$
