
     RDKit          3D

 29 31  0  0  0  0  0  0  0  0999 V2000
    4.9074    1.7768   17.0010 H   0  0  0  0  0  0  0  0  0  0  0  0
    5.3977    1.2942   17.8420 C   0  0  0  0  0  0  0  0  0  0  0  0
    6.5625    0.6779   17.5782 N   0  0  0  0  0  0  0  0  0  0  0  0
    7.1793    0.0593   18.5913 C   0  0  0  0  0  0  0  0  0  0  0  0
    8.1285   -0.4297   18.3833 H   0  0  0  0  0  0  0  0  0  0  0  0
    6.6660    0.0031   19.9063 C   0  0  0  0  0  0  0  0  0  0  0  0
    7.3573   -0.6818   20.9462 N   0  0  0  0  0  0  0  0  0  0  0  0
    6.7674   -1.4531   21.9380 C   0  0  0  0  0  0  0  0  0  0  0  0
    5.7003   -1.6041   21.9933 H   0  0  0  0  0  0  0  0  0  0  0  0
    7.7405   -1.9434   22.7364 C   0  0  0  0  0  0  0  0  0  0  0  0
    7.6049   -2.8279   23.8823 C   0  0  0  0  0  0  0  0  0  0  0  0
    6.6803   -3.8845   23.7883 C   0  0  0  0  0  0  0  0  0  0  0  0
    6.1154   -4.0081   22.8678 H   0  0  0  0  0  0  0  0  0  0  0  0
    6.4882   -4.7751   24.8349 C   0  0  0  0  0  0  0  0  0  0  0  0
    5.7766   -5.5848   24.7460 H   0  0  0  0  0  0  0  0  0  0  0  0
    7.2280   -4.6027   26.0066 C   0  0  0  0  0  0  0  0  0  0  0  0
    6.9993   -5.7066   27.3240 Cl  0  0  0  0  0  0  0  0  0  0  0  0
    8.1400   -3.5565   26.1443 C   0  0  0  0  0  0  0  0  0  0  0  0
    8.6984   -3.4251   27.0611 H   0  0  0  0  0  0  0  0  0  0  0  0
    8.3180   -2.6666   25.0864 C   0  0  0  0  0  0  0  0  0  0  0  0
    9.4072   -1.3320   25.3367 Cl  0  0  0  0  0  0  0  0  0  0  0  0
    8.9419   -1.4778   22.2294 N   0  0  0  0  0  0  0  0  0  0  0  0
    9.8699   -1.6679   22.5603 H   0  0  0  0  0  0  0  0  0  0  0  0
    8.7533   -0.6855   21.1298 C   0  0  0  0  0  0  0  0  0  0  0  0
    9.5997   -0.1238   20.4666 O   0  0  0  0  0  0  0  0  0  0  0  0
    5.4469    0.6448   20.1627 C   0  0  0  0  0  0  0  0  0  0  0  0
    5.0153    0.6309   21.1639 H   0  0  0  0  0  0  0  0  0  0  0  0
    4.8083    1.3110   19.1109 C   0  0  0  0  0  0  0  0  0  0  0  0
    3.8734    1.8437   19.2676 H   0  0  0  0  0  0  0  0  0  0  0  0
  1  2  1  0
  2  3  2  0
  3  4  1  0
  4  5  1  0
  4  6  2  0
  6  7  1  0
  7  8  1  0
  8  9  1  0
  8 10  2  0
 10 11  1  0
 11 12  2  0
 12 13  1  0
 12 14  1  0
 14 15  1  0
 14 16  2  0
 16 17  1  0
 16 18  1  0
 18 19  1  0
 18 20  2  0
 20 21  1  0
 10 22  1  0
 22 23  1  0
 22 24  1  0
 24 25  2  0
  6 26  1  0
 26 27  1  0
 26 28  2  0
 28 29  1  0
 28  2  1  0
 24  7  1  0
 20 11  1  0
M  END
>  <cnnaffinity>  (1) 
-5.73115

>  <filename>  (1) 
O=c1[nH]c(-c2ccc(Cl)cc2Cl)cn1-c1cccnc1

$$$$
