
     RDKit          3D

 33 36  0  0  0  0  0  0  0  0999 V2000
    4.9114    1.8062   16.9778 H   0  0  0  0  0  0  0  0  0  0  0  0
    5.3814    1.3042   17.8198 C   0  0  0  0  0  0  0  0  0  0  0  0
    6.5387    0.6823   17.5487 N   0  0  0  0  0  0  0  0  0  0  0  0
    7.1506    0.0677   18.5670 C   0  0  0  0  0  0  0  0  0  0  0  0
    8.1084   -0.4083   18.3591 H   0  0  0  0  0  0  0  0  0  0  0  0
    6.6447    0.0101   19.8805 C   0  0  0  0  0  0  0  0  0  0  0  0
    7.3557   -0.7105   20.9565 C   0  0  0  0  0  0  0  0  0  0  0  0
    6.6969   -1.6351   21.7284 C   0  0  0  0  0  0  0  0  0  0  0  0
    5.6437   -1.8408   21.5383 H   0  0  0  0  0  0  0  0  0  0  0  0
    7.3495   -2.3566   22.7643 C   0  0  0  0  0  0  0  0  0  0  0  0
    6.5825   -3.3351   23.5360 C   0  0  0  0  0  0  0  0  0  0  0  0
    5.3384   -3.6381   23.3604 N   0  0  0  0  0  0  0  0  0  0  0  0
    5.0798   -4.6050   24.3260 C   0  0  0  0  0  0  0  0  0  0  0  0
    3.9128   -5.3102   24.6425 C   0  0  0  0  0  0  0  0  0  0  0  0
    3.0031   -5.1168   24.0811 H   0  0  0  0  0  0  0  0  0  0  0  0
    3.9741   -6.2400   25.6813 C   0  0  0  0  0  0  0  0  0  0  0  0
    3.0838   -6.7988   25.9476 H   0  0  0  0  0  0  0  0  0  0  0  0
    5.1750   -6.4605   26.3895 C   0  0  0  0  0  0  0  0  0  0  0  0
    5.1897   -7.1903   27.1927 H   0  0  0  0  0  0  0  0  0  0  0  0
    6.3440   -5.7587   26.0839 C   0  0  0  0  0  0  0  0  0  0  0  0
    7.2747   -5.9149   26.6198 H   0  0  0  0  0  0  0  0  0  0  0  0
    6.2569   -4.8371   25.0474 C   0  0  0  0  0  0  0  0  0  0  0  0
    7.2238   -4.0176   24.5370 O   0  0  0  0  0  0  0  0  0  0  0  0
    8.6749   -2.1142   23.0285 C   0  0  0  0  0  0  0  0  0  0  0  0
    9.2501   -2.6163   23.8063 H   0  0  0  0  0  0  0  0  0  0  0  0
    9.3139   -1.1916   22.2787 N   0  0  0  0  0  0  0  0  0  0  0  0
   10.2798   -0.9020   22.3591 H   0  0  0  0  0  0  0  0  0  0  0  0
    8.7757   -0.4324   21.2355 C   0  0  0  0  0  0  0  0  0  0  0  0
    9.5448    0.3524   20.7051 O   0  0  0  0  0  0  0  0  0  0  0  0
    5.4210    0.6487   20.1333 C   0  0  0  0  0  0  0  0  0  0  0  0
    5.0094    0.6318   21.1450 H   0  0  0  0  0  0  0  0  0  0  0  0
    4.7884    1.3212   19.0883 C   0  0  0  0  0  0  0  0  0  0  0  0
    3.8605    1.8583   19.2395 H   0  0  0  0  0  0  0  0  0  0  0  0
  1  2  1  0
  2  3  2  0
  3  4  1  0
  4  5  1  0
  4  6  2  0
  6  7  1  0
  7  8  2  0
  8  9  1  0
  8 10  1  0
 10 11  1  0
 11 12  2  0
 12 13  1  0
 13 14  2  0
 14 15  1  0
 14 16  1  0
 16 17  1  0
 16 18  2  0
 18 19  1  0
 18 20  1  0
 20 21  1  0
 20 22  2  0
 22 23  1  0
 10 24  2  0
 24 25  1  0
 24 26  1  0
 26 27  1  0
 26 28  1  0
 28 29  2  0
  6 30  1  0
 30 31  1  0
 30 32  2  0
 32 33  1  0
 32  2  1  0
 28  7  1  0
 23 11  1  0
 22 13  1  0
M  END
>  <cnnaffinity>  (1) 
-5.65337

>  <filename>  (1) 
O=c1[nH]cc(-c2nc3ccccc3o2)cc1-c1cccnc1

$$$$
