
     RDKit          3D

 34 36  0  0  0  0  0  0  0  0999 V2000
    4.9583    1.8052   17.0074 H   0  0  0  0  0  0  0  0  0  0  0  0
    5.4122    1.2896   17.8498 C   0  0  0  0  0  0  0  0  0  0  0  0
    6.5703    0.6581   17.6072 N   0  0  0  0  0  0  0  0  0  0  0  0
    7.1561    0.0336   18.6338 C   0  0  0  0  0  0  0  0  0  0  0  0
    8.0960   -0.4597   18.3897 H   0  0  0  0  0  0  0  0  0  0  0  0
    6.6185   -0.0338   19.9351 C   0  0  0  0  0  0  0  0  0  0  0  0
    7.3797   -0.7482   20.9942 C   0  0  0  0  0  0  0  0  0  0  0  0
    6.6039   -1.3377   21.9620 O   0  0  0  0  0  0  0  0  0  0  0  0
    7.1939   -2.0318   23.0005 C   0  0  0  0  0  0  0  0  0  0  0  0
    6.2341   -2.6588   23.9570 C   0  0  0  0  0  0  0  0  0  0  0  0
    4.9754   -3.1399   23.5438 C   0  0  0  0  0  0  0  0  0  0  0  0
    4.7097   -3.1154   22.4880 H   0  0  0  0  0  0  0  0  0  0  0  0
    4.0185   -3.5478   24.4732 C   0  0  0  0  0  0  0  0  0  0  0  0
    3.0001   -3.7685   24.1824 H   0  0  0  0  0  0  0  0  0  0  0  0
    4.3901   -3.6441   25.8152 C   0  0  0  0  0  0  0  0  0  0  0  0
    3.5693   -4.1080   26.8393 O   0  0  0  0  0  0  0  0  0  0  0  0
    2.2878   -4.4643   26.6157 C   0  0  0  0  0  0  0  0  0  0  0  0
    1.7864   -4.9207   27.7555 F   0  0  0  0  0  0  0  0  0  0  0  0
    1.5284   -3.4332   26.2054 F   0  0  0  0  0  0  0  0  0  0  0  0
    2.1702   -5.4335   25.6890 F   0  0  0  0  0  0  0  0  0  0  0  0
    5.6668   -3.2949   26.2431 C   0  0  0  0  0  0  0  0  0  0  0  0
    5.8780   -3.4112   27.3000 H   0  0  0  0  0  0  0  0  0  0  0  0
    6.5741   -2.7758   25.3263 C   0  0  0  0  0  0  0  0  0  0  0  0
    7.5397   -2.4361   25.6907 H   0  0  0  0  0  0  0  0  0  0  0  0
    8.5366   -2.1292   23.0981 C   0  0  0  0  0  0  0  0  0  0  0  0
    9.0199   -2.6662   23.9002 H   0  0  0  0  0  0  0  0  0  0  0  0
    9.4182   -1.5182   22.1082 C   0  0  0  0  0  0  0  0  0  0  0  0
   10.6329   -1.5961   22.1704 O   0  0  0  0  0  0  0  0  0  0  0  0
    8.7247   -0.8137   21.0351 C   0  0  0  0  0  0  0  0  0  0  0  0
    9.3457   -0.3321   20.2978 H   0  0  0  0  0  0  0  0  0  0  0  0
    5.3974    0.6280   20.1634 C   0  0  0  0  0  0  0  0  0  0  0  0
    4.9535    0.6195   21.1601 H   0  0  0  0  0  0  0  0  0  0  0  0
    4.7915    1.3033   19.1048 C   0  0  0  0  0  0  0  0  0  0  0  0
    3.8620    1.8509   19.2360 H   0  0  0  0  0  0  0  0  0  0  0  0
  1  2  1  0
  2  3  2  0
  3  4  1  0
  4  5  1  0
  4  6  2  0
  6  7  1  0
  7  8  1  0
  8  9  1  0
  9 10  1  0
 10 11  2  0
 11 12  1  0
 11 13  1  0
 13 14  1  0
 13 15  2  0
 15 16  1  0
 16 17  1  0
 17 18  1  0
 17 19  1  0
 17 20  1  0
 15 21  1  0
 21 22  1  0
 21 23  2  0
 23 24  1  0
  9 25  2  0
 25 26  1  0
 25 27  1  0
 27 28  2  0
 27 29  1  0
 29 30  1  0
  6 31  1  0
 31 32  1  0
 31 33  2  0
 33 34  1  0
 33  2  1  0
 29  7  2  0
 23 10  1  0
M  END
>  <cnnaffinity>  (1) 
-5.36757

>  <filename>  (1) 
O=c1cc(-c2ccc(OC(F)(F)F)cc2)oc(-c2cccnc2)c1

$$$$
