
     RDKit          3D

 36 39  0  0  0  0  0  0  0  0999 V2000
    4.9159    1.8019   16.9831 H   0  0  0  0  0  0  0  0  0  0  0  0
    5.3936    1.2992   17.8214 C   0  0  0  0  0  0  0  0  0  0  0  0
    6.5561    0.6846   17.5544 N   0  0  0  0  0  0  0  0  0  0  0  0
    7.1665    0.0653   18.5713 C   0  0  0  0  0  0  0  0  0  0  0  0
    8.1215   -0.4098   18.3386 H   0  0  0  0  0  0  0  0  0  0  0  0
    6.6677    0.0038   19.8826 C   0  0  0  0  0  0  0  0  0  0  0  0
    7.4151   -0.7180   20.9788 C   0  0  2  0  0  0  0  0  0  0  0  0
    8.3129   -1.1856   20.5486 H   0  0  0  0  0  0  0  0  0  0  0  0
    6.5828   -1.8433   21.6509 C   0  0  0  0  0  0  0  0  0  0  0  0
    5.5094   -1.7824   21.4043 H   0  0  0  0  0  0  0  0  0  0  0  0
    6.9068   -2.8433   21.3303 H   0  0  0  0  0  0  0  0  0  0  0  0
    6.8361   -1.6458   23.0586 N   0  0  0  0  0  0  0  0  0  0  0  0
    6.4047   -2.1346   23.8252 H   0  0  0  0  0  0  0  0  0  0  0  0
    7.4699   -0.4980   23.4145 C   0  0  0  0  0  0  0  0  0  0  0  0
    7.6280   -0.1642   24.5677 O   0  0  0  0  0  0  0  0  0  0  0  0
    7.8633    0.2359   22.1301 C   0  0  1  0  0  0  0  0  0  0  0  0
    7.2702    1.1586   22.1292 H   0  0  0  0  0  0  0  0  0  0  0  0
    9.3198    0.6329   22.0750 C   0  0  0  0  0  0  0  0  0  0  0  0
    9.7157    1.9418   21.7863 C   0  0  0  0  0  0  0  0  0  0  0  0
    8.9570    2.6995   21.6088 H   0  0  0  0  0  0  0  0  0  0  0  0
   11.0812    2.2965   21.7122 C   0  0  0  0  0  0  0  0  0  0  0  0
   11.3538    3.3268   21.4917 H   0  0  0  0  0  0  0  0  0  0  0  0
   12.0754    1.3472   21.9216 C   0  0  0  0  0  0  0  0  0  0  0  0
   13.1248    1.6191   21.8905 H   0  0  0  0  0  0  0  0  0  0  0  0
   11.6754    0.0252   22.1776 C   0  0  0  0  0  0  0  0  0  0  0  0
   10.3157   -0.3553   22.2547 C   0  0  0  0  0  0  0  0  0  0  0  0
   10.3048   -1.7789   22.5085 C   0  0  0  0  0  0  0  0  0  0  0  0
    9.4252   -2.3915   22.6585 H   0  0  0  0  0  0  0  0  0  0  0  0
   11.6017   -2.1877   22.5720 C   0  0  0  0  0  0  0  0  0  0  0  0
   12.0224   -3.1594   22.7970 H   0  0  0  0  0  0  0  0  0  0  0  0
   12.4285   -1.1029   22.3744 N   0  0  0  0  0  0  0  0  0  0  0  0
   13.4347   -1.1024   22.4066 H   0  0  0  0  0  0  0  0  0  0  0  0
    5.4477    0.6486   20.1359 C   0  0  0  0  0  0  0  0  0  0  0  0
    5.0162    0.6389   21.1404 H   0  0  0  0  0  0  0  0  0  0  0  0
    4.8050    1.3110   19.0903 C   0  0  0  0  0  0  0  0  0  0  0  0
    3.8742    1.8427   19.2468 H   0  0  0  0  0  0  0  0  0  0  0  0
  1  2  1  0
  2  3  2  0
  3  4  1  0
  4  5  1  0
  4  6  2  0
  6  7  1  0
  7  8  1  6
  7  9  1  0
  9 10  1  0
  9 11  1  0
  9 12  1  0
 12 13  1  0
 12 14  1  0
 14 15  2  0
 14 16  1  0
 16 17  1  6
 16 18  1  0
 18 19  2  0
 19 20  1  0
 19 21  1  0
 21 22  1  0
 21 23  2  0
 23 24  1  0
 23 25  1  0
 25 26  2  0
 26 27  1  0
 27 28  1  0
 27 29  2  0
 29 30  1  0
 29 31  1  0
 31 32  1  0
  6 33  1  0
 33 34  1  0
 33 35  2  0
 35 36  1  0
 35  2  1  0
 16  7  1  0
 26 18  1  0
 31 25  1  0
M  END
>  <cnnaffinity>  (1) 
-5.21665

>  <filename>  (1) 
O=C1NC[C@@H](c2cccnc2)[C@@H]1c1cccc2[nH]ccc12

$$$$
