
     RDKit          3D

 30 32  0  0  0  0  0  0  0  0999 V2000
    5.0050    1.7835   16.9681 H   0  0  0  0  0  0  0  0  0  0  0  0
    5.4787    1.2834   17.8097 C   0  0  0  0  0  0  0  0  0  0  0  0
    6.6384    0.6556   17.5588 N   0  0  0  0  0  0  0  0  0  0  0  0
    7.2411    0.0441   18.5904 C   0  0  0  0  0  0  0  0  0  0  0  0
    8.1637   -0.4797   18.3424 H   0  0  0  0  0  0  0  0  0  0  0  0
    6.7377    0.0160   19.9086 C   0  0  0  0  0  0  0  0  0  0  0  0
    7.4381   -0.6635   21.0366 C   0  0  0  0  0  0  0  0  0  0  0  0
    6.7034   -1.5477   21.8930 C   0  0  0  0  0  0  0  0  0  0  0  0
    5.6501   -1.7444   21.6787 H   0  0  0  0  0  0  0  0  0  0  0  0
    7.3208   -2.1886   22.9199 C   0  0  0  0  0  0  0  0  0  0  0  0
    6.8207   -2.9093   23.5483 H   0  0  0  0  0  0  0  0  0  0  0  0
    8.7336   -2.0036   23.2315 C   0  0  0  0  0  0  0  0  0  0  0  0
    9.2895   -2.5881   24.1428 O   0  0  0  0  0  0  0  0  0  0  0  0
    9.4256   -1.1084   22.3432 N   0  0  0  0  0  0  0  0  0  0  0  0
   10.8452   -0.8970   22.5156 C   0  0  0  0  0  0  0  0  0  0  0  0
   11.7765   -1.4383   21.6112 C   0  0  0  0  0  0  0  0  0  0  0  0
   11.4178   -2.0921   20.8234 H   0  0  0  0  0  0  0  0  0  0  0  0
   13.0934   -1.1968   21.6825 N   0  0  0  0  0  0  0  0  0  0  0  0
   13.5479   -0.4206   22.6736 C   0  0  0  0  0  0  0  0  0  0  0  0
   14.6107   -0.1816   22.6897 H   0  0  0  0  0  0  0  0  0  0  0  0
   12.7006    0.0931   23.6624 C   0  0  0  0  0  0  0  0  0  0  0  0
   13.2190    0.7754   24.6922 F   0  0  0  0  0  0  0  0  0  0  0  0
   11.3278   -0.1455   23.5976 C   0  0  0  0  0  0  0  0  0  0  0  0
   10.6804    0.2296   24.3820 H   0  0  0  0  0  0  0  0  0  0  0  0
    8.7722   -0.4825   21.2891 C   0  0  0  0  0  0  0  0  0  0  0  0
    9.3795    0.1766   20.6772 H   0  0  0  0  0  0  0  0  0  0  0  0
    5.5058    0.6529   20.1265 C   0  0  0  0  0  0  0  0  0  0  0  0
    5.0742    0.6430   21.1274 H   0  0  0  0  0  0  0  0  0  0  0  0
    4.8721    1.3047   19.0693 C   0  0  0  0  0  0  0  0  0  0  0  0
    3.9341    1.8274   19.2172 H   0  0  0  0  0  0  0  0  0  0  0  0
  1  2  1  0
  2  3  2  0
  3  4  1  0
  4  5  1  0
  4  6  2  0
  6  7  1  0
  7  8  1  0
  8  9  1  0
  8 10  2  0
 10 11  1  0
 10 12  1  0
 12 13  2  0
 12 14  1  0
 14 15  1  0
 15 16  2  0
 16 17  1  0
 16 18  1  0
 18 19  2  0
 19 20  1  0
 19 21  1  0
 21 22  1  0
 21 23  2  0
 23 24  1  0
 14 25  1  0
 25 26  1  0
  6 27  1  0
 27 28  1  0
 27 29  2  0
 29 30  1  0
 29  2  1  0
 25  7  2  0
 23 15  1  0
M  END
>  <cnnaffinity>  (1) 
-5.46293

>  <filename>  (1) 
O=c1ccc(-c2cccnc2)cn1-c1cncc(F)c1

$$$$
