
     RDKit          3D

 36 38  0  0  0  0  0  0  0  0999 V2000
    4.9550    1.9158   16.9243 H   0  0  0  0  0  0  0  0  0  0  0  0
    5.4167    1.3678   17.7459 C   0  0  0  0  0  0  0  0  0  0  0  0
    6.5784    0.7497   17.4803 N   0  0  0  0  0  0  0  0  0  0  0  0
    7.1712    0.0873   18.4838 C   0  0  0  0  0  0  0  0  0  0  0  0
    8.1087   -0.4070   18.2416 H   0  0  0  0  0  0  0  0  0  0  0  0
    6.6430   -0.0182   19.7890 C   0  0  0  0  0  0  0  0  0  0  0  0
    7.3444   -0.7353   20.8419 N   0  0  0  0  0  0  0  0  0  0  0  0
    8.6113   -0.3073   21.2048 C   0  0  0  0  0  0  0  0  0  0  0  0
    8.9919    0.5500   20.6561 H   0  0  0  0  0  0  0  0  0  0  0  0
    9.3189   -0.8950   22.2061 C   0  0  0  0  0  0  0  0  0  0  0  0
   10.3105   -0.5187   22.4321 H   0  0  0  0  0  0  0  0  0  0  0  0
    8.7602   -1.9768   22.9590 C   0  0  0  0  0  0  0  0  0  0  0  0
    9.5197   -2.5632   24.1537 C   0  0  0  0  0  0  0  0  0  0  0  0
   10.4925   -2.9399   23.8217 H   0  0  0  0  0  0  0  0  0  0  0  0
    8.9907   -3.4407   24.5383 H   0  0  0  0  0  0  0  0  0  0  0  0
    9.7477   -1.6565   25.2646 N   0  0  0  0  0  0  0  0  0  0  0  0
   10.6005   -1.1200   25.2476 H   0  0  0  0  0  0  0  0  0  0  0  0
    8.7218   -1.0420   25.9678 C   0  0  0  0  0  0  0  0  0  0  0  0
    7.4228   -1.5800   26.0382 C   0  0  0  0  0  0  0  0  0  0  0  0
    7.1733   -2.4842   25.4950 H   0  0  0  0  0  0  0  0  0  0  0  0
    6.4383   -0.9379   26.7942 C   0  0  0  0  0  0  0  0  0  0  0  0
    5.4457   -1.3742   26.8572 H   0  0  0  0  0  0  0  0  0  0  0  0
    6.7013    0.2535   27.4727 C   0  0  0  0  0  0  0  0  0  0  0  0
    5.9083    0.7395   28.0389 H   0  0  0  0  0  0  0  0  0  0  0  0
    7.9920    0.7903   27.4085 C   0  0  0  0  0  0  0  0  0  0  0  0
    8.2319    1.7176   27.9240 H   0  0  0  0  0  0  0  0  0  0  0  0
    8.9913    0.1404   26.6807 C   0  0  0  0  0  0  0  0  0  0  0  0
   10.0039    0.5306   26.6692 H   0  0  0  0  0  0  0  0  0  0  0  0
    7.5204   -2.4275   22.5944 C   0  0  0  0  0  0  0  0  0  0  0  0
    7.0228   -3.2466   23.0904 H   0  0  0  0  0  0  0  0  0  0  0  0
    6.7246   -1.8491   21.5222 C   0  0  0  0  0  0  0  0  0  0  0  0
    5.6300   -2.2834   21.2052 O   0  0  0  0  0  0  0  0  0  0  0  0
    5.4277    0.6290   20.0468 C   0  0  0  0  0  0  0  0  0  0  0  0
    4.9882    0.5887   21.0427 H   0  0  0  0  0  0  0  0  0  0  0  0
    4.8112    1.3348   19.0058 C   0  0  0  0  0  0  0  0  0  0  0  0
    3.8872    1.8776   19.1669 H   0  0  0  0  0  0  0  0  0  0  0  0
  1  2  1  0
  2  3  2  0
  3  4  1  0
  4  5  1  0
  4  6  2  0
  6  7  1  0
  7  8  1  0
  8  9  1  0
  8 10  2  0
 10 11  1  0
 10 12  1  0
 12 13  1  0
 13 14  1  0
 13 15  1  0
 13 16  1  0
 16 17  1  0
 16 18  1  0
 18 19  2  0
 19 20  1  0
 19 21  1  0
 21 22  1  0
 21 23  2  0
 23 24  1  0
 23 25  1  0
 25 26  1  0
 25 27  2  0
 27 28  1  0
 12 29  2  0
 29 30  1  0
 29 31  1  0
 31 32  2  0
  6 33  1  0
 33 34  1  0
 33 35  2  0
 35 36  1  0
 35  2  1  0
 31  7  1  0
 27 18  1  0
M  END
>  <cnnaffinity>  (1) 
-5.08849

>  <filename>  (1) 
O=c1cc(CNc2ccccc2)ccn1-c1cccnc1

$$$$
