
     RDKit          3D

 30 32  0  0  0  0  0  0  0  0999 V2000
    5.0549    2.1334   16.8977 H   0  0  0  0  0  0  0  0  0  0  0  0
    5.4572    1.4470   17.6390 C   0  0  0  0  0  0  0  0  0  0  0  0
    6.5596    0.7670   17.2808 N   0  0  0  0  0  0  0  0  0  0  0  0
    7.1020   -0.0558   18.1829 C   0  0  0  0  0  0  0  0  0  0  0  0
    7.9742   -0.6319   17.8722 H   0  0  0  0  0  0  0  0  0  0  0  0
    6.5654   -0.2587   19.4690 C   0  0  0  0  0  0  0  0  0  0  0  0
    7.2803   -1.0419   20.4152 N   0  0  0  0  0  0  0  0  0  0  0  0
    8.5998   -0.7809   20.8089 C   0  0  0  0  0  0  0  0  0  0  0  0
    9.1914    0.0135   20.3875 H   0  0  0  0  0  0  0  0  0  0  0  0
    8.8975   -1.6722   21.7735 C   0  0  0  0  0  0  0  0  0  0  0  0
    9.9642   -1.8922   22.5553 O   0  0  0  0  0  0  0  0  0  0  0  0
   11.0506   -1.0302   22.4413 C   0  0  0  0  0  0  0  0  0  0  0  0
   12.2892   -1.6174   22.1898 C   0  0  0  0  0  0  0  0  0  0  0  0
   12.3298   -2.6873   22.0585 H   0  0  0  0  0  0  0  0  0  0  0  0
   13.4550   -0.8526   22.2044 C   0  0  0  0  0  0  0  0  0  0  0  0
   14.4267   -1.2994   22.0116 H   0  0  0  0  0  0  0  0  0  0  0  0
   13.3583    0.5050   22.5082 C   0  0  0  0  0  0  0  0  0  0  0  0
   14.8098    1.4182   22.6796 Cl  0  0  0  0  0  0  0  0  0  0  0  0
   12.1240    1.1178   22.7286 C   0  0  0  0  0  0  0  0  0  0  0  0
   12.0947    2.1849   22.9364 H   0  0  0  0  0  0  0  0  0  0  0  0
   10.9537    0.3467   22.6809 C   0  0  0  0  0  0  0  0  0  0  0  0
    9.9868    0.8079   22.8553 H   0  0  0  0  0  0  0  0  0  0  0  0
    7.8207   -2.5091   21.9438 N   0  0  0  0  0  0  0  0  0  0  0  0
    7.6224   -3.1031   22.7263 H   0  0  0  0  0  0  0  0  0  0  0  0
    6.7524   -2.0848   21.1825 C   0  0  0  0  0  0  0  0  0  0  0  0
    5.6354   -2.5580   21.1855 O   0  0  0  0  0  0  0  0  0  0  0  0
    5.3639    0.3844   19.8006 C   0  0  0  0  0  0  0  0  0  0  0  0
    4.8804    0.1648   20.7521 H   0  0  0  0  0  0  0  0  0  0  0  0
    4.8165    1.2778   18.8726 C   0  0  0  0  0  0  0  0  0  0  0  0
    3.9313    1.8653   19.1018 H   0  0  0  0  0  0  0  0  0  0  0  0
  1  2  1  0
  2  3  2  0
  3  4  1  0
  4  5  1  0
  4  6  2  0
  6  7  1  0
  7  8  1  0
  8  9  1  0
  8 10  2  0
 10 11  1  0
 11 12  1  0
 12 13  2  0
 13 14  1  0
 13 15  1  0
 15 16  1  0
 15 17  2  0
 17 18  1  0
 17 19  1  0
 19 20  1  0
 19 21  2  0
 21 22  1  0
 10 23  1  0
 23 24  1  0
 23 25  1  0
 25 26  2  0
  6 27  1  0
 27 28  1  0
 27 29  2  0
 29 30  1  0
 29  2  1  0
 25  7  1  0
 21 12  1  0
M  END
>  <cnnaffinity>  (1) 
-5.29434

>  <filename>  (1) 
O=c1[nH]c(Oc2ccc(Cl)cc2)cn1-c1cccnc1

$$$$
