
     RDKit          3D

 41 43  0  0  0  0  0  0  0  0999 V2000
    4.9311    1.7801   17.0037 H   0  0  0  0  0  0  0  0  0  0  0  0
    5.4062    1.2863   17.8504 C   0  0  0  0  0  0  0  0  0  0  0  0
    6.5599    0.6564   17.5922 N   0  0  0  0  0  0  0  0  0  0  0  0
    7.1742    0.0397   18.6072 C   0  0  0  0  0  0  0  0  0  0  0  0
    8.1268   -0.4220   18.3726 H   0  0  0  0  0  0  0  0  0  0  0  0
    6.6672   -0.0130   19.9198 C   0  0  0  0  0  0  0  0  0  0  0  0
    7.3716   -0.6996   20.9634 N   0  0  0  0  0  0  0  0  0  0  0  0
    6.5652   -1.5119   21.7653 N   0  0  0  0  0  0  0  0  0  0  0  0
    7.0578   -2.0396   22.8345 C   0  0  0  0  0  0  0  0  0  0  0  0
    6.1948   -2.9632   23.6514 C   0  0  0  0  0  0  0  0  0  0  0  0
    6.6879   -3.1667   24.6088 H   0  0  0  0  0  0  0  0  0  0  0  0
    5.2700   -2.4528   23.9233 H   0  0  0  0  0  0  0  0  0  0  0  0
    5.8711   -4.2875   22.9425 C   0  0  0  0  0  0  0  0  0  0  0  0
    6.8076   -4.7898   22.6634 H   0  0  0  0  0  0  0  0  0  0  0  0
    5.3485   -4.0608   22.0057 H   0  0  0  0  0  0  0  0  0  0  0  0
    5.0148   -5.2434   23.7926 C   0  0  0  0  0  0  0  0  0  0  0  0
    4.9551   -6.2159   23.2860 H   0  0  0  0  0  0  0  0  0  0  0  0
    5.5261   -5.4351   24.7461 H   0  0  0  0  0  0  0  0  0  0  0  0
    3.6144   -4.7258   24.0604 C   0  0  0  0  0  0  0  0  0  0  0  0
    2.6209   -4.8405   23.0747 C   0  0  0  0  0  0  0  0  0  0  0  0
    2.8918   -5.2657   22.1095 H   0  0  0  0  0  0  0  0  0  0  0  0
    1.3312   -4.3368   23.2889 C   0  0  0  0  0  0  0  0  0  0  0  0
    0.6036   -4.3638   22.4807 H   0  0  0  0  0  0  0  0  0  0  0  0
    1.0319   -3.6775   24.4873 C   0  0  0  0  0  0  0  0  0  0  0  0
    0.0454   -3.2459   24.6419 H   0  0  0  0  0  0  0  0  0  0  0  0
    2.0119   -3.5559   25.4791 C   0  0  0  0  0  0  0  0  0  0  0  0
    1.7814   -3.0702   26.4249 H   0  0  0  0  0  0  0  0  0  0  0  0
    3.2922   -4.0788   25.2654 C   0  0  0  0  0  0  0  0  0  0  0  0
    4.0543   -3.9886   26.0391 H   0  0  0  0  0  0  0  0  0  0  0  0
    8.4777   -1.7758   23.2927 C   0  0  0  0  0  0  0  0  0  0  0  0
    8.4576   -0.9003   23.9569 H   0  0  0  0  0  0  0  0  0  0  0  0
    8.8435   -2.6139   23.8977 H   0  0  0  0  0  0  0  0  0  0  0  0
    9.3969   -1.5189   22.0969 C   0  0  0  0  0  0  0  0  0  0  0  0
    9.6119   -2.4455   21.5437 H   0  0  0  0  0  0  0  0  0  0  0  0
   10.3620   -1.1049   22.3913 H   0  0  0  0  0  0  0  0  0  0  0  0
    8.7704   -0.5426   21.1131 C   0  0  0  0  0  0  0  0  0  0  0  0
    9.4135    0.2691   20.4783 O   0  0  0  0  0  0  0  0  0  0  0  0
    5.4513    0.6335   20.1785 C   0  0  0  0  0  0  0  0  0  0  0  0
    5.0237    0.6037   21.1809 H   0  0  0  0  0  0  0  0  0  0  0  0
    4.8241    1.3031   19.1230 C   0  0  0  0  0  0  0  0  0  0  0  0
    3.8918    1.8331   19.2663 H   0  0  0  0  0  0  0  0  0  0  0  0
  1  2  1  0
  2  3  2  0
  3  4  1  0
  4  5  1  0
  4  6  2  0
  6  7  1  0
  7  8  1  0
  8  9  2  0
  9 10  1  0
 10 11  1  0
 10 12  1  0
 10 13  1  0
 13 14  1  0
 13 15  1  0
 13 16  1  0
 16 17  1  0
 16 18  1  0
 16 19  1  0
 19 20  2  0
 20 21  1  0
 20 22  1  0
 22 23  1  0
 22 24  2  0
 24 25  1  0
 24 26  1  0
 26 27  1  0
 26 28  2  0
 28 29  1  0
  9 30  1  0
 30 31  1  0
 30 32  1  0
 30 33  1  0
 33 34  1  0
 33 35  1  0
 33 36  1  0
 36 37  2  0
  6 38  1  0
 38 39  1  0
 38 40  2  0
 40 41  1  0
 40  2  1  0
 36  7  1  0
 28 19  1  0
M  END
>  <cnnaffinity>  (1) 
-5.39356

>  <filename>  (1) 
O=C1CCC(CCCc2ccccc2)=NN1c1cccnc1

$$$$
