
     RDKit          3D

 30 32  0  0  0  0  0  0  0  0999 V2000
    4.9197    1.7752   16.9995 H   0  0  0  0  0  0  0  0  0  0  0  0
    5.4055    1.2906   17.8427 C   0  0  0  0  0  0  0  0  0  0  0  0
    6.5701    0.6723   17.5881 N   0  0  0  0  0  0  0  0  0  0  0  0
    7.1711    0.0593   18.6128 C   0  0  0  0  0  0  0  0  0  0  0  0
    8.1149   -0.4307   18.3748 H   0  0  0  0  0  0  0  0  0  0  0  0
    6.6387    0.0052   19.9099 C   0  0  0  0  0  0  0  0  0  0  0  0
    7.3316   -0.7227   20.9972 C   0  0  0  0  0  0  0  0  0  0  0  0
    6.5725   -1.2973   21.9091 N   0  0  0  0  0  0  0  0  0  0  0  0
    7.1702   -1.9460   22.9630 N   0  0  0  0  0  0  0  0  0  0  0  0
    6.2894   -2.5376   23.9366 C   0  0  0  0  0  0  0  0  0  0  0  0
    5.2055   -3.3166   23.5077 C   0  0  0  0  0  0  0  0  0  0  0  0
    5.0231   -3.4463   22.4504 H   0  0  0  0  0  0  0  0  0  0  0  0
    4.3497   -3.8779   24.4574 C   0  0  0  0  0  0  0  0  0  0  0  0
    2.9862   -4.8107   23.9395 Cl  0  0  0  0  0  0  0  0  0  0  0  0
    4.5487   -3.6906   25.8233 C   0  0  0  0  0  0  0  0  0  0  0  0
    3.8809   -4.1245   26.5636 H   0  0  0  0  0  0  0  0  0  0  0  0
    5.6375   -2.9147   26.2135 C   0  0  0  0  0  0  0  0  0  0  0  0
    5.8485   -2.6451   27.9004 Cl  0  0  0  0  0  0  0  0  0  0  0  0
    6.5249   -2.3413   25.3037 C   0  0  0  0  0  0  0  0  0  0  0  0
    7.3597   -1.7494   25.6575 H   0  0  0  0  0  0  0  0  0  0  0  0
    8.5890   -2.1103   23.1189 C   0  0  0  0  0  0  0  0  0  0  0  0
    9.0916   -2.7486   24.0276 O   0  0  0  0  0  0  0  0  0  0  0  0
    9.3663   -1.4406   22.0740 C   0  0  0  0  0  0  0  0  0  0  0  0
   10.4405   -1.5374   22.1794 H   0  0  0  0  0  0  0  0  0  0  0  0
    8.7702   -0.7734   21.0518 C   0  0  0  0  0  0  0  0  0  0  0  0
    9.3591   -0.2536   20.2944 H   0  0  0  0  0  0  0  0  0  0  0  0
    5.4237    0.6549   20.1601 C   0  0  0  0  0  0  0  0  0  0  0  0
    5.0011    0.6243   21.1674 H   0  0  0  0  0  0  0  0  0  0  0  0
    4.8032    1.3172   19.1056 C   0  0  0  0  0  0  0  0  0  0  0  0
    3.8707    1.8478   19.2578 H   0  0  0  0  0  0  0  0  0  0  0  0
  1  2  1  0
  2  3  2  0
  3  4  1  0
  4  5  1  0
  4  6  2  0
  6  7  1  0
  7  8  2  0
  8  9  1  0
  9 10  1  0
 10 11  2  0
 11 12  1  0
 11 13  1  0
 13 14  1  0
 13 15  2  0
 15 16  1  0
 15 17  1  0
 17 18  1  0
 17 19  2  0
 19 20  1  0
  9 21  1  0
 21 22  2  0
 21 23  1  0
 23 24  1  0
 23 25  2  0
 25 26  1  0
  6 27  1  0
 27 28  1  0
 27 29  2  0
 29 30  1  0
 29  2  1  0
 25  7  1  0
 19 10  1  0
M  END
>  <cnnaffinity>  (1) 
-5.19078

>  <filename>  (1) 
O=c1ccc(-c2cccnc2)nn1-c1cc(Cl)cc(Cl)c1

$$$$
