
     RDKit          3D

 32 34  0  0  0  0  0  0  0  0999 V2000
    3.0562   -5.7341   25.5574 H   0  0  0  0  0  0  0  0  0  0  0  0
    3.8125   -5.4504   26.0833 O   0  0  0  0  0  0  0  0  0  0  0  0
    4.6071   -4.6777   25.2963 C   0  0  0  0  0  0  0  0  0  0  0  0
    4.2836   -4.4103   23.9668 C   0  0  0  0  0  0  0  0  0  0  0  0
    3.3626   -4.8296   23.5621 H   0  0  0  0  0  0  0  0  0  0  0  0
    5.1140   -3.6074   23.1757 C   0  0  0  0  0  0  0  0  0  0  0  0
    4.8397   -3.3898   22.1522 H   0  0  0  0  0  0  0  0  0  0  0  0
    6.2953   -3.0511   23.6844 C   0  0  0  0  0  0  0  0  0  0  0  0
    7.1861   -2.2033   22.8150 C   0  0  0  0  0  0  0  0  0  0  0  0
    6.5975   -1.5100   21.7707 N   0  0  0  0  0  0  0  0  0  0  0  0
    7.3220   -0.7387   20.9864 C   0  0  0  0  0  0  0  0  0  0  0  0
    6.6209   -0.0117   19.9093 C   0  0  0  0  0  0  0  0  0  0  0  0
    7.1471    0.0406   18.6064 C   0  0  0  0  0  0  0  0  0  0  0  0
    8.1112   -0.4198   18.3906 H   0  0  0  0  0  0  0  0  0  0  0  0
    6.5485    0.6625   17.5862 N   0  0  0  0  0  0  0  0  0  0  0  0
    5.3937    1.2931   17.8383 C   0  0  0  0  0  0  0  0  0  0  0  0
    4.9356    1.7948   16.9883 H   0  0  0  0  0  0  0  0  0  0  0  0
    4.7889    1.3178   19.0998 C   0  0  0  0  0  0  0  0  0  0  0  0
    3.8629    1.8643   19.2374 H   0  0  0  0  0  0  0  0  0  0  0  0
    5.4029    0.6426   20.1519 C   0  0  0  0  0  0  0  0  0  0  0  0
    4.9633    0.6355   21.1505 H   0  0  0  0  0  0  0  0  0  0  0  0
    8.8112   -0.5683   21.1789 C   0  0  0  0  0  0  0  0  0  0  0  0
    9.6127    0.1261   20.5745 O   0  0  0  0  0  0  0  0  0  0  0  0
    9.3053   -1.3349   22.2228 N   0  0  0  0  0  0  0  0  0  0  0  0
   10.3015   -1.1654   22.2993 H   0  0  0  0  0  0  0  0  0  0  0  0
    8.5407   -2.1314   23.0363 C   0  0  0  0  0  0  0  0  0  0  0  0
    9.0539   -2.6916   23.8076 H   0  0  0  0  0  0  0  0  0  0  0  0
    6.6109   -3.3242   25.0352 C   0  0  0  0  0  0  0  0  0  0  0  0
    7.4972   -2.9024   25.5037 H   0  0  0  0  0  0  0  0  0  0  0  0
    5.7958   -4.1197   25.8414 C   0  0  0  0  0  0  0  0  0  0  0  0
    6.1068   -4.3824   27.1424 O   0  0  0  0  0  0  0  0  0  0  0  0
    6.9409   -3.9460   27.3490 H   0  0  0  0  0  0  0  0  0  0  0  0
  1  2  1  0
  2  3  1  0
  3  4  2  0
  4  5  1  0
  4  6  1  0
  6  7  1  0
  6  8  2  0
  8  9  1  0
  9 10  1  0
 10 11  2  0
 11 12  1  0
 12 13  2  0
 13 14  1  0
 13 15  1  0
 15 16  2  0
 16 17  1  0
 16 18  1  0
 18 19  1  0
 18 20  2  0
 20 21  1  0
 11 22  1  0
 22 23  2  0
 22 24  1  0
 24 25  1  0
 24 26  1  0
 26 27  1  0
  8 28  1  0
 28 29  1  0
 28 30  2  0
 30 31  1  0
 31 32  1  0
 30  3  1  0
 26  9  2  0
 20 12  1  0
M  END
>  <cnnaffinity>  (1) 
-5.26285

>  <filename>  (1) 
O=c1[nH]cc(-c2ccc(O)c(O)c2)nc1-c1cccnc1

$$$$
