
     RDKit          3D

 31 33  0  0  0  0  0  0  0  0999 V2000
    7.8533   -5.6743   27.5418 H   0  0  0  0  0  0  0  0  0  0  0  0
    7.0398   -5.2001   27.3175 O   0  0  0  0  0  0  0  0  0  0  0  0
    7.2942   -4.4434   26.2165 C   0  0  0  0  0  0  0  0  0  0  0  0
    6.2334   -3.6872   25.7199 C   0  0  0  0  0  0  0  0  0  0  0  0
    5.2861   -3.7632   26.2465 H   0  0  0  0  0  0  0  0  0  0  0  0
    6.4017   -2.8781   24.5993 C   0  0  0  0  0  0  0  0  0  0  0  0
    5.5564   -2.2945   24.2505 H   0  0  0  0  0  0  0  0  0  0  0  0
    7.6357   -2.7998   23.9355 C   0  0  0  0  0  0  0  0  0  0  0  0
    7.7368   -1.9441   22.7483 C   0  0  0  0  0  0  0  0  0  0  0  0
    6.7694   -1.4475   21.9395 C   0  0  0  0  0  0  0  0  0  0  0  0
    5.7035   -1.6005   21.9549 H   0  0  0  0  0  0  0  0  0  0  0  0
    7.3577   -0.6769   20.9425 N   0  0  0  0  0  0  0  0  0  0  0  0
    6.6650    0.0052   19.9015 C   0  0  0  0  0  0  0  0  0  0  0  0
    7.1737    0.0544   18.5846 C   0  0  0  0  0  0  0  0  0  0  0  0
    8.1291   -0.4220   18.3716 H   0  0  0  0  0  0  0  0  0  0  0  0
    6.5541    0.6695   17.5711 N   0  0  0  0  0  0  0  0  0  0  0  0
    5.3943    1.2919   17.8377 C   0  0  0  0  0  0  0  0  0  0  0  0
    4.9183    1.7885   16.9967 H   0  0  0  0  0  0  0  0  0  0  0  0
    4.8104    1.3078   19.1077 C   0  0  0  0  0  0  0  0  0  0  0  0
    3.8799    1.8378   19.2637 H   0  0  0  0  0  0  0  0  0  0  0  0
    5.4468    0.6451   20.1599 C   0  0  0  0  0  0  0  0  0  0  0  0
    5.0248    0.6359   21.1647 H   0  0  0  0  0  0  0  0  0  0  0  0
    8.7490   -0.6793   21.1340 C   0  0  0  0  0  0  0  0  0  0  0  0
    9.6206   -0.1216   20.5007 O   0  0  0  0  0  0  0  0  0  0  0  0
    8.9395   -1.4782   22.2265 N   0  0  0  0  0  0  0  0  0  0  0  0
    9.8748   -1.5667   22.5699 H   0  0  0  0  0  0  0  0  0  0  0  0
    8.7079   -3.5701   24.4377 C   0  0  0  0  0  0  0  0  0  0  0  0
    9.6695   -3.5407   23.9315 H   0  0  0  0  0  0  0  0  0  0  0  0
    8.5545   -4.3813   25.5606 C   0  0  0  0  0  0  0  0  0  0  0  0
    9.5833   -5.1358   26.0707 O   0  0  0  0  0  0  0  0  0  0  0  0
   10.3678   -4.9902   25.5276 H   0  0  0  0  0  0  0  0  0  0  0  0
  1  2  1  0
  2  3  1  0
  3  4  2  0
  4  5  1  0
  4  6  1  0
  6  7  1  0
  6  8  2  0
  8  9  1  0
  9 10  2  0
 10 11  1  0
 10 12  1  0
 12 13  1  0
 13 14  2  0
 14 15  1  0
 14 16  1  0
 16 17  2  0
 17 18  1  0
 17 19  1  0
 19 20  1  0
 19 21  2  0
 21 22  1  0
 12 23  1  0
 23 24  2  0
 23 25  1  0
 25 26  1  0
  8 27  1  0
 27 28  1  0
 27 29  2  0
 29 30  1  0
 30 31  1  0
 29  3  1  0
 25  9  1  0
 21 13  1  0
M  END
>  <cnnaffinity>  (1) 
-5.31533

>  <filename>  (1) 
O=c1[nH]c(-c2ccc(O)c(O)c2)cn1-c1cccnc1

$$$$
