
     RDKit          3D

 30 32  0  0  0  0  0  0  0  0999 V2000
    4.9183    1.7746   17.0004 H   0  0  0  0  0  0  0  0  0  0  0  0
    5.4051    1.2905   17.8432 C   0  0  0  0  0  0  0  0  0  0  0  0
    6.5702    0.6730   17.5885 N   0  0  0  0  0  0  0  0  0  0  0  0
    7.1722    0.0594   18.6124 C   0  0  0  0  0  0  0  0  0  0  0  0
    8.1164   -0.4314   18.3752 H   0  0  0  0  0  0  0  0  0  0  0  0
    6.6401    0.0055   19.9094 C   0  0  0  0  0  0  0  0  0  0  0  0
    7.3319   -0.7218   20.9970 C   0  0  0  0  0  0  0  0  0  0  0  0
    6.5721   -1.2961   21.9083 N   0  0  0  0  0  0  0  0  0  0  0  0
    7.1680   -1.9460   22.9633 N   0  0  0  0  0  0  0  0  0  0  0  0
    6.2906   -2.5400   23.9421 C   0  0  0  0  0  0  0  0  0  0  0  0
    6.5285   -2.3457   25.3099 C   0  0  0  0  0  0  0  0  0  0  0  0
    7.3590   -1.7548   25.6707 H   0  0  0  0  0  0  0  0  0  0  0  0
    5.6441   -2.9208   26.2186 C   0  0  0  0  0  0  0  0  0  0  0  0
    5.8529   -2.7314   27.5276 F   0  0  0  0  0  0  0  0  0  0  0  0
    4.5505   -3.6895   25.8372 C   0  0  0  0  0  0  0  0  0  0  0  0
    3.8781   -4.1279   26.5676 H   0  0  0  0  0  0  0  0  0  0  0  0
    4.3615   -3.8656   24.4705 C   0  0  0  0  0  0  0  0  0  0  0  0
    3.3079   -4.5852   24.0649 F   0  0  0  0  0  0  0  0  0  0  0  0
    5.2075   -3.3164   23.5111 C   0  0  0  0  0  0  0  0  0  0  0  0
    5.0113   -3.4512   22.4562 H   0  0  0  0  0  0  0  0  0  0  0  0
    8.5847   -2.1089   23.1186 C   0  0  0  0  0  0  0  0  0  0  0  0
    9.0879   -2.7463   24.0275 O   0  0  0  0  0  0  0  0  0  0  0  0
    9.3640   -1.4397   22.0743 C   0  0  0  0  0  0  0  0  0  0  0  0
   10.4381   -1.5353   22.1789 H   0  0  0  0  0  0  0  0  0  0  0  0
    8.7703   -0.7721   21.0517 C   0  0  0  0  0  0  0  0  0  0  0  0
    9.3609   -0.2529   20.2955 H   0  0  0  0  0  0  0  0  0  0  0  0
    5.4250    0.6548   20.1597 C   0  0  0  0  0  0  0  0  0  0  0  0
    5.0020    0.6245   21.1663 H   0  0  0  0  0  0  0  0  0  0  0  0
    4.8034    1.3169   19.1062 C   0  0  0  0  0  0  0  0  0  0  0  0
    3.8708    1.8476   19.2588 H   0  0  0  0  0  0  0  0  0  0  0  0
  1  2  1  0
  2  3  2  0
  3  4  1  0
  4  5  1  0
  4  6  2  0
  6  7  1  0
  7  8  2  0
  8  9  1  0
  9 10  1  0
 10 11  2  0
 11 12  1  0
 11 13  1  0
 13 14  1  0
 13 15  2  0
 15 16  1  0
 15 17  1  0
 17 18  1  0
 17 19  2  0
 19 20  1  0
  9 21  1  0
 21 22  2  0
 21 23  1  0
 23 24  1  0
 23 25  2  0
 25 26  1  0
  6 27  1  0
 27 28  1  0
 27 29  2  0
 29 30  1  0
 29  2  1  0
 25  7  1  0
 19 10  1  0
M  END
>  <cnnaffinity>  (1) 
-5.09431

>  <filename>  (1) 
O=c1ccc(-c2cccnc2)nn1-c1cc(F)cc(F)c1

$$$$
