
     RDKit          3D

 31 33  0  0  0  0  0  0  0  0999 V2000
    4.9862    1.8400   16.8765 H   0  0  0  0  0  0  0  0  0  0  0  0
    5.4230    1.3371   17.7344 C   0  0  0  0  0  0  0  0  0  0  0  0
    6.5871    0.7070   17.5061 N   0  0  0  0  0  0  0  0  0  0  0  0
    7.1661    0.1121   18.5530 C   0  0  0  0  0  0  0  0  0  0  0  0
    8.1055   -0.4010   18.3487 H   0  0  0  0  0  0  0  0  0  0  0  0
    6.6408    0.1288   19.8586 C   0  0  0  0  0  0  0  0  0  0  0  0
    7.4141   -0.4481   20.9408 C   0  0  0  0  0  0  0  0  0  0  0  0
    8.4530   -1.3045   20.9161 C   0  0  0  0  0  0  0  0  0  0  0  0
    9.0217   -1.6900   20.0845 H   0  0  0  0  0  0  0  0  0  0  0  0
    8.8050   -1.6010   22.2254 N   0  0  0  0  0  0  0  0  0  0  0  0
    9.7419   -2.5820   22.5041 N   0  0  0  0  0  0  0  0  0  0  0  0
   10.6404   -2.5361   22.0310 H   0  0  0  0  0  0  0  0  0  0  0  0
    9.6009   -3.5251   23.5241 C   0  0  0  0  0  0  0  0  0  0  0  0
   10.7791   -3.9212   24.1757 C   0  0  0  0  0  0  0  0  0  0  0  0
   11.7243   -3.5058   23.8355 H   0  0  0  0  0  0  0  0  0  0  0  0
   10.7436   -4.8404   25.2235 C   0  0  0  0  0  0  0  0  0  0  0  0
   11.6467   -5.1141   25.7474 H   0  0  0  0  0  0  0  0  0  0  0  0
    9.5223   -5.3989   25.5855 C   0  0  0  0  0  0  0  0  0  0  0  0
    9.4598   -6.3059   26.5683 F   0  0  0  0  0  0  0  0  0  0  0  0
    8.3435   -5.0484   24.9382 C   0  0  0  0  0  0  0  0  0  0  0  0
    7.4258   -5.5067   25.2864 H   0  0  0  0  0  0  0  0  0  0  0  0
    8.3772   -4.1143   23.8942 C   0  0  0  0  0  0  0  0  0  0  0  0
    7.4608   -3.8261   23.3839 H   0  0  0  0  0  0  0  0  0  0  0  0
    7.9800   -0.8521   23.1216 C   0  0  0  0  0  0  0  0  0  0  0  0
    7.9686   -0.7737   24.3320 O   0  0  0  0  0  0  0  0  0  0  0  0
    7.1384   -0.1833   22.2734 N   0  0  0  0  0  0  0  0  0  0  0  0
    6.5551    0.5292   22.6725 H   0  0  0  0  0  0  0  0  0  0  0  0
    5.3796    0.7198   20.0588 C   0  0  0  0  0  0  0  0  0  0  0  0
    4.8856    0.6604   21.0328 H   0  0  0  0  0  0  0  0  0  0  0  0
    4.7711    1.3516   18.9775 C   0  0  0  0  0  0  0  0  0  0  0  0
    3.8130    1.8515   19.0879 H   0  0  0  0  0  0  0  0  0  0  0  0
  1  2  1  0
  2  3  2  0
  3  4  1  0
  4  5  1  0
  4  6  2  0
  6  7  1  0
  7  8  2  0
  8  9  1  0
  8 10  1  0
 10 11  1  0
 11 12  1  0
 11 13  1  0
 13 14  2  0
 14 15  1  0
 14 16  1  0
 16 17  1  0
 16 18  2  0
 18 19  1  0
 18 20  1  0
 20 21  1  0
 20 22  2  0
 22 23  1  0
 10 24  1  0
 24 25  2  0
 24 26  1  0
 26 27  1  0
  6 28  1  0
 28 29  1  0
 28 30  2  0
 30 31  1  0
 30  2  1  0
 26  7  1  0
 22 13  1  0
M  END
>  <cnnaffinity>  (1) 
-5.18725

>  <filename>  (1) 
O=c1[nH]c(-c2cccnc2)cn1Nc1ccc(F)cc1

$$$$
