
     RDKit          3D

 30 32  0  0  0  0  0  0  0  0999 V2000
    5.0858    1.7177   16.9276 H   0  0  0  0  0  0  0  0  0  0  0  0
    5.5531    1.2521   17.7914 C   0  0  0  0  0  0  0  0  0  0  0  0
    6.7308    0.6491   17.5686 N   0  0  0  0  0  0  0  0  0  0  0  0
    7.3447    0.0839   18.6151 C   0  0  0  0  0  0  0  0  0  0  0  0
    8.3141   -0.3767   18.4257 H   0  0  0  0  0  0  0  0  0  0  0  0
    6.7932    0.0493   19.9044 C   0  0  0  0  0  0  0  0  0  0  0  0
    7.4996   -0.6774   20.9887 C   0  0  0  0  0  0  0  0  0  0  0  0
    8.8013   -0.5855   21.0345 N   0  0  0  0  0  0  0  0  0  0  0  0
    9.4621   -1.2282   22.0556 N   0  0  0  0  0  0  0  0  0  0  0  0
   10.8728   -1.0169   22.0796 C   0  0  0  0  0  0  0  0  0  0  0  0
   11.7488   -2.0985   22.1208 C   0  0  0  0  0  0  0  0  0  0  0  0
   11.3463   -3.1004   22.1949 H   0  0  0  0  0  0  0  0  0  0  0  0
   13.1269   -1.8874   22.0927 C   0  0  0  0  0  0  0  0  0  0  0  0
   13.7962   -2.7370   22.0602 H   0  0  0  0  0  0  0  0  0  0  0  0
   13.6487   -0.6001   22.1967 C   0  0  0  0  0  0  0  0  0  0  0  0
   14.7180   -0.4605   22.3396 H   0  0  0  0  0  0  0  0  0  0  0  0
   12.7844    0.4972   22.1645 C   0  0  0  0  0  0  0  0  0  0  0  0
   13.1411    1.5206   22.1714 H   0  0  0  0  0  0  0  0  0  0  0  0
   11.4105    0.2828   22.0597 C   0  0  0  0  0  0  0  0  0  0  0  0
   10.6183    1.3559   21.9737 F   0  0  0  0  0  0  0  0  0  0  0  0
    8.8426   -2.0447   23.0642 C   0  0  0  0  0  0  0  0  0  0  0  0
    9.4806   -2.6198   23.9291 O   0  0  0  0  0  0  0  0  0  0  0  0
    7.3932   -2.0984   22.9418 C   0  0  0  0  0  0  0  0  0  0  0  0
    6.9012   -2.6835   23.7076 H   0  0  0  0  0  0  0  0  0  0  0  0
    6.7453   -1.4463   21.9406 C   0  0  0  0  0  0  0  0  0  0  0  0
    5.6706   -1.5060   21.8041 H   0  0  0  0  0  0  0  0  0  0  0  0
    5.5606    0.6814   20.1226 C   0  0  0  0  0  0  0  0  0  0  0  0
    5.1081    0.6977   21.1175 H   0  0  0  0  0  0  0  0  0  0  0  0
    4.9348    1.3016   19.0453 C   0  0  0  0  0  0  0  0  0  0  0  0
    3.9901    1.8176   19.1652 H   0  0  0  0  0  0  0  0  0  0  0  0
  1  2  1  0
  2  3  2  0
  3  4  1  0
  4  5  1  0
  4  6  2  0
  6  7  1  0
  7  8  2  0
  8  9  1  0
  9 10  1  0
 10 11  2  0
 11 12  1  0
 11 13  1  0
 13 14  1  0
 13 15  2  0
 15 16  1  0
 15 17  1  0
 17 18  1  0
 17 19  2  0
 19 20  1  0
  9 21  1  0
 21 22  2  0
 21 23  1  0
 23 24  1  0
 23 25  2  0
 25 26  1  0
  6 27  1  0
 27 28  1  0
 27 29  2  0
 29 30  1  0
 29  2  1  0
 25  7  1  0
 19 10  1  0
M  END
>  <cnnaffinity>  (1) 
-5.63735

>  <filename>  (1) 
O=c1ccc(-c2cccnc2)nn1-c1ccccc1F

$$$$
