
     RDKit          3D

 29 31  0  0  0  0  0  0  0  0999 V2000
   14.4822    0.0851   22.8684 H   0  0  0  0  0  0  0  0  0  0  0  0
   13.4324   -0.1389   22.6769 C   0  0  0  0  0  0  0  0  0  0  0  0
   12.5613    0.8650   22.7723 N   0  0  0  0  0  0  0  0  0  0  0  0
   11.2735    0.5729   22.5743 C   0  0  0  0  0  0  0  0  0  0  0  0
   10.5766    1.4161   22.6188 H   0  0  0  0  0  0  0  0  0  0  0  0
   10.8201   -0.7383   22.3577 C   0  0  0  0  0  0  0  0  0  0  0  0
    9.4130   -1.0656   22.2079 N   0  0  0  0  0  0  0  0  0  0  0  0
    8.7030   -0.4275   21.1993 C   0  0  0  0  0  0  0  0  0  0  0  0
    9.2841    0.2832   20.6121 H   0  0  0  0  0  0  0  0  0  0  0  0
    7.3932   -0.6681   20.9584 C   0  0  0  0  0  0  0  0  0  0  0  0
    6.6728    0.0438   19.8788 C   0  0  0  0  0  0  0  0  0  0  0  0
    7.1775    0.0999   18.5600 C   0  0  0  0  0  0  0  0  0  0  0  0
    8.1156   -0.4052   18.3224 H   0  0  0  0  0  0  0  0  0  0  0  0
    6.5531    0.6985   17.5391 N   0  0  0  0  0  0  0  0  0  0  0  0
    5.3878    1.3098   17.8111 C   0  0  0  0  0  0  0  0  0  0  0  0
    4.9071    1.8059   16.9698 H   0  0  0  0  0  0  0  0  0  0  0  0
    4.8001    1.3252   19.0811 C   0  0  0  0  0  0  0  0  0  0  0  0
    3.8645    1.8493   19.2348 H   0  0  0  0  0  0  0  0  0  0  0  0
    5.4435    0.6669   20.1292 C   0  0  0  0  0  0  0  0  0  0  0  0
    5.0229    0.6067   21.1333 H   0  0  0  0  0  0  0  0  0  0  0  0
    6.6968   -1.7007   21.7659 C   0  0  0  0  0  0  0  0  0  0  0  0
    5.5845   -2.1649   21.6369 O   0  0  0  0  0  0  0  0  0  0  0  0
    7.4661   -2.2277   22.7647 N   0  0  0  0  0  0  0  0  0  0  0  0
    7.0292   -2.9173   23.3320 H   0  0  0  0  0  0  0  0  0  0  0  0
    8.7673   -2.0222   23.0444 C   0  0  0  0  0  0  0  0  0  0  0  0
    9.2837   -2.6405   23.9449 O   0  0  0  0  0  0  0  0  0  0  0  0
   11.8295   -1.7098   22.2922 C   0  0  0  0  0  0  0  0  0  0  0  0
   11.5745   -2.7689   22.2050 H   0  0  0  0  0  0  0  0  0  0  0  0
   13.1260   -1.4033   22.3946 N   0  0  0  0  0  0  0  0  0  0  0  0
  1  2  1  0
  2  3  2  0
  3  4  1  0
  4  5  1  0
  4  6  2  0
  6  7  1  0
  7  8  1  0
  8  9  1  0
  8 10  2  0
 10 11  1  0
 11 12  2  0
 12 13  1  0
 12 14  1  0
 14 15  2  0
 15 16  1  0
 15 17  1  0
 17 18  1  0
 17 19  2  0
 19 20  1  0
 10 21  1  0
 21 22  2  0
 21 23  1  0
 23 24  1  0
 23 25  1  0
 25 26  2  0
  6 27  1  0
 27 28  1  0
 27 29  2  0
 29  2  1  0
 25  7  1  0
 19 11  1  0
M  END
>  <cnnaffinity>  (1) 
-5.01512

>  <filename>  (1) 
O=c1[nH]c(=O)n(-c2cncnc2)cc1-c1cccnc1

$$$$
