
     RDKit          3D

 26 28  0  0  0  0  0  0  0  0999 V2000
   14.2574   -1.0533   22.7214 H   0  0  0  0  0  0  0  0  0  0  0  0
   13.2494   -0.8309   22.3823 C   0  0  0  0  0  0  0  0  0  0  0  0
   12.8097    0.3604   22.1204 N   0  0  0  0  0  0  0  0  0  0  0  0
   11.4751    0.3018   21.8076 C   0  0  0  0  0  0  0  0  0  0  0  0
   10.9329    1.2143   21.5747 H   0  0  0  0  0  0  0  0  0  0  0  0
   10.8822   -0.9190   21.8779 C   0  0  0  0  0  0  0  0  0  0  0  0
    9.4373   -1.1881   21.8214 C   0  0  0  0  0  0  0  0  0  0  0  0
    8.7112   -0.6053   20.8113 N   0  0  0  0  0  0  0  0  0  0  0  0
    7.4021   -0.7940   20.7709 C   0  0  0  0  0  0  0  0  0  0  0  0
    6.6335   -0.0012   19.7931 C   0  0  0  0  0  0  0  0  0  0  0  0
    7.1846    0.1454   18.5076 C   0  0  0  0  0  0  0  0  0  0  0  0
    8.1591   -0.2861   18.2869 H   0  0  0  0  0  0  0  0  0  0  0  0
    6.5759    0.7797   17.5063 N   0  0  0  0  0  0  0  0  0  0  0  0
    5.3957    1.3590   17.7702 C   0  0  0  0  0  0  0  0  0  0  0  0
    4.9199    1.8612   16.9315 H   0  0  0  0  0  0  0  0  0  0  0  0
    4.7860    1.3282   19.0261 C   0  0  0  0  0  0  0  0  0  0  0  0
    3.8544    1.8605   19.1700 H   0  0  0  0  0  0  0  0  0  0  0  0
    5.4076    0.6347   20.0652 C   0  0  0  0  0  0  0  0  0  0  0  0
    4.9586    0.6128   21.0605 H   0  0  0  0  0  0  0  0  0  0  0  0
    6.6997   -1.7960   21.6871 C   0  0  0  0  0  0  0  0  0  0  0  0
    5.5831   -2.2794   21.6283 O   0  0  0  0  0  0  0  0  0  0  0  0
    7.5231   -2.2117   22.7391 N   0  0  0  0  0  0  0  0  0  0  0  0
    7.0315   -2.8139   23.3868 H   0  0  0  0  0  0  0  0  0  0  0  0
    8.8586   -1.9427   22.8160 C   0  0  0  0  0  0  0  0  0  0  0  0
    9.4263   -2.3349   23.6542 H   0  0  0  0  0  0  0  0  0  0  0  0
   12.0812   -2.0949   22.2737 S   0  0  0  0  0  0  0  0  0  0  0  0
  1  2  1  0
  2  3  2  0
  3  4  1  0
  4  5  1  0
  4  6  2  0
  6  7  1  0
  7  8  1  0
  8  9  2  0
  9 10  1  0
 10 11  2  0
 11 12  1  0
 11 13  1  0
 13 14  2  0
 14 15  1  0
 14 16  1  0
 16 17  1  0
 16 18  2  0
 18 19  1  0
  9 20  1  0
 20 21  2  0
 20 22  1  0
 22 23  1  0
 22 24  1  0
 24 25  1  0
  6 26  1  0
 26  2  1  0
 24  7  2  0
 18 10  1  0
M  END
>  <cnnaffinity>  (1) 
-5.38391

>  <filename>  (1) 
O=c1[nH]cc(-c2cncs2)nc1-c1cccnc1

$$$$
