
     RDKit          3D

 41 44  0  0  0  0  0  0  0  0999 V2000
    4.9336    1.8283   16.9392 H   0  0  0  0  0  0  0  0  0  0  0  0
    5.4033    1.3195   17.7783 C   0  0  0  0  0  0  0  0  0  0  0  0
    6.5672    0.7063   17.5131 N   0  0  0  0  0  0  0  0  0  0  0  0
    7.1725    0.0707   18.5234 C   0  0  0  0  0  0  0  0  0  0  0  0
    8.1233   -0.4128   18.2978 H   0  0  0  0  0  0  0  0  0  0  0  0
    6.6526   -0.0144   19.8344 C   0  0  0  0  0  0  0  0  0  0  0  0
    7.3361   -0.7556   20.9207 C   0  0  0  0  0  0  0  0  0  0  0  0
    6.6539   -1.6569   21.7226 C   0  0  0  0  0  0  0  0  0  0  0  0
    5.5843   -1.7968   21.5666 H   0  0  0  0  0  0  0  0  0  0  0  0
    7.2860   -2.4037   22.7680 C   0  0  0  0  0  0  0  0  0  0  0  0
    6.5293   -3.3935   23.6152 C   0  0  0  0  0  0  0  0  0  0  0  0
    6.8057   -3.4835   24.9937 C   0  0  0  0  0  0  0  0  0  0  0  0
    7.5330   -2.8113   25.4425 H   0  0  0  0  0  0  0  0  0  0  0  0
    6.1365   -4.4064   25.7997 C   0  0  0  0  0  0  0  0  0  0  0  0
    6.3714   -4.4824   26.8592 H   0  0  0  0  0  0  0  0  0  0  0  0
    5.1607   -5.2313   25.2465 C   0  0  0  0  0  0  0  0  0  0  0  0
    4.6513   -5.9585   25.8716 H   0  0  0  0  0  0  0  0  0  0  0  0
    4.8094   -5.1475   23.8852 C   0  0  0  0  0  0  0  0  0  0  0  0
    3.6528   -5.9847   23.4053 C   0  0  0  0  0  0  0  0  0  0  0  0
    2.5495   -6.2094   24.2630 C   0  0  0  0  0  0  0  0  0  0  0  0
    2.5470   -5.7402   25.2456 H   0  0  0  0  0  0  0  0  0  0  0  0
    1.4692   -6.9998   23.8695 C   0  0  0  0  0  0  0  0  0  0  0  0
    0.6367   -7.1581   24.5562 H   0  0  0  0  0  0  0  0  0  0  0  0
    1.4672   -7.5963   22.6039 C   0  0  0  0  0  0  0  0  0  0  0  0
    0.6370   -8.2220   22.2905 H   0  0  0  0  0  0  0  0  0  0  0  0
    2.5372   -7.3749   21.7382 C   0  0  0  0  0  0  0  0  0  0  0  0
    2.5376   -7.8357   20.7494 H   0  0  0  0  0  0  0  0  0  0  0  0
    3.6217   -6.5817   22.1334 C   0  0  0  0  0  0  0  0  0  0  0  0
    4.4551   -6.4534   21.4461 H   0  0  0  0  0  0  0  0  0  0  0  0
    5.5350   -4.2438   23.0790 C   0  0  0  0  0  0  0  0  0  0  0  0
    5.3298   -4.1946   22.0127 H   0  0  0  0  0  0  0  0  0  0  0  0
    8.6213   -2.1592   22.9901 C   0  0  0  0  0  0  0  0  0  0  0  0
    9.2086   -2.6701   23.7513 H   0  0  0  0  0  0  0  0  0  0  0  0
    9.2914   -1.2512   22.2269 N   0  0  0  0  0  0  0  0  0  0  0  0
   10.2581   -0.9778   22.3298 H   0  0  0  0  0  0  0  0  0  0  0  0
    8.7684   -0.4961   21.1812 C   0  0  0  0  0  0  0  0  0  0  0  0
    9.5460    0.2712   20.6384 O   0  0  0  0  0  0  0  0  0  0  0  0
    5.4325    0.6338   20.0793 C   0  0  0  0  0  0  0  0  0  0  0  0
    5.0154    0.6169   21.0871 H   0  0  0  0  0  0  0  0  0  0  0  0
    4.8004    1.3180   19.0406 C   0  0  0  0  0  0  0  0  0  0  0  0
    3.8647    1.8450   19.1943 H   0  0  0  0  0  0  0  0  0  0  0  0
  1  2  1  0
  2  3  2  0
  3  4  1  0
  4  5  1  0
  4  6  2  0
  6  7  1  0
  7  8  2  0
  8  9  1  0
  8 10  1  0
 10 11  1  0
 11 12  2  0
 12 13  1  0
 12 14  1  0
 14 15  1  0
 14 16  2  0
 16 17  1  0
 16 18  1  0
 18 19  1  0
 19 20  2  0
 20 21  1  0
 20 22  1  0
 22 23  1  0
 22 24  2  0
 24 25  1  0
 24 26  1  0
 26 27  1  0
 26 28  2  0
 28 29  1  0
 18 30  2  0
 30 31  1  0
 10 32  2  0
 32 33  1  0
 32 34  1  0
 34 35  1  0
 34 36  1  0
 36 37  2  0
  6 38  1  0
 38 39  1  0
 38 40  2  0
 40 41  1  0
 40  2  1  0
 36  7  1  0
 30 11  1  0
 28 19  1  0
M  END
>  <cnnaffinity>  (1) 
-5.49467

>  <filename>  (1) 
O=c1[nH]cc(-c2cccc(-c3ccccc3)c2)cc1-c1cccnc1

$$$$
