
     RDKit          3D

 28 30  0  0  0  0  0  0  0  0999 V2000
    4.9343    1.7931   16.9974 H   0  0  0  0  0  0  0  0  0  0  0  0
    5.4203    1.3117   17.8468 C   0  0  0  0  0  0  0  0  0  0  0  0
    6.6001    0.7134   17.6097 N   0  0  0  0  0  0  0  0  0  0  0  0
    7.1967    0.0706   18.6239 C   0  0  0  0  0  0  0  0  0  0  0  0
    8.1566   -0.3973   18.4079 H   0  0  0  0  0  0  0  0  0  0  0  0
    6.6483   -0.0047   19.9244 C   0  0  0  0  0  0  0  0  0  0  0  0
    7.2908   -0.7014   21.0049 N   0  0  0  0  0  0  0  0  0  0  0  0
    7.7207   -0.1791   22.2621 C   0  0  0  0  0  0  0  0  0  0  0  0
    7.4590    1.1835   22.7899 C   0  0  0  0  0  0  0  0  0  0  0  0
    7.6677    2.3410   22.0179 C   0  0  0  0  0  0  0  0  0  0  0  0
    7.9911    2.2261   20.9884 H   0  0  0  0  0  0  0  0  0  0  0  0
    7.4123    3.6088   22.5475 C   0  0  0  0  0  0  0  0  0  0  0  0
    7.5766    4.4939   21.9396 H   0  0  0  0  0  0  0  0  0  0  0  0
    6.9407    3.7541   23.8555 C   0  0  0  0  0  0  0  0  0  0  0  0
    6.7413    4.7309   24.2875 H   0  0  0  0  0  0  0  0  0  0  0  0
    6.7200    2.6062   24.6171 C   0  0  0  0  0  0  0  0  0  0  0  0
    6.1214    2.7767   26.2418 Cl  0  0  0  0  0  0  0  0  0  0  0  0
    6.9708    1.3324   24.1069 C   0  0  0  0  0  0  0  0  0  0  0  0
    6.7377    0.4682   24.7230 H   0  0  0  0  0  0  0  0  0  0  0  0
    8.2288   -1.2235   22.9317 C   0  0  0  0  0  0  0  0  0  0  0  0
    8.7215   -1.2854   23.9005 H   0  0  0  0  0  0  0  0  0  0  0  0
    8.0319   -2.3868   22.2289 O   0  0  0  0  0  0  0  0  0  0  0  0
    7.2918   -2.0967   21.1081 C   0  0  0  0  0  0  0  0  0  0  0  0
    6.7448   -2.9110   20.4162 O   0  0  0  0  0  0  0  0  0  0  0  0
    5.4315    0.6393   20.1574 C   0  0  0  0  0  0  0  0  0  0  0  0
    5.0333    0.6407   21.1716 H   0  0  0  0  0  0  0  0  0  0  0  0
    4.8038    1.3067   19.1026 C   0  0  0  0  0  0  0  0  0  0  0  0
    3.8511    1.8058   19.2439 H   0  0  0  0  0  0  0  0  0  0  0  0
  1  2  1  0
  2  3  2  0
  3  4  1  0
  4  5  1  0
  4  6  2  0
  6  7  1  0
  7  8  1  0
  8  9  1  0
  9 10  2  0
 10 11  1  0
 10 12  1  0
 12 13  1  0
 12 14  2  0
 14 15  1  0
 14 16  1  0
 16 17  1  0
 16 18  2  0
 18 19  1  0
  8 20  2  0
 20 21  1  0
 20 22  1  0
 22 23  1  0
 23 24  2  0
  6 25  1  0
 25 26  1  0
 25 27  2  0
 27 28  1  0
 27  2  1  0
 23  7  1  0
 18  9  1  0
M  END
>  <cnnaffinity>  (1) 
-4.98855

>  <filename>  (1) 
O=c1occ(-c2cccc(Cl)c2)n1-c1cccnc1

$$$$
