
     RDKit          3D

 37 39  0  0  0  0  0  0  0  0999 V2000
    5.6069   -6.7832   25.6154 H   0  0  0  0  0  0  0  0  0  0  0  0
    5.6811   -6.5084   24.6931 O   0  0  0  0  0  0  0  0  0  0  0  0
    4.8435   -5.3865   24.4996 C   0  0  0  0  0  0  0  0  0  0  0  0
    3.8183   -5.6013   24.8508 H   0  0  0  0  0  0  0  0  0  0  0  0
    4.8064   -5.1329   22.9968 C   0  0  0  0  0  0  0  0  0  0  0  0
    4.4998   -6.0477   22.4802 H   0  0  0  0  0  0  0  0  0  0  0  0
    4.0572   -4.3577   22.7996 H   0  0  0  0  0  0  0  0  0  0  0  0
    6.1603   -4.6569   22.4656 C   0  0  0  0  0  0  0  0  0  0  0  0
    6.8965   -5.4820   22.4949 H   0  0  0  0  0  0  0  0  0  0  0  0
    6.0600   -4.3652   21.4149 H   0  0  0  0  0  0  0  0  0  0  0  0
    6.5971   -3.4864   23.2241 N   0  0  0  0  0  0  0  0  0  0  0  0
    7.3194   -2.4524   22.5861 C   0  0  0  0  0  0  0  0  0  0  0  0
    8.6512   -2.0720   22.9723 C   0  0  0  0  0  0  0  0  0  0  0  0
    9.1243   -2.6506   23.7674 H   0  0  0  0  0  0  0  0  0  0  0  0
    9.2928   -1.0365   22.3563 C   0  0  0  0  0  0  0  0  0  0  0  0
   10.2912   -0.7090   22.6052 H   0  0  0  0  0  0  0  0  0  0  0  0
    8.6831   -0.2570   21.2855 C   0  0  0  0  0  0  0  0  0  0  0  0
    9.2395    0.6674   20.7156 O   0  0  0  0  0  0  0  0  0  0  0  0
    7.3552   -0.6840   20.9315 N   0  0  0  0  0  0  0  0  0  0  0  0
    6.6393   -0.0093   19.8835 C   0  0  0  0  0  0  0  0  0  0  0  0
    7.1525    0.0468   18.5769 C   0  0  0  0  0  0  0  0  0  0  0  0
    8.1149   -0.4153   18.3655 H   0  0  0  0  0  0  0  0  0  0  0  0
    6.5422    0.6704   17.5643 N   0  0  0  0  0  0  0  0  0  0  0  0
    5.3858    1.3006   17.8287 C   0  0  0  0  0  0  0  0  0  0  0  0
    4.9194    1.8026   16.9826 H   0  0  0  0  0  0  0  0  0  0  0  0
    4.7990    1.3146   19.0984 C   0  0  0  0  0  0  0  0  0  0  0  0
    3.8714    1.8504   19.2500 H   0  0  0  0  0  0  0  0  0  0  0  0
    5.4280    0.6335   20.1473 C   0  0  0  0  0  0  0  0  0  0  0  0
    5.0294    0.6211   21.1643 H   0  0  0  0  0  0  0  0  0  0  0  0
    6.7309   -1.7356   21.5759 C   0  0  0  0  0  0  0  0  0  0  0  0
    5.7241   -1.9671   21.2604 H   0  0  0  0  0  0  0  0  0  0  0  0
    6.7388   -3.7142   24.6585 C   0  0  0  0  0  0  0  0  0  0  0  0
    7.5249   -4.4542   24.9009 H   0  0  0  0  0  0  0  0  0  0  0  0
    7.0343   -2.7625   25.1132 H   0  0  0  0  0  0  0  0  0  0  0  0
    5.3951   -4.1669   25.2409 C   0  0  0  0  0  0  0  0  0  0  0  0
    4.6759   -3.3450   25.1461 H   0  0  0  0  0  0  0  0  0  0  0  0
    5.5137   -4.3937   26.3073 H   0  0  0  0  0  0  0  0  0  0  0  0
  1  2  1  0
  2  3  1  0
  3  4  1  0
  3  5  1  0
  5  6  1  0
  5  7  1  0
  5  8  1  0
  8  9  1  0
  8 10  1  0
  8 11  1  0
 11 12  1  0
 12 13  1  0
 13 14  1  0
 13 15  2  0
 15 16  1  0
 15 17  1  0
 17 18  2  0
 17 19  1  0
 19 20  1  0
 20 21  2  0
 21 22  1  0
 21 23  1  0
 23 24  2  0
 24 25  1  0
 24 26  1  0
 26 27  1  0
 26 28  2  0
 28 29  1  0
 19 30  1  0
 30 31  1  0
 11 32  1  0
 32 33  1  0
 32 34  1  0
 32 35  1  0
 35 36  1  0
 35 37  1  0
 35  3  1  0
 30 12  2  0
 28 20  1  0
M  END
>  <cnnaffinity>  (1) 
-5.1525

>  <filename>  (1) 
O=c1ccc(N2CCC(O)CC2)cn1-c1cccnc1

$$$$
