
     RDKit          3D

 33 35  0  0  0  0  0  0  0  0999 V2000
    4.9760    1.9373   16.9189 H   0  0  0  0  0  0  0  0  0  0  0  0
    5.4618    1.3770   17.7143 C   0  0  0  0  0  0  0  0  0  0  0  0
    6.6190    0.7731   17.3988 N   0  0  0  0  0  0  0  0  0  0  0  0
    7.2398    0.0839   18.3641 C   0  0  0  0  0  0  0  0  0  0  0  0
    8.1722   -0.4077   18.0918 H   0  0  0  0  0  0  0  0  0  0  0  0
    6.7354   -0.0602   19.6730 C   0  0  0  0  0  0  0  0  0  0  0  0
    7.4402   -0.8148   20.6534 N   0  0  0  0  0  0  0  0  0  0  0  0
    8.8242   -0.7568   20.9266 C   0  0  0  0  0  0  0  0  0  0  0  0
    9.4668   -0.0069   20.4962 H   0  0  0  0  0  0  0  0  0  0  0  0
    9.0734   -1.6885   21.8708 C   0  0  0  0  0  0  0  0  0  0  0  0
   10.2431   -2.1167   22.4464 N   0  0  0  0  0  0  0  0  0  0  0  0
   10.9239   -1.3676   22.4102 H   0  0  0  0  0  0  0  0  0  0  0  0
   10.1966   -2.7914   23.7440 C   0  0  0  0  0  0  0  0  0  0  0  0
    9.5278   -3.6586   23.6733 H   0  0  0  0  0  0  0  0  0  0  0  0
   11.1957   -3.2093   23.9009 H   0  0  0  0  0  0  0  0  0  0  0  0
    9.8097   -1.8912   24.9220 C   0  0  0  0  0  0  0  0  0  0  0  0
    8.8976   -2.2699   25.9237 C   0  0  0  0  0  0  0  0  0  0  0  0
    8.3881   -3.2277   25.9274 H   0  0  0  0  0  0  0  0  0  0  0  0
    8.6259   -1.3850   26.9748 C   0  0  0  0  0  0  0  0  0  0  0  0
    7.9114   -1.6602   27.7443 H   0  0  0  0  0  0  0  0  0  0  0  0
    9.1884   -0.1832   27.1044 N   0  0  0  0  0  0  0  0  0  0  0  0
   10.0585    0.1789   26.1571 C   0  0  0  0  0  0  0  0  0  0  0  0
   10.5095    1.1620   26.2697 H   0  0  0  0  0  0  0  0  0  0  0  0
   10.3980   -0.6204   25.0672 C   0  0  0  0  0  0  0  0  0  0  0  0
   11.1230   -0.2326   24.3583 H   0  0  0  0  0  0  0  0  0  0  0  0
    7.9036   -2.3298   22.1779 N   0  0  0  0  0  0  0  0  0  0  0  0
    7.7105   -2.7369   23.0720 H   0  0  0  0  0  0  0  0  0  0  0  0
    6.8504   -1.7760   21.4864 C   0  0  0  0  0  0  0  0  0  0  0  0
    5.6942   -2.1085   21.6056 O   0  0  0  0  0  0  0  0  0  0  0  0
    5.5150    0.5553   19.9833 C   0  0  0  0  0  0  0  0  0  0  0  0
    5.0906    0.4352   20.9795 H   0  0  0  0  0  0  0  0  0  0  0  0
    4.8807    1.2989   18.9848 C   0  0  0  0  0  0  0  0  0  0  0  0
    3.9453    1.8077   19.1831 H   0  0  0  0  0  0  0  0  0  0  0  0
  1  2  1  0
  2  3  2  0
  3  4  1  0
  4  5  1  0
  4  6  2  0
  6  7  1  0
  7  8  1  0
  8  9  1  0
  8 10  2  0
 10 11  1  0
 11 12  1  0
 11 13  1  0
 13 14  1  0
 13 15  1  0
 13 16  1  0
 16 17  2  0
 17 18  1  0
 17 19  1  0
 19 20  1  0
 19 21  2  0
 21 22  1  0
 22 23  1  0
 22 24  2  0
 24 25  1  0
 10 26  1  0
 26 27  1  0
 26 28  1  0
 28 29  2  0
  6 30  1  0
 30 31  1  0
 30 32  2  0
 32 33  1  0
 32  2  1  0
 28  7  1  0
 24 16  1  0
M  END
>  <cnnaffinity>  (1) 
-4.89379

>  <filename>  (1) 
O=c1[nH]c(NCc2ccncc2)cn1-c1cccnc1

$$$$
