
     RDKit          3D

 38 40  0  0  0  0  0  0  0  0999 V2000
    5.2344    2.0443   16.9593 H   0  0  0  0  0  0  0  0  0  0  0  0
    5.6063    1.3852   17.7413 C   0  0  0  0  0  0  0  0  0  0  0  0
    6.7947    0.7984   17.5111 N   0  0  0  0  0  0  0  0  0  0  0  0
    7.2988    0.0177   18.4697 C   0  0  0  0  0  0  0  0  0  0  0  0
    8.2816   -0.4104   18.2920 H   0  0  0  0  0  0  0  0  0  0  0  0
    6.6228   -0.2584   19.6741 C   0  0  0  0  0  0  0  0  0  0  0  0
    7.2740   -1.0133   20.6983 N   0  0  0  0  0  0  0  0  0  0  0  0
    8.5798   -0.6639   20.8982 N   0  0  0  0  0  0  0  0  0  0  0  0
    9.1997   -1.0922   21.9630 C   0  0  0  0  0  0  0  0  0  0  0  0
   10.6028   -0.5384   22.2093 C   0  0  0  0  0  0  0  0  0  0  0  0
   10.9205   -0.1035   21.2534 H   0  0  0  0  0  0  0  0  0  0  0  0
   11.2934   -1.3654   22.4432 H   0  0  0  0  0  0  0  0  0  0  0  0
   10.6456    0.5257   23.2270 N   0  0  0  0  0  0  0  0  0  0  0  0
   10.5936    0.1653   24.1754 H   0  0  0  0  0  0  0  0  0  0  0  0
   11.6959    1.5351   23.1639 C   0  0  0  0  0  0  0  0  0  0  0  0
   12.6665    1.1580   23.5495 H   0  0  0  0  0  0  0  0  0  0  0  0
   11.9229    2.1297   21.7630 C   0  0  0  0  0  0  0  0  0  0  0  0
   10.9519    2.1230   21.2519 H   0  0  0  0  0  0  0  0  0  0  0  0
   12.6327    1.5365   21.1910 H   0  0  0  0  0  0  0  0  0  0  0  0
   12.4164    3.5840   21.9685 C   0  0  0  0  0  0  0  0  0  0  0  0
   13.4442    3.7370   21.6261 H   0  0  0  0  0  0  0  0  0  0  0  0
   11.8001    4.2838   21.4049 H   0  0  0  0  0  0  0  0  0  0  0  0
   12.3047    3.8308   23.4872 C   0  0  0  0  0  0  0  0  0  0  0  0
   13.2863    3.6357   23.9216 H   0  0  0  0  0  0  0  0  0  0  0  0
   12.0305    4.8553   23.7541 H   0  0  0  0  0  0  0  0  0  0  0  0
   11.3033    2.7767   23.9587 C   0  0  0  0  0  0  0  0  0  0  0  0
   10.2935    3.0695   23.6429 H   0  0  0  0  0  0  0  0  0  0  0  0
   11.2823    2.5917   25.0348 H   0  0  0  0  0  0  0  0  0  0  0  0
    8.5905   -2.0507   22.8601 C   0  0  0  0  0  0  0  0  0  0  0  0
    9.1458   -2.4107   23.7243 H   0  0  0  0  0  0  0  0  0  0  0  0
    7.3323   -2.4938   22.6034 C   0  0  0  0  0  0  0  0  0  0  0  0
    6.7940   -3.2137   23.2080 H   0  0  0  0  0  0  0  0  0  0  0  0
    6.5711   -2.0125   21.4576 C   0  0  0  0  0  0  0  0  0  0  0  0
    5.4596   -2.4128   21.1623 O   0  0  0  0  0  0  0  0  0  0  0  0
    5.3661    0.3117   19.8857 C   0  0  0  0  0  0  0  0  0  0  0  0
    4.8123    0.0939   20.7953 H   0  0  0  0  0  0  0  0  0  0  0  0
    4.8668    1.1750   18.9069 C   0  0  0  0  0  0  0  0  0  0  0  0
    3.9268    1.6969   19.0434 H   0  0  0  0  0  0  0  0  0  0  0  0
  1  2  1  0
  2  3  2  0
  3  4  1  0
  4  5  1  0
  4  6  2  0
  6  7  1  0
  7  8  1  0
  8  9  2  0
  9 10  1  0
 10 11  1  0
 10 12  1  0
 10 13  1  0
 13 14  1  0
 13 15  1  0
 15 16  1  0
 15 17  1  0
 17 18  1  0
 17 19  1  0
 17 20  1  0
 20 21  1  0
 20 22  1  0
 20 23  1  0
 23 24  1  0
 23 25  1  0
 23 26  1  0
 26 27  1  0
 26 28  1  0
  9 29  1  0
 29 30  1  0
 29 31  2  0
 31 32  1  0
 31 33  1  0
 33 34  2  0
  6 35  1  0
 35 36  1  0
 35 37  2  0
 37 38  1  0
 37  2  1  0
 33  7  1  0
 26 15  1  0
M  END
>  <cnnaffinity>  (1) 
-5.00538

>  <filename>  (1) 
O=c1ccc(CNC2CCCC2)nn1-c1cccnc1

$$$$
