
     RDKit          3D

 29 31  0  0  0  0  0  0  0  0999 V2000
    4.9804    1.8610   16.8185 H   0  0  0  0  0  0  0  0  0  0  0  0
    5.4150    1.3403   17.6665 C   0  0  0  0  0  0  0  0  0  0  0  0
    6.5787    0.7094   17.4360 N   0  0  0  0  0  0  0  0  0  0  0  0
    7.1440    0.0783   18.4732 C   0  0  0  0  0  0  0  0  0  0  0  0
    8.0925   -0.4087   18.2586 H   0  0  0  0  0  0  0  0  0  0  0  0
    6.5970    0.0382   19.7729 C   0  0  0  0  0  0  0  0  0  0  0  0
    7.2641   -0.6321   20.8884 C   0  0  0  0  0  0  0  0  0  0  0  0
    7.0914   -0.4836   22.2221 C   0  0  0  0  0  0  0  0  0  0  0  0
    6.4167    0.1532   22.7719 H   0  0  0  0  0  0  0  0  0  0  0  0
    7.9492   -1.3630   22.8908 N   0  0  0  0  0  0  0  0  0  0  0  0
    8.2440   -1.3327   24.2868 C   0  0  0  0  0  0  0  0  0  0  0  0
    8.2555   -0.0845   24.9278 C   0  0  0  0  0  0  0  0  0  0  0  0
    7.9417    0.7958   24.3774 H   0  0  0  0  0  0  0  0  0  0  0  0
    8.6624    0.0398   26.2566 C   0  0  0  0  0  0  0  0  0  0  0  0
    8.7028    1.0022   26.7601 H   0  0  0  0  0  0  0  0  0  0  0  0
    9.0290   -1.1104   26.9504 C   0  0  0  0  0  0  0  0  0  0  0  0
    9.4559   -1.0026   28.2169 F   0  0  0  0  0  0  0  0  0  0  0  0
    8.9435   -2.3745   26.3734 C   0  0  0  0  0  0  0  0  0  0  0  0
    9.2048   -3.2401   26.9796 H   0  0  0  0  0  0  0  0  0  0  0  0
    8.5461   -2.4876   25.0328 C   0  0  0  0  0  0  0  0  0  0  0  0
    8.4723   -3.4611   24.5635 H   0  0  0  0  0  0  0  0  0  0  0  0
    8.6340   -2.1298   21.9456 C   0  0  0  0  0  0  0  0  0  0  0  0
    9.3403   -3.1027   22.0913 O   0  0  0  0  0  0  0  0  0  0  0  0
    8.2792   -1.5736   20.7337 N   0  0  0  0  0  0  0  0  0  0  0  0
    8.4286   -2.1739   19.9434 H   0  0  0  0  0  0  0  0  0  0  0  0
    5.3686    0.6955   19.9790 C   0  0  0  0  0  0  0  0  0  0  0  0
    4.8899    0.6833   20.9603 H   0  0  0  0  0  0  0  0  0  0  0  0
    4.7695    1.3538   18.9085 C   0  0  0  0  0  0  0  0  0  0  0  0
    3.8298    1.8839   19.0237 H   0  0  0  0  0  0  0  0  0  0  0  0
  1  2  1  0
  2  3  2  0
  3  4  1  0
  4  5  1  0
  4  6  2  0
  6  7  1  0
  7  8  2  0
  8  9  1  0
  8 10  1  0
 10 11  1  0
 11 12  2  0
 12 13  1  0
 12 14  1  0
 14 15  1  0
 14 16  2  0
 16 17  1  0
 16 18  1  0
 18 19  1  0
 18 20  2  0
 20 21  1  0
 10 22  1  0
 22 23  2  0
 22 24  1  0
 24 25  1  0
  6 26  1  0
 26 27  1  0
 26 28  2  0
 28 29  1  0
 28  2  1  0
 24  7  1  0
 20 11  1  0
M  END
>  <cnnaffinity>  (1) 
-5.32557

>  <filename>  (1) 
O=c1[nH]c(-c2cccnc2)cn1-c1ccc(F)cc1

$$$$
