
     RDKit          3D

 33 35  0  0  0  0  0  0  0  0999 V2000
    4.9136    1.7795   16.9961 H   0  0  0  0  0  0  0  0  0  0  0  0
    5.4017    1.2945   17.8390 C   0  0  0  0  0  0  0  0  0  0  0  0
    6.5661    0.6766   17.5790 N   0  0  0  0  0  0  0  0  0  0  0  0
    7.1774    0.0627   18.5991 C   0  0  0  0  0  0  0  0  0  0  0  0
    8.1168   -0.4371   18.3761 H   0  0  0  0  0  0  0  0  0  0  0  0
    6.6609    0.0058   19.9060 C   0  0  0  0  0  0  0  0  0  0  0  0
    7.3438   -0.6924   20.9491 N   0  0  0  0  0  0  0  0  0  0  0  0
    6.5580   -1.4289   21.7980 N   0  0  0  0  0  0  0  0  0  0  0  0
    7.1265   -2.0776   22.7869 C   0  0  0  0  0  0  0  0  0  0  0  0
    6.2404   -2.8528   23.7057 C   0  0  0  0  0  0  0  0  0  0  0  0
    6.4608   -2.8825   25.1008 C   0  0  0  0  0  0  0  0  0  0  0  0
    7.2930   -2.3382   25.5364 H   0  0  0  0  0  0  0  0  0  0  0  0
    5.6256   -3.6176   25.9319 C   0  0  0  0  0  0  0  0  0  0  0  0
    5.7939   -3.6152   27.0073 H   0  0  0  0  0  0  0  0  0  0  0  0
    4.5631   -4.3528   25.3814 C   0  0  0  0  0  0  0  0  0  0  0  0
    3.6114   -5.1045   26.2843 C   0  0  0  0  0  0  0  0  0  0  0  0
    3.0569   -6.1721   25.6774 F   0  0  0  0  0  0  0  0  0  0  0  0
    2.5901   -4.3202   26.6832 F   0  0  0  0  0  0  0  0  0  0  0  0
    4.2059   -5.5581   27.4034 F   0  0  0  0  0  0  0  0  0  0  0  0
    4.3327   -4.3243   23.9965 C   0  0  0  0  0  0  0  0  0  0  0  0
    3.4898   -4.8544   23.5617 H   0  0  0  0  0  0  0  0  0  0  0  0
    5.1735   -3.5885   23.1697 C   0  0  0  0  0  0  0  0  0  0  0  0
    5.0073   -3.5565   22.0995 H   0  0  0  0  0  0  0  0  0  0  0  0
    8.6152   -2.0891   23.0209 C   0  0  0  0  0  0  0  0  0  0  0  0
    9.1796   -2.7258   23.9063 O   0  0  0  0  0  0  0  0  0  0  0  0
    9.3620   -1.2591   22.0851 C   0  0  0  0  0  0  0  0  0  0  0  0
   10.4364   -1.2200   22.2162 H   0  0  0  0  0  0  0  0  0  0  0  0
    8.7163   -0.6092   21.1065 C   0  0  0  0  0  0  0  0  0  0  0  0
    9.2384    0.0349   20.3950 H   0  0  0  0  0  0  0  0  0  0  0  0
    5.4409    0.6464   20.1654 C   0  0  0  0  0  0  0  0  0  0  0  0
    5.0258    0.6054   21.1740 H   0  0  0  0  0  0  0  0  0  0  0  0
    4.8108    1.3126   19.1101 C   0  0  0  0  0  0  0  0  0  0  0  0
    3.8762    1.8428   19.2635 H   0  0  0  0  0  0  0  0  0  0  0  0
  1  2  1  0
  2  3  2  0
  3  4  1  0
  4  5  1  0
  4  6  2  0
  6  7  1  0
  7  8  1  0
  8  9  2  0
  9 10  1  0
 10 11  2  0
 11 12  1  0
 11 13  1  0
 13 14  1  0
 13 15  2  0
 15 16  1  0
 16 17  1  0
 16 18  1  0
 16 19  1  0
 15 20  1  0
 20 21  1  0
 20 22  2  0
 22 23  1  0
  9 24  1  0
 24 25  2  0
 24 26  1  0
 26 27  1  0
 26 28  2  0
 28 29  1  0
  6 30  1  0
 30 31  1  0
 30 32  2  0
 32 33  1  0
 32  2  1  0
 28  7  1  0
 22 10  1  0
M  END
>  <cnnaffinity>  (1) 
-5.30316

>  <filename>  (1) 
O=c1ccn(-c2cccnc2)nc1-c1ccc(C(F)(F)F)cc1

$$$$
