
     RDKit          3D

 32 34  0  0  0  0  0  0  0  0999 V2000
   13.6303   -3.1314   21.7883 H   0  0  0  0  0  0  0  0  0  0  0  0
   14.0979   -2.2996   21.9342 O   0  0  0  0  0  0  0  0  0  0  0  0
   13.1430   -1.3707   22.1952 C   0  0  0  0  0  0  0  0  0  0  0  0
   13.5453   -0.0661   22.5003 C   0  0  0  0  0  0  0  0  0  0  0  0
   14.6072    0.1588   22.5409 H   0  0  0  0  0  0  0  0  0  0  0  0
   12.5636    0.8947   22.7540 C   0  0  0  0  0  0  0  0  0  0  0  0
   12.8524    1.8982   23.0563 H   0  0  0  0  0  0  0  0  0  0  0  0
   11.2054    0.5748   22.6420 C   0  0  0  0  0  0  0  0  0  0  0  0
   10.4329    1.3214   22.7973 H   0  0  0  0  0  0  0  0  0  0  0  0
   10.8285   -0.7363   22.3421 C   0  0  0  0  0  0  0  0  0  0  0  0
    9.4344   -1.0448   22.1865 N   0  0  0  0  0  0  0  0  0  0  0  0
    8.7023   -0.4304   21.1765 C   0  0  0  0  0  0  0  0  0  0  0  0
    9.2516    0.3163   20.6081 H   0  0  0  0  0  0  0  0  0  0  0  0
    7.4107   -0.7264   20.9091 C   0  0  0  0  0  0  0  0  0  0  0  0
    6.6737   -0.0046   19.8174 C   0  0  0  0  0  0  0  0  0  0  0  0
    7.1866    0.1174   18.4986 C   0  0  0  0  0  0  0  0  0  0  0  0
    8.1318   -0.3485   18.2251 H   0  0  0  0  0  0  0  0  0  0  0  0
    6.5773    0.7588   17.4916 N   0  0  0  0  0  0  0  0  0  0  0  0
    5.4052    1.3551   17.7605 C   0  0  0  0  0  0  0  0  0  0  0  0
    4.9238    1.8758   16.9296 H   0  0  0  0  0  0  0  0  0  0  0  0
    4.8096    1.3204   19.0231 C   0  0  0  0  0  0  0  0  0  0  0  0
    3.8734    1.8437   19.1767 H   0  0  0  0  0  0  0  0  0  0  0  0
    5.4431    0.6290   20.0631 C   0  0  0  0  0  0  0  0  0  0  0  0
    5.0052    0.5949   21.0619 H   0  0  0  0  0  0  0  0  0  0  0  0
    6.7807   -1.7911   21.7439 C   0  0  0  0  0  0  0  0  0  0  0  0
    5.7349   -2.3775   21.5669 O   0  0  0  0  0  0  0  0  0  0  0  0
    7.5257   -2.1631   22.8436 N   0  0  0  0  0  0  0  0  0  0  0  0
    7.1621   -2.9446   23.3484 H   0  0  0  0  0  0  0  0  0  0  0  0
    8.8621   -2.0149   23.0137 C   0  0  0  0  0  0  0  0  0  0  0  0
    9.4427   -2.6877   23.8330 O   0  0  0  0  0  0  0  0  0  0  0  0
   11.7920   -1.7268   22.1747 C   0  0  0  0  0  0  0  0  0  0  0  0
   11.4904   -2.7625   22.0867 H   0  0  0  0  0  0  0  0  0  0  0  0
  1  2  1  0
  2  3  1  0
  3  4  2  0
  4  5  1  0
  4  6  1  0
  6  7  1  0
  6  8  2  0
  8  9  1  0
  8 10  1  0
 10 11  1  0
 11 12  1  0
 12 13  1  0
 12 14  2  0
 14 15  1  0
 15 16  2  0
 16 17  1  0
 16 18  1  0
 18 19  2  0
 19 20  1  0
 19 21  1  0
 21 22  1  0
 21 23  2  0
 23 24  1  0
 14 25  1  0
 25 26  2  0
 25 27  1  0
 27 28  1  0
 27 29  1  0
 29 30  2  0
 10 31  2  0
 31 32  1  0
 31  3  1  0
 29 11  1  0
 23 15  1  0
M  END
>  <cnnaffinity>  (1) 
-5.87115

>  <filename>  (1) 
O=c1[nH]c(=O)n(-c2cccc(O)c2)cc1-c1cccnc1

$$$$
