
     RDKit          3D

 36 38  0  0  0  0  0  0  0  0999 V2000
    4.8400    1.9489   16.7906 H   0  0  0  0  0  0  0  0  0  0  0  0
    5.3220    1.5441   17.6753 C   0  0  0  0  0  0  0  0  0  0  0  0
    6.5213    0.9715   17.4859 N   0  0  0  0  0  0  0  0  0  0  0  0
    7.1216    0.4471   18.5575 C   0  0  0  0  0  0  0  0  0  0  0  0
    8.1112    0.0303   18.3642 H   0  0  0  0  0  0  0  0  0  0  0  0
    6.5672    0.4383   19.8543 C   0  0  0  0  0  0  0  0  0  0  0  0
    7.2218   -0.3449   20.9227 C   0  0  0  0  0  0  0  0  0  0  0  0
    6.8674   -0.0195   22.2062 O   0  0  0  0  0  0  0  0  0  0  0  0
    7.3118   -0.7807   23.2670 C   0  0  0  0  0  0  0  0  0  0  0  0
    7.1450   -0.0867   24.6124 C   0  0  0  0  0  0  0  0  0  0  0  0
    6.4067    0.7122   24.4632 H   0  0  0  0  0  0  0  0  0  0  0  0
    6.6302   -1.0036   25.7549 C   0  0  0  0  0  0  0  0  0  0  0  0
    7.2450   -1.9125   25.8227 H   0  0  0  0  0  0  0  0  0  0  0  0
    5.6149   -1.3376   25.5174 H   0  0  0  0  0  0  0  0  0  0  0  0
    6.6248   -0.3166   27.1378 C   0  0  0  0  0  0  0  0  0  0  0  0
    5.8582    0.4751   27.1633 H   0  0  0  0  0  0  0  0  0  0  0  0
    6.3402   -1.0429   27.9109 H   0  0  0  0  0  0  0  0  0  0  0  0
    7.9852    0.3099   27.4851 C   0  0  0  0  0  0  0  0  0  0  0  0
    8.7463   -0.4813   27.6002 H   0  0  0  0  0  0  0  0  0  0  0  0
    7.9319    0.8296   28.4528 H   0  0  0  0  0  0  0  0  0  0  0  0
    8.4169    1.2829   26.3757 C   0  0  0  0  0  0  0  0  0  0  0  0
    7.6838    2.1048   26.3218 H   0  0  0  0  0  0  0  0  0  0  0  0
    9.3865    1.7392   26.6078 H   0  0  0  0  0  0  0  0  0  0  0  0
    8.4969    0.5754   25.0155 C   0  0  0  0  0  0  0  0  0  0  0  0
    8.8022    1.2812   24.2321 H   0  0  0  0  0  0  0  0  0  0  0  0
    9.2792   -0.2014   25.0718 H   0  0  0  0  0  0  0  0  0  0  0  0
    7.9233   -1.9636   23.0500 C   0  0  0  0  0  0  0  0  0  0  0  0
    8.1706   -2.6572   23.8380 H   0  0  0  0  0  0  0  0  0  0  0  0
    8.3215   -2.3712   21.6992 C   0  0  0  0  0  0  0  0  0  0  0  0
    8.8619   -3.4369   21.4450 O   0  0  0  0  0  0  0  0  0  0  0  0
    8.0021   -1.4110   20.6664 C   0  0  0  0  0  0  0  0  0  0  0  0
    8.2985   -1.6469   19.6633 H   0  0  0  0  0  0  0  0  0  0  0  0
    5.3269    1.0752   20.0358 C   0  0  0  0  0  0  0  0  0  0  0  0
    4.8892    1.1127   21.0333 H   0  0  0  0  0  0  0  0  0  0  0  0
    4.6934    1.6281   18.9240 C   0  0  0  0  0  0  0  0  0  0  0  0
    3.7346    2.1277   19.0182 H   0  0  0  0  0  0  0  0  0  0  0  0
  1  2  1  0
  2  3  2  0
  3  4  1  0
  4  5  1  0
  4  6  2  0
  6  7  1  0
  7  8  1  0
  8  9  1  0
  9 10  1  0
 10 11  1  0
 10 12  1  0
 12 13  1  0
 12 14  1  0
 12 15  1  0
 15 16  1  0
 15 17  1  0
 15 18  1  0
 18 19  1  0
 18 20  1  0
 18 21  1  0
 21 22  1  0
 21 23  1  0
 21 24  1  0
 24 25  1  0
 24 26  1  0
  9 27  2  0
 27 28  1  0
 27 29  1  0
 29 30  2  0
 29 31  1  0
 31 32  1  0
  6 33  1  0
 33 34  1  0
 33 35  2  0
 35 36  1  0
 35  2  1  0
 31  7  2  0
 24 10  1  0
M  END
>  <cnnaffinity>  (1) 
-5.00988

>  <filename>  (1) 
O=c1cc(-c2cccnc2)oc(C2CCCCC2)c1

$$$$
