
     RDKit          3D

 35 38  0  0  0  0  0  0  0  0999 V2000
    4.9131    1.7752   17.0008 H   0  0  0  0  0  0  0  0  0  0  0  0
    5.4036    1.2898   17.8431 C   0  0  0  0  0  0  0  0  0  0  0  0
    6.5707    0.6730   17.5804 N   0  0  0  0  0  0  0  0  0  0  0  0
    7.1999    0.0749   18.6007 C   0  0  0  0  0  0  0  0  0  0  0  0
    8.1401   -0.4274   18.3888 H   0  0  0  0  0  0  0  0  0  0  0  0
    6.6820    0.0314   19.9066 C   0  0  0  0  0  0  0  0  0  0  0  0
    7.3902   -0.6555   20.9508 N   0  0  0  0  0  0  0  0  0  0  0  0
    8.7238   -0.3346   21.0722 N   0  0  0  0  0  0  0  0  0  0  0  0
    9.4229   -0.9098   22.0325 C   0  0  0  0  0  0  0  0  0  0  0  0
   10.8533   -0.5392   22.1743 C   0  0  0  0  0  0  0  0  0  0  0  0
   11.8157   -1.5262   22.1905 C   0  0  0  0  0  0  0  0  0  0  0  0
   11.5372   -2.5772   22.1407 H   0  0  0  0  0  0  0  0  0  0  0  0
   13.1551   -1.2974   22.2523 N   0  0  0  0  0  0  0  0  0  0  0  0
   13.5529   -0.0441   22.3251 C   0  0  0  0  0  0  0  0  0  0  0  0
   14.6254    0.1496   22.3658 H   0  0  0  0  0  0  0  0  0  0  0  0
   12.6728    1.0768   22.3527 C   0  0  0  0  0  0  0  0  0  0  0  0
   13.1407    2.4229   22.4456 C   0  0  0  0  0  0  0  0  0  0  0  0
   14.2124    2.6164   22.4770 H   0  0  0  0  0  0  0  0  0  0  0  0
   12.2489    3.4659   22.4750 C   0  0  0  0  0  0  0  0  0  0  0  0
   12.6014    4.4913   22.5290 H   0  0  0  0  0  0  0  0  0  0  0  0
   10.8520    3.2146   22.4513 C   0  0  0  0  0  0  0  0  0  0  0  0
   10.1518    4.0424   22.4908 H   0  0  0  0  0  0  0  0  0  0  0  0
   10.3731    1.9290   22.3712 C   0  0  0  0  0  0  0  0  0  0  0  0
    9.3066    1.7331   22.3580 H   0  0  0  0  0  0  0  0  0  0  0  0
   11.2712    0.8224   22.2881 C   0  0  0  0  0  0  0  0  0  0  0  0
    8.8420   -1.9014   22.8974 C   0  0  0  0  0  0  0  0  0  0  0  0
    9.4512   -2.3450   23.6857 H   0  0  0  0  0  0  0  0  0  0  0  0
    7.5313   -2.2398   22.7587 C   0  0  0  0  0  0  0  0  0  0  0  0
    7.0244   -2.9822   23.3620 H   0  0  0  0  0  0  0  0  0  0  0  0
    6.6920   -1.6488   21.7281 C   0  0  0  0  0  0  0  0  0  0  0  0
    5.5392   -1.9727   21.4967 O   0  0  0  0  0  0  0  0  0  0  0  0
    5.4505    0.6475   20.1662 C   0  0  0  0  0  0  0  0  0  0  0  0
    5.0133    0.6147   21.1638 H   0  0  0  0  0  0  0  0  0  0  0  0
    4.8134    1.3098   19.1120 C   0  0  0  0  0  0  0  0  0  0  0  0
    3.8766    1.8409   19.2647 H   0  0  0  0  0  0  0  0  0  0  0  0
  1  2  1  0
  2  3  2  0
  3  4  1  0
  4  5  1  0
  4  6  2  0
  6  7  1  0
  7  8  1  0
  8  9  2  0
  9 10  1  0
 10 11  2  0
 11 12  1  0
 11 13  1  0
 13 14  2  0
 14 15  1  0
 14 16  1  0
 16 17  2  0
 17 18  1  0
 17 19  1  0
 19 20  1  0
 19 21  2  0
 21 22  1  0
 21 23  1  0
 23 24  1  0
 23 25  2  0
  9 26  1  0
 26 27  1  0
 26 28  2  0
 28 29  1  0
 28 30  1  0
 30 31  2  0
  6 32  1  0
 32 33  1  0
 32 34  2  0
 34 35  1  0
 34  2  1  0
 30  7  1  0
 25 10  1  0
 25 16  1  0
M  END
>  <cnnaffinity>  (1) 
-5.65714

>  <filename>  (1) 
O=c1ccc(-c2cncc3ccccc23)nn1-c1cccnc1

$$$$
