
     RDKit          3D

 34 37  0  0  0  0  0  0  0  0999 V2000
    5.0323    1.8038   16.9753 H   0  0  0  0  0  0  0  0  0  0  0  0
    5.4937    1.2982   17.8192 C   0  0  0  0  0  0  0  0  0  0  0  0
    6.6966    0.7380   17.5903 N   0  0  0  0  0  0  0  0  0  0  0  0
    7.2822    0.1186   18.6180 C   0  0  0  0  0  0  0  0  0  0  0  0
    8.2706   -0.3045   18.4637 H   0  0  0  0  0  0  0  0  0  0  0  0
    6.6861   -0.0235   19.8818 C   0  0  0  0  0  0  0  0  0  0  0  0
    7.3918   -0.7414   20.8916 N   0  0  0  0  0  0  0  0  0  0  0  0
    8.7145   -0.3871   20.9895 N   0  0  0  0  0  0  0  0  0  0  0  0
    9.4346   -0.9184   21.9485 C   0  0  0  0  0  0  0  0  0  0  0  0
   10.8678   -0.5100   22.0277 C   0  0  0  0  0  0  0  0  0  0  0  0
   11.8664   -1.4844   22.1549 C   0  0  0  0  0  0  0  0  0  0  0  0
   11.5983   -2.5374   22.1464 H   0  0  0  0  0  0  0  0  0  0  0  0
   13.2288   -1.1353   22.2521 C   0  0  0  0  0  0  0  0  0  0  0  0
   13.9833   -1.9196   22.2811 H   0  0  0  0  0  0  0  0  0  0  0  0
   13.6268    0.1956   22.2837 C   0  0  0  0  0  0  0  0  0  0  0  0
   14.6710    0.4863   22.3597 H   0  0  0  0  0  0  0  0  0  0  0  0
   12.6303    1.1710   22.1442 C   0  0  0  0  0  0  0  0  0  0  0  0
   11.2601    0.8548   21.9453 C   0  0  0  0  0  0  0  0  0  0  0  0
   10.5972    2.1115   21.6863 C   0  0  0  0  0  0  0  0  0  0  0  0
    9.5607    2.2263   21.3810 H   0  0  0  0  0  0  0  0  0  0  0  0
   11.5333    3.0970   21.8017 C   0  0  0  0  0  0  0  0  0  0  0  0
   11.4222    4.1733   21.7392 H   0  0  0  0  0  0  0  0  0  0  0  0
   12.7613    2.5404   22.0977 N   0  0  0  0  0  0  0  0  0  0  0  0
   13.6573    2.9898   21.9608 H   0  0  0  0  0  0  0  0  0  0  0  0
    8.8669   -1.8735   22.8718 C   0  0  0  0  0  0  0  0  0  0  0  0
    9.4868   -2.2613   23.6805 H   0  0  0  0  0  0  0  0  0  0  0  0
    7.5703   -2.2653   22.7400 C   0  0  0  0  0  0  0  0  0  0  0  0
    7.0731   -2.9655   23.4007 H   0  0  0  0  0  0  0  0  0  0  0  0
    6.7340   -1.7773   21.6496 C   0  0  0  0  0  0  0  0  0  0  0  0
    5.6176   -2.1899   21.3858 O   0  0  0  0  0  0  0  0  0  0  0  0
    5.4531    0.5856   20.1262 C   0  0  0  0  0  0  0  0  0  0  0  0
    4.9905    0.5288   21.1114 H   0  0  0  0  0  0  0  0  0  0  0  0
    4.8528    1.2684   19.0631 C   0  0  0  0  0  0  0  0  0  0  0  0
    3.9109    1.7914   19.1938 H   0  0  0  0  0  0  0  0  0  0  0  0
  1  2  1  0
  2  3  2  0
  3  4  1  0
  4  5  1  0
  4  6  2  0
  6  7  1  0
  7  8  1  0
  8  9  2  0
  9 10  1  0
 10 11  2  0
 11 12  1  0
 11 13  1  0
 13 14  1  0
 13 15  2  0
 15 16  1  0
 15 17  1  0
 17 18  2  0
 18 19  1  0
 19 20  1  0
 19 21  2  0
 21 22  1  0
 21 23  1  0
 23 24  1  0
  9 25  1  0
 25 26  1  0
 25 27  2  0
 27 28  1  0
 27 29  1  0
 29 30  2  0
  6 31  1  0
 31 32  1  0
 31 33  2  0
 33 34  1  0
 33  2  1  0
 29  7  1  0
 18 10  1  0
 23 17  1  0
M  END
>  <cnnaffinity>  (1) 
-6.05456

>  <filename>  (1) 
O=c1ccc(-c2cccc3[nH]ccc23)nn1-c1cccnc1

$$$$
