
     RDKit          3D

 34 36  0  0  0  0  0  0  0  0999 V2000
    4.9557    1.8474   16.8344 H   0  0  0  0  0  0  0  0  0  0  0  0
    5.4163    1.3415   17.6838 C   0  0  0  0  0  0  0  0  0  0  0  0
    6.5859    0.7279   17.4469 N   0  0  0  0  0  0  0  0  0  0  0  0
    7.1929    0.1382   18.4862 C   0  0  0  0  0  0  0  0  0  0  0  0
    8.1475   -0.3375   18.2743 H   0  0  0  0  0  0  0  0  0  0  0  0
    6.6816    0.1005   19.8079 C   0  0  0  0  0  0  0  0  0  0  0  0
    7.3928   -0.5440   20.9507 C   0  0  0  0  0  0  0  0  0  0  0  0
    6.7110   -1.2280   21.9035 C   0  0  0  0  0  0  0  0  0  0  0  0
    5.6285   -1.3398   21.8445 H   0  0  0  0  0  0  0  0  0  0  0  0
    7.3314   -1.8253   22.9859 N   0  0  0  0  0  0  0  0  0  0  0  0
    6.6446   -2.8462   23.8042 C   0  0  0  0  0  0  0  0  0  0  0  0
    6.8678   -2.6510   24.8563 H   0  0  0  0  0  0  0  0  0  0  0  0
    5.5640   -2.7315   23.6757 H   0  0  0  0  0  0  0  0  0  0  0  0
    7.0956   -4.2544   23.4360 C   0  0  0  0  0  0  0  0  0  0  0  0
    8.1638   -4.8552   24.1319 C   0  0  0  0  0  0  0  0  0  0  0  0
    8.6417   -4.2937   24.9332 H   0  0  0  0  0  0  0  0  0  0  0  0
    8.6299   -6.1236   23.7719 C   0  0  0  0  0  0  0  0  0  0  0  0
    9.4469   -6.5874   24.3191 H   0  0  0  0  0  0  0  0  0  0  0  0
    8.0636   -6.7943   22.6850 C   0  0  0  0  0  0  0  0  0  0  0  0
    8.4391   -7.7792   22.4108 H   0  0  0  0  0  0  0  0  0  0  0  0
    7.0220   -6.2113   21.9642 C   0  0  0  0  0  0  0  0  0  0  0  0
    6.5554   -6.7186   21.1268 H   0  0  0  0  0  0  0  0  0  0  0  0
    6.5337   -4.9596   22.3591 C   0  0  0  0  0  0  0  0  0  0  0  0
    5.1702   -4.3127   21.4850 Cl  0  0  0  0  0  0  0  0  0  0  0  0
    8.7077   -1.6779   23.2062 C   0  0  0  0  0  0  0  0  0  0  0  0
    9.2793   -2.0196   24.2195 O   0  0  0  0  0  0  0  0  0  0  0  0
    9.3861   -1.1418   22.1673 N   0  0  0  0  0  0  0  0  0  0  0  0
   10.3572   -0.9866   22.3475 H   0  0  0  0  0  0  0  0  0  0  0  0
    8.8610   -0.4135   21.1236 C   0  0  0  0  0  0  0  0  0  0  0  0
    9.6348    0.2525   20.4665 O   0  0  0  0  0  0  0  0  0  0  0  0
    5.4369    0.7213   20.0105 C   0  0  0  0  0  0  0  0  0  0  0  0
    4.9937    0.7372   21.0069 H   0  0  0  0  0  0  0  0  0  0  0  0
    4.8008    1.3516   18.9394 C   0  0  0  0  0  0  0  0  0  0  0  0
    3.8533    1.8610   19.0704 H   0  0  0  0  0  0  0  0  0  0  0  0
  1  2  1  0
  2  3  2  0
  3  4  1  0
  4  5  1  0
  4  6  2  0
  6  7  1  0
  7  8  2  0
  8  9  1  0
  8 10  1  0
 10 11  1  0
 11 12  1  0
 11 13  1  0
 11 14  1  0
 14 15  2  0
 15 16  1  0
 15 17  1  0
 17 18  1  0
 17 19  2  0
 19 20  1  0
 19 21  1  0
 21 22  1  0
 21 23  2  0
 23 24  1  0
 10 25  1  0
 25 26  2  0
 25 27  1  0
 27 28  1  0
 27 29  1  0
 29 30  2  0
  6 31  1  0
 31 32  1  0
 31 33  2  0
 33 34  1  0
 33  2  1  0
 29  7  1  0
 23 14  1  0
M  END
>  <cnnaffinity>  (1) 
-5.17739

>  <filename>  (1) 
O=c1[nH]c(=O)n(Cc2ccccc2Cl)cc1-c1cccnc1

$$$$
