
     RDKit          3D

 34 36  0  0  0  0  0  0  0  0999 V2000
    4.9878    1.8125   16.9528 H   0  0  0  0  0  0  0  0  0  0  0  0
    5.4479    1.3055   17.7968 C   0  0  0  0  0  0  0  0  0  0  0  0
    6.6000    0.6646   17.5423 N   0  0  0  0  0  0  0  0  0  0  0  0
    7.1875    0.0395   18.5701 C   0  0  0  0  0  0  0  0  0  0  0  0
    8.1053   -0.4994   18.3343 H   0  0  0  0  0  0  0  0  0  0  0  0
    6.6819    0.0035   19.8873 C   0  0  0  0  0  0  0  0  0  0  0  0
    7.4321   -0.6933   20.9744 C   0  0  0  0  0  0  0  0  0  0  0  0
    8.8545   -0.5467   21.0848 C   0  0  0  0  0  0  0  0  0  0  0  0
    9.3716    0.1236   20.3940 H   0  0  0  0  0  0  0  0  0  0  0  0
    9.5448   -1.2064   22.0552 C   0  0  0  0  0  0  0  0  0  0  0  0
   10.6144   -1.1210   22.1863 H   0  0  0  0  0  0  0  0  0  0  0  0
    8.8896   -2.1046   22.9969 C   0  0  0  0  0  0  0  0  0  0  0  0
    9.4842   -2.7388   23.8581 O   0  0  0  0  0  0  0  0  0  0  0  0
    7.4732   -2.1943   22.8599 N   0  0  0  0  0  0  0  0  0  0  0  0
    6.7646   -3.1739   23.7073 C   0  0  0  0  0  0  0  0  0  0  0  0
    7.3233   -3.2448   24.6448 H   0  0  0  0  0  0  0  0  0  0  0  0
    5.7763   -2.7804   23.9655 H   0  0  0  0  0  0  0  0  0  0  0  0
    6.6457   -4.5619   23.0815 C   0  0  0  0  0  0  0  0  0  0  0  0
    7.7372   -5.4489   23.1318 C   0  0  0  0  0  0  0  0  0  0  0  0
    8.6746   -5.0696   23.5254 H   0  0  0  0  0  0  0  0  0  0  0  0
    7.6316   -6.7688   22.6833 C   0  0  0  0  0  0  0  0  0  0  0  0
    8.4884   -7.4371   22.7566 H   0  0  0  0  0  0  0  0  0  0  0  0
    6.4116   -7.2272   22.1791 C   0  0  0  0  0  0  0  0  0  0  0  0
    6.2828   -8.2604   21.8639 H   0  0  0  0  0  0  0  0  0  0  0  0
    5.3337   -6.3511   22.0511 C   0  0  0  0  0  0  0  0  0  0  0  0
    4.3830   -6.6777   21.6477 H   0  0  0  0  0  0  0  0  0  0  0  0
    5.4777   -5.0211   22.4571 C   0  0  0  0  0  0  0  0  0  0  0  0
    4.1731   -3.9263   22.1229 Cl  0  0  0  0  0  0  0  0  0  0  0  0
    6.7942   -1.4873   21.8872 C   0  0  0  0  0  0  0  0  0  0  0  0
    5.7102   -1.5862   21.8752 H   0  0  0  0  0  0  0  0  0  0  0  0
    5.4536    0.6495   20.1114 C   0  0  0  0  0  0  0  0  0  0  0  0
    5.0062    0.6373   21.1055 H   0  0  0  0  0  0  0  0  0  0  0  0
    4.8344    1.3201   19.0536 C   0  0  0  0  0  0  0  0  0  0  0  0
    3.8948    1.8450   19.1905 H   0  0  0  0  0  0  0  0  0  0  0  0
  1  2  1  0
  2  3  2  0
  3  4  1  0
  4  5  1  0
  4  6  2  0
  6  7  1  0
  7  8  1  0
  8  9  1  0
  8 10  2  0
 10 11  1  0
 10 12  1  0
 12 13  2  0
 12 14  1  0
 14 15  1  0
 15 16  1  0
 15 17  1  0
 15 18  1  0
 18 19  2  0
 19 20  1  0
 19 21  1  0
 21 22  1  0
 21 23  2  0
 23 24  1  0
 23 25  1  0
 25 26  1  0
 25 27  2  0
 27 28  1  0
 14 29  1  0
 29 30  1  0
  6 31  1  0
 31 32  1  0
 31 33  2  0
 33 34  1  0
 33  2  1  0
 29  7  2  0
 27 18  1  0
M  END
>  <cnnaffinity>  (1) 
-5.05948

>  <filename>  (1) 
O=c1ccc(-c2cccnc2)cn1Cc1ccccc1Cl

$$$$
