
     RDKit          3D

 28 30  0  0  0  0  0  0  0  0999 V2000
    4.9258    1.8309   16.9704 H   0  0  0  0  0  0  0  0  0  0  0  0
    5.3992    1.3228   17.8090 C   0  0  0  0  0  0  0  0  0  0  0  0
    6.5624    0.7078   17.5449 N   0  0  0  0  0  0  0  0  0  0  0  0
    7.1808    0.0779   18.5498 C   0  0  0  0  0  0  0  0  0  0  0  0
    8.1285   -0.4042   18.3100 H   0  0  0  0  0  0  0  0  0  0  0  0
    6.6584   -0.0007   19.8568 C   0  0  0  0  0  0  0  0  0  0  0  0
    7.3623   -0.7047   20.9210 N   0  0  0  0  0  0  0  0  0  0  0  0
    8.6402   -0.2868   21.2825 C   0  0  0  0  0  0  0  0  0  0  0  0
    9.0234    0.5580   20.7132 H   0  0  0  0  0  0  0  0  0  0  0  0
    9.3509   -0.8504   22.3016 C   0  0  0  0  0  0  0  0  0  0  0  0
   10.6624   -0.3401   22.7284 C   0  0  0  0  0  0  0  0  0  0  0  0
   11.7732    0.4444   21.6523 S   0  0  0  0  0  0  0  0  0  0  0  0
   12.9738    0.5394   22.8933 C   0  0  0  0  0  0  0  0  0  0  0  0
   14.5921    0.9861   22.5505 Cl  0  0  0  0  0  0  0  0  0  0  0  0
   12.5142    0.1059   24.1009 C   0  0  0  0  0  0  0  0  0  0  0  0
   13.1358    0.1140   24.9926 H   0  0  0  0  0  0  0  0  0  0  0  0
   11.1907   -0.4131   23.9905 C   0  0  0  0  0  0  0  0  0  0  0  0
   10.6098   -0.9223   24.7500 H   0  0  0  0  0  0  0  0  0  0  0  0
    8.7303   -1.9891   23.0245 C   0  0  0  0  0  0  0  0  0  0  0  0
    9.1871   -2.6547   23.9289 O   0  0  0  0  0  0  0  0  0  0  0  0
    7.4654   -2.3280   22.5953 N   0  0  0  0  0  0  0  0  0  0  0  0
    7.0423   -3.0929   23.0845 H   0  0  0  0  0  0  0  0  0  0  0  0
    6.7214   -1.7765   21.6052 C   0  0  0  0  0  0  0  0  0  0  0  0
    5.6279   -2.2240   21.3480 O   0  0  0  0  0  0  0  0  0  0  0  0
    5.4402    0.6383   20.1195 C   0  0  0  0  0  0  0  0  0  0  0  0
    5.0151    0.5994   21.1213 H   0  0  0  0  0  0  0  0  0  0  0  0
    4.8051    1.3205   19.0743 C   0  0  0  0  0  0  0  0  0  0  0  0
    3.8680    1.8463   19.2254 H   0  0  0  0  0  0  0  0  0  0  0  0
  1  2  1  0
  2  3  2  0
  3  4  1  0
  4  5  1  0
  4  6  2  0
  6  7  1  0
  7  8  1  0
  8  9  1  0
  8 10  2  0
 10 11  1  0
 11 12  1  0
 12 13  1  0
 13 14  1  0
 13 15  2  0
 15 16  1  0
 15 17  1  0
 17 18  1  0
 10 19  1  0
 19 20  2  0
 19 21  1  0
 21 22  1  0
 21 23  1  0
 23 24  2  0
  6 25  1  0
 25 26  1  0
 25 27  2  0
 27 28  1  0
 27  2  1  0
 23  7  1  0
 17 11  2  0
M  END
>  <cnnaffinity>  (1) 
-5.13193

>  <filename>  (1) 
O=c1[nH]c(=O)n(-c2cccnc2)cc1-c1ccc(Cl)s1

$$$$
