
     RDKit          3D

 39 42  0  0  0  0  0  0  0  0999 V2000
    4.9344    1.8056   17.0179 H   0  0  0  0  0  0  0  0  0  0  0  0
    5.4181    1.2896   17.8448 C   0  0  0  0  0  0  0  0  0  0  0  0
    6.5855    0.6868   17.5626 N   0  0  0  0  0  0  0  0  0  0  0  0
    7.2115    0.0618   18.5666 C   0  0  0  0  0  0  0  0  0  0  0  0
    8.1545   -0.4258   18.3322 H   0  0  0  0  0  0  0  0  0  0  0  0
    6.7091   -0.0394   19.8827 C   0  0  0  0  0  0  0  0  0  0  0  0
    7.4186   -0.7511   20.8794 N   0  0  0  0  0  0  0  0  0  0  0  0
    6.8274   -1.6177   21.7926 C   0  0  0  0  0  0  0  0  0  0  0  0
    5.7539   -2.1590   21.7662 O   0  0  0  0  0  0  0  0  0  0  0  0
    7.7795   -1.8726   22.7534 N   0  0  0  0  0  0  0  0  0  0  0  0
    7.5962   -2.5492   23.4621 H   0  0  0  0  0  0  0  0  0  0  0  0
    9.0319   -1.5549   22.3356 C   0  0  0  0  0  0  0  0  0  0  0  0
   10.0434   -1.8904   22.8943 O   0  0  0  0  0  0  0  0  0  0  0  0
    8.8750   -0.6980   21.0847 C   0  0  2  0  0  0  0  0  0  0  0  0
    9.4119   -1.1940   20.2677 H   0  0  0  0  0  0  0  0  0  0  0  0
    9.4734    0.7123   21.2672 C   0  0  0  0  0  0  0  0  0  0  0  0
    9.4304    1.2044   20.2951 H   0  0  0  0  0  0  0  0  0  0  0  0
   10.5362    0.5976   21.5135 H   0  0  0  0  0  0  0  0  0  0  0  0
    8.7652    1.5545   22.3133 C   0  0  0  0  0  0  0  0  0  0  0  0
    9.0384    1.3807   23.7055 C   0  0  0  0  0  0  0  0  0  0  0  0
    9.7955    0.6564   24.0021 H   0  0  0  0  0  0  0  0  0  0  0  0
    8.3519    2.0950   24.6613 C   0  0  0  0  0  0  0  0  0  0  0  0
    8.5724    1.9593   25.7185 H   0  0  0  0  0  0  0  0  0  0  0  0
    7.3288    3.0224   24.2900 C   0  0  0  0  0  0  0  0  0  0  0  0
    6.5805    3.7758   25.2486 C   0  0  0  0  0  0  0  0  0  0  0  0
    6.8054    3.6398   26.3033 H   0  0  0  0  0  0  0  0  0  0  0  0
    5.5976    4.6529   24.8491 C   0  0  0  0  0  0  0  0  0  0  0  0
    5.0370    5.2249   25.5847 H   0  0  0  0  0  0  0  0  0  0  0  0
    5.3032    4.8233   23.4651 C   0  0  0  0  0  0  0  0  0  0  0  0
    4.5235    5.5213   23.1661 H   0  0  0  0  0  0  0  0  0  0  0  0
    6.0034    4.1118   22.5171 C   0  0  0  0  0  0  0  0  0  0  0  0
    5.7787    4.2264   21.4567 H   0  0  0  0  0  0  0  0  0  0  0  0
    7.0355    3.1985   22.9000 C   0  0  0  0  0  0  0  0  0  0  0  0
    7.7866    2.4517   21.9426 C   0  0  0  0  0  0  0  0  0  0  0  0
    7.5355    2.5694   20.8959 H   0  0  0  0  0  0  0  0  0  0  0  0
    5.4824    0.5962   20.1583 C   0  0  0  0  0  0  0  0  0  0  0  0
    5.0592    0.5642   21.1659 H   0  0  0  0  0  0  0  0  0  0  0  0
    4.8314    1.2772   19.1184 C   0  0  0  0  0  0  0  0  0  0  0  0
    3.8928    1.8077   19.2816 H   0  0  0  0  0  0  0  0  0  0  0  0
  1  2  1  0
  2  3  2  0
  3  4  1  0
  4  5  1  0
  4  6  2  0
  6  7  1  0
  7  8  1  0
  8  9  2  0
  8 10  1  0
 10 11  1  0
 10 12  1  0
 12 13  2  0
 12 14  1  0
 14 15  1  6
 14 16  1  0
 16 17  1  0
 16 18  1  0
 16 19  1  0
 19 20  2  0
 20 21  1  0
 20 22  1  0
 22 23  1  0
 22 24  2  0
 24 25  1  0
 25 26  1  0
 25 27  2  0
 27 28  1  0
 27 29  1  0
 29 30  1  0
 29 31  2  0
 31 32  1  0
 31 33  1  0
 33 34  2  0
 34 35  1  0
  6 36  1  0
 36 37  1  0
 36 38  2  0
 38 39  1  0
 38  2  1  0
 14  7  1  0
 34 19  1  0
 33 24  1  0
M  END
>  <cnnaffinity>  (1) 
-5.27364

>  <filename>  (1) 
O=C1NC(=O)N(c2cccnc2)[C@H]1Cc1ccc2ccccc2c1

$$$$
