
     RDKit          3D

 38 40  0  0  0  0  0  0  0  0999 V2000
    4.9128    1.8094   16.9825 H   0  0  0  0  0  0  0  0  0  0  0  0
    5.3833    1.3008   17.8207 C   0  0  0  0  0  0  0  0  0  0  0  0
    6.5393    0.6733   17.5494 N   0  0  0  0  0  0  0  0  0  0  0  0
    7.1673    0.0624   18.5621 C   0  0  0  0  0  0  0  0  0  0  0  0
    8.1193   -0.4130   18.3336 H   0  0  0  0  0  0  0  0  0  0  0  0
    6.6644    0.0159   19.8790 C   0  0  0  0  0  0  0  0  0  0  0  0
    7.3637   -0.6775   20.9428 N   0  0  0  0  0  0  0  0  0  0  0  0
    6.7262   -1.7344   21.5863 C   0  0  0  0  0  0  0  0  0  0  0  0
    5.7153   -1.9416   21.2344 H   0  0  0  0  0  0  0  0  0  0  0  0
    7.3218   -2.4529   22.5592 C   0  0  0  0  0  0  0  0  0  0  0  0
    6.6230   -3.5609   23.3015 C   0  0  0  0  0  0  0  0  0  0  0  0
    5.8749   -4.0710   22.6792 H   0  0  0  0  0  0  0  0  0  0  0  0
    7.3477   -4.3314   23.5929 H   0  0  0  0  0  0  0  0  0  0  0  0
    5.8952   -3.0599   24.5657 C   0  0  0  0  0  0  0  0  0  0  0  0
    6.5956   -2.5641   25.2555 H   0  0  0  0  0  0  0  0  0  0  0  0
    5.1093   -2.3475   24.3082 H   0  0  0  0  0  0  0  0  0  0  0  0
    5.1875   -4.1017   25.2168 O   0  0  0  0  0  0  0  0  0  0  0  0
    5.8411   -4.9926   26.0114 C   0  0  0  0  0  0  0  0  0  0  0  0
    7.2034   -4.9437   26.3387 C   0  0  0  0  0  0  0  0  0  0  0  0
    7.8431   -4.1824   25.9012 H   0  0  0  0  0  0  0  0  0  0  0  0
    7.7224   -5.8943   27.2284 C   0  0  0  0  0  0  0  0  0  0  0  0
    8.7890   -5.9016   27.4506 H   0  0  0  0  0  0  0  0  0  0  0  0
    6.8869   -6.8526   27.8018 C   0  0  0  0  0  0  0  0  0  0  0  0
    7.2888   -7.5608   28.5193 H   0  0  0  0  0  0  0  0  0  0  0  0
    5.5467   -6.9524   27.4006 C   0  0  0  0  0  0  0  0  0  0  0  0
    4.9280   -7.7757   27.7578 H   0  0  0  0  0  0  0  0  0  0  0  0
    5.0199   -6.0091   26.5254 C   0  0  0  0  0  0  0  0  0  0  0  0
    3.9782   -6.0128   26.2198 H   0  0  0  0  0  0  0  0  0  0  0  0
    8.6776   -2.0605   22.9926 C   0  0  0  0  0  0  0  0  0  0  0  0
    9.3311   -2.5735   23.8773 O   0  0  0  0  0  0  0  0  0  0  0  0
    9.2276   -1.0155   22.3001 N   0  0  0  0  0  0  0  0  0  0  0  0
   10.1496   -0.7327   22.5501 H   0  0  0  0  0  0  0  0  0  0  0  0
    8.6731   -0.2882   21.3002 C   0  0  0  0  0  0  0  0  0  0  0  0
    9.2997    0.6046   20.7809 O   0  0  0  0  0  0  0  0  0  0  0  0
    5.4460    0.6536   20.1375 C   0  0  0  0  0  0  0  0  0  0  0  0
    5.0353    0.6283   21.1474 H   0  0  0  0  0  0  0  0  0  0  0  0
    4.7956    1.3203   19.0915 C   0  0  0  0  0  0  0  0  0  0  0  0
    3.8623    1.8556   19.2477 H   0  0  0  0  0  0  0  0  0  0  0  0
  1  2  1  0
  2  3  2  0
  3  4  1  0
  4  5  1  0
  4  6  2  0
  6  7  1  0
  7  8  1  0
  8  9  1  0
  8 10  2  0
 10 11  1  0
 11 12  1  0
 11 13  1  0
 11 14  1  0
 14 15  1  0
 14 16  1  0
 14 17  1  0
 17 18  1  0
 18 19  2  0
 19 20  1  0
 19 21  1  0
 21 22  1  0
 21 23  2  0
 23 24  1  0
 23 25  1  0
 25 26  1  0
 25 27  2  0
 27 28  1  0
 10 29  1  0
 29 30  2  0
 29 31  1  0
 31 32  1  0
 31 33  1  0
 33 34  2  0
  6 35  1  0
 35 36  1  0
 35 37  2  0
 37 38  1  0
 37  2  1  0
 33  7  1  0
 27 18  1  0
M  END
>  <cnnaffinity>  (1) 
-5.11503

>  <filename>  (1) 
O=c1[nH]c(=O)n(-c2cccnc2)cc1CCOc1ccccc1

$$$$
