
     RDKit          3D

 30 32  0  0  0  0  0  0  0  0999 V2000
    4.9067    1.7895   16.9317 H   0  0  0  0  0  0  0  0  0  0  0  0
    5.3655    1.3405   17.8121 C   0  0  0  0  0  0  0  0  0  0  0  0
    6.5439    0.7300   17.6142 N   0  0  0  0  0  0  0  0  0  0  0  0
    7.1246    0.1718   18.6792 C   0  0  0  0  0  0  0  0  0  0  0  0
    8.0809   -0.3093   18.4852 H   0  0  0  0  0  0  0  0  0  0  0  0
    6.5989    0.2021   19.9838 C   0  0  0  0  0  0  0  0  0  0  0  0
    7.3630   -0.4669   21.0552 C   0  0  0  0  0  0  0  0  0  0  0  0
    7.1018   -0.0434   22.3305 O   0  0  0  0  0  0  0  0  0  0  0  0
    7.7708   -0.6272   23.3867 C   0  0  0  0  0  0  0  0  0  0  0  0
    7.5287    0.0180   24.6994 C   0  0  0  0  0  0  0  0  0  0  0  0
    6.3439    0.7305   24.9563 C   0  0  0  0  0  0  0  0  0  0  0  0
    5.6014    0.8269   24.1691 H   0  0  0  0  0  0  0  0  0  0  0  0
    6.1144    1.2915   26.2120 C   0  0  0  0  0  0  0  0  0  0  0  0
    5.2067    1.8431   26.4195 H   0  0  0  0  0  0  0  0  0  0  0  0
    7.0679    1.1366   27.2207 C   0  0  0  0  0  0  0  0  0  0  0  0
    6.7958    1.8514   28.7794 Cl  0  0  0  0  0  0  0  0  0  0  0  0
    8.2383    0.4117   26.9978 C   0  0  0  0  0  0  0  0  0  0  0  0
    8.9487    0.2750   27.8044 H   0  0  0  0  0  0  0  0  0  0  0  0
    8.4660   -0.1404   25.7397 C   0  0  0  0  0  0  0  0  0  0  0  0
    9.3933   -0.6847   25.5748 H   0  0  0  0  0  0  0  0  0  0  0  0
    8.4805   -1.7641   23.2290 C   0  0  0  0  0  0  0  0  0  0  0  0
    8.9158   -2.2954   24.0619 H   0  0  0  0  0  0  0  0  0  0  0  0
    8.5953   -2.3726   21.9119 C   0  0  0  0  0  0  0  0  0  0  0  0
    8.9635   -3.5234   21.7410 O   0  0  0  0  0  0  0  0  0  0  0  0
    8.1884   -1.5022   20.8272 C   0  0  0  0  0  0  0  0  0  0  0  0
    8.4913   -1.7870   19.8392 H   0  0  0  0  0  0  0  0  0  0  0  0
    5.3504    0.8177   20.1681 C   0  0  0  0  0  0  0  0  0  0  0  0
    4.8802    0.8354   21.1531 H   0  0  0  0  0  0  0  0  0  0  0  0
    4.7339    1.3942   19.0589 C   0  0  0  0  0  0  0  0  0  0  0  0
    3.7722    1.8854   19.1411 H   0  0  0  0  0  0  0  0  0  0  0  0
  1  2  1  0
  2  3  2  0
  3  4  1  0
  4  5  1  0
  4  6  2  0
  6  7  1  0
  7  8  1  0
  8  9  1  0
  9 10  1  0
 10 11  2  0
 11 12  1  0
 11 13  1  0
 13 14  1  0
 13 15  2  0
 15 16  1  0
 15 17  1  0
 17 18  1  0
 17 19  2  0
 19 20  1  0
  9 21  2  0
 21 22  1  0
 21 23  1  0
 23 24  2  0
 23 25  1  0
 25 26  1  0
  6 27  1  0
 27 28  1  0
 27 29  2  0
 29 30  1  0
 29  2  1  0
 25  7  2  0
 19 10  1  0
M  END
>  <cnnaffinity>  (1) 
-5.12985

>  <filename>  (1) 
O=c1cc(-c2ccc(Cl)cc2)oc(-c2cccnc2)c1

$$$$
