
     RDKit          3D

 30 32  0  0  0  0  0  0  0  0999 V2000
    4.9775    1.8248   16.9578 H   0  0  0  0  0  0  0  0  0  0  0  0
    5.4270    1.3038   17.8027 C   0  0  0  0  0  0  0  0  0  0  0  0
    6.5879    0.6730   17.5692 N   0  0  0  0  0  0  0  0  0  0  0  0
    7.1768    0.0633   18.6037 C   0  0  0  0  0  0  0  0  0  0  0  0
    8.1145   -0.4427   18.3877 H   0  0  0  0  0  0  0  0  0  0  0  0
    6.6710    0.0387   19.9125 C   0  0  0  0  0  0  0  0  0  0  0  0
    7.4504   -0.6042   20.9690 C   0  0  0  0  0  0  0  0  0  0  0  0
    8.4582   -1.5042   20.9341 C   0  0  0  0  0  0  0  0  0  0  0  0
    9.0087   -1.9357   20.1101 H   0  0  0  0  0  0  0  0  0  0  0  0
    8.7685   -1.8514   22.2449 N   0  0  0  0  0  0  0  0  0  0  0  0
    9.6611   -2.8771   22.5181 N   0  0  0  0  0  0  0  0  0  0  0  0
   10.5618   -2.8456   22.0602 H   0  0  0  0  0  0  0  0  0  0  0  0
    9.5999   -3.7210   23.6155 C   0  0  0  0  0  0  0  0  0  0  0  0
   10.8273   -4.0891   24.1795 C   0  0  0  0  0  0  0  0  0  0  0  0
   11.7519   -3.6574   23.8043 H   0  0  0  0  0  0  0  0  0  0  0  0
   10.8297   -5.0337   25.1955 C   0  0  0  0  0  0  0  0  0  0  0  0
   11.7804   -5.3707   25.6022 H   0  0  0  0  0  0  0  0  0  0  0  0
    9.7185   -5.5792   25.7100 N   0  0  0  0  0  0  0  0  0  0  0  0
    8.5519   -5.1880   25.1815 C   0  0  0  0  0  0  0  0  0  0  0  0
    7.6602   -5.6256   25.6292 H   0  0  0  0  0  0  0  0  0  0  0  0
    8.4274   -4.2782   24.1310 C   0  0  0  0  0  0  0  0  0  0  0  0
    7.4503   -4.0191   23.7362 H   0  0  0  0  0  0  0  0  0  0  0  0
    8.0021   -1.0668   23.1455 C   0  0  0  0  0  0  0  0  0  0  0  0
    8.0369   -0.9804   24.3576 O   0  0  0  0  0  0  0  0  0  0  0  0
    7.1577   -0.3804   22.3103 N   0  0  0  0  0  0  0  0  0  0  0  0
    6.6849    0.4115   22.6996 H   0  0  0  0  0  0  0  0  0  0  0  0
    5.4239    0.6598   20.1227 C   0  0  0  0  0  0  0  0  0  0  0  0
    4.9429    0.6279   21.1005 H   0  0  0  0  0  0  0  0  0  0  0  0
    4.8030    1.3047   19.0552 C   0  0  0  0  0  0  0  0  0  0  0  0
    3.8672    1.8348   19.1852 H   0  0  0  0  0  0  0  0  0  0  0  0
  1  2  1  0
  2  3  2  0
  3  4  1  0
  4  5  1  0
  4  6  2  0
  6  7  1  0
  7  8  2  0
  8  9  1  0
  8 10  1  0
 10 11  1  0
 11 12  1  0
 11 13  1  0
 13 14  2  0
 14 15  1  0
 14 16  1  0
 16 17  1  0
 16 18  2  0
 18 19  1  0
 19 20  1  0
 19 21  2  0
 21 22  1  0
 10 23  1  0
 23 24  2  0
 23 25  1  0
 25 26  1  0
  6 27  1  0
 27 28  1  0
 27 29  2  0
 29 30  1  0
 29  2  1  0
 25  7  1  0
 21 13  1  0
M  END
>  <cnnaffinity>  (1) 
-5.33914

>  <filename>  (1) 
O=c1[nH]c(-c2cccnc2)cn1Nc1ccncc1

$$$$
