
     RDKit          3D

 31 33  0  0  0  0  0  0  0  0999 V2000
    4.9051    1.8350   16.9466 H   0  0  0  0  0  0  0  0  0  0  0  0
    5.3844    1.3356   17.7862 C   0  0  0  0  0  0  0  0  0  0  0  0
    6.5495    0.7264   17.5149 N   0  0  0  0  0  0  0  0  0  0  0  0
    7.1725    0.1110   18.5278 C   0  0  0  0  0  0  0  0  0  0  0  0
    8.1144   -0.3737   18.2722 H   0  0  0  0  0  0  0  0  0  0  0  0
    6.6688    0.0254   19.8483 C   0  0  0  0  0  0  0  0  0  0  0  0
    7.4011   -0.6980   20.9369 C   0  0  0  0  0  0  0  0  0  0  0  0
    8.7062   -0.4344   21.1889 C   0  0  0  0  0  0  0  0  0  0  0  0
    9.2771    0.3003   20.6209 H   0  0  0  0  0  0  0  0  0  0  0  0
    9.4200   -1.0598   22.2097 N   0  0  0  0  0  0  0  0  0  0  0  0
   10.8080   -0.7288   22.4145 C   0  0  0  0  0  0  0  0  0  0  0  0
   11.7821   -1.6801   22.0906 C   0  0  0  0  0  0  0  0  0  0  0  0
   11.4328   -2.6487   21.7640 H   0  0  0  0  0  0  0  0  0  0  0  0
   13.1432   -1.3923   22.2135 C   0  0  0  0  0  0  0  0  0  0  0  0
   13.8822   -2.1449   21.9460 H   0  0  0  0  0  0  0  0  0  0  0  0
   13.5426   -0.1545   22.7280 C   0  0  0  0  0  0  0  0  0  0  0  0
   14.5972    0.0661   22.8773 H   0  0  0  0  0  0  0  0  0  0  0  0
   12.5841    0.7998   23.0815 C   0  0  0  0  0  0  0  0  0  0  0  0
   12.8686    1.7665   23.4873 H   0  0  0  0  0  0  0  0  0  0  0  0
   11.2220    0.5197   22.9152 C   0  0  0  0  0  0  0  0  0  0  0  0
   10.0721    1.7424   23.3652 Cl  0  0  0  0  0  0  0  0  0  0  0  0
    8.8160   -2.0153   23.0508 C   0  0  0  0  0  0  0  0  0  0  0  0
    9.3784   -2.6318   23.9235 O   0  0  0  0  0  0  0  0  0  0  0  0
    7.4938   -2.2075   22.8112 N   0  0  0  0  0  0  0  0  0  0  0  0
    7.0686   -2.9330   23.3529 H   0  0  0  0  0  0  0  0  0  0  0  0
    6.7295   -1.7500   21.7591 C   0  0  0  0  0  0  0  0  0  0  0  0
    5.6445   -2.2646   21.5953 O   0  0  0  0  0  0  0  0  0  0  0  0
    5.4387    0.6622   20.0935 C   0  0  0  0  0  0  0  0  0  0  0  0
    5.0108    0.6116   21.0947 H   0  0  0  0  0  0  0  0  0  0  0  0
    4.7917    1.3372   19.0518 C   0  0  0  0  0  0  0  0  0  0  0  0
    3.8497    1.8585   19.1991 H   0  0  0  0  0  0  0  0  0  0  0  0
  1  2  1  0
  2  3  2  0
  3  4  1  0
  4  5  1  0
  4  6  2  0
  6  7  1  0
  7  8  2  0
  8  9  1  0
  8 10  1  0
 10 11  1  0
 11 12  2  0
 12 13  1  0
 12 14  1  0
 14 15  1  0
 14 16  2  0
 16 17  1  0
 16 18  1  0
 18 19  1  0
 18 20  2  0
 20 21  1  0
 10 22  1  0
 22 23  2  0
 22 24  1  0
 24 25  1  0
 24 26  1  0
 26 27  2  0
  6 28  1  0
 28 29  1  0
 28 30  2  0
 30 31  1  0
 30  2  1  0
 26  7  1  0
 20 11  1  0
M  END
>  <cnnaffinity>  (1) 
-5.26947

>  <filename>  (1) 
O=c1[nH]c(=O)n(-c2ccccc2Cl)cc1-c1cccnc1

$$$$
