
     RDKit          3D

 43 46  0  0  0  0  0  0  0  0999 V2000
    4.9377    1.8024   16.9857 H   0  0  0  0  0  0  0  0  0  0  0  0
    5.3895    1.2967   17.8376 C   0  0  0  0  0  0  0  0  0  0  0  0
    6.5413    0.6635   17.5830 N   0  0  0  0  0  0  0  0  0  0  0  0
    7.1321    0.0300   18.5993 C   0  0  0  0  0  0  0  0  0  0  0  0
    8.1065   -0.4121   18.3988 H   0  0  0  0  0  0  0  0  0  0  0  0
    6.5967   -0.0342   19.8985 C   0  0  0  0  0  0  0  0  0  0  0  0
    7.3267   -0.7495   20.9865 C   0  0  0  0  0  0  0  0  0  0  0  0
    6.5858   -1.5136   21.7487 N   0  0  0  0  0  0  0  0  0  0  0  0
    7.1658   -2.1826   22.7979 N   0  0  0  0  0  0  0  0  0  0  0  0
    6.2937   -2.9872   23.6191 C   0  0  0  0  0  0  0  0  0  0  0  0
    6.4974   -3.1136   25.0064 C   0  0  0  0  0  0  0  0  0  0  0  0
    7.3208   -2.5722   25.4662 H   0  0  0  0  0  0  0  0  0  0  0  0
    5.6477   -3.9112   25.7853 C   0  0  0  0  0  0  0  0  0  0  0  0
    5.8114   -4.0223   26.8541 H   0  0  0  0  0  0  0  0  0  0  0  0
    4.5727   -4.6023   25.1952 C   0  0  0  0  0  0  0  0  0  0  0  0
    3.7178   -5.4680   25.9175 N   0  0  0  0  0  0  0  0  0  0  0  0
    2.2877   -5.1519   26.0178 C   0  0  0  0  0  0  0  0  0  0  0  0
    1.9407   -4.7280   25.0672 H   0  0  0  0  0  0  0  0  0  0  0  0
    2.0785   -4.4038   26.8046 H   0  0  0  0  0  0  0  0  0  0  0  0
    1.4913   -6.4294   26.3189 C   0  0  0  0  0  0  0  0  0  0  0  0
    1.5552   -7.1057   25.4496 H   0  0  0  0  0  0  0  0  0  0  0  0
    0.4393   -6.1953   26.5118 H   0  0  0  0  0  0  0  0  0  0  0  0
    1.9742   -7.0896   27.4824 O   0  0  0  0  0  0  0  0  0  0  0  0
    3.3398   -7.4505   27.3147 C   0  0  0  0  0  0  0  0  0  0  0  0
    3.4436   -8.1451   26.4644 H   0  0  0  0  0  0  0  0  0  0  0  0
    3.6436   -7.9614   28.2334 H   0  0  0  0  0  0  0  0  0  0  0  0
    4.2285   -6.2227   27.0622 C   0  0  0  0  0  0  0  0  0  0  0  0
    5.2476   -6.5597   26.8297 H   0  0  0  0  0  0  0  0  0  0  0  0
    4.2704   -5.6261   27.9931 H   0  0  0  0  0  0  0  0  0  0  0  0
    4.3631   -4.4516   23.8114 C   0  0  0  0  0  0  0  0  0  0  0  0
    3.5234   -4.9971   23.3882 H   0  0  0  0  0  0  0  0  0  0  0  0
    5.2122   -3.6618   23.0287 C   0  0  0  0  0  0  0  0  0  0  0  0
    5.0617   -3.5309   21.9613 H   0  0  0  0  0  0  0  0  0  0  0  0
    8.5221   -2.1201   23.0233 C   0  0  0  0  0  0  0  0  0  0  0  0
    8.8739   -2.7452   23.8427 H   0  0  0  0  0  0  0  0  0  0  0  0
    9.3502   -1.3672   22.2819 C   0  0  0  0  0  0  0  0  0  0  0  0
   10.4133   -1.2994   22.4569 H   0  0  0  0  0  0  0  0  0  0  0  0
    8.8128   -0.5683   21.1860 C   0  0  0  0  0  0  0  0  0  0  0  0
    9.5192    0.1667   20.5079 O   0  0  0  0  0  0  0  0  0  0  0  0
    5.3905    0.6275   20.1518 C   0  0  0  0  0  0  0  0  0  0  0  0
    4.9796    0.6177   21.1619 H   0  0  0  0  0  0  0  0  0  0  0  0
    4.7833    1.3184   19.0998 C   0  0  0  0  0  0  0  0  0  0  0  0
    3.8616    1.8704   19.2316 H   0  0  0  0  0  0  0  0  0  0  0  0
  1  2  1  0
  2  3  2  0
  3  4  1  0
  4  5  1  0
  4  6  2  0
  6  7  1  0
  7  8  2  0
  8  9  1  0
  9 10  1  0
 10 11  2  0
 11 12  1  0
 11 13  1  0
 13 14  1  0
 13 15  2  0
 15 16  1  0
 16 17  1  0
 17 18  1  0
 17 19  1  0
 17 20  1  0
 20 21  1  0
 20 22  1  0
 20 23  1  0
 23 24  1  0
 24 25  1  0
 24 26  1  0
 24 27  1  0
 27 28  1  0
 27 29  1  0
 15 30  1  0
 30 31  1  0
 30 32  2  0
 32 33  1  0
  9 34  1  0
 34 35  1  0
 34 36  2  0
 36 37  1  0
 36 38  1  0
 38 39  2  0
  6 40  1  0
 40 41  1  0
 40 42  2  0
 42 43  1  0
 42  2  1  0
 38  7  1  0
 32 10  1  0
 27 16  1  0
M  END
>  <cnnaffinity>  (1) 
-5.50628

>  <filename>  (1) 
O=c1ccn(-c2ccc(N3CCOCC3)cc2)nc1-c1cccnc1

$$$$
