
     RDKit          3D

 32 34  0  0  0  0  0  0  0  0999 V2000
    5.1766    1.6495   16.9784 H   0  0  0  0  0  0  0  0  0  0  0  0
    5.6467    1.2099   17.8559 C   0  0  0  0  0  0  0  0  0  0  0  0
    6.8309    0.6088   17.6554 N   0  0  0  0  0  0  0  0  0  0  0  0
    7.4361    0.0549   18.7159 C   0  0  0  0  0  0  0  0  0  0  0  0
    8.3879   -0.4408   18.5244 H   0  0  0  0  0  0  0  0  0  0  0  0
    6.8779    0.0616   20.0039 C   0  0  0  0  0  0  0  0  0  0  0  0
    7.4926   -0.6598   21.1300 C   0  0  0  0  0  0  0  0  0  0  0  0
    8.8554   -0.5616   21.2091 O   0  0  0  0  0  0  0  0  0  0  0  0
    9.5087   -1.2117   22.2300 C   0  0  0  0  0  0  0  0  0  0  0  0
   11.0165   -1.1174   22.1147 C   0  0  0  0  0  0  0  0  0  0  0  0
   11.5283   -1.8940   21.1582 N   0  0  0  0  0  0  0  0  0  0  0  0
   12.8503   -1.9250   20.9697 C   0  0  0  0  0  0  0  0  0  0  0  0
   13.2065   -2.5668   20.1681 H   0  0  0  0  0  0  0  0  0  0  0  0
   13.7516   -1.1926   21.7385 C   0  0  0  0  0  0  0  0  0  0  0  0
   14.8115   -1.3213   21.5770 H   0  0  0  0  0  0  0  0  0  0  0  0
   13.2485   -0.3586   22.7279 C   0  0  0  0  0  0  0  0  0  0  0  0
   13.8997    0.2813   23.3248 H   0  0  0  0  0  0  0  0  0  0  0  0
   11.8650   -0.3494   22.9404 C   0  0  0  0  0  0  0  0  0  0  0  0
   11.2887    0.3717   24.1129 C   0  0  0  0  0  0  0  0  0  0  0  0
   12.1890    1.1530   24.7359 F   0  0  0  0  0  0  0  0  0  0  0  0
   10.2493    1.1402   23.7525 F   0  0  0  0  0  0  0  0  0  0  0  0
   10.8372   -0.5087   25.0298 F   0  0  0  0  0  0  0  0  0  0  0  0
    8.8440   -1.9857   23.1205 C   0  0  0  0  0  0  0  0  0  0  0  0
    9.3376   -2.5359   23.9078 H   0  0  0  0  0  0  0  0  0  0  0  0
    7.3896   -2.1571   23.0497 C   0  0  0  0  0  0  0  0  0  0  0  0
    6.7768   -2.8679   23.8275 O   0  0  0  0  0  0  0  0  0  0  0  0
    6.7682   -1.4224   21.9713 C   0  0  0  0  0  0  0  0  0  0  0  0
    5.7102   -1.5575   21.8199 H   0  0  0  0  0  0  0  0  0  0  0  0
    5.6363    0.6854   20.1926 C   0  0  0  0  0  0  0  0  0  0  0  0
    5.1911    0.7108   21.1895 H   0  0  0  0  0  0  0  0  0  0  0  0
    5.0120    1.2780   19.1014 C   0  0  0  0  0  0  0  0  0  0  0  0
    4.0509    1.7686   19.2053 H   0  0  0  0  0  0  0  0  0  0  0  0
  1  2  1  0
  2  3  2  0
  3  4  1  0
  4  5  1  0
  4  6  2  0
  6  7  1  0
  7  8  1  0
  8  9  1  0
  9 10  1  0
 10 11  2  0
 11 12  1  0
 12 13  1  0
 12 14  2  0
 14 15  1  0
 14 16  1  0
 16 17  1  0
 16 18  2  0
 18 19  1  0
 19 20  1  0
 19 21  1  0
 19 22  1  0
  9 23  2  0
 23 24  1  0
 23 25  1  0
 25 26  2  0
 25 27  1  0
 27 28  1  0
  6 29  1  0
 29 30  1  0
 29 31  2  0
 31 32  1  0
 31  2  1  0
 27  7  2  0
 18 10  1  0
M  END
>  <cnnaffinity>  (1) 
-6.17905

>  <filename>  (1) 
O=c1cc(-c2cccnc2)oc(-c2ncccc2C(F)(F)F)c1

$$$$
