
     RDKit          3D

 30 32  0  0  0  0  0  0  0  0999 V2000
    4.9312    1.7872   16.9899 H   0  0  0  0  0  0  0  0  0  0  0  0
    5.3974    1.2939   17.8397 C   0  0  0  0  0  0  0  0  0  0  0  0
    6.5544    0.6653   17.5866 N   0  0  0  0  0  0  0  0  0  0  0  0
    7.1479    0.0420   18.6062 C   0  0  0  0  0  0  0  0  0  0  0  0
    8.1122   -0.4140   18.3866 H   0  0  0  0  0  0  0  0  0  0  0  0
    6.6178   -0.0167   19.9059 C   0  0  0  0  0  0  0  0  0  0  0  0
    7.3168   -0.7354   20.9821 C   0  0  0  0  0  0  0  0  0  0  0  0
    6.5916   -1.5101   21.7658 N   0  0  0  0  0  0  0  0  0  0  0  0
    7.1853   -2.1976   22.8060 C   0  0  0  0  0  0  0  0  0  0  0  0
    6.2966   -3.0450   23.6710 C   0  0  0  0  0  0  0  0  0  0  0  0
    6.6263   -3.3194   25.0146 C   0  0  0  0  0  0  0  0  0  0  0  0
    7.5206   -2.8985   25.4614 H   0  0  0  0  0  0  0  0  0  0  0  0
    5.7984   -4.1164   25.8104 C   0  0  0  0  0  0  0  0  0  0  0  0
    6.0389   -4.3426   26.8454 H   0  0  0  0  0  0  0  0  0  0  0  0
    4.6331   -4.6449   25.2706 C   0  0  0  0  0  0  0  0  0  0  0  0
    3.8316   -5.4081   26.0214 F   0  0  0  0  0  0  0  0  0  0  0  0
    4.2907   -4.3776   23.9390 C   0  0  0  0  0  0  0  0  0  0  0  0
    3.1570   -4.8821   23.4356 F   0  0  0  0  0  0  0  0  0  0  0  0
    5.1085   -3.5888   23.1456 C   0  0  0  0  0  0  0  0  0  0  0  0
    4.8067   -3.3771   22.1250 H   0  0  0  0  0  0  0  0  0  0  0  0
    8.5370   -2.1257   23.0279 C   0  0  0  0  0  0  0  0  0  0  0  0
    9.0463   -2.6842   23.8033 H   0  0  0  0  0  0  0  0  0  0  0  0
    9.3057   -1.3275   22.2158 N   0  0  0  0  0  0  0  0  0  0  0  0
   10.3042   -1.1671   22.3010 H   0  0  0  0  0  0  0  0  0  0  0  0
    8.8075   -0.5608   21.1755 C   0  0  0  0  0  0  0  0  0  0  0  0
    9.6094    0.1323   20.5685 O   0  0  0  0  0  0  0  0  0  0  0  0
    5.4050    0.6460   20.1549 C   0  0  0  0  0  0  0  0  0  0  0  0
    4.9743    0.6354   21.1602 H   0  0  0  0  0  0  0  0  0  0  0  0
    4.7971    1.3204   19.1028 C   0  0  0  0  0  0  0  0  0  0  0  0
    3.8676    1.8566   19.2453 H   0  0  0  0  0  0  0  0  0  0  0  0
  1  2  1  0
  2  3  2  0
  3  4  1  0
  4  5  1  0
  4  6  2  0
  6  7  1  0
  7  8  2  0
  8  9  1  0
  9 10  1  0
 10 11  2  0
 11 12  1  0
 11 13  1  0
 13 14  1  0
 13 15  2  0
 15 16  1  0
 15 17  1  0
 17 18  1  0
 17 19  2  0
 19 20  1  0
  9 21  2  0
 21 22  1  0
 21 23  1  0
 23 24  1  0
 23 25  1  0
 25 26  2  0
  6 27  1  0
 27 28  1  0
 27 29  2  0
 29 30  1  0
 29  2  1  0
 25  7  1  0
 19 10  1  0
M  END
>  <cnnaffinity>  (1) 
-5.42324

>  <filename>  (1) 
O=c1[nH]cc(-c2ccc(F)c(F)c2)nc1-c1cccnc1

$$$$
