
     RDKit          3D

 34 36  0  0  0  0  0  0  0  0999 V2000
    4.9213    1.7932   16.9960 H   0  0  0  0  0  0  0  0  0  0  0  0
    5.3924    1.2914   17.8366 C   0  0  0  0  0  0  0  0  0  0  0  0
    6.5491    0.6668   17.5636 N   0  0  0  0  0  0  0  0  0  0  0  0
    7.1715    0.0546   18.5748 C   0  0  0  0  0  0  0  0  0  0  0  0
    8.1284   -0.4177   18.3610 H   0  0  0  0  0  0  0  0  0  0  0  0
    6.6685    0.0091   19.8925 C   0  0  0  0  0  0  0  0  0  0  0  0
    7.3732   -0.6617   20.9256 N   0  0  0  0  0  0  0  0  0  0  0  0
    6.7772   -1.4376   21.9197 C   0  0  0  0  0  0  0  0  0  0  0  0
    5.7102   -1.5812   21.9582 H   0  0  0  0  0  0  0  0  0  0  0  0
    7.7349   -1.9270   22.7361 C   0  0  0  0  0  0  0  0  0  0  0  0
    7.5816   -2.7563   23.9901 C   0  0  0  0  0  0  0  0  0  0  0  0
    7.2051   -3.7522   23.7282 H   0  0  0  0  0  0  0  0  0  0  0  0
    8.5750   -2.9209   24.4333 H   0  0  0  0  0  0  0  0  0  0  0  0
    6.6908   -2.2346   25.0145 N   0  0  0  0  0  0  0  0  0  0  0  0
    5.7267   -2.5263   24.9977 H   0  0  0  0  0  0  0  0  0  0  0  0
    6.8728   -1.0005   25.6175 C   0  0  0  0  0  0  0  0  0  0  0  0
    8.1067   -0.3280   25.5948 C   0  0  0  0  0  0  0  0  0  0  0  0
    8.9244   -0.7456   25.0183 H   0  0  0  0  0  0  0  0  0  0  0  0
    8.2822    0.8519   26.3226 C   0  0  0  0  0  0  0  0  0  0  0  0
    9.2531    1.3421   26.3167 H   0  0  0  0  0  0  0  0  0  0  0  0
    7.2289    1.3899   27.0675 C   0  0  0  0  0  0  0  0  0  0  0  0
    7.3759    2.3026   27.6373 H   0  0  0  0  0  0  0  0  0  0  0  0
    5.9888    0.7400   27.0708 C   0  0  0  0  0  0  0  0  0  0  0  0
    5.1646    1.1472   27.6513 H   0  0  0  0  0  0  0  0  0  0  0  0
    5.8062   -0.4391   26.3467 C   0  0  0  0  0  0  0  0  0  0  0  0
    4.8486   -0.9542   26.3498 H   0  0  0  0  0  0  0  0  0  0  0  0
    8.9432   -1.4632   22.2081 N   0  0  0  0  0  0  0  0  0  0  0  0
    9.8924   -1.5682   22.5149 H   0  0  0  0  0  0  0  0  0  0  0  0
    8.7662   -0.6618   21.1130 C   0  0  0  0  0  0  0  0  0  0  0  0
    9.6589   -0.1135   20.4910 O   0  0  0  0  0  0  0  0  0  0  0  0
    5.4493    0.6426   20.1605 C   0  0  0  0  0  0  0  0  0  0  0  0
    5.0389    0.6318   21.1723 H   0  0  0  0  0  0  0  0  0  0  0  0
    4.8111    1.3052   19.1087 C   0  0  0  0  0  0  0  0  0  0  0  0
    3.8820    1.8366   19.2621 H   0  0  0  0  0  0  0  0  0  0  0  0
  1  2  1  0
  2  3  2  0
  3  4  1  0
  4  5  1  0
  4  6  2  0
  6  7  1  0
  7  8  1  0
  8  9  1  0
  8 10  2  0
 10 11  1  0
 11 12  1  0
 11 13  1  0
 11 14  1  0
 14 15  1  0
 14 16  1  0
 16 17  2  0
 17 18  1  0
 17 19  1  0
 19 20  1  0
 19 21  2  0
 21 22  1  0
 21 23  1  0
 23 24  1  0
 23 25  2  0
 25 26  1  0
 10 27  1  0
 27 28  1  0
 27 29  1  0
 29 30  2  0
  6 31  1  0
 31 32  1  0
 31 33  2  0
 33 34  1  0
 33  2  1  0
 29  7  1  0
 25 16  1  0
M  END
>  <cnnaffinity>  (1) 
-5.1039

>  <filename>  (1) 
O=c1[nH]c(CNc2ccccc2)cn1-c1cccnc1

$$$$
