
     RDKit          3D

 29 31  0  0  0  0  0  0  0  0999 V2000
    4.9279    1.8455   16.9624 H   0  0  0  0  0  0  0  0  0  0  0  0
    5.3960    1.3318   17.7999 C   0  0  0  0  0  0  0  0  0  0  0  0
    6.5573    0.7128   17.5374 N   0  0  0  0  0  0  0  0  0  0  0  0
    7.1651    0.0719   18.5434 C   0  0  0  0  0  0  0  0  0  0  0  0
    8.1148   -0.4092   18.3039 H   0  0  0  0  0  0  0  0  0  0  0  0
    6.6301   -0.0151   19.8476 C   0  0  0  0  0  0  0  0  0  0  0  0
    7.3248   -0.7207   20.9137 N   0  0  0  0  0  0  0  0  0  0  0  0
    8.6012   -0.3029   21.2735 C   0  0  0  0  0  0  0  0  0  0  0  0
    8.9856    0.5403   20.7021 H   0  0  0  0  0  0  0  0  0  0  0  0
    9.3407   -0.8824   22.2497 C   0  0  0  0  0  0  0  0  0  0  0  0
   10.7269   -0.3831   22.5378 C   0  0  0  0  0  0  0  0  0  0  0  0
   11.0457    0.9905   22.7609 C   0  0  0  0  0  0  0  0  0  0  0  0
   10.2729    1.7509   22.8119 H   0  0  0  0  0  0  0  0  0  0  0  0
   12.2896    1.4415   22.9593 N   0  0  0  0  0  0  0  0  0  0  0  0
   13.3261    0.5962   22.8975 N   0  0  0  0  0  0  0  0  0  0  0  0
   13.1021   -0.6991   22.6575 C   0  0  0  0  0  0  0  0  0  0  0  0
   13.9857   -1.3237   22.5926 H   0  0  0  0  0  0  0  0  0  0  0  0
   11.8169   -1.2454   22.5080 C   0  0  0  0  0  0  0  0  0  0  0  0
   11.6830   -2.3174   22.3930 H   0  0  0  0  0  0  0  0  0  0  0  0
    8.7441   -2.0387   22.9766 C   0  0  0  0  0  0  0  0  0  0  0  0
    9.2339   -2.7206   23.8494 O   0  0  0  0  0  0  0  0  0  0  0  0
    7.4465   -2.3268   22.6025 N   0  0  0  0  0  0  0  0  0  0  0  0
    7.0109   -3.0812   23.1023 H   0  0  0  0  0  0  0  0  0  0  0  0
    6.6959   -1.7875   21.6073 C   0  0  0  0  0  0  0  0  0  0  0  0
    5.6031   -2.2366   21.3534 O   0  0  0  0  0  0  0  0  0  0  0  0
    5.4188    0.6336   20.1079 C   0  0  0  0  0  0  0  0  0  0  0  0
    4.9931    0.6042   21.1095 H   0  0  0  0  0  0  0  0  0  0  0  0
    4.7971    1.3250   19.0620 C   0  0  0  0  0  0  0  0  0  0  0  0
    3.8660    1.8561   19.2129 H   0  0  0  0  0  0  0  0  0  0  0  0
  1  2  1  0
  2  3  2  0
  3  4  1  0
  4  5  1  0
  4  6  2  0
  6  7  1  0
  7  8  1  0
  8  9  1  0
  8 10  2  0
 10 11  1  0
 11 12  2  0
 12 13  1  0
 12 14  1  0
 14 15  2  0
 15 16  1  0
 16 17  1  0
 16 18  2  0
 18 19  1  0
 10 20  1  0
 20 21  2  0
 20 22  1  0
 22 23  1  0
 22 24  1  0
 24 25  2  0
  6 26  1  0
 26 27  1  0
 26 28  2  0
 28 29  1  0
 28  2  1  0
 24  7  1  0
 18 11  1  0
M  END
>  <cnnaffinity>  (1) 
-4.80015

>  <filename>  (1) 
O=c1[nH]c(=O)n(-c2cccnc2)cc1-c1ccnnc1

$$$$
