
     RDKit          3D

 31 33  0  0  0  0  0  0  0  0999 V2000
    5.0744    1.8269   16.8929 H   0  0  0  0  0  0  0  0  0  0  0  0
    5.5039    1.2992   17.7412 C   0  0  0  0  0  0  0  0  0  0  0  0
    6.6406    0.6281   17.4987 N   0  0  0  0  0  0  0  0  0  0  0  0
    7.2030   -0.0060   18.5324 C   0  0  0  0  0  0  0  0  0  0  0  0
    8.1309   -0.5394   18.3264 H   0  0  0  0  0  0  0  0  0  0  0  0
    6.6721   -0.0318   19.8352 C   0  0  0  0  0  0  0  0  0  0  0  0
    7.4047   -0.7050   20.9265 C   0  0  0  0  0  0  0  0  0  0  0  0
    6.7422   -1.5664   21.8481 C   0  0  0  0  0  0  0  0  0  0  0  0
    5.6665   -1.7045   21.7420 H   0  0  0  0  0  0  0  0  0  0  0  0
    7.4496   -2.2059   22.8156 C   0  0  0  0  0  0  0  0  0  0  0  0
    7.0154   -2.8795   23.5367 H   0  0  0  0  0  0  0  0  0  0  0  0
    8.8876   -2.0349   22.9750 C   0  0  0  0  0  0  0  0  0  0  0  0
    9.5480   -2.6676   23.7796 O   0  0  0  0  0  0  0  0  0  0  0  0
    9.4558   -1.0457   22.1217 N   0  0  0  0  0  0  0  0  0  0  0  0
   10.8224   -0.6659   22.2949 C   0  0  0  0  0  0  0  0  0  0  0  0
   11.1546    0.6436   22.6639 C   0  0  0  0  0  0  0  0  0  0  0  0
   10.3784    1.3574   22.9201 H   0  0  0  0  0  0  0  0  0  0  0  0
   12.5061    1.0042   22.6563 C   0  0  0  0  0  0  0  0  0  0  0  0
   12.9618    2.6035   23.1362 Cl  0  0  0  0  0  0  0  0  0  0  0  0
   13.5027    0.1177   22.2460 C   0  0  0  0  0  0  0  0  0  0  0  0
   14.5331    0.4481   22.1620 H   0  0  0  0  0  0  0  0  0  0  0  0
   13.1264   -1.1786   21.8961 C   0  0  0  0  0  0  0  0  0  0  0  0
   14.3016   -2.2588   21.2442 Cl  0  0  0  0  0  0  0  0  0  0  0  0
   11.8074   -1.6057   22.0009 C   0  0  0  0  0  0  0  0  0  0  0  0
   11.5490   -2.6430   21.8656 H   0  0  0  0  0  0  0  0  0  0  0  0
    8.7423   -0.4832   21.0890 C   0  0  0  0  0  0  0  0  0  0  0  0
    9.2987    0.1643   20.4212 H   0  0  0  0  0  0  0  0  0  0  0  0
    5.4619    0.6384   20.0573 C   0  0  0  0  0  0  0  0  0  0  0  0
    5.0137    0.6357   21.0521 H   0  0  0  0  0  0  0  0  0  0  0  0
    4.8792    1.3292   18.9942 C   0  0  0  0  0  0  0  0  0  0  0  0
    3.9671    1.8989   19.1227 H   0  0  0  0  0  0  0  0  0  0  0  0
  1  2  1  0
  2  3  2  0
  3  4  1  0
  4  5  1  0
  4  6  2  0
  6  7  1  0
  7  8  1  0
  8  9  1  0
  8 10  2  0
 10 11  1  0
 10 12  1  0
 12 13  2  0
 12 14  1  0
 14 15  1  0
 15 16  2  0
 16 17  1  0
 16 18  1  0
 18 19  1  0
 18 20  2  0
 20 21  1  0
 20 22  1  0
 22 23  1  0
 22 24  2  0
 24 25  1  0
 14 26  1  0
 26 27  1  0
  6 28  1  0
 28 29  1  0
 28 30  2  0
 30 31  1  0
 30  2  1  0
 26  7  2  0
 24 15  1  0
M  END
>  <cnnaffinity>  (1) 
-5.61881

>  <filename>  (1) 
O=c1ccc(-c2cccnc2)cn1-c1cc(Cl)cc(Cl)c1

$$$$
