
     RDKit          3D

 29 31  0  0  0  0  0  0  0  0999 V2000
    5.2481    2.1565   16.4817 H   0  0  0  0  0  0  0  0  0  0  0  0
    5.5645    1.5533   17.3270 C   0  0  0  0  0  0  0  0  0  0  0  0
    6.5918    0.6991   17.1706 N   0  0  0  0  0  0  0  0  0  0  0  0
    6.9680   -0.0454   18.2306 C   0  0  0  0  0  0  0  0  0  0  0  0
    7.8041   -0.7300   18.1058 H   0  0  0  0  0  0  0  0  0  0  0  0
    6.3356    0.0329   19.4845 C   0  0  0  0  0  0  0  0  0  0  0  0
    6.7732   -0.8128   20.5888 C   0  0  0  0  0  0  0  0  0  0  0  0
    6.4596   -0.6855   21.9151 C   0  0  0  0  0  0  0  0  0  0  0  0
    5.8101    0.0794   22.3312 H   0  0  0  0  0  0  0  0  0  0  0  0
    7.1580   -1.6617   22.6318 N   0  0  0  0  0  0  0  0  0  0  0  0
    7.5892   -1.4687   23.9435 C   0  0  0  0  0  0  0  0  0  0  0  0
    8.3221   -2.4600   24.6020 C   0  0  0  0  0  0  0  0  0  0  0  0
    8.5006   -3.4112   24.1024 H   0  0  0  0  0  0  0  0  0  0  0  0
    8.8427   -2.2051   25.8802 C   0  0  0  0  0  0  0  0  0  0  0  0
    9.4437   -2.9490   26.3907 H   0  0  0  0  0  0  0  0  0  0  0  0
    8.6097   -0.9858   26.5230 C   0  0  0  0  0  0  0  0  0  0  0  0
    9.3845   -0.6595   28.2267 Br  0  0  0  0  0  0  0  0  0  0  0  0
    7.8507   -0.0028   25.8805 C   0  0  0  0  0  0  0  0  0  0  0  0
    7.6564    0.9453   26.3733 H   0  0  0  0  0  0  0  0  0  0  0  0
    7.3668   -0.2432   24.5872 C   0  0  0  0  0  0  0  0  0  0  0  0
    6.8350    0.5237   24.0343 H   0  0  0  0  0  0  0  0  0  0  0  0
    7.8922   -2.3956   21.7209 C   0  0  0  0  0  0  0  0  0  0  0  0
    8.7131   -3.2809   21.9078 O   0  0  0  0  0  0  0  0  0  0  0  0
    7.6289   -1.8912   20.4791 N   0  0  0  0  0  0  0  0  0  0  0  0
    8.3382   -1.9710   19.7637 H   0  0  0  0  0  0  0  0  0  0  0  0
    5.2721    0.9229   19.6399 C   0  0  0  0  0  0  0  0  0  0  0  0
    4.7567    1.0083   20.5946 H   0  0  0  0  0  0  0  0  0  0  0  0
    4.8838    1.6830   18.5396 C   0  0  0  0  0  0  0  0  0  0  0  0
    4.0608    2.3829   18.6087 H   0  0  0  0  0  0  0  0  0  0  0  0
  1  2  1  0
  2  3  2  0
  3  4  1  0
  4  5  1  0
  4  6  2  0
  6  7  1  0
  7  8  2  0
  8  9  1  0
  8 10  1  0
 10 11  1  0
 11 12  2  0
 12 13  1  0
 12 14  1  0
 14 15  1  0
 14 16  2  0
 16 17  1  0
 16 18  1  0
 18 19  1  0
 18 20  2  0
 20 21  1  0
 10 22  1  0
 22 23  2  0
 22 24  1  0
 24 25  1  0
  6 26  1  0
 26 27  1  0
 26 28  2  0
 28 29  1  0
 28  2  1  0
 24  7  1  0
 20 11  1  0
M  END
>  <cnnaffinity>  (1) 
-4.80267

>  <filename>  (1) 
O=c1[nH]c(-c2cccnc2)cn1-c1ccc(Br)cc1

$$$$
