
     RDKit          3D

 42 44  0  0  0  0  0  0  0  0999 V2000
    4.9509    1.8652   16.9262 H   0  0  0  0  0  0  0  0  0  0  0  0
    5.4003    1.3438   17.7687 C   0  0  0  0  0  0  0  0  0  0  0  0
    6.5619    0.7178   17.5208 N   0  0  0  0  0  0  0  0  0  0  0  0
    7.1513    0.0725   18.5357 C   0  0  0  0  0  0  0  0  0  0  0  0
    8.0948   -0.4280   18.3242 H   0  0  0  0  0  0  0  0  0  0  0  0
    6.6132    0.0170   19.8371 C   0  0  0  0  0  0  0  0  0  0  0  0
    7.3029   -0.6501   20.9195 N   0  0  0  0  0  0  0  0  0  0  0  0
    7.8554    0.1195   21.9479 C   0  0  0  0  0  0  0  0  0  0  0  0
    7.6987    1.1949   21.8620 H   0  0  0  0  0  0  0  0  0  0  0  0
    8.5137   -0.4466   22.9825 C   0  0  0  0  0  0  0  0  0  0  0  0
    8.8674    0.2739   24.2587 C   0  0  0  0  0  0  0  0  0  0  0  0
    9.0652    1.3410   24.0839 H   0  0  0  0  0  0  0  0  0  0  0  0
    9.8015   -0.1657   24.6306 H   0  0  0  0  0  0  0  0  0  0  0  0
    7.7037    0.1019   25.3037 C   0  0  0  0  0  0  0  0  0  0  0  0
    6.8441    0.6455   24.8872 H   0  0  0  0  0  0  0  0  0  0  0  0
    7.4044   -0.9727   25.2849 H   0  0  0  0  0  0  0  0  0  0  0  0
    7.8968    0.5650   26.6677 N   0  0  0  0  0  0  0  0  0  0  0  0
    8.7841   -0.2119   27.5264 C   0  0  0  0  0  0  0  0  0  0  0  0
    8.2358   -1.7736   27.2924 H   0  0  0  0  0  0  0  0  0  0  0  0
    9.6692   -0.2475   26.6867 H   0  0  0  0  0  0  0  0  0  0  0  0
    8.8955    0.0559   27.5850 C   0  0  0  0  0  0  0  0  0  0  0  0
    8.1989   -0.0313   28.6170 H   0  0  0  0  0  0  0  0  0  0  0  0
    9.5726   -0.5550   28.4503 H   0  0  0  0  0  0  0  0  0  0  0  0
    7.4864    0.7866   29.6311 C   0  0  0  0  0  0  0  0  0  0  0  0
    8.1616    1.0678   30.4543 H   0  0  0  0  0  0  0  0  0  0  0  0
    6.6300    0.2057   30.0029 H   0  0  0  0  0  0  0  0  0  0  0  0
    7.1250    1.9227   28.6532 C   0  0  0  0  0  0  0  0  0  0  0  0
    6.2674    2.4923   29.0166 H   0  0  0  0  0  0  0  0  0  0  0  0
    7.9694    2.6122   28.5464 H   0  0  0  0  0  0  0  0  0  0  0  0
    6.8050    1.3576   27.2368 C   0  0  0  0  0  0  0  0  0  0  0  0
    5.8590    0.7725   27.2852 H   0  0  0  0  0  0  0  0  0  0  0  0
    6.6020    2.1966   26.5541 H   0  0  0  0  0  0  0  0  0  0  0  0
    8.7332   -1.9093   22.9536 C   0  0  0  0  0  0  0  0  0  0  0  0
    9.2368   -2.5845   23.8266 O   0  0  0  0  0  0  0  0  0  0  0  0
    8.2775   -2.5573   21.8264 N   0  0  0  0  0  0  0  0  0  0  0  0
    8.2188   -3.5502   21.9447 H   0  0  0  0  0  0  0  0  0  0  0  0
    7.2968   -2.0603   21.0141 C   0  0  0  0  0  0  0  0  0  0  0  0
    6.5435   -2.8031   20.4354 O   0  0  0  0  0  0  0  0  0  0  0  0
    5.4008    0.6682   20.0794 C   0  0  0  0  0  0  0  0  0  0  0  0
    4.9731    0.6386   21.0822 H   0  0  0  0  0  0  0  0  0  0  0  0
    4.7785    1.3413   19.0219 C   0  0  0  0  0  0  0  0  0  0  0  0
    3.8473    1.8780   19.1628 H   0  0  0  0  0  0  0  0  0  0  0  0
  1  2  1  0
  2  3  2  0
  3  4  1  0
  4  5  1  0
  4  6  2  0
  6  7  1  0
  7  8  1  0
  8  9  1  0
  8 10  2  0
 10 11  1  0
 11 12  1  0
 11 13  1  0
 11 14  1  0
 14 15  1  0
 14 16  1  0
 14 17  1  0
 17 18  1  0
 18 19  1  0
 18 20  1  0
 18 21  1  0
 21 22  1  0
 21 23  1  0
 21 24  1  0
 24 25  1  0
 24 26  1  0
 24 27  1  0
 27 28  1  0
 27 29  1  0
 27 30  1  0
 30 31  1  0
 30 32  1  0
 10 33  1  0
 33 34  2  0
 33 35  1  0
 35 36  1  0
 35 37  1  0
 37 38  2  0
  6 39  1  0
 39 40  1  0
 39 41  2  0
 41 42  1  0
 41  2  1  0
 37  7  1  0
 30 17  1  0
M  END
>  <cnnaffinity>  (1) 
-4.89844

>  <filename>  (1) 
O=c1[nH]c(=O)n(-c2cccnc2)cc1CCN1CCCCC1

$$$$
