
     RDKit          3D

 34 37  0  0  0  0  0  0  0  0999 V2000
    4.9333    1.7931   16.9856 H   0  0  0  0  0  0  0  0  0  0  0  0
    5.3937    1.2958   17.8349 C   0  0  0  0  0  0  0  0  0  0  0  0
    6.5482    0.6661   17.5792 N   0  0  0  0  0  0  0  0  0  0  0  0
    7.1438    0.0428   18.5991 C   0  0  0  0  0  0  0  0  0  0  0  0
    8.1104   -0.4150   18.3873 H   0  0  0  0  0  0  0  0  0  0  0  0
    6.6154   -0.0080   19.8988 C   0  0  0  0  0  0  0  0  0  0  0  0
    7.3229   -0.7243   20.9711 C   0  0  0  0  0  0  0  0  0  0  0  0
    6.5927   -1.4802   21.7672 N   0  0  0  0  0  0  0  0  0  0  0  0
    7.1999   -2.1838   22.7957 C   0  0  0  0  0  0  0  0  0  0  0  0
    6.3774   -3.0389   23.6732 C   0  0  0  0  0  0  0  0  0  0  0  0
    6.7414   -3.7982   24.7617 C   0  0  0  0  0  0  0  0  0  0  0  0
    7.7362   -3.9289   25.1693 H   0  0  0  0  0  0  0  0  0  0  0  0
    5.5618   -4.4105   25.2719 C   0  0  0  0  0  0  0  0  0  0  0  0
    5.3229   -5.2907   26.3454 C   0  0  0  0  0  0  0  0  0  0  0  0
    6.1645   -5.6192   26.9526 H   0  0  0  0  0  0  0  0  0  0  0  0
    4.0243   -5.7122   26.5858 C   0  0  0  0  0  0  0  0  0  0  0  0
    3.8333   -6.3929   27.4080 H   0  0  0  0  0  0  0  0  0  0  0  0
    2.9506   -5.2634   25.7730 C   0  0  0  0  0  0  0  0  0  0  0  0
    1.9451   -5.6124   25.9923 H   0  0  0  0  0  0  0  0  0  0  0  0
    3.1597   -4.3958   24.7059 C   0  0  0  0  0  0  0  0  0  0  0  0
    2.3338   -4.0510   24.0898 H   0  0  0  0  0  0  0  0  0  0  0  0
    4.4801   -3.9829   24.4516 C   0  0  0  0  0  0  0  0  0  0  0  0
    5.0182   -3.1798   23.4762 N   0  0  0  0  0  0  0  0  0  0  0  0
    4.5339   -2.5936   22.8116 H   0  0  0  0  0  0  0  0  0  0  0  0
    8.5470   -2.0949   23.0215 C   0  0  0  0  0  0  0  0  0  0  0  0
    9.0332   -2.6290   23.8258 H   0  0  0  0  0  0  0  0  0  0  0  0
    9.3150   -1.3045   22.2160 N   0  0  0  0  0  0  0  0  0  0  0  0
   10.3123   -1.1465   22.2970 H   0  0  0  0  0  0  0  0  0  0  0  0
    8.8200   -0.5511   21.1591 C   0  0  0  0  0  0  0  0  0  0  0  0
    9.6267    0.1326   20.5515 O   0  0  0  0  0  0  0  0  0  0  0  0
    5.4001    0.6464   20.1497 C   0  0  0  0  0  0  0  0  0  0  0  0
    4.9662    0.6379   21.1525 H   0  0  0  0  0  0  0  0  0  0  0  0
    4.7902    1.3223   19.0973 C   0  0  0  0  0  0  0  0  0  0  0  0
    3.8635    1.8627   19.2386 H   0  0  0  0  0  0  0  0  0  0  0  0
  1  2  1  0
  2  3  2  0
  3  4  1  0
  4  5  1  0
  4  6  2  0
  6  7  1  0
  7  8  2  0
  8  9  1  0
  9 10  1  0
 10 11  2  0
 11 12  1  0
 11 13  1  0
 13 14  2  0
 14 15  1  0
 14 16  1  0
 16 17  1  0
 16 18  2  0
 18 19  1  0
 18 20  1  0
 20 21  1  0
 20 22  2  0
 22 23  1  0
 23 24  1  0
  9 25  2  0
 25 26  1  0
 25 27  1  0
 27 28  1  0
 27 29  1  0
 29 30  2  0
  6 31  1  0
 31 32  1  0
 31 33  2  0
 33 34  1  0
 33  2  1  0
 29  7  1  0
 23 10  1  0
 22 13  1  0
M  END
>  <cnnaffinity>  (1) 
-5.41449

>  <filename>  (1) 
O=c1[nH]cc(-c2cc3ccccc3[nH]2)nc1-c1cccnc1

$$$$
