
     RDKit          3D

 27 29  0  0  0  0  0  0  0  0999 V2000
   14.5109   -0.3877   22.5753 H   0  0  0  0  0  0  0  0  0  0  0  0
   13.4621   -0.1592   22.4432 C   0  0  0  0  0  0  0  0  0  0  0  0
   12.5466   -1.1811   22.4596 N   0  0  0  0  0  0  0  0  0  0  0  0
   11.3601   -0.6952   22.2961 C   0  0  0  0  0  0  0  0  0  0  0  0
   10.3274   -1.5628   22.4481 N   0  0  0  0  0  0  0  0  0  0  0  0
   10.7016   -2.4525   22.7231 H   0  0  0  0  0  0  0  0  0  0  0  0
    9.0225   -1.4107   22.1360 C   0  0  0  0  0  0  0  0  0  0  0  0
    7.9801   -2.1585   22.5227 C   0  0  0  0  0  0  0  0  0  0  0  0
    7.9399   -2.8729   23.3188 H   0  0  0  0  0  0  0  0  0  0  0  0
    6.8546   -1.8023   21.6947 C   0  0  0  0  0  0  0  0  0  0  0  0
    5.7297   -2.2666   21.6588 O   0  0  0  0  0  0  0  0  0  0  0  0
    7.3695   -0.7710   20.8454 N   0  0  0  0  0  0  0  0  0  0  0  0
    6.7272   -0.0418   19.8255 C   0  0  0  0  0  0  0  0  0  0  0  0
    7.2748    0.0714   18.5268 C   0  0  0  0  0  0  0  0  0  0  0  0
    8.2257   -0.4030   18.2762 H   0  0  0  0  0  0  0  0  0  0  0  0
    6.6637    0.7214   17.5317 N   0  0  0  0  0  0  0  0  0  0  0  0
    5.4868    1.3122   17.8038 C   0  0  0  0  0  0  0  0  0  0  0  0
    5.0179    1.8308   16.9741 H   0  0  0  0  0  0  0  0  0  0  0  0
    4.8765    1.2800   19.0625 C   0  0  0  0  0  0  0  0  0  0  0  0
    3.9409    1.8053   19.2215 H   0  0  0  0  0  0  0  0  0  0  0  0
    5.5040    0.5849   20.0985 C   0  0  0  0  0  0  0  0  0  0  0  0
    5.0878    0.5322   21.1046 H   0  0  0  0  0  0  0  0  0  0  0  0
    8.6777   -0.4282   21.2487 N   0  0  0  0  0  0  0  0  0  0  0  0
    9.3650   -0.2864   20.5171 H   0  0  0  0  0  0  0  0  0  0  0  0
   11.2586    1.0214   22.0494 S   0  0  0  0  0  0  0  0  0  0  0  0
   12.9728    1.0871   22.2648 C   0  0  0  0  0  0  0  0  0  0  0  0
   13.5123    2.0175   22.2741 H   0  0  0  0  0  0  0  0  0  0  0  0
  1  2  1  0
  2  3  1  0
  3  4  2  0
  4  5  1  0
  5  6  1  0
  5  7  1  0
  7  8  2  0
  8  9  1  0
  8 10  1  0
 10 11  2  0
 10 12  1  0
 12 13  1  0
 13 14  2  0
 14 15  1  0
 14 16  1  0
 16 17  2  0
 17 18  1  0
 17 19  1  0
 19 20  1  0
 19 21  2  0
 21 22  1  0
 12 23  1  0
 23 24  1  0
  4 25  1  0
 25 26  1  0
 26 27  1  0
 26  2  2  0
 23  7  1  0
 21 13  1  0
M  END
>  <cnnaffinity>  (1) 
-4.94868

>  <filename>  (1) 
O=c1cc(Nc2nccs2)[nH]n1-c1cccnc1

$$$$
