
     RDKit          3D

 32 34  0  0  0  0  0  0  0  0999 V2000
    7.9947   -5.3479   26.0765 H   0  0  0  0  0  0  0  0  0  0  0  0
    7.8137   -5.6540   24.8013 C   0  0  0  0  0  0  0  0  0  0  0  0
    8.0407   -4.4627   24.0154 N   0  0  0  0  0  0  0  0  0  0  0  0
    8.0434   -4.6458   22.6432 C   0  0  0  0  0  0  0  0  0  0  0  0
    7.8520   -3.5909   21.8607 N   0  0  0  0  0  0  0  0  0  0  0  0
    7.6618   -3.8840   20.9160 H   0  0  0  0  0  0  0  0  0  0  0  0
    7.8764   -2.1775   21.9810 C   0  0  0  0  0  0  0  0  0  0  0  0
    8.5240   -1.4491   23.0270 C   0  0  0  0  0  0  0  0  0  0  0  0
    9.0498   -2.0182   23.7913 H   0  0  0  0  0  0  0  0  0  0  0  0
    8.4413   -0.0855   23.0689 C   0  0  0  0  0  0  0  0  0  0  0  0
    8.8875    0.5109   23.8529 H   0  0  0  0  0  0  0  0  0  0  0  0
    7.7130    0.7034   22.0812 C   0  0  0  0  0  0  0  0  0  0  0  0
    7.5709    1.9103   22.1520 O   0  0  0  0  0  0  0  0  0  0  0  0
    7.2023   -0.0781   20.9836 N   0  0  0  0  0  0  0  0  0  0  0  0
    6.5774    0.5331   19.8368 C   0  0  0  0  0  0  0  0  0  0  0  0
    7.1319    0.3738   18.5510 C   0  0  0  0  0  0  0  0  0  0  0  0
    8.0973   -0.1220   18.4476 H   0  0  0  0  0  0  0  0  0  0  0  0
    6.5424    0.7981   17.4286 N   0  0  0  0  0  0  0  0  0  0  0  0
    5.3545    1.4133   17.5527 C   0  0  0  0  0  0  0  0  0  0  0  0
    4.8929    1.7342   16.6232 H   0  0  0  0  0  0  0  0  0  0  0  0
    4.7291    1.6376   18.7832 C   0  0  0  0  0  0  0  0  0  0  0  0
    3.7754    2.1508   18.8144 H   0  0  0  0  0  0  0  0  0  0  0  0
    5.3603    1.2086   19.9570 C   0  0  0  0  0  0  0  0  0  0  0  0
    4.9398    1.3850   20.9455 H   0  0  0  0  0  0  0  0  0  0  0  0
    7.2613   -1.4606   20.9936 C   0  0  0  0  0  0  0  0  0  0  0  0
    6.7745   -1.9589   20.1640 H   0  0  0  0  0  0  0  0  0  0  0  0
    8.2425   -5.9435   22.0323 C   0  0  0  0  0  0  0  0  0  0  0  0
    8.1518   -5.9717   20.9466 H   0  0  0  0  0  0  0  0  0  0  0  0
    8.6331   -7.0005   22.7704 C   0  0  0  0  0  0  0  0  0  0  0  0
    8.9844   -7.9425   22.3494 H   0  0  0  0  0  0  0  0  0  0  0  0
    7.9433   -5.6368   24.8338 C   0  0  0  0  0  0  0  0  0  0  0  0
    8.5766   -6.5311   24.1531 H   0  0  0  0  0  0  0  0  0  0  0  0
  1  2  1  0
  2  3  2  0
  3  4  1  0
  4  5  1  0
  5  6  1  0
  5  7  1  0
  7  8  1  0
  8  9  1  0
  8 10  2  0
 10 11  1  0
 10 12  1  0
 12 13  2  0
 12 14  1  0
 14 15  1  0
 15 16  2  0
 16 17  1  0
 16 18  1  0
 18 19  2  0
 19 20  1  0
 19 21  1  0
 21 22  1  0
 21 23  2  0
 23 24  1  0
 14 25  1  0
 25 26  1  0
  4 27  2  0
 27 28  1  0
 27 29  1  0
 29 30  1  0
 29 31  2  0
 31 32  1  0
 31  2  1  0
 25  7  2  0
 23 15  1  0
M  END
>  <cnnaffinity>  (1) 
-5.26564

>  <filename>  (1) 
O=c1ccc(Nc2ccccn2)cn1-c1cccnc1

$$$$
