
     RDKit          3D

 32 34  0  0  0  0  0  0  0  0999 V2000
   10.2703   -0.5970   22.5413 H   0  0  0  0  0  0  0  0  0  0  0  0
    9.2287   -0.8104   22.3604 C   0  0  0  0  0  0  0  0  0  0  0  0
    8.5718   -1.7344   23.0850 C   0  0  0  0  0  0  0  0  0  0  0  0
    9.1761   -2.6439   24.0980 C   0  0  0  0  0  0  0  0  0  0  0  0
   10.3461   -3.3515   23.7557 C   0  0  0  0  0  0  0  0  0  0  0  0
   10.8201   -3.1857   22.7903 H   0  0  0  0  0  0  0  0  0  0  0  0
   10.8885   -4.3081   24.6104 C   0  0  0  0  0  0  0  0  0  0  0  0
   11.7627   -4.8694   24.3073 H   0  0  0  0  0  0  0  0  0  0  0  0
   10.2846   -4.5794   25.8353 C   0  0  0  0  0  0  0  0  0  0  0  0
   10.6838   -5.3277   26.5130 H   0  0  0  0  0  0  0  0  0  0  0  0
    9.1425   -3.8733   26.2171 C   0  0  0  0  0  0  0  0  0  0  0  0
    8.4101   -4.2875   27.7286 Cl  0  0  0  0  0  0  0  0  0  0  0  0
    8.5903   -2.9000   25.3640 C   0  0  0  0  0  0  0  0  0  0  0  0
    7.2002   -2.0068   25.8787 Cl  0  0  0  0  0  0  0  0  0  0  0  0
    7.2261   -1.9394   22.8064 N   0  0  0  0  0  0  0  0  0  0  0  0
    6.7374   -2.7505   23.1481 H   0  0  0  0  0  0  0  0  0  0  0  0
    6.6513   -1.6561   21.5840 C   0  0  0  0  0  0  0  0  0  0  0  0
    5.6714   -2.2837   21.2519 O   0  0  0  0  0  0  0  0  0  0  0  0
    7.2904   -0.6835   20.8290 N   0  0  0  0  0  0  0  0  0  0  0  0
    6.5904   -0.0334   19.7560 C   0  0  0  0  0  0  0  0  0  0  0  0
    7.1315    0.0630   18.4556 C   0  0  0  0  0  0  0  0  0  0  0  0
    8.0757   -0.4347   18.2246 H   0  0  0  0  0  0  0  0  0  0  0  0
    6.5513    0.7443   17.4596 N   0  0  0  0  0  0  0  0  0  0  0  0
    5.3960    1.3800   17.7167 C   0  0  0  0  0  0  0  0  0  0  0  0
    4.9579    1.9352   16.8885 H   0  0  0  0  0  0  0  0  0  0  0  0
    4.7689    1.3352   18.9638 C   0  0  0  0  0  0  0  0  0  0  0  0
    3.8415    1.8753   19.1139 H   0  0  0  0  0  0  0  0  0  0  0  0
    5.3659    0.6027   19.9958 C   0  0  0  0  0  0  0  0  0  0  0  0
    4.9142    0.5368   20.9818 H   0  0  0  0  0  0  0  0  0  0  0  0
    8.5007   -0.0029   21.3249 C   0  0  0  0  0  0  0  0  0  0  0  0
    9.1701    0.1983   20.4742 H   0  0  0  0  0  0  0  0  0  0  0  0
    8.2153    0.9958   21.7062 H   0  0  0  0  0  0  0  0  0  0  0  0
  1  2  1  0
  2  3  2  0
  3  4  1  0
  4  5  2  0
  5  6  1  0
  5  7  1  0
  7  8  1  0
  7  9  2  0
  9 10  1  0
  9 11  1  0
 11 12  1  0
 11 13  2  0
 13 14  1  0
  3 15  1  0
 15 16  1  0
 15 17  1  0
 17 18  2  0
 17 19  1  0
 19 20  1  0
 20 21  2  0
 21 22  1  0
 21 23  1  0
 23 24  2  0
 24 25  1  0
 24 26  1  0
 26 27  1  0
 26 28  2  0
 28 29  1  0
 19 30  1  0
 30 31  1  0
 30 32  1  0
 30  2  1  0
 13  4  1  0
 28 20  1  0
M  END
>  <cnnaffinity>  (1) 
-5.33061

>  <filename>  (1) 
O=C1NC(c2cccc(Cl)c2Cl)=CCN1c1cccnc1

$$$$
