
     RDKit          3D

 33 35  0  0  0  0  0  0  0  0999 V2000
    4.9345    1.8184   16.9716 H   0  0  0  0  0  0  0  0  0  0  0  0
    5.4165    1.3252   17.8123 C   0  0  0  0  0  0  0  0  0  0  0  0
    6.5804    0.7131   17.5442 N   0  0  0  0  0  0  0  0  0  0  0  0
    7.1958    0.0759   18.5511 C   0  0  0  0  0  0  0  0  0  0  0  0
    8.1421   -0.4105   18.3151 H   0  0  0  0  0  0  0  0  0  0  0  0
    6.6703    0.0003   19.8571 C   0  0  0  0  0  0  0  0  0  0  0  0
    7.3653   -0.7016   20.9171 N   0  0  0  0  0  0  0  0  0  0  0  0
    8.6273   -0.2659   21.2715 C   0  0  0  0  0  0  0  0  0  0  0  0
    9.0112    0.5639   20.6838 H   0  0  0  0  0  0  0  0  0  0  0  0
    9.3382   -0.8300   22.2927 C   0  0  0  0  0  0  0  0  0  0  0  0
   10.7155   -0.3589   22.6168 C   0  0  0  0  0  0  0  0  0  0  0  0
   11.6685   -1.2581   22.3554 N   0  0  0  0  0  0  0  0  0  0  0  0
   12.9445   -0.9224   22.5535 C   0  0  0  0  0  0  0  0  0  0  0  0
   13.6723   -1.6888   22.3025 H   0  0  0  0  0  0  0  0  0  0  0  0
   13.3475    0.3032   23.0863 C   0  0  0  0  0  0  0  0  0  0  0  0
   14.3995    0.4953   23.2617 H   0  0  0  0  0  0  0  0  0  0  0  0
   12.3711    1.2446   23.3819 C   0  0  0  0  0  0  0  0  0  0  0  0
   12.6311    2.2179   23.7978 H   0  0  0  0  0  0  0  0  0  0  0  0
   11.0334    0.9051   23.1482 C   0  0  0  0  0  0  0  0  0  0  0  0
    9.9181    1.8677   23.4138 C   0  0  0  0  0  0  0  0  0  0  0  0
    9.5254    2.4540   22.2591 F   0  0  0  0  0  0  0  0  0  0  0  0
    8.8399    1.2651   23.9452 F   0  0  0  0  0  0  0  0  0  0  0  0
   10.2595    2.8568   24.2558 F   0  0  0  0  0  0  0  0  0  0  0  0
    8.7843   -1.9589   22.9717 C   0  0  0  0  0  0  0  0  0  0  0  0
    9.3733   -2.4844   23.7306 H   0  0  0  0  0  0  0  0  0  0  0  0
    7.5319   -2.3905   22.6656 C   0  0  0  0  0  0  0  0  0  0  0  0
    7.0341   -3.2108   23.1637 H   0  0  0  0  0  0  0  0  0  0  0  0
    6.7291   -1.7978   21.6056 C   0  0  0  0  0  0  0  0  0  0  0  0
    5.6271   -2.2129   21.2920 O   0  0  0  0  0  0  0  0  0  0  0  0
    5.4596    0.6523   20.1210 C   0  0  0  0  0  0  0  0  0  0  0  0
    5.0442    0.6137   21.1262 H   0  0  0  0  0  0  0  0  0  0  0  0
    4.8177    1.3315   19.0770 C   0  0  0  0  0  0  0  0  0  0  0  0
    3.8708    1.8458   19.2241 H   0  0  0  0  0  0  0  0  0  0  0  0
  1  2  1  0
  2  3  2  0
  3  4  1  0
  4  5  1  0
  4  6  2  0
  6  7  1  0
  7  8  1  0
  8  9  1  0
  8 10  2  0
 10 11  1  0
 11 12  2  0
 12 13  1  0
 13 14  1  0
 13 15  2  0
 15 16  1  0
 15 17  1  0
 17 18  1  0
 17 19  2  0
 19 20  1  0
 20 21  1  0
 20 22  1  0
 20 23  1  0
 10 24  1  0
 24 25  1  0
 24 26  2  0
 26 27  1  0
 26 28  1  0
 28 29  2  0
  6 30  1  0
 30 31  1  0
 30 32  2  0
 32 33  1  0
 32  2  1  0
 28  7  1  0
 19 11  1  0
M  END
>  <cnnaffinity>  (1) 
-5.78142

>  <filename>  (1) 
O=c1ccc(-c2ncccc2C(F)(F)F)cn1-c1cccnc1

$$$$
