
     RDKit          3D

 32 34  0  0  0  0  0  0  0  0999 V2000
    7.0460   -0.8893   26.5437 H   0  0  0  0  0  0  0  0  0  0  0  0
    6.8911   -0.0585   27.0203 O   0  0  0  0  0  0  0  0  0  0  0  0
    7.4428    0.9507   26.3002 C   0  0  0  0  0  0  0  0  0  0  0  0
    7.3624    2.2493   26.8056 C   0  0  0  0  0  0  0  0  0  0  0  0
    6.8659    2.3958   27.7549 H   0  0  0  0  0  0  0  0  0  0  0  0
    7.9018    3.3195   26.0830 C   0  0  0  0  0  0  0  0  0  0  0  0
    7.7912    4.9319   26.7186 Cl  0  0  0  0  0  0  0  0  0  0  0  0
    8.5420    3.1129   24.8604 C   0  0  0  0  0  0  0  0  0  0  0  0
    8.9421    3.9416   24.2867 H   0  0  0  0  0  0  0  0  0  0  0  0
    8.6299    1.8121   24.3553 C   0  0  0  0  0  0  0  0  0  0  0  0
    9.0955    1.6077   23.3969 H   0  0  0  0  0  0  0  0  0  0  0  0
    8.0633    0.7463   25.0521 C   0  0  0  0  0  0  0  0  0  0  0  0
    8.0972   -0.5667   24.5914 O   0  0  0  0  0  0  0  0  0  0  0  0
    7.9864   -0.8238   23.2763 C   0  0  0  0  0  0  0  0  0  0  0  0
    7.2795   -0.1227   22.3393 C   0  0  0  0  0  0  0  0  0  0  0  0
    6.7562    0.7696   22.6133 H   0  0  0  0  0  0  0  0  0  0  0  0
    7.3515   -0.5773   21.0006 C   0  0  0  0  0  0  0  0  0  0  0  0
    6.6185    0.1210   19.9375 C   0  0  0  0  0  0  0  0  0  0  0  0
    7.1446    0.0889   18.6409 C   0  0  0  0  0  0  0  0  0  0  0  0
    8.0738   -0.4508   18.4540 H   0  0  0  0  0  0  0  0  0  0  0  0
    6.5581    0.6835   17.6013 N   0  0  0  0  0  0  0  0  0  0  0  0
    5.3939    1.3123   17.8225 C   0  0  0  0  0  0  0  0  0  0  0  0
    4.9507    1.8046   16.9613 H   0  0  0  0  0  0  0  0  0  0  0  0
    4.7608    1.3502   19.0687 C   0  0  0  0  0  0  0  0  0  0  0  0
    3.8161    1.8675   19.1809 H   0  0  0  0  0  0  0  0  0  0  0  0
    5.3830    0.7391   20.1515 C   0  0  0  0  0  0  0  0  0  0  0  0
    4.9137    0.7040   21.1369 H   0  0  0  0  0  0  0  0  0  0  0  0
    8.0301   -1.6244   20.6220 N   0  0  0  0  0  0  0  0  0  0  0  0
    8.5155   -2.4403   21.5949 C   0  0  0  0  0  0  0  0  0  0  0  0
    8.8267   -3.5951   21.4384 O   0  0  0  0  0  0  0  0  0  0  0  0
    8.6472   -1.9165   22.8818 N   0  0  0  0  0  0  0  0  0  0  0  0
    9.1102   -2.5580   23.4944 H   0  0  0  0  0  0  0  0  0  0  0  0
  1  2  1  0
  2  3  1  0
  3  4  2  0
  4  5  1  0
  4  6  1  0
  6  7  1  0
  6  8  2  0
  8  9  1  0
  8 10  1  0
 10 11  1  0
 10 12  2  0
 12 13  1  0
 13 14  1  0
 14 15  2  0
 15 16  1  0
 15 17  1  0
 17 18  1  0
 18 19  2  0
 19 20  1  0
 19 21  1  0
 21 22  2  0
 22 23  1  0
 22 24  1  0
 24 25  1  0
 24 26  2  0
 26 27  1  0
 17 28  2  0
 28 29  1  0
 29 30  2  0
 29 31  1  0
 31 32  1  0
 12  3  1  0
 31 14  1  0
 26 18  1  0
M  END
>  <cnnaffinity>  (1) 
-5.28955

>  <filename>  (1) 
O=c1nc(-c2cccnc2)cc(Oc2ccc(Cl)cc2O)[nH]1

$$$$
