
     RDKit          3D

 32 34  0  0  0  0  0  0  0  0999 V2000
   13.0315    2.4197   21.7285 H   0  0  0  0  0  0  0  0  0  0  0  0
   13.1137    1.9091   22.5395 O   0  0  0  0  0  0  0  0  0  0  0  0
   12.6850    0.6311   22.2758 C   0  0  0  0  0  0  0  0  0  0  0  0
   13.6360   -0.3807   22.1958 C   0  0  0  0  0  0  0  0  0  0  0  0
   14.6894   -0.1531   22.2814 H   0  0  0  0  0  0  0  0  0  0  0  0
   13.2062   -1.6918   21.9954 C   0  0  0  0  0  0  0  0  0  0  0  0
   14.1410   -2.6501   21.8164 O   0  0  0  0  0  0  0  0  0  0  0  0
   13.6652   -3.4757   21.6110 H   0  0  0  0  0  0  0  0  0  0  0  0
   11.8472   -2.0148   22.0257 C   0  0  0  0  0  0  0  0  0  0  0  0
   11.4854   -3.0285   22.1313 H   0  0  0  0  0  0  0  0  0  0  0  0
   10.9259   -0.9781   22.0271 C   0  0  0  0  0  0  0  0  0  0  0  0
    9.5295   -1.2882   21.9591 N   0  0  0  0  0  0  0  0  0  0  0  0
    8.8192   -0.6375   20.9819 N   0  0  0  0  0  0  0  0  0  0  0  0
    7.5164   -0.7522   20.9754 C   0  0  0  0  0  0  0  0  0  0  0  0
    6.8025   -0.0198   19.9028 C   0  0  0  0  0  0  0  0  0  0  0  0
    7.3835    0.0319   18.6255 C   0  0  0  0  0  0  0  0  0  0  0  0
    8.3467   -0.4454   18.4555 H   0  0  0  0  0  0  0  0  0  0  0  0
    6.8087    0.6276   17.5755 N   0  0  0  0  0  0  0  0  0  0  0  0
    5.6348    1.2423   17.7839 C   0  0  0  0  0  0  0  0  0  0  0  0
    5.1910    1.7238   16.9153 H   0  0  0  0  0  0  0  0  0  0  0  0
    4.9908    1.2791   19.0246 C   0  0  0  0  0  0  0  0  0  0  0  0
    4.0581    1.8201   19.1274 H   0  0  0  0  0  0  0  0  0  0  0  0
    5.5789    0.6300   20.1085 C   0  0  0  0  0  0  0  0  0  0  0  0
    5.1060    0.6526   21.0932 H   0  0  0  0  0  0  0  0  0  0  0  0
    6.8185   -1.5384   21.9571 C   0  0  0  0  0  0  0  0  0  0  0  0
    5.7380   -1.5984   21.9024 H   0  0  0  0  0  0  0  0  0  0  0  0
    7.5238   -2.2226   22.9014 C   0  0  0  0  0  0  0  0  0  0  0  0
    7.0789   -2.8220   23.6867 H   0  0  0  0  0  0  0  0  0  0  0  0
    8.9805   -2.1712   22.9421 C   0  0  0  0  0  0  0  0  0  0  0  0
    9.6689   -2.7983   23.7292 O   0  0  0  0  0  0  0  0  0  0  0  0
   11.3250    0.3585   22.1255 C   0  0  0  0  0  0  0  0  0  0  0  0
   10.5884    1.1526   22.0983 H   0  0  0  0  0  0  0  0  0  0  0  0
  1  2  1  0
  2  3  1  0
  3  4  2  0
  4  5  1  0
  4  6  1  0
  6  7  1  0
  7  8  1  0
  6  9  2  0
  9 10  1  0
  9 11  1  0
 11 12  1  0
 12 13  1  0
 13 14  2  0
 14 15  1  0
 15 16  2  0
 16 17  1  0
 16 18  1  0
 18 19  2  0
 19 20  1  0
 19 21  1  0
 21 22  1  0
 21 23  2  0
 23 24  1  0
 14 25  1  0
 25 26  1  0
 25 27  2  0
 27 28  1  0
 27 29  1  0
 29 30  2  0
 11 31  2  0
 31 32  1  0
 31  3  1  0
 29 12  1  0
 23 15  1  0
M  END
>  <cnnaffinity>  (1) 
-5.82077

>  <filename>  (1) 
O=c1ccc(-c2cccnc2)nn1-c1cc(O)cc(O)c1

$$$$
