
     RDKit          3D

 32 34  0  0  0  0  0  0  0  0999 V2000
   10.7362    2.3542   23.1749 H   0  0  0  0  0  0  0  0  0  0  0  0
   10.2791    1.5479   22.9096 O   0  0  0  0  0  0  0  0  0  0  0  0
   11.2117    0.5733   22.7429 C   0  0  0  0  0  0  0  0  0  0  0  0
   12.5684    0.8586   22.9203 C   0  0  0  0  0  0  0  0  0  0  0  0
   12.8367    1.8684   23.2262 H   0  0  0  0  0  0  0  0  0  0  0  0
   13.5353   -0.1282   22.7030 C   0  0  0  0  0  0  0  0  0  0  0  0
   14.5857    0.1087   22.8722 H   0  0  0  0  0  0  0  0  0  0  0  0
   13.1352   -1.4059   22.2989 C   0  0  0  0  0  0  0  0  0  0  0  0
   13.8795   -2.1717   22.1120 H   0  0  0  0  0  0  0  0  0  0  0  0
   11.7746   -1.7196   22.1882 C   0  0  0  0  0  0  0  0  0  0  0  0
   11.4369   -2.7307   21.9751 H   0  0  0  0  0  0  0  0  0  0  0  0
   10.8054   -0.7341   22.3877 C   0  0  0  0  0  0  0  0  0  0  0  0
    9.4127   -1.0745   22.1941 N   0  0  0  0  0  0  0  0  0  0  0  0
    8.6954   -0.4263   21.2013 C   0  0  0  0  0  0  0  0  0  0  0  0
    9.2736    0.3072   20.6422 H   0  0  0  0  0  0  0  0  0  0  0  0
    7.3932   -0.6917   20.9453 C   0  0  0  0  0  0  0  0  0  0  0  0
    6.6682    0.0275   19.8579 C   0  0  0  0  0  0  0  0  0  0  0  0
    7.1725    0.1031   18.5389 C   0  0  0  0  0  0  0  0  0  0  0  0
    8.1120   -0.3877   18.2839 H   0  0  0  0  0  0  0  0  0  0  0  0
    6.5490    0.7180   17.5264 N   0  0  0  0  0  0  0  0  0  0  0  0
    5.3828    1.3279   17.7938 C   0  0  0  0  0  0  0  0  0  0  0  0
    4.9024    1.8267   16.9530 H   0  0  0  0  0  0  0  0  0  0  0  0
    4.7911    1.3363   19.0605 C   0  0  0  0  0  0  0  0  0  0  0  0
    3.8495    1.8588   19.2100 H   0  0  0  0  0  0  0  0  0  0  0  0
    5.4409    0.6666   20.1020 C   0  0  0  0  0  0  0  0  0  0  0  0
    5.0152    0.6103   21.1031 H   0  0  0  0  0  0  0  0  0  0  0  0
    6.7194   -1.7394   21.7621 C   0  0  0  0  0  0  0  0  0  0  0  0
    5.6208   -2.2259   21.6093 O   0  0  0  0  0  0  0  0  0  0  0  0
    7.4843   -2.2219   22.7986 N   0  0  0  0  0  0  0  0  0  0  0  0
    7.0564   -2.9362   23.3520 H   0  0  0  0  0  0  0  0  0  0  0  0
    8.8035   -2.0244   23.0391 C   0  0  0  0  0  0  0  0  0  0  0  0
    9.3564   -2.6358   23.9191 O   0  0  0  0  0  0  0  0  0  0  0  0
  1  2  1  0
  2  3  1  0
  3  4  2  0
  4  5  1  0
  4  6  1  0
  6  7  1  0
  6  8  2  0
  8  9  1  0
  8 10  1  0
 10 11  1  0
 10 12  2  0
 12 13  1  0
 13 14  1  0
 14 15  1  0
 14 16  2  0
 16 17  1  0
 17 18  2  0
 18 19  1  0
 18 20  1  0
 20 21  2  0
 21 22  1  0
 21 23  1  0
 23 24  1  0
 23 25  2  0
 25 26  1  0
 16 27  1  0
 27 28  2  0
 27 29  1  0
 29 30  1  0
 29 31  1  0
 31 32  2  0
 12  3  1  0
 31 13  1  0
 25 17  1  0
M  END
>  <cnnaffinity>  (1) 
-4.8757

>  <filename>  (1) 
O=c1[nH]c(=O)n(-c2ccccc2O)cc1-c1cccnc1

$$$$
