
     RDKit          3D

 37 39  0  0  0  0  0  0  0  0999 V2000
    5.2239    1.5924   16.5507 H   0  0  0  0  0  0  0  0  0  0  0  0
    5.7436    1.2878   17.4567 C   0  0  0  0  0  0  0  0  0  0  0  0
    6.9751    0.7844   17.2930 N   0  0  0  0  0  0  0  0  0  0  0  0
    7.6241    0.3702   18.3869 C   0  0  0  0  0  0  0  0  0  0  0  0
    8.6324   -0.0100   18.2289 H   0  0  0  0  0  0  0  0  0  0  0  0
    7.0939    0.4274   19.6806 C   0  0  0  0  0  0  0  0  0  0  0  0
    7.8509   -0.1451   20.7911 C   0  0  0  0  0  0  0  0  0  0  0  0
    8.6600   -1.2244   20.8234 C   0  0  0  0  0  0  0  0  0  0  0  0
    8.9776   -1.8587   20.0215 H   0  0  0  0  0  0  0  0  0  0  0  0
    9.0173   -1.4920   22.2024 C   0  0  0  0  0  0  0  0  0  0  0  0
    9.6371   -2.4134   22.7098 O   0  0  0  0  0  0  0  0  0  0  0  0
    8.4761   -0.4098   22.9284 N   0  0  0  0  0  0  0  0  0  0  0  0
    7.9308   -0.7356   24.2450 C   0  0  0  0  0  0  0  0  0  0  0  0
    8.7907   -1.0391   24.8421 H   0  0  0  0  0  0  0  0  0  0  0  0
    7.5179    0.1939   24.6504 H   0  0  0  0  0  0  0  0  0  0  0  0
    6.9674   -1.8206   24.1603 N   0  0  0  0  0  0  0  0  0  0  0  0
    6.1101   -1.4987   23.7316 H   0  0  0  0  0  0  0  0  0  0  0  0
    6.8312   -2.6060   25.3820 C   0  0  0  0  0  0  0  0  0  0  0  0
    5.9648   -3.3329   25.1308 H   0  0  0  0  0  0  0  0  0  0  0  0
    8.0728   -3.4910   25.5056 C   0  0  0  0  0  0  0  0  0  0  0  0
    7.9185   -4.4608   25.0163 H   0  0  0  0  0  0  0  0  0  0  0  0
    8.9023   -3.0250   24.9580 H   0  0  0  0  0  0  0  0  0  0  0  0
    8.4444   -3.6810   26.9745 C   0  0  0  0  0  0  0  0  0  0  0  0
    9.5203   -3.7626   27.1804 H   0  0  0  0  0  0  0  0  0  0  0  0
    7.8714   -4.4657   27.4962 H   0  0  0  0  0  0  0  0  0  0  0  0
    7.0436   -1.5523   26.6812 C   0  0  0  0  0  0  0  0  0  0  0  0
    7.2234   -0.6807   27.6094 H   0  0  0  0  0  0  0  0  0  0  0  0
    7.8672   -2.2346   27.3274 H   0  0  0  0  0  0  0  0  0  0  0  0
    6.8694   -1.6606   26.8825 C   0  0  0  0  0  0  0  0  0  0  0  0
    5.9291   -1.0459   26.3128 H   0  0  0  0  0  0  0  0  0  0  0  0
    5.9273   -2.6124   27.8041 H   0  0  0  0  0  0  0  0  0  0  0  0
    7.6572    0.3869   22.0691 N   0  0  0  0  0  0  0  0  0  0  0  0
    7.9263    1.3753   22.0864 H   0  0  0  0  0  0  0  0  0  0  0  0
    5.8163    0.9931   19.8400 C   0  0  0  0  0  0  0  0  0  0  0  0
    5.3890    1.0809   20.8382 H   0  0  0  0  0  0  0  0  0  0  0  0
    5.1290    1.4207   18.7075 C   0  0  0  0  0  0  0  0  0  0  0  0
    4.1408    1.8662   18.7786 H   0  0  0  0  0  0  0  0  0  0  0  0
  1  2  1  0
  2  3  2  0
  3  4  1  0
  4  5  1  0
  4  6  2  0
  6  7  1  0
  7  8  2  0
  8  9  1  0
  8 10  1  0
 10 11  2  0
 10 12  1  0
 12 13  1  0
 13 14  1  0
 13 15  1  0
 13 16  1  0
 16 17  1  0
 16 18  1  0
 18 19  1  0
 18 20  1  0
 20 21  1  0
 20 22  1  0
 20 23  1  0
 23 24  1  0
 23 25  1  0
 23 26  1  0
 26 27  1  0
 26 28  1  0
 26 29  1  0
 29 30  1  0
 29 31  1  0
 12 32  1  0
 32 33  1  0
  6 34  1  0
 34 35  1  0
 34 36  2  0
 36 37  1  0
 36  2  1  0
 32  7  1  0
 29 18  1  0
M  END
>  <cnnaffinity>  (1) 
-4.87286

>  <filename>  (1) 
O=c1cc(-c2cccnc2)[nH]n1CNC1CCCC1

$$$$
