
     RDKit          3D

 32 34  0  0  0  0  0  0  0  0999 V2000
    4.9168    1.7938   16.9874 H   0  0  0  0  0  0  0  0  0  0  0  0
    5.3978    1.2965   17.8270 C   0  0  0  0  0  0  0  0  0  0  0  0
    6.5622    0.6850   17.5631 N   0  0  0  0  0  0  0  0  0  0  0  0
    7.1728    0.0690   18.5791 C   0  0  0  0  0  0  0  0  0  0  0  0
    8.1244   -0.4127   18.3450 H   0  0  0  0  0  0  0  0  0  0  0  0
    6.6606    0.0111   19.8858 C   0  0  0  0  0  0  0  0  0  0  0  0
    7.3978   -0.6873   21.0090 C   0  0  2  0  0  0  0  0  0  0  0  0
    8.1907   -1.3119   20.5811 H   0  0  0  0  0  0  0  0  0  0  0  0
    6.5193   -1.6546   21.8161 C   0  0  0  0  0  0  0  0  0  0  0  0
    5.8290   -2.5745   21.4254 O   0  0  0  0  0  0  0  0  0  0  0  0
    6.6689   -1.3340   23.1187 N   0  0  0  0  0  0  0  0  0  0  0  0
    6.1200   -1.8841   23.7573 H   0  0  0  0  0  0  0  0  0  0  0  0
    7.5681   -0.2549   23.4511 C   0  0  0  0  0  0  0  0  0  0  0  0
    8.4249   -0.6221   24.0400 H   0  0  0  0  0  0  0  0  0  0  0  0
    7.0775    0.5161   24.0633 H   0  0  0  0  0  0  0  0  0  0  0  0
    7.9839    0.2981   22.0618 C   0  0  1  0  0  0  0  0  0  0  0  0
    7.5107    1.2792   21.9353 H   0  0  0  0  0  0  0  0  0  0  0  0
    9.4745    0.5037   21.9149 C   0  0  0  0  0  0  0  0  0  0  0  0
    9.9940    1.7653   21.5799 C   0  0  0  0  0  0  0  0  0  0  0  0
    9.3158    2.6007   21.4216 H   0  0  0  0  0  0  0  0  0  0  0  0
   11.3756    1.9614   21.4747 C   0  0  0  0  0  0  0  0  0  0  0  0
   11.7753    2.9333   21.1944 H   0  0  0  0  0  0  0  0  0  0  0  0
   12.2453    0.8974   21.7283 C   0  0  0  0  0  0  0  0  0  0  0  0
   13.3227    0.9987   21.6913 H   0  0  0  0  0  0  0  0  0  0  0  0
   11.7156   -0.3631   21.9854 C   0  0  0  0  0  0  0  0  0  0  0  0
   12.5572   -1.4015   22.1284 F   0  0  0  0  0  0  0  0  0  0  0  0
   10.3487   -0.5800   22.0924 C   0  0  0  0  0  0  0  0  0  0  0  0
    9.9978   -1.5818   22.3311 H   0  0  0  0  0  0  0  0  0  0  0  0
    5.4450    0.6516   20.1427 C   0  0  0  0  0  0  0  0  0  0  0  0
    5.0175    0.6279   21.1499 H   0  0  0  0  0  0  0  0  0  0  0  0
    4.8089    1.3090   19.0943 C   0  0  0  0  0  0  0  0  0  0  0  0
    3.8800    1.8400   19.2489 H   0  0  0  0  0  0  0  0  0  0  0  0
  1  2  1  0
  2  3  2  0
  3  4  1  0
  4  5  1  0
  4  6  2  0
  6  7  1  0
  7  8  1  6
  7  9  1  0
  9 10  2  0
  9 11  1  0
 11 12  1  0
 11 13  1  0
 13 14  1  0
 13 15  1  0
 13 16  1  0
 16 17  1  6
 16 18  1  0
 18 19  2  0
 19 20  1  0
 19 21  1  0
 21 22  1  0
 21 23  2  0
 23 24  1  0
 23 25  1  0
 25 26  1  0
 25 27  2  0
 27 28  1  0
  6 29  1  0
 29 30  1  0
 29 31  2  0
 31 32  1  0
 31  2  1  0
 16  7  1  0
 27 18  1  0
M  END
>  <cnnaffinity>  (1) 
-5.15884

>  <filename>  (1) 
O=C1NC[C@@H](c2cccc(F)c2)[C@@H]1c1cccnc1

$$$$
