
     RDKit          3D

 31 33  0  0  0  0  0  0  0  0999 V2000
    4.9116    1.7883   16.9895 H   0  0  0  0  0  0  0  0  0  0  0  0
    5.3929    1.2993   17.8296 C   0  0  0  0  0  0  0  0  0  0  0  0
    6.5518    0.6801   17.5621 N   0  0  0  0  0  0  0  0  0  0  0  0
    7.1587    0.0673   18.5787 C   0  0  0  0  0  0  0  0  0  0  0  0
    8.1116   -0.4143   18.3728 H   0  0  0  0  0  0  0  0  0  0  0  0
    6.6439    0.0028   19.8865 C   0  0  0  0  0  0  0  0  0  0  0  0
    7.3489   -0.7136   20.9638 C   0  0  0  0  0  0  0  0  0  0  0  0
    6.6895   -1.6477   21.7342 C   0  0  0  0  0  0  0  0  0  0  0  0
    5.6315   -1.8396   21.5415 H   0  0  0  0  0  0  0  0  0  0  0  0
    7.3440   -2.3676   22.7731 C   0  0  0  0  0  0  0  0  0  0  0  0
    6.6125   -3.3757   23.5810 C   0  0  0  0  0  0  0  0  0  0  0  0
    5.7006   -4.2480   22.9655 C   0  0  0  0  0  0  0  0  0  0  0  0
    5.5240   -4.2217   21.8955 H   0  0  0  0  0  0  0  0  0  0  0  0
    5.0369   -5.1846   23.7466 C   0  0  0  0  0  0  0  0  0  0  0  0
    4.1734   -6.0241   23.1603 F   0  0  0  0  0  0  0  0  0  0  0  0
    5.2232   -5.2889   25.1215 C   0  0  0  0  0  0  0  0  0  0  0  0
    4.6963   -6.0248   25.7155 H   0  0  0  0  0  0  0  0  0  0  0  0
    6.1221   -4.3988   25.6995 C   0  0  0  0  0  0  0  0  0  0  0  0
    6.3285   -4.4713   27.0203 F   0  0  0  0  0  0  0  0  0  0  0  0
    6.8213   -3.4504   24.9658 C   0  0  0  0  0  0  0  0  0  0  0  0
    7.4903   -2.7664   25.4762 H   0  0  0  0  0  0  0  0  0  0  0  0
    8.6650   -2.0982   23.0113 C   0  0  0  0  0  0  0  0  0  0  0  0
    9.2402   -2.6133   23.7820 H   0  0  0  0  0  0  0  0  0  0  0  0
    9.3170   -1.1707   22.2550 N   0  0  0  0  0  0  0  0  0  0  0  0
   10.2801   -0.9073   22.3778 H   0  0  0  0  0  0  0  0  0  0  0  0
    8.7667   -0.4110   21.2220 C   0  0  0  0  0  0  0  0  0  0  0  0
    9.5042    0.3893   20.6705 O   0  0  0  0  0  0  0  0  0  0  0  0
    5.4247    0.6460   20.1460 C   0  0  0  0  0  0  0  0  0  0  0  0
    5.0118    0.6328   21.1608 H   0  0  0  0  0  0  0  0  0  0  0  0
    4.7999    1.3196   19.0983 C   0  0  0  0  0  0  0  0  0  0  0  0
    3.8675    1.8508   19.2533 H   0  0  0  0  0  0  0  0  0  0  0  0
  1  2  1  0
  2  3  2  0
  3  4  1  0
  4  5  1  0
  4  6  2  0
  6  7  1  0
  7  8  2  0
  8  9  1  0
  8 10  1  0
 10 11  1  0
 11 12  2  0
 12 13  1  0
 12 14  1  0
 14 15  1  0
 14 16  2  0
 16 17  1  0
 16 18  1  0
 18 19  1  0
 18 20  2  0
 20 21  1  0
 10 22  2  0
 22 23  1  0
 22 24  1  0
 24 25  1  0
 24 26  1  0
 26 27  2  0
  6 28  1  0
 28 29  1  0
 28 30  2  0
 30 31  1  0
 30  2  1  0
 26  7  1  0
 20 11  1  0
M  END
>  <cnnaffinity>  (1) 
-5.42029

>  <filename>  (1) 
O=c1[nH]cc(-c2cc(F)cc(F)c2)cc1-c1cccnc1

$$$$
