
     RDKit          3D

 33 36  0  0  0  0  0  0  0  0999 V2000
    5.0248    1.8253   16.9654 H   0  0  0  0  0  0  0  0  0  0  0  0
    5.4790    1.3161   17.8115 C   0  0  0  0  0  0  0  0  0  0  0  0
    6.6693    0.7332   17.5786 N   0  0  0  0  0  0  0  0  0  0  0  0
    7.2605    0.1127   18.6040 C   0  0  0  0  0  0  0  0  0  0  0  0
    8.2440   -0.3235   18.4375 H   0  0  0  0  0  0  0  0  0  0  0  0
    6.6666   -0.0153   19.8719 C   0  0  0  0  0  0  0  0  0  0  0  0
    7.3471   -0.7487   20.8947 N   0  0  0  0  0  0  0  0  0  0  0  0
    8.6790   -0.4388   21.0165 N   0  0  0  0  0  0  0  0  0  0  0  0
    9.3712   -1.0053   21.9823 C   0  0  0  0  0  0  0  0  0  0  0  0
   10.8251   -0.6674   22.1030 C   0  0  0  0  0  0  0  0  0  0  0  0
   11.7950   -1.6072   22.2596 C   0  0  0  0  0  0  0  0  0  0  0  0
   11.6833   -2.6868   22.2749 H   0  0  0  0  0  0  0  0  0  0  0  0
   13.3904   -0.9640   22.4439 S   0  0  0  0  0  0  0  0  0  0  0  0
   12.7729    0.6567   22.4309 C   0  0  0  0  0  0  0  0  0  0  0  0
   13.4971    1.8303   22.6885 C   0  0  0  0  0  0  0  0  0  0  0  0
   14.5589    1.7924   22.9087 H   0  0  0  0  0  0  0  0  0  0  0  0
   12.8311    3.0472   22.5813 C   0  0  0  0  0  0  0  0  0  0  0  0
   13.3483    3.9784   22.7886 H   0  0  0  0  0  0  0  0  0  0  0  0
   11.4762    3.0954   22.1905 C   0  0  0  0  0  0  0  0  0  0  0  0
   11.0264    4.0782   22.0733 H   0  0  0  0  0  0  0  0  0  0  0  0
   10.7501    1.9334   21.9664 C   0  0  0  0  0  0  0  0  0  0  0  0
    9.7061    1.9481   21.6469 H   0  0  0  0  0  0  0  0  0  0  0  0
   11.3873    0.6807   22.1403 C   0  0  0  0  0  0  0  0  0  0  0  0
    8.7551   -1.9477   22.8908 C   0  0  0  0  0  0  0  0  0  0  0  0
    9.3530   -2.3508   23.7078 H   0  0  0  0  0  0  0  0  0  0  0  0
    7.4512   -2.2990   22.7318 C   0  0  0  0  0  0  0  0  0  0  0  0
    6.9187   -2.9986   23.3697 H   0  0  0  0  0  0  0  0  0  0  0  0
    6.6525   -1.7743   21.6307 C   0  0  0  0  0  0  0  0  0  0  0  0
    5.5339   -2.1593   21.3416 O   0  0  0  0  0  0  0  0  0  0  0  0
    5.4263    0.5872   20.1106 C   0  0  0  0  0  0  0  0  0  0  0  0
    4.9555    0.5176   21.0914 H   0  0  0  0  0  0  0  0  0  0  0  0
    4.8352    1.2848   19.0529 C   0  0  0  0  0  0  0  0  0  0  0  0
    3.8919    1.8057   19.1791 H   0  0  0  0  0  0  0  0  0  0  0  0
  1  2  1  0
  2  3  2  0
  3  4  1  0
  4  5  1  0
  4  6  2  0
  6  7  1  0
  7  8  1  0
  8  9  2  0
  9 10  1  0
 10 11  2  0
 11 12  1  0
 11 13  1  0
 13 14  1  0
 14 15  2  0
 15 16  1  0
 15 17  1  0
 17 18  1  0
 17 19  2  0
 19 20  1  0
 19 21  1  0
 21 22  1  0
 21 23  2  0
  9 24  1  0
 24 25  1  0
 24 26  2  0
 26 27  1  0
 26 28  1  0
 28 29  2  0
  6 30  1  0
 30 31  1  0
 30 32  2  0
 32 33  1  0
 32  2  1  0
 28  7  1  0
 23 10  1  0
 23 14  1  0
M  END
>  <cnnaffinity>  (1) 
-5.92616

>  <filename>  (1) 
O=c1ccc(-c2csc3ccccc23)nn1-c1cccnc1

$$$$
