
     RDKit          3D

 32 34  0  0  0  0  0  0  0  0999 V2000
    4.9068    1.7754   17.0021 H   0  0  0  0  0  0  0  0  0  0  0  0
    5.3978    1.2937   17.8431 C   0  0  0  0  0  0  0  0  0  0  0  0
    6.5632    0.6788   17.5802 N   0  0  0  0  0  0  0  0  0  0  0  0
    7.1809    0.0588   18.5926 C   0  0  0  0  0  0  0  0  0  0  0  0
    8.1296   -0.4313   18.3817 H   0  0  0  0  0  0  0  0  0  0  0  0
    6.6663    0.0024   19.9080 C   0  0  0  0  0  0  0  0  0  0  0  0
    7.3569   -0.6856   20.9487 N   0  0  0  0  0  0  0  0  0  0  0  0
    6.7676   -1.4488   21.9482 C   0  0  0  0  0  0  0  0  0  0  0  0
    5.7015   -1.6015   21.9858 H   0  0  0  0  0  0  0  0  0  0  0  0
    7.7379   -1.9399   22.7503 C   0  0  0  0  0  0  0  0  0  0  0  0
    7.6148   -2.7884   23.9270 C   0  0  0  0  0  0  0  0  0  0  0  0
    8.6915   -3.5490   24.4084 C   0  0  0  0  0  0  0  0  0  0  0  0
    9.6528   -3.5259   23.9024 H   0  0  0  0  0  0  0  0  0  0  0  0
    8.5306   -4.3488   25.5344 C   0  0  0  0  0  0  0  0  0  0  0  0
    9.3687   -4.9247   25.9081 H   0  0  0  0  0  0  0  0  0  0  0  0
    7.2989   -4.4134   26.1876 C   0  0  0  0  0  0  0  0  0  0  0  0
    7.1952   -5.0342   27.0724 H   0  0  0  0  0  0  0  0  0  0  0  0
    6.2120   -3.6785   25.6972 C   0  0  0  0  0  0  0  0  0  0  0  0
    4.8902   -3.7038   26.4216 C   0  0  0  0  0  0  0  0  0  0  0  0
    3.8440   -3.5348   25.5906 F   0  0  0  0  0  0  0  0  0  0  0  0
    4.6854   -4.8621   27.0746 F   0  0  0  0  0  0  0  0  0  0  0  0
    4.8239   -2.7190   27.3381 F   0  0  0  0  0  0  0  0  0  0  0  0
    6.3729   -2.8545   24.5822 C   0  0  0  0  0  0  0  0  0  0  0  0
    5.5452   -2.2436   24.2275 H   0  0  0  0  0  0  0  0  0  0  0  0
    8.9444   -1.4796   22.2340 N   0  0  0  0  0  0  0  0  0  0  0  0
    9.8714   -1.6099   22.5945 H   0  0  0  0  0  0  0  0  0  0  0  0
    8.7504   -0.6828   21.1356 C   0  0  0  0  0  0  0  0  0  0  0  0
    9.5925   -0.1088   20.4759 O   0  0  0  0  0  0  0  0  0  0  0  0
    5.4465    0.6458   20.1618 C   0  0  0  0  0  0  0  0  0  0  0  0
    5.0156    0.6294   21.1626 H   0  0  0  0  0  0  0  0  0  0  0  0
    4.8073    1.3119   19.1112 C   0  0  0  0  0  0  0  0  0  0  0  0
    3.8726    1.8446   19.2673 H   0  0  0  0  0  0  0  0  0  0  0  0
  1  2  1  0
  2  3  2  0
  3  4  1  0
  4  5  1  0
  4  6  2  0
  6  7  1  0
  7  8  1  0
  8  9  1  0
  8 10  2  0
 10 11  1  0
 11 12  2  0
 12 13  1  0
 12 14  1  0
 14 15  1  0
 14 16  2  0
 16 17  1  0
 16 18  1  0
 18 19  1  0
 19 20  1  0
 19 21  1  0
 19 22  1  0
 18 23  2  0
 23 24  1  0
 10 25  1  0
 25 26  1  0
 25 27  1  0
 27 28  2  0
  6 29  1  0
 29 30  1  0
 29 31  2  0
 31 32  1  0
 31  2  1  0
 27  7  1  0
 23 11  1  0
M  END
>  <cnnaffinity>  (1) 
-5.41435

>  <filename>  (1) 
O=c1[nH]c(-c2cccc(C(F)(F)F)c2)cn1-c1cccnc1

$$$$
