
     RDKit          3D

 29 31  0  0  0  0  0  0  0  0999 V2000
    4.9185    1.7963   16.9751 H   0  0  0  0  0  0  0  0  0  0  0  0
    5.3933    1.3014   17.8191 C   0  0  0  0  0  0  0  0  0  0  0  0
    6.5575    0.6850   17.5587 N   0  0  0  0  0  0  0  0  0  0  0  0
    7.1711    0.0742   18.5801 C   0  0  0  0  0  0  0  0  0  0  0  0
    8.1087   -0.4229   18.3345 H   0  0  0  0  0  0  0  0  0  0  0  0
    6.6645    0.0254   19.8930 C   0  0  0  0  0  0  0  0  0  0  0  0
    7.3443   -0.6881   20.9795 C   0  0  0  0  0  0  0  0  0  0  0  0
    6.8297   -1.2010   22.1127 C   0  0  0  0  0  0  0  0  0  0  0  0
    5.8094   -1.2604   22.4160 H   0  0  0  0  0  0  0  0  0  0  0  0
    7.8422   -1.7886   22.8556 N   0  0  0  0  0  0  0  0  0  0  0  0
    7.6903   -2.4087   24.1242 C   0  0  0  0  0  0  0  0  0  0  0  0
    8.5055   -1.9814   25.1818 C   0  0  0  0  0  0  0  0  0  0  0  0
    9.2400   -1.2112   24.9708 H   0  0  0  0  0  0  0  0  0  0  0  0
    8.3861   -2.5500   26.4481 C   0  0  0  0  0  0  0  0  0  0  0  0
    9.0370   -2.2131   27.2456 H   0  0  0  0  0  0  0  0  0  0  0  0
    7.4467   -3.5583   26.6778 C   0  0  0  0  0  0  0  0  0  0  0  0
    7.3544   -4.0110   27.6607 H   0  0  0  0  0  0  0  0  0  0  0  0
    6.6275   -3.9953   25.6363 C   0  0  0  0  0  0  0  0  0  0  0  0
    5.8896   -4.7754   25.7937 H   0  0  0  0  0  0  0  0  0  0  0  0
    6.7439   -3.4288   24.3636 C   0  0  0  0  0  0  0  0  0  0  0  0
    5.7052   -4.0642   23.1153 Cl  0  0  0  0  0  0  0  0  0  0  0  0
    9.0532   -1.6259   22.1722 C   0  0  0  0  0  0  0  0  0  0  0  0
   10.1791   -1.9518   22.4750 O   0  0  0  0  0  0  0  0  0  0  0  0
    8.6944   -0.9870   21.0103 N   0  0  0  0  0  0  0  0  0  0  0  0
    9.4279   -0.6873   20.3990 H   0  0  0  0  0  0  0  0  0  0  0  0
    5.4353    0.6642   20.1366 C   0  0  0  0  0  0  0  0  0  0  0  0
    5.0070    0.6577   21.1426 H   0  0  0  0  0  0  0  0  0  0  0  0
    4.7977    1.3198   19.0852 C   0  0  0  0  0  0  0  0  0  0  0  0
    3.8652    1.8498   19.2388 H   0  0  0  0  0  0  0  0  0  0  0  0
  1  2  1  0
  2  3  2  0
  3  4  1  0
  4  5  1  0
  4  6  2  0
  6  7  1  0
  7  8  2  0
  8  9  1  0
  8 10  1  0
 10 11  1  0
 11 12  2  0
 12 13  1  0
 12 14  1  0
 14 15  1  0
 14 16  2  0
 16 17  1  0
 16 18  1  0
 18 19  1  0
 18 20  2  0
 20 21  1  0
 10 22  1  0
 22 23  2  0
 22 24  1  0
 24 25  1  0
  6 26  1  0
 26 27  1  0
 26 28  2  0
 28 29  1  0
 28  2  1  0
 24  7  1  0
 20 11  1  0
M  END
>  <cnnaffinity>  (1) 
-5.59606

>  <filename>  (1) 
O=c1[nH]c(-c2cccnc2)cn1-c1ccccc1Cl

$$$$
