
     RDKit          3D

 32 35  0  0  0  0  0  0  0  0999 V2000
    4.9195    1.7944   16.9768 H   0  0  0  0  0  0  0  0  0  0  0  0
    5.3948    1.3001   17.8217 C   0  0  0  0  0  0  0  0  0  0  0  0
    6.5594    0.6831   17.5653 N   0  0  0  0  0  0  0  0  0  0  0  0
    7.1723    0.0718   18.5876 C   0  0  0  0  0  0  0  0  0  0  0  0
    8.1097   -0.4239   18.3382 H   0  0  0  0  0  0  0  0  0  0  0  0
    6.6640    0.0194   19.9006 C   0  0  0  0  0  0  0  0  0  0  0  0
    7.3350   -0.7048   20.9914 C   0  0  0  0  0  0  0  0  0  0  0  0
    6.8192   -1.2377   22.1143 C   0  0  0  0  0  0  0  0  0  0  0  0
    5.7901   -1.2915   22.3873 H   0  0  0  0  0  0  0  0  0  0  0  0
    7.8297   -1.8172   22.8741 N   0  0  0  0  0  0  0  0  0  0  0  0
    7.6622   -2.4826   24.1228 C   0  0  0  0  0  0  0  0  0  0  0  0
    6.6915   -2.0321   25.0308 C   0  0  0  0  0  0  0  0  0  0  0  0
    6.0769   -1.1763   24.7760 H   0  0  0  0  0  0  0  0  0  0  0  0
    6.5095   -2.6633   26.2790 C   0  0  0  0  0  0  0  0  0  0  0  0
    5.7661   -2.3314   26.9959 H   0  0  0  0  0  0  0  0  0  0  0  0
    7.3178   -3.7446   26.5616 C   0  0  0  0  0  0  0  0  0  0  0  0
    8.2699   -4.1978   25.6482 C   0  0  0  0  0  0  0  0  0  0  0  0
    8.4721   -3.5950   24.4257 C   0  0  0  0  0  0  0  0  0  0  0  0
    9.2274   -3.9325   23.7290 H   0  0  0  0  0  0  0  0  0  0  0  0
    8.9294   -5.2683   26.1739 O   0  0  0  0  0  0  0  0  0  0  0  0
    8.3656   -5.4990   27.4630 C   0  0  0  0  0  0  0  0  0  0  0  0
    7.9242   -6.5034   27.4944 H   0  0  0  0  0  0  0  0  0  0  0  0
    9.1450   -5.4001   28.2292 H   0  0  0  0  0  0  0  0  0  0  0  0
    7.3508   -4.5216   27.6859 O   0  0  0  0  0  0  0  0  0  0  0  0
    9.0397   -1.6429   22.1887 C   0  0  0  0  0  0  0  0  0  0  0  0
   10.1721   -1.9664   22.4766 O   0  0  0  0  0  0  0  0  0  0  0  0
    8.6871   -0.9852   21.0353 N   0  0  0  0  0  0  0  0  0  0  0  0
    9.4197   -0.6885   20.4220 H   0  0  0  0  0  0  0  0  0  0  0  0
    5.4352    0.6626   20.1391 C   0  0  0  0  0  0  0  0  0  0  0  0
    5.0047    0.6548   21.1437 H   0  0  0  0  0  0  0  0  0  0  0  0
    4.7988    1.3193   19.0872 C   0  0  0  0  0  0  0  0  0  0  0  0
    3.8660    1.8497   19.2394 H   0  0  0  0  0  0  0  0  0  0  0  0
  1  2  1  0
  2  3  2  0
  3  4  1  0
  4  5  1  0
  4  6  2  0
  6  7  1  0
  7  8  2  0
  8  9  1  0
  8 10  1  0
 10 11  1  0
 11 12  2  0
 12 13  1  0
 12 14  1  0
 14 15  1  0
 14 16  2  0
 16 17  1  0
 17 18  2  0
 18 19  1  0
 17 20  1  0
 20 21  1  0
 21 22  1  0
 21 23  1  0
 21 24  1  0
 10 25  1  0
 25 26  2  0
 25 27  1  0
 27 28  1  0
  6 29  1  0
 29 30  1  0
 29 31  2  0
 31 32  1  0
 31  2  1  0
 27  7  1  0
 18 11  1  0
 24 16  1  0
M  END
>  <cnnaffinity>  (1) 
-5.23469

>  <filename>  (1) 
O=c1[nH]c(-c2cccnc2)cn1-c1ccc2c(c1)OCO2

$$$$
