
     RDKit          3D

 22 24  0  0  0  0  0  0  0  0999 V2000
    4.9548    1.7842   16.9950 H   0  0  0  0  0  0  0  0  0  0  0  0
    5.4169    1.2762   17.8388 C   0  0  0  0  0  0  0  0  0  0  0  0
    6.5734    0.6475   17.5906 N   0  0  0  0  0  0  0  0  0  0  0  0
    7.1708    0.0266   18.6146 C   0  0  0  0  0  0  0  0  0  0  0  0
    8.1175   -0.4594   18.3919 H   0  0  0  0  0  0  0  0  0  0  0  0
    6.6681   -0.0056   19.9350 C   0  0  0  0  0  0  0  0  0  0  0  0
    7.4271   -0.6452   21.0104 C   0  0  0  0  0  0  0  0  0  0  0  0
    7.3685   -0.5517   22.3848 C   0  0  0  0  0  0  0  0  0  0  0  0
    6.9203    0.3308   23.4475 C   0  0  0  0  0  0  0  0  0  0  0  0
    6.2552    1.5023   23.2596 N   0  0  0  0  0  0  0  0  0  0  0  0
    6.1158    2.0465   24.4292 N   0  0  0  0  0  0  0  0  0  0  0  0
    6.6725    1.2104   25.2732 N   0  0  0  0  0  0  0  0  0  0  0  0
    6.6512    1.3736   26.2711 H   0  0  0  0  0  0  0  0  0  0  0  0
    7.1876    0.1255   24.7361 N   0  0  0  0  0  0  0  0  0  0  0  0
    8.3333   -1.6122   22.6512 C   0  0  0  0  0  0  0  0  0  0  0  0
    8.6971   -2.1793   23.6370 O   0  0  0  0  0  0  0  0  0  0  0  0
    8.5876   -1.6433   21.0827 C   0  0  0  0  0  0  0  0  0  0  0  0
    9.3864   -2.1439   20.3517 O   0  0  0  0  0  0  0  0  0  0  0  0
    5.4431    0.6591   20.1611 C   0  0  0  0  0  0  0  0  0  0  0  0
    5.0132    0.7295   21.1614 H   0  0  0  0  0  0  0  0  0  0  0  0
    4.8120    1.3012   19.0963 C   0  0  0  0  0  0  0  0  0  0  0  0
    3.8780    1.8386   19.2217 H   0  0  0  0  0  0  0  0  0  0  0  0
  1  2  1  0
  2  3  2  0
  3  4  1  0
  4  5  1  0
  4  6  2  0
  6  7  1  0
  7  8  2  0
  8  9  1  0
  9 10  1  0
 10 11  2  0
 11 12  1  0
 12 13  1  0
 12 14  1  0
  8 15  1  0
 15 16  2  0
 15 17  1  0
 17 18  2  0
  6 19  1  0
 19 20  1  0
 19 21  2  0
 21 22  1  0
 21  2  1  0
 17  7  1  0
 14  9  2  0
M  END
>  <cnnaffinity>  (1) 
-4.20212

>  <filename>  (1) 
O=c1c(-c2cccnc2)c(-c2nn[nH]n2)c1=O

$$$$
