
     RDKit          3D

 32 34  0  0  0  0  0  0  0  0999 V2000
    4.9084    1.7992   16.9837 H   0  0  0  0  0  0  0  0  0  0  0  0
    5.3891    1.3018   17.8251 C   0  0  0  0  0  0  0  0  0  0  0  0
    6.5470    0.6811   17.5503 N   0  0  0  0  0  0  0  0  0  0  0  0
    7.1765    0.0760   18.5654 C   0  0  0  0  0  0  0  0  0  0  0  0
    8.1205   -0.4133   18.3415 H   0  0  0  0  0  0  0  0  0  0  0  0
    6.6761    0.0351   19.8847 C   0  0  0  0  0  0  0  0  0  0  0  0
    7.3619   -0.6734   20.9579 N   0  0  0  0  0  0  0  0  0  0  0  0
    6.7684   -1.8419   21.5184 C   0  0  0  0  0  0  0  0  0  0  0  0
    5.7073   -2.2552   21.1020 O   0  0  0  0  0  0  0  0  0  0  0  0
    7.4942   -2.5175   22.5646 C   0  0  0  0  0  0  0  0  0  0  0  0
    7.0142   -3.3911   22.9584 H   0  0  0  0  0  0  0  0  0  0  0  0
    8.6691   -2.0487   23.0094 C   0  0  0  0  0  0  0  0  0  0  0  0
    9.4449   -2.5474   23.9900 O   0  0  0  0  0  0  0  0  0  0  0  0
    8.8732   -3.2887   25.0266 C   0  0  0  0  0  0  0  0  0  0  0  0
    7.6406   -2.9407   25.6059 C   0  0  0  0  0  0  0  0  0  0  0  0
    7.0736   -2.1049   25.2083 H   0  0  0  0  0  0  0  0  0  0  0  0
    7.1451   -3.6608   26.6982 C   0  0  0  0  0  0  0  0  0  0  0  0
    6.1928   -3.4231   27.1592 H   0  0  0  0  0  0  0  0  0  0  0  0
    7.8864   -4.7215   27.2051 C   0  0  0  0  0  0  0  0  0  0  0  0
    7.4064   -5.4143   28.2513 F   0  0  0  0  0  0  0  0  0  0  0  0
    9.1132   -5.0769   26.6529 C   0  0  0  0  0  0  0  0  0  0  0  0
    9.6579   -5.9038   27.0965 H   0  0  0  0  0  0  0  0  0  0  0  0
    9.6125   -4.3562   25.5584 C   0  0  0  0  0  0  0  0  0  0  0  0
   10.5800   -4.6107   25.1319 H   0  0  0  0  0  0  0  0  0  0  0  0
    9.1984   -0.9558   22.3997 N   0  0  0  0  0  0  0  0  0  0  0  0
   10.0735   -0.5274   22.6293 H   0  0  0  0  0  0  0  0  0  0  0  0
    8.6014   -0.2255   21.4015 C   0  0  0  0  0  0  0  0  0  0  0  0
    9.1900    0.7326   20.9617 O   0  0  0  0  0  0  0  0  0  0  0  0
    5.4575    0.6559   20.1502 C   0  0  0  0  0  0  0  0  0  0  0  0
    5.0361    0.6009   21.1537 H   0  0  0  0  0  0  0  0  0  0  0  0
    4.8113    1.3177   19.0988 C   0  0  0  0  0  0  0  0  0  0  0  0
    3.8771    1.8407   19.2543 H   0  0  0  0  0  0  0  0  0  0  0  0
  1  2  1  0
  2  3  2  0
  3  4  1  0
  4  5  1  0
  4  6  2  0
  6  7  1  0
  7  8  1  0
  8  9  2  0
  8 10  1  0
 10 11  1  0
 10 12  2  0
 12 13  1  0
 13 14  1  0
 14 15  2  0
 15 16  1  0
 15 17  1  0
 17 18  1  0
 17 19  2  0
 19 20  1  0
 19 21  1  0
 21 22  1  0
 21 23  2  0
 23 24  1  0
 12 25  1  0
 25 26  1  0
 25 27  1  0
 27 28  2  0
  6 29  1  0
 29 30  1  0
 29 31  2  0
 31 32  1  0
 31  2  1  0
 27  7  1  0
 23 14  1  0
M  END
>  <cnnaffinity>  (1) 
-5.45236

>  <filename>  (1) 
O=c1cc(Oc2ccc(F)cc2)[nH]c(=O)n1-c1cccnc1

$$$$
