
     RDKit          3D

 31 33  0  0  0  0  0  0  0  0999 V2000
    4.9119    1.7884   16.9890 H   0  0  0  0  0  0  0  0  0  0  0  0
    5.3937    1.2996   17.8290 C   0  0  0  0  0  0  0  0  0  0  0  0
    6.5523    0.6800   17.5575 N   0  0  0  0  0  0  0  0  0  0  0  0
    7.1579    0.0686   18.5775 C   0  0  0  0  0  0  0  0  0  0  0  0
    8.1106   -0.4135   18.3724 H   0  0  0  0  0  0  0  0  0  0  0  0
    6.6433    0.0028   19.8870 C   0  0  0  0  0  0  0  0  0  0  0  0
    7.3495   -0.7138   20.9638 C   0  0  0  0  0  0  0  0  0  0  0  0
    6.6901   -1.6493   21.7341 C   0  0  0  0  0  0  0  0  0  0  0  0
    5.6310   -1.8383   21.5421 H   0  0  0  0  0  0  0  0  0  0  0  0
    7.3434   -2.3720   22.7734 C   0  0  0  0  0  0  0  0  0  0  0  0
    6.6104   -3.3790   23.5828 C   0  0  0  0  0  0  0  0  0  0  0  0
    6.8062   -3.4581   24.9687 C   0  0  0  0  0  0  0  0  0  0  0  0
    7.4839   -2.7607   25.4490 H   0  0  0  0  0  0  0  0  0  0  0  0
    6.1208   -4.3977   25.7299 C   0  0  0  0  0  0  0  0  0  0  0  0
    6.2847   -4.4613   26.7985 H   0  0  0  0  0  0  0  0  0  0  0  0
    5.2267   -5.2807   25.1158 C   0  0  0  0  0  0  0  0  0  0  0  0
    4.4087   -6.4408   26.1025 Cl  0  0  0  0  0  0  0  0  0  0  0  0
    5.0156   -5.2075   23.7285 C   0  0  0  0  0  0  0  0  0  0  0  0
    3.9167   -6.2715   22.9196 Cl  0  0  0  0  0  0  0  0  0  0  0  0
    5.6997   -4.2546   22.9741 C   0  0  0  0  0  0  0  0  0  0  0  0
    5.5374   -4.2171   21.9020 H   0  0  0  0  0  0  0  0  0  0  0  0
    8.6651   -2.0988   23.0097 C   0  0  0  0  0  0  0  0  0  0  0  0
    9.2401   -2.6130   23.7811 H   0  0  0  0  0  0  0  0  0  0  0  0
    9.3175   -1.1697   22.2529 N   0  0  0  0  0  0  0  0  0  0  0  0
   10.2807   -0.9050   22.3748 H   0  0  0  0  0  0  0  0  0  0  0  0
    8.7700   -0.4078   21.2198 C   0  0  0  0  0  0  0  0  0  0  0  0
    9.5096    0.3925   20.6688 O   0  0  0  0  0  0  0  0  0  0  0  0
    5.4243    0.6459   20.1465 C   0  0  0  0  0  0  0  0  0  0  0  0
    5.0119    0.6327   21.1614 H   0  0  0  0  0  0  0  0  0  0  0  0
    4.7994    1.3198   19.0983 C   0  0  0  0  0  0  0  0  0  0  0  0
    3.8665    1.8514   19.2533 H   0  0  0  0  0  0  0  0  0  0  0  0
  1  2  1  0
  2  3  2  0
  3  4  1  0
  4  5  1  0
  4  6  2  0
  6  7  1  0
  7  8  2  0
  8  9  1  0
  8 10  1  0
 10 11  1  0
 11 12  2  0
 12 13  1  0
 12 14  1  0
 14 15  1  0
 14 16  2  0
 16 17  1  0
 16 18  1  0
 18 19  1  0
 18 20  2  0
 20 21  1  0
 10 22  2  0
 22 23  1  0
 22 24  1  0
 24 25  1  0
 24 26  1  0
 26 27  2  0
  6 28  1  0
 28 29  1  0
 28 30  2  0
 30 31  1  0
 30  2  1  0
 26  7  1  0
 20 11  1  0
M  END
>  <cnnaffinity>  (1) 
-5.65361

>  <filename>  (1) 
O=c1[nH]cc(-c2ccc(Cl)c(Cl)c2)cc1-c1cccnc1

$$$$
