
     RDKit          3D

 39 41  0  0  0  0  0  0  0  0999 V2000
    4.9650    1.8368   16.9679 H   0  0  0  0  0  0  0  0  0  0  0  0
    5.4216    1.3068   17.7994 C   0  0  0  0  0  0  0  0  0  0  0  0
    6.5693    0.6658   17.5295 N   0  0  0  0  0  0  0  0  0  0  0  0
    7.1664    0.0303   18.5454 C   0  0  0  0  0  0  0  0  0  0  0  0
    8.0933   -0.4925   18.3090 H   0  0  0  0  0  0  0  0  0  0  0  0
    6.6677   -0.0144   19.8608 C   0  0  0  0  0  0  0  0  0  0  0  0
    7.4335   -0.6924   20.9389 C   0  0  0  0  0  0  0  0  0  0  0  0
    8.8422   -0.5309   21.0899 C   0  0  0  0  0  0  0  0  0  0  0  0
    9.3717    0.1110   20.3873 H   0  0  0  0  0  0  0  0  0  0  0  0
    9.5123   -1.1491   22.1064 C   0  0  0  0  0  0  0  0  0  0  0  0
   10.5776   -1.0600   22.2583 H   0  0  0  0  0  0  0  0  0  0  0  0
    8.8569   -2.0260   23.0727 C   0  0  0  0  0  0  0  0  0  0  0  0
    9.4727   -2.6356   23.9313 O   0  0  0  0  0  0  0  0  0  0  0  0
    7.4343   -2.1112   22.8841 N   0  0  0  0  0  0  0  0  0  0  0  0
    6.5789   -2.7604   23.8056 N   0  0  0  0  0  0  0  0  0  0  0  0
    5.6236   -2.5628   23.4946 H   0  0  0  0  0  0  0  0  0  0  0  0
    6.7132   -4.2244   23.8290 C   0  0  0  0  0  0  0  0  0  0  0  0
    7.6245   -4.4578   24.3964 H   0  0  0  0  0  0  0  0  0  0  0  0
    6.8423   -4.8646   22.4267 C   0  0  0  0  0  0  0  0  0  0  0  0
    7.7726   -4.5020   21.9669 H   0  0  0  0  0  0  0  0  0  0  0  0
    6.0143   -4.5061   21.7867 H   0  0  0  0  0  0  0  0  0  0  0  0
    6.8222   -6.3978   22.5402 C   0  0  0  0  0  0  0  0  0  0  0  0
    7.7302   -6.7068   23.0875 H   0  0  0  0  0  0  0  0  0  0  0  0
    6.8856   -6.8622   21.5493 H   0  0  0  0  0  0  0  0  0  0  0  0
    5.5470   -6.8656   23.2696 C   0  0  0  0  0  0  0  0  0  0  0  0
    5.4835   -7.9598   23.2929 H   0  0  0  0  0  0  0  0  0  0  0  0
    4.6769   -6.5062   22.6943 H   0  0  0  0  0  0  0  0  0  0  0  0
    5.4471   -6.2693   24.6866 C   0  0  0  0  0  0  0  0  0  0  0  0
    6.2772   -6.6089   25.3285 H   0  0  0  0  0  0  0  0  0  0  0  0
    4.5223   -6.5960   25.1794 H   0  0  0  0  0  0  0  0  0  0  0  0
    5.4861   -4.7384   24.6015 C   0  0  0  0  0  0  0  0  0  0  0  0
    5.4798   -4.2840   25.6011 H   0  0  0  0  0  0  0  0  0  0  0  0
    4.5802   -4.3758   24.0815 H   0  0  0  0  0  0  0  0  0  0  0  0
    6.7873   -1.4854   21.8428 C   0  0  0  0  0  0  0  0  0  0  0  0
    5.7204   -1.6828   21.7644 H   0  0  0  0  0  0  0  0  0  0  0  0
    5.4385    0.6215   20.1036 C   0  0  0  0  0  0  0  0  0  0  0  0
    5.0044    0.5973   21.1048 H   0  0  0  0  0  0  0  0  0  0  0  0
    4.8139    1.3074   19.0605 C   0  0  0  0  0  0  0  0  0  0  0  0
    3.8850    1.8461   19.2099 H   0  0  0  0  0  0  0  0  0  0  0  0
  1  2  1  0
  2  3  2  0
  3  4  1  0
  4  5  1  0
  4  6  2  0
  6  7  1  0
  7  8  1  0
  8  9  1  0
  8 10  2  0
 10 11  1  0
 10 12  1  0
 12 13  2  0
 12 14  1  0
 14 15  1  0
 15 16  1  0
 15 17  1  0
 17 18  1  0
 17 19  1  0
 19 20  1  0
 19 21  1  0
 19 22  1  0
 22 23  1  0
 22 24  1  0
 22 25  1  0
 25 26  1  0
 25 27  1  0
 25 28  1  0
 28 29  1  0
 28 30  1  0
 28 31  1  0
 31 32  1  0
 31 33  1  0
 14 34  1  0
 34 35  1  0
  6 36  1  0
 36 37  1  0
 36 38  2  0
 38 39  1  0
 38  2  1  0
 34  7  2  0
 31 17  1  0
M  END
>  <cnnaffinity>  (1) 
-5.42669

>  <filename>  (1) 
O=c1ccc(-c2cccnc2)cn1NC1CCCCC1

$$$$
