
     RDKit          3D

 45 48  0  0  0  0  0  0  0  0999 V2000
    5.1067    1.8615   16.9654 H   0  0  0  0  0  0  0  0  0  0  0  0
    5.5511    1.3323   17.8079 C   0  0  0  0  0  0  0  0  0  0  0  0
    6.7173    0.7110   17.5708 N   0  0  0  0  0  0  0  0  0  0  0  0
    7.2958    0.0570   18.5881 C   0  0  0  0  0  0  0  0  0  0  0  0
    8.2384   -0.4454   18.3712 H   0  0  0  0  0  0  0  0  0  0  0  0
    6.7320   -0.0357   19.8749 C   0  0  0  0  0  0  0  0  0  0  0  0
    7.3774   -0.7715   20.9324 N   0  0  0  0  0  0  0  0  0  0  0  0
    8.6576   -0.3993   21.3221 C   0  0  0  0  0  0  0  0  0  0  0  0
    9.1013    0.4410   20.7971 H   0  0  0  0  0  0  0  0  0  0  0  0
    9.3213   -1.0132   22.3529 C   0  0  0  0  0  0  0  0  0  0  0  0
   10.6413   -0.6847   22.7380 N   0  0  0  0  0  0  0  0  0  0  0  0
   11.5863   -0.1384   21.7491 C   0  0  0  0  0  0  0  0  0  0  0  0
   12.5601   -0.6345   21.8786 H   0  0  0  0  0  0  0  0  0  0  0  0
   11.2474   -0.3986   20.7458 H   0  0  0  0  0  0  0  0  0  0  0  0
   11.7955    1.3783   21.9361 C   0  0  0  0  0  0  0  0  0  0  0  0
   10.8159    1.8806   21.8496 H   0  0  0  0  0  0  0  0  0  0  0  0
   12.4248    1.7898   21.1372 H   0  0  0  0  0  0  0  0  0  0  0  0
   12.4173    1.6501   23.2479 N   0  0  0  0  0  0  0  0  0  0  0  0
   12.5323    3.0252   23.5916 C   0  0  0  0  0  0  0  0  0  0  0  0
   13.6562    3.7053   23.1148 C   0  0  0  0  0  0  0  0  0  0  0  0
   14.3761    3.1263   22.5459 H   0  0  0  0  0  0  0  0  0  0  0  0
   13.8423    5.0566   23.3948 C   0  0  0  0  0  0  0  0  0  0  0  0
   14.7095    5.5588   22.9817 H   0  0  0  0  0  0  0  0  0  0  0  0
   12.9080    5.7534   24.1715 C   0  0  0  0  0  0  0  0  0  0  0  0
   13.0610    6.8070   24.3947 H   0  0  0  0  0  0  0  0  0  0  0  0
   11.7616    5.0923   24.6291 C   0  0  0  0  0  0  0  0  0  0  0  0
   11.0225    5.6388   25.2135 H   0  0  0  0  0  0  0  0  0  0  0  0
   11.5671    3.7353   24.3244 C   0  0  0  0  0  0  0  0  0  0  0  0
   10.6616    3.2193   24.6310 H   0  0  0  0  0  0  0  0  0  0  0  0
   12.1497    0.6404   24.2810 C   0  0  0  0  0  0  0  0  0  0  0  0
   12.1808    1.1120   25.2689 H   0  0  0  0  0  0  0  0  0  0  0  0
   12.9547   -0.1112   24.2612 H   0  0  0  0  0  0  0  0  0  0  0  0
   10.8007   -0.1040   24.0926 C   0  0  0  0  0  0  0  0  0  0  0  0
   10.7353   -0.9067   24.8371 H   0  0  0  0  0  0  0  0  0  0  0  0
    9.9913    0.6115   24.3228 H   0  0  0  0  0  0  0  0  0  0  0  0
    8.6374   -2.0474   23.0769 C   0  0  0  0  0  0  0  0  0  0  0  0
    9.1623   -2.5041   23.9211 H   0  0  0  0  0  0  0  0  0  0  0  0
    7.3917   -2.4450   22.7038 C   0  0  0  0  0  0  0  0  0  0  0  0
    6.8309   -3.2158   23.2086 H   0  0  0  0  0  0  0  0  0  0  0  0
    6.6831   -1.8649   21.5675 C   0  0  0  0  0  0  0  0  0  0  0  0
    5.6051   -2.2786   21.1734 O   0  0  0  0  0  0  0  0  0  0  0  0
    5.5017    0.5948   20.1003 C   0  0  0  0  0  0  0  0  0  0  0  0
    5.0297    0.5161   21.0791 H   0  0  0  0  0  0  0  0  0  0  0  0
    4.9097    1.3039   19.0511 C   0  0  0  0  0  0  0  0  0  0  0  0
    3.9629    1.8197   19.1780 H   0  0  0  0  0  0  0  0  0  0  0  0
  1  2  1  0
  2  3  2  0
  3  4  1  0
  4  5  1  0
  4  6  2  0
  6  7  1  0
  7  8  1  0
  8  9  1  0
  8 10  2  0
 10 11  1  0
 11 12  1  0
 12 13  1  0
 12 14  1  0
 12 15  1  0
 15 16  1  0
 15 17  1  0
 15 18  1  0
 18 19  1  0
 19 20  2  0
 20 21  1  0
 20 22  1  0
 22 23  1  0
 22 24  2  0
 24 25  1  0
 24 26  1  0
 26 27  1  0
 26 28  2  0
 28 29  1  0
 18 30  1  0
 30 31  1  0
 30 32  1  0
 30 33  1  0
 33 34  1  0
 33 35  1  0
 10 36  1  0
 36 37  1  0
 36 38  2  0
 38 39  1  0
 38 40  1  0
 40 41  2  0
  6 42  1  0
 42 43  1  0
 42 44  2  0
 44 45  1  0
 44  2  1  0
 40  7  1  0
 33 11  1  0
 28 19  1  0
M  END
>  <cnnaffinity>  (1) 
-5.81949

>  <filename>  (1) 
O=c1ccc(N2CCN(c3ccccc3)CC2)cn1-c1cccnc1

$$$$
