
     RDKit          3D

 34 36  0  0  0  0  0  0  0  0999 V2000
    5.0705    1.7956   16.9685 H   0  0  0  0  0  0  0  0  0  0  0  0
    5.5402    1.3073   17.8202 C   0  0  0  0  0  0  0  0  0  0  0  0
    6.7496    0.7627   17.5992 N   0  0  0  0  0  0  0  0  0  0  0  0
    7.3540    0.1574   18.6289 C   0  0  0  0  0  0  0  0  0  0  0  0
    8.3481   -0.2515   18.4601 H   0  0  0  0  0  0  0  0  0  0  0  0
    6.7524    0.0083   19.8922 C   0  0  0  0  0  0  0  0  0  0  0  0
    7.4480   -0.6883   20.9239 N   0  0  0  0  0  0  0  0  0  0  0  0
    8.7443   -0.2495   21.1016 N   0  0  0  0  0  0  0  0  0  0  0  0
    9.4583   -0.7697   22.0673 C   0  0  0  0  0  0  0  0  0  0  0  0
   10.7326   -0.2553   22.3231 N   0  0  0  0  0  0  0  0  0  0  0  0
   10.9993    1.1018   21.7911 C   0  0  0  0  0  0  0  0  0  0  0  0
   11.0810    1.0943   20.7016 H   0  0  0  0  0  0  0  0  0  0  0  0
   10.1398    1.7398   22.0114 H   0  0  0  0  0  0  0  0  0  0  0  0
   12.2931    1.7006   22.3681 C   0  0  0  0  0  0  0  0  0  0  0  0
   12.1486    1.8626   23.4443 H   0  0  0  0  0  0  0  0  0  0  0  0
   12.4725    2.6819   21.9139 H   0  0  0  0  0  0  0  0  0  0  0  0
   13.4811    0.8559   22.1819 N   0  0  0  0  0  0  0  0  0  0  0  0
   13.8006    0.8784   21.2128 H   0  0  0  0  0  0  0  0  0  0  0  0
   13.2023   -0.5117   22.6371 C   0  0  0  0  0  0  0  0  0  0  0  0
   14.0528   -1.1541   22.3767 H   0  0  0  0  0  0  0  0  0  0  0  0
   13.1432   -0.4398   23.7298 H   0  0  0  0  0  0  0  0  0  0  0  0
   11.8792   -1.1736   22.1424 C   0  0  0  0  0  0  0  0  0  0  0  0
   11.9710   -1.4730   21.0818 H   0  0  0  0  0  0  0  0  0  0  0  0
   11.7015   -2.0990   22.7150 H   0  0  0  0  0  0  0  0  0  0  0  0
    8.9420   -1.8389   22.8963 C   0  0  0  0  0  0  0  0  0  0  0  0
    9.5935   -2.2238   23.6730 H   0  0  0  0  0  0  0  0  0  0  0  0
    7.6755   -2.2914   22.7041 C   0  0  0  0  0  0  0  0  0  0  0  0
    7.2092   -3.0603   23.3096 H   0  0  0  0  0  0  0  0  0  0  0  0
    6.8196   -1.7690   21.6358 C   0  0  0  0  0  0  0  0  0  0  0  0
    5.7154   -2.2085   21.3573 O   0  0  0  0  0  0  0  0  0  0  0  0
    5.4985    0.5811   20.1204 C   0  0  0  0  0  0  0  0  0  0  0  0
    5.0307    0.5120   21.1023 H   0  0  0  0  0  0  0  0  0  0  0  0
    4.8908    1.2585   19.0582 C   0  0  0  0  0  0  0  0  0  0  0  0
    3.9359    1.7558   19.1821 H   0  0  0  0  0  0  0  0  0  0  0  0
  1  2  1  0
  2  3  2  0
  3  4  1  0
  4  5  1  0
  4  6  2  0
  6  7  1  0
  7  8  1  0
  8  9  2  0
  9 10  1  0
 10 11  1  0
 11 12  1  0
 11 13  1  0
 11 14  1  0
 14 15  1  0
 14 16  1  0
 14 17  1  0
 17 18  1  0
 17 19  1  0
 19 20  1  0
 19 21  1  0
 19 22  1  0
 22 23  1  0
 22 24  1  0
  9 25  1  0
 25 26  1  0
 25 27  2  0
 27 28  1  0
 27 29  1  0
 29 30  2  0
  6 31  1  0
 31 32  1  0
 31 33  2  0
 33 34  1  0
 33  2  1  0
 29  7  1  0
 22 10  1  0
M  END
>  <cnnaffinity>  (1) 
-4.2611

>  <filename>  (1) 
O=c1ccc(N2CCNCC2)nn1-c1cccnc1

$$$$
