
     RDKit          3D

 40 42  0  0  0  0  0  0  0  0999 V2000
    5.0084    1.8189   16.8958 H   0  0  0  0  0  0  0  0  0  0  0  0
    5.4513    1.3298   17.7620 C   0  0  0  0  0  0  0  0  0  0  0  0
    6.6066    0.6801   17.5530 N   0  0  0  0  0  0  0  0  0  0  0  0
    7.1561    0.0614   18.6087 C   0  0  0  0  0  0  0  0  0  0  0  0
    8.1017   -0.4486   18.4345 H   0  0  0  0  0  0  0  0  0  0  0  0
    6.6016    0.0519   19.9087 C   0  0  0  0  0  0  0  0  0  0  0  0
    7.2405   -0.6477   21.0535 C   0  0  0  0  0  0  0  0  0  0  0  0
    7.6185    0.0290   22.1947 C   0  0  0  0  0  0  0  0  0  0  0  0
    7.3537    1.0843   22.2734 H   0  0  0  0  0  0  0  0  0  0  0  0
    8.3717   -0.5984   23.2364 C   0  0  0  0  0  0  0  0  0  0  0  0
    8.6574    0.1037   24.5430 C   0  0  0  0  0  0  0  0  0  0  0  0
    7.8212    0.7731   24.7808 H   0  0  0  0  0  0  0  0  0  0  0  0
    8.6644   -0.6451   25.3450 H   0  0  0  0  0  0  0  0  0  0  0  0
    9.9753    0.9152   24.6426 C   0  0  0  0  0  0  0  0  0  0  0  0
    9.9777    1.3071   25.6736 H   0  0  0  0  0  0  0  0  0  0  0  0
   10.0077    2.1482   23.7011 C   0  0  0  0  0  0  0  0  0  0  0  0
   10.6600    2.9033   24.1625 H   0  0  0  0  0  0  0  0  0  0  0  0
    9.0064    2.5969   23.6455 H   0  0  0  0  0  0  0  0  0  0  0  0
   10.5363    1.8829   22.2806 C   0  0  0  0  0  0  0  0  0  0  0  0
   10.6261    2.8308   21.7370 H   0  0  0  0  0  0  0  0  0  0  0  0
    9.8306    1.2660   21.7059 H   0  0  0  0  0  0  0  0  0  0  0  0
   11.8878    1.1675   22.3280 C   0  0  0  0  0  0  0  0  0  0  0  0
   12.6250    1.8052   22.8388 H   0  0  0  0  0  0  0  0  0  0  0  0
   12.2581    1.0118   21.3139 H   0  0  0  0  0  0  0  0  0  0  0  0
   11.7679   -0.1670   23.0694 C   0  0  0  0  0  0  0  0  0  0  0  0
   12.7404   -0.6725   23.0899 H   0  0  0  0  0  0  0  0  0  0  0  0
   11.0944   -0.8269   22.5058 H   0  0  0  0  0  0  0  0  0  0  0  0
   11.2579    0.0483   24.5077 C   0  0  0  0  0  0  0  0  0  0  0  0
   12.0601    0.5458   25.0715 H   0  0  0  0  0  0  0  0  0  0  0  0
   11.1010   -0.9206   25.0004 H   0  0  0  0  0  0  0  0  0  0  0  0
    8.8091   -1.8767   23.0317 C   0  0  0  0  0  0  0  0  0  0  0  0
    9.4505   -2.3887   23.7519 H   0  0  0  0  0  0  0  0  0  0  0  0
    8.4401   -2.5554   21.8928 N   0  0  0  0  0  0  0  0  0  0  0  0
    8.5253   -3.5567   21.8225 H   0  0  0  0  0  0  0  0  0  0  0  0
    7.4191   -2.1154   21.0373 C   0  0  0  0  0  0  0  0  0  0  0  0
    6.7866   -2.9518   20.4220 O   0  0  0  0  0  0  0  0  0  0  0  0
    5.4022    0.7529   20.0960 C   0  0  0  0  0  0  0  0  0  0  0  0
    4.9304    0.7693   21.0804 H   0  0  0  0  0  0  0  0  0  0  0  0
    4.8123    1.3935   19.0040 C   0  0  0  0  0  0  0  0  0  0  0  0
    3.8751    1.9306   19.1027 H   0  0  0  0  0  0  0  0  0  0  0  0
  1  2  1  0
  2  3  2  0
  3  4  1  0
  4  5  1  0
  4  6  2  0
  6  7  1  0
  7  8  2  0
  8  9  1  0
  8 10  1  0
 10 11  1  0
 11 12  1  0
 11 13  1  0
 11 14  1  0
 14 15  1  0
 14 16  1  0
 16 17  1  0
 16 18  1  0
 16 19  1  0
 19 20  1  0
 19 21  1  0
 19 22  1  0
 22 23  1  0
 22 24  1  0
 22 25  1  0
 25 26  1  0
 25 27  1  0
 25 28  1  0
 28 29  1  0
 28 30  1  0
 10 31  2  0
 31 32  1  0
 31 33  1  0
 33 34  1  0
 33 35  1  0
 35 36  2  0
  6 37  1  0
 37 38  1  0
 37 39  2  0
 39 40  1  0
 39  2  1  0
 35  7  1  0
 28 14  1  0
M  END
>  <cnnaffinity>  (1) 
-5.41807

>  <filename>  (1) 
O=c1[nH]cc(CC2CCCCC2)cc1-c1cccnc1

$$$$
