
     RDKit          3D

 34 37  0  0  0  0  0  0  0  0999 V2000
    4.9272    1.7938   16.9882 H   0  0  0  0  0  0  0  0  0  0  0  0
    5.3985    1.2990   17.8343 C   0  0  0  0  0  0  0  0  0  0  0  0
    6.5583    0.6760   17.5732 N   0  0  0  0  0  0  0  0  0  0  0  0
    7.1718    0.0592   18.5906 C   0  0  0  0  0  0  0  0  0  0  0  0
    8.1101   -0.4426   18.3593 H   0  0  0  0  0  0  0  0  0  0  0  0
    6.6652    0.0088   19.9011 C   0  0  0  0  0  0  0  0  0  0  0  0
    7.3591   -0.6956   20.9466 N   0  0  0  0  0  0  0  0  0  0  0  0
    6.5874   -1.4286   21.7872 N   0  0  0  0  0  0  0  0  0  0  0  0
    7.1582   -2.0695   22.7863 C   0  0  0  0  0  0  0  0  0  0  0  0
    6.2416   -2.8312   23.6509 C   0  0  0  0  0  0  0  0  0  0  0  0
    5.0036   -3.3089   23.3113 C   0  0  0  0  0  0  0  0  0  0  0  0
    4.5439   -3.1437   22.3449 H   0  0  0  0  0  0  0  0  0  0  0  0
    4.4760   -3.9710   24.4548 C   0  0  0  0  0  0  0  0  0  0  0  0
    3.2505   -4.6115   24.7294 C   0  0  0  0  0  0  0  0  0  0  0  0
    2.5011   -4.6607   23.9443 H   0  0  0  0  0  0  0  0  0  0  0  0
    3.0376   -5.1437   25.9927 C   0  0  0  0  0  0  0  0  0  0  0  0
    2.0955   -5.6376   26.2079 H   0  0  0  0  0  0  0  0  0  0  0  0
    4.0338   -5.0493   26.9996 C   0  0  0  0  0  0  0  0  0  0  0  0
    3.8326   -5.4820   27.9767 H   0  0  0  0  0  0  0  0  0  0  0  0
    5.2510   -4.4177   26.7609 C   0  0  0  0  0  0  0  0  0  0  0  0
    6.0085   -4.3471   27.5390 H   0  0  0  0  0  0  0  0  0  0  0  0
    5.4593   -3.8744   25.4817 C   0  0  0  0  0  0  0  0  0  0  0  0
    6.5202   -3.1731   24.9609 N   0  0  0  0  0  0  0  0  0  0  0  0
    7.4204   -3.0173   25.3921 H   0  0  0  0  0  0  0  0  0  0  0  0
    8.6361   -2.0781   23.0462 C   0  0  0  0  0  0  0  0  0  0  0  0
    9.1794   -2.6936   23.9643 O   0  0  0  0  0  0  0  0  0  0  0  0
    9.3787   -1.2694   22.0891 C   0  0  0  0  0  0  0  0  0  0  0  0
   10.4534   -1.2174   22.2124 H   0  0  0  0  0  0  0  0  0  0  0  0
    8.7227   -0.6155   21.1064 C   0  0  0  0  0  0  0  0  0  0  0  0
    9.2151    0.0335   20.3898 H   0  0  0  0  0  0  0  0  0  0  0  0
    5.4436    0.6451   20.1610 C   0  0  0  0  0  0  0  0  0  0  0  0
    5.0354    0.5883   21.1702 H   0  0  0  0  0  0  0  0  0  0  0  0
    4.8119    1.3140   19.1060 C   0  0  0  0  0  0  0  0  0  0  0  0
    3.8779    1.8429   19.2536 H   0  0  0  0  0  0  0  0  0  0  0  0
  1  2  1  0
  2  3  2  0
  3  4  1  0
  4  5  1  0
  4  6  2  0
  6  7  1  0
  7  8  1  0
  8  9  2  0
  9 10  1  0
 10 11  2  0
 11 12  1  0
 11 13  1  0
 13 14  2  0
 14 15  1  0
 14 16  1  0
 16 17  1  0
 16 18  2  0
 18 19  1  0
 18 20  1  0
 20 21  1  0
 20 22  2  0
 22 23  1  0
 23 24  1  0
  9 25  1  0
 25 26  2  0
 25 27  1  0
 27 28  1  0
 27 29  2  0
 29 30  1  0
  6 31  1  0
 31 32  1  0
 31 33  2  0
 33 34  1  0
 33  2  1  0
 29  7  1  0
 23 10  1  0
 22 13  1  0
M  END
>  <cnnaffinity>  (1) 
-5.33072

>  <filename>  (1) 
O=c1ccn(-c2cccnc2)nc1-c1cc2ccccc2[nH]1

$$$$
