
     RDKit          3D

 30 32  0  0  0  0  0  0  0  0999 V2000
    5.1616    1.9350   16.7512 H   0  0  0  0  0  0  0  0  0  0  0  0
    5.5219    1.3964   17.6265 C   0  0  0  0  0  0  0  0  0  0  0  0
    6.6600    0.7031   17.4725 N   0  0  0  0  0  0  0  0  0  0  0  0
    7.1222    0.0323   18.5353 C   0  0  0  0  0  0  0  0  0  0  0  0
    8.0560   -0.5044   18.3858 H   0  0  0  0  0  0  0  0  0  0  0  0
    6.4812    0.0139   19.7749 C   0  0  0  0  0  0  0  0  0  0  0  0
    7.0398   -0.8191   20.9153 C   0  0  0  0  0  0  0  0  0  0  0  0
    7.2692   -0.0486   22.0950 N   0  0  0  0  0  0  0  0  0  0  0  0
    8.0475   -0.6434   23.0506 C   0  0  0  0  0  0  0  0  0  0  0  0
    8.1181    0.0256   24.4048 C   0  0  0  0  0  0  0  0  0  0  0  0
    9.0009   -0.4481   25.4009 C   0  0  0  0  0  0  0  0  0  0  0  0
    9.8205   -1.1257   25.1939 H   0  0  0  0  0  0  0  0  0  0  0  0
    8.8518   -0.0139   26.7146 C   0  0  0  0  0  0  0  0  0  0  0  0
    9.7199   -0.8117   27.9821 Cl  0  0  0  0  0  0  0  0  0  0  0  0
    7.9761    1.0068   27.0626 C   0  0  0  0  0  0  0  0  0  0  0  0
    7.9217    1.3238   28.0976 H   0  0  0  0  0  0  0  0  0  0  0  0
    7.1989    1.5663   26.0479 C   0  0  0  0  0  0  0  0  0  0  0  0
    6.1206    2.8612   26.4557 Cl  0  0  0  0  0  0  0  0  0  0  0  0
    7.2404    1.0799   24.7385 C   0  0  0  0  0  0  0  0  0  0  0  0
    6.5747    1.5113   23.9977 H   0  0  0  0  0  0  0  0  0  0  0  0
    8.7667   -1.8129   22.8444 C   0  0  0  0  0  0  0  0  0  0  0  0
    9.3815   -2.2717   23.6045 H   0  0  0  0  0  0  0  0  0  0  0  0
    8.7999   -2.4555   21.5784 N   0  0  0  0  0  0  0  0  0  0  0  0
    8.9271   -3.4593   21.5803 H   0  0  0  0  0  0  0  0  0  0  0  0
    7.7825   -2.0211   20.7580 C   0  0  0  0  0  0  0  0  0  0  0  0
    6.5146   -2.3596   20.9559 O   0  0  0  0  0  0  0  0  0  0  0  0
    5.3006    0.7454   19.9311 C   0  0  0  0  0  0  0  0  0  0  0  0
    4.7875    0.7421   20.8928 H   0  0  0  0  0  0  0  0  0  0  0  0
    4.8148    1.4553   18.8325 C   0  0  0  0  0  0  0  0  0  0  0  0
    3.9096    2.0521   18.8884 H   0  0  0  0  0  0  0  0  0  0  0  0
  1  2  1  0
  2  3  2  0
  3  4  1  0
  4  5  1  0
  4  6  2  0
  6  7  1  0
  7  8  2  0
  8  9  1  0
  9 10  1  0
 10 11  2  0
 11 12  1  0
 11 13  1  0
 13 14  1  0
 13 15  2  0
 15 16  1  0
 15 17  1  0
 17 18  1  0
 17 19  2  0
 19 20  1  0
  9 21  2  0
 21 22  1  0
 21 23  1  0
 23 24  1  0
 23 25  1  0
 25 26  2  0
  6 27  1  0
 27 28  1  0
 27 29  2  0
 29 30  1  0
 29  2  1  0
 25  7  1  0
 19 10  1  0
M  END
>  <cnnaffinity>  (1) 
-5.05618

>  <filename>  (1) 
O=c1[nH]cc(-c2cc(Cl)cc(Cl)c2)nc1-c1cccnc1

$$$$
