
     RDKit          3D

 36 39  0  0  0  0  0  0  0  0999 V2000
    4.9703    1.8693   16.8996 H   0  0  0  0  0  0  0  0  0  0  0  0
    5.4030    1.3418   17.7469 C   0  0  0  0  0  0  0  0  0  0  0  0
    6.5661    0.7128   17.5128 N   0  0  0  0  0  0  0  0  0  0  0  0
    7.1253    0.0681   18.5419 C   0  0  0  0  0  0  0  0  0  0  0  0
    8.0742   -0.4312   18.3382 H   0  0  0  0  0  0  0  0  0  0  0  0
    6.5704    0.0003   19.8361 C   0  0  0  0  0  0  0  0  0  0  0  0
    7.3076   -0.6856   20.9721 C   0  0  2  0  0  0  0  0  0  0  0  0
    8.1497   -1.2280   20.5254 H   0  0  0  0  0  0  0  0  0  0  0  0
    6.5212   -1.7676   21.7249 C   0  0  0  0  0  0  0  0  0  0  0  0
    5.8758   -2.6881   21.2728 O   0  0  0  0  0  0  0  0  0  0  0  0
    6.6997   -1.5568   23.0660 N   0  0  0  0  0  0  0  0  0  0  0  0
    5.9818   -2.0324   23.5977 H   0  0  0  0  0  0  0  0  0  0  0  0
    7.0699   -0.1816   23.3636 C   0  0  0  0  0  0  0  0  0  0  0  0
    6.1894    0.4592   23.5426 H   0  0  0  0  0  0  0  0  0  0  0  0
    7.6982   -0.1384   24.2605 H   0  0  0  0  0  0  0  0  0  0  0  0
    7.8010    0.2973   22.0840 C   0  0  1  0  0  0  0  0  0  0  0  0
    7.5161    1.3323   21.8692 H   0  0  0  0  0  0  0  0  0  0  0  0
    9.2930    0.3374   22.2005 C   0  0  0  0  0  0  0  0  0  0  0  0
   10.1652    1.3979   22.1954 C   0  0  0  0  0  0  0  0  0  0  0  0
    9.9078    2.4440   22.0918 H   0  0  0  0  0  0  0  0  0  0  0  0
   11.4940    0.8639   22.2832 C   0  0  0  0  0  0  0  0  0  0  0  0
   12.7822    1.4366   22.3693 C   0  0  0  0  0  0  0  0  0  0  0  0
   12.8931    2.5177   22.3981 H   0  0  0  0  0  0  0  0  0  0  0  0
   13.8899    0.5964   22.3837 C   0  0  0  0  0  0  0  0  0  0  0  0
   14.8894    1.0210   22.4221 H   0  0  0  0  0  0  0  0  0  0  0  0
   13.7342   -0.8093   22.3388 C   0  0  0  0  0  0  0  0  0  0  0  0
   14.6257   -1.4316   22.3569 H   0  0  0  0  0  0  0  0  0  0  0  0
   12.4770   -1.3999   22.2870 C   0  0  0  0  0  0  0  0  0  0  0  0
   12.3445   -2.4773   22.2434 H   0  0  0  0  0  0  0  0  0  0  0  0
   11.3643   -0.5450   22.2980 C   0  0  0  0  0  0  0  0  0  0  0  0
   10.0172   -0.8355   22.2810 N   0  0  0  0  0  0  0  0  0  0  0  0
    9.6329   -1.6915   22.6492 H   0  0  0  0  0  0  0  0  0  0  0  0
    5.3523    0.6534   20.0514 C   0  0  0  0  0  0  0  0  0  0  0  0
    4.8821    0.6352   21.0381 H   0  0  0  0  0  0  0  0  0  0  0  0
    4.7585    1.3377   18.9886 C   0  0  0  0  0  0  0  0  0  0  0  0
    3.8259    1.8759   19.1136 H   0  0  0  0  0  0  0  0  0  0  0  0
  1  2  1  0
  2  3  2  0
  3  4  1  0
  4  5  1  0
  4  6  2  0
  6  7  1  0
  7  8  1  6
  7  9  1  0
  9 10  2  0
  9 11  1  0
 11 12  1  0
 11 13  1  0
 13 14  1  0
 13 15  1  0
 13 16  1  0
 16 17  1  6
 16 18  1  0
 18 19  2  0
 19 20  1  0
 19 21  1  0
 21 22  2  0
 22 23  1  0
 22 24  1  0
 24 25  1  0
 24 26  2  0
 26 27  1  0
 26 28  1  0
 28 29  1  0
 28 30  2  0
 30 31  1  0
 31 32  1  0
  6 33  1  0
 33 34  1  0
 33 35  2  0
 35 36  1  0
 35  2  1  0
 16  7  1  0
 31 18  1  0
 30 21  1  0
M  END
>  <cnnaffinity>  (1) 
-5.41093

>  <filename>  (1) 
O=C1NC[C@@H](c2cc3ccccc3[nH]2)[C@@H]1c1cccnc1

$$$$
