
     RDKit          3D

 30 32  0  0  0  0  0  0  0  0999 V2000
    4.9671    1.8032   16.9317 H   0  0  0  0  0  0  0  0  0  0  0  0
    5.4168    1.3239   17.8015 C   0  0  0  0  0  0  0  0  0  0  0  0
    6.5923    0.7086   17.6099 N   0  0  0  0  0  0  0  0  0  0  0  0
    7.1487    0.0914   18.6602 C   0  0  0  0  0  0  0  0  0  0  0  0
    8.1029   -0.3923   18.4644 H   0  0  0  0  0  0  0  0  0  0  0  0
    6.5907    0.0535   19.9554 C   0  0  0  0  0  0  0  0  0  0  0  0
    7.2689   -0.6879   21.0361 C   0  0  0  0  0  0  0  0  0  0  0  0
    7.6634   -1.9665   21.0840 C   0  0  0  0  0  0  0  0  0  0  0  0
    7.5977   -2.7956   20.4057 H   0  0  0  0  0  0  0  0  0  0  0  0
    8.2030   -2.2744   22.2964 O   0  0  0  0  0  0  0  0  0  0  0  0
    8.1571   -1.1603   23.0981 C   0  0  0  0  0  0  0  0  0  0  0  0
    8.5933   -1.1229   24.2094 O   0  0  0  0  0  0  0  0  0  0  0  0
    7.5700   -0.1734   22.3220 N   0  0  0  0  0  0  0  0  0  0  0  0
    7.2840    1.0626   22.9008 C   0  0  0  0  0  0  0  0  0  0  0  0
    6.8141    1.0245   24.1442 N   0  0  0  0  0  0  0  0  0  0  0  0
    6.4644    2.1777   24.7284 C   0  0  0  0  0  0  0  0  0  0  0  0
    5.8663    2.1261   26.1646 C   0  0  0  0  0  0  0  0  0  0  0  0
    6.6291    2.8150   27.0405 F   0  0  0  0  0  0  0  0  0  0  0  0
    4.6458    2.7066   26.1928 F   0  0  0  0  0  0  0  0  0  0  0  0
    5.7249    0.8938   26.6533 F   0  0  0  0  0  0  0  0  0  0  0  0
    6.6148    3.4233   24.1005 C   0  0  0  0  0  0  0  0  0  0  0  0
    6.3151    4.3344   24.6088 H   0  0  0  0  0  0  0  0  0  0  0  0
    7.1497    3.4559   22.8044 C   0  0  0  0  0  0  0  0  0  0  0  0
    7.2805    4.4058   22.2855 H   0  0  0  0  0  0  0  0  0  0  0  0
    7.4950    2.2541   22.1926 C   0  0  0  0  0  0  0  0  0  0  0  0
    7.8773    2.1939   21.1821 H   0  0  0  0  0  0  0  0  0  0  0  0
    5.3583    0.7128   20.1285 C   0  0  0  0  0  0  0  0  0  0  0  0
    4.8926    0.7369   21.1146 H   0  0  0  0  0  0  0  0  0  0  0  0
    4.7654    1.3480   19.0385 C   0  0  0  0  0  0  0  0  0  0  0  0
    3.8145    1.8590   19.1280 H   0  0  0  0  0  0  0  0  0  0  0  0
  1  2  1  0
  2  3  2  0
  3  4  1  0
  4  5  1  0
  4  6  2  0
  6  7  1  0
  7  8  2  0
  8  9  1  0
  8 10  1  0
 10 11  1  0
 11 12  2  0
 11 13  1  0
 13 14  1  0
 14 15  2  0
 15 16  1  0
 16 17  1  0
 17 18  1  0
 17 19  1  0
 17 20  1  0
 16 21  2  0
 21 22  1  0
 21 23  1  0
 23 24  1  0
 23 25  2  0
 25 26  1  0
  6 27  1  0
 27 28  1  0
 27 29  2  0
 29 30  1  0
 29  2  1  0
 13  7  1  0
 25 14  1  0
M  END
>  <cnnaffinity>  (1) 
-5.15868

>  <filename>  (1) 
O=c1occ(-c2cccnc2)n1-c1cccc(C(F)(F)F)n1

$$$$
