
     RDKit          3D

 34 36  0  0  0  0  0  0  0  0999 V2000
    4.9190    1.7973   16.9846 H   0  0  0  0  0  0  0  0  0  0  0  0
    5.3973    1.2976   17.8244 C   0  0  0  0  0  0  0  0  0  0  0  0
    6.5615    0.6866   17.5603 N   0  0  0  0  0  0  0  0  0  0  0  0
    7.1728    0.0685   18.5769 C   0  0  0  0  0  0  0  0  0  0  0  0
    8.1252   -0.4110   18.3419 H   0  0  0  0  0  0  0  0  0  0  0  0
    6.6592    0.0085   19.8840 C   0  0  0  0  0  0  0  0  0  0  0  0
    7.3966   -0.6913   21.0097 C   0  0  2  0  0  0  0  0  0  0  0  0
    8.1990   -1.3099   20.5838 H   0  0  0  0  0  0  0  0  0  0  0  0
    6.5174   -1.6608   21.8146 C   0  0  0  0  0  0  0  0  0  0  0  0
    5.8359   -2.5880   21.4242 O   0  0  0  0  0  0  0  0  0  0  0  0
    6.6567   -1.3431   23.1208 N   0  0  0  0  0  0  0  0  0  0  0  0
    6.0865   -1.8875   23.7422 H   0  0  0  0  0  0  0  0  0  0  0  0
    7.5346   -0.2483   23.4538 C   0  0  0  0  0  0  0  0  0  0  0  0
    7.0231    0.5246   24.0462 H   0  0  0  0  0  0  0  0  0  0  0  0
    8.3859   -0.5973   24.0630 H   0  0  0  0  0  0  0  0  0  0  0  0
    7.9793    0.2943   22.0666 C   0  0  1  0  0  0  0  0  0  0  0  0
    7.5255    1.2833   21.9290 H   0  0  0  0  0  0  0  0  0  0  0  0
    9.4784    0.4857   21.9397 C   0  0  0  0  0  0  0  0  0  0  0  0
   10.0188    1.7416   21.6134 C   0  0  0  0  0  0  0  0  0  0  0  0
    9.3448    2.5772   21.4419 H   0  0  0  0  0  0  0  0  0  0  0  0
   11.4042    1.9234   21.5223 C   0  0  0  0  0  0  0  0  0  0  0  0
   11.8160    2.8917   21.2494 H   0  0  0  0  0  0  0  0  0  0  0  0
   12.2631    0.8571   21.7765 C   0  0  0  0  0  0  0  0  0  0  0  0
   13.3425    0.9669   21.7415 H   0  0  0  0  0  0  0  0  0  0  0  0
   11.7249   -0.4039   22.0395 C   0  0  0  0  0  0  0  0  0  0  0  0
   12.6316   -1.5606   22.2160 N   0  0  0  0  0  4  0  0  0  0  0  0
   12.1238   -2.6342   22.4862 O   0  0  0  0  0  0  0  0  0  0  0  0
   13.8314   -1.3757   22.0922 O   0  0  0  0  0  1  0  0  0  0  0  0
   10.3445   -0.5980   22.1355 C   0  0  0  0  0  0  0  0  0  0  0  0
    9.9727   -1.5912   22.3710 H   0  0  0  0  0  0  0  0  0  0  0  0
    5.4438    0.6513   20.1390 C   0  0  0  0  0  0  0  0  0  0  0  0
    5.0156    0.6299   21.1450 H   0  0  0  0  0  0  0  0  0  0  0  0
    4.8057    1.3112   19.0908 C   0  0  0  0  0  0  0  0  0  0  0  0
    3.8774    1.8418   19.2448 H   0  0  0  0  0  0  0  0  0  0  0  0
  1  2  1  0
  2  3  2  0
  3  4  1  0
  4  5  1  0
  4  6  2  0
  6  7  1  0
  7  8  1  6
  7  9  1  0
  9 10  2  0
  9 11  1  0
 11 12  1  0
 11 13  1  0
 13 14  1  0
 13 15  1  0
 13 16  1  0
 16 17  1  6
 16 18  1  0
 18 19  2  0
 19 20  1  0
 19 21  1  0
 21 22  1  0
 21 23  2  0
 23 24  1  0
 23 25  1  0
 25 26  1  0
 26 27  2  0
 26 28  1  0
 25 29  2  0
 29 30  1  0
  6 31  1  0
 31 32  1  0
 31 33  2  0
 33 34  1  0
 33  2  1  0
 16  7  1  0
 29 18  1  0
M  CHG  2  26   1  28  -1
M  END
>  <cnnaffinity>  (1) 
-5.9122

>  <filename>  (1) 
O=C1NC[C@@H](c2cccc([N+](=O)[O-])c2)[C@@H]1c1cccnc1

$$$$
