
     RDKit          3D

 33 35  0  0  0  0  0  0  0  0999 V2000
   13.4295   -1.2204   22.0287 H   0  0  0  0  0  0  0  0  0  0  0  0
   12.5157   -1.4924   22.1603 O   0  0  0  0  0  0  0  0  0  0  0  0
   11.7362   -0.3952   21.9993 C   0  0  0  0  0  0  0  0  0  0  0  0
   12.2628    0.8732   21.7426 C   0  0  0  0  0  0  0  0  0  0  0  0
   13.3405    1.0129   21.7028 H   0  0  0  0  0  0  0  0  0  0  0  0
   11.3962    1.9406   21.4868 C   0  0  0  0  0  0  0  0  0  0  0  0
   11.7878    2.9134   21.2057 H   0  0  0  0  0  0  0  0  0  0  0  0
   10.0143    1.7529   21.5858 C   0  0  0  0  0  0  0  0  0  0  0  0
    9.3335    2.5836   21.4241 H   0  0  0  0  0  0  0  0  0  0  0  0
    9.4860    0.4937   21.9157 C   0  0  0  0  0  0  0  0  0  0  0  0
    7.9955    0.2901   22.0619 C   0  0  2  0  0  0  0  0  0  0  0  0
    7.5323    1.2747   21.9341 H   0  0  0  0  0  0  0  0  0  0  0  0
    7.5684   -0.2585   23.4517 C   0  0  0  0  0  0  0  0  0  0  0  0
    7.0750    0.5156   24.0563 H   0  0  0  0  0  0  0  0  0  0  0  0
    8.4203   -0.6234   24.0486 H   0  0  0  0  0  0  0  0  0  0  0  0
    6.6685   -1.3356   23.1220 N   0  0  0  0  0  0  0  0  0  0  0  0
    6.1141   -1.8845   23.7567 H   0  0  0  0  0  0  0  0  0  0  0  0
    6.5185   -1.6543   21.8199 C   0  0  0  0  0  0  0  0  0  0  0  0
    5.8299   -2.5739   21.4275 O   0  0  0  0  0  0  0  0  0  0  0  0
    7.4010   -0.6925   21.0094 C   0  0  1  0  0  0  0  0  0  0  0  0
    8.1906   -1.3200   20.5761 H   0  0  0  0  0  0  0  0  0  0  0  0
    6.6619    0.0094   19.8857 C   0  0  0  0  0  0  0  0  0  0  0  0
    7.1731    0.0694   18.5782 C   0  0  0  0  0  0  0  0  0  0  0  0
    8.1254   -0.4119   18.3429 H   0  0  0  0  0  0  0  0  0  0  0  0
    6.5622    0.6861   17.5599 N   0  0  0  0  0  0  0  0  0  0  0  0
    5.3974    1.2971   17.8260 C   0  0  0  0  0  0  0  0  0  0  0  0
    4.9182    1.7958   16.9860 H   0  0  0  0  0  0  0  0  0  0  0  0
    4.8069    1.3103   19.0923 C   0  0  0  0  0  0  0  0  0  0  0  0
    3.8773    1.8416   19.2463 H   0  0  0  0  0  0  0  0  0  0  0  0
    5.4460    0.6513   20.1410 C   0  0  0  0  0  0  0  0  0  0  0  0
    5.0173    0.6290   21.1472 H   0  0  0  0  0  0  0  0  0  0  0  0
   10.3596   -0.5826   22.0998 C   0  0  0  0  0  0  0  0  0  0  0  0
   10.0228   -1.5877   22.3341 H   0  0  0  0  0  0  0  0  0  0  0  0
  1  2  1  0
  2  3  1  0
  3  4  2  0
  4  5  1  0
  4  6  1  0
  6  7  1  0
  6  8  2  0
  8  9  1  0
  8 10  1  0
 10 11  1  0
 11 12  1  6
 11 13  1  0
 13 14  1  0
 13 15  1  0
 13 16  1  0
 16 17  1  0
 16 18  1  0
 18 19  2  0
 18 20  1  0
 20 21  1  6
 20 22  1  0
 22 23  2  0
 23 24  1  0
 23 25  1  0
 25 26  2  0
 26 27  1  0
 26 28  1  0
 28 29  1  0
 28 30  2  0
 30 31  1  0
 10 32  2  0
 32 33  1  0
 32  3  1  0
 20 11  1  0
 30 22  1  0
M  END
>  <cnnaffinity>  (1) 
-5.3894

>  <filename>  (1) 
O=C1NC[C@@H](c2cccc(O)c2)[C@@H]1c1cccnc1

$$$$
