
     RDKit          3D

 34 37  0  0  0  0  0  0  0  0999 V2000
    4.9198    1.8026   16.9714 H   0  0  0  0  0  0  0  0  0  0  0  0
    5.3882    1.3047   17.8171 C   0  0  0  0  0  0  0  0  0  0  0  0
    6.5517    0.6843   17.5608 N   0  0  0  0  0  0  0  0  0  0  0  0
    7.1549    0.0686   18.5864 C   0  0  0  0  0  0  0  0  0  0  0  0
    8.1047   -0.4225   18.3638 H   0  0  0  0  0  0  0  0  0  0  0  0
    6.6365    0.0091   19.8936 C   0  0  0  0  0  0  0  0  0  0  0  0
    7.3563   -0.7180   20.9713 C   0  0  0  0  0  0  0  0  0  0  0  0
    8.7594   -0.5868   21.1385 C   0  0  0  0  0  0  0  0  0  0  0  0
    9.3010    0.0762   20.4691 H   0  0  0  0  0  0  0  0  0  0  0  0
    9.4479   -1.2367   22.1447 C   0  0  0  0  0  0  0  0  0  0  0  0
   10.8890   -1.0837   22.2916 C   0  0  0  0  0  0  0  0  0  0  0  0
   11.7662   -2.1142   22.2269 C   0  0  0  0  0  0  0  0  0  0  0  0
   11.4936   -3.1571   22.3044 H   0  0  0  0  0  0  0  0  0  0  0  0
   13.4208   -1.6136   22.1318 S   0  0  0  0  0  0  0  0  0  0  0  0
   12.9670    0.0476   22.4001 C   0  0  0  0  0  0  0  0  0  0  0  0
   13.8155    1.1473   22.6012 C   0  0  0  0  0  0  0  0  0  0  0  0
   14.8913    1.0119   22.6620 H   0  0  0  0  0  0  0  0  0  0  0  0
   13.2488    2.4158   22.6595 C   0  0  0  0  0  0  0  0  0  0  0  0
   13.9011    3.2797   22.7280 H   0  0  0  0  0  0  0  0  0  0  0  0
   11.8528    2.5946   22.5662 C   0  0  0  0  0  0  0  0  0  0  0  0
   11.4330    3.5965   22.5712 H   0  0  0  0  0  0  0  0  0  0  0  0
   11.0129    1.4968   22.4546 C   0  0  0  0  0  0  0  0  0  0  0  0
    9.9335    1.6203   22.4062 H   0  0  0  0  0  0  0  0  0  0  0  0
   11.5652    0.1992   22.3859 C   0  0  0  0  0  0  0  0  0  0  0  0
    8.7226   -2.1231   23.0601 C   0  0  0  0  0  0  0  0  0  0  0  0
    9.1269   -2.7839   24.0008 O   0  0  0  0  0  0  0  0  0  0  0  0
    7.3503   -2.1944   22.8122 N   0  0  0  0  0  0  0  0  0  0  0  0
    6.9425   -2.7862   23.5208 H   0  0  0  0  0  0  0  0  0  0  0  0
    6.6764   -1.5308   21.8360 C   0  0  0  0  0  0  0  0  0  0  0  0
    5.6063   -1.6910   21.7565 H   0  0  0  0  0  0  0  0  0  0  0  0
    5.4175    0.6605   20.1337 C   0  0  0  0  0  0  0  0  0  0  0  0
    4.9940    0.6629   21.1377 H   0  0  0  0  0  0  0  0  0  0  0  0
    4.7889    1.3255   19.0816 C   0  0  0  0  0  0  0  0  0  0  0  0
    3.8581    1.8599   19.2305 H   0  0  0  0  0  0  0  0  0  0  0  0
  1  2  1  0
  2  3  2  0
  3  4  1  0
  4  5  1  0
  4  6  2  0
  6  7  1  0
  7  8  1  0
  8  9  1  0
  8 10  2  0
 10 11  1  0
 11 12  2  0
 12 13  1  0
 12 14  1  0
 14 15  1  0
 15 16  2  0
 16 17  1  0
 16 18  1  0
 18 19  1  0
 18 20  2  0
 20 21  1  0
 20 22  1  0
 22 23  1  0
 22 24  2  0
 10 25  1  0
 25 26  2  0
 25 27  1  0
 27 28  1  0
 27 29  1  0
 29 30  1  0
  6 31  1  0
 31 32  1  0
 31 33  2  0
 33 34  1  0
 33  2  1  0
 29  7  2  0
 24 11  1  0
 24 15  1  0
M  END
>  <cnnaffinity>  (1) 
-6.25309

>  <filename>  (1) 
O=c1[nH]cc(-c2cccnc2)cc1-c1csc2ccccc12

$$$$
