
     RDKit          3D

 31 33  0  0  0  0  0  0  0  0999 V2000
   10.4641   -0.7639   22.4365 H   0  0  0  0  0  0  0  0  0  0  0  0
    9.4370   -1.0266   22.2398 C   0  0  0  0  0  0  0  0  0  0  0  0
    8.8388   -2.0460   22.8775 C   0  0  0  0  0  0  0  0  0  0  0  0
    9.5068   -2.9498   23.8165 C   0  0  0  0  0  0  0  0  0  0  0  0
   10.8170   -3.3427   23.5143 C   0  0  0  0  0  0  0  0  0  0  0  0
   11.2867   -2.9914   22.5963 H   0  0  0  0  0  0  0  0  0  0  0  0
   11.5372   -4.1375   24.3047 N   0  0  0  0  0  0  0  0  0  0  0  0
   10.9973   -4.5327   25.4637 C   0  0  0  0  0  0  0  0  0  0  0  0
   11.6183   -5.0937   26.1415 H   0  0  0  0  0  0  0  0  0  0  0  0
    9.7036   -4.1786   25.8566 C   0  0  0  0  0  0  0  0  0  0  0  0
    9.2397   -4.5761   27.0518 F   0  0  0  0  0  0  0  0  0  0  0  0
    8.9247   -3.3972   25.0207 C   0  0  0  0  0  0  0  0  0  0  0  0
    7.9258   -3.0974   25.3262 H   0  0  0  0  0  0  0  0  0  0  0  0
    7.4952   -2.2898   22.6614 N   0  0  0  0  0  0  0  0  0  0  0  0
    7.0349   -3.1283   22.9695 H   0  0  0  0  0  0  0  0  0  0  0  0
    6.7490   -1.7458   21.6453 C   0  0  0  0  0  0  0  0  0  0  0  0
    5.6582   -2.2221   21.4069 O   0  0  0  0  0  0  0  0  0  0  0  0
    7.3653   -0.7100   20.9480 N   0  0  0  0  0  0  0  0  0  0  0  0
    6.6623   -0.0447   19.8951 C   0  0  0  0  0  0  0  0  0  0  0  0
    7.1910    0.0369   18.5890 C   0  0  0  0  0  0  0  0  0  0  0  0
    8.1437   -0.4463   18.3713 H   0  0  0  0  0  0  0  0  0  0  0  0
    6.5830    0.6692   17.5792 N   0  0  0  0  0  0  0  0  0  0  0  0
    5.4205    1.2894   17.8458 C   0  0  0  0  0  0  0  0  0  0  0  0
    4.9519    1.8070   17.0112 H   0  0  0  0  0  0  0  0  0  0  0  0
    4.8177    1.2887   19.1107 C   0  0  0  0  0  0  0  0  0  0  0  0
    3.8868    1.8317   19.2646 H   0  0  0  0  0  0  0  0  0  0  0  0
    5.4476    0.6006   20.1564 C   0  0  0  0  0  0  0  0  0  0  0  0
    5.0252    0.5647   21.1610 H   0  0  0  0  0  0  0  0  0  0  0  0
    8.6393   -0.1004   21.3854 C   0  0  0  0  0  0  0  0  0  0  0  0
    8.4283    0.8392   21.9349 H   0  0  0  0  0  0  0  0  0  0  0  0
    9.2247    0.1933   20.4932 H   0  0  0  0  0  0  0  0  0  0  0  0
  1  2  1  0
  2  3  2  0
  3  4  1  0
  4  5  2  0
  5  6  1  0
  5  7  1  0
  7  8  2  0
  8  9  1  0
  8 10  1  0
 10 11  1  0
 10 12  2  0
 12 13  1  0
  3 14  1  0
 14 15  1  0
 14 16  1  0
 16 17  2  0
 16 18  1  0
 18 19  1  0
 19 20  2  0
 20 21  1  0
 20 22  1  0
 22 23  2  0
 23 24  1  0
 23 25  1  0
 25 26  1  0
 25 27  2  0
 27 28  1  0
 18 29  1  0
 29 30  1  0
 29 31  1  0
 29  2  1  0
 12  4  1  0
 27 19  1  0
M  END
>  <cnnaffinity>  (1) 
-5.29387

>  <filename>  (1) 
O=C1NC(c2cncc(F)c2)=CCN1c1cccnc1

$$$$
