
     RDKit          3D

 33 35  0  0  0  0  0  0  0  0999 V2000
    4.9890    2.0180   16.9315 H   0  0  0  0  0  0  0  0  0  0  0  0
    5.4102    1.5691   17.8291 C   0  0  0  0  0  0  0  0  0  0  0  0
    6.5412    0.8695   17.6446 N   0  0  0  0  0  0  0  0  0  0  0  0
    7.0640    0.2749   18.7207 C   0  0  0  0  0  0  0  0  0  0  0  0
    8.0057   -0.2538   18.5673 H   0  0  0  0  0  0  0  0  0  0  0  0
    6.4882    0.3156   20.0017 C   0  0  0  0  0  0  0  0  0  0  0  0
    7.0277   -0.5766   21.0409 C   0  0  0  0  0  0  0  0  0  0  0  0
    7.1098   -0.0258   22.2816 O   0  0  0  0  0  0  0  0  0  0  0  0
    7.8196   -0.6865   23.2415 C   0  0  0  0  0  0  0  0  0  0  0  0
    7.9924    0.1013   24.4918 C   0  0  0  0  0  0  0  0  0  0  0  0
    9.3018    0.2507   24.9920 C   0  0  0  0  0  0  0  0  0  0  0  0
   10.1251   -0.2345   24.4699 H   0  0  0  0  0  0  0  0  0  0  0  0
    9.5471    1.0175   26.1312 C   0  0  0  0  0  0  0  0  0  0  0  0
   10.5699    1.1841   26.4624 H   0  0  0  0  0  0  0  0  0  0  0  0
    8.4711    1.5742   26.8268 C   0  0  0  0  0  0  0  0  0  0  0  0
    8.6133    2.1554   27.7278 H   0  0  0  0  0  0  0  0  0  0  0  0
    7.1706    1.3850   26.3812 C   0  0  0  0  0  0  0  0  0  0  0  0
    6.3340    1.7833   26.9501 H   0  0  0  0  0  0  0  0  0  0  0  0
    6.9127    0.6899   25.2020 C   0  0  0  0  0  0  0  0  0  0  0  0
    5.4562    0.4778   24.8370 C   0  0  0  0  0  0  0  0  0  0  0  0
    5.1911   -0.8382   24.9038 F   0  0  0  0  0  0  0  0  0  0  0  0
    5.1409    0.9355   23.6147 F   0  0  0  0  0  0  0  0  0  0  0  0
    4.5889    1.0799   25.6869 F   0  0  0  0  0  0  0  0  0  0  0  0
    8.3039   -1.9385   23.0414 C   0  0  0  0  0  0  0  0  0  0  0  0
    8.8822   -2.4554   23.7906 H   0  0  0  0  0  0  0  0  0  0  0  0
    8.0513   -2.6558   21.7961 C   0  0  0  0  0  0  0  0  0  0  0  0
    8.4160   -3.8062   21.6063 O   0  0  0  0  0  0  0  0  0  0  0  0
    7.3530   -1.8594   20.7991 C   0  0  0  0  0  0  0  0  0  0  0  0
    7.0784   -2.2915   19.8538 H   0  0  0  0  0  0  0  0  0  0  0  0
    5.3618    1.1231   20.1989 C   0  0  0  0  0  0  0  0  0  0  0  0
    4.9382    1.2380   21.1985 H   0  0  0  0  0  0  0  0  0  0  0  0
    4.8005    1.7431   19.0779 C   0  0  0  0  0  0  0  0  0  0  0  0
    3.9060    2.3515   19.1475 H   0  0  0  0  0  0  0  0  0  0  0  0
  1  2  1  0
  2  3  2  0
  3  4  1  0
  4  5  1  0
  4  6  2  0
  6  7  1  0
  7  8  1  0
  8  9  1  0
  9 10  1  0
 10 11  2  0
 11 12  1  0
 11 13  1  0
 13 14  1  0
 13 15  2  0
 15 16  1  0
 15 17  1  0
 17 18  1  0
 17 19  2  0
 19 20  1  0
 20 21  1  0
 20 22  1  0
 20 23  1  0
  9 24  2  0
 24 25  1  0
 24 26  1  0
 26 27  2  0
 26 28  1  0
 28 29  1  0
  6 30  1  0
 30 31  1  0
 30 32  2  0
 32 33  1  0
 32  2  1  0
 28  7  2  0
 19 10  1  0
M  END
>  <cnnaffinity>  (1) 
-5.46138

>  <filename>  (1) 
O=c1cc(-c2cccnc2)oc(-c2ccccc2C(F)(F)F)c1

$$$$
