
     RDKit          3D

 36 38  0  0  0  0  0  0  0  0999 V2000
    6.6966   -3.4426   22.7310 H   0  0  0  0  0  0  0  0  0  0  0  0
    7.2833   -2.6159   22.3490 C   0  0  0  0  0  0  0  0  0  0  0  0
    8.4818   -2.2598   22.8282 C   0  0  0  0  0  0  0  0  0  0  0  0
    9.1595   -2.9701   23.9816 C   0  0  0  0  0  0  0  0  0  0  0  0
    8.8094   -4.0043   24.0786 H   0  0  0  0  0  0  0  0  0  0  0  0
   10.2361   -3.0183   23.7786 H   0  0  0  0  0  0  0  0  0  0  0  0
    8.9408   -2.1778   25.2628 C   0  0  0  0  0  0  0  0  0  0  0  0
    9.8139   -1.1222   25.5677 C   0  0  0  0  0  0  0  0  0  0  0  0
   10.6831   -0.9771   24.9318 H   0  0  0  0  0  0  0  0  0  0  0  0
    9.5882   -0.2653   26.6424 C   0  0  0  0  0  0  0  0  0  0  0  0
   10.3187    0.5062   26.8548 H   0  0  0  0  0  0  0  0  0  0  0  0
    8.4320   -0.4106   27.4123 C   0  0  0  0  0  0  0  0  0  0  0  0
    8.2144    0.2980   28.2076 H   0  0  0  0  0  0  0  0  0  0  0  0
    7.5460   -1.4592   27.1510 C   0  0  0  0  0  0  0  0  0  0  0  0
    6.6509   -1.6013   27.7520 H   0  0  0  0  0  0  0  0  0  0  0  0
    7.8175   -2.3365   26.0913 C   0  0  0  0  0  0  0  0  0  0  0  0
    6.6834   -3.6355   25.8063 Cl  0  0  0  0  0  0  0  0  0  0  0  0
    9.0768   -0.9449   22.3753 C   0  0  0  0  0  0  0  0  0  0  0  0
    8.6767   -0.1400   23.0132 H   0  0  0  0  0  0  0  0  0  0  0  0
   10.1629   -0.9428   22.5021 H   0  0  0  0  0  0  0  0  0  0  0  0
    8.7208   -0.6447   20.9188 C   0  0  0  0  0  0  0  0  0  0  0  0
    8.9882    0.3910   20.6820 H   0  0  0  0  0  0  0  0  0  0  0  0
    9.2838   -1.3016   20.2339 H   0  0  0  0  0  0  0  0  0  0  0  0
    7.2759   -0.7949   20.7065 N   0  0  0  0  0  0  0  0  0  0  0  0
    6.6492   -0.0037   19.6912 C   0  0  0  0  0  0  0  0  0  0  0  0
    7.2156    0.1646   18.4077 C   0  0  0  0  0  0  0  0  0  0  0  0
    8.1712   -0.3052   18.1815 H   0  0  0  0  0  0  0  0  0  0  0  0
    6.6412    0.8518   17.4113 N   0  0  0  0  0  0  0  0  0  0  0  0
    5.4647    1.4444   17.6706 C   0  0  0  0  0  0  0  0  0  0  0  0
    5.0081    1.9880   16.8460 H   0  0  0  0  0  0  0  0  0  0  0  0
    4.8293    1.3678   18.9152 C   0  0  0  0  0  0  0  0  0  0  0  0
    3.8823    1.8747   19.0661 H   0  0  0  0  0  0  0  0  0  0  0  0
    5.4236    0.6279   19.9436 C   0  0  0  0  0  0  0  0  0  0  0  0
    4.9562    0.5269   20.9218 H   0  0  0  0  0  0  0  0  0  0  0  0
    6.5756   -1.8689   21.2881 C   0  0  0  0  0  0  0  0  0  0  0  0
    5.4643   -2.2071   20.9360 O   0  0  0  0  0  0  0  0  0  0  0  0
  1  2  1  0
  2  3  2  0
  3  4  1  0
  4  5  1  0
  4  6  1  0
  4  7  1  0
  7  8  2  0
  8  9  1  0
  8 10  1  0
 10 11  1  0
 10 12  2  0
 12 13  1  0
 12 14  1  0
 14 15  1  0
 14 16  2  0
 16 17  1  0
  3 18  1  0
 18 19  1  0
 18 20  1  0
 18 21  1  0
 21 22  1  0
 21 23  1  0
 21 24  1  0
 24 25  1  0
 25 26  2  0
 26 27  1  0
 26 28  1  0
 28 29  2  0
 29 30  1  0
 29 31  1  0
 31 32  1  0
 31 33  2  0
 33 34  1  0
 24 35  1  0
 35 36  2  0
 35  2  1  0
 16  7  1  0
 33 25  1  0
M  END
>  <cnnaffinity>  (1) 
-5.39082

>  <filename>  (1) 
O=C1C=C(Cc2ccccc2Cl)CCN1c1cccnc1

$$$$
