
     RDKit          3D

 28 30  0  0  0  0  0  0  0  0999 V2000
    4.9196    1.7937   16.9794 H   0  0  0  0  0  0  0  0  0  0  0  0
    5.3942    1.2973   17.8236 C   0  0  0  0  0  0  0  0  0  0  0  0
    6.5589    0.6782   17.5685 N   0  0  0  0  0  0  0  0  0  0  0  0
    7.1643    0.0556   18.5879 C   0  0  0  0  0  0  0  0  0  0  0  0
    8.1219   -0.4069   18.3471 H   0  0  0  0  0  0  0  0  0  0  0  0
    6.6490    0.0056   19.8973 C   0  0  0  0  0  0  0  0  0  0  0  0
    7.3378   -0.6548   21.0066 C   0  0  0  0  0  0  0  0  0  0  0  0
    7.2455   -0.4378   22.3341 C   0  0  0  0  0  0  0  0  0  0  0  0
    6.6518    0.2913   22.8612 H   0  0  0  0  0  0  0  0  0  0  0  0
    8.0932   -1.3233   22.9940 N   0  0  0  0  0  0  0  0  0  0  0  0
    8.2652   -1.4148   24.3954 C   0  0  0  0  0  0  0  0  0  0  0  0
    8.2203   -0.2603   25.2096 C   0  0  0  0  0  0  0  0  0  0  0  0
    8.0657    0.7286   24.7880 H   0  0  0  0  0  0  0  0  0  0  0  0
    8.3978   -0.3019   26.5329 N   0  0  0  0  0  0  0  0  0  0  0  0
    8.6186   -1.4877   27.1111 C   0  0  0  0  0  0  0  0  0  0  0  0
    8.7756   -1.5050   28.1830 H   0  0  0  0  0  0  0  0  0  0  0  0
    8.6577   -2.6730   26.3682 C   0  0  0  0  0  0  0  0  0  0  0  0
    8.8771   -3.8339   26.9949 F   0  0  0  0  0  0  0  0  0  0  0  0
    8.4857   -2.6643   24.9909 C   0  0  0  0  0  0  0  0  0  0  0  0
    8.5362   -3.5833   24.4091 H   0  0  0  0  0  0  0  0  0  0  0  0
    8.7310   -2.1303   22.0385 C   0  0  0  0  0  0  0  0  0  0  0  0
    9.5211   -3.0384   22.1765 O   0  0  0  0  0  0  0  0  0  0  0  0
    8.2607   -1.6699   20.8376 N   0  0  0  0  0  0  0  0  0  0  0  0
    8.5416   -2.1489   20.0048 H   0  0  0  0  0  0  0  0  0  0  0  0
    5.4297    0.6595   20.1381 C   0  0  0  0  0  0  0  0  0  0  0  0
    4.9931    0.6394   21.1388 H   0  0  0  0  0  0  0  0  0  0  0  0
    4.7967    1.3176   19.0878 C   0  0  0  0  0  0  0  0  0  0  0  0
    3.8661    1.8502   19.2411 H   0  0  0  0  0  0  0  0  0  0  0  0
  1  2  1  0
  2  3  2  0
  3  4  1  0
  4  5  1  0
  4  6  2  0
  6  7  1  0
  7  8  2  0
  8  9  1  0
  8 10  1  0
 10 11  1  0
 11 12  2  0
 12 13  1  0
 12 14  1  0
 14 15  2  0
 15 16  1  0
 15 17  1  0
 17 18  1  0
 17 19  2  0
 19 20  1  0
 10 21  1  0
 21 22  2  0
 21 23  1  0
 23 24  1  0
  6 25  1  0
 25 26  1  0
 25 27  2  0
 27 28  1  0
 27  2  1  0
 23  7  1  0
 19 11  1  0
M  END
>  <cnnaffinity>  (1) 
-5.51046

>  <filename>  (1) 
O=c1[nH]c(-c2cccnc2)cn1-c1cncc(F)c1

$$$$
