
     RDKit          3D

 37 41  0  0  0  0  0  0  0  0999 V2000
    4.9094    1.6996   16.9821 H   0  0  0  0  0  0  0  0  0  0  0  0
    5.4113    1.2744   17.8482 C   0  0  0  0  0  0  0  0  0  0  0  0
    6.5766    0.6637   17.5993 N   0  0  0  0  0  0  0  0  0  0  0  0
    7.2311    0.1462   18.6419 C   0  0  0  0  0  0  0  0  0  0  0  0
    8.1786   -0.3337   18.3962 H   0  0  0  0  0  0  0  0  0  0  0  0
    6.7823    0.2008   19.9787 C   0  0  0  0  0  0  0  0  0  0  0  0
    7.6219   -0.4215   21.0220 C   0  0  0  0  0  0  0  0  0  0  0  0
    8.6065   -1.3350   20.8390 C   0  0  0  0  0  0  0  0  0  0  0  0
    8.9852   -1.7281   19.9099 H   0  0  0  0  0  0  0  0  0  0  0  0
    9.3365   -1.8844   22.3244 S   0  0  0  0  0  0  0  0  0  0  0  0
    8.3147   -0.7974   23.2109 C   0  0  0  0  0  0  0  0  0  0  0  0
    8.1898   -0.3785   24.4516 N   0  0  0  0  0  0  0  0  0  0  0  0
    7.2494    0.6000   24.3153 C   0  0  0  0  0  0  0  0  0  0  0  0
    6.7826    1.4429   25.4848 C   0  0  0  0  0  0  0  0  0  0  0  0
    7.4863    1.2520   26.2962 H   0  0  0  0  0  0  0  0  0  0  0  0
    6.8607    2.4951   25.1975 H   0  0  0  0  0  0  0  0  0  0  0  0
    5.4110    1.2155   25.9762 N   0  0  0  0  0  0  0  0  0  0  0  0
    5.0691    0.1596   26.8284 C   0  0  0  0  0  0  0  0  0  0  0  0
    5.8426   -0.3765   27.5837 O   0  0  0  0  0  0  0  0  0  0  0  0
    3.6191   -0.1092   26.6010 C   0  0  0  0  0  0  0  0  0  0  0  0
    2.7976   -1.1317   27.0767 C   0  0  0  0  0  0  0  0  0  0  0  0
    3.1814   -1.9098   27.7343 H   0  0  0  0  0  0  0  0  0  0  0  0
    1.4589   -1.1200   26.6734 C   0  0  0  0  0  0  0  0  0  0  0  0
    0.7910   -1.9031   27.0171 H   0  0  0  0  0  0  0  0  0  0  0  0
    0.9620   -0.1098   25.8241 C   0  0  0  0  0  0  0  0  0  0  0  0
   -0.0858   -0.1178   25.5404 H   0  0  0  0  0  0  0  0  0  0  0  0
    1.7980    0.8985   25.3379 C   0  0  0  0  0  0  0  0  0  0  0  0
    1.4198    1.6776   24.6787 H   0  0  0  0  0  0  0  0  0  0  0  0
    3.1367    0.8668   25.7302 C   0  0  0  0  0  0  0  0  0  0  0  0
    4.2827    1.7301   25.3292 C   0  0  0  0  0  0  0  0  0  0  0  0
    4.3045    2.6808   24.5862 O   0  0  0  0  0  0  0  0  0  0  0  0
    6.7977    0.8057   23.0883 N   0  0  0  0  0  0  0  0  0  0  0  0
    7.4865   -0.1288   22.3814 N   0  0  0  0  0  0  0  0  0  0  0  0
    5.5474    0.8389   20.2175 C   0  0  0  0  0  0  0  0  0  0  0  0
    5.1442    0.9253   21.2270 H   0  0  0  0  0  0  0  0  0  0  0  0
    4.8639    1.3762   19.1275 C   0  0  0  0  0  0  0  0  0  0  0  0
    3.9193    1.8837   19.2526 H   0  0  0  0  0  0  0  0  0  0  0  0
  1  2  1  0
  2  3  2  0
  3  4  1  0
  4  5  1  0
  4  6  2  0
  6  7  1  0
  7  8  2  0
  8  9  1  0
  8 10  1  0
 10 11  1  0
 11 12  2  0
 12 13  1  0
 13 14  1  0
 14 15  1  0
 14 16  1  0
 14 17  1  0
 17 18  1  0
 18 19  2  0
 18 20  1  0
 20 21  2  0
 21 22  1  0
 21 23  1  0
 23 24  1  0
 23 25  2  0
 25 26  1  0
 25 27  1  0
 27 28  1  0
 27 29  2  0
 29 30  1  0
 30 31  2  0
 13 32  2  0
 32 33  1  0
  6 34  1  0
 34 35  1  0
 34 36  2  0
 36 37  1  0
 36  2  1  0
 33  7  1  0
 33 11  1  0
 30 17  1  0
 29 20  1  0
M  END
>  <cnnaffinity>  (1) 
-5.50209

>  <filename>  (1) 
O=C1c2ccccc2C(=O)N1Cc1nc2scc(-c3cccnc3)n2n1

$$$$
