
     RDKit          3D

 31 34  0  0  0  0  0  0  0  0999 V2000
    4.9635    1.8100   17.0096 H   0  0  0  0  0  0  0  0  0  0  0  0
    5.4290    1.3085   17.8555 C   0  0  0  0  0  0  0  0  0  0  0  0
    6.6074    0.7070   17.6206 N   0  0  0  0  0  0  0  0  0  0  0  0
    7.1896    0.0529   18.6346 C   0  0  0  0  0  0  0  0  0  0  0  0
    8.1535   -0.4142   18.4300 H   0  0  0  0  0  0  0  0  0  0  0  0
    6.6210   -0.0415   19.9248 C   0  0  0  0  0  0  0  0  0  0  0  0
    7.2460   -0.7521   21.0029 N   0  0  0  0  0  0  0  0  0  0  0  0
    7.7525   -0.2176   22.2178 C   0  0  0  0  0  0  0  0  0  0  0  0
    7.6667    1.1856   22.6019 C   0  0  0  0  0  0  0  0  0  0  0  0
    7.6311    1.4347   23.9554 O   0  0  0  0  0  0  0  0  0  0  0  0
    7.4958    2.7809   24.1071 C   0  0  0  0  0  0  0  0  0  0  0  0
    7.4000    3.4797   25.3150 C   0  0  0  0  0  0  0  0  0  0  0  0
    7.3994    2.9637   26.2699 H   0  0  0  0  0  0  0  0  0  0  0  0
    7.3204    4.8708   25.2267 C   0  0  0  0  0  0  0  0  0  0  0  0
    7.2679    5.4626   26.1357 H   0  0  0  0  0  0  0  0  0  0  0  0
    7.3152    5.5364   23.9807 C   0  0  0  0  0  0  0  0  0  0  0  0
    7.2623    6.6218   23.9514 H   0  0  0  0  0  0  0  0  0  0  0  0
    7.3859    4.8202   22.7924 C   0  0  0  0  0  0  0  0  0  0  0  0
    7.3817    5.3323   21.8357 H   0  0  0  0  0  0  0  0  0  0  0  0
    7.4823    3.4152   22.8526 C   0  0  0  0  0  0  0  0  0  0  0  0
    7.6031    2.3476   21.8986 C   0  0  0  0  0  0  0  0  0  0  0  0
    7.5920    2.4062   20.8219 H   0  0  0  0  0  0  0  0  0  0  0  0
    8.1881   -1.2783   22.9287 C   0  0  0  0  0  0  0  0  0  0  0  0
    8.7304   -1.3514   23.8719 H   0  0  0  0  0  0  0  0  0  0  0  0
    7.8758   -2.4368   22.2765 O   0  0  0  0  0  0  0  0  0  0  0  0
    7.1871   -2.1373   21.1191 C   0  0  0  0  0  0  0  0  0  0  0  0
    6.6342   -2.9404   20.4208 O   0  0  0  0  0  0  0  0  0  0  0  0
    5.4011    0.5963   20.1544 C   0  0  0  0  0  0  0  0  0  0  0  0
    4.9822    0.6021   21.1608 H   0  0  0  0  0  0  0  0  0  0  0  0
    4.7988    1.2837   19.1012 C   0  0  0  0  0  0  0  0  0  0  0  0
    3.8624    1.8054   19.2426 H   0  0  0  0  0  0  0  0  0  0  0  0
  1  2  1  0
  2  3  2  0
  3  4  1  0
  4  5  1  0
  4  6  2  0
  6  7  1  0
  7  8  1  0
  8  9  1  0
  9 10  1  0
 10 11  1  0
 11 12  2  0
 12 13  1  0
 12 14  1  0
 14 15  1  0
 14 16  2  0
 16 17  1  0
 16 18  1  0
 18 19  1  0
 18 20  2  0
 20 21  1  0
 21 22  1  0
  8 23  2  0
 23 24  1  0
 23 25  1  0
 25 26  1  0
 26 27  2  0
  6 28  1  0
 28 29  1  0
 28 30  2  0
 30 31  1  0
 30  2  1  0
 26  7  1  0
 21  9  2  0
 20 11  1  0
M  END
>  <cnnaffinity>  (1) 
-4.99187

>  <filename>  (1) 
O=c1occ(-c2cc3ccccc3o2)n1-c1cccnc1

$$$$
