
     RDKit          3D

 34 37  0  0  0  0  0  0  0  0999 V2000
    5.0649    1.9312   16.9346 H   0  0  0  0  0  0  0  0  0  0  0  0
    5.4802    1.3614   17.7618 C   0  0  0  0  0  0  0  0  0  0  0  0
    6.6709    0.7789   17.5306 N   0  0  0  0  0  0  0  0  0  0  0  0
    7.2194    0.0949   18.5372 C   0  0  0  0  0  0  0  0  0  0  0  0
    8.2089   -0.3277   18.3803 H   0  0  0  0  0  0  0  0  0  0  0  0
    6.5837   -0.1070   19.7792 C   0  0  0  0  0  0  0  0  0  0  0  0
    7.2662   -0.8567   20.7921 N   0  0  0  0  0  0  0  0  0  0  0  0
    8.6004   -0.5519   20.8830 N   0  0  0  0  0  0  0  0  0  0  0  0
    9.3101   -1.0937   21.8419 C   0  0  0  0  0  0  0  0  0  0  0  0
   10.7087   -0.5930   21.9726 C   0  0  0  0  0  0  0  0  0  0  0  0
   11.8392   -1.4566   22.0352 C   0  0  0  0  0  0  0  0  0  0  0  0
   11.7255   -2.5326   21.9090 H   0  0  0  0  0  0  0  0  0  0  0  0
   13.1125   -0.9510   22.2807 C   0  0  0  0  0  0  0  0  0  0  0  0
   13.9791   -1.6022   22.3707 H   0  0  0  0  0  0  0  0  0  0  0  0
   13.2384    0.4410   22.4462 C   0  0  0  0  0  0  0  0  0  0  0  0
   12.1311    1.3212   22.3316 C   0  0  0  0  0  0  0  0  0  0  0  0
   10.8585    0.7900   22.1047 C   0  0  0  0  0  0  0  0  0  0  0  0
    9.9791    1.4290   22.0662 H   0  0  0  0  0  0  0  0  0  0  0  0
   12.6205    2.6514   22.5332 C   0  0  0  0  0  0  0  0  0  0  0  0
   12.0317    3.5584   22.5253 H   0  0  0  0  0  0  0  0  0  0  0  0
   13.9533    2.5416   22.7708 C   0  0  0  0  0  0  0  0  0  0  0  0
   14.6659    3.3500   22.8248 H   0  0  0  0  0  0  0  0  0  0  0  0
   14.3404    1.2122   22.7240 N   0  0  0  0  0  0  0  0  0  0  0  0
   15.2484    0.8547   22.9751 H   0  0  0  0  0  0  0  0  0  0  0  0
    8.7363   -2.0161   22.7891 C   0  0  0  0  0  0  0  0  0  0  0  0
    9.3571   -2.3832   23.6057 H   0  0  0  0  0  0  0  0  0  0  0  0
    7.4253   -2.3673   22.6665 C   0  0  0  0  0  0  0  0  0  0  0  0
    6.9105   -3.0540   23.3278 H   0  0  0  0  0  0  0  0  0  0  0  0
    6.5858   -1.8520   21.5890 C   0  0  0  0  0  0  0  0  0  0  0  0
    5.4529   -2.2322   21.3567 O   0  0  0  0  0  0  0  0  0  0  0  0
    5.3425    0.4926   20.0128 C   0  0  0  0  0  0  0  0  0  0  0  0
    4.8424    0.3709   20.9742 H   0  0  0  0  0  0  0  0  0  0  0  0
    4.7938    1.2604   18.9773 C   0  0  0  0  0  0  0  0  0  0  0  0
    3.8560    1.7921   19.1072 H   0  0  0  0  0  0  0  0  0  0  0  0
  1  2  1  0
  2  3  2  0
  3  4  1  0
  4  5  1  0
  4  6  2  0
  6  7  1  0
  7  8  1  0
  8  9  2  0
  9 10  1  0
 10 11  2  0
 11 12  1  0
 11 13  1  0
 13 14  1  0
 13 15  2  0
 15 16  1  0
 16 17  2  0
 17 18  1  0
 16 19  1  0
 19 20  1  0
 19 21  2  0
 21 22  1  0
 21 23  1  0
 23 24  1  0
  9 25  1  0
 25 26  1  0
 25 27  2  0
 27 28  1  0
 27 29  1  0
 29 30  2  0
  6 31  1  0
 31 32  1  0
 31 33  2  0
 33 34  1  0
 33  2  1  0
 29  7  1  0
 17 10  1  0
 23 15  1  0
M  END
>  <cnnaffinity>  (1) 
-5.99396

>  <filename>  (1) 
O=c1ccc(-c2ccc3[nH]ccc3c2)nn1-c1cccnc1

$$$$
