
     RDKit          3D

 31 33  0  0  0  0  0  0  0  0999 V2000
    5.0457    1.6595   16.9625 H   0  0  0  0  0  0  0  0  0  0  0  0
    5.4578    1.2080   17.8662 C   0  0  0  0  0  0  0  0  0  0  0  0
    6.6076    0.5350   17.7065 N   0  0  0  0  0  0  0  0  0  0  0  0
    7.1407   -0.0311   18.7942 C   0  0  0  0  0  0  0  0  0  0  0  0
    8.0784   -0.5669   18.6367 H   0  0  0  0  0  0  0  0  0  0  0  0
    6.5879    0.0391   20.0861 C   0  0  0  0  0  0  0  0  0  0  0  0
    7.2829   -0.6346   21.1846 C   0  0  0  0  0  0  0  0  0  0  0  0
    8.0205   -1.7543   21.1395 C   0  0  0  0  0  0  0  0  0  0  0  0
    8.2898   -2.4052   20.3324 H   0  0  0  0  0  0  0  0  0  0  0  0
    8.4991   -2.0695   22.3807 O   0  0  0  0  0  0  0  0  0  0  0  0
    8.0864   -1.1179   23.2688 C   0  0  0  0  0  0  0  0  0  0  0  0
    8.3905   -1.0864   24.4272 O   0  0  0  0  0  0  0  0  0  0  0  0
    7.2948   -0.2348   22.5399 N   0  0  0  0  0  0  0  0  0  0  0  0
    6.9139    0.9996   23.1390 C   0  0  0  0  0  0  0  0  0  0  0  0
    5.9028    0.9727   24.1053 C   0  0  0  0  0  0  0  0  0  0  0  0
    5.5746   -0.0055   24.4515 H   0  0  0  0  0  0  0  0  0  0  0  0
    5.3813    2.1681   24.6074 C   0  0  0  0  0  0  0  0  0  0  0  0
    4.5791    2.1387   25.3430 H   0  0  0  0  0  0  0  0  0  0  0  0
    5.9060    3.3923   24.1727 C   0  0  0  0  0  0  0  0  0  0  0  0
    5.4825    4.3320   24.5259 H   0  0  0  0  0  0  0  0  0  0  0  0
    7.0119    3.4074   23.3179 C   0  0  0  0  0  0  0  0  0  0  0  0
    7.4695    4.3579   23.0615 H   0  0  0  0  0  0  0  0  0  0  0  0
    7.5654    2.2100   22.8382 C   0  0  0  0  0  0  0  0  0  0  0  0
    8.8526    2.2251   22.0373 C   0  0  0  0  0  0  0  0  0  0  0  0
    9.6488    1.1640   22.2869 F   0  0  0  0  0  0  0  0  0  0  0  0
    8.6160    2.2433   20.7139 F   0  0  0  0  0  0  0  0  0  0  0  0
    9.5936    3.3163   22.3179 F   0  0  0  0  0  0  0  0  0  0  0  0
    5.3849    0.7557   20.2336 C   0  0  0  0  0  0  0  0  0  0  0  0
    4.9338    0.8572   21.2230 H   0  0  0  0  0  0  0  0  0  0  0  0
    4.8108    1.3380   19.1014 C   0  0  0  0  0  0  0  0  0  0  0  0
    3.8844    1.8984   19.1609 H   0  0  0  0  0  0  0  0  0  0  0  0
  1  2  1  0
  2  3  2  0
  3  4  1  0
  4  5  1  0
  4  6  2  0
  6  7  1  0
  7  8  2  0
  8  9  1  0
  8 10  1  0
 10 11  1  0
 11 12  2  0
 11 13  1  0
 13 14  1  0
 14 15  2  0
 15 16  1  0
 15 17  1  0
 17 18  1  0
 17 19  2  0
 19 20  1  0
 19 21  1  0
 21 22  1  0
 21 23  2  0
 23 24  1  0
 24 25  1  0
 24 26  1  0
 24 27  1  0
  6 28  1  0
 28 29  1  0
 28 30  2  0
 30 31  1  0
 30  2  1  0
 13  7  1  0
 23 14  1  0
M  END
>  <cnnaffinity>  (1) 
-4.99786

>  <filename>  (1) 
O=c1occ(-c2cccnc2)n1-c1ccccc1C(F)(F)F

$$$$
