
     RDKit          3D

 39 42  0  0  0  0  0  0  0  0999 V2000
    4.9171    1.8231   16.9801 H   0  0  0  0  0  0  0  0  0  0  0  0
    5.3833    1.2947   17.8093 C   0  0  0  0  0  0  0  0  0  0  0  0
    6.5385    0.6631   17.5336 N   0  0  0  0  0  0  0  0  0  0  0  0
    7.1755    0.0543   18.5422 C   0  0  0  0  0  0  0  0  0  0  0  0
    8.1320   -0.4195   18.3214 H   0  0  0  0  0  0  0  0  0  0  0  0
    6.6862    0.0153   19.8655 C   0  0  0  0  0  0  0  0  0  0  0  0
    7.3792   -0.6666   20.9144 N   0  0  0  0  0  0  0  0  0  0  0  0
    6.7756   -1.4465   21.8979 C   0  0  0  0  0  0  0  0  0  0  0  0
    5.7078   -1.6002   21.8528 H   0  0  0  0  0  0  0  0  0  0  0  0
    7.7337   -1.9424   22.7276 C   0  0  0  0  0  0  0  0  0  0  0  0
    7.6148   -2.7980   23.9201 C   0  0  0  0  0  0  0  0  0  0  0  0
    6.3761   -2.8840   24.5858 C   0  0  0  0  0  0  0  0  0  0  0  0
    5.5373   -2.2890   24.2362 H   0  0  0  0  0  0  0  0  0  0  0  0
    6.2214   -3.6842   25.7120 C   0  0  0  0  0  0  0  0  0  0  0  0
    5.2490   -3.7569   26.1857 H   0  0  0  0  0  0  0  0  0  0  0  0
    7.2928   -4.4202   26.2450 C   0  0  0  0  0  0  0  0  0  0  0  0
    7.1273   -5.2334   27.4862 C   0  0  0  0  0  0  0  0  0  0  0  0
    6.3114   -4.7978   28.5490 C   0  0  0  0  0  0  0  0  0  0  0  0
    5.8143   -3.8333   28.4704 H   0  0  0  0  0  0  0  0  0  0  0  0
    6.1447   -5.5748   29.6999 C   0  0  0  0  0  0  0  0  0  0  0  0
    5.5017   -5.2165   30.5023 H   0  0  0  0  0  0  0  0  0  0  0  0
    6.7973   -6.8109   29.8124 C   0  0  0  0  0  0  0  0  0  0  0  0
    6.6223   -7.4476   30.6768 H   0  0  0  0  0  0  0  0  0  0  0  0
    7.6480   -7.2372   28.7874 C   0  0  0  0  0  0  0  0  0  0  0  0
    8.2090   -8.1690   28.8701 H   0  0  0  0  0  0  0  0  0  0  0  0
    7.7873   -6.4653   27.6297 C   0  0  0  0  0  0  0  0  0  0  0  0
    8.3744   -6.8440   26.7970 H   0  0  0  0  0  0  0  0  0  0  0  0
    8.5249   -4.3463   25.5661 C   0  0  0  0  0  0  0  0  0  0  0  0
    9.3723   -4.9055   25.9486 H   0  0  0  0  0  0  0  0  0  0  0  0
    8.6877   -3.5542   24.4330 C   0  0  0  0  0  0  0  0  0  0  0  0
    9.6556   -3.5295   23.9393 H   0  0  0  0  0  0  0  0  0  0  0  0
    8.9455   -1.4751   22.2128 N   0  0  0  0  0  0  0  0  0  0  0  0
    9.8841   -1.4995   22.5717 H   0  0  0  0  0  0  0  0  0  0  0  0
    8.7675   -0.6664   21.1246 C   0  0  0  0  0  0  0  0  0  0  0  0
    9.6491   -0.1057   20.5095 O   0  0  0  0  0  0  0  0  0  0  0  0
    5.4661    0.6586   20.1272 C   0  0  0  0  0  0  0  0  0  0  0  0
    5.0630    0.6604   21.1383 H   0  0  0  0  0  0  0  0  0  0  0  0
    4.8034    1.3125   19.0824 C   0  0  0  0  0  0  0  0  0  0  0  0
    3.8672    1.8440   19.2491 H   0  0  0  0  0  0  0  0  0  0  0  0
  1  2  1  0
  2  3  2  0
  3  4  1  0
  4  5  1  0
  4  6  2  0
  6  7  1  0
  7  8  1  0
  8  9  1  0
  8 10  2  0
 10 11  1  0
 11 12  2  0
 12 13  1  0
 12 14  1  0
 14 15  1  0
 14 16  2  0
 16 17  1  0
 17 18  2  0
 18 19  1  0
 18 20  1  0
 20 21  1  0
 20 22  2  0
 22 23  1  0
 22 24  1  0
 24 25  1  0
 24 26  2  0
 26 27  1  0
 16 28  1  0
 28 29  1  0
 28 30  2  0
 30 31  1  0
 10 32  1  0
 32 33  1  0
 32 34  1  0
 34 35  2  0
  6 36  1  0
 36 37  1  0
 36 38  2  0
 38 39  1  0
 38  2  1  0
 34  7  1  0
 30 11  1  0
 26 17  1  0
M  END
>  <cnnaffinity>  (1) 
-5.41879

>  <filename>  (1) 
O=c1[nH]c(-c2ccc(-c3ccccc3)cc2)cn1-c1cccnc1

$$$$
