
     RDKit          3D

 28 30  0  0  0  0  0  0  0  0999 V2000
    4.9268    2.0885   16.8040 H   0  0  0  0  0  0  0  0  0  0  0  0
    5.2993    1.4612   17.6108 C   0  0  0  0  0  0  0  0  0  0  0  0
    6.4155    0.7603   17.3433 N   0  0  0  0  0  0  0  0  0  0  0  0
    6.9389    0.0394   18.3412 C   0  0  0  0  0  0  0  0  0  0  0  0
    7.8592   -0.5008   18.1224 H   0  0  0  0  0  0  0  0  0  0  0  0
    6.3788   -0.0447   19.6332 C   0  0  0  0  0  0  0  0  0  0  0  0
    7.1023   -0.6848   20.7137 N   0  0  0  0  0  0  0  0  0  0  0  0
    8.3311   -0.1459   21.0565 C   0  0  0  0  0  0  0  0  0  0  0  0
    8.6401    0.7230   20.4835 H   0  0  0  0  0  0  0  0  0  0  0  0
    9.1102   -0.6643   22.0529 C   0  0  0  0  0  0  0  0  0  0  0  0
   10.4820   -0.1999   22.2965 C   0  0  0  0  0  0  0  0  0  0  0  0
   11.5010   -0.9654   22.7771 C   0  0  0  0  0  0  0  0  0  0  0  0
   11.5643   -2.0202   23.0069 H   0  0  0  0  0  0  0  0  0  0  0  0
   12.6370   -0.2466   22.8916 O   0  0  0  0  0  0  0  0  0  0  0  0
   12.3539    1.0107   22.4667 C   0  0  0  0  0  0  0  0  0  0  0  0
   13.1989    1.6830   22.4979 H   0  0  0  0  0  0  0  0  0  0  0  0
   11.0583    1.1041   22.0816 C   0  0  0  0  0  0  0  0  0  0  0  0
   10.5480    1.9898   21.7265 H   0  0  0  0  0  0  0  0  0  0  0  0
    8.5725   -1.7191   22.8563 C   0  0  0  0  0  0  0  0  0  0  0  0
    9.1498   -2.0447   23.7259 H   0  0  0  0  0  0  0  0  0  0  0  0
    7.3714   -2.2710   22.5511 C   0  0  0  0  0  0  0  0  0  0  0  0
    6.9462   -3.0987   23.1009 H   0  0  0  0  0  0  0  0  0  0  0  0
    6.5652   -1.8271   21.4151 C   0  0  0  0  0  0  0  0  0  0  0  0
    5.5430   -2.3917   21.0725 O   0  0  0  0  0  0  0  0  0  0  0  0
    5.1678    0.6190   19.8695 C   0  0  0  0  0  0  0  0  0  0  0  0
    4.6732    0.5182   20.8348 H   0  0  0  0  0  0  0  0  0  0  0  0
    4.6381    1.4165   18.8441 C   0  0  0  0  0  0  0  0  0  0  0  0
    3.7383    2.0112   18.9898 H   0  0  0  0  0  0  0  0  0  0  0  0
  1  2  1  0
  2  3  2  0
  3  4  1  0
  4  5  1  0
  4  6  2  0
  6  7  1  0
  7  8  1  0
  8  9  1  0
  8 10  2  0
 10 11  1  0
 11 12  2  0
 12 13  1  0
 12 14  1  0
 14 15  1  0
 15 16  1  0
 15 17  2  0
 17 18  1  0
 10 19  1  0
 19 20  1  0
 19 21  2  0
 21 22  1  0
 21 23  1  0
 23 24  2  0
  6 25  1  0
 25 26  1  0
 25 27  2  0
 27 28  1  0
 27  2  1  0
 23  7  1  0
 17 11  1  0
M  END
>  <cnnaffinity>  (1) 
-5.00729

>  <filename>  (1) 
O=c1ccc(-c2ccoc2)cn1-c1cccnc1

$$$$
