
     RDKit          3D

 32 34  0  0  0  0  0  0  0  0999 V2000
    4.9193    1.7981   16.9739 H   0  0  0  0  0  0  0  0  0  0  0  0
    5.3918    1.3000   17.8179 C   0  0  0  0  0  0  0  0  0  0  0  0
    6.5560    0.6812   17.5601 N   0  0  0  0  0  0  0  0  0  0  0  0
    7.1609    0.0580   18.5790 C   0  0  0  0  0  0  0  0  0  0  0  0
    8.1200   -0.4024   18.3401 H   0  0  0  0  0  0  0  0  0  0  0  0
    6.6443    0.0059   19.8871 C   0  0  0  0  0  0  0  0  0  0  0  0
    7.3333   -0.6578   20.9913 C   0  0  0  0  0  0  0  0  0  0  0  0
    7.2440   -0.4289   22.3201 C   0  0  0  0  0  0  0  0  0  0  0  0
    6.6519    0.2978   22.8560 H   0  0  0  0  0  0  0  0  0  0  0  0
    8.1116   -1.2915   22.9643 N   0  0  0  0  0  0  0  0  0  0  0  0
    8.2011   -1.4931   24.3979 C   0  0  0  0  0  0  0  0  0  0  0  0
    9.2130   -1.8437   24.6133 H   0  0  0  0  0  0  0  0  0  0  0  0
    8.0850   -0.5077   24.8645 H   0  0  0  0  0  0  0  0  0  0  0  0
    7.1529   -2.4587   24.9143 C   0  0  0  0  0  0  0  0  0  0  0  0
    5.8640   -2.0036   25.2405 C   0  0  0  0  0  0  0  0  0  0  0  0
    5.6209   -0.9453   25.1450 H   0  0  0  0  0  0  0  0  0  0  0  0
    4.8751   -2.8930   25.6683 C   0  0  0  0  0  0  0  0  0  0  0  0
    3.8710   -2.5664   25.9202 H   0  0  0  0  0  0  0  0  0  0  0  0
    5.1963   -4.2448   25.7651 C   0  0  0  0  0  0  0  0  0  0  0  0
    4.2511   -5.1078   26.1765 F   0  0  0  0  0  0  0  0  0  0  0  0
    6.4623   -4.7317   25.4499 C   0  0  0  0  0  0  0  0  0  0  0  0
    6.6590   -5.7950   25.5423 H   0  0  0  0  0  0  0  0  0  0  0  0
    7.4391   -3.8280   25.0224 C   0  0  0  0  0  0  0  0  0  0  0  0
    8.4305   -4.1925   24.7574 H   0  0  0  0  0  0  0  0  0  0  0  0
    8.7089   -2.1334   22.0410 C   0  0  0  0  0  0  0  0  0  0  0  0
    9.4555   -3.0708   22.2259 O   0  0  0  0  0  0  0  0  0  0  0  0
    8.2541   -1.6768   20.8278 N   0  0  0  0  0  0  0  0  0  0  0  0
    8.5215   -2.1730   19.9997 H   0  0  0  0  0  0  0  0  0  0  0  0
    5.4273    0.6613   20.1323 C   0  0  0  0  0  0  0  0  0  0  0  0
    4.9946    0.6399   21.1359 H   0  0  0  0  0  0  0  0  0  0  0  0
    4.7943    1.3201   19.0827 C   0  0  0  0  0  0  0  0  0  0  0  0
    3.8635    1.8519   19.2365 H   0  0  0  0  0  0  0  0  0  0  0  0
  1  2  1  0
  2  3  2  0
  3  4  1  0
  4  5  1  0
  4  6  2  0
  6  7  1  0
  7  8  2  0
  8  9  1  0
  8 10  1  0
 10 11  1  0
 11 12  1  0
 11 13  1  0
 11 14  1  0
 14 15  2  0
 15 16  1  0
 15 17  1  0
 17 18  1  0
 17 19  2  0
 19 20  1  0
 19 21  1  0
 21 22  1  0
 21 23  2  0
 23 24  1  0
 10 25  1  0
 25 26  2  0
 25 27  1  0
 27 28  1  0
  6 29  1  0
 29 30  1  0
 29 31  2  0
 31 32  1  0
 31  2  1  0
 27  7  1  0
 23 14  1  0
M  END
>  <cnnaffinity>  (1) 
-5.32577

>  <filename>  (1) 
O=c1[nH]c(-c2cccnc2)cn1Cc1ccc(F)cc1

$$$$
