
     RDKit          3D

 32 34  0  0  0  0  0  0  0  0999 V2000
   15.1581    0.7718   21.7367 H   0  0  0  0  0  0  0  0  0  0  0  0
   14.8043    0.2516   22.4682 O   0  0  0  0  0  0  0  0  0  0  0  0
   13.4809   -0.0575   22.2385 C   0  0  0  0  0  0  0  0  0  0  0  0
   13.1397   -1.4075   22.2079 C   0  0  0  0  0  0  0  0  0  0  0  0
   13.9544   -2.1221   22.3102 H   0  0  0  0  0  0  0  0  0  0  0  0
   11.8047   -1.8039   22.0803 C   0  0  0  0  0  0  0  0  0  0  0  0
   11.5205   -2.8489   22.0634 H   0  0  0  0  0  0  0  0  0  0  0  0
   10.8020   -0.8326   21.9469 C   0  0  0  0  0  0  0  0  0  0  0  0
    9.4153   -1.2009   21.9005 N   0  0  0  0  0  0  0  0  0  0  0  0
    8.6704   -0.5996   20.9227 N   0  0  0  0  0  0  0  0  0  0  0  0
    7.3880   -0.8458   20.8526 C   0  0  0  0  0  0  0  0  0  0  0  0
    6.6628   -0.0190   19.8383 C   0  0  0  0  0  0  0  0  0  0  0  0
    7.2420    0.1349   18.5659 C   0  0  0  0  0  0  0  0  0  0  0  0
    8.2223   -0.2876   18.3650 H   0  0  0  0  0  0  0  0  0  0  0  0
    6.6477    0.7628   17.5460 N   0  0  0  0  0  0  0  0  0  0  0  0
    5.4565    1.3325   17.7854 C   0  0  0  0  0  0  0  0  0  0  0  0
    4.9818    1.8274   16.9382 H   0  0  0  0  0  0  0  0  0  0  0  0
    4.8309    1.3171   19.0359 C   0  0  0  0  0  0  0  0  0  0  0  0
    3.8942    1.8475   19.1707 H   0  0  0  0  0  0  0  0  0  0  0  0
    5.4455    0.6353   20.0894 C   0  0  0  0  0  0  0  0  0  0  0  0
    4.9960    0.6149   21.0840 H   0  0  0  0  0  0  0  0  0  0  0  0
    6.6959   -1.8775   21.7395 C   0  0  0  0  0  0  0  0  0  0  0  0
    5.5793   -2.3409   21.5520 O   0  0  0  0  0  0  0  0  0  0  0  0
    7.5285   -2.2887   22.8644 C   0  0  0  0  0  0  0  0  0  0  0  0
    7.0635   -2.8752   23.6413 H   0  0  0  0  0  0  0  0  0  0  0  0
    8.8363   -1.9656   22.8904 C   0  0  0  0  0  0  0  0  0  0  0  0
    9.5087   -2.2850   23.6903 H   0  0  0  0  0  0  0  0  0  0  0  0
   11.1417    0.5207   21.9116 C   0  0  0  0  0  0  0  0  0  0  0  0
   10.3832    1.2751   21.7333 H   0  0  0  0  0  0  0  0  0  0  0  0
   12.4623    0.9171   22.0823 C   0  0  0  0  0  0  0  0  0  0  0  0
   12.6779    2.2721   22.0900 O   0  0  0  0  0  0  0  0  0  0  0  0
   13.4809    2.4821   21.6008 H   0  0  0  0  0  0  0  0  0  0  0  0
  1  2  1  0
  2  3  1  0
  3  4  2  0
  4  5  1  0
  4  6  1  0
  6  7  1  0
  6  8  2  0
  8  9  1  0
  9 10  1  0
 10 11  2  0
 11 12  1  0
 12 13  2  0
 13 14  1  0
 13 15  1  0
 15 16  2  0
 16 17  1  0
 16 18  1  0
 18 19  1  0
 18 20  2  0
 20 21  1  0
 11 22  1  0
 22 23  2  0
 22 24  1  0
 24 25  1  0
 24 26  2  0
 26 27  1  0
  8 28  1  0
 28 29  1  0
 28 30  2  0
 30 31  1  0
 31 32  1  0
 30  3  1  0
 26  9  1  0
 20 12  1  0
M  END
>  <cnnaffinity>  (1) 
-5.81417

>  <filename>  (1) 
O=c1ccn(-c2ccc(O)c(O)c2)nc1-c1cccnc1

$$$$
