
     RDKit          3D

 27 29  0  0  0  0  0  0  0  0999 V2000
   14.5822   -1.0210   22.2384 H   0  0  0  0  0  0  0  0  0  0  0  0
   13.5707   -0.6424   22.2999 C   0  0  0  0  0  0  0  0  0  0  0  0
   12.5210   -1.5246   22.3539 N   0  0  0  0  0  0  0  0  0  0  0  0
   11.4105   -0.8736   22.4826 C   0  0  0  0  0  0  0  0  0  0  0  0
   10.2636   -1.6120   22.7054 N   0  0  0  0  0  0  0  0  0  0  0  0
   10.5809   -2.5740   22.6754 H   0  0  0  0  0  0  0  0  0  0  0  0
    9.0914   -1.4057   22.0096 C   0  0  0  0  0  0  0  0  0  0  0  0
    8.7309   -0.6169   20.9871 C   0  0  0  0  0  0  0  0  0  0  0  0
    9.2937    0.1056   20.4252 H   0  0  0  0  0  0  0  0  0  0  0  0
    7.3734   -0.8582   20.7441 N   0  0  0  0  0  0  0  0  0  0  0  0
    6.6508   -0.1244   19.7659 C   0  0  0  0  0  0  0  0  0  0  0  0
    7.1881    0.0228   18.4675 C   0  0  0  0  0  0  0  0  0  0  0  0
    8.1431   -0.4473   18.2184 H   0  0  0  0  0  0  0  0  0  0  0  0
    6.5883    0.7136   17.4939 N   0  0  0  0  0  0  0  0  0  0  0  0
    5.4301    1.3278   17.7911 C   0  0  0  0  0  0  0  0  0  0  0  0
    4.9813    1.9007   16.9845 H   0  0  0  0  0  0  0  0  0  0  0  0
    4.8289    1.2677   19.0531 C   0  0  0  0  0  0  0  0  0  0  0  0
    3.9168    1.8273   19.2354 H   0  0  0  0  0  0  0  0  0  0  0  0
    5.4428    0.5222   20.0667 C   0  0  0  0  0  0  0  0  0  0  0  0
    5.0252    0.4664   21.0720 H   0  0  0  0  0  0  0  0  0  0  0  0
    6.9029   -1.8434   21.6328 C   0  0  0  0  0  0  0  0  0  0  0  0
    5.7978   -2.3279   21.7586 O   0  0  0  0  0  0  0  0  0  0  0  0
    8.0186   -2.1857   22.3626 N   0  0  0  0  0  0  0  0  0  0  0  0
    7.8794   -2.6594   23.2329 H   0  0  0  0  0  0  0  0  0  0  0  0
   11.5379    0.8587   22.4780 S   0  0  0  0  0  0  0  0  0  0  0  0
   13.2547    0.6705   22.3505 C   0  0  0  0  0  0  0  0  0  0  0  0
   13.9403    1.4969   22.3324 H   0  0  0  0  0  0  0  0  0  0  0  0
  1  2  1  0
  2  3  1  0
  3  4  2  0
  4  5  1  0
  5  6  1  0
  5  7  1  0
  7  8  2  0
  8  9  1  0
  8 10  1  0
 10 11  1  0
 11 12  2  0
 12 13  1  0
 12 14  1  0
 14 15  2  0
 15 16  1  0
 15 17  1  0
 17 18  1  0
 17 19  2  0
 19 20  1  0
 10 21  1  0
 21 22  2  0
 21 23  1  0
 23 24  1  0
  4 25  1  0
 25 26  1  0
 26 27  1  0
 26  2  2  0
 23  7  1  0
 19 11  1  0
M  END
>  <cnnaffinity>  (1) 
-5.03185

>  <filename>  (1) 
O=c1[nH]c(Nc2nccs2)cn1-c1cccnc1

$$$$
