
     RDKit          3D

 30 32  0  0  0  0  0  0  0  0999 V2000
    4.9193    1.7752   16.9992 H   0  0  0  0  0  0  0  0  0  0  0  0
    5.4069    1.2904   17.8416 C   0  0  0  0  0  0  0  0  0  0  0  0
    6.5705    0.6722   17.5870 N   0  0  0  0  0  0  0  0  0  0  0  0
    7.1718    0.0601   18.6112 C   0  0  0  0  0  0  0  0  0  0  0  0
    8.1137   -0.4294   18.3736 H   0  0  0  0  0  0  0  0  0  0  0  0
    6.6393    0.0070   19.9073 C   0  0  0  0  0  0  0  0  0  0  0  0
    7.3337   -0.7209   20.9948 C   0  0  0  0  0  0  0  0  0  0  0  0
    6.5767   -1.2918   21.9102 N   0  0  0  0  0  0  0  0  0  0  0  0
    7.1811   -1.9399   22.9607 N   0  0  0  0  0  0  0  0  0  0  0  0
    6.3025   -2.5339   23.9284 C   0  0  0  0  0  0  0  0  0  0  0  0
    6.4111   -2.1663   25.2804 C   0  0  0  0  0  0  0  0  0  0  0  0
    7.1569   -1.4357   25.5653 H   0  0  0  0  0  0  0  0  0  0  0  0
    5.5698   -2.7067   26.2538 C   0  0  0  0  0  0  0  0  0  0  0  0
    5.6480   -2.4068   27.2961 H   0  0  0  0  0  0  0  0  0  0  0  0
    4.6192   -3.6539   25.8724 C   0  0  0  0  0  0  0  0  0  0  0  0
    3.5658   -4.3381   27.0694 Cl  0  0  0  0  0  0  0  0  0  0  0  0
    4.4993   -4.0641   24.5446 C   0  0  0  0  0  0  0  0  0  0  0  0
    3.7541   -4.8023   24.2624 H   0  0  0  0  0  0  0  0  0  0  0  0
    5.3404   -3.5012   23.5739 C   0  0  0  0  0  0  0  0  0  0  0  0
    5.1788   -4.0662   21.9472 Cl  0  0  0  0  0  0  0  0  0  0  0  0
    8.6013   -2.0959   23.1237 C   0  0  0  0  0  0  0  0  0  0  0  0
    9.0919   -2.7256   24.0437 O   0  0  0  0  0  0  0  0  0  0  0  0
    9.3744   -1.4369   22.0728 C   0  0  0  0  0  0  0  0  0  0  0  0
   10.4471   -1.5309   22.1830 H   0  0  0  0  0  0  0  0  0  0  0  0
    8.7716   -0.7741   21.0477 C   0  0  0  0  0  0  0  0  0  0  0  0
    9.3614   -0.2559   20.2884 H   0  0  0  0  0  0  0  0  0  0  0  0
    5.4243    0.6558   20.1599 C   0  0  0  0  0  0  0  0  0  0  0  0
    5.0017    0.6219   21.1683 H   0  0  0  0  0  0  0  0  0  0  0  0
    4.8034    1.3175   19.1050 C   0  0  0  0  0  0  0  0  0  0  0  0
    3.8699    1.8480   19.2581 H   0  0  0  0  0  0  0  0  0  0  0  0
  1  2  1  0
  2  3  2  0
  3  4  1  0
  4  5  1  0
  4  6  2  0
  6  7  1  0
  7  8  2  0
  8  9  1  0
  9 10  1  0
 10 11  2  0
 11 12  1  0
 11 13  1  0
 13 14  1  0
 13 15  2  0
 15 16  1  0
 15 17  1  0
 17 18  1  0
 17 19  2  0
 19 20  1  0
  9 21  1  0
 21 22  2  0
 21 23  1  0
 23 24  1  0
 23 25  2  0
 25 26  1  0
  6 27  1  0
 27 28  1  0
 27 29  2  0
 29 30  1  0
 29  2  1  0
 25  7  1  0
 19 10  1  0
M  END
>  <cnnaffinity>  (1) 
-5.17152

>  <filename>  (1) 
O=c1ccc(-c2cccnc2)nn1-c1ccc(Cl)cc1Cl

$$$$
