
     RDKit          3D

 37 39  0  0  0  0  0  0  0  0999 V2000
    4.9695    1.7848   16.9797 H   0  0  0  0  0  0  0  0  0  0  0  0
    5.4367    1.2861   17.8249 C   0  0  0  0  0  0  0  0  0  0  0  0
    6.6020    0.6606   17.5753 N   0  0  0  0  0  0  0  0  0  0  0  0
    7.2119    0.0540   18.6014 C   0  0  0  0  0  0  0  0  0  0  0  0
    8.1702   -0.4287   18.4066 H   0  0  0  0  0  0  0  0  0  0  0  0
    6.6765    0.0051   19.9005 C   0  0  0  0  0  0  0  0  0  0  0  0
    7.3776   -0.6919   20.9320 N   0  0  0  0  0  0  0  0  0  0  0  0
    8.7460   -0.5711   20.9266 N   0  0  0  0  0  0  0  0  0  0  0  0
    9.4264   -1.0956   21.9044 C   0  0  0  0  0  0  0  0  0  0  0  0
   10.9108   -0.8130   21.9444 C   0  0  0  0  0  0  0  0  0  0  0  0
   11.4731   -1.7063   22.2363 H   0  0  0  0  0  0  0  0  0  0  0  0
   11.2072   -0.5153   20.9360 H   0  0  0  0  0  0  0  0  0  0  0  0
   11.2723    0.3096   22.9188 C   0  0  0  0  0  0  0  0  0  0  0  0
   12.3556    0.4932   22.9000 H   0  0  0  0  0  0  0  0  0  0  0  0
   10.9756    0.0688   23.9511 H   0  0  0  0  0  0  0  0  0  0  0  0
   10.5754    1.4517   22.4758 O   0  0  0  0  0  0  0  0  0  0  0  0
   10.7512    2.6558   23.0777 C   0  0  0  0  0  0  0  0  0  0  0  0
    9.9280    3.6575   22.5428 C   0  0  0  0  0  0  0  0  0  0  0  0
    9.2238    3.3917   21.7610 H   0  0  0  0  0  0  0  0  0  0  0  0
   10.0377    4.9693   22.9838 C   0  0  0  0  0  0  0  0  0  0  0  0
    9.4091    5.7183   22.5154 H   0  0  0  0  0  0  0  0  0  0  0  0
   10.9534    5.3131   23.9832 C   0  0  0  0  0  0  0  0  0  0  0  0
   11.0372    6.3434   24.3224 H   0  0  0  0  0  0  0  0  0  0  0  0
   11.7500    4.3103   24.5342 C   0  0  0  0  0  0  0  0  0  0  0  0
   12.4347    4.5778   25.3319 H   0  0  0  0  0  0  0  0  0  0  0  0
   11.6494    2.9712   24.1103 C   0  0  0  0  0  0  0  0  0  0  0  0
   12.2523    2.2028   24.5902 H   0  0  0  0  0  0  0  0  0  0  0  0
    8.8171   -1.9487   22.9788 C   0  0  0  0  0  0  0  0  0  0  0  0
    9.4747   -2.4759   23.8672 O   0  0  0  0  0  0  0  0  0  0  0  0
    7.3828   -2.1033   22.8506 C   0  0  0  0  0  0  0  0  0  0  0  0
    6.8861   -2.7278   23.5787 H   0  0  0  0  0  0  0  0  0  0  0  0
    6.7255   -1.4696   21.8578 C   0  0  0  0  0  0  0  0  0  0  0  0
    5.6488   -1.5572   21.7362 H   0  0  0  0  0  0  0  0  0  0  0  0
    5.4557    0.6569   20.1517 C   0  0  0  0  0  0  0  0  0  0  0  0
    5.0514    0.6904   21.1644 H   0  0  0  0  0  0  0  0  0  0  0  0
    4.8327    1.3103   19.0848 C   0  0  0  0  0  0  0  0  0  0  0  0
    3.8916    1.8319   19.2243 H   0  0  0  0  0  0  0  0  0  0  0  0
  1  2  1  0
  2  3  2  0
  3  4  1  0
  4  5  1  0
  4  6  2  0
  6  7  1  0
  7  8  1  0
  8  9  2  0
  9 10  1  0
 10 11  1  0
 10 12  1  0
 10 13  1  0
 13 14  1  0
 13 15  1  0
 13 16  1  0
 16 17  1  0
 17 18  2  0
 18 19  1  0
 18 20  1  0
 20 21  1  0
 20 22  2  0
 22 23  1  0
 22 24  1  0
 24 25  1  0
 24 26  2  0
 26 27  1  0
  9 28  1  0
 28 29  2  0
 28 30  1  0
 30 31  1  0
 30 32  2  0
 32 33  1  0
  6 34  1  0
 34 35  1  0
 34 36  2  0
 36 37  1  0
 36  2  1  0
 32  7  1  0
 26 17  1  0
M  END
>  <cnnaffinity>  (1) 
-5.25538

>  <filename>  (1) 
O=c1ccn(-c2cccnc2)nc1CCOc1ccccc1

$$$$
