
     RDKit          3D

 32 34  0  0  0  0  0  0  0  0999 V2000
    4.9366    1.8219   16.9646 H   0  0  0  0  0  0  0  0  0  0  0  0
    5.4129    1.3284   17.8096 C   0  0  0  0  0  0  0  0  0  0  0  0
    6.5777    0.7130   17.5492 N   0  0  0  0  0  0  0  0  0  0  0  0
    7.1895    0.0781   18.5584 C   0  0  0  0  0  0  0  0  0  0  0  0
    8.1348   -0.4087   18.3194 H   0  0  0  0  0  0  0  0  0  0  0  0
    6.6611   -0.0007   19.8642 C   0  0  0  0  0  0  0  0  0  0  0  0
    7.3427   -0.7104   20.9245 N   0  0  0  0  0  0  0  0  0  0  0  0
    8.6099   -0.2752   21.2715 C   0  0  0  0  0  0  0  0  0  0  0  0
    8.9954    0.5728   20.7166 H   0  0  0  0  0  0  0  0  0  0  0  0
    9.3592   -0.8601   22.2559 C   0  0  0  0  0  0  0  0  0  0  0  0
   10.6439   -0.4045   22.5912 N   0  0  0  0  0  0  0  0  0  0  0  0
   11.3226   -1.0888   22.8871 H   0  0  0  0  0  0  0  0  0  0  0  0
   11.1102    0.8966   22.5610 C   0  0  0  0  0  0  0  0  0  0  0  0
   10.2534    1.9882   22.7169 C   0  0  0  0  0  0  0  0  0  0  0  0
    9.2021    1.8221   22.9189 H   0  0  0  0  0  0  0  0  0  0  0  0
   10.8200    3.2580   22.6927 C   0  0  0  0  0  0  0  0  0  0  0  0
   10.1815    4.1382   22.7734 H   0  0  0  0  0  0  0  0  0  0  0  0
   12.1358    3.4891   22.5944 N   0  0  0  0  0  0  0  0  0  0  0  0
   12.9399    2.4243   22.4717 C   0  0  0  0  0  0  0  0  0  0  0  0
   14.0110    2.6281   22.4191 H   0  0  0  0  0  0  0  0  0  0  0  0
   12.4827    1.1134   22.4236 C   0  0  0  0  0  0  0  0  0  0  0  0
   13.1500    0.2793   22.2432 H   0  0  0  0  0  0  0  0  0  0  0  0
    8.7945   -1.9800   22.9541 C   0  0  0  0  0  0  0  0  0  0  0  0
    9.3977   -2.4465   23.7364 H   0  0  0  0  0  0  0  0  0  0  0  0
    7.5388   -2.4148   22.6584 C   0  0  0  0  0  0  0  0  0  0  0  0
    7.0462   -3.2353   23.1645 H   0  0  0  0  0  0  0  0  0  0  0  0
    6.7134   -1.8172   21.6094 C   0  0  0  0  0  0  0  0  0  0  0  0
    5.6071   -2.2340   21.3085 O   0  0  0  0  0  0  0  0  0  0  0  0
    5.4501    0.6542   20.1209 C   0  0  0  0  0  0  0  0  0  0  0  0
    5.0340    0.6129   21.1261 H   0  0  0  0  0  0  0  0  0  0  0  0
    4.8139    1.3332   19.0742 C   0  0  0  0  0  0  0  0  0  0  0  0
    3.8691    1.8502   19.2181 H   0  0  0  0  0  0  0  0  0  0  0  0
  1  2  1  0
  2  3  2  0
  3  4  1  0
  4  5  1  0
  4  6  2  0
  6  7  1  0
  7  8  1  0
  8  9  1  0
  8 10  2  0
 10 11  1  0
 11 12  1  0
 11 13  1  0
 13 14  2  0
 14 15  1  0
 14 16  1  0
 16 17  1  0
 16 18  2  0
 18 19  1  0
 19 20  1  0
 19 21  2  0
 21 22  1  0
 10 23  1  0
 23 24  1  0
 23 25  2  0
 25 26  1  0
 25 27  1  0
 27 28  2  0
  6 29  1  0
 29 30  1  0
 29 31  2  0
 31 32  1  0
 31  2  1  0
 27  7  1  0
 21 13  1  0
M  END
>  <cnnaffinity>  (1) 
-5.48035

>  <filename>  (1) 
O=c1ccc(Nc2ccncc2)cn1-c1cccnc1

$$$$
