
     RDKit          3D

 36 38  0  0  0  0  0  0  0  0999 V2000
    4.9325    1.8046   17.0167 H   0  0  0  0  0  0  0  0  0  0  0  0
    5.4195    1.2927   17.8450 C   0  0  0  0  0  0  0  0  0  0  0  0
    6.5849    0.6880   17.5655 N   0  0  0  0  0  0  0  0  0  0  0  0
    7.2144    0.0605   18.5656 C   0  0  0  0  0  0  0  0  0  0  0  0
    8.1563   -0.4266   18.3225 H   0  0  0  0  0  0  0  0  0  0  0  0
    6.7113   -0.0388   19.8816 C   0  0  0  0  0  0  0  0  0  0  0  0
    7.4134   -0.7575   20.8782 N   0  0  0  0  0  0  0  0  0  0  0  0
    6.8199   -1.6335   21.7817 C   0  0  0  0  0  0  0  0  0  0  0  0
    5.7397   -2.1619   21.7467 O   0  0  0  0  0  0  0  0  0  0  0  0
    7.7690   -1.9036   22.7402 N   0  0  0  0  0  0  0  0  0  0  0  0
    7.5848   -2.6017   23.4347 H   0  0  0  0  0  0  0  0  0  0  0  0
    9.0243   -1.5945   22.3209 C   0  0  0  0  0  0  0  0  0  0  0  0
   10.0403   -1.9454   22.8650 O   0  0  0  0  0  0  0  0  0  0  0  0
    8.8687   -0.7129   21.0819 C   0  0  2  0  0  0  0  0  0  0  0  0
    9.4027   -1.2005   20.2560 H   0  0  0  0  0  0  0  0  0  0  0  0
    9.4705    0.6970   21.2795 C   0  0  0  0  0  0  0  0  0  0  0  0
    9.4026    1.2129   20.3210 H   0  0  0  0  0  0  0  0  0  0  0  0
   10.5410    0.5721   21.4838 H   0  0  0  0  0  0  0  0  0  0  0  0
    8.8072    1.5092   22.3683 C   0  0  0  0  0  0  0  0  0  0  0  0
    9.1299    1.3197   23.7195 C   0  0  0  0  0  0  0  0  0  0  0  0
    9.8910    0.5941   23.9899 H   0  0  0  0  0  0  0  0  0  0  0  0
    8.4741    2.0332   24.7243 C   0  0  0  0  0  0  0  0  0  0  0  0
    8.7376    1.8607   25.7660 H   0  0  0  0  0  0  0  0  0  0  0  0
    7.4644    2.9513   24.3893 C   0  0  0  0  0  0  0  0  0  0  0  0
    6.7742    3.7644   25.4716 C   0  0  0  0  0  0  0  0  0  0  0  0
    7.4207    4.9226   25.7157 F   0  0  0  0  0  0  0  0  0  0  0  0
    6.7102    3.1077   26.6471 F   0  0  0  0  0  0  0  0  0  0  0  0
    5.5095    4.0936   25.1404 F   0  0  0  0  0  0  0  0  0  0  0  0
    7.1287    3.1453   23.0388 C   0  0  0  0  0  0  0  0  0  0  0  0
    6.3417    3.8418   22.7549 H   0  0  0  0  0  0  0  0  0  0  0  0
    7.8014    2.4307   22.0489 C   0  0  0  0  0  0  0  0  0  0  0  0
    7.5268    2.5739   21.0104 H   0  0  0  0  0  0  0  0  0  0  0  0
    5.4907    0.6039   20.1595 C   0  0  0  0  0  0  0  0  0  0  0  0
    5.0699    0.5612   21.1671 H   0  0  0  0  0  0  0  0  0  0  0  0
    4.8392    1.2845   19.1209 C   0  0  0  0  0  0  0  0  0  0  0  0
    3.8996    1.8096   19.2814 H   0  0  0  0  0  0  0  0  0  0  0  0
  1  2  1  0
  2  3  2  0
  3  4  1  0
  4  5  1  0
  4  6  2  0
  6  7  1  0
  7  8  1  0
  8  9  2  0
  8 10  1  0
 10 11  1  0
 10 12  1  0
 12 13  2  0
 12 14  1  0
 14 15  1  6
 14 16  1  0
 16 17  1  0
 16 18  1  0
 16 19  1  0
 19 20  2  0
 20 21  1  0
 20 22  1  0
 22 23  1  0
 22 24  2  0
 24 25  1  0
 25 26  1  0
 25 27  1  0
 25 28  1  0
 24 29  1  0
 29 30  1  0
 29 31  2  0
 31 32  1  0
  6 33  1  0
 33 34  1  0
 33 35  2  0
 35 36  1  0
 35  2  1  0
 14  7  1  0
 31 19  1  0
M  END
>  <cnnaffinity>  (1) 
-5.19667

>  <filename>  (1) 
O=C1NC(=O)N(c2cccnc2)[C@H]1Cc1ccc(C(F)(F)F)cc1

$$$$
