
     RDKit          3D

 33 36  0  0  0  0  0  0  0  0999 V2000
    4.9396    1.7893   16.9858 H   0  0  0  0  0  0  0  0  0  0  0  0
    5.4021    1.2943   17.8386 C   0  0  0  0  0  0  0  0  0  0  0  0
    6.5620    0.6681   17.5907 N   0  0  0  0  0  0  0  0  0  0  0  0
    7.1582    0.0506   18.6170 C   0  0  0  0  0  0  0  0  0  0  0  0
    8.1028   -0.4340   18.3758 H   0  0  0  0  0  0  0  0  0  0  0  0
    6.6315   -0.0024   19.9172 C   0  0  0  0  0  0  0  0  0  0  0  0
    7.3408   -0.7337   21.0027 C   0  0  0  0  0  0  0  0  0  0  0  0
    6.5906   -1.3199   21.9092 N   0  0  0  0  0  0  0  0  0  0  0  0
    7.1934   -1.9425   22.9718 N   0  0  0  0  0  0  0  0  0  0  0  0
    6.3005   -2.5307   23.9406 C   0  0  0  0  0  0  0  0  0  0  0  0
    6.5410   -2.3291   25.3317 C   0  0  0  0  0  0  0  0  0  0  0  0
    7.4122   -1.7573   25.6248 H   0  0  0  0  0  0  0  0  0  0  0  0
    5.7010   -2.8735   26.2892 C   0  0  0  0  0  0  0  0  0  0  0  0
    5.8873   -2.7284   27.3485 H   0  0  0  0  0  0  0  0  0  0  0  0
    4.6097   -3.6477   25.8343 C   0  0  0  0  0  0  0  0  0  0  0  0
    4.3602   -3.8628   24.4566 C   0  0  0  0  0  0  0  0  0  0  0  0
    3.1689   -4.6575   24.4430 C   0  0  0  0  0  0  0  0  0  0  0  0
    2.6193   -5.0387   23.5890 H   0  0  0  0  0  0  0  0  0  0  0  0
    2.7407   -4.9046   25.6634 N   0  0  0  0  0  0  0  0  0  0  0  0
    3.6130   -4.2970   26.4979 N   0  0  0  0  0  0  0  0  0  0  0  0
    3.4808   -4.3662   27.4967 H   0  0  0  0  0  0  0  0  0  0  0  0
    5.2269   -3.2834   23.4925 C   0  0  0  0  0  0  0  0  0  0  0  0
    5.0768   -3.3745   22.4224 H   0  0  0  0  0  0  0  0  0  0  0  0
    8.6090   -2.1111   23.1256 C   0  0  0  0  0  0  0  0  0  0  0  0
    9.1077   -2.7469   24.0357 O   0  0  0  0  0  0  0  0  0  0  0  0
    9.3827   -1.4497   22.0776 C   0  0  0  0  0  0  0  0  0  0  0  0
   10.4549   -1.5507   22.1934 H   0  0  0  0  0  0  0  0  0  0  0  0
    8.7776   -0.7840   21.0585 C   0  0  0  0  0  0  0  0  0  0  0  0
    9.3444   -0.2576   20.2952 H   0  0  0  0  0  0  0  0  0  0  0  0
    5.4140    0.6511   20.1592 C   0  0  0  0  0  0  0  0  0  0  0  0
    4.9817    0.6273   21.1618 H   0  0  0  0  0  0  0  0  0  0  0  0
    4.7963    1.3190   19.1007 C   0  0  0  0  0  0  0  0  0  0  0  0
    3.8645    1.8565   19.2355 H   0  0  0  0  0  0  0  0  0  0  0  0
  1  2  1  0
  2  3  2  0
  3  4  1  0
  4  5  1  0
  4  6  2  0
  6  7  1  0
  7  8  2  0
  8  9  1  0
  9 10  1  0
 10 11  2  0
 11 12  1  0
 11 13  1  0
 13 14  1  0
 13 15  2  0
 15 16  1  0
 16 17  1  0
 17 18  1  0
 17 19  2  0
 19 20  1  0
 20 21  1  0
 16 22  2  0
 22 23  1  0
  9 24  1  0
 24 25  2  0
 24 26  1  0
 26 27  1  0
 26 28  2  0
 28 29  1  0
  6 30  1  0
 30 31  1  0
 30 32  2  0
 32 33  1  0
 32  2  1  0
 28  7  1  0
 22 10  1  0
 20 15  1  0
M  END
>  <cnnaffinity>  (1) 
-5.08629

>  <filename>  (1) 
O=c1ccc(-c2cccnc2)nn1-c1ccc2[nH]ncc2c1

$$$$
