
     RDKit          3D

 35 37  0  0  0  0  0  0  0  0999 V2000
    5.0426    1.7874   16.9818 H   0  0  0  0  0  0  0  0  0  0  0  0
    5.5035    1.2906   17.8316 C   0  0  0  0  0  0  0  0  0  0  0  0
    6.6950    0.7132   17.5953 N   0  0  0  0  0  0  0  0  0  0  0  0
    7.2929    0.0962   18.6194 C   0  0  0  0  0  0  0  0  0  0  0  0
    8.2732   -0.3420   18.4456 H   0  0  0  0  0  0  0  0  0  0  0  0
    6.7126   -0.0158   19.8951 C   0  0  0  0  0  0  0  0  0  0  0  0
    7.4086   -0.7218   20.9209 N   0  0  0  0  0  0  0  0  0  0  0  0
    8.7816   -0.4834   20.9418 N   0  0  0  0  0  0  0  0  0  0  0  0
    9.4417   -0.8228   21.9882 C   0  0  0  0  0  0  0  0  0  0  0  0
   10.9231   -0.5270   21.9851 C   0  0  0  0  0  0  0  0  0  0  0  0
   11.2695   -0.4757   20.9491 H   0  0  0  0  0  0  0  0  0  0  0  0
   11.4482   -1.3631   22.4576 H   0  0  0  0  0  0  0  0  0  0  0  0
   11.2290    0.7546   22.7400 C   0  0  0  0  0  0  0  0  0  0  0  0
   11.2309    0.7323   24.1445 C   0  0  0  0  0  0  0  0  0  0  0  0
   11.1678   -0.2233   24.6566 H   0  0  0  0  0  0  0  0  0  0  0  0
   11.2820    1.9049   24.8960 C   0  0  0  0  0  0  0  0  0  0  0  0
   11.1609    1.8557   25.9711 H   0  0  0  0  0  0  0  0  0  0  0  0
   11.4224    3.1370   24.2502 C   0  0  0  0  0  0  0  0  0  0  0  0
   11.4742    4.0607   24.8146 H   0  0  0  0  0  0  0  0  0  0  0  0
   11.4955    3.1902   22.8626 C   0  0  0  0  0  0  0  0  0  0  0  0
   11.6305    4.1267   22.3260 H   0  0  0  0  0  0  0  0  0  0  0  0
   11.4010    2.0062   22.1270 C   0  0  0  0  0  0  0  0  0  0  0  0
   11.5586    2.1925   20.4152 Cl  0  0  0  0  0  0  0  0  0  0  0  0
    8.7462   -1.4029   23.2106 C   0  0  0  0  0  0  0  0  0  0  0  0
    8.3815   -0.5618   23.8203 H   0  0  0  0  0  0  0  0  0  0  0  0
    9.4563   -1.9512   23.8424 H   0  0  0  0  0  0  0  0  0  0  0  0
    7.5657   -2.3036   22.8047 C   0  0  0  0  0  0  0  0  0  0  0  0
    7.8911   -3.3146   22.5282 H   0  0  0  0  0  0  0  0  0  0  0  0
    6.8412   -2.4190   23.6165 H   0  0  0  0  0  0  0  0  0  0  0  0
    6.7771   -1.7839   21.6104 C   0  0  0  0  0  0  0  0  0  0  0  0
    5.7149   -2.2668   21.2769 O   0  0  0  0  0  0  0  0  0  0  0  0
    5.4747    0.5886   20.1390 C   0  0  0  0  0  0  0  0  0  0  0  0
    5.0156    0.5312   21.1264 H   0  0  0  0  0  0  0  0  0  0  0  0
    4.8662    1.2690   19.0773 C   0  0  0  0  0  0  0  0  0  0  0  0
    3.9221    1.7891   19.2051 H   0  0  0  0  0  0  0  0  0  0  0  0
  1  2  1  0
  2  3  2  0
  3  4  1  0
  4  5  1  0
  4  6  2  0
  6  7  1  0
  7  8  1  0
  8  9  2  0
  9 10  1  0
 10 11  1  0
 10 12  1  0
 10 13  1  0
 13 14  2  0
 14 15  1  0
 14 16  1  0
 16 17  1  0
 16 18  2  0
 18 19  1  0
 18 20  1  0
 20 21  1  0
 20 22  2  0
 22 23  1  0
  9 24  1  0
 24 25  1  0
 24 26  1  0
 24 27  1  0
 27 28  1  0
 27 29  1  0
 27 30  1  0
 30 31  2  0
  6 32  1  0
 32 33  1  0
 32 34  2  0
 34 35  1  0
 34  2  1  0
 30  7  1  0
 22 13  1  0
M  END
>  <cnnaffinity>  (1) 
-5.31202

>  <filename>  (1) 
O=C1CCC(Cc2ccccc2Cl)=NN1c1cccnc1

$$$$
