
     RDKit          3D

 34 37  0  0  0  0  0  0  0  0999 V2000
    4.8953    1.8631   16.9552 H   0  0  0  0  0  0  0  0  0  0  0  0
    5.3629    1.3307   17.7799 C   0  0  0  0  0  0  0  0  0  0  0  0
    6.5168    0.7064   17.4938 N   0  0  0  0  0  0  0  0  0  0  0  0
    7.1393    0.0728   18.4948 C   0  0  0  0  0  0  0  0  0  0  0  0
    8.0971   -0.3959   18.2705 H   0  0  0  0  0  0  0  0  0  0  0  0
    6.6279   -0.0003   19.8075 C   0  0  0  0  0  0  0  0  0  0  0  0
    7.3525   -0.6701   20.8748 N   0  0  0  0  0  0  0  0  0  0  0  0
    8.6082   -0.1567   21.3103 C   0  0  0  0  0  0  0  0  0  0  0  0
    9.0903    0.8115   20.7600 O   0  0  0  0  0  0  0  0  0  0  0  0
    9.2699   -0.8667   22.3860 C   0  0  0  0  0  0  0  0  0  0  0  0
   10.2171   -0.4423   22.6685 H   0  0  0  0  0  0  0  0  0  0  0  0
    8.7222   -1.9608   22.9569 C   0  0  0  0  0  0  0  0  0  0  0  0
    9.3351   -2.8205   23.9808 C   0  0  0  0  0  0  0  0  0  0  0  0
   10.5976   -3.3164   23.8887 C   0  0  0  0  0  0  0  0  0  0  0  0
   11.3240   -3.1243   23.1091 H   0  0  0  0  0  0  0  0  0  0  0  0
   11.0245   -4.4116   25.1497 S   0  0  0  0  0  0  0  0  0  0  0  0
    9.5348   -4.0805   25.9869 C   0  0  0  0  0  0  0  0  0  0  0  0
    9.1733   -4.5229   27.2745 C   0  0  0  0  0  0  0  0  0  0  0  0
    9.8891   -5.0431   27.9068 H   0  0  0  0  0  0  0  0  0  0  0  0
    7.8974   -4.2256   27.7380 C   0  0  0  0  0  0  0  0  0  0  0  0
    7.5826   -4.5806   28.7154 H   0  0  0  0  0  0  0  0  0  0  0  0
    7.0093   -3.4459   26.9639 C   0  0  0  0  0  0  0  0  0  0  0  0
    6.0083   -3.2452   27.3350 H   0  0  0  0  0  0  0  0  0  0  0  0
    7.3969   -2.9431   25.7287 C   0  0  0  0  0  0  0  0  0  0  0  0
    6.7251   -2.3000   25.1603 H   0  0  0  0  0  0  0  0  0  0  0  0
    8.6815   -3.2578   25.2185 C   0  0  0  0  0  0  0  0  0  0  0  0
    7.4690   -2.3230   22.5264 N   0  0  0  0  0  0  0  0  0  0  0  0
    7.0550   -3.1930   22.8052 H   0  0  0  0  0  0  0  0  0  0  0  0
    6.7786   -1.7789   21.4801 C   0  0  0  0  0  0  0  0  0  0  0  0
    5.7392   -2.2944   21.1299 O   0  0  0  0  0  0  0  0  0  0  0  0
    5.4151    0.6317   20.0848 C   0  0  0  0  0  0  0  0  0  0  0  0
    5.0009    0.5969   21.0917 H   0  0  0  0  0  0  0  0  0  0  0  0
    4.7781    1.3238   19.0484 C   0  0  0  0  0  0  0  0  0  0  0  0
    3.8587    1.8691   19.2148 H   0  0  0  0  0  0  0  0  0  0  0  0
  1  2  1  0
  2  3  2  0
  3  4  1  0
  4  5  1  0
  4  6  2  0
  6  7  1  0
  7  8  1  0
  8  9  2  0
  8 10  1  0
 10 11  1  0
 10 12  2  0
 12 13  1  0
 13 14  2  0
 14 15  1  0
 14 16  1  0
 16 17  1  0
 17 18  2  0
 18 19  1  0
 18 20  1  0
 20 21  1  0
 20 22  2  0
 22 23  1  0
 22 24  1  0
 24 25  1  0
 24 26  2  0
 12 27  1  0
 27 28  1  0
 27 29  1  0
 29 30  2  0
  6 31  1  0
 31 32  1  0
 31 33  2  0
 33 34  1  0
 33  2  1  0
 29  7  1  0
 26 13  1  0
 26 17  1  0
M  END
>  <cnnaffinity>  (1) 
-5.79272

>  <filename>  (1) 
O=c1cc(-c2csc3ccccc23)[nH]c(=O)n1-c1cccnc1

$$$$
