
     RDKit          3D

 33 35  0  0  0  0  0  0  0  0999 V2000
    4.9158    1.7924   16.9853 H   0  0  0  0  0  0  0  0  0  0  0  0
    5.3957    1.3000   17.8279 C   0  0  0  0  0  0  0  0  0  0  0  0
    6.5582    0.6846   17.5629 N   0  0  0  0  0  0  0  0  0  0  0  0
    7.1813    0.0795   18.5794 C   0  0  0  0  0  0  0  0  0  0  0  0
    8.1219   -0.4232   18.3544 H   0  0  0  0  0  0  0  0  0  0  0  0
    6.6665    0.0298   19.8884 C   0  0  0  0  0  0  0  0  0  0  0  0
    7.3779   -0.6644   20.9361 N   0  0  0  0  0  0  0  0  0  0  0  0
    8.6629   -0.2604   21.2564 C   0  0  0  0  0  0  0  0  0  0  0  0
    9.0355    0.5759   20.6640 H   0  0  0  0  0  0  0  0  0  0  0  0
    9.3575   -0.8429   22.2655 C   0  0  0  0  0  0  0  0  0  0  0  0
   10.6991   -0.4457   22.6537 C   0  0  0  0  0  0  0  0  0  0  0  0
   11.6542   -1.3415   22.3858 N   0  0  0  0  0  0  0  0  0  0  0  0
   12.9264   -0.9875   22.5872 C   0  0  0  0  0  0  0  0  0  0  0  0
   13.6715   -1.7487   22.3721 H   0  0  0  0  0  0  0  0  0  0  0  0
   13.3214    0.2506   23.1076 C   0  0  0  0  0  0  0  0  0  0  0  0
   14.3691    0.4551   23.2953 H   0  0  0  0  0  0  0  0  0  0  0  0
   12.3412    1.1843   23.4096 C   0  0  0  0  0  0  0  0  0  0  0  0
   12.6013    2.1664   23.8125 H   0  0  0  0  0  0  0  0  0  0  0  0
   11.0102    0.8217   23.1885 C   0  0  0  0  0  0  0  0  0  0  0  0
    9.9173    1.7910   23.4831 C   0  0  0  0  0  0  0  0  0  0  0  0
    9.5225    2.4435   22.3692 F   0  0  0  0  0  0  0  0  0  0  0  0
    8.8282    1.1896   23.9952 F   0  0  0  0  0  0  0  0  0  0  0  0
   10.3065    2.7285   24.3636 F   0  0  0  0  0  0  0  0  0  0  0  0
    8.8009   -1.9701   22.9920 C   0  0  0  0  0  0  0  0  0  0  0  0
    9.2765   -2.6178   23.8946 O   0  0  0  0  0  0  0  0  0  0  0  0
    7.5339   -2.2979   22.5762 N   0  0  0  0  0  0  0  0  0  0  0  0
    7.0778   -3.0474   23.0539 H   0  0  0  0  0  0  0  0  0  0  0  0
    6.7670   -1.7399   21.6150 C   0  0  0  0  0  0  0  0  0  0  0  0
    5.6710   -2.1927   21.3838 O   0  0  0  0  0  0  0  0  0  0  0  0
    5.4466    0.6550   20.1543 C   0  0  0  0  0  0  0  0  0  0  0  0
    5.0213    0.6099   21.1574 H   0  0  0  0  0  0  0  0  0  0  0  0
    4.8099    1.3162   19.0989 C   0  0  0  0  0  0  0  0  0  0  0  0
    3.8754    1.8420   19.2516 H   0  0  0  0  0  0  0  0  0  0  0  0
  1  2  1  0
  2  3  2  0
  3  4  1  0
  4  5  1  0
  4  6  2  0
  6  7  1  0
  7  8  1  0
  8  9  1  0
  8 10  2  0
 10 11  1  0
 11 12  2  0
 12 13  1  0
 13 14  1  0
 13 15  2  0
 15 16  1  0
 15 17  1  0
 17 18  1  0
 17 19  2  0
 19 20  1  0
 20 21  1  0
 20 22  1  0
 20 23  1  0
 10 24  1  0
 24 25  2  0
 24 26  1  0
 26 27  1  0
 26 28  1  0
 28 29  2  0
  6 30  1  0
 30 31  1  0
 30 32  2  0
 32 33  1  0
 32  2  1  0
 28  7  1  0
 19 11  1  0
M  END
>  <cnnaffinity>  (1) 
-5.54712

>  <filename>  (1) 
O=c1[nH]c(=O)n(-c2cccnc2)cc1-c1ncccc1C(F)(F)F

$$$$
