
     RDKit          3D

 28 30  0  0  0  0  0  0  0  0999 V2000
    4.9335    1.8309   17.0063 H   0  0  0  0  0  0  0  0  0  0  0  0
    5.4568    1.3110   17.8084 C   0  0  0  0  0  0  0  0  0  0  0  0
    6.6300    0.7453   17.4802 N   0  0  0  0  0  0  0  0  0  0  0  0
    7.2857    0.0835   18.4446 C   0  0  0  0  0  0  0  0  0  0  0  0
    8.2322   -0.3662   18.1505 H   0  0  0  0  0  0  0  0  0  0  0  0
    6.8157   -0.0791   19.7648 C   0  0  0  0  0  0  0  0  0  0  0  0
    7.5621   -0.8287   20.8054 C   0  0  0  0  0  0  0  0  0  0  0  0
    8.8696   -0.7329   21.1376 C   0  0  0  0  0  0  0  0  0  0  0  0
    9.6516   -0.2008   20.6130 H   0  0  0  0  0  0  0  0  0  0  0  0
    9.1606   -1.3670   22.3456 N   0  0  0  0  0  0  0  0  0  0  0  0
    9.9703   -1.9888   22.3616 H   0  0  0  0  0  0  0  0  0  0  0  0
    7.9733   -2.0246   22.7099 N   0  0  0  0  0  0  0  0  0  0  0  0
    7.8740   -2.6810   23.9535 C   0  0  0  0  0  0  0  0  0  0  0  0
    8.8217   -2.4986   24.9887 C   0  0  0  0  0  0  0  0  0  0  0  0
    9.6432   -1.7962   24.8736 H   0  0  0  0  0  0  0  0  0  0  0  0
    8.7554   -3.1518   26.1544 N   0  0  0  0  0  0  0  0  0  0  0  0
    7.7444   -4.0104   26.3601 C   0  0  0  0  0  0  0  0  0  0  0  0
    7.7075   -4.5461   27.3070 H   0  0  0  0  0  0  0  0  0  0  0  0
    6.7591   -4.2270   25.3898 C   0  0  0  0  0  0  0  0  0  0  0  0
    5.7613   -5.0900   25.6281 F   0  0  0  0  0  0  0  0  0  0  0  0
    6.7991   -3.5593   24.1743 C   0  0  0  0  0  0  0  0  0  0  0  0
    6.0337   -3.6930   23.4203 H   0  0  0  0  0  0  0  0  0  0  0  0
    6.9438   -1.7492   21.7840 C   0  0  0  0  0  0  0  0  0  0  0  0
    5.8203   -2.2321   21.8053 O   0  0  0  0  0  0  0  0  0  0  0  0
    5.5991    0.5494   20.0829 C   0  0  0  0  0  0  0  0  0  0  0  0
    5.2245    0.4964   21.1047 H   0  0  0  0  0  0  0  0  0  0  0  0
    4.9094    1.2514   19.0935 C   0  0  0  0  0  0  0  0  0  0  0  0
    3.9769    1.7629   19.3046 H   0  0  0  0  0  0  0  0  0  0  0  0
  1  2  1  0
  2  3  2  0
  3  4  1  0
  4  5  1  0
  4  6  2  0
  6  7  1  0
  7  8  2  0
  8  9  1  0
  8 10  1  0
 10 11  1  0
 10 12  1  0
 12 13  1  0
 13 14  2  0
 14 15  1  0
 14 16  1  0
 16 17  2  0
 17 18  1  0
 17 19  1  0
 19 20  1  0
 19 21  2  0
 21 22  1  0
 12 23  1  0
 23 24  2  0
  6 25  1  0
 25 26  1  0
 25 27  2  0
 27 28  1  0
 27  2  1  0
 23  7  1  0
 21 13  1  0
M  END
>  <cnnaffinity>  (1) 
-4.96685

>  <filename>  (1) 
O=c1c(-c2cccnc2)c[nH]n1-c1cncc(F)c1

$$$$
