
     RDKit          3D

 41 44  0  0  0  0  0  0  0  0999 V2000
    4.9219    1.8530   16.9427 H   0  0  0  0  0  0  0  0  0  0  0  0
    5.3958    1.3300   17.7725 C   0  0  0  0  0  0  0  0  0  0  0  0
    6.5492    0.7007   17.4991 N   0  0  0  0  0  0  0  0  0  0  0  0
    7.1608    0.0702   18.5135 C   0  0  0  0  0  0  0  0  0  0  0  0
    8.0855   -0.4348   18.2412 H   0  0  0  0  0  0  0  0  0  0  0  0
    6.6774    0.0104   19.8400 C   0  0  0  0  0  0  0  0  0  0  0  0
    7.4161   -0.7129   20.9338 C   0  0  0  0  0  0  0  0  0  0  0  0
    6.7377   -1.5726   21.8540 C   0  0  0  0  0  0  0  0  0  0  0  0
    5.6650   -1.7074   21.7375 H   0  0  0  0  0  0  0  0  0  0  0  0
    7.3700   -2.2256   22.8958 C   0  0  0  0  0  0  0  0  0  0  0  0
    6.6266   -3.0967   23.8405 C   0  0  0  0  0  0  0  0  0  0  0  0
    6.8180   -3.0020   25.2320 C   0  0  0  0  0  0  0  0  0  0  0  0
    7.5536   -2.3019   25.6186 H   0  0  0  0  0  0  0  0  0  0  0  0
    6.0793   -3.8094   26.0989 C   0  0  0  0  0  0  0  0  0  0  0  0
    6.2167   -3.7167   27.1747 H   0  0  0  0  0  0  0  0  0  0  0  0
    5.1519   -4.7229   25.5936 C   0  0  0  0  0  0  0  0  0  0  0  0
    4.6290   -5.3788   26.2854 H   0  0  0  0  0  0  0  0  0  0  0  0
    4.8932   -4.8091   24.2087 C   0  0  0  0  0  0  0  0  0  0  0  0
    3.8303   -5.7322   23.6854 C   0  0  0  0  0  0  0  0  0  0  0  0
    2.6964   -6.0384   24.4690 C   0  0  0  0  0  0  0  0  0  0  0  0
    2.5610   -5.5738   25.4422 H   0  0  0  0  0  0  0  0  0  0  0  0
    1.6961   -6.8916   24.0016 C   0  0  0  0  0  0  0  0  0  0  0  0
    0.8521   -7.1390   24.6400 H   0  0  0  0  0  0  0  0  0  0  0  0
    1.8069   -7.4619   22.7318 C   0  0  0  0  0  0  0  0  0  0  0  0
    1.0140   -8.0866   22.3373 H   0  0  0  0  0  0  0  0  0  0  0  0
    2.9291   -7.1900   21.9515 C   0  0  0  0  0  0  0  0  0  0  0  0
    3.0348   -7.6972   20.9964 H   0  0  0  0  0  0  0  0  0  0  0  0
    3.9375   -6.3441   22.4177 C   0  0  0  0  0  0  0  0  0  0  0  0
    4.8145   -6.1744   21.7936 H   0  0  0  0  0  0  0  0  0  0  0  0
    5.6687   -4.0061   23.3549 C   0  0  0  0  0  0  0  0  0  0  0  0
    5.5267   -4.0825   22.2799 H   0  0  0  0  0  0  0  0  0  0  0  0
    8.8204   -2.0416   23.0684 C   0  0  0  0  0  0  0  0  0  0  0  0
    9.5808   -2.5091   23.9033 O   0  0  0  0  0  0  0  0  0  0  0  0
    9.4098   -1.2141   22.1083 N   0  0  0  0  0  0  0  0  0  0  0  0
   10.4027   -1.1832   22.2884 H   0  0  0  0  0  0  0  0  0  0  0  0
    8.7691   -0.5625   21.0976 C   0  0  0  0  0  0  0  0  0  0  0  0
    9.3704    0.0863   20.4663 H   0  0  0  0  0  0  0  0  0  0  0  0
    5.4571    0.6669   20.0863 C   0  0  0  0  0  0  0  0  0  0  0  0
    5.0320    0.6705   21.0911 H   0  0  0  0  0  0  0  0  0  0  0  0
    4.8090    1.3343   19.0418 C   0  0  0  0  0  0  0  0  0  0  0  0
    3.8721    1.8608   19.1967 H   0  0  0  0  0  0  0  0  0  0  0  0
  1  2  1  0
  2  3  2  0
  3  4  1  0
  4  5  1  0
  4  6  2  0
  6  7  1  0
  7  8  1  0
  8  9  1  0
  8 10  2  0
 10 11  1  0
 11 12  2  0
 12 13  1  0
 12 14  1  0
 14 15  1  0
 14 16  2  0
 16 17  1  0
 16 18  1  0
 18 19  1  0
 19 20  2  0
 20 21  1  0
 20 22  1  0
 22 23  1  0
 22 24  2  0
 24 25  1  0
 24 26  1  0
 26 27  1  0
 26 28  2  0
 28 29  1  0
 18 30  2  0
 30 31  1  0
 10 32  1  0
 32 33  2  0
 32 34  1  0
 34 35  1  0
 34 36  1  0
 36 37  1  0
  6 38  1  0
 38 39  1  0
 38 40  2  0
 40 41  1  0
 40  2  1  0
 36  7  2  0
 30 11  1  0
 28 19  1  0
M  END
>  <cnnaffinity>  (1) 
-5.57006

>  <filename>  (1) 
O=c1[nH]cc(-c2cccnc2)cc1-c1cccc(-c2ccccc2)c1

$$$$
