
     RDKit          3D

 33 35  0  0  0  0  0  0  0  0999 V2000
   14.5915    1.9628   23.3087 H   0  0  0  0  0  0  0  0  0  0  0  0
   14.5981    1.0229   23.0658 O   0  0  0  0  0  0  0  0  0  0  0  0
   13.3191    0.6213   22.8630 C   0  0  0  0  0  0  0  0  0  0  0  0
   13.1065   -0.7293   22.5784 C   0  0  0  0  0  0  0  0  0  0  0  0
   13.9747   -1.3828   22.5723 H   0  0  0  0  0  0  0  0  0  0  0  0
   11.8089   -1.1946   22.3507 C   0  0  0  0  0  0  0  0  0  0  0  0
   11.6439   -2.2290   22.0734 H   0  0  0  0  0  0  0  0  0  0  0  0
   10.7043   -0.3341   22.4256 C   0  0  0  0  0  0  0  0  0  0  0  0
    9.3311   -0.8262   22.1672 C   0  0  0  0  0  0  0  0  0  0  0  0
    8.7768   -1.9027   22.9286 C   0  0  0  0  0  0  0  0  0  0  0  0
    9.3708   -2.3218   23.7440 H   0  0  0  0  0  0  0  0  0  0  0  0
    7.5273   -2.3616   22.6597 C   0  0  0  0  0  0  0  0  0  0  0  0
    7.0670   -3.1718   23.2034 H   0  0  0  0  0  0  0  0  0  0  0  0
    6.7016   -1.8286   21.5821 C   0  0  0  0  0  0  0  0  0  0  0  0
    5.6162   -2.2928   21.2869 O   0  0  0  0  0  0  0  0  0  0  0  0
    7.3009   -0.7233   20.8737 N   0  0  0  0  0  0  0  0  0  0  0  0
    6.6008   -0.0427   19.8130 C   0  0  0  0  0  0  0  0  0  0  0  0
    7.1576    0.0535   18.5219 C   0  0  0  0  0  0  0  0  0  0  0  0
    8.1081   -0.4368   18.3101 H   0  0  0  0  0  0  0  0  0  0  0  0
    6.5808    0.7185   17.5140 N   0  0  0  0  0  0  0  0  0  0  0  0
    5.4228    1.3488   17.7738 C   0  0  0  0  0  0  0  0  0  0  0  0
    4.9798    1.8908   16.9421 H   0  0  0  0  0  0  0  0  0  0  0  0
    4.7982    1.3318   19.0259 C   0  0  0  0  0  0  0  0  0  0  0  0
    3.8711    1.8766   19.1739 H   0  0  0  0  0  0  0  0  0  0  0  0
    5.3970    0.6183   20.0703 C   0  0  0  0  0  0  0  0  0  0  0  0
    4.9661    0.5747   21.0690 H   0  0  0  0  0  0  0  0  0  0  0  0
    8.5515   -0.2459   21.2076 C   0  0  0  0  0  0  0  0  0  0  0  0
    8.8699    0.6358   20.6539 H   0  0  0  0  0  0  0  0  0  0  0  0
   10.9257    1.0277   22.6988 C   0  0  0  0  0  0  0  0  0  0  0  0
   10.0826    1.7148   22.7242 H   0  0  0  0  0  0  0  0  0  0  0  0
   12.2109    1.5044   22.9177 C   0  0  0  0  0  0  0  0  0  0  0  0
   12.4722    2.8247   23.1945 O   0  0  0  0  0  0  0  0  0  0  0  0
   11.7103    3.3491   22.9192 H   0  0  0  0  0  0  0  0  0  0  0  0
  1  2  1  0
  2  3  1  0
  3  4  2  0
  4  5  1  0
  4  6  1  0
  6  7  1  0
  6  8  2  0
  8  9  1  0
  9 10  1  0
 10 11  1  0
 10 12  2  0
 12 13  1  0
 12 14  1  0
 14 15  2  0
 14 16  1  0
 16 17  1  0
 17 18  2  0
 18 19  1  0
 18 20  1  0
 20 21  2  0
 21 22  1  0
 21 23  1  0
 23 24  1  0
 23 25  2  0
 25 26  1  0
 16 27  1  0
 27 28  1  0
  8 29  1  0
 29 30  1  0
 29 31  2  0
 31 32  1  0
 32 33  1  0
 31  3  1  0
 27  9  2  0
 25 17  1  0
M  END
>  <cnnaffinity>  (1) 
-5.61082

>  <filename>  (1) 
O=c1ccc(-c2ccc(O)c(O)c2)cn1-c1cccnc1

$$$$
