
     RDKit          3D

 25 27  0  0  0  0  0  0  0  0999 V2000
   11.6868   -4.3506   24.2482 H   0  0  0  0  0  0  0  0  0  0  0  0
   11.1646   -3.6034   23.6599 C   0  0  0  0  0  0  0  0  0  0  0  0
   11.7488   -2.8038   22.8256 N   0  0  0  0  0  0  0  0  0  0  0  0
   10.8273   -1.9670   22.2596 C   0  0  0  0  0  0  0  0  0  0  0  0
   11.1697   -1.1514   21.6356 H   0  0  0  0  0  0  0  0  0  0  0  0
    9.5285   -2.1862   22.6151 C   0  0  0  0  0  0  0  0  0  0  0  0
    8.3898   -1.5187   22.1308 N   0  0  0  0  0  0  0  0  0  0  0  0
    8.2674   -0.8469   20.9078 C   0  0  0  0  0  0  0  0  0  0  0  0
    9.1306   -0.6878   20.2758 H   0  0  0  0  0  0  0  0  0  0  0  0
    6.9729   -0.4596   20.7641 C   0  0  0  0  0  0  0  0  0  0  0  0
    6.2832    0.2322   19.6693 C   0  0  0  0  0  0  0  0  0  0  0  0
    6.8560    0.1861   18.3878 C   0  0  0  0  0  0  0  0  0  0  0  0
    7.7627   -0.3958   18.2498 H   0  0  0  0  0  0  0  0  0  0  0  0
    6.3691    0.7964   17.3021 N   0  0  0  0  0  0  0  0  0  0  0  0
    5.2432    1.5101   17.4604 C   0  0  0  0  0  0  0  0  0  0  0  0
    4.8707    2.0110   16.5686 H   0  0  0  0  0  0  0  0  0  0  0  0
    4.5628    1.6132   18.6812 C   0  0  0  0  0  0  0  0  0  0  0  0
    3.6522    2.2045   18.7417 H   0  0  0  0  0  0  0  0  0  0  0  0
    5.0873    0.9649   19.8028 C   0  0  0  0  0  0  0  0  0  0  0  0
    4.5868    1.0471   20.7676 H   0  0  0  0  0  0  0  0  0  0  0  0
    6.3083   -0.8768   21.9063 N   0  0  0  0  0  0  0  0  0  0  0  0
    5.3330   -0.8523   22.1420 H   0  0  0  0  0  0  0  0  0  0  0  0
    7.1307   -1.5320   22.7759 C   0  0  0  0  0  0  0  0  0  0  0  0
    6.8205   -2.0177   23.8380 O   0  0  0  0  0  0  0  0  0  0  0  0
    9.4576   -3.4434   23.8196 S   0  0  0  0  0  0  0  0  0  0  0  0
  1  2  1  0
  2  3  2  0
  3  4  1  0
  4  5  1  0
  4  6  2  0
  6  7  1  0
  7  8  1  0
  8  9  1  0
  8 10  2  0
 10 11  1  0
 11 12  2  0
 12 13  1  0
 12 14  1  0
 14 15  2  0
 15 16  1  0
 15 17  1  0
 17 18  1  0
 17 19  2  0
 19 20  1  0
 10 21  1  0
 21 22  1  0
 21 23  1  0
 23 24  2  0
  6 25  1  0
 25  2  1  0
 23  7  1  0
 19 11  1  0
M  END
>  <cnnaffinity>  (1) 
-5.2008

>  <filename>  (1) 
O=c1[nH]c(-c2cccnc2)cn1-c1cncs1

$$$$
