
     RDKit          3D

 33 35  0  0  0  0  0  0  0  0999 V2000
    4.9448    1.7758   16.9712 H   0  0  0  0  0  0  0  0  0  0  0  0
    5.4393    1.3062   17.8182 C   0  0  0  0  0  0  0  0  0  0  0  0
    6.6162    0.7160   17.5589 N   0  0  0  0  0  0  0  0  0  0  0  0
    7.2471    0.1288   18.5814 C   0  0  0  0  0  0  0  0  0  0  0  0
    8.2047   -0.3379   18.3581 H   0  0  0  0  0  0  0  0  0  0  0  0
    6.7150    0.0500   19.8794 C   0  0  0  0  0  0  0  0  0  0  0  0
    7.4548   -0.7501   20.9067 C   0  0  0  0  0  0  0  0  0  0  0  0
    8.7466   -0.5173   20.9642 N   0  0  0  0  0  0  0  0  0  0  0  0
    9.4821   -1.0997   21.9589 N   0  0  0  0  0  0  0  0  0  0  0  0
   10.8779   -0.8102   21.9989 C   0  0  0  0  0  0  0  0  0  0  0  0
   11.7611   -1.9057   21.9847 C   0  0  0  0  0  0  0  0  0  0  0  0
   11.3220   -2.8953   21.9898 H   0  0  0  0  0  0  0  0  0  0  0  0
   13.1381   -1.7202   21.9265 C   0  0  0  0  0  0  0  0  0  0  0  0
   13.8038   -2.5705   21.8034 H   0  0  0  0  0  0  0  0  0  0  0  0
   13.6501   -0.4291   22.0292 C   0  0  0  0  0  0  0  0  0  0  0  0
   14.7166   -0.2576   22.0382 H   0  0  0  0  0  0  0  0  0  0  0  0
   12.7967    0.6644   22.1368 C   0  0  0  0  0  0  0  0  0  0  0  0
   13.2294    1.6546   22.2602 H   0  0  0  0  0  0  0  0  0  0  0  0
   11.3970    0.5020   22.0956 C   0  0  0  0  0  0  0  0  0  0  0  0
   10.5077    1.7294   22.2710 C   0  0  0  0  0  0  0  0  0  0  0  0
   11.1905    2.7671   22.8031 F   0  0  0  0  0  0  0  0  0  0  0  0
    9.4730    1.5010   23.0956 F   0  0  0  0  0  0  0  0  0  0  0  0
   10.0026    2.1785   21.1096 F   0  0  0  0  0  0  0  0  0  0  0  0
    8.8943   -1.8963   22.8999 C   0  0  0  0  0  0  0  0  0  0  0  0
    9.5693   -2.3109   23.6602 H   0  0  0  0  0  0  0  0  0  0  0  0
    7.5862   -2.1922   22.8821 C   0  0  0  0  0  0  0  0  0  0  0  0
    7.1419   -2.8096   23.6414 H   0  0  0  0  0  0  0  0  0  0  0  0
    6.7496   -1.7789   21.7730 C   0  0  0  0  0  0  0  0  0  0  0  0
    5.6350   -2.2413   21.5675 O   0  0  0  0  0  0  0  0  0  0  0  0
    5.4860    0.6832   20.1344 C   0  0  0  0  0  0  0  0  0  0  0  0
    5.0275    0.6171   21.1221 H   0  0  0  0  0  0  0  0  0  0  0  0
    4.8384    1.3305   19.0816 C   0  0  0  0  0  0  0  0  0  0  0  0
    3.8808    1.8266   19.2172 H   0  0  0  0  0  0  0  0  0  0  0  0
  1  2  1  0
  2  3  2  0
  3  4  1  0
  4  5  1  0
  4  6  2  0
  6  7  1  0
  7  8  2  0
  8  9  1  0
  9 10  1  0
 10 11  2  0
 11 12  1  0
 11 13  1  0
 13 14  1  0
 13 15  2  0
 15 16  1  0
 15 17  1  0
 17 18  1  0
 17 19  2  0
 19 20  1  0
 20 21  1  0
 20 22  1  0
 20 23  1  0
  9 24  1  0
 24 25  1  0
 24 26  2  0
 26 27  1  0
 26 28  1  0
 28 29  2  0
  6 30  1  0
 30 31  1  0
 30 32  2  0
 32 33  1  0
 32  2  1  0
 28  7  1  0
 19 10  1  0
M  END
>  <cnnaffinity>  (1) 
-5.81625

>  <filename>  (1) 
O=c1ccn(-c2ccccc2C(F)(F)F)nc1-c1cccnc1

$$$$
