
     RDKit          3D

 35 38  0  0  0  0  0  0  0  0999 V2000
    4.8873    1.8942   16.9257 H   0  0  0  0  0  0  0  0  0  0  0  0
    5.3603    1.3539   17.7433 C   0  0  0  0  0  0  0  0  0  0  0  0
    6.5122    0.7250   17.4518 N   0  0  0  0  0  0  0  0  0  0  0  0
    7.1311    0.0849   18.4521 C   0  0  0  0  0  0  0  0  0  0  0  0
    8.0769   -0.3964   18.2195 H   0  0  0  0  0  0  0  0  0  0  0  0
    6.6232    0.0098   19.7662 C   0  0  0  0  0  0  0  0  0  0  0  0
    7.3304   -0.6586   20.8426 N   0  0  0  0  0  0  0  0  0  0  0  0
    8.5916   -0.1593   21.2788 C   0  0  0  0  0  0  0  0  0  0  0  0
    9.1006    0.7905   20.7155 O   0  0  0  0  0  0  0  0  0  0  0  0
    9.2098   -0.8562   22.3858 C   0  0  0  0  0  0  0  0  0  0  0  0
   10.1637   -0.4553   22.6723 H   0  0  0  0  0  0  0  0  0  0  0  0
    8.6282   -1.9153   22.9821 C   0  0  0  0  0  0  0  0  0  0  0  0
    9.2268   -2.7785   24.0270 C   0  0  0  0  0  0  0  0  0  0  0  0
   10.5070   -3.3159   23.8251 C   0  0  0  0  0  0  0  0  0  0  0  0
   11.0443   -3.1127   22.8999 H   0  0  0  0  0  0  0  0  0  0  0  0
   11.0929   -4.1764   24.7710 C   0  0  0  0  0  0  0  0  0  0  0  0
   12.0714   -4.5860   24.5920 H   0  0  0  0  0  0  0  0  0  0  0  0
   10.4430   -4.5199   25.9458 C   0  0  0  0  0  0  0  0  0  0  0  0
   10.8695   -5.2227   26.6552 H   0  0  0  0  0  0  0  0  0  0  0  0
    9.1757   -3.9690   26.1643 C   0  0  0  0  0  0  0  0  0  0  0  0
    8.5224   -3.1400   25.2171 C   0  0  0  0  0  0  0  0  0  0  0  0
    7.2292   -2.8498   25.7858 C   0  0  0  0  0  0  0  0  0  0  0  0
    6.4391   -2.2671   25.3312 H   0  0  0  0  0  0  0  0  0  0  0  0
    7.1718   -3.4471   27.0138 C   0  0  0  0  0  0  0  0  0  0  0  0
    6.3720   -3.4527   27.7410 H   0  0  0  0  0  0  0  0  0  0  0  0
    8.3474   -4.1248   27.2436 N   0  0  0  0  0  0  0  0  0  0  0  0
    8.6402   -4.5724   28.0991 H   0  0  0  0  0  0  0  0  0  0  0  0
    7.3782   -2.2681   22.5360 N   0  0  0  0  0  0  0  0  0  0  0  0
    6.9691   -3.1469   22.7872 H   0  0  0  0  0  0  0  0  0  0  0  0
    6.7281   -1.7536   21.4493 C   0  0  0  0  0  0  0  0  0  0  0  0
    5.7031   -2.2775   21.0728 O   0  0  0  0  0  0  0  0  0  0  0  0
    5.4093    0.6374   20.0430 C   0  0  0  0  0  0  0  0  0  0  0  0
    4.9845    0.5728   21.0450 H   0  0  0  0  0  0  0  0  0  0  0  0
    4.7700    1.3376   19.0124 C   0  0  0  0  0  0  0  0  0  0  0  0
    3.8425    1.8751   19.1897 H   0  0  0  0  0  0  0  0  0  0  0  0
  1  2  1  0
  2  3  2  0
  3  4  1  0
  4  5  1  0
  4  6  2  0
  6  7  1  0
  7  8  1  0
  8  9  2  0
  8 10  1  0
 10 11  1  0
 10 12  2  0
 12 13  1  0
 13 14  2  0
 14 15  1  0
 14 16  1  0
 16 17  1  0
 16 18  2  0
 18 19  1  0
 18 20  1  0
 20 21  2  0
 21 22  1  0
 22 23  1  0
 22 24  2  0
 24 25  1  0
 24 26  1  0
 26 27  1  0
 12 28  1  0
 28 29  1  0
 28 30  1  0
 30 31  2  0
  6 32  1  0
 32 33  1  0
 32 34  2  0
 34 35  1  0
 34  2  1  0
 30  7  1  0
 21 13  1  0
 26 20  1  0
M  END
>  <cnnaffinity>  (1) 
-5.47218

>  <filename>  (1) 
O=c1cc(-c2cccc3[nH]ccc23)[nH]c(=O)n1-c1cccnc1

$$$$
