
     RDKit          3D

 35 37  0  0  0  0  0  0  0  0999 V2000
    4.9695    1.8659   17.0280 H   0  0  0  0  0  0  0  0  0  0  0  0
    5.4679    1.2945   17.8053 C   0  0  0  0  0  0  0  0  0  0  0  0
    6.6356    0.7260   17.4584 N   0  0  0  0  0  0  0  0  0  0  0  0
    7.3039    0.0610   18.4112 C   0  0  0  0  0  0  0  0  0  0  0  0
    8.2558   -0.3761   18.1039 H   0  0  0  0  0  0  0  0  0  0  0  0
    6.8324   -0.1084   19.7356 C   0  0  0  0  0  0  0  0  0  0  0  0
    7.5672   -0.8369   20.7954 C   0  0  0  0  0  0  0  0  0  0  0  0
    8.8768   -0.7272   21.1012 C   0  0  0  0  0  0  0  0  0  0  0  0
    9.6081   -0.1400   20.5650 H   0  0  0  0  0  0  0  0  0  0  0  0
    9.2041   -1.3293   22.3069 N   0  0  0  0  0  0  0  0  0  0  0  0
   10.0586   -1.8853   22.3538 H   0  0  0  0  0  0  0  0  0  0  0  0
    8.0496   -2.0370   22.6662 N   0  0  0  0  0  0  0  0  0  0  0  0
    7.9282   -2.5705   24.0107 C   0  0  0  0  0  0  0  0  0  0  0  0
    8.7730   -3.2492   24.1892 H   0  0  0  0  0  0  0  0  0  0  0  0
    7.0214   -3.1775   24.0210 H   0  0  0  0  0  0  0  0  0  0  0  0
    7.8585   -1.5343   25.1119 C   0  0  0  0  0  0  0  0  0  0  0  0
    9.0254   -1.0639   25.7260 C   0  0  0  0  0  0  0  0  0  0  0  0
    9.9910   -1.3843   25.3443 H   0  0  0  0  0  0  0  0  0  0  0  0
    8.9606   -0.1768   26.7996 C   0  0  0  0  0  0  0  0  0  0  0  0
    9.8788    0.1110   27.3005 H   0  0  0  0  0  0  0  0  0  0  0  0
    7.7113    0.2831   27.2528 C   0  0  0  0  0  0  0  0  0  0  0  0
    7.6335    1.2914   28.3800 C   0  0  0  0  0  0  0  0  0  0  0  0
    8.0548    2.5044   27.9754 F   0  0  0  0  0  0  0  0  0  0  0  0
    6.3810    1.4649   28.8489 F   0  0  0  0  0  0  0  0  0  0  0  0
    8.4057    0.9478   29.4291 F   0  0  0  0  0  0  0  0  0  0  0  0
    6.5423   -0.1612   26.6177 C   0  0  0  0  0  0  0  0  0  0  0  0
    5.5706    0.1589   26.9843 H   0  0  0  0  0  0  0  0  0  0  0  0
    6.6192   -1.0571   25.5534 C   0  0  0  0  0  0  0  0  0  0  0  0
    5.7132   -1.3906   25.0535 H   0  0  0  0  0  0  0  0  0  0  0  0
    6.9825   -1.7496   21.8154 C   0  0  0  0  0  0  0  0  0  0  0  0
    5.8696   -2.2406   21.9257 O   0  0  0  0  0  0  0  0  0  0  0  0
    5.6110    0.5023   20.0611 C   0  0  0  0  0  0  0  0  0  0  0  0
    5.2449    0.4112   21.0833 H   0  0  0  0  0  0  0  0  0  0  0  0
    4.9202    1.2218   19.0886 C   0  0  0  0  0  0  0  0  0  0  0  0
    4.0018    1.7523   19.3176 H   0  0  0  0  0  0  0  0  0  0  0  0
  1  2  1  0
  2  3  2  0
  3  4  1  0
  4  5  1  0
  4  6  2  0
  6  7  1  0
  7  8  2  0
  8  9  1  0
  8 10  1  0
 10 11  1  0
 10 12  1  0
 12 13  1  0
 13 14  1  0
 13 15  1  0
 13 16  1  0
 16 17  2  0
 17 18  1  0
 17 19  1  0
 19 20  1  0
 19 21  2  0
 21 22  1  0
 22 23  1  0
 22 24  1  0
 22 25  1  0
 21 26  1  0
 26 27  1  0
 26 28  2  0
 28 29  1  0
 12 30  1  0
 30 31  2  0
  6 32  1  0
 32 33  1  0
 32 34  2  0
 34 35  1  0
 34  2  1  0
 30  7  1  0
 28 16  1  0
M  END
>  <cnnaffinity>  (1) 
-5.01061

>  <filename>  (1) 
O=c1c(-c2cccnc2)c[nH]n1Cc1ccc(C(F)(F)F)cc1

$$$$
