
     RDKit          3D

 33 35  0  0  0  0  0  0  0  0999 V2000
    4.9139    1.7938   16.9861 H   0  0  0  0  0  0  0  0  0  0  0  0
    5.3895    1.2999   17.8297 C   0  0  0  0  0  0  0  0  0  0  0  0
    6.5472    0.6749   17.5639 N   0  0  0  0  0  0  0  0  0  0  0  0
    7.1673    0.0593   18.5762 C   0  0  0  0  0  0  0  0  0  0  0  0
    8.1210   -0.4198   18.3612 H   0  0  0  0  0  0  0  0  0  0  0  0
    6.6525    0.0150   19.8845 C   0  0  0  0  0  0  0  0  0  0  0  0
    7.3493   -0.6779   20.9393 N   0  0  0  0  0  0  0  0  0  0  0  0
    6.7175   -1.7279   21.5873 C   0  0  0  0  0  0  0  0  0  0  0  0
    5.7079   -1.9583   21.2535 H   0  0  0  0  0  0  0  0  0  0  0  0
    7.3169   -2.4417   22.5727 C   0  0  0  0  0  0  0  0  0  0  0  0
    6.6445   -3.5154   23.2195 C   0  0  0  0  0  0  0  0  0  0  0  0
    6.0966   -4.4283   23.7884 C   0  0  0  0  0  0  0  0  0  0  0  0
    5.4291   -5.5007   24.4547 C   0  0  0  0  0  0  0  0  0  0  0  0
    4.1073   -5.8305   24.1018 C   0  0  0  0  0  0  0  0  0  0  0  0
    3.6017   -5.2546   23.3322 H   0  0  0  0  0  0  0  0  0  0  0  0
    3.4529   -6.8818   24.7446 C   0  0  0  0  0  0  0  0  0  0  0  0
    2.4326   -7.1339   24.4715 H   0  0  0  0  0  0  0  0  0  0  0  0
    4.1104   -7.5991   25.7466 C   0  0  0  0  0  0  0  0  0  0  0  0
    3.6115   -8.4285   26.2399 H   0  0  0  0  0  0  0  0  0  0  0  0
    5.4205   -7.2640   26.1094 C   0  0  0  0  0  0  0  0  0  0  0  0
    5.9302   -7.8344   26.8789 H   0  0  0  0  0  0  0  0  0  0  0  0
    6.0870   -6.2238   25.4655 C   0  0  0  0  0  0  0  0  0  0  0  0
    7.1189   -5.9871   25.7182 H   0  0  0  0  0  0  0  0  0  0  0  0
    8.6999   -2.0779   22.9839 C   0  0  0  0  0  0  0  0  0  0  0  0
    9.4102   -2.5731   23.8286 O   0  0  0  0  0  0  0  0  0  0  0  0
    9.2207   -1.0199   22.2765 N   0  0  0  0  0  0  0  0  0  0  0  0
   10.1490   -0.7487   22.5224 H   0  0  0  0  0  0  0  0  0  0  0  0
    8.6611   -0.2882   21.2931 C   0  0  0  0  0  0  0  0  0  0  0  0
    9.2877    0.6097   20.7773 O   0  0  0  0  0  0  0  0  0  0  0  0
    5.4370    0.6506   20.1489 C   0  0  0  0  0  0  0  0  0  0  0  0
    5.0298    0.6262   21.1613 H   0  0  0  0  0  0  0  0  0  0  0  0
    4.8022    1.3197   19.0994 C   0  0  0  0  0  0  0  0  0  0  0  0
    3.8714    1.8484   19.2540 H   0  0  0  0  0  0  0  0  0  0  0  0
  1  2  1  0
  2  3  2  0
  3  4  1  0
  4  5  1  0
  4  6  2  0
  6  7  1  0
  7  8  1  0
  8  9  1  0
  8 10  2  0
 10 11  1  0
 11 12  3  0
 12 13  1  0
 13 14  2  0
 14 15  1  0
 14 16  1  0
 16 17  1  0
 16 18  2  0
 18 19  1  0
 18 20  1  0
 20 21  1  0
 20 22  2  0
 22 23  1  0
 10 24  1  0
 24 25  2  0
 24 26  1  0
 26 27  1  0
 26 28  1  0
 28 29  2  0
  6 30  1  0
 30 31  1  0
 30 32  2  0
 32 33  1  0
 32  2  1  0
 28  7  1  0
 22 13  1  0
M  END
>  <cnnaffinity>  (1) 
-5.29873

>  <filename>  (1) 
O=c1[nH]c(=O)n(-c2cccnc2)cc1C#Cc1ccccc1

$$$$
