
     RDKit          3D

 39 41  0  0  0  0  0  0  0  0999 V2000
    4.9799    1.7608   17.0353 H   0  0  0  0  0  0  0  0  0  0  0  0
    5.4379    1.2587   17.8845 C   0  0  0  0  0  0  0  0  0  0  0  0
    6.5961    0.6191   17.6476 N   0  0  0  0  0  0  0  0  0  0  0  0
    7.1982    0.0155   18.6761 C   0  0  0  0  0  0  0  0  0  0  0  0
    8.1369   -0.4953   18.4519 H   0  0  0  0  0  0  0  0  0  0  0  0
    6.6928    0.0192   20.0014 C   0  0  0  0  0  0  0  0  0  0  0  0
    7.3576   -0.6618   21.0423 N   0  0  0  0  0  0  0  0  0  0  0  0
    7.3126   -0.3783   22.4028 C   0  0  0  0  0  0  0  0  0  0  0  0
    6.7173    0.5280   22.9667 O   0  0  0  0  0  0  0  0  0  0  0  0
    8.0991   -1.3063   23.0227 N   0  0  0  0  0  0  0  0  0  0  0  0
    8.2089   -1.2770   24.4495 C   0  0  0  0  0  0  0  0  0  0  0  0
    8.6688   -0.3247   24.7342 H   0  0  0  0  0  0  0  0  0  0  0  0
    8.8984   -2.0659   24.7844 H   0  0  0  0  0  0  0  0  0  0  0  0
    6.9264   -1.3666   25.0955 N   0  0  0  0  0  0  0  0  0  0  0  0
    6.3625   -0.6264   24.6752 H   0  0  0  0  0  0  0  0  0  0  0  0
    6.2211   -2.6417   24.9953 C   0  0  0  0  0  0  0  0  0  0  0  0
    5.9978   -2.9345   23.9483 H   0  0  0  0  0  0  0  0  0  0  0  0
    6.9569   -3.8054   25.6705 C   0  0  0  0  0  0  0  0  0  0  0  0
    7.7222   -4.2325   25.0132 H   0  0  0  0  0  0  0  0  0  0  0  0
    7.4645   -3.4249   26.5632 H   0  0  0  0  0  0  0  0  0  0  0  0
    5.8680   -4.8284   26.0645 C   0  0  0  0  0  0  0  0  0  0  0  0
    5.8482   -5.6705   25.3656 H   0  0  0  0  0  0  0  0  0  0  0  0
    6.0672   -5.2466   27.0564 H   0  0  0  0  0  0  0  0  0  0  0  0
    4.5223   -4.0601   26.0163 C   0  0  0  0  0  0  0  0  0  0  0  0
    3.9429   -4.1796   26.9382 H   0  0  0  0  0  0  0  0  0  0  0  0
    3.9032   -4.4439   25.1980 H   0  0  0  0  0  0  0  0  0  0  0  0
    4.8960   -2.5911   25.7541 C   0  0  0  0  0  0  0  0  0  0  0  0
    5.0681   -2.0654   26.7011 H   0  0  0  0  0  0  0  0  0  0  0  0
    4.1244   -2.0451   25.1983 H   0  0  0  0  0  0  0  0  0  0  0  0
    8.5006   -2.4011   22.1717 C   0  0  0  0  0  0  0  0  0  0  0  0
    8.0159   -3.3504   22.4562 H   0  0  0  0  0  0  0  0  0  0  0  0
    9.5863   -2.5487   22.1976 H   0  0  0  0  0  0  0  0  0  0  0  0
    8.0275   -1.9291   20.7906 C   0  0  0  0  0  0  0  0  0  0  0  0
    7.3103   -2.6268   20.3494 H   0  0  0  0  0  0  0  0  0  0  0  0
    8.8627   -1.7819   20.0999 H   0  0  0  0  0  0  0  0  0  0  0  0
    5.4775    0.6833   20.2302 C   0  0  0  0  0  0  0  0  0  0  0  0
    5.0791    0.7110   21.2418 H   0  0  0  0  0  0  0  0  0  0  0  0
    4.8391    1.2965   19.1490 C   0  0  0  0  0  0  0  0  0  0  0  0
    3.8962    1.8166   19.2778 H   0  0  0  0  0  0  0  0  0  0  0  0
  1  2  1  0
  2  3  2  0
  3  4  1  0
  4  5  1  0
  4  6  2  0
  6  7  1  0
  7  8  1  0
  8  9  2  0
  8 10  1  0
 10 11  1  0
 11 12  1  0
 11 13  1  0
 11 14  1  0
 14 15  1  0
 14 16  1  0
 16 17  1  0
 16 18  1  0
 18 19  1  0
 18 20  1  0
 18 21  1  0
 21 22  1  0
 21 23  1  0
 21 24  1  0
 24 25  1  0
 24 26  1  0
 24 27  1  0
 27 28  1  0
 27 29  1  0
 10 30  1  0
 30 31  1  0
 30 32  1  0
 30 33  1  0
 33 34  1  0
 33 35  1  0
  6 36  1  0
 36 37  1  0
 36 38  2  0
 38 39  1  0
 38  2  1  0
 33  7  1  0
 27 16  1  0
M  END
>  <cnnaffinity>  (1) 
-4.90061

>  <filename>  (1) 
O=C1N(CNC2CCCC2)CCN1c1cccnc1

$$$$
