
     RDKit          3D

 32 34  0  0  0  0  0  0  0  0999 V2000
    5.1376    2.1501   16.6362 H   0  0  0  0  0  0  0  0  0  0  0  0
    5.6128    1.6815   17.4960 C   0  0  0  0  0  0  0  0  0  0  0  0
    6.6545    0.8749   17.2294 N   0  0  0  0  0  0  0  0  0  0  0  0
    7.2788    0.3021   18.2638 C   0  0  0  0  0  0  0  0  0  0  0  0
    8.1275   -0.3353   18.0238 H   0  0  0  0  0  0  0  0  0  0  0  0
    6.8893    0.4833   19.6091 C   0  0  0  0  0  0  0  0  0  0  0  0
    7.5509   -0.1950   20.7023 N   0  0  0  0  0  0  0  0  0  0  0  0
    6.7954   -0.9694   21.5754 C   0  0  0  0  0  0  0  0  0  0  0  0
    5.7151   -0.8198   21.5342 H   0  0  0  0  0  0  0  0  0  0  0  0
    7.3621   -1.8966   22.3790 C   0  0  0  0  0  0  0  0  0  0  0  0
    6.3571   -2.8716   23.4486 S   0  0  0  0  0  0  0  0  0  0  0  0
    6.6363   -4.4287   22.5848 C   0  0  0  0  0  0  0  0  0  0  0  0
    5.7036   -4.6223   21.3394 C   0  0  0  0  0  0  0  0  0  0  0  0
    4.8063   -4.9024   21.8043 H   0  0  0  0  0  0  0  0  0  0  0  0
    5.7453   -5.8496   20.9608 C   0  0  0  0  0  0  0  0  0  0  0  0
    5.3011   -6.9497   20.7550 H   0  0  0  0  0  0  0  0  0  0  0  0
    6.0182   -5.9555   20.7028 C   0  0  0  0  0  0  0  0  0  0  0  0
    7.0702   -6.1408   20.2230 H   0  0  0  0  0  0  0  0  0  0  0  0
    7.7139   -5.1460   22.8659 C   0  0  0  0  0  0  0  0  0  0  0  0
    7.3351   -6.5712   23.4730 H   0  0  0  0  0  0  0  0  0  0  0  0
    7.6435   -5.5288   23.1373 C   0  0  0  0  0  0  0  0  0  0  0  0
    8.4070   -4.9498   23.8168 H   0  0  0  0  0  0  0  0  0  0  0  0
    8.8293   -2.1119   22.3044 C   0  0  0  0  0  0  0  0  0  0  0  0
    9.4867   -3.0215   22.7599 O   0  0  0  0  0  0  0  0  0  0  0  0
    9.4882   -1.1073   21.6305 N   0  0  0  0  0  0  0  0  0  0  0  0
   10.4867   -1.1603   21.5991 H   0  0  0  0  0  0  0  0  0  0  0  0
    8.9566   -0.1208   20.8627 C   0  0  0  0  0  0  0  0  0  0  0  0
    9.6561    0.7158   20.3515 O   0  0  0  0  0  0  0  0  0  0  0  0
    5.7974    1.3133   19.8691 C   0  0  0  0  0  0  0  0  0  0  0  0
    5.4753    1.4782   20.8971 H   0  0  0  0  0  0  0  0  0  0  0  0
    5.1527    1.9302   18.7910 C   0  0  0  0  0  0  0  0  0  0  0  0
    4.3071    2.5914   18.9455 H   0  0  0  0  0  0  0  0  0  0  0  0
  1  2  1  0
  2  3  2  0
  3  4  1  0
  4  5  1  0
  4  6  2  0
  6  7  1  0
  7  8  1  0
  8  9  1  0
  8 10  2  0
 10 11  1  0
 11 12  1  0
 12 13  2  0
 13 14  1  0
 13 15  1  0
 15 16  1  0
 15 17  2  0
 17 18  1  0
 17 19  1  0
 19 20  1  0
 19 21  2  0
 21 22  1  0
 10 23  1  0
 23 24  2  0
 23 25  1  0
 25 26  1  0
 25 27  1  0
 27 28  2  0
  6 29  1  0
 29 30  1  0
 29 31  2  0
 31 32  1  0
 31  2  1  0
 27  7  1  0
 21 12  1  0
M  END
>  <cnnaffinity>  (1) 
-5.38267

>  <filename>  (1) 
O=c1[nH]c(=O)n(-c2cccnc2)cc1Sc1ccccc1

$$$$
