
     RDKit          3D

 30 32  0  0  0  0  0  0  0  0999 V2000
    4.9320    1.7931   16.9878 H   0  0  0  0  0  0  0  0  0  0  0  0
    5.3953    1.2964   17.8386 C   0  0  0  0  0  0  0  0  0  0  0  0
    6.5501    0.6671   17.5830 N   0  0  0  0  0  0  0  0  0  0  0  0
    7.1369    0.0345   18.6004 C   0  0  0  0  0  0  0  0  0  0  0  0
    8.1088   -0.4090   18.3965 H   0  0  0  0  0  0  0  0  0  0  0  0
    6.5958   -0.0367   19.8991 C   0  0  0  0  0  0  0  0  0  0  0  0
    7.3130   -0.7504   20.9913 C   0  0  0  0  0  0  0  0  0  0  0  0
    6.5747   -1.5155   21.7540 N   0  0  0  0  0  0  0  0  0  0  0  0
    7.1557   -2.1899   22.7988 N   0  0  0  0  0  0  0  0  0  0  0  0
    6.2900   -2.9928   23.6207 C   0  0  0  0  0  0  0  0  0  0  0  0
    6.5040   -3.1158   25.0037 C   0  0  0  0  0  0  0  0  0  0  0  0
    7.3201   -2.5721   25.4637 H   0  0  0  0  0  0  0  0  0  0  0  0
    5.6545   -3.9016   25.7834 C   0  0  0  0  0  0  0  0  0  0  0  0
    5.8126   -4.0060   26.8539 H   0  0  0  0  0  0  0  0  0  0  0  0
    4.5835   -4.5814   25.1955 C   0  0  0  0  0  0  0  0  0  0  0  0
    3.5607   -5.5444   26.2083 Cl  0  0  0  0  0  0  0  0  0  0  0  0
    4.3662   -4.4614   23.8109 C   0  0  0  0  0  0  0  0  0  0  0  0
    3.0444   -5.2657   23.0360 Cl  0  0  0  0  0  0  0  0  0  0  0  0
    5.2139   -3.6667   23.0314 C   0  0  0  0  0  0  0  0  0  0  0  0
    5.0442   -3.5493   21.9682 H   0  0  0  0  0  0  0  0  0  0  0  0
    8.5180   -2.1211   23.0203 C   0  0  0  0  0  0  0  0  0  0  0  0
    8.8776   -2.7405   23.8372 H   0  0  0  0  0  0  0  0  0  0  0  0
    9.3442   -1.3654   22.2784 C   0  0  0  0  0  0  0  0  0  0  0  0
   10.4133   -1.2921   22.4520 H   0  0  0  0  0  0  0  0  0  0  0  0
    8.8028   -0.5667   21.1884 C   0  0  0  0  0  0  0  0  0  0  0  0
    9.5099    0.1672   20.5020 O   0  0  0  0  0  0  0  0  0  0  0  0
    5.3952    0.6343   20.1556 C   0  0  0  0  0  0  0  0  0  0  0  0
    4.9890    0.6189   21.1703 H   0  0  0  0  0  0  0  0  0  0  0  0
    4.7922    1.3215   19.1022 C   0  0  0  0  0  0  0  0  0  0  0  0
    3.8656    1.8617   19.2403 H   0  0  0  0  0  0  0  0  0  0  0  0
  1  2  1  0
  2  3  2  0
  3  4  1  0
  4  5  1  0
  4  6  2  0
  6  7  1  0
  7  8  2  0
  8  9  1  0
  9 10  1  0
 10 11  2  0
 11 12  1  0
 11 13  1  0
 13 14  1  0
 13 15  2  0
 15 16  1  0
 15 17  1  0
 17 18  1  0
 17 19  2  0
 19 20  1  0
  9 21  1  0
 21 22  1  0
 21 23  2  0
 23 24  1  0
 23 25  1  0
 25 26  2  0
  6 27  1  0
 27 28  1  0
 27 29  2  0
 29 30  1  0
 29  2  1  0
 25  7  1  0
 19 10  1  0
M  END
>  <cnnaffinity>  (1) 
-5.56456

>  <filename>  (1) 
O=c1ccn(-c2ccc(Cl)c(Cl)c2)nc1-c1cccnc1

$$$$
