
     RDKit          3D

 31 33  0  0  0  0  0  0  0  0999 V2000
    9.5040    0.0823   28.4699 H   0  0  0  0  0  0  0  0  0  0  0  0
    9.3831   -0.8546   28.2646 O   0  0  0  0  0  0  0  0  0  0  0  0
    8.9752   -0.9577   26.9608 C   0  0  0  0  0  0  0  0  0  0  0  0
    8.6662    0.1645   26.2022 C   0  0  0  0  0  0  0  0  0  0  0  0
    8.7476    1.1389   26.6759 H   0  0  0  0  0  0  0  0  0  0  0  0
    8.2951    0.0456   24.8606 C   0  0  0  0  0  0  0  0  0  0  0  0
    8.0912    0.9225   24.2588 H   0  0  0  0  0  0  0  0  0  0  0  0
    8.2338   -1.2183   24.2668 C   0  0  0  0  0  0  0  0  0  0  0  0
    7.8781   -1.3331   22.8912 N   0  0  0  0  0  0  0  0  0  0  0  0
    6.9894   -0.4904   22.2169 C   0  0  0  0  0  0  0  0  0  0  0  0
    6.2959    0.1185   22.7800 H   0  0  0  0  0  0  0  0  0  0  0  0
    7.1544   -0.6673   20.8825 C   0  0  0  0  0  0  0  0  0  0  0  0
    6.5504    0.0172   19.7339 C   0  0  0  0  0  0  0  0  0  0  0  0
    7.1485    0.0646   18.4560 C   0  0  0  0  0  0  0  0  0  0  0  0
    8.1079   -0.4125   18.2702 H   0  0  0  0  0  0  0  0  0  0  0  0
    6.6257    0.7010   17.3994 N   0  0  0  0  0  0  0  0  0  0  0  0
    5.4598    1.3429   17.5823 C   0  0  0  0  0  0  0  0  0  0  0  0
    5.0543    1.8606   16.7178 H   0  0  0  0  0  0  0  0  0  0  0  0
    4.7764    1.3661   18.8016 C   0  0  0  0  0  0  0  0  0  0  0  0
    3.8491    1.9206   18.8967 H   0  0  0  0  0  0  0  0  0  0  0  0
    5.3299    0.6927   19.8875 C   0  0  0  0  0  0  0  0  0  0  0  0
    4.8360    0.6843   20.8570 H   0  0  0  0  0  0  0  0  0  0  0  0
    8.1310   -1.6434   20.7400 N   0  0  0  0  0  0  0  0  0  0  0  0
    8.3605   -2.1886   19.9285 H   0  0  0  0  0  0  0  0  0  0  0  0
    8.5395   -2.1387   21.9557 C   0  0  0  0  0  0  0  0  0  0  0  0
    9.2784   -3.0870   22.1079 O   0  0  0  0  0  0  0  0  0  0  0  0
    8.5581   -2.3505   25.0196 C   0  0  0  0  0  0  0  0  0  0  0  0
    8.5957   -3.3225   24.5540 H   0  0  0  0  0  0  0  0  0  0  0  0
    8.9083   -2.2402   26.3627 C   0  0  0  0  0  0  0  0  0  0  0  0
    9.2216   -3.3913   27.0160 O   0  0  0  0  0  0  0  0  0  0  0  0
    9.4614   -3.1637   27.9249 H   0  0  0  0  0  0  0  0  0  0  0  0
  1  2  1  0
  2  3  1  0
  3  4  2  0
  4  5  1  0
  4  6  1  0
  6  7  1  0
  6  8  2  0
  8  9  1  0
  9 10  1  0
 10 11  1  0
 10 12  2  0
 12 13  1  0
 13 14  2  0
 14 15  1  0
 14 16  1  0
 16 17  2  0
 17 18  1  0
 17 19  1  0
 19 20  1  0
 19 21  2  0
 21 22  1  0
 12 23  1  0
 23 24  1  0
 23 25  1  0
 25 26  2  0
  8 27  1  0
 27 28  1  0
 27 29  2  0
 29 30  1  0
 30 31  1  0
 29  3  1  0
 25  9  1  0
 21 13  1  0
M  END
>  <cnnaffinity>  (1) 
-5.06393

>  <filename>  (1) 
O=c1[nH]c(-c2cccnc2)cn1-c1ccc(O)c(O)c1

$$$$
