
     RDKit          3D

 35 38  0  0  0  0  0  0  0  0999 V2000
    4.8932    1.8319   16.9555 H   0  0  0  0  0  0  0  0  0  0  0  0
    5.3732    1.3202   17.7852 C   0  0  0  0  0  0  0  0  0  0  0  0
    6.5228    0.6870   17.5048 N   0  0  0  0  0  0  0  0  0  0  0  0
    7.1590    0.0781   18.5124 C   0  0  0  0  0  0  0  0  0  0  0  0
    8.0982   -0.4194   18.2769 H   0  0  0  0  0  0  0  0  0  0  0  0
    6.6754    0.0581   19.8352 C   0  0  0  0  0  0  0  0  0  0  0  0
    7.3931   -0.6162   20.8898 N   0  0  0  0  0  0  0  0  0  0  0  0
    6.7731   -1.6756   21.5252 C   0  0  0  0  0  0  0  0  0  0  0  0
    5.7738   -1.8969   21.1579 H   0  0  0  0  0  0  0  0  0  0  0  0
    7.3700   -2.4045   22.5229 C   0  0  0  0  0  0  0  0  0  0  0  0
    6.7034   -3.5310   23.2100 C   0  0  0  0  0  0  0  0  0  0  0  0
    7.2481   -4.4972   24.0209 C   0  0  0  0  0  0  0  0  0  0  0  0
    8.3048   -4.6963   24.1591 H   0  0  0  0  0  0  0  0  0  0  0  0
    6.1776   -5.2560   24.5901 C   0  0  0  0  0  0  0  0  0  0  0  0
    6.1115   -6.2715   25.5720 C   0  0  0  0  0  0  0  0  0  0  0  0
    7.0061   -6.5876   26.1090 H   0  0  0  0  0  0  0  0  0  0  0  0
    4.8877   -6.8736   25.8348 C   0  0  0  0  0  0  0  0  0  0  0  0
    4.8341   -7.6587   26.5885 H   0  0  0  0  0  0  0  0  0  0  0  0
    3.7175   -6.4518   25.1530 C   0  0  0  0  0  0  0  0  0  0  0  0
    2.7855   -6.9801   25.3349 H   0  0  0  0  0  0  0  0  0  0  0  0
    3.7421   -5.3898   24.2538 C   0  0  0  0  0  0  0  0  0  0  0  0
    2.8355   -5.0650   23.7543 H   0  0  0  0  0  0  0  0  0  0  0  0
    4.9793   -4.7686   24.0079 C   0  0  0  0  0  0  0  0  0  0  0  0
    5.3218   -3.7230   23.1694 N   0  0  0  0  0  0  0  0  0  0  0  0
    4.6874   -2.9703   22.9542 H   0  0  0  0  0  0  0  0  0  0  0  0
    8.6967   -2.0123   22.9207 C   0  0  0  0  0  0  0  0  0  0  0  0
    9.1934   -2.5439   23.7345 H   0  0  0  0  0  0  0  0  0  0  0  0
    9.3313   -0.9774   22.3141 C   0  0  0  0  0  0  0  0  0  0  0  0
   10.3272   -0.6588   22.5818 H   0  0  0  0  0  0  0  0  0  0  0  0
    8.7311   -0.2061   21.2367 C   0  0  0  0  0  0  0  0  0  0  0  0
    9.3043    0.7021   20.6636 O   0  0  0  0  0  0  0  0  0  0  0  0
    5.4521    0.6801   20.1042 C   0  0  0  0  0  0  0  0  0  0  0  0
    5.0456    0.6549   21.1159 H   0  0  0  0  0  0  0  0  0  0  0  0
    4.7978    1.3380   19.0592 C   0  0  0  0  0  0  0  0  0  0  0  0
    3.8619    1.8568   19.2204 H   0  0  0  0  0  0  0  0  0  0  0  0
  1  2  1  0
  2  3  2  0
  3  4  1  0
  4  5  1  0
  4  6  2  0
  6  7  1  0
  7  8  1  0
  8  9  1  0
  8 10  2  0
 10 11  1  0
 11 12  2  0
 12 13  1  0
 12 14  1  0
 14 15  2  0
 15 16  1  0
 15 17  1  0
 17 18  1  0
 17 19  2  0
 19 20  1  0
 19 21  1  0
 21 22  1  0
 21 23  2  0
 23 24  1  0
 24 25  1  0
 10 26  1  0
 26 27  1  0
 26 28  2  0
 28 29  1  0
 28 30  1  0
 30 31  2  0
  6 32  1  0
 32 33  1  0
 32 34  2  0
 34 35  1  0
 34  2  1  0
 30  7  1  0
 24 11  1  0
 23 14  1  0
M  END
>  <cnnaffinity>  (1) 
-5.61475

>  <filename>  (1) 
O=c1ccc(-c2cc3ccccc3[nH]2)cn1-c1cccnc1

$$$$
