
     RDKit          3D

 29 31  0  0  0  0  0  0  0  0999 V2000
    4.9070    1.7762   17.0015 H   0  0  0  0  0  0  0  0  0  0  0  0
    5.3978    1.2940   17.8425 C   0  0  0  0  0  0  0  0  0  0  0  0
    6.5630    0.6784   17.5786 N   0  0  0  0  0  0  0  0  0  0  0  0
    7.1798    0.0589   18.5920 C   0  0  0  0  0  0  0  0  0  0  0  0
    8.1289   -0.4305   18.3834 H   0  0  0  0  0  0  0  0  0  0  0  0
    6.6669    0.0021   19.9078 C   0  0  0  0  0  0  0  0  0  0  0  0
    7.3589   -0.6852   20.9474 N   0  0  0  0  0  0  0  0  0  0  0  0
    6.7684   -1.4483   21.9480 C   0  0  0  0  0  0  0  0  0  0  0  0
    5.7013   -1.5991   21.9852 H   0  0  0  0  0  0  0  0  0  0  0  0
    7.7386   -1.9386   22.7511 C   0  0  0  0  0  0  0  0  0  0  0  0
    7.6146   -2.7871   23.9297 C   0  0  0  0  0  0  0  0  0  0  0  0
    8.6919   -3.5385   24.4275 C   0  0  0  0  0  0  0  0  0  0  0  0
    9.6588   -3.5040   23.9333 H   0  0  0  0  0  0  0  0  0  0  0  0
    8.5356   -4.3505   25.5471 C   0  0  0  0  0  0  0  0  0  0  0  0
    9.3653   -4.9289   25.9328 H   0  0  0  0  0  0  0  0  0  0  0  0
    7.2891   -4.4089   26.1684 C   0  0  0  0  0  0  0  0  0  0  0  0
    7.1330   -5.1893   27.2481 F   0  0  0  0  0  0  0  0  0  0  0  0
    6.1992   -3.6794   25.6980 C   0  0  0  0  0  0  0  0  0  0  0  0
    5.2420   -3.7419   26.1982 H   0  0  0  0  0  0  0  0  0  0  0  0
    6.3688   -2.8722   24.5787 C   0  0  0  0  0  0  0  0  0  0  0  0
    5.5252   -2.2908   24.2165 H   0  0  0  0  0  0  0  0  0  0  0  0
    8.9440   -1.4774   22.2328 N   0  0  0  0  0  0  0  0  0  0  0  0
    9.8703   -1.6064   22.5934 H   0  0  0  0  0  0  0  0  0  0  0  0
    8.7518   -0.6805   21.1353 C   0  0  0  0  0  0  0  0  0  0  0  0
    9.5952   -0.1083   20.4750 O   0  0  0  0  0  0  0  0  0  0  0  0
    5.4471    0.6449   20.1624 C   0  0  0  0  0  0  0  0  0  0  0  0
    5.0142    0.6303   21.1625 H   0  0  0  0  0  0  0  0  0  0  0  0
    4.8082    1.3112   19.1111 C   0  0  0  0  0  0  0  0  0  0  0  0
    3.8731    1.8438   19.2679 H   0  0  0  0  0  0  0  0  0  0  0  0
  1  2  1  0
  2  3  2  0
  3  4  1  0
  4  5  1  0
  4  6  2  0
  6  7  1  0
  7  8  1  0
  8  9  1  0
  8 10  2  0
 10 11  1  0
 11 12  2  0
 12 13  1  0
 12 14  1  0
 14 15  1  0
 14 16  2  0
 16 17  1  0
 16 18  1  0
 18 19  1  0
 18 20  2  0
 20 21  1  0
 10 22  1  0
 22 23  1  0
 22 24  1  0
 24 25  2  0
  6 26  1  0
 26 27  1  0
 26 28  2  0
 28 29  1  0
 28  2  1  0
 24  7  1  0
 20 11  1  0
M  END
>  <cnnaffinity>  (1) 
-5.27843

>  <filename>  (1) 
O=c1[nH]c(-c2ccc(F)cc2)cn1-c1cccnc1

$$$$
