
     RDKit          3D

 32 34  0  0  0  0  0  0  0  0999 V2000
    4.8815    1.8289   17.0057 H   0  0  0  0  0  0  0  0  0  0  0  0
    5.3972    1.3088   17.8062 C   0  0  0  0  0  0  0  0  0  0  0  0
    6.5658    0.6969   17.5430 N   0  0  0  0  0  0  0  0  0  0  0  0
    7.1901    0.0722   18.5602 C   0  0  0  0  0  0  0  0  0  0  0  0
    8.1385   -0.4188   18.3656 H   0  0  0  0  0  0  0  0  0  0  0  0
    6.6763    0.0167   19.8723 C   0  0  0  0  0  0  0  0  0  0  0  0
    7.4187   -0.7003   20.9945 C   0  0  2  0  0  0  0  0  0  0  0  0
    8.2895   -1.2252   20.5850 H   0  0  0  0  0  0  0  0  0  0  0  0
    6.5791   -1.7221   21.7573 C   0  0  0  0  0  0  0  0  0  0  0  0
    5.9205   -2.6506   21.3094 O   0  0  0  0  0  0  0  0  0  0  0  0
    6.5717   -1.4853   23.0996 N   0  0  0  0  0  0  0  0  0  0  0  0
    5.7251   -1.8057   23.5616 H   0  0  0  0  0  0  0  0  0  0  0  0
    7.1197   -0.1714   23.3963 C   0  0  0  0  0  0  0  0  0  0  0  0
    7.8051   -0.2167   24.2522 H   0  0  0  0  0  0  0  0  0  0  0  0
    6.3206    0.5343   23.6418 H   0  0  0  0  0  0  0  0  0  0  0  0
    7.8472    0.2898   22.1116 C   0  0  1  0  0  0  0  0  0  0  0  0
    7.5465    1.3204   21.8641 H   0  0  0  0  0  0  0  0  0  0  0  0
    9.3466    0.2412   22.3033 C   0  0  0  0  0  0  0  0  0  0  0  0
    9.9610   -0.9703   22.6519 C   0  0  0  0  0  0  0  0  0  0  0  0
    9.3351   -1.8374   22.8438 H   0  0  0  0  0  0  0  0  0  0  0  0
   11.3532   -1.0624   22.7345 C   0  0  0  0  0  0  0  0  0  0  0  0
   11.8178   -2.0296   22.9066 H   0  0  0  0  0  0  0  0  0  0  0  0
   12.1367    0.0868   22.5804 C   0  0  0  0  0  0  0  0  0  0  0  0
   14.0232    0.0167   22.8576 Br  0  0  0  0  0  0  0  0  0  0  0  0
   11.5266    1.3034   22.2532 C   0  0  0  0  0  0  0  0  0  0  0  0
   12.1429    2.1843   22.1051 H   0  0  0  0  0  0  0  0  0  0  0  0
   10.1372    1.3791   22.0880 C   0  0  0  0  0  0  0  0  0  0  0  0
    9.6704    2.3075   21.7628 H   0  0  0  0  0  0  0  0  0  0  0  0
    5.4641    0.6550   20.1305 C   0  0  0  0  0  0  0  0  0  0  0  0
    5.0378    0.6456   21.1305 H   0  0  0  0  0  0  0  0  0  0  0  0
    4.8212    1.3059   19.0796 C   0  0  0  0  0  0  0  0  0  0  0  0
    3.8813    1.8211   19.2368 H   0  0  0  0  0  0  0  0  0  0  0  0
  1  2  1  0
  2  3  2  0
  3  4  1  0
  4  5  1  0
  4  6  2  0
  6  7  1  0
  7  8  1  6
  7  9  1  0
  9 10  2  0
  9 11  1  0
 11 12  1  0
 11 13  1  0
 13 14  1  0
 13 15  1  0
 13 16  1  0
 16 17  1  6
 16 18  1  0
 18 19  2  0
 19 20  1  0
 19 21  1  0
 21 22  1  0
 21 23  2  0
 23 24  1  0
 23 25  1  0
 25 26  1  0
 25 27  2  0
 27 28  1  0
  6 29  1  0
 29 30  1  0
 29 31  2  0
 31 32  1  0
 31  2  1  0
 16  7  1  0
 27 18  1  0
M  END
>  <cnnaffinity>  (1) 
-5.3007

>  <filename>  (1) 
O=C1NC[C@@H](c2ccc(Br)cc2)[C@@H]1c1cccnc1

$$$$
