
     RDKit          3D

 35 37  0  0  0  0  0  0  0  0999 V2000
    9.9943   -0.1649   22.4267 H   0  0  0  0  0  0  0  0  0  0  0  0
    9.0981   -0.6526   22.0652 C   0  0  0  0  0  0  0  0  0  0  0  0
    8.3520   -1.3871   22.9033 C   0  0  0  0  0  0  0  0  0  0  0  0
    8.6077   -1.4904   24.3570 C   0  0  0  0  0  0  0  0  0  0  0  0
    8.7620   -0.3305   25.1402 C   0  0  0  0  0  0  0  0  0  0  0  0
    8.5739    0.6433   24.6988 H   0  0  0  0  0  0  0  0  0  0  0  0
    9.1296   -0.4241   26.4797 C   0  0  0  0  0  0  0  0  0  0  0  0
    9.2591    0.4725   27.0795 H   0  0  0  0  0  0  0  0  0  0  0  0
    9.3738   -1.6663   27.0632 C   0  0  0  0  0  0  0  0  0  0  0  0
    9.7405   -1.6393   28.0834 H   0  0  0  0  0  0  0  0  0  0  0  0
    9.2115   -2.8378   26.3009 C   0  0  0  0  0  0  0  0  0  0  0  0
    9.5479   -4.2388   26.7711 C   0  0  0  0  0  0  0  0  0  0  0  0
    8.4832   -5.0621   26.6710 F   0  0  0  0  0  0  0  0  0  0  0  0
    9.9707   -4.3105   28.0359 F   0  0  0  0  0  0  0  0  0  0  0  0
   10.5251   -4.7684   26.0011 F   0  0  0  0  0  0  0  0  0  0  0  0
    8.8002   -2.7386   24.9651 C   0  0  0  0  0  0  0  0  0  0  0  0
    8.6742   -3.6498   24.3860 H   0  0  0  0  0  0  0  0  0  0  0  0
    7.3033   -2.1344   22.3693 N   0  0  0  0  0  0  0  0  0  0  0  0
    6.6255   -2.5906   22.9545 H   0  0  0  0  0  0  0  0  0  0  0  0
    6.6807   -1.8225   21.1749 C   0  0  0  0  0  0  0  0  0  0  0  0
    5.6181   -2.3533   20.9188 O   0  0  0  0  0  0  0  0  0  0  0  0
    7.3401   -0.8931   20.3732 N   0  0  0  0  0  0  0  0  0  0  0  0
    6.6183   -0.1125   19.4124 C   0  0  0  0  0  0  0  0  0  0  0  0
    7.1161    0.1229   18.1085 C   0  0  0  0  0  0  0  0  0  0  0  0
    8.0473   -0.3465   17.7902 H   0  0  0  0  0  0  0  0  0  0  0  0
    6.5080    0.8990   17.2039 N   0  0  0  0  0  0  0  0  0  0  0  0
    5.3667    1.5051   17.5684 C   0  0  0  0  0  0  0  0  0  0  0  0
    4.9022    2.1449   16.8199 H   0  0  0  0  0  0  0  0  0  0  0  0
    4.7816    1.3317   18.8281 C   0  0  0  0  0  0  0  0  0  0  0  0
    3.8570    1.8443   19.0682 H   0  0  0  0  0  0  0  0  0  0  0  0
    5.4036    0.4954   19.7615 C   0  0  0  0  0  0  0  0  0  0  0  0
    4.9748    0.3141   20.7481 H   0  0  0  0  0  0  0  0  0  0  0  0
    8.7678   -0.6004   20.6088 C   0  0  0  0  0  0  0  0  0  0  0  0
    9.4074   -1.2996   20.0343 H   0  0  0  0  0  0  0  0  0  0  0  0
    8.9921    0.4092   20.2364 H   0  0  0  0  0  0  0  0  0  0  0  0
  1  2  1  0
  2  3  2  0
  3  4  1  0
  4  5  2  0
  5  6  1  0
  5  7  1  0
  7  8  1  0
  7  9  2  0
  9 10  1  0
  9 11  1  0
 11 12  1  0
 12 13  1  0
 12 14  1  0
 12 15  1  0
 11 16  2  0
 16 17  1  0
  3 18  1  0
 18 19  1  0
 18 20  1  0
 20 21  2  0
 20 22  1  0
 22 23  1  0
 23 24  2  0
 24 25  1  0
 24 26  1  0
 26 27  2  0
 27 28  1  0
 27 29  1  0
 29 30  1  0
 29 31  2  0
 31 32  1  0
 22 33  1  0
 33 34  1  0
 33 35  1  0
 33  2  1  0
 16  4  1  0
 31 23  1  0
M  END
>  <cnnaffinity>  (1) 
-5.04562

>  <filename>  (1) 
O=C1NC(c2cccc(C(F)(F)F)c2)=CCN1c1cccnc1

$$$$
