
     RDKit          3D

 38 40  0  0  0  0  0  0  0  0999 V2000
    4.9148    1.9582   16.6782 H   0  0  0  0  0  0  0  0  0  0  0  0
    5.3376    1.4525   17.5441 C   0  0  0  0  0  0  0  0  0  0  0  0
    6.4913    0.7970   17.3425 N   0  0  0  0  0  0  0  0  0  0  0  0
    7.0472    0.1747   18.3876 C   0  0  0  0  0  0  0  0  0  0  0  0
    7.9920   -0.3334   18.1960 H   0  0  0  0  0  0  0  0  0  0  0  0
    6.4927    0.1876   19.6701 C   0  0  0  0  0  0  0  0  0  0  0  0
    7.1807   -0.5005   20.7773 C   0  0  0  0  0  0  0  0  0  0  0  0
    7.6663   -1.6964   20.5280 N   0  0  0  0  0  0  0  0  0  0  0  0
    8.2555   -2.3524   21.5652 C   0  0  0  0  0  0  0  0  0  0  0  0
    8.5646   -3.5260   21.5729 O   0  0  0  0  0  0  0  0  0  0  0  0
    8.5683   -1.6363   22.7260 N   0  0  0  0  0  0  0  0  0  0  0  0
    8.8688   -2.2658   23.4406 H   0  0  0  0  0  0  0  0  0  0  0  0
    7.8109   -0.5771   23.0425 C   0  0  0  0  0  0  0  0  0  0  0  0
    7.6344   -0.2347   24.3259 N   0  0  0  0  0  0  0  0  0  0  0  0
    6.8767    0.4281   24.3610 H   0  0  0  0  0  0  0  0  0  0  0  0
    7.7391   -1.1204   25.4835 C   0  0  0  0  0  0  0  0  0  0  0  0
    7.2405   -0.5677   26.2870 H   0  0  0  0  0  0  0  0  0  0  0  0
    7.0282   -2.4943   25.3565 C   0  0  0  0  0  0  0  0  0  0  0  0
    5.9819   -2.3357   25.0778 H   0  0  0  0  0  0  0  0  0  0  0  0
    7.4666   -3.0601   24.5315 H   0  0  0  0  0  0  0  0  0  0  0  0
    7.1548   -3.3511   26.6300 C   0  0  0  0  0  0  0  0  0  0  0  0
    6.7768   -4.3611   26.4330 H   0  0  0  0  0  0  0  0  0  0  0  0
    6.5201   -2.9360   27.4253 H   0  0  0  0  0  0  0  0  0  0  0  0
    8.6121   -3.4373   27.1123 C   0  0  0  0  0  0  0  0  0  0  0  0
    9.1985   -4.0256   26.3844 H   0  0  0  0  0  0  0  0  0  0  0  0
    8.6517   -3.9871   28.0591 H   0  0  0  0  0  0  0  0  0  0  0  0
    9.2148   -2.0281   27.2621 C   0  0  0  0  0  0  0  0  0  0  0  0
   10.2160   -2.0415   27.6899 H   0  0  0  0  0  0  0  0  0  0  0  0
    8.6150   -1.4528   27.9841 H   0  0  0  0  0  0  0  0  0  0  0  0
    9.1965   -1.2829   25.9275 C   0  0  0  0  0  0  0  0  0  0  0  0
    9.7663   -1.8336   25.1683 H   0  0  0  0  0  0  0  0  0  0  0  0
    9.6684   -0.2982   26.0099 H   0  0  0  0  0  0  0  0  0  0  0  0
    7.2116    0.1233   22.0335 C   0  0  0  0  0  0  0  0  0  0  0  0
    6.8228    1.1156   22.2144 H   0  0  0  0  0  0  0  0  0  0  0  0
    5.2848    0.8715   19.8677 C   0  0  0  0  0  0  0  0  0  0  0  0
    4.8275    0.9018   20.8583 H   0  0  0  0  0  0  0  0  0  0  0  0
    4.6884    1.5067   18.7827 C   0  0  0  0  0  0  0  0  0  0  0  0
    3.7607    2.0606   18.8909 H   0  0  0  0  0  0  0  0  0  0  0  0
  1  2  1  0
  2  3  2  0
  3  4  1  0
  4  5  1  0
  4  6  2  0
  6  7  1  0
  7  8  2  0
  8  9  1  0
  9 10  2  0
  9 11  1  0
 11 12  1  0
 11 13  1  0
 13 14  1  0
 14 15  1  0
 14 16  1  0
 16 17  1  0
 16 18  1  0
 18 19  1  0
 18 20  1  0
 18 21  1  0
 21 22  1  0
 21 23  1  0
 21 24  1  0
 24 25  1  0
 24 26  1  0
 24 27  1  0
 27 28  1  0
 27 29  1  0
 27 30  1  0
 30 31  1  0
 30 32  1  0
 13 33  2  0
 33 34  1  0
  6 35  1  0
 35 36  1  0
 35 37  2  0
 37 38  1  0
 37  2  1  0
 33  7  1  0
 30 16  1  0
M  END
>  <cnnaffinity>  (1) 
-4.88257

>  <filename>  (1) 
O=c1nc(-c2cccnc2)cc(NC2CCCCC2)[nH]1

$$$$
