
     RDKit          3D

 31 33  0  0  0  0  0  0  0  0999 V2000
    5.0304   -4.2774   27.0369 H   0  0  0  0  0  0  0  0  0  0  0  0
    4.9980   -3.6883   26.2772 O   0  0  0  0  0  0  0  0  0  0  0  0
    6.2288   -3.6806   25.7139 C   0  0  0  0  0  0  0  0  0  0  0  0
    7.2832   -4.4402   26.2133 C   0  0  0  0  0  0  0  0  0  0  0  0
    7.1999   -5.0849   27.0830 H   0  0  0  0  0  0  0  0  0  0  0  0
    8.5146   -4.3693   25.5578 C   0  0  0  0  0  0  0  0  0  0  0  0
    9.5115   -5.1232   26.0778 O   0  0  0  0  0  0  0  0  0  0  0  0
   10.2972   -4.9849   25.5412 H   0  0  0  0  0  0  0  0  0  0  0  0
    8.6978   -3.5645   24.4303 C   0  0  0  0  0  0  0  0  0  0  0  0
    9.6578   -3.5381   23.9258 H   0  0  0  0  0  0  0  0  0  0  0  0
    7.6233   -2.7990   23.9410 C   0  0  0  0  0  0  0  0  0  0  0  0
    7.7298   -1.9416   22.7525 C   0  0  0  0  0  0  0  0  0  0  0  0
    6.7640   -1.4465   21.9422 C   0  0  0  0  0  0  0  0  0  0  0  0
    5.6982   -1.6018   21.9542 H   0  0  0  0  0  0  0  0  0  0  0  0
    7.3552   -0.6777   20.9457 N   0  0  0  0  0  0  0  0  0  0  0  0
    6.6646    0.0033   19.9037 C   0  0  0  0  0  0  0  0  0  0  0  0
    7.1739    0.0533   18.5859 C   0  0  0  0  0  0  0  0  0  0  0  0
    8.1288   -0.4215   18.3675 H   0  0  0  0  0  0  0  0  0  0  0  0
    6.5541    0.6685   17.5724 N   0  0  0  0  0  0  0  0  0  0  0  0
    5.3948    1.2916   17.8383 C   0  0  0  0  0  0  0  0  0  0  0  0
    4.9196    1.7881   16.9965 H   0  0  0  0  0  0  0  0  0  0  0  0
    4.8104    1.3077   19.1085 C   0  0  0  0  0  0  0  0  0  0  0  0
    3.8798    1.8389   19.2618 H   0  0  0  0  0  0  0  0  0  0  0  0
    5.4468    0.6446   20.1611 C   0  0  0  0  0  0  0  0  0  0  0  0
    5.0281    0.6352   21.1673 H   0  0  0  0  0  0  0  0  0  0  0  0
    8.7470   -0.6812   21.1370 C   0  0  0  0  0  0  0  0  0  0  0  0
    9.6228   -0.1249   20.5068 O   0  0  0  0  0  0  0  0  0  0  0  0
    8.9346   -1.4794   22.2296 N   0  0  0  0  0  0  0  0  0  0  0  0
    9.8729   -1.5649   22.5678 H   0  0  0  0  0  0  0  0  0  0  0  0
    6.3898   -2.8677   24.5944 C   0  0  0  0  0  0  0  0  0  0  0  0
    5.5250   -2.2989   24.2803 H   0  0  0  0  0  0  0  0  0  0  0  0
  1  2  1  0
  2  3  1  0
  3  4  2  0
  4  5  1  0
  4  6  1  0
  6  7  1  0
  7  8  1  0
  6  9  2  0
  9 10  1  0
  9 11  1  0
 11 12  1  0
 12 13  2  0
 13 14  1  0
 13 15  1  0
 15 16  1  0
 16 17  2  0
 17 18  1  0
 17 19  1  0
 19 20  2  0
 20 21  1  0
 20 22  1  0
 22 23  1  0
 22 24  2  0
 24 25  1  0
 15 26  1  0
 26 27  2  0
 26 28  1  0
 28 29  1  0
 11 30  2  0
 30 31  1  0
 30  3  1  0
 28 12  1  0
 24 16  1  0
M  END
>  <cnnaffinity>  (1) 
-5.17482

>  <filename>  (1) 
O=c1[nH]c(-c2cc(O)cc(O)c2)cn1-c1cccnc1

$$$$
