
     RDKit          3D

 32 34  0  0  0  0  0  0  0  0999 V2000
    5.0646    1.8366   16.9826 H   0  0  0  0  0  0  0  0  0  0  0  0
    5.4771    1.3006   17.8339 C   0  0  0  0  0  0  0  0  0  0  0  0
    6.6154    0.6317   17.5982 N   0  0  0  0  0  0  0  0  0  0  0  0
    7.1534   -0.0286   18.6260 C   0  0  0  0  0  0  0  0  0  0  0  0
    8.0617   -0.5862   18.4086 H   0  0  0  0  0  0  0  0  0  0  0  0
    6.6015   -0.0610   19.9097 C   0  0  0  0  0  0  0  0  0  0  0  0
    7.3283   -0.8162   20.9563 C   0  0  0  0  0  0  0  0  0  0  0  0
    6.5909   -1.5268   21.7634 N   0  0  0  0  0  0  0  0  0  0  0  0
    7.1883   -2.2023   22.8049 N   0  0  0  0  0  0  0  0  0  0  0  0
    6.3119   -2.8326   23.7241 C   0  0  0  0  0  0  0  0  0  0  0  0
    6.7001   -2.8709   24.9862 N   0  0  0  0  0  0  0  0  0  0  0  0
    5.8646   -3.3772   25.8975 C   0  0  0  0  0  0  0  0  0  0  0  0
    6.3915   -3.4576   27.3425 C   0  0  0  0  0  0  0  0  0  0  0  0
    7.6553   -3.0369   27.4511 F   0  0  0  0  0  0  0  0  0  0  0  0
    6.3375   -4.7141   27.8286 F   0  0  0  0  0  0  0  0  0  0  0  0
    5.6155   -2.7177   28.1618 F   0  0  0  0  0  0  0  0  0  0  0  0
    4.5731   -3.8186   25.5860 C   0  0  0  0  0  0  0  0  0  0  0  0
    3.8716   -4.0776   26.3719 H   0  0  0  0  0  0  0  0  0  0  0  0
    4.1995   -3.8579   24.2331 C   0  0  0  0  0  0  0  0  0  0  0  0
    3.2306   -4.2576   23.9293 H   0  0  0  0  0  0  0  0  0  0  0  0
    5.0823   -3.3588   23.2789 C   0  0  0  0  0  0  0  0  0  0  0  0
    4.8685   -3.2881   22.2219 H   0  0  0  0  0  0  0  0  0  0  0  0
    8.6118   -2.3336   22.9986 C   0  0  0  0  0  0  0  0  0  0  0  0
    9.1186   -3.0802   23.8027 O   0  0  0  0  0  0  0  0  0  0  0  0
    9.3750   -1.4907   22.0679 C   0  0  0  0  0  0  0  0  0  0  0  0
   10.4500   -1.5193   22.2186 H   0  0  0  0  0  0  0  0  0  0  0  0
    8.7669   -0.7794   21.0781 C   0  0  0  0  0  0  0  0  0  0  0  0
    9.3247   -0.1641   20.3791 H   0  0  0  0  0  0  0  0  0  0  0  0
    5.3819    0.5969   20.1348 C   0  0  0  0  0  0  0  0  0  0  0  0
    4.9033    0.5275   21.1148 H   0  0  0  0  0  0  0  0  0  0  0  0
    4.8204    1.3116   19.0731 C   0  0  0  0  0  0  0  0  0  0  0  0
    3.8870    1.8599   19.1816 H   0  0  0  0  0  0  0  0  0  0  0  0
  1  2  1  0
  2  3  2  0
  3  4  1  0
  4  5  1  0
  4  6  2  0
  6  7  1  0
  7  8  2  0
  8  9  1  0
  9 10  1  0
 10 11  2  0
 11 12  1  0
 12 13  1  0
 13 14  1  0
 13 15  1  0
 13 16  1  0
 12 17  2  0
 17 18  1  0
 17 19  1  0
 19 20  1  0
 19 21  2  0
 21 22  1  0
  9 23  1  0
 23 24  2  0
 23 25  1  0
 25 26  1  0
 25 27  2  0
 27 28  1  0
  6 29  1  0
 29 30  1  0
 29 31  2  0
 31 32  1  0
 31  2  1  0
 27  7  1  0
 21 10  1  0
M  END
>  <cnnaffinity>  (1) 
-5.33529

>  <filename>  (1) 
O=c1ccc(-c2cccnc2)nn1-c1cccc(C(F)(F)F)n1

$$$$
