
     RDKit          3D

 31 33  0  0  0  0  0  0  0  0999 V2000
    6.5849   -2.2134   27.7217 H   0  0  0  0  0  0  0  0  0  0  0  0
    5.8015   -2.7525   27.5779 O   0  0  0  0  0  0  0  0  0  0  0  0
    5.6471   -2.9038   26.2398 C   0  0  0  0  0  0  0  0  0  0  0  0
    4.5672   -3.6821   25.8255 C   0  0  0  0  0  0  0  0  0  0  0  0
    3.9327   -4.0940   26.6040 H   0  0  0  0  0  0  0  0  0  0  0  0
    4.3543   -3.8815   24.4620 C   0  0  0  0  0  0  0  0  0  0  0  0
    3.5010   -4.4774   24.1421 H   0  0  0  0  0  0  0  0  0  0  0  0
    5.2195   -3.3021   23.5261 C   0  0  0  0  0  0  0  0  0  0  0  0
    5.0562   -3.4106   22.4622 H   0  0  0  0  0  0  0  0  0  0  0  0
    6.3052   -2.5291   23.9583 C   0  0  0  0  0  0  0  0  0  0  0  0
    7.1862   -1.9397   22.9773 N   0  0  0  0  0  0  0  0  0  0  0  0
    6.5840   -1.3194   21.9114 N   0  0  0  0  0  0  0  0  0  0  0  0
    7.3354   -0.7375   21.0059 C   0  0  0  0  0  0  0  0  0  0  0  0
    6.6316   -0.0063   19.9186 C   0  0  0  0  0  0  0  0  0  0  0  0
    7.1589    0.0484   18.6187 C   0  0  0  0  0  0  0  0  0  0  0  0
    8.1041   -0.4363   18.3769 H   0  0  0  0  0  0  0  0  0  0  0  0
    6.5625    0.6679   17.5938 N   0  0  0  0  0  0  0  0  0  0  0  0
    5.4018    1.2942   17.8396 C   0  0  0  0  0  0  0  0  0  0  0  0
    4.9397    1.7902   16.9865 H   0  0  0  0  0  0  0  0  0  0  0  0
    4.7958    1.3185   19.1014 C   0  0  0  0  0  0  0  0  0  0  0  0
    3.8635    1.8577   19.2347 H   0  0  0  0  0  0  0  0  0  0  0  0
    5.4150    0.6501   20.1586 C   0  0  0  0  0  0  0  0  0  0  0  0
    4.9803    0.6287   21.1587 H   0  0  0  0  0  0  0  0  0  0  0  0
    8.7719   -0.7876   21.0635 C   0  0  0  0  0  0  0  0  0  0  0  0
    9.3425   -0.2637   20.3035 H   0  0  0  0  0  0  0  0  0  0  0  0
    9.3741   -1.4524   22.0859 C   0  0  0  0  0  0  0  0  0  0  0  0
   10.4444   -1.5528   22.2017 H   0  0  0  0  0  0  0  0  0  0  0  0
    8.5991   -2.1063   23.1351 C   0  0  0  0  0  0  0  0  0  0  0  0
    9.0896   -2.7372   24.0554 O   0  0  0  0  0  0  0  0  0  0  0  0
    6.5344   -2.3318   25.3248 C   0  0  0  0  0  0  0  0  0  0  0  0
    7.3963   -1.7688   25.6581 H   0  0  0  0  0  0  0  0  0  0  0  0
  1  2  1  0
  2  3  1  0
  3  4  2  0
  4  5  1  0
  4  6  1  0
  6  7  1  0
  6  8  2  0
  8  9  1  0
  8 10  1  0
 10 11  1  0
 11 12  1  0
 12 13  2  0
 13 14  1  0
 14 15  2  0
 15 16  1  0
 15 17  1  0
 17 18  2  0
 18 19  1  0
 18 20  1  0
 20 21  1  0
 20 22  2  0
 22 23  1  0
 13 24  1  0
 24 25  1  0
 24 26  2  0
 26 27  1  0
 26 28  1  0
 28 29  2  0
 10 30  2  0
 30 31  1  0
 30  3  1  0
 28 11  1  0
 22 14  1  0
M  END
>  <cnnaffinity>  (1) 
-4.84213

>  <filename>  (1) 
O=c1ccc(-c2cccnc2)nn1-c1cccc(O)c1

$$$$
