
     RDKit          3D

 32 34  0  0  0  0  0  0  0  0999 V2000
    2.6892   -5.4006   24.0046 H   0  0  0  0  0  0  0  0  0  0  0  0
    3.1734   -4.8717   23.3653 O   0  0  0  0  0  0  0  0  0  0  0  0
    4.2921   -4.3989   23.9597 C   0  0  0  0  0  0  0  0  0  0  0  0
    4.6083   -4.6685   25.2873 C   0  0  0  0  0  0  0  0  0  0  0  0
    3.9951   -5.2804   25.9381 H   0  0  0  0  0  0  0  0  0  0  0  0
    5.7783   -4.1199   25.8123 C   0  0  0  0  0  0  0  0  0  0  0  0
    6.0408   -4.4114   27.1096 O   0  0  0  0  0  0  0  0  0  0  0  0
    6.8681   -3.9841   27.3493 H   0  0  0  0  0  0  0  0  0  0  0  0
    6.6232   -3.3192   25.0354 C   0  0  0  0  0  0  0  0  0  0  0  0
    7.5167   -2.8813   25.4750 H   0  0  0  0  0  0  0  0  0  0  0  0
    6.2879   -3.0580   23.6892 C   0  0  0  0  0  0  0  0  0  0  0  0
    7.1719   -2.2066   22.8112 C   0  0  0  0  0  0  0  0  0  0  0  0
    6.5818   -1.5078   21.7700 N   0  0  0  0  0  0  0  0  0  0  0  0
    7.3112   -0.7375   20.9874 C   0  0  0  0  0  0  0  0  0  0  0  0
    6.6209   -0.0143   19.9056 C   0  0  0  0  0  0  0  0  0  0  0  0
    7.1541    0.0452   18.6056 C   0  0  0  0  0  0  0  0  0  0  0  0
    8.1144   -0.4154   18.3846 H   0  0  0  0  0  0  0  0  0  0  0  0
    6.5574    0.6684   17.5862 N   0  0  0  0  0  0  0  0  0  0  0  0
    5.4004    1.2930   17.8399 C   0  0  0  0  0  0  0  0  0  0  0  0
    4.9259    1.7832   16.9930 H   0  0  0  0  0  0  0  0  0  0  0  0
    4.7998    1.3208   19.1039 C   0  0  0  0  0  0  0  0  0  0  0  0
    3.8689    1.8529   19.2508 H   0  0  0  0  0  0  0  0  0  0  0  0
    5.4123    0.6473   20.1568 C   0  0  0  0  0  0  0  0  0  0  0  0
    4.9823    0.6328   21.1615 H   0  0  0  0  0  0  0  0  0  0  0  0
    8.8030   -0.5577   21.1738 C   0  0  0  0  0  0  0  0  0  0  0  0
    9.5935    0.1381   20.5595 O   0  0  0  0  0  0  0  0  0  0  0  0
    9.2992   -1.3276   22.2186 N   0  0  0  0  0  0  0  0  0  0  0  0
   10.2993   -1.1774   22.3101 H   0  0  0  0  0  0  0  0  0  0  0  0
    8.5261   -2.1284   23.0278 C   0  0  0  0  0  0  0  0  0  0  0  0
    9.0443   -2.6838   23.8004 H   0  0  0  0  0  0  0  0  0  0  0  0
    5.1166   -3.6076   23.1611 C   0  0  0  0  0  0  0  0  0  0  0  0
    4.8091   -3.4114   22.1422 H   0  0  0  0  0  0  0  0  0  0  0  0
  1  2  1  0
  2  3  1  0
  3  4  2  0
  4  5  1  0
  4  6  1  0
  6  7  1  0
  7  8  1  0
  6  9  2  0
  9 10  1  0
  9 11  1  0
 11 12  1  0
 12 13  1  0
 13 14  2  0
 14 15  1  0
 15 16  2  0
 16 17  1  0
 16 18  1  0
 18 19  2  0
 19 20  1  0
 19 21  1  0
 21 22  1  0
 21 23  2  0
 23 24  1  0
 14 25  1  0
 25 26  2  0
 25 27  1  0
 27 28  1  0
 27 29  1  0
 29 30  1  0
 11 31  2  0
 31 32  1  0
 31  3  1  0
 29 12  2  0
 23 15  1  0
M  END
>  <cnnaffinity>  (1) 
-5.24609

>  <filename>  (1) 
O=c1[nH]cc(-c2cc(O)cc(O)c2)nc1-c1cccnc1

$$$$
