
     RDKit          3D

 39 41  0  0  0  0  0  0  0  0999 V2000
    4.9224    1.8368   16.9504 H   0  0  0  0  0  0  0  0  0  0  0  0
    5.3901    1.3238   17.7868 C   0  0  0  0  0  0  0  0  0  0  0  0
    6.5477    0.6965   17.5229 N   0  0  0  0  0  0  0  0  0  0  0  0
    7.1560    0.0712   18.5405 C   0  0  0  0  0  0  0  0  0  0  0  0
    8.0986   -0.4183   18.2856 H   0  0  0  0  0  0  0  0  0  0  0  0
    6.6568    0.0092   19.8606 C   0  0  0  0  0  0  0  0  0  0  0  0
    7.4054   -0.7104   20.9463 C   0  0  0  0  0  0  0  0  0  0  0  0
    6.7327   -1.5734   21.8792 C   0  0  0  0  0  0  0  0  0  0  0  0
    5.6608   -1.7380   21.7901 H   0  0  0  0  0  0  0  0  0  0  0  0
    7.4185   -2.1953   22.8819 C   0  0  0  0  0  0  0  0  0  0  0  0
    6.9826   -2.8434   23.6295 H   0  0  0  0  0  0  0  0  0  0  0  0
    8.8380   -1.9955   23.0719 C   0  0  0  0  0  0  0  0  0  0  0  0
    9.4609   -2.4537   24.0279 O   0  0  0  0  0  0  0  0  0  0  0  0
    9.4688   -1.2407   22.0661 N   0  0  0  0  0  0  0  0  0  0  0  0
   10.8848   -1.0100   22.2766 C   0  0  0  0  0  0  0  0  0  0  0  0
   11.3368   -0.6570   21.3390 H   0  0  0  0  0  0  0  0  0  0  0  0
   11.3498   -1.9721   22.5041 H   0  0  0  0  0  0  0  0  0  0  0  0
   11.1036   -0.1136   23.3830 N   0  0  0  0  0  0  0  0  0  0  0  0
   10.5591   -0.5017   24.1542 H   0  0  0  0  0  0  0  0  0  0  0  0
   10.7392    1.2888   23.1690 C   0  0  0  0  0  0  0  0  0  0  0  0
    9.6766    1.4252   22.8789 H   0  0  0  0  0  0  0  0  0  0  0  0
   11.0063    2.1103   24.4286 C   0  0  0  0  0  0  0  0  0  0  0  0
   11.9335    1.7482   24.8886 H   0  0  0  0  0  0  0  0  0  0  0  0
   10.2033    1.9923   25.1620 H   0  0  0  0  0  0  0  0  0  0  0  0
   11.1565    3.5601   23.9447 C   0  0  0  0  0  0  0  0  0  0  0  0
   10.1709    4.0397   23.8919 H   0  0  0  0  0  0  0  0  0  0  0  0
   11.7708    4.1693   24.6162 H   0  0  0  0  0  0  0  0  0  0  0  0
   11.7363    3.4551   22.5142 C   0  0  0  0  0  0  0  0  0  0  0  0
   12.7686    3.8063   22.4309 H   0  0  0  0  0  0  0  0  0  0  0  0
   11.1645    4.0949   21.8523 H   0  0  0  0  0  0  0  0  0  0  0  0
   11.6133    1.9701   22.1057 C   0  0  0  0  0  0  0  0  0  0  0  0
   11.1955    1.8409   21.1001 H   0  0  0  0  0  0  0  0  0  0  0  0
   12.5919    1.4835   22.1230 H   0  0  0  0  0  0  0  0  0  0  0  0
    8.7600   -0.5654   21.0910 C   0  0  0  0  0  0  0  0  0  0  0  0
    9.3417    0.1000   20.4466 H   0  0  0  0  0  0  0  0  0  0  0  0
    5.4338    0.6680   20.0965 C   0  0  0  0  0  0  0  0  0  0  0  0
    5.0076    0.6874   21.0989 H   0  0  0  0  0  0  0  0  0  0  0  0
    4.7934    1.3344   19.0493 C   0  0  0  0  0  0  0  0  0  0  0  0
    3.8533    1.8592   19.1921 H   0  0  0  0  0  0  0  0  0  0  0  0
  1  2  1  0
  2  3  2  0
  3  4  1  0
  4  5  1  0
  4  6  2  0
  6  7  1  0
  7  8  1  0
  8  9  1  0
  8 10  2  0
 10 11  1  0
 10 12  1  0
 12 13  2  0
 12 14  1  0
 14 15  1  0
 15 16  1  0
 15 17  1  0
 15 18  1  0
 18 19  1  0
 18 20  1  0
 20 21  1  0
 20 22  1  0
 22 23  1  0
 22 24  1  0
 22 25  1  0
 25 26  1  0
 25 27  1  0
 25 28  1  0
 28 29  1  0
 28 30  1  0
 28 31  1  0
 31 32  1  0
 31 33  1  0
 14 34  1  0
 34 35  1  0
  6 36  1  0
 36 37  1  0
 36 38  2  0
 38 39  1  0
 38  2  1  0
 34  7  2  0
 31 20  1  0
M  END
>  <cnnaffinity>  (1) 
-5.1759

>  <filename>  (1) 
O=c1ccc(-c2cccnc2)cn1CNC1CCCC1

$$$$
