
     RDKit          3D

 31 33  0  0  0  0  0  0  0  0999 V2000
    7.4510   -5.6114   27.7022 H   0  0  0  0  0  0  0  0  0  0  0  0
    7.7831   -5.4865   26.6739 C   0  0  0  0  0  0  0  0  0  0  0  0
    7.2454   -4.4537   26.0181 N   0  0  0  0  0  0  0  0  0  0  0  0
    7.6703   -4.2613   24.7691 C   0  0  0  0  0  0  0  0  0  0  0  0
    7.0240   -3.2046   24.1813 N   0  0  0  0  0  0  0  0  0  0  0  0
    6.3014   -2.9208   24.8312 H   0  0  0  0  0  0  0  0  0  0  0  0
    7.5769   -2.3742   23.2256 C   0  0  0  0  0  0  0  0  0  0  0  0
    6.3920   -1.7526   22.0993 S   0  0  0  0  0  0  0  0  0  0  0  0
    7.3801   -0.7807   21.0109 C   0  0  0  0  0  0  0  0  0  0  0  0
    6.6412   -0.0489   19.9431 C   0  0  0  0  0  0  0  0  0  0  0  0
    7.1738    0.0169   18.6394 C   0  0  0  0  0  0  0  0  0  0  0  0
    8.1197   -0.4717   18.4014 H   0  0  0  0  0  0  0  0  0  0  0  0
    6.5867    0.6465   17.6152 N   0  0  0  0  0  0  0  0  0  0  0  0
    5.4294    1.2784   17.8619 C   0  0  0  0  0  0  0  0  0  0  0  0
    4.9743    1.7856   17.0159 H   0  0  0  0  0  0  0  0  0  0  0  0
    4.8138    1.2989   19.1174 C   0  0  0  0  0  0  0  0  0  0  0  0
    3.8837    1.8434   19.2515 H   0  0  0  0  0  0  0  0  0  0  0  0
    5.4276    0.6288   20.1761 C   0  0  0  0  0  0  0  0  0  0  0  0
    4.9934    0.6497   21.1774 H   0  0  0  0  0  0  0  0  0  0  0  0
    8.7227   -0.6952   21.1214 C   0  0  0  0  0  0  0  0  0  0  0  0
    9.2937   -0.0896   20.4295 H   0  0  0  0  0  0  0  0  0  0  0  0
    9.5526   -1.3278   22.1608 C   0  0  0  0  0  0  0  0  0  0  0  0
   10.7671   -1.1700   22.1556 O   0  0  0  0  0  0  0  0  0  0  0  0
    8.9025   -2.1393   23.1718 C   0  0  0  0  0  0  0  0  0  0  0  0
    9.5841   -2.5676   23.9021 H   0  0  0  0  0  0  0  0  0  0  0  0
    8.5836   -5.0784   24.0891 C   0  0  0  0  0  0  0  0  0  0  0  0
    8.7878   -4.8462   23.0482 H   0  0  0  0  0  0  0  0  0  0  0  0
    9.1154   -6.1608   24.7858 C   0  0  0  0  0  0  0  0  0  0  0  0
    9.8297   -6.8352   24.3155 H   0  0  0  0  0  0  0  0  0  0  0  0
    8.7037   -6.3681   26.1075 C   0  0  0  0  0  0  0  0  0  0  0  0
    9.0730   -7.1956   26.6902 H   0  0  0  0  0  0  0  0  0  0  0  0
  1  2  1  0
  2  3  2  0
  3  4  1  0
  4  5  1  0
  5  6  1  0
  5  7  1  0
  7  8  1  0
  8  9  1  0
  9 10  1  0
 10 11  2  0
 11 12  1  0
 11 13  1  0
 13 14  2  0
 14 15  1  0
 14 16  1  0
 16 17  1  0
 16 18  2  0
 18 19  1  0
  9 20  2  0
 20 21  1  0
 20 22  1  0
 22 23  2  0
 22 24  1  0
 24 25  1  0
  4 26  2  0
 26 27  1  0
 26 28  1  0
 28 29  1  0
 28 30  2  0
 30 31  1  0
 30  2  1  0
 24  7  2  0
 18 10  1  0
M  END
>  <cnnaffinity>  (1) 
-5.08699

>  <filename>  (1) 
O=c1cc(Nc2ccccn2)sc(-c2cccnc2)c1

$$$$
