
     RDKit          3D

 33 36  0  0  0  0  0  0  0  0999 V2000
    4.9901    1.9701   16.8527 H   0  0  0  0  0  0  0  0  0  0  0  0
    5.4120    1.4169   17.6892 C   0  0  0  0  0  0  0  0  0  0  0  0
    6.5770    0.7893   17.4528 N   0  0  0  0  0  0  0  0  0  0  0  0
    7.1407    0.1227   18.4645 C   0  0  0  0  0  0  0  0  0  0  0  0
    8.0856   -0.3758   18.2458 H   0  0  0  0  0  0  0  0  0  0  0  0
    6.5562    0.0103   19.7445 C   0  0  0  0  0  0  0  0  0  0  0  0
    7.1712   -0.7169   20.7883 N   0  0  0  0  0  0  0  0  0  0  0  0
    6.6246   -1.7249   21.6162 C   0  0  0  0  0  0  0  0  0  0  0  0
    5.5088   -2.1992   21.5098 O   0  0  0  0  0  0  0  0  0  0  0  0
    7.7366   -2.0933   22.4765 C   0  0  0  0  0  0  0  0  0  0  0  0
    7.6658   -2.8759   23.2111 H   0  0  0  0  0  0  0  0  0  0  0  0
    8.8293   -1.3867   22.1043 C   0  0  0  0  0  0  0  0  0  0  0  0
   10.2251   -1.6170   22.3968 C   0  0  0  0  0  0  0  0  0  0  0  0
   10.7425   -2.8499   22.6758 C   0  0  0  0  0  0  0  0  0  0  0  0
   10.2018   -3.7700   22.8384 H   0  0  0  0  0  0  0  0  0  0  0  0
   12.1018   -2.8086   22.6331 N   0  0  0  0  0  0  0  0  0  0  0  0
   12.7174   -3.6066   22.6543 H   0  0  0  0  0  0  0  0  0  0  0  0
   12.5138   -1.5270   22.3642 C   0  0  0  0  0  0  0  0  0  0  0  0
   13.8125   -0.9986   22.3019 C   0  0  0  0  0  0  0  0  0  0  0  0
   14.6709   -1.6591   22.3385 H   0  0  0  0  0  0  0  0  0  0  0  0
   13.9462    0.3793   22.1901 C   0  0  0  0  0  0  0  0  0  0  0  0
   14.9361    0.8340   22.1552 H   0  0  0  0  0  0  0  0  0  0  0  0
   12.7992    1.2069   22.0785 C   0  0  0  0  0  0  0  0  0  0  0  0
   12.9226    2.2834   21.9780 H   0  0  0  0  0  0  0  0  0  0  0  0
   11.5215    0.6662   22.0694 C   0  0  0  0  0  0  0  0  0  0  0  0
   10.6442    1.2887   21.9224 H   0  0  0  0  0  0  0  0  0  0  0  0
   11.3631   -0.7259   22.2482 C   0  0  0  0  0  0  0  0  0  0  0  0
    8.4827   -0.4170   21.1691 N   0  0  0  0  0  0  0  0  0  0  0  0
    9.1335   -0.3285   20.3942 H   0  0  0  0  0  0  0  0  0  0  0  0
    5.3264    0.6367   19.9697 C   0  0  0  0  0  0  0  0  0  0  0  0
    4.8526    0.5445   20.9451 H   0  0  0  0  0  0  0  0  0  0  0  0
    4.7572    1.3686   18.9232 C   0  0  0  0  0  0  0  0  0  0  0  0
    3.8268    1.9064   19.0556 H   0  0  0  0  0  0  0  0  0  0  0  0
  1  2  1  0
  2  3  2  0
  3  4  1  0
  4  5  1  0
  4  6  2  0
  6  7  1  0
  7  8  1  0
  8  9  2  0
  8 10  1  0
 10 11  1  0
 10 12  2  0
 12 13  1  0
 13 14  2  0
 14 15  1  0
 14 16  1  0
 16 17  1  0
 16 18  1  0
 18 19  2  0
 19 20  1  0
 19 21  1  0
 21 22  1  0
 21 23  2  0
 23 24  1  0
 23 25  1  0
 25 26  1  0
 25 27  2  0
 12 28  1  0
 28 29  1  0
  6 30  1  0
 30 31  1  0
 30 32  2  0
 32 33  1  0
 32  2  1  0
 28  7  1  0
 27 13  1  0
 27 18  1  0
M  END
>  <cnnaffinity>  (1) 
-5.89653

>  <filename>  (1) 
O=c1cc(-c2c[nH]c3ccccc23)[nH]n1-c1cccnc1

$$$$
