
     RDKit          3D

 35 38  0  0  0  0  0  0  0  0999 V2000
    4.9123    1.8081   16.9790 H   0  0  0  0  0  0  0  0  0  0  0  0
    5.3804    1.3035   17.8200 C   0  0  0  0  0  0  0  0  0  0  0  0
    6.5362    0.6764   17.5501 N   0  0  0  0  0  0  0  0  0  0  0  0
    7.1627    0.0639   18.5605 C   0  0  0  0  0  0  0  0  0  0  0  0
    8.1181   -0.4131   18.3408 H   0  0  0  0  0  0  0  0  0  0  0  0
    6.6553    0.0242   19.8715 C   0  0  0  0  0  0  0  0  0  0  0  0
    7.3598   -0.6643   20.9304 N   0  0  0  0  0  0  0  0  0  0  0  0
    6.7375   -1.7156   21.5762 C   0  0  0  0  0  0  0  0  0  0  0  0
    5.7194   -1.9056   21.2428 H   0  0  0  0  0  0  0  0  0  0  0  0
    7.3352   -2.4360   22.5674 C   0  0  0  0  0  0  0  0  0  0  0  0
    6.6655   -3.5083   23.2835 C   0  0  0  0  0  0  0  0  0  0  0  0
    6.7911   -3.8850   24.5946 C   0  0  0  0  0  0  0  0  0  0  0  0
    7.4638   -3.4023   25.2912 H   0  0  0  0  0  0  0  0  0  0  0  0
    5.9035   -4.9789   24.8162 C   0  0  0  0  0  0  0  0  0  0  0  0
    5.5967   -5.7706   25.9407 C   0  0  0  0  0  0  0  0  0  0  0  0
    6.0973   -5.5581   26.8820 H   0  0  0  0  0  0  0  0  0  0  0  0
    4.6628   -6.7897   25.8034 C   0  0  0  0  0  0  0  0  0  0  0  0
    4.4192   -7.3971   26.6655 H   0  0  0  0  0  0  0  0  0  0  0  0
    4.0297   -7.0363   24.5583 C   0  0  0  0  0  0  0  0  0  0  0  0
    3.2999   -7.8365   24.4895 H   0  0  0  0  0  0  0  0  0  0  0  0
    4.3151   -6.2705   23.4333 C   0  0  0  0  0  0  0  0  0  0  0  0
    3.8308   -6.4611   22.4803 H   0  0  0  0  0  0  0  0  0  0  0  0
    5.2507   -5.2352   23.5784 C   0  0  0  0  0  0  0  0  0  0  0  0
    5.7161   -4.3067   22.6772 N   0  0  0  0  0  0  0  0  0  0  0  0
    5.5158   -4.2894   21.6916 H   0  0  0  0  0  0  0  0  0  0  0  0
    8.7035   -2.0597   22.9719 C   0  0  0  0  0  0  0  0  0  0  0  0
    9.4324   -2.5460   23.8106 O   0  0  0  0  0  0  0  0  0  0  0  0
    9.2235   -1.0009   22.2790 N   0  0  0  0  0  0  0  0  0  0  0  0
   10.1539   -0.7508   22.5322 H   0  0  0  0  0  0  0  0  0  0  0  0
    8.6724   -0.2711   21.2878 C   0  0  0  0  0  0  0  0  0  0  0  0
    9.3021    0.6244   20.7774 O   0  0  0  0  0  0  0  0  0  0  0  0
    5.4374    0.6549   20.1367 C   0  0  0  0  0  0  0  0  0  0  0  0
    5.0340    0.6280   21.1498 H   0  0  0  0  0  0  0  0  0  0  0  0
    4.7949    1.3224   19.0895 C   0  0  0  0  0  0  0  0  0  0  0  0
    3.8656    1.8540   19.2464 H   0  0  0  0  0  0  0  0  0  0  0  0
  1  2  1  0
  2  3  2  0
  3  4  1  0
  4  5  1  0
  4  6  2  0
  6  7  1  0
  7  8  1  0
  8  9  1  0
  8 10  2  0
 10 11  1  0
 11 12  2  0
 12 13  1  0
 12 14  1  0
 14 15  2  0
 15 16  1  0
 15 17  1  0
 17 18  1  0
 17 19  2  0
 19 20  1  0
 19 21  1  0
 21 22  1  0
 21 23  2  0
 23 24  1  0
 24 25  1  0
 10 26  1  0
 26 27  2  0
 26 28  1  0
 28 29  1  0
 28 30  1  0
 30 31  2  0
  6 32  1  0
 32 33  1  0
 32 34  2  0
 34 35  1  0
 34  2  1  0
 30  7  1  0
 24 11  1  0
 23 14  1  0
M  END
>  <cnnaffinity>  (1) 
-5.55567

>  <filename>  (1) 
O=c1[nH]c(=O)n(-c2cccnc2)cc1-c1cc2ccccc2[nH]1

$$$$
