
     RDKit          3D

 33 36  0  0  0  0  0  0  0  0999 V2000
    4.8823    1.8019   16.8841 H   0  0  0  0  0  0  0  0  0  0  0  0
    5.3474    1.3928   17.7793 C   0  0  0  0  0  0  0  0  0  0  0  0
    6.5568    0.8394   17.6065 N   0  0  0  0  0  0  0  0  0  0  0  0
    7.1567    0.3356   18.6908 C   0  0  0  0  0  0  0  0  0  0  0  0
    8.1405   -0.0935   18.5047 H   0  0  0  0  0  0  0  0  0  0  0  0
    6.6081    0.3484   19.9922 C   0  0  0  0  0  0  0  0  0  0  0  0
    7.2912   -0.4193   21.0798 C   0  0  0  0  0  0  0  0  0  0  0  0
    7.6089    0.3837   22.6030 S   0  0  0  0  0  0  0  0  0  0  0  0
    8.3083   -0.8971   23.5888 C   0  0  0  0  0  0  0  0  0  0  0  0
    8.5051   -0.5794   25.0216 C   0  0  0  0  0  0  0  0  0  0  0  0
    9.6832   -0.7475   25.6784 C   0  0  0  0  0  0  0  0  0  0  0  0
   10.6359   -1.0276   25.2431 H   0  0  0  0  0  0  0  0  0  0  0  0
    9.6065   -0.3841   27.3642 S   0  0  0  0  0  0  0  0  0  0  0  0
    7.9318    0.0677   27.2374 C   0  0  0  0  0  0  0  0  0  0  0  0
    7.1112    0.5889   28.2562 C   0  0  0  0  0  0  0  0  0  0  0  0
    7.5137    0.8014   29.2450 H   0  0  0  0  0  0  0  0  0  0  0  0
    5.7720    0.8148   27.9631 C   0  0  0  0  0  0  0  0  0  0  0  0
    5.1220    1.2207   28.7316 H   0  0  0  0  0  0  0  0  0  0  0  0
    5.2448    0.5176   26.6886 C   0  0  0  0  0  0  0  0  0  0  0  0
    4.1841    0.6577   26.5016 H   0  0  0  0  0  0  0  0  0  0  0  0
    6.0702    0.0428   25.6774 C   0  0  0  0  0  0  0  0  0  0  0  0
    5.6760   -0.1856   24.6906 H   0  0  0  0  0  0  0  0  0  0  0  0
    7.4454   -0.1432   25.9278 C   0  0  0  0  0  0  0  0  0  0  0  0
    8.6375   -2.1174   23.1079 C   0  0  0  0  0  0  0  0  0  0  0  0
    9.1333   -2.8467   23.7437 H   0  0  0  0  0  0  0  0  0  0  0  0
    8.2808   -2.6183   21.7830 C   0  0  0  0  0  0  0  0  0  0  0  0
    8.5241   -3.7716   21.4571 O   0  0  0  0  0  0  0  0  0  0  0  0
    7.5941   -1.7128   20.8598 C   0  0  0  0  0  0  0  0  0  0  0  0
    7.3018   -2.1790   19.9294 H   0  0  0  0  0  0  0  0  0  0  0  0
    5.3512    0.9562   20.1521 C   0  0  0  0  0  0  0  0  0  0  0  0
    4.8957    1.0094   21.1428 H   0  0  0  0  0  0  0  0  0  0  0  0
    4.7042    1.4692   19.0208 C   0  0  0  0  0  0  0  0  0  0  0  0
    3.7294    1.9429   19.0904 H   0  0  0  0  0  0  0  0  0  0  0  0
  1  2  1  0
  2  3  2  0
  3  4  1  0
  4  5  1  0
  4  6  2  0
  6  7  1  0
  7  8  1  0
  8  9  1  0
  9 10  1  0
 10 11  2  0
 11 12  1  0
 11 13  1  0
 13 14  1  0
 14 15  2  0
 15 16  1  0
 15 17  1  0
 17 18  1  0
 17 19  2  0
 19 20  1  0
 19 21  1  0
 21 22  1  0
 21 23  2  0
  9 24  2  0
 24 25  1  0
 24 26  1  0
 26 27  2  0
 26 28  1  0
 28 29  1  0
  6 30  1  0
 30 31  1  0
 30 32  2  0
 32 33  1  0
 32  2  1  0
 28  7  2  0
 23 10  1  0
 23 14  1  0
M  END
>  <cnnaffinity>  (1) 
-5.67066

>  <filename>  (1) 
O=c1cc(-c2cccnc2)sc(-c2csc3ccccc23)c1

$$$$
