
     RDKit          3D

 33 36  0  0  0  0  0  0  0  0999 V2000
    4.9206    1.8041   16.9666 H   0  0  0  0  0  0  0  0  0  0  0  0
    5.3916    1.3045   17.8140 C   0  0  0  0  0  0  0  0  0  0  0  0
    6.5566    0.6854   17.5610 N   0  0  0  0  0  0  0  0  0  0  0  0
    7.1691    0.0709   18.5805 C   0  0  0  0  0  0  0  0  0  0  0  0
    8.1060   -0.4211   18.3249 H   0  0  0  0  0  0  0  0  0  0  0  0
    6.6658    0.0176   19.8945 C   0  0  0  0  0  0  0  0  0  0  0  0
    7.3512   -0.6958   20.9717 C   0  0  0  0  0  0  0  0  0  0  0  0
    6.8512   -1.2061   22.1125 C   0  0  0  0  0  0  0  0  0  0  0  0
    5.8399   -1.2346   22.4509 H   0  0  0  0  0  0  0  0  0  0  0  0
    7.8746   -1.7746   22.8524 N   0  0  0  0  0  0  0  0  0  0  0  0
    7.7415   -2.3758   24.1180 C   0  0  0  0  0  0  0  0  0  0  0  0
    8.6539   -2.3083   25.1276 C   0  0  0  0  0  0  0  0  0  0  0  0
    9.6212   -1.8187   25.1171 H   0  0  0  0  0  0  0  0  0  0  0  0
    8.1643   -2.9946   26.2136 N   0  0  0  0  0  0  0  0  0  0  0  0
    8.6375   -3.1242   27.0883 H   0  0  0  0  0  0  0  0  0  0  0  0
    6.9334   -3.5329   25.9126 C   0  0  0  0  0  0  0  0  0  0  0  0
    6.0678   -4.3200   26.6975 C   0  0  0  0  0  0  0  0  0  0  0  0
    6.3237   -4.5923   27.7163 H   0  0  0  0  0  0  0  0  0  0  0  0
    4.8749   -4.7418   26.1220 C   0  0  0  0  0  0  0  0  0  0  0  0
    4.1815   -5.3522   26.6978 H   0  0  0  0  0  0  0  0  0  0  0  0
    4.5449   -4.3966   24.7893 C   0  0  0  0  0  0  0  0  0  0  0  0
    3.6105   -4.7401   24.3565 H   0  0  0  0  0  0  0  0  0  0  0  0
    5.4053   -3.6214   24.0189 C   0  0  0  0  0  0  0  0  0  0  0  0
    5.1554   -3.3739   22.9884 H   0  0  0  0  0  0  0  0  0  0  0  0
    6.6180   -3.1682   24.5830 C   0  0  0  0  0  0  0  0  0  0  0  0
    9.0775   -1.6076   22.1587 C   0  0  0  0  0  0  0  0  0  0  0  0
   10.2100   -1.9191   22.4656 O   0  0  0  0  0  0  0  0  0  0  0  0
    8.7098   -0.9853   20.9919 N   0  0  0  0  0  0  0  0  0  0  0  0
    9.4519   -0.6731   20.3967 H   0  0  0  0  0  0  0  0  0  0  0  0
    5.4384    0.6642   20.1322 C   0  0  0  0  0  0  0  0  0  0  0  0
    5.0036    0.6640   21.1313 H   0  0  0  0  0  0  0  0  0  0  0  0
    4.7978    1.3200   19.0813 C   0  0  0  0  0  0  0  0  0  0  0  0
    3.8636    1.8517   19.2279 H   0  0  0  0  0  0  0  0  0  0  0  0
  1  2  1  0
  2  3  2  0
  3  4  1  0
  4  5  1  0
  4  6  2  0
  6  7  1  0
  7  8  2  0
  8  9  1  0
  8 10  1  0
 10 11  1  0
 11 12  2  0
 12 13  1  0
 12 14  1  0
 14 15  1  0
 14 16  1  0
 16 17  2  0
 17 18  1  0
 17 19  1  0
 19 20  1  0
 19 21  2  0
 21 22  1  0
 21 23  1  0
 23 24  1  0
 23 25  2  0
 10 26  1  0
 26 27  2  0
 26 28  1  0
 28 29  1  0
  6 30  1  0
 30 31  1  0
 30 32  2  0
 32 33  1  0
 32  2  1  0
 28  7  1  0
 25 11  1  0
 25 16  1  0
M  END
>  <cnnaffinity>  (1) 
-5.39636

>  <filename>  (1) 
O=c1[nH]c(-c2cccnc2)cn1-c1c[nH]c2ccccc12

$$$$
