
     RDKit          3D

 34 37  0  0  0  0  0  0  0  0999 V2000
    4.9308    1.7938   16.9939 H   0  0  0  0  0  0  0  0  0  0  0  0
    5.3973    1.2952   17.8403 C   0  0  0  0  0  0  0  0  0  0  0  0
    6.5504    0.6639   17.5744 N   0  0  0  0  0  0  0  0  0  0  0  0
    7.1613    0.0413   18.5867 C   0  0  0  0  0  0  0  0  0  0  0  0
    8.1210   -0.4213   18.3730 H   0  0  0  0  0  0  0  0  0  0  0  0
    6.6428   -0.0099   19.8906 C   0  0  0  0  0  0  0  0  0  0  0  0
    7.3506   -0.7001   20.9288 N   0  0  0  0  0  0  0  0  0  0  0  0
    6.5901   -1.5806   21.6480 N   0  0  0  0  0  0  0  0  0  0  0  0
    7.1708   -2.2676   22.6112 C   0  0  0  0  0  0  0  0  0  0  0  0
    6.3667   -3.2556   23.3732 C   0  0  0  0  0  0  0  0  0  0  0  0
    6.7257   -4.0774   24.4160 C   0  0  0  0  0  0  0  0  0  0  0  0
    7.7010   -4.1546   24.8835 H   0  0  0  0  0  0  0  0  0  0  0  0
    5.5778   -4.8266   24.7963 C   0  0  0  0  0  0  0  0  0  0  0  0
    5.3477   -5.8073   25.7851 C   0  0  0  0  0  0  0  0  0  0  0  0
    6.1680   -6.1105   26.4342 H   0  0  0  0  0  0  0  0  0  0  0  0
    4.0776   -6.3530   25.8973 C   0  0  0  0  0  0  0  0  0  0  0  0
    3.8899   -7.1067   26.6552 H   0  0  0  0  0  0  0  0  0  0  0  0
    3.0258   -5.9363   25.0396 C   0  0  0  0  0  0  0  0  0  0  0  0
    2.0418   -6.3826   25.1564 H   0  0  0  0  0  0  0  0  0  0  0  0
    3.2269   -4.9713   24.0568 C   0  0  0  0  0  0  0  0  0  0  0  0
    2.4224   -4.6523   23.3998 H   0  0  0  0  0  0  0  0  0  0  0  0
    4.5161   -4.4207   23.9414 C   0  0  0  0  0  0  0  0  0  0  0  0
    5.0305   -3.4756   23.0856 N   0  0  0  0  0  0  0  0  0  0  0  0
    4.5386   -2.9319   22.3945 H   0  0  0  0  0  0  0  0  0  0  0  0
    8.5568   -2.0782   22.9464 C   0  0  0  0  0  0  0  0  0  0  0  0
    8.9570   -2.6776   23.7562 H   0  0  0  0  0  0  0  0  0  0  0  0
    9.3089   -1.1737   22.2699 C   0  0  0  0  0  0  0  0  0  0  0  0
   10.3551   -0.9780   22.4731 H   0  0  0  0  0  0  0  0  0  0  0  0
    8.7371   -0.3831   21.1859 C   0  0  0  0  0  0  0  0  0  0  0  0
    9.3449    0.4540   20.5421 O   0  0  0  0  0  0  0  0  0  0  0  0
    5.4308    0.6328   20.1611 C   0  0  0  0  0  0  0  0  0  0  0  0
    5.0194    0.5941   21.1702 H   0  0  0  0  0  0  0  0  0  0  0  0
    4.8074    1.3137   19.1103 C   0  0  0  0  0  0  0  0  0  0  0  0
    3.8777    1.8500   19.2557 H   0  0  0  0  0  0  0  0  0  0  0  0
  1  2  1  0
  2  3  2  0
  3  4  1  0
  4  5  1  0
  4  6  2  0
  6  7  1  0
  7  8  1  0
  8  9  2  0
  9 10  1  0
 10 11  2  0
 11 12  1  0
 11 13  1  0
 13 14  2  0
 14 15  1  0
 14 16  1  0
 16 17  1  0
 16 18  2  0
 18 19  1  0
 18 20  1  0
 20 21  1  0
 20 22  2  0
 22 23  1  0
 23 24  1  0
  9 25  1  0
 25 26  1  0
 25 27  2  0
 27 28  1  0
 27 29  1  0
 29 30  2  0
  6 31  1  0
 31 32  1  0
 31 33  2  0
 33 34  1  0
 33  2  1  0
 29  7  1  0
 23 10  1  0
 22 13  1  0
M  END
>  <cnnaffinity>  (1) 
-5.51708

>  <filename>  (1) 
O=c1ccc(-c2cc3ccccc3[nH]2)nn1-c1cccnc1

$$$$
