
     RDKit          3D

 33 36  0  0  0  0  0  0  0  0999 V2000
    4.9410    1.8020   17.0032 H   0  0  0  0  0  0  0  0  0  0  0  0
    5.4094    1.2955   17.8464 C   0  0  0  0  0  0  0  0  0  0  0  0
    6.5662    0.6649   17.5904 N   0  0  0  0  0  0  0  0  0  0  0  0
    7.1736    0.0351   18.6033 C   0  0  0  0  0  0  0  0  0  0  0  0
    8.1096   -0.4624   18.3568 H   0  0  0  0  0  0  0  0  0  0  0  0
    6.6586   -0.0236   19.9125 C   0  0  0  0  0  0  0  0  0  0  0  0
    7.3428   -0.7153   20.9671 N   0  0  0  0  0  0  0  0  0  0  0  0
    6.5863   -1.4603   21.8199 N   0  0  0  0  0  0  0  0  0  0  0  0
    7.1746   -2.1407   22.7917 C   0  0  0  0  0  0  0  0  0  0  0  0
    6.2664   -2.9624   23.6072 C   0  0  0  0  0  0  0  0  0  0  0  0
    6.7144   -3.5392   24.7720 O   0  0  0  0  0  0  0  0  0  0  0  0
    5.6506   -4.1631   25.3326 C   0  0  0  0  0  0  0  0  0  0  0  0
    5.6487   -4.9763   26.4719 C   0  0  0  0  0  0  0  0  0  0  0  0
    6.5680   -5.2477   26.9731 H   0  0  0  0  0  0  0  0  0  0  0  0
    4.4160   -5.4734   26.8961 C   0  0  0  0  0  0  0  0  0  0  0  0
    4.3672   -6.1405   27.7551 H   0  0  0  0  0  0  0  0  0  0  0  0
    3.2250   -5.1389   26.2182 C   0  0  0  0  0  0  0  0  0  0  0  0
    2.2812   -5.5195   26.5882 H   0  0  0  0  0  0  0  0  0  0  0  0
    3.2467   -4.3617   25.0647 C   0  0  0  0  0  0  0  0  0  0  0  0
    2.3343   -4.0588   24.5626 H   0  0  0  0  0  0  0  0  0  0  0  0
    4.4928   -3.9303   24.5701 C   0  0  0  0  0  0  0  0  0  0  0  0
    4.9438   -3.2261   23.4082 C   0  0  0  0  0  0  0  0  0  0  0  0
    4.3749   -2.9469   22.5306 H   0  0  0  0  0  0  0  0  0  0  0  0
    8.6654   -2.0900   23.0676 C   0  0  0  0  0  0  0  0  0  0  0  0
    9.2556   -2.6761   23.9601 O   0  0  0  0  0  0  0  0  0  0  0  0
    9.3729   -1.2485   22.0988 C   0  0  0  0  0  0  0  0  0  0  0  0
   10.4465   -1.1800   22.2100 H   0  0  0  0  0  0  0  0  0  0  0  0
    8.7130   -0.6150   21.1147 C   0  0  0  0  0  0  0  0  0  0  0  0
    9.2099    0.0295   20.3874 H   0  0  0  0  0  0  0  0  0  0  0  0
    5.4439    0.6267   20.1644 C   0  0  0  0  0  0  0  0  0  0  0  0
    5.0324    0.5750   21.1708 H   0  0  0  0  0  0  0  0  0  0  0  0
    4.8136    1.3063   19.1142 C   0  0  0  0  0  0  0  0  0  0  0  0
    3.8788    1.8434   19.2579 H   0  0  0  0  0  0  0  0  0  0  0  0
  1  2  1  0
  2  3  2  0
  3  4  1  0
  4  5  1  0
  4  6  2  0
  6  7  1  0
  7  8  1  0
  8  9  2  0
  9 10  1  0
 10 11  1  0
 11 12  1  0
 12 13  2  0
 13 14  1  0
 13 15  1  0
 15 16  1  0
 15 17  2  0
 17 18  1  0
 17 19  1  0
 19 20  1  0
 19 21  2  0
 21 22  1  0
 22 23  1  0
  9 24  1  0
 24 25  2  0
 24 26  1  0
 26 27  1  0
 26 28  2  0
 28 29  1  0
  6 30  1  0
 30 31  1  0
 30 32  2  0
 32 33  1  0
 32  2  1  0
 28  7  1  0
 22 10  2  0
 21 12  1  0
M  END
>  <cnnaffinity>  (1) 
-5.27274

>  <filename>  (1) 
O=c1ccn(-c2cccnc2)nc1-c1cc2ccccc2o1

$$$$
