
     RDKit          3D

 30 32  0  0  0  0  0  0  0  0999 V2000
    4.9842    1.8965   16.9914 H   0  0  0  0  0  0  0  0  0  0  0  0
    5.4407    1.3248   17.7939 C   0  0  0  0  0  0  0  0  0  0  0  0
    6.5984    0.7129   17.4912 N   0  0  0  0  0  0  0  0  0  0  0  0
    7.2056    0.0170   18.4581 C   0  0  0  0  0  0  0  0  0  0  0  0
    8.1569   -0.4572   18.1981 H   0  0  0  0  0  0  0  0  0  0  0  0
    6.6736   -0.1284   19.7587 C   0  0  0  0  0  0  0  0  0  0  0  0
    7.3852   -0.8604   20.7464 N   0  0  0  0  0  0  0  0  0  0  0  0
    8.7317   -0.6159   21.0366 C   0  0  0  0  0  0  0  0  0  0  0  0
    9.3292    0.0937   20.4974 H   0  0  0  0  0  0  0  0  0  0  0  0
    9.0733   -1.4198   22.0532 C   0  0  0  0  0  0  0  0  0  0  0  0
   10.2223   -1.6557   22.7643 N   0  0  0  0  0  0  0  0  0  0  0  0
   10.3532   -2.6466   22.8764 H   0  0  0  0  0  0  0  0  0  0  0  0
   11.4176   -1.0042   22.4775 C   0  0  0  0  0  0  0  0  0  0  0  0
   12.5538   -1.7858   22.3001 C   0  0  0  0  0  0  0  0  0  0  0  0
   12.5007   -2.8643   22.3800 H   0  0  0  0  0  0  0  0  0  0  0  0
   13.7701   -1.1390   22.1419 C   0  0  0  0  0  0  0  0  0  0  0  0
   14.6844   -1.7186   22.0318 H   0  0  0  0  0  0  0  0  0  0  0  0
   13.9100    0.1909   22.1472 N   0  0  0  0  0  0  0  0  0  0  0  0
   12.7950    0.9223   22.2732 C   0  0  0  0  0  0  0  0  0  0  0  0
   12.9388    2.0020   22.2562 H   0  0  0  0  0  0  0  0  0  0  0  0
   11.5198    0.3834   22.4207 C   0  0  0  0  0  0  0  0  0  0  0  0
   10.6434    1.0160   22.5127 H   0  0  0  0  0  0  0  0  0  0  0  0
    7.9945   -2.2066   22.3718 N   0  0  0  0  0  0  0  0  0  0  0  0
    7.8405   -2.6318   23.2668 H   0  0  0  0  0  0  0  0  0  0  0  0
    6.8972   -1.8516   21.6199 C   0  0  0  0  0  0  0  0  0  0  0  0
    5.7877   -2.3333   21.7129 O   0  0  0  0  0  0  0  0  0  0  0  0
    5.4680    0.5188   20.0658 C   0  0  0  0  0  0  0  0  0  0  0  0
    5.0651    0.4597   21.0765 H   0  0  0  0  0  0  0  0  0  0  0  0
    4.8476    1.2635   19.0585 C   0  0  0  0  0  0  0  0  0  0  0  0
    3.9344    1.8151   19.2496 H   0  0  0  0  0  0  0  0  0  0  0  0
  1  2  1  0
  2  3  2  0
  3  4  1  0
  4  5  1  0
  4  6  2  0
  6  7  1  0
  7  8  1  0
  8  9  1  0
  8 10  2  0
 10 11  1  0
 11 12  1  0
 11 13  1  0
 13 14  2  0
 14 15  1  0
 14 16  1  0
 16 17  1  0
 16 18  2  0
 18 19  1  0
 19 20  1  0
 19 21  2  0
 21 22  1  0
 10 23  1  0
 23 24  1  0
 23 25  1  0
 25 26  2  0
  6 27  1  0
 27 28  1  0
 27 29  2  0
 29 30  1  0
 29  2  1  0
 25  7  1  0
 21 13  1  0
M  END
>  <cnnaffinity>  (1) 
-5.61108

>  <filename>  (1) 
O=c1[nH]c(Nc2ccncc2)cn1-c1cccnc1

$$$$
