
     RDKit          3D

 32 34  0  0  0  0  0  0  0  0999 V2000
    4.9135    1.7910   16.9909 H   0  0  0  0  0  0  0  0  0  0  0  0
    5.3957    1.2964   17.8300 C   0  0  0  0  0  0  0  0  0  0  0  0
    6.5591    0.6853   17.5643 N   0  0  0  0  0  0  0  0  0  0  0  0
    7.1681    0.0660   18.5800 C   0  0  0  0  0  0  0  0  0  0  0  0
    8.1203   -0.4162   18.3521 H   0  0  0  0  0  0  0  0  0  0  0  0
    6.6615    0.0035   19.8870 C   0  0  0  0  0  0  0  0  0  0  0  0
    7.4041   -0.7253   20.9774 C   0  0  2  0  0  0  0  0  0  0  0  0
    8.3005   -1.1900   20.5445 H   0  0  0  0  0  0  0  0  0  0  0  0
    6.5686   -1.8542   21.6376 C   0  0  0  0  0  0  0  0  0  0  0  0
    5.5029   -1.8082   21.3564 H   0  0  0  0  0  0  0  0  0  0  0  0
    6.9257   -2.8497   21.3391 H   0  0  0  0  0  0  0  0  0  0  0  0
    6.7641   -1.6268   23.0501 N   0  0  0  0  0  0  0  0  0  0  0  0
    6.3409   -2.1486   23.7998 H   0  0  0  0  0  0  0  0  0  0  0  0
    7.3997   -0.4854   23.4118 C   0  0  0  0  0  0  0  0  0  0  0  0
    7.5421   -0.1298   24.5624 O   0  0  0  0  0  0  0  0  0  0  0  0
    7.8472    0.2174   22.1319 C   0  0  1  0  0  0  0  0  0  0  0  0
    7.2958    1.1638   22.1082 H   0  0  0  0  0  0  0  0  0  0  0  0
    9.3245    0.5417   22.1111 C   0  0  0  0  0  0  0  0  0  0  0  0
    9.7850    1.8109   21.7293 C   0  0  0  0  0  0  0  0  0  0  0  0
    9.0727    2.5958   21.4723 H   0  0  0  0  0  0  0  0  0  0  0  0
   11.1576    2.0864   21.6792 C   0  0  0  0  0  0  0  0  0  0  0  0
   11.5397    3.0633   21.3951 H   0  0  0  0  0  0  0  0  0  0  0  0
   12.0437    1.0695   22.0296 C   0  0  0  0  0  0  0  0  0  0  0  0
   13.3616    1.3068   22.0841 F   0  0  0  0  0  0  0  0  0  0  0  0
   11.6183   -0.2083   22.3723 C   0  0  0  0  0  0  0  0  0  0  0  0
   12.3653   -0.9592   22.6038 H   0  0  0  0  0  0  0  0  0  0  0  0
   10.2519   -0.4666   22.4143 C   0  0  0  0  0  0  0  0  0  0  0  0
    9.9037   -1.4584   22.6959 H   0  0  0  0  0  0  0  0  0  0  0  0
    5.4458    0.6501   20.1454 C   0  0  0  0  0  0  0  0  0  0  0  0
    5.0138    0.6350   21.1507 H   0  0  0  0  0  0  0  0  0  0  0  0
    4.8079    1.3112   19.0988 C   0  0  0  0  0  0  0  0  0  0  0  0
    3.8779    1.8410   19.2544 H   0  0  0  0  0  0  0  0  0  0  0  0
  1  2  1  0
  2  3  2  0
  3  4  1  0
  4  5  1  0
  4  6  2  0
  6  7  1  0
  7  8  1  6
  7  9  1  0
  9 10  1  0
  9 11  1  0
  9 12  1  0
 12 13  1  0
 12 14  1  0
 14 15  2  0
 14 16  1  0
 16 17  1  6
 16 18  1  0
 18 19  2  0
 19 20  1  0
 19 21  1  0
 21 22  1  0
 21 23  2  0
 23 24  1  0
 23 25  1  0
 25 26  1  0
 25 27  2  0
 27 28  1  0
  6 29  1  0
 29 30  1  0
 29 31  2  0
 31 32  1  0
 31  2  1  0
 16  7  1  0
 27 18  1  0
M  END
>  <cnnaffinity>  (1) 
-4.97297

>  <filename>  (1) 
O=C1NC[C@@H](c2cccnc2)[C@@H]1c1ccc(F)cc1

$$$$
