
     RDKit          3D

 30 32  0  0  0  0  0  0  0  0999 V2000
   10.4790   -1.5653   23.4076 H   0  0  0  0  0  0  0  0  0  0  0  0
   10.5475   -1.0390   24.2415 O   0  0  0  0  0  0  0  0  0  0  0  0
    9.3752   -1.1770   24.8978 C   0  0  0  0  0  0  0  0  0  0  0  0
    9.3878   -1.0927   26.2995 C   0  0  0  0  0  0  0  0  0  0  0  0
   10.2975   -0.7554   26.7953 H   0  0  0  0  0  0  0  0  0  0  0  0
    8.2559   -1.4556   27.0281 C   0  0  0  0  0  0  0  0  0  0  0  0
    8.3355   -1.4883   28.1014 H   0  0  0  0  0  0  0  0  0  0  0  0
    7.0722   -1.8291   26.3829 C   0  0  0  0  0  0  0  0  0  0  0  0
    6.2098   -2.1540   26.9582 H   0  0  0  0  0  0  0  0  0  0  0  0
    7.0156   -1.7912   24.9891 C   0  0  0  0  0  0  0  0  0  0  0  0
    6.0995   -2.0619   24.4697 H   0  0  0  0  0  0  0  0  0  0  0  0
    8.1297   -1.3915   24.2377 C   0  0  0  0  0  0  0  0  0  0  0  0
    7.9875   -1.2068   22.8189 N   0  0  0  0  0  0  0  0  0  0  0  0
    7.0438   -0.4157   22.1634 C   0  0  0  0  0  0  0  0  0  0  0  0
    6.4290    0.2564   22.7390 H   0  0  0  0  0  0  0  0  0  0  0  0
    7.1740   -0.6212   20.8258 C   0  0  0  0  0  0  0  0  0  0  0  0
    6.5275    0.0327   19.6850 C   0  0  0  0  0  0  0  0  0  0  0  0
    7.1175    0.0802   18.4018 C   0  0  0  0  0  0  0  0  0  0  0  0
    8.0786   -0.3923   18.1999 H   0  0  0  0  0  0  0  0  0  0  0  0
    6.5840    0.7160   17.3520 N   0  0  0  0  0  0  0  0  0  0  0  0
    5.4254    1.3674   17.5408 C   0  0  0  0  0  0  0  0  0  0  0  0
    5.0225    1.8950   16.6780 H   0  0  0  0  0  0  0  0  0  0  0  0
    4.7539    1.3915   18.7669 C   0  0  0  0  0  0  0  0  0  0  0  0
    3.8412    1.9671   18.8593 H   0  0  0  0  0  0  0  0  0  0  0  0
    5.3057    0.7110   19.8505 C   0  0  0  0  0  0  0  0  0  0  0  0
    4.8008    0.7068   20.8179 H   0  0  0  0  0  0  0  0  0  0  0  0
    8.2044   -1.5490   20.6820 N   0  0  0  0  0  0  0  0  0  0  0  0
    8.5199   -2.0606   19.8833 H   0  0  0  0  0  0  0  0  0  0  0  0
    8.7612   -1.8617   21.8846 C   0  0  0  0  0  0  0  0  0  0  0  0
    9.7789   -2.5241   22.0741 O   0  0  0  0  0  0  0  0  0  0  0  0
  1  2  1  0
  2  3  1  0
  3  4  2  0
  4  5  1  0
  4  6  1  0
  6  7  1  0
  6  8  2  0
  8  9  1  0
  8 10  1  0
 10 11  1  0
 10 12  2  0
 12 13  1  0
 13 14  1  0
 14 15  1  0
 14 16  2  0
 16 17  1  0
 17 18  2  0
 18 19  1  0
 18 20  1  0
 20 21  2  0
 21 22  1  0
 21 23  1  0
 23 24  1  0
 23 25  2  0
 25 26  1  0
 16 27  1  0
 27 28  1  0
 27 29  1  0
 29 30  2  0
 12  3  1  0
 29 13  1  0
 25 17  1  0
M  END
>  <cnnaffinity>  (1) 
-5.13486

>  <filename>  (1) 
O=c1[nH]c(-c2cccnc2)cn1-c1ccccc1O

$$$$
