
     RDKit          3D

 32 35  0  0  0  0  0  0  0  0999 V2000
    5.0658    2.1125   16.6167 H   0  0  0  0  0  0  0  0  0  0  0  0
    5.5056    1.5519   17.4366 C   0  0  0  0  0  0  0  0  0  0  0  0
    6.6207    0.8623   17.1475 N   0  0  0  0  0  0  0  0  0  0  0  0
    7.1742    0.1563   18.1379 C   0  0  0  0  0  0  0  0  0  0  0  0
    8.0708   -0.3953   17.8678 H   0  0  0  0  0  0  0  0  0  0  0  0
    6.6592    0.0762   19.4429 C   0  0  0  0  0  0  0  0  0  0  0  0
    7.2970   -0.7543   20.4620 C   0  0  0  0  0  0  0  0  0  0  0  0
    6.7450   -1.3631   21.5337 C   0  0  0  0  0  0  0  0  0  0  0  0
    5.7123   -1.4376   21.8345 H   0  0  0  0  0  0  0  0  0  0  0  0
    7.7559   -2.0023   22.2418 N   0  0  0  0  0  0  0  0  0  0  0  0
    7.6488   -2.5943   23.5242 C   0  0  0  0  0  0  0  0  0  0  0  0
    6.9994   -3.7564   23.7519 C   0  0  0  0  0  0  0  0  0  0  0  0
    6.5189   -4.3694   23.0039 H   0  0  0  0  0  0  0  0  0  0  0  0
    7.0232   -4.2538   25.4057 S   0  0  0  0  0  0  0  0  0  0  0  0
    7.9622   -2.8551   25.8492 C   0  0  0  0  0  0  0  0  0  0  0  0
    8.4396   -2.5389   27.1344 C   0  0  0  0  0  0  0  0  0  0  0  0
    8.2148   -3.2036   27.9603 H   0  0  0  0  0  0  0  0  0  0  0  0
    9.1951   -1.3832   27.2986 C   0  0  0  0  0  0  0  0  0  0  0  0
    9.6128   -1.1285   28.2708 H   0  0  0  0  0  0  0  0  0  0  0  0
    9.4674   -0.5401   26.2042 C   0  0  0  0  0  0  0  0  0  0  0  0
   10.0488    0.3673   26.3517 H   0  0  0  0  0  0  0  0  0  0  0  0
    9.0061   -0.8603   24.9325 C   0  0  0  0  0  0  0  0  0  0  0  0
    9.2404   -0.2115   24.0957 H   0  0  0  0  0  0  0  0  0  0  0  0
    8.2423   -2.0356   24.7340 C   0  0  0  0  0  0  0  0  0  0  0  0
    8.9792   -1.8063   21.5976 C   0  0  0  0  0  0  0  0  0  0  0  0
   10.0850   -2.1916   21.9089 O   0  0  0  0  0  0  0  0  0  0  0  0
    8.6505   -1.0662   20.4864 N   0  0  0  0  0  0  0  0  0  0  0  0
    9.4050   -0.7404   19.9111 H   0  0  0  0  0  0  0  0  0  0  0  0
    5.4887    0.8088   19.7217 C   0  0  0  0  0  0  0  0  0  0  0  0
    5.0529    0.7977   20.7221 H   0  0  0  0  0  0  0  0  0  0  0  0
    4.9097    1.5641   18.7025 C   0  0  0  0  0  0  0  0  0  0  0  0
    4.0186    2.1635   18.8669 H   0  0  0  0  0  0  0  0  0  0  0  0
  1  2  1  0
  2  3  2  0
  3  4  1  0
  4  5  1  0
  4  6  2  0
  6  7  1  0
  7  8  2  0
  8  9  1  0
  8 10  1  0
 10 11  1  0
 11 12  2  0
 12 13  1  0
 12 14  1  0
 14 15  1  0
 15 16  2  0
 16 17  1  0
 16 18  1  0
 18 19  1  0
 18 20  2  0
 20 21  1  0
 20 22  1  0
 22 23  1  0
 22 24  2  0
 10 25  1  0
 25 26  2  0
 25 27  1  0
 27 28  1  0
  6 29  1  0
 29 30  1  0
 29 31  2  0
 31 32  1  0
 31  2  1  0
 27  7  1  0
 24 11  1  0
 24 15  1  0
M  END
>  <cnnaffinity>  (1) 
-5.63199

>  <filename>  (1) 
O=c1[nH]c(-c2cccnc2)cn1-c1csc2ccccc12

$$$$
