
     RDKit          3D

 32 34  0  0  0  0  0  0  0  0999 V2000
    9.8610    0.6010   25.8088 H   0  0  0  0  0  0  0  0  0  0  0  0
    9.5220    1.3370   26.3402 O   0  0  0  0  0  0  0  0  0  0  0  0
    8.1837    1.1788   26.3801 C   0  0  0  0  0  0  0  0  0  0  0  0
    7.4495    2.0034   27.2281 C   0  0  0  0  0  0  0  0  0  0  0  0
    7.9825    2.7170   27.8454 H   0  0  0  0  0  0  0  0  0  0  0  0
    6.0598    1.8776   27.2627 C   0  0  0  0  0  0  0  0  0  0  0  0
    5.1527    2.8943   28.3473 Cl  0  0  0  0  0  0  0  0  0  0  0  0
    5.3951    0.9505   26.4542 C   0  0  0  0  0  0  0  0  0  0  0  0
    4.3134    0.8872   26.5002 H   0  0  0  0  0  0  0  0  0  0  0  0
    6.1392    0.1179   25.5920 C   0  0  0  0  0  0  0  0  0  0  0  0
    5.6440   -0.5842   24.9229 H   0  0  0  0  0  0  0  0  0  0  0  0
    7.5262    0.2242   25.5759 C   0  0  0  0  0  0  0  0  0  0  0  0
    8.3893   -0.5981   24.8434 O   0  0  0  0  0  0  0  0  0  0  0  0
    8.1653   -0.9250   23.5435 C   0  0  0  0  0  0  0  0  0  0  0  0
    7.7068    0.4351   22.5192 S   0  0  0  0  0  0  0  0  0  0  0  0
    7.3050   -0.4259   21.0531 C   0  0  0  0  0  0  0  0  0  0  0  0
    6.6485    0.3584   19.9806 C   0  0  0  0  0  0  0  0  0  0  0  0
    7.1951    0.3518   18.6831 C   0  0  0  0  0  0  0  0  0  0  0  0
    8.1881   -0.0661   18.5134 H   0  0  0  0  0  0  0  0  0  0  0  0
    6.5725    0.8332   17.6022 N   0  0  0  0  0  0  0  0  0  0  0  0
    5.3626    1.3825   17.7909 C   0  0  0  0  0  0  0  0  0  0  0  0
    4.8833    1.7779   16.8983 H   0  0  0  0  0  0  0  0  0  0  0  0
    4.7381    1.4737   19.0415 C   0  0  0  0  0  0  0  0  0  0  0  0
    3.7622    1.9383   19.1223 H   0  0  0  0  0  0  0  0  0  0  0  0
    5.4034    0.9767   20.1661 C   0  0  0  0  0  0  0  0  0  0  0  0
    4.9751    1.0365   21.1690 H   0  0  0  0  0  0  0  0  0  0  0  0
    7.5332   -1.7387   20.8605 C   0  0  0  0  0  0  0  0  0  0  0  0
    7.1973   -2.2040   19.9474 H   0  0  0  0  0  0  0  0  0  0  0  0
    8.1836   -2.6610   21.8035 C   0  0  0  0  0  0  0  0  0  0  0  0
    8.4532   -3.8017   21.4639 O   0  0  0  0  0  0  0  0  0  0  0  0
    8.4688   -2.1715   23.1404 C   0  0  0  0  0  0  0  0  0  0  0  0
    8.9025   -2.9080   23.8118 H   0  0  0  0  0  0  0  0  0  0  0  0
  1  2  1  0
  2  3  1  0
  3  4  2  0
  4  5  1  0
  4  6  1  0
  6  7  1  0
  6  8  2  0
  8  9  1  0
  8 10  1  0
 10 11  1  0
 10 12  2  0
 12 13  1  0
 13 14  1  0
 14 15  1  0
 15 16  1  0
 16 17  1  0
 17 18  2  0
 18 19  1  0
 18 20  1  0
 20 21  2  0
 21 22  1  0
 21 23  1  0
 23 24  1  0
 23 25  2  0
 25 26  1  0
 16 27  2  0
 27 28  1  0
 27 29  1  0
 29 30  2  0
 29 31  1  0
 31 32  1  0
 12  3  1  0
 31 14  2  0
 25 17  1  0
M  END
>  <cnnaffinity>  (1) 
-5.48019

>  <filename>  (1) 
O=c1cc(Oc2ccc(Cl)cc2O)sc(-c2cccnc2)c1

$$$$
