
     RDKit          3D

 31 33  0  0  0  0  0  0  0  0999 V2000
    4.9252    1.8049   16.9983 H   0  0  0  0  0  0  0  0  0  0  0  0
    5.3910    1.2862   17.8318 C   0  0  0  0  0  0  0  0  0  0  0  0
    6.5462    0.6577   17.5579 N   0  0  0  0  0  0  0  0  0  0  0  0
    7.1755    0.0466   18.5686 C   0  0  0  0  0  0  0  0  0  0  0  0
    8.1321   -0.4228   18.3494 H   0  0  0  0  0  0  0  0  0  0  0  0
    6.6762    0.0027   19.8906 C   0  0  0  0  0  0  0  0  0  0  0  0
    7.3771   -0.6724   20.9408 N   0  0  0  0  0  0  0  0  0  0  0  0
    6.8020   -1.4693   21.9248 C   0  0  0  0  0  0  0  0  0  0  0  0
    5.7339   -1.6515   21.9333 H   0  0  0  0  0  0  0  0  0  0  0  0
    7.7702   -1.9665   22.7403 C   0  0  0  0  0  0  0  0  0  0  0  0
    7.5489   -2.8821   23.9024 C   0  0  0  0  0  0  0  0  0  0  0  0
    6.6756   -3.8735   23.6842 N   0  0  0  0  0  0  0  0  0  0  0  0
    6.5162   -4.8119   24.6184 C   0  0  0  0  0  0  0  0  0  0  0  0
    5.8315   -5.6139   24.3641 H   0  0  0  0  0  0  0  0  0  0  0  0
    7.1800   -4.7996   25.8454 C   0  0  0  0  0  0  0  0  0  0  0  0
    7.0152   -5.6004   26.5571 H   0  0  0  0  0  0  0  0  0  0  0  0
    8.0330   -3.7410   26.1226 C   0  0  0  0  0  0  0  0  0  0  0  0
    8.5623   -3.6814   27.0723 H   0  0  0  0  0  0  0  0  0  0  0  0
    8.1880   -2.7489   25.1529 C   0  0  0  0  0  0  0  0  0  0  0  0
    9.0700   -1.5656   25.3615 C   0  0  0  0  0  0  0  0  0  0  0  0
    9.3801   -1.3490   26.6494 F   0  0  0  0  0  0  0  0  0  0  0  0
    8.5256   -0.4325   24.8887 F   0  0  0  0  0  0  0  0  0  0  0  0
   10.2387   -1.7498   24.6966 F   0  0  0  0  0  0  0  0  0  0  0  0
    8.9773   -1.4787   22.2023 N   0  0  0  0  0  0  0  0  0  0  0  0
    9.9416   -1.5625   22.4872 H   0  0  0  0  0  0  0  0  0  0  0  0
    8.7745   -0.6746   21.1160 C   0  0  0  0  0  0  0  0  0  0  0  0
    9.6411   -0.1171   20.4749 O   0  0  0  0  0  0  0  0  0  0  0  0
    5.4584    0.6468   20.1528 C   0  0  0  0  0  0  0  0  0  0  0  0
    5.0571    0.6474   21.1668 H   0  0  0  0  0  0  0  0  0  0  0  0
    4.8053    1.3052   19.1032 C   0  0  0  0  0  0  0  0  0  0  0  0
    3.8720    1.8422   19.2606 H   0  0  0  0  0  0  0  0  0  0  0  0
  1  2  1  0
  2  3  2  0
  3  4  1  0
  4  5  1  0
  4  6  2  0
  6  7  1  0
  7  8  1  0
  8  9  1  0
  8 10  2  0
 10 11  1  0
 11 12  2  0
 12 13  1  0
 13 14  1  0
 13 15  2  0
 15 16  1  0
 15 17  1  0
 17 18  1  0
 17 19  2  0
 19 20  1  0
 20 21  1  0
 20 22  1  0
 20 23  1  0
 10 24  1  0
 24 25  1  0
 24 26  1  0
 26 27  2  0
  6 28  1  0
 28 29  1  0
 28 30  2  0
 30 31  1  0
 30  2  1  0
 26  7  1  0
 19 11  1  0
M  END
>  <cnnaffinity>  (1) 
-5.79336

>  <filename>  (1) 
O=c1[nH]c(-c2ncccc2C(F)(F)F)cn1-c1cccnc1

$$$$
