
     RDKit          3D

 27 29  0  0  0  0  0  0  0  0999 V2000
   13.7689    1.0401   22.1257 H   0  0  0  0  0  0  0  0  0  0  0  0
   12.8326    0.6016   22.4555 C   0  0  0  0  0  0  0  0  0  0  0  0
   12.6038    0.1957   23.6686 N   0  0  0  0  0  0  0  0  0  0  0  0
   11.3339   -0.3340   23.7431 C   0  0  0  0  0  0  0  0  0  0  0  0
   10.9707   -0.6899   24.6953 H   0  0  0  0  0  0  0  0  0  0  0  0
   10.5868   -0.3606   22.5935 C   0  0  0  0  0  0  0  0  0  0  0  0
    9.2408   -0.8790   22.2785 C   0  0  0  0  0  0  0  0  0  0  0  0
    8.5097   -0.3551   21.1544 C   0  0  0  0  0  0  0  0  0  0  0  0
    8.9902    0.3923   20.5245 H   0  0  0  0  0  0  0  0  0  0  0  0
    7.2284   -0.7453   20.8305 C   0  0  0  0  0  0  0  0  0  0  0  0
    6.4957   -0.0524   19.7284 C   0  0  0  0  0  0  0  0  0  0  0  0
    7.0519    0.0742   18.4328 C   0  0  0  0  0  0  0  0  0  0  0  0
    7.9939   -0.4226   18.1940 H   0  0  0  0  0  0  0  0  0  0  0  0
    6.4912    0.7636   17.4313 N   0  0  0  0  0  0  0  0  0  0  0  0
    5.3429    1.4079   17.6957 C   0  0  0  0  0  0  0  0  0  0  0  0
    4.9299    1.9944   16.8767 H   0  0  0  0  0  0  0  0  0  0  0  0
    4.6900    1.3479   18.9307 C   0  0  0  0  0  0  0  0  0  0  0  0
    3.7664    1.9020   19.0736 H   0  0  0  0  0  0  0  0  0  0  0  0
    5.2607    0.5785   19.9527 C   0  0  0  0  0  0  0  0  0  0  0  0
    4.7774    0.4720   20.9241 H   0  0  0  0  0  0  0  0  0  0  0  0
    6.6112   -1.8538   21.5968 C   0  0  0  0  0  0  0  0  0  0  0  0
    5.5421   -2.4248   21.4532 O   0  0  0  0  0  0  0  0  0  0  0  0
    7.4199   -2.3432   22.6293 N   0  0  0  0  0  0  0  0  0  0  0  0
    6.8933   -3.0860   23.0700 H   0  0  0  0  0  0  0  0  0  0  0  0
    8.6509   -1.8961   22.9970 C   0  0  0  0  0  0  0  0  0  0  0  0
    9.1336   -2.3873   23.8405 H   0  0  0  0  0  0  0  0  0  0  0  0
   11.5095    0.4312   21.3744 S   0  0  0  0  0  0  0  0  0  0  0  0
  1  2  1  0
  2  3  2  0
  3  4  1  0
  4  5  1  0
  4  6  2  0
  6  7  1  0
  7  8  1  0
  8  9  1  0
  8 10  2  0
 10 11  1  0
 11 12  2  0
 12 13  1  0
 12 14  1  0
 14 15  2  0
 15 16  1  0
 15 17  1  0
 17 18  1  0
 17 19  2  0
 19 20  1  0
 10 21  1  0
 21 22  2  0
 21 23  1  0
 23 24  1  0
 23 25  1  0
 25 26  1  0
  6 27  1  0
 27  2  1  0
 25  7  2  0
 19 11  1  0
M  END
>  <cnnaffinity>  (1) 
-4.6485

>  <filename>  (1) 
O=c1[nH]cc(-c2cncs2)cc1-c1cccnc1

$$$$
