
     RDKit          3D

 31 33  0  0  0  0  0  0  0  0999 V2000
    4.8948    1.8709   16.9464 H   0  0  0  0  0  0  0  0  0  0  0  0
    5.3964    1.3393   17.7503 C   0  0  0  0  0  0  0  0  0  0  0  0
    6.5692    0.7387   17.4966 N   0  0  0  0  0  0  0  0  0  0  0  0
    7.1840    0.1094   18.5209 C   0  0  0  0  0  0  0  0  0  0  0  0
    8.1248   -0.3829   18.3092 H   0  0  0  0  0  0  0  0  0  0  0  0
    6.6612    0.0282   19.8354 C   0  0  0  0  0  0  0  0  0  0  0  0
    7.3414   -0.6201   20.8930 N   0  0  0  0  0  0  0  0  0  0  0  0
    6.6645   -1.6339   21.6065 C   0  0  0  0  0  0  0  0  0  0  0  0
    5.6193   -1.8266   21.3713 H   0  0  0  0  0  0  0  0  0  0  0  0
    7.3178   -2.4167   22.5468 C   0  0  0  0  0  0  0  0  0  0  0  0
    6.6987   -3.5661   23.2327 C   0  0  0  0  0  0  0  0  0  0  0  0
    7.5366   -4.5344   23.8086 C   0  0  0  0  0  0  0  0  0  0  0  0
    8.6141   -4.4661   23.6943 H   0  0  0  0  0  0  0  0  0  0  0  0
    7.0150   -5.5981   24.5378 C   0  0  0  0  0  0  0  0  0  0  0  0
    7.6957   -6.3235   24.9719 H   0  0  0  0  0  0  0  0  0  0  0  0
    5.6350   -5.7277   24.7010 C   0  0  0  0  0  0  0  0  0  0  0  0
    4.9290   -7.1885   25.7058 Br  0  0  0  0  0  0  0  0  0  0  0  0
    4.7754   -4.7955   24.1085 C   0  0  0  0  0  0  0  0  0  0  0  0
    3.7025   -4.9163   24.2431 H   0  0  0  0  0  0  0  0  0  0  0  0
    5.3054   -3.7222   23.3615 C   0  0  0  0  0  0  0  0  0  0  0  0
    4.6430   -3.0055   22.8974 H   0  0  0  0  0  0  0  0  0  0  0  0
    8.7007   -2.0843   22.8948 C   0  0  0  0  0  0  0  0  0  0  0  0
    9.1924   -2.6463   23.6797 H   0  0  0  0  0  0  0  0  0  0  0  0
    9.3521   -1.0532   22.2663 C   0  0  0  0  0  0  0  0  0  0  0  0
   10.3613   -0.7785   22.5430 H   0  0  0  0  0  0  0  0  0  0  0  0
    8.6767   -0.3200   21.2101 C   0  0  0  0  0  0  0  0  0  0  0  0
    9.3110    0.5495   20.6193 O   0  0  0  0  0  0  0  0  0  0  0  0
    5.4266    0.6332   20.0711 C   0  0  0  0  0  0  0  0  0  0  0  0
    4.9812    0.6008   21.0645 H   0  0  0  0  0  0  0  0  0  0  0  0
    4.7967    1.3019   19.0167 C   0  0  0  0  0  0  0  0  0  0  0  0
    3.8500    1.8049   19.1677 H   0  0  0  0  0  0  0  0  0  0  0  0
  1  2  1  0
  2  3  2  0
  3  4  1  0
  4  5  1  0
  4  6  2  0
  6  7  1  0
  7  8  1  0
  8  9  1  0
  8 10  2  0
 10 11  1  0
 11 12  2  0
 12 13  1  0
 12 14  1  0
 14 15  1  0
 14 16  2  0
 16 17  1  0
 16 18  1  0
 18 19  1  0
 18 20  2  0
 20 21  1  0
 10 22  1  0
 22 23  1  0
 22 24  2  0
 24 25  1  0
 24 26  1  0
 26 27  2  0
  6 28  1  0
 28 29  1  0
 28 30  2  0
 30 31  1  0
 30  2  1  0
 26  7  1  0
 20 11  1  0
M  END
>  <cnnaffinity>  (1) 
-5.4907

>  <filename>  (1) 
O=c1ccc(-c2ccc(Br)cc2)cn1-c1cccnc1

$$$$
