
     RDKit          3D

 34 36  0  0  0  0  0  0  0  0999 V2000
   14.4725   -1.3798   22.5343 H   0  0  0  0  0  0  0  0  0  0  0  0
   14.2445   -0.4473   22.4402 O   0  0  0  0  0  0  0  0  0  0  0  0
   12.9345   -0.2438   22.9307 C   0  0  2  0  0  0  0  0  0  0  0  0
   12.9145   -0.3010   24.0316 H   0  0  0  0  0  0  0  0  0  0  0  0
   11.8479   -1.1470   22.3256 C   0  0  0  0  0  0  0  0  0  0  0  0
   11.7240   -2.1091   22.8354 H   0  0  0  0  0  0  0  0  0  0  0  0
   12.1024   -1.3666   21.2726 H   0  0  0  0  0  0  0  0  0  0  0  0
   10.6484   -0.3331   22.4407 N   0  0  0  0  0  0  0  0  0  0  0  0
    9.3601   -0.8342   22.1972 C   0  0  0  0  0  0  0  0  0  0  0  0
    8.5748   -0.2521   21.2525 C   0  0  0  0  0  0  0  0  0  0  0  0
    8.9175    0.6227   20.7038 H   0  0  0  0  0  0  0  0  0  0  0  0
    7.3029   -0.7184   20.9051 N   0  0  0  0  0  0  0  0  0  0  0  0
    6.6132   -0.0355   19.8383 C   0  0  0  0  0  0  0  0  0  0  0  0
    7.1840    0.0704   18.5535 C   0  0  0  0  0  0  0  0  0  0  0  0
    8.1395   -0.4108   18.3419 H   0  0  0  0  0  0  0  0  0  0  0  0
    6.6099    0.7292   17.5412 N   0  0  0  0  0  0  0  0  0  0  0  0
    5.4412    1.3450   17.7851 C   0  0  0  0  0  0  0  0  0  0  0  0
    4.9984    1.8815   16.9495 H   0  0  0  0  0  0  0  0  0  0  0  0
    4.8038    1.3128   19.0290 C   0  0  0  0  0  0  0  0  0  0  0  0
    3.8737    1.8502   19.1711 H   0  0  0  0  0  0  0  0  0  0  0  0
    5.3932    0.6035   20.0798 C   0  0  0  0  0  0  0  0  0  0  0  0
    4.9365    0.5572   21.0673 H   0  0  0  0  0  0  0  0  0  0  0  0
    6.6918   -1.7932   21.6025 C   0  0  0  0  0  0  0  0  0  0  0  0
    5.6255   -2.3028   21.3502 O   0  0  0  0  0  0  0  0  0  0  0  0
    7.4439   -2.2719   22.6316 N   0  0  0  0  0  0  0  0  0  0  0  0
    7.0524   -3.0823   23.0675 H   0  0  0  0  0  0  0  0  0  0  0  0
    8.7758   -2.0370   22.9185 C   0  0  0  0  0  0  0  0  0  0  0  0
    9.3020   -2.7989   23.7042 O   0  0  0  0  0  0  0  0  0  0  0  0
   10.9537    1.0636   22.7570 C   0  0  0  0  0  0  0  0  0  0  0  0
   10.6780    1.2960   23.7985 H   0  0  0  0  0  0  0  0  0  0  0  0
   10.4170    1.7744   22.1188 H   0  0  0  0  0  0  0  0  0  0  0  0
   12.4597    1.1442   22.5459 C   0  0  0  0  0  0  0  0  0  0  0  0
   12.9433    1.9276   23.1352 H   0  0  0  0  0  0  0  0  0  0  0  0
   12.6936    1.3306   21.4939 H   0  0  0  0  0  0  0  0  0  0  0  0
  1  2  1  0
  2  3  1  0
  3  4  1  1
  3  5  1  0
  5  6  1  0
  5  7  1  0
  5  8  1  0
  8  9  1  0
  9 10  2  0
 10 11  1  0
 10 12  1  0
 12 13  1  0
 13 14  2  0
 14 15  1  0
 14 16  1  0
 16 17  2  0
 17 18  1  0
 17 19  1  0
 19 20  1  0
 19 21  2  0
 21 22  1  0
 12 23  1  0
 23 24  2  0
 23 25  1  0
 25 26  1  0
 25 27  1  0
 27 28  2  0
  8 29  1  0
 29 30  1  0
 29 31  1  0
 29 32  1  0
 32 33  1  0
 32 34  1  0
 32  3  1  0
 27  9  1  0
 21 13  1  0
M  END
>  <cnnaffinity>  (1) 
-5.06313

>  <filename>  (1) 
O=c1[nH]c(=O)n(-c2cccnc2)cc1N1CC[C@H](O)C1

$$$$
