
     RDKit          3D

 33 35  0  0  0  0  0  0  0  0999 V2000
    4.9215    1.9517   16.8490 H   0  0  0  0  0  0  0  0  0  0  0  0
    5.3822    1.4120   17.6755 C   0  0  0  0  0  0  0  0  0  0  0  0
    6.5327    0.7784   17.3919 N   0  0  0  0  0  0  0  0  0  0  0  0
    7.1441    0.1252   18.3896 C   0  0  0  0  0  0  0  0  0  0  0  0
    8.0839   -0.3682   18.1492 H   0  0  0  0  0  0  0  0  0  0  0  0
    6.6292    0.0475   19.7019 C   0  0  0  0  0  0  0  0  0  0  0  0
    7.2910   -0.6826   20.7794 N   0  0  0  0  0  0  0  0  0  0  0  0
    6.6373   -1.7908   21.3831 C   0  0  0  0  0  0  0  0  0  0  0  0
    5.5971   -2.2268   20.9365 O   0  0  0  0  0  0  0  0  0  0  0  0
    7.2942   -2.4004   22.5263 C   0  0  0  0  0  0  0  0  0  0  0  0
    6.7588   -3.2467   22.9225 H   0  0  0  0  0  0  0  0  0  0  0  0
    8.4787   -1.9757   23.0058 C   0  0  0  0  0  0  0  0  0  0  0  0
    9.2422   -2.6838   24.1103 C   0  0  0  0  0  0  0  0  0  0  0  0
   10.4293   -3.1887   23.7432 N   0  0  0  0  0  0  0  0  0  0  0  0
   11.0135   -4.0793   24.5423 C   0  0  0  0  0  0  0  0  0  0  0  0
   11.9252   -4.5124   24.1568 H   0  0  0  0  0  0  0  0  0  0  0  0
   10.4904   -4.4726   25.7756 C   0  0  0  0  0  0  0  0  0  0  0  0
   10.9982   -5.2297   26.3587 H   0  0  0  0  0  0  0  0  0  0  0  0
    9.3336   -3.8573   26.2315 C   0  0  0  0  0  0  0  0  0  0  0  0
    8.9014   -4.1059   27.2029 H   0  0  0  0  0  0  0  0  0  0  0  0
    8.7270   -2.9058   25.4043 C   0  0  0  0  0  0  0  0  0  0  0  0
    7.4962   -2.1858   25.8647 C   0  0  0  0  0  0  0  0  0  0  0  0
    7.3845   -2.1703   27.2051 F   0  0  0  0  0  0  0  0  0  0  0  0
    6.3906   -2.7999   25.3872 F   0  0  0  0  0  0  0  0  0  0  0  0
    7.4554   -0.9138   25.4445 F   0  0  0  0  0  0  0  0  0  0  0  0
    9.0326   -0.8810   22.3558 N   0  0  0  0  0  0  0  0  0  0  0  0
    9.9597   -0.5203   22.5140 H   0  0  0  0  0  0  0  0  0  0  0  0
    8.5280   -0.2448   21.2421 C   0  0  0  0  0  0  0  0  0  0  0  0
    9.1840    0.6342   20.7301 O   0  0  0  0  0  0  0  0  0  0  0  0
    5.4173    0.6860   19.9697 C   0  0  0  0  0  0  0  0  0  0  0  0
    4.9821    0.6136   20.9658 H   0  0  0  0  0  0  0  0  0  0  0  0
    4.7876    1.3960   18.9401 C   0  0  0  0  0  0  0  0  0  0  0  0
    3.8558    1.9297   19.1047 H   0  0  0  0  0  0  0  0  0  0  0  0
  1  2  1  0
  2  3  2  0
  3  4  1  0
  4  5  1  0
  4  6  2  0
  6  7  1  0
  7  8  1  0
  8  9  2  0
  8 10  1  0
 10 11  1  0
 10 12  2  0
 12 13  1  0
 13 14  2  0
 14 15  1  0
 15 16  1  0
 15 17  2  0
 17 18  1  0
 17 19  1  0
 19 20  1  0
 19 21  2  0
 21 22  1  0
 22 23  1  0
 22 24  1  0
 22 25  1  0
 12 26  1  0
 26 27  1  0
 26 28  1  0
 28 29  2  0
  6 30  1  0
 30 31  1  0
 30 32  2  0
 32 33  1  0
 32  2  1  0
 28  7  1  0
 21 13  1  0
M  END
>  <cnnaffinity>  (1) 
-5.76085

>  <filename>  (1) 
O=c1cc(-c2ncccc2C(F)(F)F)[nH]c(=O)n1-c1cccnc1

$$$$
