
     RDKit          3D

 37 40  0  0  0  0  0  0  0  0999 V2000
    4.9266    1.8360   16.9632 H   0  0  0  0  0  0  0  0  0  0  0  0
    5.3953    1.3268   17.8034 C   0  0  0  0  0  0  0  0  0  0  0  0
    6.5583    0.7086   17.5391 N   0  0  0  0  0  0  0  0  0  0  0  0
    7.1724    0.0739   18.5463 C   0  0  0  0  0  0  0  0  0  0  0  0
    8.1200   -0.4061   18.3031 H   0  0  0  0  0  0  0  0  0  0  0  0
    6.6499   -0.0082   19.8543 C   0  0  0  0  0  0  0  0  0  0  0  0
    7.3424   -0.7222   20.9168 N   0  0  0  0  0  0  0  0  0  0  0  0
    8.6248   -0.3253   21.2719 C   0  0  0  0  0  0  0  0  0  0  0  0
    9.0175    0.5291   20.7226 H   0  0  0  0  0  0  0  0  0  0  0  0
    9.3419   -0.9243   22.2592 C   0  0  0  0  0  0  0  0  0  0  0  0
   10.7127   -0.4873   22.5827 C   0  0  0  0  0  0  0  0  0  0  0  0
   11.7718   -1.3415   22.3128 C   0  0  0  0  0  0  0  0  0  0  0  0
   11.5533   -2.3430   21.9587 H   0  0  0  0  0  0  0  0  0  0  0  0
   13.1215   -0.9487   22.5093 C   0  0  0  0  0  0  0  0  0  0  0  0
   13.9299   -1.6421   22.2850 H   0  0  0  0  0  0  0  0  0  0  0  0
   13.4035    0.2908   23.0267 C   0  0  0  0  0  0  0  0  0  0  0  0
   14.4236    0.5839   23.2687 H   0  0  0  0  0  0  0  0  0  0  0  0
   12.3533    1.2120   23.3118 C   0  0  0  0  0  0  0  0  0  0  0  0
   12.6500    2.5180   23.7980 C   0  0  0  0  0  0  0  0  0  0  0  0
   13.6930    2.8120   23.8788 H   0  0  0  0  0  0  0  0  0  0  0  0
   11.6516    3.3933   24.1459 C   0  0  0  0  0  0  0  0  0  0  0  0
   11.8903    4.3719   24.5550 H   0  0  0  0  0  0  0  0  0  0  0  0
   10.2951    3.0202   23.9796 C   0  0  0  0  0  0  0  0  0  0  0  0
    9.5138    3.7299   24.2353 H   0  0  0  0  0  0  0  0  0  0  0  0
    9.9703    1.7780   23.4780 C   0  0  0  0  0  0  0  0  0  0  0  0
    8.9255    1.5108   23.3467 H   0  0  0  0  0  0  0  0  0  0  0  0
   10.9847    0.8289   23.1160 C   0  0  0  0  0  0  0  0  0  0  0  0
    8.7377   -2.0602   22.9849 C   0  0  0  0  0  0  0  0  0  0  0  0
    9.2175   -2.7486   23.8597 O   0  0  0  0  0  0  0  0  0  0  0  0
    7.4441   -2.3335   22.6045 N   0  0  0  0  0  0  0  0  0  0  0  0
    6.9974   -3.0803   23.0976 H   0  0  0  0  0  0  0  0  0  0  0  0
    6.7057   -1.7842   21.6072 C   0  0  0  0  0  0  0  0  0  0  0  0
    5.6091   -2.2239   21.3502 O   0  0  0  0  0  0  0  0  0  0  0  0
    5.4358    0.6423   20.1120 C   0  0  0  0  0  0  0  0  0  0  0  0
    5.0090    0.6035   21.1119 H   0  0  0  0  0  0  0  0  0  0  0  0
    4.7969    1.3272   19.0679 C   0  0  0  0  0  0  0  0  0  0  0  0
    3.8560    1.8567   19.2161 H   0  0  0  0  0  0  0  0  0  0  0  0
  1  2  1  0
  2  3  2  0
  3  4  1  0
  4  5  1  0
  4  6  2  0
  6  7  1  0
  7  8  1  0
  8  9  1  0
  8 10  2  0
 10 11  1  0
 11 12  2  0
 12 13  1  0
 12 14  1  0
 14 15  1  0
 14 16  2  0
 16 17  1  0
 16 18  1  0
 18 19  2  0
 19 20  1  0
 19 21  1  0
 21 22  1  0
 21 23  2  0
 23 24  1  0
 23 25  1  0
 25 26  1  0
 25 27  2  0
 10 28  1  0
 28 29  2  0
 28 30  1  0
 30 31  1  0
 30 32  1  0
 32 33  2  0
  6 34  1  0
 34 35  1  0
 34 36  2  0
 36 37  1  0
 36  2  1  0
 32  7  1  0
 27 11  1  0
 27 18  1  0
M  END
>  <cnnaffinity>  (1) 
-5.36186

>  <filename>  (1) 
O=c1[nH]c(=O)n(-c2cccnc2)cc1-c1cccc2ccccc12

$$$$
