
     RDKit          3D

 35 37  0  0  0  0  0  0  0  0999 V2000
    6.5662   -2.8643   23.2725 H   0  0  0  0  0  0  0  0  0  0  0  0
    7.2263   -2.2561   22.6659 C   0  0  0  0  0  0  0  0  0  0  0  0
    8.5525   -2.1457   22.9032 C   0  0  0  0  0  0  0  0  0  0  0  0
    9.2458   -2.9827   23.9409 C   0  0  0  0  0  0  0  0  0  0  0  0
    8.4902   -3.4662   24.9441 N   0  0  0  0  0  0  0  0  0  0  0  0
    9.0558   -4.2490   25.8787 C   0  0  0  0  0  0  0  0  0  0  0  0
    8.1450   -4.7855   27.0022 C   0  0  0  0  0  0  0  0  0  0  0  0
    7.3917   -3.8170   27.5368 F   0  0  0  0  0  0  0  0  0  0  0  0
    7.3111   -5.7480   26.5726 F   0  0  0  0  0  0  0  0  0  0  0  0
    8.8626   -5.3362   28.0051 F   0  0  0  0  0  0  0  0  0  0  0  0
   10.4029   -4.6221   25.8398 C   0  0  0  0  0  0  0  0  0  0  0  0
   10.8434   -5.2367   26.6202 H   0  0  0  0  0  0  0  0  0  0  0  0
   11.1698   -4.1417   24.7811 C   0  0  0  0  0  0  0  0  0  0  0  0
   12.1983   -4.4301   24.7028 H   0  0  0  0  0  0  0  0  0  0  0  0
   10.6133   -3.2912   23.8319 C   0  0  0  0  0  0  0  0  0  0  0  0
   11.1991   -2.8801   23.0156 H   0  0  0  0  0  0  0  0  0  0  0  0
    9.3588   -1.2494   21.9671 C   0  0  0  0  0  0  0  0  0  0  0  0
   10.2131   -0.8070   22.4905 H   0  0  0  0  0  0  0  0  0  0  0  0
    9.7531   -1.8516   21.1349 H   0  0  0  0  0  0  0  0  0  0  0  0
    8.4898   -0.1317   21.3769 C   0  0  0  0  0  0  0  0  0  0  0  0
    9.0365    0.3972   20.5899 H   0  0  0  0  0  0  0  0  0  0  0  0
    8.2459    0.6054   22.1585 H   0  0  0  0  0  0  0  0  0  0  0  0
    7.2633   -0.6843   20.7936 N   0  0  0  0  0  0  0  0  0  0  0  0
    6.6149    0.0372   19.7361 C   0  0  0  0  0  0  0  0  0  0  0  0
    7.1711    0.1327   18.4430 C   0  0  0  0  0  0  0  0  0  0  0  0
    8.1148   -0.3701   18.2340 H   0  0  0  0  0  0  0  0  0  0  0  0
    6.5945    0.7874   17.4244 N   0  0  0  0  0  0  0  0  0  0  0  0
    5.4287    1.4097   17.6685 C   0  0  0  0  0  0  0  0  0  0  0  0
    4.9825    1.9433   16.8306 H   0  0  0  0  0  0  0  0  0  0  0  0
    4.7973    1.3874   18.9171 C   0  0  0  0  0  0  0  0  0  0  0  0
    3.8601    1.9174   19.0559 H   0  0  0  0  0  0  0  0  0  0  0  0
    5.3908    0.6798   19.9669 C   0  0  0  0  0  0  0  0  0  0  0  0
    4.9250    0.6122   20.9483 H   0  0  0  0  0  0  0  0  0  0  0  0
    6.5387   -1.6579   21.5046 C   0  0  0  0  0  0  0  0  0  0  0  0
    5.4333   -2.0380   21.1664 O   0  0  0  0  0  0  0  0  0  0  0  0
  1  2  1  0
  2  3  2  0
  3  4  1  0
  4  5  2  0
  5  6  1  0
  6  7  1  0
  7  8  1  0
  7  9  1  0
  7 10  1  0
  6 11  2  0
 11 12  1  0
 11 13  1  0
 13 14  1  0
 13 15  2  0
 15 16  1  0
  3 17  1  0
 17 18  1  0
 17 19  1  0
 17 20  1  0
 20 21  1  0
 20 22  1  0
 20 23  1  0
 23 24  1  0
 24 25  2  0
 25 26  1  0
 25 27  1  0
 27 28  2  0
 28 29  1  0
 28 30  1  0
 30 31  1  0
 30 32  2  0
 32 33  1  0
 23 34  1  0
 34 35  2  0
 34  2  1  0
 15  4  1  0
 32 24  1  0
M  END
>  <cnnaffinity>  (1) 
-5.43563

>  <filename>  (1) 
O=C1C=C(c2cccc(C(F)(F)F)n2)CCN1c1cccnc1

$$$$
