
     RDKit          3D

 27 29  0  0  0  0  0  0  0  0999 V2000
    5.0108    2.0098   16.7880 H   0  0  0  0  0  0  0  0  0  0  0  0
    5.4262    1.4525   17.6273 C   0  0  0  0  0  0  0  0  0  0  0  0
    6.6413    0.9068   17.4373 N   0  0  0  0  0  0  0  0  0  0  0  0
    7.1903    0.2471   18.4626 C   0  0  0  0  0  0  0  0  0  0  0  0
    8.2061   -0.1141   18.3245 H   0  0  0  0  0  0  0  0  0  0  0  0
    6.5259    0.0172   19.6836 C   0  0  0  0  0  0  0  0  0  0  0  0
    7.1844   -0.7218   20.7192 N   0  0  0  0  0  0  0  0  0  0  0  0
    8.4841   -0.3152   20.9275 N   0  0  0  0  0  0  0  0  0  0  0  0
    9.1140   -0.8184   21.9515 C   0  0  0  0  0  0  0  0  0  0  0  0
   10.4097   -0.3300   22.1927 N   0  0  0  0  0  0  0  0  0  0  0  0
   10.8696    0.8856   21.7603 C   0  0  0  0  0  0  0  0  0  0  0  0
   10.2883    1.5304   21.1146 H   0  0  0  0  0  0  0  0  0  0  0  0
   12.0753    1.1259   22.1912 N   0  0  0  0  0  0  0  0  0  0  0  0
   12.4475    0.0169   22.9138 C   0  0  0  0  0  0  0  0  0  0  0  0
   13.4205   -0.0292   23.3871 H   0  0  0  0  0  0  0  0  0  0  0  0
   11.4431   -0.9039   22.9170 C   0  0  0  0  0  0  0  0  0  0  0  0
   11.3483   -1.9313   23.2405 H   0  0  0  0  0  0  0  0  0  0  0  0
    8.5424   -1.8109   22.8291 C   0  0  0  0  0  0  0  0  0  0  0  0
    9.1145   -2.1355   23.6953 H   0  0  0  0  0  0  0  0  0  0  0  0
    7.3022   -2.2968   22.5562 C   0  0  0  0  0  0  0  0  0  0  0  0
    6.7849   -3.0651   23.1244 H   0  0  0  0  0  0  0  0  0  0  0  0
    6.5320   -1.8112   21.4089 C   0  0  0  0  0  0  0  0  0  0  0  0
    5.4690   -2.2903   21.0624 O   0  0  0  0  0  0  0  0  0  0  0  0
    5.2674    0.5970   19.8800 C   0  0  0  0  0  0  0  0  0  0  0  0
    4.7496    0.4776   20.8307 H   0  0  0  0  0  0  0  0  0  0  0  0
    4.7219    1.3501   18.8313 C   0  0  0  0  0  0  0  0  0  0  0  0
    3.7722    1.8659   18.9428 H   0  0  0  0  0  0  0  0  0  0  0  0
  1  2  1  0
  2  3  2  0
  3  4  1  0
  4  5  1  0
  4  6  2  0
  6  7  1  0
  7  8  1  0
  8  9  2  0
  9 10  1  0
 10 11  1  0
 11 12  1  0
 11 13  2  0
 13 14  1  0
 14 15  1  0
 14 16  2  0
 16 17  1  0
  9 18  1  0
 18 19  1  0
 18 20  2  0
 20 21  1  0
 20 22  1  0
 22 23  2  0
  6 24  1  0
 24 25  1  0
 24 26  2  0
 26 27  1  0
 26  2  1  0
 22  7  1  0
 16 10  1  0
M  END
>  <cnnaffinity>  (1) 
-4.71225

>  <filename>  (1) 
O=c1ccc(-n2ccnc2)nn1-c1cccnc1

$$$$
