
     RDKit          3D

 31 33  0  0  0  0  0  0  0  0999 V2000
    4.9487    1.8956   16.9431 H   0  0  0  0  0  0  0  0  0  0  0  0
    5.3982    1.3489   17.7681 C   0  0  0  0  0  0  0  0  0  0  0  0
    6.5579    0.7236   17.5107 N   0  0  0  0  0  0  0  0  0  0  0  0
    7.1249    0.0463   18.5154 C   0  0  0  0  0  0  0  0  0  0  0  0
    8.0785   -0.4284   18.2965 H   0  0  0  0  0  0  0  0  0  0  0  0
    6.5518   -0.0826   19.7989 C   0  0  0  0  0  0  0  0  0  0  0  0
    7.2190   -0.8194   20.8539 N   0  0  0  0  0  0  0  0  0  0  0  0
    8.4662   -0.3705   21.2561 C   0  0  0  0  0  0  0  0  0  0  0  0
    8.8556    0.4821   20.7049 H   0  0  0  0  0  0  0  0  0  0  0  0
    9.1633   -0.9388   22.2664 C   0  0  0  0  0  0  0  0  0  0  0  0
   10.5162   -0.4591   22.6001 C   0  0  0  0  0  0  0  0  0  0  0  0
   11.6109   -1.3104   22.3510 C   0  0  0  0  0  0  0  0  0  0  0  0
   11.4459   -2.3544   22.0867 H   0  0  0  0  0  0  0  0  0  0  0  0
   12.9151   -0.8362   22.4158 C   0  0  0  0  0  0  0  0  0  0  0  0
   13.7468   -1.4782   22.1649 H   0  0  0  0  0  0  0  0  0  0  0  0
   13.1415    0.4810   22.8087 C   0  0  0  0  0  0  0  0  0  0  0  0
   14.7418    1.1186   22.7446 Cl  0  0  0  0  0  0  0  0  0  0  0  0
   12.0974    1.3148   23.2000 C   0  0  0  0  0  0  0  0  0  0  0  0
   12.3061    2.3082   23.5798 H   0  0  0  0  0  0  0  0  0  0  0  0
   10.7868    0.8523   23.0612 C   0  0  0  0  0  0  0  0  0  0  0  0
    9.5014    1.9779   23.3964 Cl  0  0  0  0  0  0  0  0  0  0  0  0
    8.5829   -2.1040   22.9552 C   0  0  0  0  0  0  0  0  0  0  0  0
    9.0852   -2.8184   23.7954 O   0  0  0  0  0  0  0  0  0  0  0  0
    7.2921   -2.3897   22.5749 N   0  0  0  0  0  0  0  0  0  0  0  0
    6.8520   -3.1555   23.0434 H   0  0  0  0  0  0  0  0  0  0  0  0
    6.5707   -1.8711   21.5517 C   0  0  0  0  0  0  0  0  0  0  0  0
    5.4819   -2.3252   21.2894 O   0  0  0  0  0  0  0  0  0  0  0  0
    5.3605    0.6007   20.0643 C   0  0  0  0  0  0  0  0  0  0  0  0
    4.9218    0.5805   21.0641 H   0  0  0  0  0  0  0  0  0  0  0  0
    4.7757    1.3260   19.0209 C   0  0  0  0  0  0  0  0  0  0  0  0
    3.8627    1.8879   19.1803 H   0  0  0  0  0  0  0  0  0  0  0  0
  1  2  1  0
  2  3  2  0
  3  4  1  0
  4  5  1  0
  4  6  2  0
  6  7  1  0
  7  8  1  0
  8  9  1  0
  8 10  2  0
 10 11  1  0
 11 12  2  0
 12 13  1  0
 12 14  1  0
 14 15  1  0
 14 16  2  0
 16 17  1  0
 16 18  1  0
 18 19  1  0
 18 20  2  0
 20 21  1  0
 10 22  1  0
 22 23  2  0
 22 24  1  0
 24 25  1  0
 24 26  1  0
 26 27  2  0
  6 28  1  0
 28 29  1  0
 28 30  2  0
 30 31  1  0
 30  2  1  0
 26  7  1  0
 20 11  1  0
M  END
>  <cnnaffinity>  (1) 
-5.56214

>  <filename>  (1) 
O=c1[nH]c(=O)n(-c2cccnc2)cc1-c1ccc(Cl)cc1Cl

$$$$
