
     RDKit          3D

 31 33  0  0  0  0  0  0  0  0999 V2000
    4.9621    1.8614   16.9699 H   0  0  0  0  0  0  0  0  0  0  0  0
    5.4262    1.3314   17.7968 C   0  0  0  0  0  0  0  0  0  0  0  0
    6.5880    0.7149   17.5268 N   0  0  0  0  0  0  0  0  0  0  0  0
    7.1885    0.0621   18.5289 C   0  0  0  0  0  0  0  0  0  0  0  0
    8.1366   -0.4225   18.2943 H   0  0  0  0  0  0  0  0  0  0  0  0
    6.6476   -0.0379   19.8290 C   0  0  0  0  0  0  0  0  0  0  0  0
    7.3568   -0.7232   20.8914 N   0  0  0  0  0  0  0  0  0  0  0  0
    8.6207   -0.2632   21.2402 C   0  0  0  0  0  0  0  0  0  0  0  0
    8.9835    0.5808   20.6492 H   0  0  0  0  0  0  0  0  0  0  0  0
    9.3653   -0.8305   22.2145 C   0  0  0  0  0  0  0  0  0  0  0  0
   10.7175   -0.3231   22.5059 C   0  0  0  0  0  0  0  0  0  0  0  0
   10.8941    1.0292   22.8442 C   0  0  0  0  0  0  0  0  0  0  0  0
   10.0508    1.7076   22.9286 H   0  0  0  0  0  0  0  0  0  0  0  0
   12.1785    1.5088   23.0816 C   0  0  0  0  0  0  0  0  0  0  0  0
   12.3775    3.1616   23.5585 Cl  0  0  0  0  0  0  0  0  0  0  0  0
   13.3004    0.6956   22.9106 C   0  0  0  0  0  0  0  0  0  0  0  0
   14.3097    1.0728   23.0122 H   0  0  0  0  0  0  0  0  0  0  0  0
   13.1037   -0.6323   22.5320 C   0  0  0  0  0  0  0  0  0  0  0  0
   14.4989   -1.6188   22.2910 Cl  0  0  0  0  0  0  0  0  0  0  0  0
   11.8294   -1.1641   22.3561 C   0  0  0  0  0  0  0  0  0  0  0  0
   11.6707   -2.2022   22.0823 H   0  0  0  0  0  0  0  0  0  0  0  0
    8.8149   -1.9841   22.9539 C   0  0  0  0  0  0  0  0  0  0  0  0
    9.3444   -2.6803   23.7939 O   0  0  0  0  0  0  0  0  0  0  0  0
    7.5149   -2.2872   22.6119 N   0  0  0  0  0  0  0  0  0  0  0  0
    7.1105   -3.0555   23.1051 H   0  0  0  0  0  0  0  0  0  0  0  0
    6.7487   -1.7846   21.6116 C   0  0  0  0  0  0  0  0  0  0  0  0
    5.6598   -2.2608   21.3830 O   0  0  0  0  0  0  0  0  0  0  0  0
    5.4370    0.6094   20.0964 C   0  0  0  0  0  0  0  0  0  0  0  0
    5.0089    0.5624   21.0981 H   0  0  0  0  0  0  0  0  0  0  0  0
    4.8184    1.3118   19.0566 C   0  0  0  0  0  0  0  0  0  0  0  0
    3.8878    1.8451   19.2173 H   0  0  0  0  0  0  0  0  0  0  0  0
  1  2  1  0
  2  3  2  0
  3  4  1  0
  4  5  1  0
  4  6  2  0
  6  7  1  0
  7  8  1  0
  8  9  1  0
  8 10  2  0
 10 11  1  0
 11 12  2  0
 12 13  1  0
 12 14  1  0
 14 15  1  0
 14 16  2  0
 16 17  1  0
 16 18  1  0
 18 19  1  0
 18 20  2  0
 20 21  1  0
 10 22  1  0
 22 23  2  0
 22 24  1  0
 24 25  1  0
 24 26  1  0
 26 27  2  0
  6 28  1  0
 28 29  1  0
 28 30  2  0
 30 31  1  0
 30  2  1  0
 26  7  1  0
 20 11  1  0
M  END
>  <cnnaffinity>  (1) 
-5.66165

>  <filename>  (1) 
O=c1[nH]c(=O)n(-c2cccnc2)cc1-c1cc(Cl)cc(Cl)c1

$$$$
