
     RDKit          3D

 35 37  0  0  0  0  0  0  0  0999 V2000
    7.1231    0.8219   22.5617 H   0  0  0  0  0  0  0  0  0  0  0  0
    7.4574   -0.1716   22.3198 C   0  0  0  0  0  0  0  0  0  0  0  0
    7.3086   -0.6571   21.0774 C   0  0  0  0  0  0  0  0  0  0  0  0
    6.6305    0.0162   19.9615 C   0  0  0  0  0  0  0  0  0  0  0  0
    7.2004   -0.0105   18.6754 C   0  0  0  0  0  0  0  0  0  0  0  0
    8.1472   -0.5256   18.5127 H   0  0  0  0  0  0  0  0  0  0  0  0
    6.6628    0.5758   17.6025 N   0  0  0  0  0  0  0  0  0  0  0  0
    5.4942    1.2148   17.7784 C   0  0  0  0  0  0  0  0  0  0  0  0
    5.0765    1.6838   16.8900 H   0  0  0  0  0  0  0  0  0  0  0  0
    4.8346    1.2967   19.0115 C   0  0  0  0  0  0  0  0  0  0  0  0
    3.8984    1.8384   19.0847 H   0  0  0  0  0  0  0  0  0  0  0  0
    5.4183    0.7017   20.1309 C   0  0  0  0  0  0  0  0  0  0  0  0
    4.9574    0.7470   21.1229 H   0  0  0  0  0  0  0  0  0  0  0  0
    7.8656   -1.8861   20.7655 N   0  0  0  0  0  0  0  0  0  0  0  0
    7.6231   -2.3684   19.9194 H   0  0  0  0  0  0  0  0  0  0  0  0
    8.2398   -2.8227   21.6987 C   0  0  0  0  0  0  0  0  0  0  0  0
    8.4439   -3.9631   21.3409 O   0  0  0  0  0  0  0  0  0  0  0  0
    8.3418   -2.3518   22.9934 N   0  0  0  0  0  0  0  0  0  0  0  0
    8.6665   -3.3037   23.9985 C   0  0  0  0  0  0  0  0  0  0  0  0
   10.0109   -3.5652   24.2761 C   0  0  0  0  0  0  0  0  0  0  0  0
   10.7530   -3.0599   23.6651 H   0  0  0  0  0  0  0  0  0  0  0  0
   10.3563   -4.4622   25.2960 C   0  0  0  0  0  0  0  0  0  0  0  0
   11.3986   -4.6514   25.5610 H   0  0  0  0  0  0  0  0  0  0  0  0
    9.3425   -5.1341   25.9876 C   0  0  0  0  0  0  0  0  0  0  0  0
    9.6013   -5.8564   26.7570 H   0  0  0  0  0  0  0  0  0  0  0  0
    7.9951   -4.9109   25.6864 C   0  0  0  0  0  0  0  0  0  0  0  0
    7.2108   -5.4424   26.2290 H   0  0  0  0  0  0  0  0  0  0  0  0
    7.6479   -4.0002   24.6747 C   0  0  0  0  0  0  0  0  0  0  0  0
    6.2137   -3.8694   24.2015 C   0  0  0  0  0  0  0  0  0  0  0  0
    6.0423   -4.4505   22.9983 F   0  0  0  0  0  0  0  0  0  0  0  0
    5.8206   -2.5879   24.0751 F   0  0  0  0  0  0  0  0  0  0  0  0
    5.3420   -4.4516   25.0533 F   0  0  0  0  0  0  0  0  0  0  0  0
    8.2054   -0.9330   23.3643 C   0  0  0  0  0  0  0  0  0  0  0  0
    9.2050   -0.4804   23.5388 H   0  0  0  0  0  0  0  0  0  0  0  0
    7.6733   -0.8499   24.3270 H   0  0  0  0  0  0  0  0  0  0  0  0
  1  2  1  0
  2  3  2  0
  3  4  1  0
  4  5  2  0
  5  6  1  0
  5  7  1  0
  7  8  2  0
  8  9  1  0
  8 10  1  0
 10 11  1  0
 10 12  2  0
 12 13  1  0
  3 14  1  0
 14 15  1  0
 14 16  1  0
 16 17  2  0
 16 18  1  0
 18 19  1  0
 19 20  2  0
 20 21  1  0
 20 22  1  0
 22 23  1  0
 22 24  2  0
 24 25  1  0
 24 26  1  0
 26 27  1  0
 26 28  2  0
 28 29  1  0
 29 30  1  0
 29 31  1  0
 29 32  1  0
 18 33  1  0
 33 34  1  0
 33 35  1  0
 33  2  1  0
 12  4  1  0
 28 19  1  0
M  END
>  <cnnaffinity>  (1) 
-5.58865

>  <filename>  (1) 
O=C1NC(c2cccnc2)=CCN1c1ccccc1C(F)(F)F

$$$$
