
     RDKit          3D

 32 34  0  0  0  0  0  0  0  0999 V2000
    6.6801   -4.2826   26.6751 H   0  0  0  0  0  0  0  0  0  0  0  0
    6.3379   -4.1778   25.6465 C   0  0  0  0  0  0  0  0  0  0  0  0
    6.9402   -3.2739   24.8821 N   0  0  0  0  0  0  0  0  0  0  0  0
    6.5590   -3.2458   23.6086 C   0  0  0  0  0  0  0  0  0  0  0  0
    7.2290   -2.3652   22.7750 N   0  0  0  0  0  0  0  0  0  0  0  0
    6.6128   -1.6555   21.7452 C   0  0  0  0  0  0  0  0  0  0  0  0
    5.5577   -1.8778   21.5531 H   0  0  0  0  0  0  0  0  0  0  0  0
    7.2973   -0.7551   20.9959 C   0  0  0  0  0  0  0  0  0  0  0  0
    6.6123   -0.0182   19.8820 C   0  0  0  0  0  0  0  0  0  0  0  0
    7.1340    0.0409   18.5673 C   0  0  0  0  0  0  0  0  0  0  0  0
    8.0693   -0.4684   18.3468 H   0  0  0  0  0  0  0  0  0  0  0  0
    6.5508    0.6765   17.5408 N   0  0  0  0  0  0  0  0  0  0  0  0
    5.4008    1.3195   17.7887 C   0  0  0  0  0  0  0  0  0  0  0  0
    4.9545    1.8476   16.9471 H   0  0  0  0  0  0  0  0  0  0  0  0
    4.7751    1.3236   19.0402 C   0  0  0  0  0  0  0  0  0  0  0  0
    3.8426    1.8648   19.1722 H   0  0  0  0  0  0  0  0  0  0  0  0
    5.3793    0.6305   20.0930 C   0  0  0  0  0  0  0  0  0  0  0  0
    4.9105    0.6090   21.0779 H   0  0  0  0  0  0  0  0  0  0  0  0
    8.7361   -0.5268   21.3317 C   0  0  0  0  0  0  0  0  0  0  0  0
    9.5664    0.1233   20.7300 O   0  0  0  0  0  0  0  0  0  0  0  0
    9.1545   -1.1640   22.4947 N   0  0  0  0  0  0  0  0  0  0  0  0
   10.1513   -1.1701   22.5817 H   0  0  0  0  0  0  0  0  0  0  0  0
    8.6086   -2.3013   22.9959 C   0  0  0  0  0  0  0  0  0  0  0  0
    9.2841   -3.1380   23.5302 O   0  0  0  0  0  0  0  0  0  0  0  0
    5.5788   -3.9428   23.0642 N   0  0  0  0  0  0  0  0  0  0  0  0
    4.9371   -4.8290   23.8514 C   0  0  0  0  0  0  0  0  0  0  0  0
    3.7208   -5.6232   23.2931 C   0  0  0  0  0  0  0  0  0  0  0  0
    3.4956   -5.4014   22.0007 F   0  0  0  0  0  0  0  0  0  0  0  0
    3.8929   -6.9519   23.4577 F   0  0  0  0  0  0  0  0  0  0  0  0
    2.5926   -5.3022   23.9638 F   0  0  0  0  0  0  0  0  0  0  0  0
    5.3211   -5.0090   25.1765 C   0  0  0  0  0  0  0  0  0  0  0  0
    4.8409   -5.7384   25.8110 H   0  0  0  0  0  0  0  0  0  0  0  0
  1  2  1  0
  2  3  2  0
  3  4  1  0
  4  5  1  0
  5  6  1  0
  6  7  1  0
  6  8  2  0
  8  9  1  0
  9 10  2  0
 10 11  1  0
 10 12  1  0
 12 13  2  0
 13 14  1  0
 13 15  1  0
 15 16  1  0
 15 17  2  0
 17 18  1  0
  8 19  1  0
 19 20  2  0
 19 21  1  0
 21 22  1  0
 21 23  1  0
 23 24  2  0
  4 25  2  0
 25 26  1  0
 26 27  1  0
 27 28  1  0
 27 29  1  0
 27 30  1  0
 26 31  2  0
 31 32  1  0
 31  2  1  0
 23  5  1  0
 17  9  1  0
M  END
>  <cnnaffinity>  (1) 
-5.59769

>  <filename>  (1) 
O=c1[nH]c(=O)n(-c2nccc(C(F)(F)F)n2)cc1-c1cccnc1

$$$$
