
     RDKit          3D

 33 35  0  0  0  0  0  0  0  0999 V2000
    4.8838    1.7864   16.8991 H   0  0  0  0  0  0  0  0  0  0  0  0
    5.3412    1.3754   17.7942 C   0  0  0  0  0  0  0  0  0  0  0  0
    6.5511    0.8294   17.6141 N   0  0  0  0  0  0  0  0  0  0  0  0
    7.1559    0.3138   18.6881 C   0  0  0  0  0  0  0  0  0  0  0  0
    8.1362   -0.1220   18.4958 H   0  0  0  0  0  0  0  0  0  0  0  0
    6.6068    0.3242   19.9886 C   0  0  0  0  0  0  0  0  0  0  0  0
    7.2843   -0.4240   21.0826 C   0  0  0  0  0  0  0  0  0  0  0  0
    7.5566    0.4186   22.5900 S   0  0  0  0  0  0  0  0  0  0  0  0
    8.2169   -0.8499   23.6002 C   0  0  0  0  0  0  0  0  0  0  0  0
    8.3726   -0.5253   25.0514 C   0  0  0  0  0  0  0  0  0  0  0  0
    9.6835   -0.3591   25.5406 C   0  0  0  0  0  0  0  0  0  0  0  0
   10.5149   -0.3910   24.8394 H   0  0  0  0  0  0  0  0  0  0  0  0
    9.9157   -0.1620   26.9012 C   0  0  0  0  0  0  0  0  0  0  0  0
   10.9340   -0.0470   27.2641 H   0  0  0  0  0  0  0  0  0  0  0  0
    8.8399   -0.1097   27.7933 C   0  0  0  0  0  0  0  0  0  0  0  0
    9.0162    0.0700   28.8537 H   0  0  0  0  0  0  0  0  0  0  0  0
    7.5362   -0.2809   27.3281 C   0  0  0  0  0  0  0  0  0  0  0  0
    6.7117   -0.2450   28.0369 H   0  0  0  0  0  0  0  0  0  0  0  0
    7.2892   -0.5185   25.9652 C   0  0  0  0  0  0  0  0  0  0  0  0
    5.8780   -0.8067   25.4791 C   0  0  0  0  0  0  0  0  0  0  0  0
    5.0278   -1.0539   26.4947 F   0  0  0  0  0  0  0  0  0  0  0  0
    5.3730    0.2358   24.7899 F   0  0  0  0  0  0  0  0  0  0  0  0
    5.8405   -1.8775   24.6610 F   0  0  0  0  0  0  0  0  0  0  0  0
    8.6108   -2.0633   23.1456 C   0  0  0  0  0  0  0  0  0  0  0  0
    9.1339   -2.7574   23.7999 H   0  0  0  0  0  0  0  0  0  0  0  0
    8.2674   -2.6097   21.8335 C   0  0  0  0  0  0  0  0  0  0  0  0
    8.5036   -3.7778   21.5432 O   0  0  0  0  0  0  0  0  0  0  0  0
    7.6207   -1.7120   20.8795 C   0  0  0  0  0  0  0  0  0  0  0  0
    7.4037   -2.1602   19.9245 H   0  0  0  0  0  0  0  0  0  0  0  0
    5.3573    0.9379   20.1608 C   0  0  0  0  0  0  0  0  0  0  0  0
    4.9215    0.9981   21.1594 H   0  0  0  0  0  0  0  0  0  0  0  0
    4.7044    1.4522   19.0372 C   0  0  0  0  0  0  0  0  0  0  0  0
    3.7379    1.9344   19.1082 H   0  0  0  0  0  0  0  0  0  0  0  0
  1  2  1  0
  2  3  2  0
  3  4  1  0
  4  5  1  0
  4  6  2  0
  6  7  1  0
  7  8  1  0
  8  9  1  0
  9 10  1  0
 10 11  2  0
 11 12  1  0
 11 13  1  0
 13 14  1  0
 13 15  2  0
 15 16  1  0
 15 17  1  0
 17 18  1  0
 17 19  2  0
 19 20  1  0
 20 21  1  0
 20 22  1  0
 20 23  1  0
  9 24  2  0
 24 25  1  0
 24 26  1  0
 26 27  2  0
 26 28  1  0
 28 29  1  0
  6 30  1  0
 30 31  1  0
 30 32  2  0
 32 33  1  0
 32  2  1  0
 28  7  2  0
 19 10  1  0
M  END
>  <cnnaffinity>  (1) 
-5.62599

>  <filename>  (1) 
O=c1cc(-c2cccnc2)sc(-c2ccccc2C(F)(F)F)c1

$$$$
