
     RDKit          3D

 34 37  0  0  0  0  0  0  0  0999 V2000
    4.9678    1.9170   16.9422 H   0  0  0  0  0  0  0  0  0  0  0  0
    5.3994    1.3617   17.7713 C   0  0  0  0  0  0  0  0  0  0  0  0
    6.5530    0.7213   17.5156 N   0  0  0  0  0  0  0  0  0  0  0  0
    7.1087    0.0229   18.5114 C   0  0  0  0  0  0  0  0  0  0  0  0
    8.0683   -0.4558   18.3015 H   0  0  0  0  0  0  0  0  0  0  0  0
    6.5204   -0.1143   19.7871 C   0  0  0  0  0  0  0  0  0  0  0  0
    7.1827   -0.8598   20.8361 N   0  0  0  0  0  0  0  0  0  0  0  0
    8.4606   -0.4584   21.1790 C   0  0  0  0  0  0  0  0  0  0  0  0
    8.8467    0.3887   20.6116 H   0  0  0  0  0  0  0  0  0  0  0  0
    9.2026   -1.0607   22.1390 C   0  0  0  0  0  0  0  0  0  0  0  0
   10.5611   -0.5335   22.3963 C   0  0  0  0  0  0  0  0  0  0  0  0
   11.7290   -1.3489   22.2736 C   0  0  0  0  0  0  0  0  0  0  0  0
   11.5839   -2.4079   22.0739 H   0  0  0  0  0  0  0  0  0  0  0  0
   13.0069   -0.8114   22.3996 C   0  0  0  0  0  0  0  0  0  0  0  0
   13.9147   -1.3950   22.2771 H   0  0  0  0  0  0  0  0  0  0  0  0
   13.0960    0.5667   22.6945 C   0  0  0  0  0  0  0  0  0  0  0  0
   11.9595    1.3892   22.8074 C   0  0  0  0  0  0  0  0  0  0  0  0
   12.4730    2.6893   23.0730 C   0  0  0  0  0  0  0  0  0  0  0  0
   11.9068    3.6026   23.1996 H   0  0  0  0  0  0  0  0  0  0  0  0
   13.7828    2.6743   23.1529 N   0  0  0  0  0  0  0  0  0  0  0  0
   14.1546    1.3924   22.9113 N   0  0  0  0  0  0  0  0  0  0  0  0
   15.1074    1.1113   23.0668 H   0  0  0  0  0  0  0  0  0  0  0  0
   10.6816    0.8306   22.6591 C   0  0  0  0  0  0  0  0  0  0  0  0
    9.7994    1.4464   22.8069 H   0  0  0  0  0  0  0  0  0  0  0  0
    8.5973   -2.1759   22.9038 C   0  0  0  0  0  0  0  0  0  0  0  0
    9.0950   -2.8719   23.7606 O   0  0  0  0  0  0  0  0  0  0  0  0
    7.2725   -2.4019   22.5837 N   0  0  0  0  0  0  0  0  0  0  0  0
    6.8232   -3.1486   23.0737 H   0  0  0  0  0  0  0  0  0  0  0  0
    6.5388   -1.8981   21.5571 C   0  0  0  0  0  0  0  0  0  0  0  0
    5.4480   -2.3563   21.3104 O   0  0  0  0  0  0  0  0  0  0  0  0
    5.3356    0.5779   20.0495 C   0  0  0  0  0  0  0  0  0  0  0  0
    4.8974    0.5435   21.0448 H   0  0  0  0  0  0  0  0  0  0  0  0
    4.7662    1.3303   19.0166 C   0  0  0  0  0  0  0  0  0  0  0  0
    3.8527    1.8928   19.1692 H   0  0  0  0  0  0  0  0  0  0  0  0
  1  2  1  0
  2  3  2  0
  3  4  1  0
  4  5  1  0
  4  6  2  0
  6  7  1  0
  7  8  1  0
  8  9  1  0
  8 10  2  0
 10 11  1  0
 11 12  2  0
 12 13  1  0
 12 14  1  0
 14 15  1  0
 14 16  2  0
 16 17  1  0
 17 18  1  0
 18 19  1  0
 18 20  2  0
 20 21  1  0
 21 22  1  0
 17 23  2  0
 23 24  1  0
 10 25  1  0
 25 26  2  0
 25 27  1  0
 27 28  1  0
 27 29  1  0
 29 30  2  0
  6 31  1  0
 31 32  1  0
 31 33  2  0
 33 34  1  0
 33  2  1  0
 29  7  1  0
 23 11  1  0
 21 16  1  0
M  END
>  <cnnaffinity>  (1) 
-6.04679

>  <filename>  (1) 
O=c1[nH]c(=O)n(-c2cccnc2)cc1-c1ccc2[nH]ncc2c1

$$$$
