
     RDKit          3D

 36 39  0  0  0  0  0  0  0  0999 V2000
    4.9228    1.8083   16.9683 H   0  0  0  0  0  0  0  0  0  0  0  0
    5.3864    1.3060   17.8160 C   0  0  0  0  0  0  0  0  0  0  0  0
    6.5475    0.6833   17.5589 N   0  0  0  0  0  0  0  0  0  0  0  0
    7.1524    0.0708   18.5839 C   0  0  0  0  0  0  0  0  0  0  0  0
    8.0980   -0.4169   18.3482 H   0  0  0  0  0  0  0  0  0  0  0  0
    6.6431    0.0091   19.8961 C   0  0  0  0  0  0  0  0  0  0  0  0
    7.3585   -0.7184   20.9798 C   0  0  0  0  0  0  0  0  0  0  0  0
    8.7710   -0.5831   21.1519 C   0  0  0  0  0  0  0  0  0  0  0  0
    9.2989    0.0851   20.4727 H   0  0  0  0  0  0  0  0  0  0  0  0
    9.4087   -1.2502   22.1554 C   0  0  0  0  0  0  0  0  0  0  0  0
   10.4722   -1.1870   22.3324 H   0  0  0  0  0  0  0  0  0  0  0  0
    8.7014   -2.1285   23.0819 C   0  0  0  0  0  0  0  0  0  0  0  0
    9.2409   -2.7481   23.9816 O   0  0  0  0  0  0  0  0  0  0  0  0
    7.2986   -2.2271   22.8600 N   0  0  0  0  0  0  0  0  0  0  0  0
    6.5435   -3.0679   23.7261 C   0  0  0  0  0  0  0  0  0  0  0  0
    5.7082   -3.8998   23.1627 N   0  0  0  0  0  0  0  0  0  0  0  0
    4.9703   -4.7159   23.9899 C   0  0  0  0  0  0  0  0  0  0  0  0
    4.0725   -5.6528   23.3979 C   0  0  0  0  0  0  0  0  0  0  0  0
    4.0386   -5.6729   22.3119 H   0  0  0  0  0  0  0  0  0  0  0  0
    3.2931   -6.4718   24.1885 C   0  0  0  0  0  0  0  0  0  0  0  0
    2.6059   -7.1831   23.7361 H   0  0  0  0  0  0  0  0  0  0  0  0
    3.3719   -6.3975   25.6088 C   0  0  0  0  0  0  0  0  0  0  0  0
    2.7504   -7.0540   26.2144 H   0  0  0  0  0  0  0  0  0  0  0  0
    4.2275   -5.5031   26.2085 C   0  0  0  0  0  0  0  0  0  0  0  0
    4.2959   -5.4356   27.2921 H   0  0  0  0  0  0  0  0  0  0  0  0
    5.0434   -4.6430   25.4176 C   0  0  0  0  0  0  0  0  0  0  0  0
    5.9424   -3.6833   25.9761 C   0  0  0  0  0  0  0  0  0  0  0  0
    6.0173   -3.5998   27.0612 H   0  0  0  0  0  0  0  0  0  0  0  0
    6.6974   -2.9068   25.1348 C   0  0  0  0  0  0  0  0  0  0  0  0
    7.4082   -2.1732   25.4806 H   0  0  0  0  0  0  0  0  0  0  0  0
    6.6805   -1.5386   21.8345 C   0  0  0  0  0  0  0  0  0  0  0  0
    5.6110   -1.6996   21.7310 H   0  0  0  0  0  0  0  0  0  0  0  0
    5.4206    0.6546   20.1369 C   0  0  0  0  0  0  0  0  0  0  0  0
    5.0061    0.6486   21.1466 H   0  0  0  0  0  0  0  0  0  0  0  0
    4.7922    1.3218   19.0835 C   0  0  0  0  0  0  0  0  0  0  0  0
    3.8624    1.8546   19.2292 H   0  0  0  0  0  0  0  0  0  0  0  0
  1  2  1  0
  2  3  2  0
  3  4  1  0
  4  5  1  0
  4  6  2  0
  6  7  1  0
  7  8  1  0
  8  9  1  0
  8 10  2  0
 10 11  1  0
 10 12  1  0
 12 13  2  0
 12 14  1  0
 14 15  1  0
 15 16  2  0
 16 17  1  0
 17 18  2  0
 18 19  1  0
 18 20  1  0
 20 21  1  0
 20 22  2  0
 22 23  1  0
 22 24  1  0
 24 25  1  0
 24 26  2  0
 26 27  1  0
 27 28  1  0
 27 29  2  0
 29 30  1  0
 14 31  1  0
 31 32  1  0
  6 33  1  0
 33 34  1  0
 33 35  2  0
 35 36  1  0
 35  2  1  0
 31  7  2  0
 29 15  1  0
 26 17  1  0
M  END
>  <cnnaffinity>  (1) 
-5.45765

>  <filename>  (1) 
O=c1ccc(-c2cccnc2)cn1-c1ccc2ccccc2n1

$$$$
