
     RDKit          3D

 26 28  0  0  0  0  0  0  0  0999 V2000
    4.9226    1.7939   16.9794 H   0  0  0  0  0  0  0  0  0  0  0  0
    5.3952    1.2964   17.8249 C   0  0  0  0  0  0  0  0  0  0  0  0
    6.5602    0.6751   17.5720 N   0  0  0  0  0  0  0  0  0  0  0  0
    7.1645    0.0547   18.5939 C   0  0  0  0  0  0  0  0  0  0  0  0
    8.1221   -0.4064   18.3487 H   0  0  0  0  0  0  0  0  0  0  0  0
    6.6506    0.0058   19.9040 C   0  0  0  0  0  0  0  0  0  0  0  0
    7.3387   -0.6535   21.0172 C   0  0  0  0  0  0  0  0  0  0  0  0
    7.2401   -0.4324   22.3425 C   0  0  0  0  0  0  0  0  0  0  0  0
    6.6536    0.3174   22.8502 H   0  0  0  0  0  0  0  0  0  0  0  0
    8.0886   -1.3227   23.0068 N   0  0  0  0  0  0  0  0  0  0  0  0
    8.2780   -1.4118   24.3965 C   0  0  0  0  0  0  0  0  0  0  0  0
    7.3802   -0.4067   25.4827 S   0  0  0  0  0  0  0  0  0  0  0  0
    8.1674   -1.1092   26.8461 C   0  0  0  0  0  0  0  0  0  0  0  0
    7.9274   -0.7683   27.8416 H   0  0  0  0  0  0  0  0  0  0  0  0
    9.0631   -2.0631   26.4737 C   0  0  0  0  0  0  0  0  0  0  0  0
    9.6604   -2.6273   27.1789 H   0  0  0  0  0  0  0  0  0  0  0  0
    9.1341   -2.2391   25.0621 C   0  0  0  0  0  0  0  0  0  0  0  0
    9.7724   -2.9333   24.5330 H   0  0  0  0  0  0  0  0  0  0  0  0
    8.7293   -2.1333   22.0505 C   0  0  0  0  0  0  0  0  0  0  0  0
    9.5075   -3.0504   22.1892 O   0  0  0  0  0  0  0  0  0  0  0  0
    8.2647   -1.6689   20.8509 N   0  0  0  0  0  0  0  0  0  0  0  0
    8.5302   -2.1563   20.0199 H   0  0  0  0  0  0  0  0  0  0  0  0
    5.4304    0.6599   20.1413 C   0  0  0  0  0  0  0  0  0  0  0  0
    4.9922    0.6395   21.1398 H   0  0  0  0  0  0  0  0  0  0  0  0
    4.7977    1.3164   19.0894 C   0  0  0  0  0  0  0  0  0  0  0  0
    3.8660    1.8498   19.2400 H   0  0  0  0  0  0  0  0  0  0  0  0
  1  2  1  0
  2  3  2  0
  3  4  1  0
  4  5  1  0
  4  6  2  0
  6  7  1  0
  7  8  2  0
  8  9  1  0
  8 10  1  0
 10 11  1  0
 11 12  1  0
 12 13  1  0
 13 14  1  0
 13 15  2  0
 15 16  1  0
 15 17  1  0
 17 18  1  0
 10 19  1  0
 19 20  2  0
 19 21  1  0
 21 22  1  0
  6 23  1  0
 23 24  1  0
 23 25  2  0
 25 26  1  0
 25  2  1  0
 21  7  1  0
 17 11  2  0
M  END
>  <cnnaffinity>  (1) 
-5.01173

>  <filename>  (1) 
O=c1[nH]c(-c2cccnc2)cn1-c1cccs1

$$$$
