
     RDKit          3D

 32 34  0  0  0  0  0  0  0  0999 V2000
    4.9141    1.7766   16.9984 H   0  0  0  0  0  0  0  0  0  0  0  0
    5.4015    1.2930   17.8381 C   0  0  0  0  0  0  0  0  0  0  0  0
    6.5672    0.6789   17.5770 N   0  0  0  0  0  0  0  0  0  0  0  0
    7.1682    0.0660   18.6011 C   0  0  0  0  0  0  0  0  0  0  0  0
    8.1123   -0.4308   18.3804 H   0  0  0  0  0  0  0  0  0  0  0  0
    6.6398    0.0115   19.8980 C   0  0  0  0  0  0  0  0  0  0  0  0
    7.3859   -0.6898   20.9361 C   0  0  0  0  0  0  0  0  0  0  0  0
    8.7119   -0.9469   21.0063 C   0  0  0  0  0  0  0  0  0  0  0  0
    9.4897   -0.6547   20.3258 H   0  0  0  0  0  0  0  0  0  0  0  0
    8.9922   -1.6430   22.2380 C   0  0  0  0  0  0  0  0  0  0  0  0
   10.0493   -2.0456   22.6929 O   0  0  0  0  0  0  0  0  0  0  0  0
    7.7263   -1.7642   22.8491 N   0  0  0  0  0  0  0  0  0  0  0  0
    7.4700   -2.3925   24.1022 C   0  0  0  0  0  0  0  0  0  0  0  0
    8.1007   -1.8563   25.2293 C   0  0  0  0  0  0  0  0  0  0  0  0
    8.7647   -1.0074   25.1032 H   0  0  0  0  0  0  0  0  0  0  0  0
    7.8523   -2.3883   26.4950 C   0  0  0  0  0  0  0  0  0  0  0  0
    8.3376   -1.9553   27.3656 H   0  0  0  0  0  0  0  0  0  0  0  0
    6.9817   -3.4702   26.6374 C   0  0  0  0  0  0  0  0  0  0  0  0
    6.7814   -3.8839   27.6197 H   0  0  0  0  0  0  0  0  0  0  0  0
    6.3717   -4.0323   25.5179 C   0  0  0  0  0  0  0  0  0  0  0  0
    5.6951   -4.8758   25.6443 H   0  0  0  0  0  0  0  0  0  0  0  0
    6.6336   -3.5238   24.2335 C   0  0  0  0  0  0  0  0  0  0  0  0
    5.9734   -4.1643   23.0264 C   0  0  0  0  0  0  0  0  0  0  0  0
    6.7537   -4.1848   21.9351 F   0  0  0  0  0  0  0  0  0  0  0  0
    4.8252   -3.5304   22.6847 F   0  0  0  0  0  0  0  0  0  0  0  0
    5.6269   -5.4466   23.2611 F   0  0  0  0  0  0  0  0  0  0  0  0
    6.7652   -1.1784   22.0348 N   0  0  0  0  0  0  0  0  0  0  0  0
    5.7854   -1.1790   22.2937 H   0  0  0  0  0  0  0  0  0  0  0  0
    5.4236    0.6587   20.1529 C   0  0  0  0  0  0  0  0  0  0  0  0
    5.0003    0.6428   21.1615 H   0  0  0  0  0  0  0  0  0  0  0  0
    4.7985    1.3174   19.1029 C   0  0  0  0  0  0  0  0  0  0  0  0
    3.8675    1.8485   19.2603 H   0  0  0  0  0  0  0  0  0  0  0  0
  1  2  1  0
  2  3  2  0
  3  4  1  0
  4  5  1  0
  4  6  2  0
  6  7  1  0
  7  8  2  0
  8  9  1  0
  8 10  1  0
 10 11  2  0
 10 12  1  0
 12 13  1  0
 13 14  2  0
 14 15  1  0
 14 16  1  0
 16 17  1  0
 16 18  2  0
 18 19  1  0
 18 20  1  0
 20 21  1  0
 20 22  2  0
 22 23  1  0
 23 24  1  0
 23 25  1  0
 23 26  1  0
 12 27  1  0
 27 28  1  0
  6 29  1  0
 29 30  1  0
 29 31  2  0
 31 32  1  0
 31  2  1  0
 27  7  1  0
 22 13  1  0
M  END
>  <cnnaffinity>  (1) 
-5.33712

>  <filename>  (1) 
O=c1cc(-c2cccnc2)[nH]n1-c1ccccc1C(F)(F)F

$$$$
