
     RDKit          3D

 33 35  0  0  0  0  0  0  0  0999 V2000
    4.9359    1.7825   16.9677 H   0  0  0  0  0  0  0  0  0  0  0  0
    5.4374    1.3187   17.8131 C   0  0  0  0  0  0  0  0  0  0  0  0
    6.6139    0.7307   17.5455 N   0  0  0  0  0  0  0  0  0  0  0  0
    7.2450    0.1241   18.5571 C   0  0  0  0  0  0  0  0  0  0  0  0
    8.1975   -0.3453   18.3169 H   0  0  0  0  0  0  0  0  0  0  0  0
    6.7208    0.0361   19.8585 C   0  0  0  0  0  0  0  0  0  0  0  0
    7.4543   -0.7664   20.8869 C   0  0  0  0  0  0  0  0  0  0  0  0
    8.7494   -0.5473   20.9696 N   0  0  0  0  0  0  0  0  0  0  0  0
    9.4670   -1.1568   21.9510 N   0  0  0  0  0  0  0  0  0  0  0  0
   10.8915   -0.8004   21.9832 C   0  0  0  0  0  0  0  0  0  0  0  0
   11.2377   -0.8955   20.9515 H   0  0  0  0  0  0  0  0  0  0  0  0
   11.4210   -1.5588   22.5654 H   0  0  0  0  0  0  0  0  0  0  0  0
   11.1571    0.6012   22.5123 C   0  0  0  0  0  0  0  0  0  0  0  0
   11.2484    1.6855   21.6213 C   0  0  0  0  0  0  0  0  0  0  0  0
   11.0973    1.5274   20.5613 H   0  0  0  0  0  0  0  0  0  0  0  0
   11.4996    2.9824   22.0669 C   0  0  0  0  0  0  0  0  0  0  0  0
   11.6373    3.7838   21.3478 H   0  0  0  0  0  0  0  0  0  0  0  0
   11.6038    3.2383   23.4333 C   0  0  0  0  0  0  0  0  0  0  0  0
   11.7153    4.2588   23.7889 H   0  0  0  0  0  0  0  0  0  0  0  0
   11.5119    2.1822   24.3396 C   0  0  0  0  0  0  0  0  0  0  0  0
   11.6236    2.3220   25.4028 H   0  0  0  0  0  0  0  0  0  0  0  0
   11.2881    0.8838   23.8809 C   0  0  0  0  0  0  0  0  0  0  0  0
   11.1879   -0.3625   25.0996 Cl  0  0  0  0  0  0  0  0  0  0  0  0
    8.8858   -1.9228   22.9211 C   0  0  0  0  0  0  0  0  0  0  0  0
    9.5558   -2.3200   23.6906 H   0  0  0  0  0  0  0  0  0  0  0  0
    7.5709   -2.2217   22.8937 C   0  0  0  0  0  0  0  0  0  0  0  0
    7.0970   -2.8266   23.6533 H   0  0  0  0  0  0  0  0  0  0  0  0
    6.7481   -1.7958   21.7694 C   0  0  0  0  0  0  0  0  0  0  0  0
    5.6230   -2.2482   21.5758 O   0  0  0  0  0  0  0  0  0  0  0  0
    5.4943    0.6749   20.1224 C   0  0  0  0  0  0  0  0  0  0  0  0
    5.0471    0.6188   21.1177 H   0  0  0  0  0  0  0  0  0  0  0  0
    4.8449    1.3320   19.0784 C   0  0  0  0  0  0  0  0  0  0  0  0
    3.8861    1.8230   19.2194 H   0  0  0  0  0  0  0  0  0  0  0  0
  1  2  1  0
  2  3  2  0
  3  4  1  0
  4  5  1  0
  4  6  2  0
  6  7  1  0
  7  8  2  0
  8  9  1  0
  9 10  1  0
 10 11  1  0
 10 12  1  0
 10 13  1  0
 13 14  2  0
 14 15  1  0
 14 16  1  0
 16 17  1  0
 16 18  2  0
 18 19  1  0
 18 20  1  0
 20 21  1  0
 20 22  2  0
 22 23  1  0
  9 24  1  0
 24 25  1  0
 24 26  2  0
 26 27  1  0
 26 28  1  0
 28 29  2  0
  6 30  1  0
 30 31  1  0
 30 32  2  0
 32 33  1  0
 32  2  1  0
 28  7  1  0
 22 13  1  0
M  END
>  <cnnaffinity>  (1) 
-5.54241

>  <filename>  (1) 
O=c1ccn(Cc2ccccc2Cl)nc1-c1cccnc1

$$$$
