
     RDKit          3D

 36 39  0  0  0  0  0  0  0  0999 V2000
    4.9912    1.8481   16.9167 H   0  0  0  0  0  0  0  0  0  0  0  0
    5.4407    1.3217   17.7564 C   0  0  0  0  0  0  0  0  0  0  0  0
    6.5910    0.6770   17.5067 N   0  0  0  0  0  0  0  0  0  0  0  0
    7.1794    0.0390   18.5303 C   0  0  0  0  0  0  0  0  0  0  0  0
    8.1030   -0.4816   18.2755 H   0  0  0  0  0  0  0  0  0  0  0  0
    6.6689   -0.0059   19.8454 C   0  0  0  0  0  0  0  0  0  0  0  0
    7.3660   -0.7192   20.9656 C   0  0  0  0  0  0  0  0  0  0  0  0
    6.6306   -1.5654   21.8591 C   0  0  0  0  0  0  0  0  0  0  0  0
    5.5638   -1.7118   21.6823 H   0  0  0  0  0  0  0  0  0  0  0  0
    7.2471   -2.2139   22.8833 C   0  0  0  0  0  0  0  0  0  0  0  0
    6.7394   -2.8825   23.5650 H   0  0  0  0  0  0  0  0  0  0  0  0
    8.6726   -2.0957   23.1378 C   0  0  0  0  0  0  0  0  0  0  0  0
    9.2592   -2.7546   23.9809 O   0  0  0  0  0  0  0  0  0  0  0  0
    9.3473   -1.1484   22.2900 N   0  0  0  0  0  0  0  0  0  0  0  0
   10.7675   -0.9173   22.4437 C   0  0  0  0  0  0  0  0  0  0  0  0
   11.6527   -1.9032   22.0714 C   0  0  0  0  0  0  0  0  0  0  0  0
   11.2456   -2.8665   21.8086 H   0  0  0  0  0  0  0  0  0  0  0  0
   13.0065   -1.7767   22.0341 N   0  0  0  0  0  0  0  0  0  0  0  0
   13.5132   -0.6152   22.3767 C   0  0  0  0  0  0  0  0  0  0  0  0
   14.5942   -0.5172   22.3371 H   0  0  0  0  0  0  0  0  0  0  0  0
   12.7335    0.5038   22.8031 C   0  0  0  0  0  0  0  0  0  0  0  0
   13.3185    1.7620   23.1292 C   0  0  0  0  0  0  0  0  0  0  0  0
   14.3918    1.8835   23.0110 H   0  0  0  0  0  0  0  0  0  0  0  0
   12.5280    2.7967   23.5660 C   0  0  0  0  0  0  0  0  0  0  0  0
   12.9619    3.7662   23.7906 H   0  0  0  0  0  0  0  0  0  0  0  0
   11.1286    2.6267   23.7154 C   0  0  0  0  0  0  0  0  0  0  0  0
   10.5234    3.4719   24.0369 H   0  0  0  0  0  0  0  0  0  0  0  0
   10.5424    1.4175   23.4121 C   0  0  0  0  0  0  0  0  0  0  0  0
    9.4878    1.2460   23.5770 H   0  0  0  0  0  0  0  0  0  0  0  0
   11.3177    0.3368   22.8979 C   0  0  0  0  0  0  0  0  0  0  0  0
    8.7066   -0.5747   21.1990 C   0  0  0  0  0  0  0  0  0  0  0  0
    9.3515   -0.0009   20.5427 H   0  0  0  0  0  0  0  0  0  0  0  0
    5.4508    0.6630   20.0634 C   0  0  0  0  0  0  0  0  0  0  0  0
    5.0148    0.6703   21.0613 H   0  0  0  0  0  0  0  0  0  0  0  0
    4.8285    1.3370   19.0117 C   0  0  0  0  0  0  0  0  0  0  0  0
    3.8965    1.8737   19.1530 H   0  0  0  0  0  0  0  0  0  0  0  0
  1  2  1  0
  2  3  2  0
  3  4  1  0
  4  5  1  0
  4  6  2  0
  6  7  1  0
  7  8  1  0
  8  9  1  0
  8 10  2  0
 10 11  1  0
 10 12  1  0
 12 13  2  0
 12 14  1  0
 14 15  1  0
 15 16  2  0
 16 17  1  0
 16 18  1  0
 18 19  2  0
 19 20  1  0
 19 21  1  0
 21 22  2  0
 22 23  1  0
 22 24  1  0
 24 25  1  0
 24 26  2  0
 26 27  1  0
 26 28  1  0
 28 29  1  0
 28 30  2  0
 14 31  1  0
 31 32  1  0
  6 33  1  0
 33 34  1  0
 33 35  2  0
 35 36  1  0
 35  2  1  0
 31  7  2  0
 30 15  1  0
 30 21  1  0
M  END
>  <cnnaffinity>  (1) 
-6.10078

>  <filename>  (1) 
O=c1ccc(-c2cccnc2)cn1-c1cncc2ccccc12

$$$$
