
     RDKit          3D

 33 35  0  0  0  0  0  0  0  0999 V2000
    4.9472    1.9321   16.7533 H   0  0  0  0  0  0  0  0  0  0  0  0
    5.3593    1.4396   17.6329 C   0  0  0  0  0  0  0  0  0  0  0  0
    6.5270    0.8002   17.4672 N   0  0  0  0  0  0  0  0  0  0  0  0
    7.0565    0.1910   18.5335 C   0  0  0  0  0  0  0  0  0  0  0  0
    8.0085   -0.3081   18.3601 H   0  0  0  0  0  0  0  0  0  0  0  0
    6.4583    0.1865   19.8048 C   0  0  0  0  0  0  0  0  0  0  0  0
    7.0900   -0.5712   20.9088 C   0  0  0  0  0  0  0  0  0  0  0  0
    7.5968   -1.7322   20.5973 N   0  0  0  0  0  0  0  0  0  0  0  0
    8.1914   -2.4709   21.5810 C   0  0  0  0  0  0  0  0  0  0  0  0
    8.6367   -3.5914   21.4522 O   0  0  0  0  0  0  0  0  0  0  0  0
    8.3284   -1.8881   22.8320 N   0  0  0  0  0  0  0  0  0  0  0  0
    8.8338   -2.5108   23.4372 H   0  0  0  0  0  0  0  0  0  0  0  0
    7.7440   -0.7255   23.2151 C   0  0  0  0  0  0  0  0  0  0  0  0
    7.8176   -0.3830   24.6731 C   0  0  0  0  0  0  0  0  0  0  0  0
    6.6397   -0.3996   25.4417 C   0  0  0  0  0  0  0  0  0  0  0  0
    5.6913   -0.6055   24.9534 H   0  0  0  0  0  0  0  0  0  0  0  0
    6.6842   -0.2066   26.8235 C   0  0  0  0  0  0  0  0  0  0  0  0
    5.7672   -0.2309   27.4033 H   0  0  0  0  0  0  0  0  0  0  0  0
    7.9067    0.0043   27.4593 C   0  0  0  0  0  0  0  0  0  0  0  0
    7.9454    0.1829   28.5276 H   0  0  0  0  0  0  0  0  0  0  0  0
    9.0889    0.0260   26.7220 C   0  0  0  0  0  0  0  0  0  0  0  0
   10.0408    0.1770   27.2283 H   0  0  0  0  0  0  0  0  0  0  0  0
    9.0533   -0.1354   25.3296 C   0  0  0  0  0  0  0  0  0  0  0  0
   10.3364   -0.0011   24.5262 C   0  0  0  0  0  0  0  0  0  0  0  0
   10.7565   -1.2058   24.0811 F   0  0  0  0  0  0  0  0  0  0  0  0
   11.3510    0.5158   25.2442 F   0  0  0  0  0  0  0  0  0  0  0  0
   10.1838    0.7739   23.4376 F   0  0  0  0  0  0  0  0  0  0  0  0
    7.1068   -0.0167   22.2318 C   0  0  0  0  0  0  0  0  0  0  0  0
    6.6812    0.9538   22.4466 H   0  0  0  0  0  0  0  0  0  0  0  0
    5.2541    0.8809   19.9685 C   0  0  0  0  0  0  0  0  0  0  0  0
    4.7788    0.9300   20.9513 H   0  0  0  0  0  0  0  0  0  0  0  0
    4.6832    1.4959   18.8571 C   0  0  0  0  0  0  0  0  0  0  0  0
    3.7476    2.0355   18.9406 H   0  0  0  0  0  0  0  0  0  0  0  0
  1  2  1  0
  2  3  2  0
  3  4  1  0
  4  5  1  0
  4  6  2  0
  6  7  1  0
  7  8  2  0
  8  9  1  0
  9 10  2  0
  9 11  1  0
 11 12  1  0
 11 13  1  0
 13 14  1  0
 14 15  2  0
 15 16  1  0
 15 17  1  0
 17 18  1  0
 17 19  2  0
 19 20  1  0
 19 21  1  0
 21 22  1  0
 21 23  2  0
 23 24  1  0
 24 25  1  0
 24 26  1  0
 24 27  1  0
 13 28  2  0
 28 29  1  0
  6 30  1  0
 30 31  1  0
 30 32  2  0
 32 33  1  0
 32  2  1  0
 28  7  1  0
 23 14  1  0
M  END
>  <cnnaffinity>  (1) 
-5.56327

>  <filename>  (1) 
O=c1nc(-c2cccnc2)cc(-c2ccccc2C(F)(F)F)[nH]1

$$$$
