
     RDKit          3D

 32 34  0  0  0  0  0  0  0  0999 V2000
    4.9068    1.7754   17.0021 H   0  0  0  0  0  0  0  0  0  0  0  0
    5.3978    1.2938   17.8432 C   0  0  0  0  0  0  0  0  0  0  0  0
    6.5632    0.6789   17.5802 N   0  0  0  0  0  0  0  0  0  0  0  0
    7.1809    0.0588   18.5925 C   0  0  0  0  0  0  0  0  0  0  0  0
    8.1297   -0.4313   18.3817 H   0  0  0  0  0  0  0  0  0  0  0  0
    6.6662    0.0025   19.9079 C   0  0  0  0  0  0  0  0  0  0  0  0
    7.3573   -0.6853   20.9487 N   0  0  0  0  0  0  0  0  0  0  0  0
    6.7684   -1.4478   21.9489 C   0  0  0  0  0  0  0  0  0  0  0  0
    5.7019   -1.5989   21.9863 H   0  0  0  0  0  0  0  0  0  0  0  0
    7.7388   -1.9381   22.7511 C   0  0  0  0  0  0  0  0  0  0  0  0
    7.6144   -2.7870   23.9285 C   0  0  0  0  0  0  0  0  0  0  0  0
    8.6917   -3.5419   24.4185 C   0  0  0  0  0  0  0  0  0  0  0  0
    9.6542   -3.5154   23.9188 H   0  0  0  0  0  0  0  0  0  0  0  0
    8.5342   -4.3475   25.5363 C   0  0  0  0  0  0  0  0  0  0  0  0
    9.3783   -4.9312   25.8907 H   0  0  0  0  0  0  0  0  0  0  0  0
    7.2946   -4.4028   26.1908 C   0  0  0  0  0  0  0  0  0  0  0  0
    7.1103   -5.3126   27.3751 C   0  0  0  0  0  0  0  0  0  0  0  0
    8.2408   -5.4649   28.0903 F   0  0  0  0  0  0  0  0  0  0  0  0
    6.7244   -6.5419   26.9827 F   0  0  0  0  0  0  0  0  0  0  0  0
    6.1685   -4.8647   28.2279 F   0  0  0  0  0  0  0  0  0  0  0  0
    6.2057   -3.6740   25.6924 C   0  0  0  0  0  0  0  0  0  0  0  0
    5.2318   -3.7291   26.1676 H   0  0  0  0  0  0  0  0  0  0  0  0
    6.3684   -2.8708   24.5747 C   0  0  0  0  0  0  0  0  0  0  0  0
    5.5238   -2.2947   24.2118 H   0  0  0  0  0  0  0  0  0  0  0  0
    8.9462   -1.4772   22.2336 N   0  0  0  0  0  0  0  0  0  0  0  0
    9.8732   -1.6073   22.5945 H   0  0  0  0  0  0  0  0  0  0  0  0
    8.7511   -0.6814   21.1347 C   0  0  0  0  0  0  0  0  0  0  0  0
    9.5925   -0.1072   20.4744 O   0  0  0  0  0  0  0  0  0  0  0  0
    5.4465    0.6458   20.1618 C   0  0  0  0  0  0  0  0  0  0  0  0
    5.0156    0.6294   21.1625 H   0  0  0  0  0  0  0  0  0  0  0  0
    4.8072    1.3119   19.1112 C   0  0  0  0  0  0  0  0  0  0  0  0
    3.8726    1.8447   19.2672 H   0  0  0  0  0  0  0  0  0  0  0  0
  1  2  1  0
  2  3  2  0
  3  4  1  0
  4  5  1  0
  4  6  2  0
  6  7  1  0
  7  8  1  0
  8  9  1  0
  8 10  2  0
 10 11  1  0
 11 12  2  0
 12 13  1  0
 12 14  1  0
 14 15  1  0
 14 16  2  0
 16 17  1  0
 17 18  1  0
 17 19  1  0
 17 20  1  0
 16 21  1  0
 21 22  1  0
 21 23  2  0
 23 24  1  0
 10 25  1  0
 25 26  1  0
 25 27  1  0
 27 28  2  0
  6 29  1  0
 29 30  1  0
 29 31  2  0
 31 32  1  0
 31  2  1  0
 27  7  1  0
 23 11  1  0
M  END
>  <cnnaffinity>  (1) 
-5.33297

>  <filename>  (1) 
O=c1[nH]c(-c2ccc(C(F)(F)F)cc2)cn1-c1cccnc1

$$$$
