
     RDKit          3D

 34 37  0  0  0  0  0  0  0  0999 V2000
    5.0063    1.8607   16.8917 H   0  0  0  0  0  0  0  0  0  0  0  0
    5.4263    1.3350   17.7452 C   0  0  0  0  0  0  0  0  0  0  0  0
    6.5686    0.6666   17.5118 N   0  0  0  0  0  0  0  0  0  0  0  0
    7.1174    0.0179   18.5461 C   0  0  0  0  0  0  0  0  0  0  0  0
    8.0534   -0.5057   18.3414 H   0  0  0  0  0  0  0  0  0  0  0  0
    6.5533   -0.0320   19.8362 C   0  0  0  0  0  0  0  0  0  0  0  0
    7.2301   -0.7519   20.9385 C   0  0  0  0  0  0  0  0  0  0  0  0
    6.5160   -1.6005   21.8419 C   0  0  0  0  0  0  0  0  0  0  0  0
    5.4458   -1.7441   21.6834 H   0  0  0  0  0  0  0  0  0  0  0  0
    7.1733   -2.2398   22.8494 C   0  0  0  0  0  0  0  0  0  0  0  0
    6.6917   -2.8797   23.5742 H   0  0  0  0  0  0  0  0  0  0  0  0
    8.6101   -2.1003   23.0581 C   0  0  0  0  0  0  0  0  0  0  0  0
    9.2243   -2.6707   23.9462 O   0  0  0  0  0  0  0  0  0  0  0  0
    9.2594   -1.2263   22.1271 N   0  0  0  0  0  0  0  0  0  0  0  0
   10.6743   -1.0225   22.2079 C   0  0  0  0  0  0  0  0  0  0  0  0
   11.5315   -2.1182   22.1119 C   0  0  0  0  0  0  0  0  0  0  0  0
   11.0940   -3.1056   22.1107 H   0  0  0  0  0  0  0  0  0  0  0  0
   12.9265   -1.9394   22.0491 C   0  0  0  0  0  0  0  0  0  0  0  0
   13.6386   -2.7546   21.9791 H   0  0  0  0  0  0  0  0  0  0  0  0
   13.3952   -0.6528   22.1794 C   0  0  0  0  0  0  0  0  0  0  0  0
   12.5442    0.4409   22.3495 C   0  0  0  0  0  0  0  0  0  0  0  0
   11.1793    0.2912   22.3184 C   0  0  0  0  0  0  0  0  0  0  0  0
   10.5417    1.1576   22.4063 H   0  0  0  0  0  0  0  0  0  0  0  0
   13.2875    1.5763   22.5056 O   0  0  0  0  0  0  0  0  0  0  0  0
   14.5711    1.0591   22.8305 C   0  0  0  0  0  0  0  0  0  0  0  0
   14.6301    0.9121   23.9192 H   0  0  0  0  0  0  0  0  0  0  0  0
   15.3536    1.7225   22.4621 H   0  0  0  0  0  0  0  0  0  0  0  0
   14.6828   -0.2139   22.2195 O   0  0  0  0  0  0  0  0  0  0  0  0
    8.5739   -0.5982   21.1125 C   0  0  0  0  0  0  0  0  0  0  0  0
    9.1599    0.0462   20.4573 H   0  0  0  0  0  0  0  0  0  0  0  0
    5.3519    0.6590   20.0480 C   0  0  0  0  0  0  0  0  0  0  0  0
    4.9088    0.6712   21.0449 H   0  0  0  0  0  0  0  0  0  0  0  0
    4.7819    1.3654   18.9881 C   0  0  0  0  0  0  0  0  0  0  0  0
    3.8632    1.9333   19.1102 H   0  0  0  0  0  0  0  0  0  0  0  0
  1  2  1  0
  2  3  2  0
  3  4  1  0
  4  5  1  0
  4  6  2  0
  6  7  1  0
  7  8  1  0
  8  9  1  0
  8 10  2  0
 10 11  1  0
 10 12  1  0
 12 13  2  0
 12 14  1  0
 14 15  1  0
 15 16  2  0
 16 17  1  0
 16 18  1  0
 18 19  1  0
 18 20  2  0
 20 21  1  0
 21 22  2  0
 22 23  1  0
 21 24  1  0
 24 25  1  0
 25 26  1  0
 25 27  1  0
 25 28  1  0
 14 29  1  0
 29 30  1  0
  6 31  1  0
 31 32  1  0
 31 33  2  0
 33 34  1  0
 33  2  1  0
 29  7  2  0
 22 15  1  0
 28 20  1  0
M  END
>  <cnnaffinity>  (1) 
-5.82699

>  <filename>  (1) 
O=c1ccc(-c2cccnc2)cn1-c1ccc2c(c1)OCO2

$$$$
