
     RDKit          3D

 32 34  0  0  0  0  0  0  0  0999 V2000
   10.0371   -0.1901   22.4786 H   0  0  0  0  0  0  0  0  0  0  0  0
    9.1626   -0.7070   22.1291 C   0  0  0  0  0  0  0  0  0  0  0  0
    8.4402   -1.4996   22.9440 C   0  0  0  0  0  0  0  0  0  0  0  0
    8.6048   -1.5204   24.4183 C   0  0  0  0  0  0  0  0  0  0  0  0
    8.7092   -2.6809   25.2050 C   0  0  0  0  0  0  0  0  0  0  0  0
    8.4396   -3.8790   24.6548 F   0  0  0  0  0  0  0  0  0  0  0  0
    9.0984   -2.6669   26.5436 C   0  0  0  0  0  0  0  0  0  0  0  0
    9.2286   -3.6160   27.0494 H   0  0  0  0  0  0  0  0  0  0  0  0
    9.3072   -1.4398   27.1769 C   0  0  0  0  0  0  0  0  0  0  0  0
    9.6416   -1.3994   28.2099 H   0  0  0  0  0  0  0  0  0  0  0  0
    9.0984   -0.2517   26.4792 C   0  0  0  0  0  0  0  0  0  0  0  0
    9.2137    0.7263   26.9289 H   0  0  0  0  0  0  0  0  0  0  0  0
    8.7377   -0.3181   25.1377 C   0  0  0  0  0  0  0  0  0  0  0  0
    8.4917    0.8463   24.5091 F   0  0  0  0  0  0  0  0  0  0  0  0
    7.4498   -2.2903   22.3750 N   0  0  0  0  0  0  0  0  0  0  0  0
    6.8439   -2.8548   22.9479 H   0  0  0  0  0  0  0  0  0  0  0  0
    6.7194   -1.8377   21.2860 C   0  0  0  0  0  0  0  0  0  0  0  0
    5.6176   -2.3025   21.0845 O   0  0  0  0  0  0  0  0  0  0  0  0
    7.3490   -0.8690   20.5024 N   0  0  0  0  0  0  0  0  0  0  0  0
    6.6256   -0.0978   19.5334 C   0  0  0  0  0  0  0  0  0  0  0  0
    7.1326    0.1216   18.2299 C   0  0  0  0  0  0  0  0  0  0  0  0
    8.0828   -0.3268   17.9388 H   0  0  0  0  0  0  0  0  0  0  0  0
    6.5154    0.8580   17.2984 N   0  0  0  0  0  0  0  0  0  0  0  0
    5.3608    1.4534   17.6383 C   0  0  0  0  0  0  0  0  0  0  0  0
    4.8880    2.0610   16.8682 H   0  0  0  0  0  0  0  0  0  0  0  0
    4.7804    1.3201   18.9045 C   0  0  0  0  0  0  0  0  0  0  0  0
    3.8578    1.8463   19.1247 H   0  0  0  0  0  0  0  0  0  0  0  0
    5.4152    0.5263   19.8691 C   0  0  0  0  0  0  0  0  0  0  0  0
    5.0042    0.4007   20.8706 H   0  0  0  0  0  0  0  0  0  0  0  0
    8.7825   -0.5717   20.6919 C   0  0  0  0  0  0  0  0  0  0  0  0
    8.9705    0.4669   20.3747 H   0  0  0  0  0  0  0  0  0  0  0  0
    9.4011   -1.2191   20.0366 H   0  0  0  0  0  0  0  0  0  0  0  0
  1  2  1  0
  2  3  2  0
  3  4  1  0
  4  5  2  0
  5  6  1  0
  5  7  1  0
  7  8  1  0
  7  9  2  0
  9 10  1  0
  9 11  1  0
 11 12  1  0
 11 13  2  0
 13 14  1  0
  3 15  1  0
 15 16  1  0
 15 17  1  0
 17 18  2  0
 17 19  1  0
 19 20  1  0
 20 21  2  0
 21 22  1  0
 21 23  1  0
 23 24  2  0
 24 25  1  0
 24 26  1  0
 26 27  1  0
 26 28  2  0
 28 29  1  0
 19 30  1  0
 30 31  1  0
 30 32  1  0
 30  2  1  0
 13  4  1  0
 28 20  1  0
M  END
>  <cnnaffinity>  (1) 
-5.15971

>  <filename>  (1) 
O=C1NC(c2c(F)cccc2F)=CCN1c1cccnc1

$$$$
