
     RDKit          3D

 37 39  0  0  0  0  0  0  0  0999 V2000
    4.9465    1.8991   16.9461 H   0  0  0  0  0  0  0  0  0  0  0  0
    5.4020    1.3490   17.7669 C   0  0  0  0  0  0  0  0  0  0  0  0
    6.5592    0.7248   17.4954 N   0  0  0  0  0  0  0  0  0  0  0  0
    7.1456    0.0588   18.4961 C   0  0  0  0  0  0  0  0  0  0  0  0
    8.0923   -0.4253   18.2658 H   0  0  0  0  0  0  0  0  0  0  0  0
    6.6079   -0.0542   19.7958 C   0  0  0  0  0  0  0  0  0  0  0  0
    7.3405   -0.7570   20.8313 N   0  0  0  0  0  0  0  0  0  0  0  0
    8.6461   -0.3434   21.1007 C   0  0  0  0  0  0  0  0  0  0  0  0
    8.9737    0.5300   20.5334 H   0  0  0  0  0  0  0  0  0  0  0  0
    9.4087   -0.9370   22.0433 C   0  0  0  0  0  0  0  0  0  0  0  0
   10.7444   -0.4370   22.5045 C   0  0  0  0  0  0  0  0  0  0  0  0
   11.3625   -0.0910   21.6628 H   0  0  0  0  0  0  0  0  0  0  0  0
   11.2976   -1.2614   22.9669 H   0  0  0  0  0  0  0  0  0  0  0  0
   10.6408    0.6300   23.4890 N   0  0  0  0  0  0  0  0  0  0  0  0
   10.0352    0.2137   24.7600 C   0  0  0  0  0  0  0  0  0  0  0  0
    8.9814   -0.0945   24.6531 H   0  0  0  0  0  0  0  0  0  0  0  0
   10.5934   -0.6426   25.1593 H   0  0  0  0  0  0  0  0  0  0  0  0
   10.0839    1.3477   25.7789 C   0  0  0  0  0  0  0  0  0  0  0  0
   11.1259    1.5125   26.0764 H   0  0  0  0  0  0  0  0  0  0  0  0
    9.4745    1.0708   26.6469 H   0  0  0  0  0  0  0  0  0  0  0  0
    9.5468    2.5664   25.2813 O   0  0  0  0  0  0  0  0  0  0  0  0
   10.1984    2.9584   24.0783 C   0  0  0  0  0  0  0  0  0  0  0  0
   11.2667    3.1449   24.2654 H   0  0  0  0  0  0  0  0  0  0  0  0
    9.7244    3.8906   23.7593 H   0  0  0  0  0  0  0  0  0  0  0  0
   10.0752    1.8913   22.9909 C   0  0  0  0  0  0  0  0  0  0  0  0
   10.6429    2.2256   22.1102 H   0  0  0  0  0  0  0  0  0  0  0  0
    9.0120    1.8079   22.7040 H   0  0  0  0  0  0  0  0  0  0  0  0
    8.8080   -1.9603   22.8954 C   0  0  0  0  0  0  0  0  0  0  0  0
    9.3286   -2.5226   23.8406 O   0  0  0  0  0  0  0  0  0  0  0  0
    7.5257   -2.3008   22.5717 N   0  0  0  0  0  0  0  0  0  0  0  0
    7.1099   -3.0061   23.1434 H   0  0  0  0  0  0  0  0  0  0  0  0
    6.7437   -1.8078   21.5725 C   0  0  0  0  0  0  0  0  0  0  0  0
    5.6491   -2.2819   21.3705 O   0  0  0  0  0  0  0  0  0  0  0  0
    5.3976    0.5995   20.0651 C   0  0  0  0  0  0  0  0  0  0  0  0
    4.9497    0.5640   21.0594 H   0  0  0  0  0  0  0  0  0  0  0  0
    4.7912    1.3171   19.0255 C   0  0  0  0  0  0  0  0  0  0  0  0
    3.8690    1.8675   19.1840 H   0  0  0  0  0  0  0  0  0  0  0  0
  1  2  1  0
  2  3  2  0
  3  4  1  0
  4  5  1  0
  4  6  2  0
  6  7  1  0
  7  8  1  0
  8  9  1  0
  8 10  2  0
 10 11  1  0
 11 12  1  0
 11 13  1  0
 11 14  1  0
 14 15  1  0
 15 16  1  0
 15 17  1  0
 15 18  1  0
 18 19  1  0
 18 20  1  0
 18 21  1  0
 21 22  1  0
 22 23  1  0
 22 24  1  0
 22 25  1  0
 25 26  1  0
 25 27  1  0
 10 28  1  0
 28 29  2  0
 28 30  1  0
 30 31  1  0
 30 32  1  0
 32 33  2  0
  6 34  1  0
 34 35  1  0
 34 36  2  0
 36 37  1  0
 36  2  1  0
 32  7  1  0
 25 14  1  0
M  END
>  <cnnaffinity>  (1) 
-4.81847

>  <filename>  (1) 
O=c1[nH]c(=O)n(-c2cccnc2)cc1CN1CCOCC1

$$$$
