
     RDKit          3D

 35 38  0  0  0  0  0  0  0  0999 V2000
    5.1285    1.7025   16.9001 H   0  0  0  0  0  0  0  0  0  0  0  0
    5.5811    1.2487   17.7797 C   0  0  0  0  0  0  0  0  0  0  0  0
    6.7659    0.6469   17.5899 N   0  0  0  0  0  0  0  0  0  0  0  0
    7.3664    0.1068   18.6584 C   0  0  0  0  0  0  0  0  0  0  0  0
    8.3363   -0.3629   18.4964 H   0  0  0  0  0  0  0  0  0  0  0  0
    6.7948    0.1019   19.9361 C   0  0  0  0  0  0  0  0  0  0  0  0
    7.4795   -0.5899   21.0476 C   0  0  0  0  0  0  0  0  0  0  0  0
    8.7805   -0.4353   21.1602 N   0  0  0  0  0  0  0  0  0  0  0  0
    9.4196   -1.0997   22.1777 N   0  0  0  0  0  0  0  0  0  0  0  0
   10.8425   -0.9801   22.1885 C   0  0  0  0  0  0  0  0  0  0  0  0
   11.6148   -2.1204   22.1387 C   0  0  0  0  0  0  0  0  0  0  0  0
   11.1308   -3.0940   22.1485 H   0  0  0  0  0  0  0  0  0  0  0  0
   12.9709   -2.1225   22.1381 N   0  0  0  0  0  0  0  0  0  0  0  0
   13.5949   -0.9799   22.3082 C   0  0  0  0  0  0  0  0  0  0  0  0
   14.6837   -1.0215   22.3744 H   0  0  0  0  0  0  0  0  0  0  0  0
   12.9282    0.2727   22.4448 C   0  0  0  0  0  0  0  0  0  0  0  0
   13.6332    1.4783   22.7446 C   0  0  0  0  0  0  0  0  0  0  0  0
   14.7125    1.4485   22.8758 H   0  0  0  0  0  0  0  0  0  0  0  0
   12.9534    2.6679   22.8309 C   0  0  0  0  0  0  0  0  0  0  0  0
   13.4878    3.5806   23.0822 H   0  0  0  0  0  0  0  0  0  0  0  0
   11.5612    2.7201   22.5490 C   0  0  0  0  0  0  0  0  0  0  0  0
   11.0547    3.6801   22.5637 H   0  0  0  0  0  0  0  0  0  0  0  0
   10.8540    1.5685   22.2583 C   0  0  0  0  0  0  0  0  0  0  0  0
    9.8009    1.6058   22.0071 H   0  0  0  0  0  0  0  0  0  0  0  0
   11.5040    0.2958   22.2675 C   0  0  0  0  0  0  0  0  0  0  0  0
    8.7671   -1.9742   23.1248 C   0  0  0  0  0  0  0  0  0  0  0  0
    9.3889   -2.5643   23.9909 O   0  0  0  0  0  0  0  0  0  0  0  0
    7.3358   -2.0802   22.9328 C   0  0  0  0  0  0  0  0  0  0  0  0
    6.8287   -2.7173   23.6444 H   0  0  0  0  0  0  0  0  0  0  0  0
    6.7125   -1.4145   21.9285 C   0  0  0  0  0  0  0  0  0  0  0  0
    5.6465   -1.5101   21.7388 H   0  0  0  0  0  0  0  0  0  0  0  0
    5.5449    0.7086   20.1168 C   0  0  0  0  0  0  0  0  0  0  0  0
    5.0687    0.7237   21.0992 H   0  0  0  0  0  0  0  0  0  0  0  0
    4.9340    1.3052   19.0191 C   0  0  0  0  0  0  0  0  0  0  0  0
    3.9838    1.8173   19.1115 H   0  0  0  0  0  0  0  0  0  0  0  0
  1  2  1  0
  2  3  2  0
  3  4  1  0
  4  5  1  0
  4  6  2  0
  6  7  1  0
  7  8  2  0
  8  9  1  0
  9 10  1  0
 10 11  2  0
 11 12  1  0
 11 13  1  0
 13 14  2  0
 14 15  1  0
 14 16  1  0
 16 17  2  0
 17 18  1  0
 17 19  1  0
 19 20  1  0
 19 21  2  0
 21 22  1  0
 21 23  1  0
 23 24  1  0
 23 25  2  0
  9 26  1  0
 26 27  2  0
 26 28  1  0
 28 29  1  0
 28 30  2  0
 30 31  1  0
  6 32  1  0
 32 33  1  0
 32 34  2  0
 34 35  1  0
 34  2  1  0
 30  7  1  0
 25 10  1  0
 25 16  1  0
M  END
>  <cnnaffinity>  (1) 
-6.19778

>  <filename>  (1) 
O=c1ccc(-c2cccnc2)nn1-c1cncc2ccccc12

$$$$
