
     RDKit          3D

 27 29  0  0  0  0  0  0  0  0999 V2000
    7.3932   -6.4977   20.5731 H   0  0  0  0  0  0  0  0  0  0  0  0
    7.7550   -5.8202   21.3391 C   0  0  0  0  0  0  0  0  0  0  0  0
    7.6251   -4.4797   21.1590 N   0  0  0  0  0  0  0  0  0  0  0  0
    8.1101   -3.8064   22.1677 C   0  0  0  0  0  0  0  0  0  0  0  0
    8.0137   -2.3740   22.1416 C   0  0  0  0  0  0  0  0  0  0  0  0
    7.4312   -1.7413   21.0886 C   0  0  0  0  0  0  0  0  0  0  0  0
    7.0474   -2.2952   20.2377 H   0  0  0  0  0  0  0  0  0  0  0  0
    7.3202   -0.3709   21.0375 N   0  0  0  0  0  0  0  0  0  0  0  0
    6.6482    0.2335   19.9054 C   0  0  0  0  0  0  0  0  0  0  0  0
    7.1642    0.1696   18.5957 C   0  0  0  0  0  0  0  0  0  0  0  0
    8.1084   -0.3399   18.3992 H   0  0  0  0  0  0  0  0  0  0  0  0
    6.5506    0.7215   17.5419 N   0  0  0  0  0  0  0  0  0  0  0  0
    5.3759    1.3386   17.7457 C   0  0  0  0  0  0  0  0  0  0  0  0
    4.9044    1.7733   16.8669 H   0  0  0  0  0  0  0  0  0  0  0  0
    4.7710    1.4238   19.0027 C   0  0  0  0  0  0  0  0  0  0  0  0
    3.8186    1.9262   19.1111 H   0  0  0  0  0  0  0  0  0  0  0  0
    5.4273    0.8774   20.1075 C   0  0  0  0  0  0  0  0  0  0  0  0
    5.0298    0.9493   21.1178 H   0  0  0  0  0  0  0  0  0  0  0  0
    7.7017    0.4118   22.1535 C   0  0  0  0  0  0  0  0  0  0  0  0
    7.4569    1.5846   22.3064 O   0  0  0  0  0  0  0  0  0  0  0  0
    8.4247   -0.2519   23.0911 N   0  0  0  0  0  0  0  0  0  0  0  0
    8.7091    0.3252   23.8585 H   0  0  0  0  0  0  0  0  0  0  0  0
    8.5650   -1.6039   23.2384 C   0  0  0  0  0  0  0  0  0  0  0  0
    9.1266   -2.0485   24.2151 O   0  0  0  0  0  0  0  0  0  0  0  0
    8.7776   -4.8114   23.4273 S   0  0  0  0  0  0  0  0  0  0  0  0
    8.3602   -6.1931   22.5018 C   0  0  0  0  0  0  0  0  0  0  0  0
    8.5989   -7.1933   22.8298 H   0  0  0  0  0  0  0  0  0  0  0  0
  1  2  1  0
  2  3  1  0
  3  4  2  0
  4  5  1  0
  5  6  2  0
  6  7  1  0
  6  8  1  0
  8  9  1  0
  9 10  2  0
 10 11  1  0
 10 12  1  0
 12 13  2  0
 13 14  1  0
 13 15  1  0
 15 16  1  0
 15 17  2  0
 17 18  1  0
  8 19  1  0
 19 20  2  0
 19 21  1  0
 21 22  1  0
 21 23  1  0
 23 24  2  0
  4 25  1  0
 25 26  1  0
 26 27  1  0
 26  2  2  0
 23  5  1  0
 17  9  1  0
M  END
>  <cnnaffinity>  (1) 
-5.26176

>  <filename>  (1) 
O=c1[nH]c(=O)n(-c2cccnc2)cc1-c1nccs1

$$$$
