
     RDKit          3D

 31 33  0  0  0  0  0  0  0  0999 V2000
    5.2943    1.7553   17.0556 H   0  0  0  0  0  0  0  0  0  0  0  0
    5.7473    1.2819   17.9253 C   0  0  0  0  0  0  0  0  0  0  0  0
    6.9301    0.6794   17.7295 N   0  0  0  0  0  0  0  0  0  0  0  0
    7.5073    0.0782   18.7837 C   0  0  0  0  0  0  0  0  0  0  0  0
    8.4562   -0.4195   18.5824 H   0  0  0  0  0  0  0  0  0  0  0  0
    6.9241    0.0307   20.0710 C   0  0  0  0  0  0  0  0  0  0  0  0
    7.4573   -0.7304   21.1667 N   0  0  0  0  0  0  0  0  0  0  0  0
    8.6233   -0.5162   21.9383 C   0  0  0  0  0  0  0  0  0  0  0  0
    9.6059    0.6163   21.7924 C   0  0  0  0  0  0  0  0  0  0  0  0
    9.3466    1.4190   22.4924 H   0  0  0  0  0  0  0  0  0  0  0  0
    9.4942    1.0362   20.7816 H   0  0  0  0  0  0  0  0  0  0  0  0
   11.0393    0.1195   22.0032 C   0  0  0  0  0  0  0  0  0  0  0  0
   11.4572   -0.9635   21.2205 C   0  0  0  0  0  0  0  0  0  0  0  0
   10.6876   -1.4455   20.6302 H   0  0  0  0  0  0  0  0  0  0  0  0
   12.7612   -1.4469   21.2309 C   0  0  0  0  0  0  0  0  0  0  0  0
   13.0606   -2.1800   20.4848 H   0  0  0  0  0  0  0  0  0  0  0  0
   13.6706   -0.9261   22.1576 C   0  0  0  0  0  0  0  0  0  0  0  0
   14.6770   -1.3337   22.2065 H   0  0  0  0  0  0  0  0  0  0  0  0
   13.2774    0.1069   23.0129 C   0  0  0  0  0  0  0  0  0  0  0  0
   13.9598    0.5168   23.7538 H   0  0  0  0  0  0  0  0  0  0  0  0
   11.9817    0.6404   22.9060 C   0  0  0  0  0  0  0  0  0  0  0  0
   11.5959    1.9904   23.9387 Cl  0  0  0  0  0  0  0  0  0  0  0  0
    8.6626   -1.5327   22.8179 C   0  0  0  0  0  0  0  0  0  0  0  0
    9.3962   -1.8353   23.5531 H   0  0  0  0  0  0  0  0  0  0  0  0
    7.5658   -2.3405   22.6645 O   0  0  0  0  0  0  0  0  0  0  0  0
    6.7881   -1.8680   21.6462 C   0  0  0  0  0  0  0  0  0  0  0  0
    5.7634   -2.3803   21.2693 O   0  0  0  0  0  0  0  0  0  0  0  0
    5.6927    0.6723   20.2533 C   0  0  0  0  0  0  0  0  0  0  0  0
    5.2221    0.6328   21.2360 H   0  0  0  0  0  0  0  0  0  0  0  0
    5.0966    1.3122   19.1638 C   0  0  0  0  0  0  0  0  0  0  0  0
    4.1409    1.8165   19.2630 H   0  0  0  0  0  0  0  0  0  0  0  0
  1  2  1  0
  2  3  2  0
  3  4  1  0
  4  5  1  0
  4  6  2  0
  6  7  1  0
  7  8  1  0
  8  9  1  0
  9 10  1  0
  9 11  1  0
  9 12  1  0
 12 13  2  0
 13 14  1  0
 13 15  1  0
 15 16  1  0
 15 17  2  0
 17 18  1  0
 17 19  1  0
 19 20  1  0
 19 21  2  0
 21 22  1  0
  8 23  2  0
 23 24  1  0
 23 25  1  0
 25 26  1  0
 26 27  2  0
  6 28  1  0
 28 29  1  0
 28 30  2  0
 30 31  1  0
 30  2  1  0
 26  7  1  0
 21 12  1  0
M  END
>  <cnnaffinity>  (1) 
-5.77347

>  <filename>  (1) 
O=c1occ(Cc2ccccc2Cl)n1-c1cccnc1

$$$$
