
     RDKit          3D

 29 31  0  0  0  0  0  0  0  0999 V2000
    5.1714    1.6782   16.9244 H   0  0  0  0  0  0  0  0  0  0  0  0
    5.6364    1.2330   17.7999 C   0  0  0  0  0  0  0  0  0  0  0  0
    6.8230    0.6415   17.5943 N   0  0  0  0  0  0  0  0  0  0  0  0
    7.4246    0.0796   18.6483 C   0  0  0  0  0  0  0  0  0  0  0  0
    8.4033   -0.3729   18.4849 H   0  0  0  0  0  0  0  0  0  0  0  0
    6.8486    0.0386   19.9251 C   0  0  0  0  0  0  0  0  0  0  0  0
    7.5347   -0.7072   20.9996 C   0  0  0  0  0  0  0  0  0  0  0  0
    8.8385   -0.6031   21.0555 N   0  0  0  0  0  0  0  0  0  0  0  0
    9.5017   -1.2861   22.0474 N   0  0  0  0  0  0  0  0  0  0  0  0
   10.8854   -0.9541   22.1463 C   0  0  0  0  0  0  0  0  0  0  0  0
   11.2755    0.3977   22.1663 C   0  0  0  0  0  0  0  0  0  0  0  0
   10.5132    1.1620   22.0291 H   0  0  0  0  0  0  0  0  0  0  0  0
   12.5514    0.7730   22.3004 N   0  0  0  0  0  0  0  0  0  0  0  0
   13.4949   -0.1822   22.2995 C   0  0  0  0  0  0  0  0  0  0  0  0
   14.5399    0.1117   22.3604 H   0  0  0  0  0  0  0  0  0  0  0  0
   13.1783   -1.5343   22.1533 C   0  0  0  0  0  0  0  0  0  0  0  0
   14.1660   -2.4264   22.0272 F   0  0  0  0  0  0  0  0  0  0  0  0
   11.8540   -1.9561   22.1547 C   0  0  0  0  0  0  0  0  0  0  0  0
   11.5741   -3.0030   22.1802 H   0  0  0  0  0  0  0  0  0  0  0  0
    8.9015   -2.2077   22.9773 C   0  0  0  0  0  0  0  0  0  0  0  0
    9.5475   -2.8918   23.7518 O   0  0  0  0  0  0  0  0  0  0  0  0
    7.4476   -2.2122   22.8939 C   0  0  0  0  0  0  0  0  0  0  0  0
    6.9616   -2.7983   23.6635 H   0  0  0  0  0  0  0  0  0  0  0  0
    6.7926   -1.5001   21.9387 C   0  0  0  0  0  0  0  0  0  0  0  0
    5.7135   -1.5313   21.8492 H   0  0  0  0  0  0  0  0  0  0  0  0
    5.6208    0.6773   20.1342 C   0  0  0  0  0  0  0  0  0  0  0  0
    5.1662    0.7055   21.1264 H   0  0  0  0  0  0  0  0  0  0  0  0
    5.0070    1.2912   19.0472 C   0  0  0  0  0  0  0  0  0  0  0  0
    4.0591    1.8020   19.1495 H   0  0  0  0  0  0  0  0  0  0  0  0
  1  2  1  0
  2  3  2  0
  3  4  1  0
  4  5  1  0
  4  6  2  0
  6  7  1  0
  7  8  2  0
  8  9  1  0
  9 10  1  0
 10 11  2  0
 11 12  1  0
 11 13  1  0
 13 14  2  0
 14 15  1  0
 14 16  1  0
 16 17  1  0
 16 18  2  0
 18 19  1  0
  9 20  1  0
 20 21  2  0
 20 22  1  0
 22 23  1  0
 22 24  2  0
 24 25  1  0
  6 26  1  0
 26 27  1  0
 26 28  2  0
 28 29  1  0
 28  2  1  0
 24  7  1  0
 18 10  1  0
M  END
>  <cnnaffinity>  (1) 
-5.6293

>  <filename>  (1) 
O=c1ccc(-c2cccnc2)nn1-c1cncc(F)c1

$$$$
