
     RDKit          3D

 34 36  0  0  0  0  0  0  0  0999 V2000
    4.9541    1.8684   16.9504 H   0  0  0  0  0  0  0  0  0  0  0  0
    5.4205    1.3392   17.7807 C   0  0  0  0  0  0  0  0  0  0  0  0
    6.5853    0.7255   17.5186 N   0  0  0  0  0  0  0  0  0  0  0  0
    7.1795    0.0744   18.5258 C   0  0  0  0  0  0  0  0  0  0  0  0
    8.1260   -0.4116   18.2999 H   0  0  0  0  0  0  0  0  0  0  0  0
    6.6413   -0.0269   19.8233 C   0  0  0  0  0  0  0  0  0  0  0  0
    7.3410   -0.7402   20.8613 N   0  0  0  0  0  0  0  0  0  0  0  0
    8.6049   -0.2829   21.2111 C   0  0  0  0  0  0  0  0  0  0  0  0
    8.9828    0.5709   20.6598 H   0  0  0  0  0  0  0  0  0  0  0  0
    9.3246   -0.8071   22.2446 C   0  0  0  0  0  0  0  0  0  0  0  0
   10.5339   -0.1837   22.6588 N   0  0  0  0  0  0  0  0  0  0  0  0
   10.7575   -0.1252   24.1064 C   0  0  0  0  0  0  0  0  0  0  0  0
    9.8620    0.3206   24.5546 H   0  0  0  0  0  0  0  0  0  0  0  0
   10.8916   -1.1208   24.5680 H   0  0  0  0  0  0  0  0  0  0  0  0
   11.9707    0.7398   24.4772 C   0  0  0  0  0  0  0  0  0  0  0  0
   12.2311    0.5001   25.5100 H   0  0  0  0  0  0  0  0  0  0  0  0
   11.7344    1.8145   24.4099 H   0  0  0  0  0  0  0  0  0  0  0  0
   13.1208    0.4419   23.7038 O   0  0  0  0  0  0  0  0  0  0  0  0
   12.8487    0.5602   22.3138 C   0  0  0  0  0  0  0  0  0  0  0  0
   12.5431    1.5924   22.0598 H   0  0  0  0  0  0  0  0  0  0  0  0
   13.7902    0.3227   21.8074 H   0  0  0  0  0  0  0  0  0  0  0  0
   11.7586   -0.4202   21.8747 C   0  0  0  0  0  0  0  0  0  0  0  0
   11.5497   -0.2628   20.8116 H   0  0  0  0  0  0  0  0  0  0  0  0
   12.1524   -1.4480   21.9604 H   0  0  0  0  0  0  0  0  0  0  0  0
    8.7569   -1.9298   22.9448 C   0  0  0  0  0  0  0  0  0  0  0  0
    9.3290   -2.3831   23.7509 H   0  0  0  0  0  0  0  0  0  0  0  0
    7.5148   -2.3933   22.6359 C   0  0  0  0  0  0  0  0  0  0  0  0
    7.0434   -3.2015   23.1745 H   0  0  0  0  0  0  0  0  0  0  0  0
    6.7028   -1.8261   21.5689 C   0  0  0  0  0  0  0  0  0  0  0  0
    5.6012   -2.2544   21.2702 O   0  0  0  0  0  0  0  0  0  0  0  0
    5.4301    0.6233   20.0879 C   0  0  0  0  0  0  0  0  0  0  0  0
    5.0023    0.5949   21.0909 H   0  0  0  0  0  0  0  0  0  0  0  0
    4.8159    1.3201   19.0421 C   0  0  0  0  0  0  0  0  0  0  0  0
    3.8892    1.8587   19.1964 H   0  0  0  0  0  0  0  0  0  0  0  0
  1  2  1  0
  2  3  2  0
  3  4  1  0
  4  5  1  0
  4  6  2  0
  6  7  1  0
  7  8  1  0
  8  9  1  0
  8 10  2  0
 10 11  1  0
 11 12  1  0
 12 13  1  0
 12 14  1  0
 12 15  1  0
 15 16  1  0
 15 17  1  0
 15 18  1  0
 18 19  1  0
 19 20  1  0
 19 21  1  0
 19 22  1  0
 22 23  1  0
 22 24  1  0
 10 25  1  0
 25 26  1  0
 25 27  2  0
 27 28  1  0
 27 29  1  0
 29 30  2  0
  6 31  1  0
 31 32  1  0
 31 33  2  0
 33 34  1  0
 33  2  1  0
 29  7  1  0
 22 11  1  0
M  END
>  <cnnaffinity>  (1) 
-4.77178

>  <filename>  (1) 
O=c1ccc(N2CCOCC2)cn1-c1cccnc1

$$$$
