
     RDKit          3D

 31 33  0  0  0  0  0  0  0  0999 V2000
    4.8838    1.9184   16.9195 H   0  0  0  0  0  0  0  0  0  0  0  0
    5.3487    1.3614   17.7292 C   0  0  0  0  0  0  0  0  0  0  0  0
    6.4959    0.7314   17.4292 N   0  0  0  0  0  0  0  0  0  0  0  0
    7.1193    0.0880   18.4248 C   0  0  0  0  0  0  0  0  0  0  0  0
    8.0721   -0.3779   18.1894 H   0  0  0  0  0  0  0  0  0  0  0  0
    6.6200    0.0065   19.7440 C   0  0  0  0  0  0  0  0  0  0  0  0
    7.3411   -0.6704   20.8111 N   0  0  0  0  0  0  0  0  0  0  0  0
    8.5946   -0.1547   21.2647 C   0  0  0  0  0  0  0  0  0  0  0  0
    9.1098    0.7868   20.6961 O   0  0  0  0  0  0  0  0  0  0  0  0
    9.2042   -0.8260   22.3939 C   0  0  0  0  0  0  0  0  0  0  0  0
   10.1638   -0.4315   22.6750 H   0  0  0  0  0  0  0  0  0  0  0  0
    8.6233   -1.8830   22.9911 C   0  0  0  0  0  0  0  0  0  0  0  0
    9.1953   -2.7433   24.0639 C   0  0  0  0  0  0  0  0  0  0  0  0
   10.4513   -3.3196   23.8200 C   0  0  0  0  0  0  0  0  0  0  0  0
   10.9712   -3.0743   22.8970 H   0  0  0  0  0  0  0  0  0  0  0  0
   11.0083   -4.2246   24.7171 C   0  0  0  0  0  0  0  0  0  0  0  0
   11.9480   -4.6981   24.5027 H   0  0  0  0  0  0  0  0  0  0  0  0
   10.3573   -4.5609   25.8979 C   0  0  0  0  0  0  0  0  0  0  0  0
   10.8228   -5.2264   26.6220 H   0  0  0  0  0  0  0  0  0  0  0  0
    9.1058   -4.0094   26.1705 C   0  0  0  0  0  0  0  0  0  0  0  0
    8.3227   -4.5328   27.6285 Cl  0  0  0  0  0  0  0  0  0  0  0  0
    8.5270   -3.0912   25.2694 C   0  0  0  0  0  0  0  0  0  0  0  0
    7.0128   -2.3666   25.6799 Cl  0  0  0  0  0  0  0  0  0  0  0  0
    7.4161   -2.2871   22.4910 N   0  0  0  0  0  0  0  0  0  0  0  0
    6.9158   -3.0688   22.8594 H   0  0  0  0  0  0  0  0  0  0  0  0
    6.7393   -1.7619   21.4285 C   0  0  0  0  0  0  0  0  0  0  0  0
    5.6940   -2.2676   21.0885 O   0  0  0  0  0  0  0  0  0  0  0  0
    5.4051    0.6313   20.0291 C   0  0  0  0  0  0  0  0  0  0  0  0
    4.9898    0.5744   21.0370 H   0  0  0  0  0  0  0  0  0  0  0  0
    4.7673    1.3370   19.0007 C   0  0  0  0  0  0  0  0  0  0  0  0
    3.8480    1.8801   19.1808 H   0  0  0  0  0  0  0  0  0  0  0  0
  1  2  1  0
  2  3  2  0
  3  4  1  0
  4  5  1  0
  4  6  2  0
  6  7  1  0
  7  8  1  0
  8  9  2  0
  8 10  1  0
 10 11  1  0
 10 12  2  0
 12 13  1  0
 13 14  2  0
 14 15  1  0
 14 16  1  0
 16 17  1  0
 16 18  2  0
 18 19  1  0
 18 20  1  0
 20 21  1  0
 20 22  2  0
 22 23  1  0
 12 24  1  0
 24 25  1  0
 24 26  1  0
 26 27  2  0
  6 28  1  0
 28 29  1  0
 28 30  2  0
 30 31  1  0
 30  2  1  0
 26  7  1  0
 22 13  1  0
M  END
>  <cnnaffinity>  (1) 
-5.69992

>  <filename>  (1) 
O=c1cc(-c2cccc(Cl)c2Cl)[nH]c(=O)n1-c1cccnc1

$$$$
