
     RDKit          3D

 33 35  0  0  0  0  0  0  0  0999 V2000
   14.8999   -0.8923   21.2321 H   0  0  0  0  0  0  0  0  0  0  0  0
   14.0445   -1.2568   20.9919 O   0  0  0  0  0  0  0  0  0  0  0  0
   13.1475   -0.8240   21.9043 C   0  0  0  0  0  0  0  0  0  0  0  0
   13.5471   -0.1767   23.0693 C   0  0  0  0  0  0  0  0  0  0  0  0
   14.5819   -0.0112   23.3365 H   0  0  0  0  0  0  0  0  0  0  0  0
   12.5764    0.1427   24.0128 C   0  0  0  0  0  0  0  0  0  0  0  0
   13.0061    0.6606   25.1841 O   0  0  0  0  0  0  0  0  0  0  0  0
   12.2385    0.7443   25.7609 H   0  0  0  0  0  0  0  0  0  0  0  0
   11.2263   -0.1299   23.7918 C   0  0  0  0  0  0  0  0  0  0  0  0
   10.4996    0.0045   24.5793 H   0  0  0  0  0  0  0  0  0  0  0  0
   10.8461   -0.7109   22.5811 C   0  0  0  0  0  0  0  0  0  0  0  0
    9.4566   -0.9790   22.3102 N   0  0  0  0  0  0  0  0  0  0  0  0
    8.7924   -0.4009   21.2256 C   0  0  0  0  0  0  0  0  0  0  0  0
    9.3544    0.3546   20.6775 H   0  0  0  0  0  0  0  0  0  0  0  0
    7.5167   -0.7228   20.8955 C   0  0  0  0  0  0  0  0  0  0  0  0
    6.7785   -0.0134   19.8056 C   0  0  0  0  0  0  0  0  0  0  0  0
    7.2816    0.1162   18.4882 C   0  0  0  0  0  0  0  0  0  0  0  0
    8.2300   -0.3504   18.2203 H   0  0  0  0  0  0  0  0  0  0  0  0
    6.6502    0.7553   17.4944 N   0  0  0  0  0  0  0  0  0  0  0  0
    5.4748    1.3381   17.7823 C   0  0  0  0  0  0  0  0  0  0  0  0
    4.9922    1.8712   16.9629 H   0  0  0  0  0  0  0  0  0  0  0  0
    4.8777    1.2766   19.0443 C   0  0  0  0  0  0  0  0  0  0  0  0
    3.9282    1.7742   19.2115 H   0  0  0  0  0  0  0  0  0  0  0  0
    5.5294    0.5786   20.0637 C   0  0  0  0  0  0  0  0  0  0  0  0
    5.0943    0.4968   21.0593 H   0  0  0  0  0  0  0  0  0  0  0  0
    6.8491   -1.7992   21.6832 C   0  0  0  0  0  0  0  0  0  0  0  0
    5.8095   -2.3793   21.4508 O   0  0  0  0  0  0  0  0  0  0  0  0
    7.5385   -2.1820   22.8101 N   0  0  0  0  0  0  0  0  0  0  0  0
    7.1552   -2.9598   23.3045 H   0  0  0  0  0  0  0  0  0  0  0  0
    8.8304   -1.9256   23.1285 C   0  0  0  0  0  0  0  0  0  0  0  0
    9.3432   -2.5062   24.0566 O   0  0  0  0  0  0  0  0  0  0  0  0
   11.8034   -1.1113   21.6590 C   0  0  0  0  0  0  0  0  0  0  0  0
   11.5375   -1.6987   20.7944 H   0  0  0  0  0  0  0  0  0  0  0  0
  1  2  1  0
  2  3  1  0
  3  4  2  0
  4  5  1  0
  4  6  1  0
  6  7  1  0
  7  8  1  0
  6  9  2  0
  9 10  1  0
  9 11  1  0
 11 12  1  0
 12 13  1  0
 13 14  1  0
 13 15  2  0
 15 16  1  0
 16 17  2  0
 17 18  1  0
 17 19  1  0
 19 20  2  0
 20 21  1  0
 20 22  1  0
 22 23  1  0
 22 24  2  0
 24 25  1  0
 15 26  1  0
 26 27  2  0
 26 28  1  0
 28 29  1  0
 28 30  1  0
 30 31  2  0
 11 32  2  0
 32 33  1  0
 32  3  1  0
 30 12  1  0
 24 16  1  0
M  END
>  <cnnaffinity>  (1) 
-6.06587

>  <filename>  (1) 
O=c1[nH]c(=O)n(-c2cc(O)cc(O)c2)cc1-c1cccnc1

$$$$
