
     RDKit          3D

 31 33  0  0  0  0  0  0  0  0999 V2000
    9.8133    1.2474   21.7093 H   0  0  0  0  0  0  0  0  0  0  0  0
   10.6800    1.5478   22.0416 O   0  0  0  0  0  0  0  0  0  0  0  0
   11.4621    0.4507   22.0851 C   0  0  0  0  0  0  0  0  0  0  0  0
   12.8515    0.6352   22.1687 C   0  0  0  0  0  0  0  0  0  0  0  0
   13.2370    1.6497   22.2215 H   0  0  0  0  0  0  0  0  0  0  0  0
   13.7038   -0.4650   22.1297 C   0  0  0  0  0  0  0  0  0  0  0  0
   14.7756   -0.3096   22.1726 H   0  0  0  0  0  0  0  0  0  0  0  0
   13.1875   -1.7617   22.0446 C   0  0  0  0  0  0  0  0  0  0  0  0
   13.8571   -2.6175   21.9808 H   0  0  0  0  0  0  0  0  0  0  0  0
   11.8054   -1.9402   22.0806 C   0  0  0  0  0  0  0  0  0  0  0  0
   11.4155   -2.9498   22.1429 H   0  0  0  0  0  0  0  0  0  0  0  0
   10.9176   -0.8505   22.0749 C   0  0  0  0  0  0  0  0  0  0  0  0
    9.4414   -1.0680   22.0563 C   0  0  0  0  0  0  0  0  0  0  0  0
    8.6944   -0.3740   21.1110 N   0  0  0  0  0  0  0  0  0  0  0  0
    7.4317   -0.7053   20.9187 C   0  0  0  0  0  0  0  0  0  0  0  0
    6.6886    0.0280   19.8734 C   0  0  0  0  0  0  0  0  0  0  0  0
    7.2377    0.1321   18.5817 C   0  0  0  0  0  0  0  0  0  0  0  0
    8.2011   -0.3198   18.3538 H   0  0  0  0  0  0  0  0  0  0  0  0
    6.6226    0.7336   17.5584 N   0  0  0  0  0  0  0  0  0  0  0  0
    5.4381    1.3161   17.8046 C   0  0  0  0  0  0  0  0  0  0  0  0
    4.9567    1.8032   16.9566 H   0  0  0  0  0  0  0  0  0  0  0  0
    4.8247    1.3105   19.0609 C   0  0  0  0  0  0  0  0  0  0  0  0
    3.8847    1.8341   19.1968 H   0  0  0  0  0  0  0  0  0  0  0  0
    5.4524    0.6474   20.1169 C   0  0  0  0  0  0  0  0  0  0  0  0
    4.9978    0.6196   21.1099 H   0  0  0  0  0  0  0  0  0  0  0  0
    6.7391   -1.7750   21.7477 C   0  0  0  0  0  0  0  0  0  0  0  0
    5.6577   -2.3170   21.5821 O   0  0  0  0  0  0  0  0  0  0  0  0
    7.5121   -2.1912   22.8300 N   0  0  0  0  0  0  0  0  0  0  0  0
    7.0023   -2.8675   23.3849 H   0  0  0  0  0  0  0  0  0  0  0  0
    8.8576   -1.9267   22.9473 C   0  0  0  0  0  0  0  0  0  0  0  0
    9.4107   -2.3936   23.7571 H   0  0  0  0  0  0  0  0  0  0  0  0
  1  2  1  0
  2  3  1  0
  3  4  2  0
  4  5  1  0
  4  6  1  0
  6  7  1  0
  6  8  2  0
  8  9  1  0
  8 10  1  0
 10 11  1  0
 10 12  2  0
 12 13  1  0
 13 14  1  0
 14 15  2  0
 15 16  1  0
 16 17  2  0
 17 18  1  0
 17 19  1  0
 19 20  2  0
 20 21  1  0
 20 22  1  0
 22 23  1  0
 22 24  2  0
 24 25  1  0
 15 26  1  0
 26 27  2  0
 26 28  1  0
 28 29  1  0
 28 30  1  0
 30 31  1  0
 12  3  1  0
 30 13  2  0
 24 16  1  0
M  END
>  <cnnaffinity>  (1) 
-5.62392

>  <filename>  (1) 
O=c1[nH]cc(-c2ccccc2O)nc1-c1cccnc1

$$$$
