
     RDKit          3D

 39 41  0  0  0  0  0  0  0  0999 V2000
    5.1322    1.8790   16.9717 H   0  0  0  0  0  0  0  0  0  0  0  0
    5.5675    1.3366   17.8080 C   0  0  0  0  0  0  0  0  0  0  0  0
    6.7354    0.7168   17.5640 N   0  0  0  0  0  0  0  0  0  0  0  0
    7.2990    0.0422   18.5748 C   0  0  0  0  0  0  0  0  0  0  0  0
    8.2403   -0.4657   18.3648 H   0  0  0  0  0  0  0  0  0  0  0  0
    6.7306   -0.0658   19.8590 C   0  0  0  0  0  0  0  0  0  0  0  0
    7.3737   -0.8096   20.9120 N   0  0  0  0  0  0  0  0  0  0  0  0
    8.6681   -0.4575   21.2866 C   0  0  0  0  0  0  0  0  0  0  0  0
    9.1005    0.3768   20.7453 H   0  0  0  0  0  0  0  0  0  0  0  0
    9.3482   -1.0967   22.2946 C   0  0  0  0  0  0  0  0  0  0  0  0
   10.6585   -0.7998   22.7006 N   0  0  0  0  0  0  0  0  0  0  0  0
   10.8331   -1.1581   23.6303 H   0  0  0  0  0  0  0  0  0  0  0  0
   11.2526    0.5176   22.4759 C   0  0  0  0  0  0  0  0  0  0  0  0
   11.2199    0.6882   21.3909 H   0  0  0  0  0  0  0  0  0  0  0  0
   12.7408    0.5400   22.9035 C   0  0  0  0  0  0  0  0  0  0  0  0
   13.3376   -0.0040   22.1611 H   0  0  0  0  0  0  0  0  0  0  0  0
   12.8405   -0.0064   23.8520 H   0  0  0  0  0  0  0  0  0  0  0  0
   13.3001    1.9807   23.1067 C   0  0  0  0  0  0  0  0  0  0  0  0
   14.3685    2.0118   22.8737 H   0  0  0  0  0  0  0  0  0  0  0  0
   13.2234    2.2460   24.1680 H   0  0  0  0  0  0  0  0  0  0  0  0
   12.5288    3.0487   22.3062 C   0  0  0  0  0  0  0  0  0  0  0  0
   12.6424    2.8780   21.2262 H   0  0  0  0  0  0  0  0  0  0  0  0
   12.9342    4.0509   22.4989 H   0  0  0  0  0  0  0  0  0  0  0  0
   11.0128    3.0282   22.6331 C   0  0  0  0  0  0  0  0  0  0  0  0
   10.4614    3.2229   21.7112 H   0  0  0  0  0  0  0  0  0  0  0  0
   10.7336    3.8248   23.3316 H   0  0  0  0  0  0  0  0  0  0  0  0
   10.5229    1.6741   23.1815 C   0  0  0  0  0  0  0  0  0  0  0  0
   10.7276    1.6000   24.2582 H   0  0  0  0  0  0  0  0  0  0  0  0
    9.4383    1.5682   23.0716 H   0  0  0  0  0  0  0  0  0  0  0  0
    8.6711   -2.1810   22.9560 C   0  0  0  0  0  0  0  0  0  0  0  0
    9.2128   -2.7132   23.7387 H   0  0  0  0  0  0  0  0  0  0  0  0
    7.4020   -2.5348   22.6206 C   0  0  0  0  0  0  0  0  0  0  0  0
    6.8351   -3.3172   23.1046 H   0  0  0  0  0  0  0  0  0  0  0  0
    6.6557   -1.8852   21.5502 C   0  0  0  0  0  0  0  0  0  0  0  0
    5.5468   -2.2424   21.1958 O   0  0  0  0  0  0  0  0  0  0  0  0
    5.4947    0.5557   20.0878 C   0  0  0  0  0  0  0  0  0  0  0  0
    5.0066    0.4480   21.0548 H   0  0  0  0  0  0  0  0  0  0  0  0
    4.9168    1.2859   19.0458 C   0  0  0  0  0  0  0  0  0  0  0  0
    3.9796    1.8188   19.1799 H   0  0  0  0  0  0  0  0  0  0  0  0
  1  2  1  0
  2  3  2  0
  3  4  1  0
  4  5  1  0
  4  6  2  0
  6  7  1  0
  7  8  1  0
  8  9  1  0
  8 10  2  0
 10 11  1  0
 11 12  1  0
 11 13  1  0
 13 14  1  0
 13 15  1  0
 15 16  1  0
 15 17  1  0
 15 18  1  0
 18 19  1  0
 18 20  1  0
 18 21  1  0
 21 22  1  0
 21 23  1  0
 21 24  1  0
 24 25  1  0
 24 26  1  0
 24 27  1  0
 27 28  1  0
 27 29  1  0
 10 30  1  0
 30 31  1  0
 30 32  2  0
 32 33  1  0
 32 34  1  0
 34 35  2  0
  6 36  1  0
 36 37  1  0
 36 38  2  0
 38 39  1  0
 38  2  1  0
 34  7  1  0
 27 13  1  0
M  END
>  <cnnaffinity>  (1) 
-5.2643

>  <filename>  (1) 
O=c1ccc(NC2CCCCC2)cn1-c1cccnc1

$$$$
