
     RDKit          3D

 39 41  0  0  0  0  0  0  0  0999 V2000
    5.1221    1.8921   16.9723 H   0  0  0  0  0  0  0  0  0  0  0  0
    5.5636    1.3392   17.8014 C   0  0  0  0  0  0  0  0  0  0  0  0
    6.7368    0.7333   17.5547 N   0  0  0  0  0  0  0  0  0  0  0  0
    7.3194    0.0604   18.5562 C   0  0  0  0  0  0  0  0  0  0  0  0
    8.2670   -0.4299   18.3255 H   0  0  0  0  0  0  0  0  0  0  0  0
    6.7540   -0.0629   19.8420 C   0  0  0  0  0  0  0  0  0  0  0  0
    7.4030   -0.8030   20.9039 N   0  0  0  0  0  0  0  0  0  0  0  0
    8.7121   -0.4645   21.2831 C   0  0  0  0  0  0  0  0  0  0  0  0
    9.1651    0.3498   20.7162 H   0  0  0  0  0  0  0  0  0  0  0  0
    9.3765   -1.0875   22.2923 C   0  0  0  0  0  0  0  0  0  0  0  0
   10.7131   -0.7959   22.6445 N   0  0  0  0  0  0  0  0  0  0  0  0
   11.0126   -1.2547   23.5015 H   0  0  0  0  0  0  0  0  0  0  0  0
   11.2856    0.5317   22.4745 C   0  0  0  0  0  0  0  0  0  0  0  0
   11.2257    0.7688   21.4030 H   0  0  0  0  0  0  0  0  0  0  0  0
   12.7781    0.5305   22.8664 C   0  0  0  0  0  0  0  0  0  0  0  0
   13.3473   -0.0085   22.1000 H   0  0  0  0  0  0  0  0  0  0  0  0
   12.9016   -0.0367   23.8005 H   0  0  0  0  0  0  0  0  0  0  0  0
   13.3433    1.9637   23.0890 C   0  0  0  0  0  0  0  0  0  0  0  0
   14.4045    1.9969   22.8184 H   0  0  0  0  0  0  0  0  0  0  0  0
   13.2787    2.1927   24.1594 H   0  0  0  0  0  0  0  0  0  0  0  0
   12.5439    3.0562   22.3512 C   0  0  0  0  0  0  0  0  0  0  0  0
   12.6416    2.9279   21.2653 H   0  0  0  0  0  0  0  0  0  0  0  0
   12.9596    4.0480   22.5658 H   0  0  0  0  0  0  0  0  0  0  0  0
   11.0367    3.0231   22.7252 C   0  0  0  0  0  0  0  0  0  0  0  0
   10.4541    3.2673   21.8311 H   0  0  0  0  0  0  0  0  0  0  0  0
   10.7917    3.7914   23.4660 H   0  0  0  0  0  0  0  0  0  0  0  0
   10.5652    1.6471   23.2458 C   0  0  0  0  0  0  0  0  0  0  0  0
   10.7767    1.5302   24.3185 H   0  0  0  0  0  0  0  0  0  0  0  0
    9.4809    1.5390   23.1462 H   0  0  0  0  0  0  0  0  0  0  0  0
    8.6444   -2.1898   23.0171 C   0  0  0  0  0  0  0  0  0  0  0  0
    9.0755   -2.8805   23.9232 O   0  0  0  0  0  0  0  0  0  0  0  0
    7.3548   -2.4100   22.5976 N   0  0  0  0  0  0  0  0  0  0  0  0
    6.8646   -3.1517   23.0594 H   0  0  0  0  0  0  0  0  0  0  0  0
    6.6912   -1.8444   21.5519 C   0  0  0  0  0  0  0  0  0  0  0  0
    5.6012   -2.2518   21.2291 O   0  0  0  0  0  0  0  0  0  0  0  0
    5.5111    0.5395   20.0746 C   0  0  0  0  0  0  0  0  0  0  0  0
    5.0266    0.4294   21.0434 H   0  0  0  0  0  0  0  0  0  0  0  0
    4.9189    1.2695   19.0395 C   0  0  0  0  0  0  0  0  0  0  0  0
    3.9774    1.7892   19.1813 H   0  0  0  0  0  0  0  0  0  0  0  0
  1  2  1  0
  2  3  2  0
  3  4  1  0
  4  5  1  0
  4  6  2  0
  6  7  1  0
  7  8  1  0
  8  9  1  0
  8 10  2  0
 10 11  1  0
 11 12  1  0
 11 13  1  0
 13 14  1  0
 13 15  1  0
 15 16  1  0
 15 17  1  0
 15 18  1  0
 18 19  1  0
 18 20  1  0
 18 21  1  0
 21 22  1  0
 21 23  1  0
 21 24  1  0
 24 25  1  0
 24 26  1  0
 24 27  1  0
 27 28  1  0
 27 29  1  0
 10 30  1  0
 30 31  2  0
 30 32  1  0
 32 33  1  0
 32 34  1  0
 34 35  2  0
  6 36  1  0
 36 37  1  0
 36 38  2  0
 38 39  1  0
 38  2  1  0
 34  7  1  0
 27 13  1  0
M  END
>  <cnnaffinity>  (1) 
-5.14787

>  <filename>  (1) 
O=c1[nH]c(=O)n(-c2cccnc2)cc1NC1CCCCC1

$$$$
