
     RDKit          3D

 32 34  0  0  0  0  0  0  0  0999 V2000
    5.0060    1.8091   16.9690 H   0  0  0  0  0  0  0  0  0  0  0  0
    5.4782    1.3095   17.8123 C   0  0  0  0  0  0  0  0  0  0  0  0
    6.6752    0.7435   17.5745 N   0  0  0  0  0  0  0  0  0  0  0  0
    7.2695    0.1209   18.5959 C   0  0  0  0  0  0  0  0  0  0  0  0
    8.2474   -0.3181   18.4279 H   0  0  0  0  0  0  0  0  0  0  0  0
    6.6883   -0.0152   19.8687 C   0  0  0  0  0  0  0  0  0  0  0  0
    7.3742   -0.7747   20.8625 N   0  0  0  0  0  0  0  0  0  0  0  0
    8.7211   -0.5231   20.9344 N   0  0  0  0  0  0  0  0  0  0  0  0
    9.4101   -1.0737   21.8934 C   0  0  0  0  0  0  0  0  0  0  0  0
   10.8593   -0.6616   21.9930 C   0  0  0  0  0  0  0  0  0  0  0  0
   11.2058   -0.3870   20.9926 H   0  0  0  0  0  0  0  0  0  0  0  0
   11.4706   -1.4902   22.3627 H   0  0  0  0  0  0  0  0  0  0  0  0
   10.9343    0.5200   22.9251 C   0  0  0  0  0  0  0  0  0  0  0  0
   10.9629    0.3477   24.3138 C   0  0  0  0  0  0  0  0  0  0  0  0
   11.1152   -0.6193   24.7811 H   0  0  0  0  0  0  0  0  0  0  0  0
   10.7699    1.4637   25.1271 C   0  0  0  0  0  0  0  0  0  0  0  0
   10.7170    1.3469   26.2106 H   0  0  0  0  0  0  0  0  0  0  0  0
   10.6187    2.7048   24.6535 N   0  0  0  0  0  0  0  0  0  0  0  0
   10.6537    2.8736   23.3247 C   0  0  0  0  0  0  0  0  0  0  0  0
   10.5763    3.8989   22.9630 H   0  0  0  0  0  0  0  0  0  0  0  0
   10.7925    1.8159   22.4278 C   0  0  0  0  0  0  0  0  0  0  0  0
   10.7790    2.0197   21.3624 H   0  0  0  0  0  0  0  0  0  0  0  0
    8.7984   -1.9427   22.8723 C   0  0  0  0  0  0  0  0  0  0  0  0
    9.3946   -2.3182   23.7055 H   0  0  0  0  0  0  0  0  0  0  0  0
    7.4909   -2.2931   22.7296 C   0  0  0  0  0  0  0  0  0  0  0  0
    6.9570   -2.9659   23.3923 H   0  0  0  0  0  0  0  0  0  0  0  0
    6.6819   -1.7866   21.6245 C   0  0  0  0  0  0  0  0  0  0  0  0
    5.5535   -2.1614   21.3544 O   0  0  0  0  0  0  0  0  0  0  0  0
    5.4613    0.6063   20.1236 C   0  0  0  0  0  0  0  0  0  0  0  0
    5.0088    0.5629   21.1142 H   0  0  0  0  0  0  0  0  0  0  0  0
    4.8517    1.2871   19.0635 C   0  0  0  0  0  0  0  0  0  0  0  0
    3.9112    1.8111   19.2010 H   0  0  0  0  0  0  0  0  0  0  0  0
  1  2  1  0
  2  3  2  0
  3  4  1  0
  4  5  1  0
  4  6  2  0
  6  7  1  0
  7  8  1  0
  8  9  2  0
  9 10  1  0
 10 11  1  0
 10 12  1  0
 10 13  1  0
 13 14  2  0
 14 15  1  0
 14 16  1  0
 16 17  1  0
 16 18  2  0
 18 19  1  0
 19 20  1  0
 19 21  2  0
 21 22  1  0
  9 23  1  0
 23 24  1  0
 23 25  2  0
 25 26  1  0
 25 27  1  0
 27 28  2  0
  6 29  1  0
 29 30  1  0
 29 31  2  0
 31 32  1  0
 31  2  1  0
 27  7  1  0
 21 13  1  0
M  END
>  <cnnaffinity>  (1) 
-5.41553

>  <filename>  (1) 
O=c1ccc(Cc2ccncc2)nn1-c1cccnc1

$$$$
