
     RDKit          3D

 34 37  0  0  0  0  0  0  0  0999 V2000
    5.0968    1.7151   16.8181 H   0  0  0  0  0  0  0  0  0  0  0  0
    5.4284    1.2566   17.7462 C   0  0  0  0  0  0  0  0  0  0  0  0
    6.6147    0.6241   17.6892 N   0  0  0  0  0  0  0  0  0  0  0  0
    7.0524    0.0396   18.8113 C   0  0  0  0  0  0  0  0  0  0  0  0
    8.0112   -0.4720   18.7766 H   0  0  0  0  0  0  0  0  0  0  0  0
    6.3295    0.0289   20.0164 C   0  0  0  0  0  0  0  0  0  0  0  0
    6.8908   -0.6158   21.1585 N   0  0  0  0  0  0  0  0  0  0  0  0
    8.2305   -0.4273   21.3323 N   0  0  0  0  0  0  0  0  0  0  0  0
    8.7612   -0.8043   22.4730 C   0  0  0  0  0  0  0  0  0  0  0  0
   10.2418   -0.8070   22.4756 C   0  0  0  0  0  0  0  0  0  0  0  0
   11.0855   -0.2156   23.4406 C   0  0  0  0  0  0  0  0  0  0  0  0
   10.5973    0.1761   24.3344 H   0  0  0  0  0  0  0  0  0  0  0  0
   12.5059   -0.1063   23.4578 C   0  0  0  0  0  0  0  0  0  0  0  0
   12.8123    0.3281   24.4310 H   0  0  0  0  0  0  0  0  0  0  0  0
   13.6827   -0.3759   22.3558 C   0  0  0  0  0  0  0  0  0  0  0  0
   14.0149   -0.1590   22.4954 C   0  0  0  0  0  0  0  0  0  0  0  0
   14.8726   -0.3434   23.1562 H   0  0  0  0  0  0  0  0  0  0  0  0
   14.0878   -1.2116   21.0781 C   0  0  0  0  0  0  0  0  0  0  0  0
   15.1239   -1.4205   20.7598 H   0  0  0  0  0  0  0  0  0  0  0  0
   13.0532   -1.9926   20.4967 N   0  0  0  0  0  0  0  0  0  0  0  0
   12.7049   -1.7967   19.5517 H   0  0  0  0  0  0  0  0  0  0  0  0
   12.1689   -1.6494   21.4806 C   0  0  0  0  0  0  0  0  0  0  0  0
   10.8599   -1.4738   21.4208 C   0  0  0  0  0  0  0  0  0  0  0  0
   10.2626   -1.9022   20.6125 H   0  0  0  0  0  0  0  0  0  0  0  0
    7.9716   -1.3804   23.6151 C   0  0  0  0  0  0  0  0  0  0  0  0
    8.3990   -1.5513   24.7497 O   0  0  0  0  0  0  0  0  0  0  0  0
    6.6466   -1.8123   23.1915 C   0  0  0  0  0  0  0  0  0  0  0  0
    6.0584   -2.3752   23.8994 H   0  0  0  0  0  0  0  0  0  0  0  0
    6.1750   -1.4496   21.9808 C   0  0  0  0  0  0  0  0  0  0  0  0
    5.2101   -1.7733   21.5930 H   0  0  0  0  0  0  0  0  0  0  0  0
    5.0900    0.6777   20.0679 C   0  0  0  0  0  0  0  0  0  0  0  0
    4.5306    0.7001   21.0045 H   0  0  0  0  0  0  0  0  0  0  0  0
    4.6447    1.3220   18.9057 C   0  0  0  0  0  0  0  0  0  0  0  0
    3.7116    1.8785   18.8858 H   0  0  0  0  0  0  0  0  0  0  0  0
  1  2  1  0
  2  3  2  0
  3  4  1  0
  4  5  1  0
  4  6  2  0
  6  7  1  0
  7  8  1  0
  8  9  2  0
  9 10  1  0
 10 11  2  0
 11 12  1  0
 11 13  1  0
 13 14  1  0
 13 15  2  0
 15 16  1  0
 16 17  1  0
 16 18  2  0
 18 19  1  0
 18 20  1  0
 20 21  1  0
 20 22  1  0
 22 23  2  0
 23 24  1  0
  9 25  1  0
 25 26  2  0
 25 27  1  0
 27 28  1  0
 27 29  2  0
 29 30  1  0
  6 31  1  0
 31 32  1  0
 31 33  2  0
 33 34  1  0
 33  2  1  0
 29  7  1  0
 23 10  1  0
 22 15  1  0
M  END
>  <cnnaffinity>  (1) 
-5.95571

>  <filename>  (1) 
O=c1ccn(-c2cccnc2)nc1-c1ccc2cc[nH]c2c1

$$$$
