
     RDKit          3D

 18 19  0  0  0  0  0  0  0  0999 V2000
    4.9287    1.8383   17.0377 H   0  0  0  0  0  0  0  0  0  0  0  0
    5.4325    1.3047   17.8358 C   0  0  0  0  0  0  0  0  0  0  0  0
    6.6094    0.7011   17.5796 N   0  0  0  0  0  0  0  0  0  0  0  0
    7.2200    0.0708   18.6072 C   0  0  0  0  0  0  0  0  0  0  0  0
    8.1620   -0.4312   18.4013 H   0  0  0  0  0  0  0  0  0  0  0  0
    6.6760   -0.0142   19.9152 C   0  0  0  0  0  0  0  0  0  0  0  0
    7.2980   -0.7352   20.9708 N   0  0  0  0  0  0  0  0  0  0  0  0
    8.5277   -0.4958   21.6083 C   0  0  0  0  0  0  0  0  0  0  0  0
    9.9428    1.2177   21.3236 I   0  0  0  0  0  0  0  0  0  0  0  0
    8.8094   -1.3820   22.5377 N   0  0  0  0  0  0  0  0  0  0  0  0
    7.7481   -2.2366   22.5160 N   0  0  0  0  0  0  0  0  0  0  0  0
    7.4685   -2.7621   23.3384 H   0  0  0  0  0  0  0  0  0  0  0  0
    6.7612   -1.7924   21.6759 C   0  0  0  0  0  0  0  0  0  0  0  0
    5.6564   -2.3154   21.6022 O   0  0  0  0  0  0  0  0  0  0  0  0
    5.4436    0.6067   20.1505 C   0  0  0  0  0  0  0  0  0  0  0  0
    5.0035    0.5645   21.1439 H   0  0  0  0  0  0  0  0  0  0  0  0
    4.8267    1.2855   19.0947 C   0  0  0  0  0  0  0  0  0  0  0  0
    3.8852    1.8064   19.2469 H   0  0  0  0  0  0  0  0  0  0  0  0
  1  2  1  0
  2  3  2  0
  3  4  1  0
  4  5  1  0
  4  6  2  0
  6  7  1  0
  7  8  1  0
  8  9  1  0
  8 10  2  0
 10 11  1  0
 11 12  1  0
 11 13  1  0
 13 14  2  0
  6 15  1  0
 15 16  1  0
 15 17  2  0
 17 18  1  0
 17  2  1  0
 13  7  1  0
M  END
>  <cnnaffinity>  (1) 
-4.18489

>  <filename>  (1) 
O=c1[nH]nc(I)n1-c1cccnc1

$$$$
