
     RDKit          3D

 38 40  0  0  0  0  0  0  0  0999 V2000
    5.1279    1.9449   16.9299 H   0  0  0  0  0  0  0  0  0  0  0  0
    5.4940    1.4296   17.8179 C   0  0  0  0  0  0  0  0  0  0  0  0
    6.6194    0.7151   17.6639 N   0  0  0  0  0  0  0  0  0  0  0  0
    7.0921    0.0521   18.7262 C   0  0  0  0  0  0  0  0  0  0  0  0
    7.9993   -0.5289   18.5752 H   0  0  0  0  0  0  0  0  0  0  0  0
    6.4551    0.0485   19.9797 C   0  0  0  0  0  0  0  0  0  0  0  0
    6.9773   -0.7276   21.0621 N   0  0  0  0  0  0  0  0  0  0  0  0
    7.4275    0.0127   22.1408 N   0  0  0  0  0  0  0  0  0  0  0  0
    8.0478   -0.6213   23.1038 C   0  0  0  0  0  0  0  0  0  0  0  0
    8.4093    0.1720   24.1707 N   0  0  0  0  0  0  0  0  0  0  0  0
    8.2945    1.1265   23.8495 H   0  0  0  0  0  0  0  0  0  0  0  0
    9.5487   -0.0963   25.0256 C   0  0  0  0  0  0  0  0  0  0  0  0
    9.5617    0.6845   25.7995 H   0  0  0  0  0  0  0  0  0  0  0  0
    9.3826   -1.0361   25.5679 H   0  0  0  0  0  0  0  0  0  0  0  0
   10.9073   -0.1410   24.2983 C   0  0  0  0  0  0  0  0  0  0  0  0
   11.6740   -0.4028   25.0377 H   0  0  0  0  0  0  0  0  0  0  0  0
   10.8874   -0.9496   23.5537 H   0  0  0  0  0  0  0  0  0  0  0  0
   11.2360    1.1654   23.6065 C   0  0  0  0  0  0  0  0  0  0  0  0
   11.0987    1.2731   22.2156 C   0  0  0  0  0  0  0  0  0  0  0  0
   10.8038    0.3883   21.6552 H   0  0  0  0  0  0  0  0  0  0  0  0
   11.3071    2.4926   21.5623 C   0  0  0  0  0  0  0  0  0  0  0  0
   11.2158    2.5598   20.4821 H   0  0  0  0  0  0  0  0  0  0  0  0
   11.6317    3.6323   22.3057 C   0  0  0  0  0  0  0  0  0  0  0  0
   11.7609    4.5885   21.8012 H   0  0  0  0  0  0  0  0  0  0  0  0
   11.7708    3.5417   23.6952 C   0  0  0  0  0  0  0  0  0  0  0  0
   12.0169    4.4260   24.2763 H   0  0  0  0  0  0  0  0  0  0  0  0
   11.5723    2.3142   24.3403 C   0  0  0  0  0  0  0  0  0  0  0  0
   11.6413    2.2306   25.4209 H   0  0  0  0  0  0  0  0  0  0  0  0
    8.2709   -2.0474   23.0781 C   0  0  0  0  0  0  0  0  0  0  0  0
    8.8276   -2.5022   23.8962 H   0  0  0  0  0  0  0  0  0  0  0  0
    7.7452   -2.7779   22.0590 C   0  0  0  0  0  0  0  0  0  0  0  0
    7.8338   -3.8545   21.9679 H   0  0  0  0  0  0  0  0  0  0  0  0
    6.9481   -2.1624   20.9957 C   0  0  0  0  0  0  0  0  0  0  0  0
    6.3371   -2.7703   20.1342 O   0  0  0  0  0  0  0  0  0  0  0  0
    5.3025    0.8234   20.1429 C   0  0  0  0  0  0  0  0  0  0  0  0
    4.8139    0.8655   21.1144 H   0  0  0  0  0  0  0  0  0  0  0  0
    4.8131    1.5285   19.0357 C   0  0  0  0  0  0  0  0  0  0  0  0
    3.9394    2.1669   19.1026 H   0  0  0  0  0  0  0  0  0  0  0  0
  1  2  1  0
  2  3  2  0
  3  4  1  0
  4  5  1  0
  4  6  2  0
  6  7  1  0
  7  8  1  0
  8  9  2  0
  9 10  1  0
 10 11  1  0
 10 12  1  0
 12 13  1  0
 12 14  1  0
 12 15  1  0
 15 16  1  0
 15 17  1  0
 15 18  1  0
 18 19  2  0
 19 20  1  0
 19 21  1  0
 21 22  1  0
 21 23  2  0
 23 24  1  0
 23 25  1  0
 25 26  1  0
 25 27  2  0
 27 28  1  0
  9 29  1  0
 29 30  1  0
 29 31  2  0
 31 32  1  0
 31 33  1  0
 33 34  2  0
  6 35  1  0
 35 36  1  0
 35 37  2  0
 37 38  1  0
 37  2  1  0
 33  7  1  0
 27 18  1  0
M  END
>  <cnnaffinity>  (1) 
-5.28483

>  <filename>  (1) 
O=c1ccc(NCCc2ccccc2)nn1-c1cccnc1

$$$$
