
     RDKit          3D

 25 27  0  0  0  0  0  0  0  0999 V2000
    4.9377    1.8000   16.9804 H   0  0  0  0  0  0  0  0  0  0  0  0
    5.3974    1.2952   17.8287 C   0  0  0  0  0  0  0  0  0  0  0  0
    6.5649    0.6793   17.5820 N   0  0  0  0  0  0  0  0  0  0  0  0
    7.1574    0.0505   18.6008 C   0  0  0  0  0  0  0  0  0  0  0  0
    8.1052   -0.4351   18.3685 H   0  0  0  0  0  0  0  0  0  0  0  0
    6.6287    0.0151   19.9003 C   0  0  0  0  0  0  0  0  0  0  0  0
    7.3572   -0.7096   20.9323 C   0  0  0  0  0  0  0  0  0  0  0  0
    7.8568   -1.8845   20.7207 N   0  0  0  0  0  0  0  0  0  0  0  0
    8.3454   -2.2644   21.9379 N   0  0  0  0  0  0  0  0  0  0  0  0
    8.7895   -3.1474   22.1175 H   0  0  0  0  0  0  0  0  0  0  0  0
    8.1955   -1.3493   22.9238 C   0  0  0  0  0  0  0  0  0  0  0  0
    8.5570   -1.4579   24.0785 O   0  0  0  0  0  0  0  0  0  0  0  0
    7.5473   -0.2866   22.2503 N   0  0  0  0  0  0  0  0  0  0  0  0
    7.3052    0.9682   22.8334 C   0  0  0  0  0  0  0  0  0  0  0  0
    7.5526    2.4645   21.9886 S   0  0  0  0  0  0  0  0  0  0  0  0
    7.0744    3.3486   23.3899 C   0  0  0  0  0  0  0  0  0  0  0  0
    7.0449    4.4279   23.3379 H   0  0  0  0  0  0  0  0  0  0  0  0
    6.7795    2.5401   24.4443 C   0  0  0  0  0  0  0  0  0  0  0  0
    6.5101    2.9064   25.4290 H   0  0  0  0  0  0  0  0  0  0  0  0
    6.9170    1.1599   24.1228 C   0  0  0  0  0  0  0  0  0  0  0  0
    6.7838    0.3257   24.8018 H   0  0  0  0  0  0  0  0  0  0  0  0
    5.3971    0.6368   20.1395 C   0  0  0  0  0  0  0  0  0  0  0  0
    4.9739    0.6291   21.1461 H   0  0  0  0  0  0  0  0  0  0  0  0
    4.7803    1.3020   19.0840 C   0  0  0  0  0  0  0  0  0  0  0  0
    3.8583    1.8491   19.2338 H   0  0  0  0  0  0  0  0  0  0  0  0
  1  2  1  0
  2  3  2  0
  3  4  1  0
  4  5  1  0
  4  6  2  0
  6  7  1  0
  7  8  2  0
  8  9  1  0
  9 10  1  0
  9 11  1  0
 11 12  2  0
 11 13  1  0
 13 14  1  0
 14 15  1  0
 15 16  1  0
 16 17  1  0
 16 18  2  0
 18 19  1  0
 18 20  1  0
 20 21  1  0
  6 22  1  0
 22 23  1  0
 22 24  2  0
 24 25  1  0
 24  2  1  0
 13  7  1  0
 20 14  2  0
M  END
>  <cnnaffinity>  (1) 
-4.75278

>  <filename>  (1) 
O=c1[nH]nc(-c2cccnc2)n1-c1cccs1

$$$$
