
     RDKit          3D

 33 36  0  0  0  0  0  0  0  0999 V2000
    4.9408    1.7955   16.9779 H   0  0  0  0  0  0  0  0  0  0  0  0
    5.3993    1.2987   17.8310 C   0  0  0  0  0  0  0  0  0  0  0  0
    6.5574    0.6713   17.5796 N   0  0  0  0  0  0  0  0  0  0  0  0
    7.1581    0.0575   18.6061 C   0  0  0  0  0  0  0  0  0  0  0  0
    8.1007   -0.4339   18.3679 H   0  0  0  0  0  0  0  0  0  0  0  0
    6.6415    0.0166   19.9083 C   0  0  0  0  0  0  0  0  0  0  0  0
    7.3594   -0.7116   20.9923 C   0  0  0  0  0  0  0  0  0  0  0  0
    6.6034   -1.2697   21.8975 N   0  0  0  0  0  0  0  0  0  0  0  0
    7.1712   -1.9566   22.9474 N   0  0  0  0  0  0  0  0  0  0  0  0
    6.2942   -2.5714   23.8727 C   0  0  0  0  0  0  0  0  0  0  0  0
    5.1453   -3.1043   23.5745 N   0  0  0  0  0  0  0  0  0  0  0  0
    4.5967   -3.4564   24.7914 C   0  0  0  0  0  0  0  0  0  0  0  0
    3.3131   -3.9539   25.0833 C   0  0  0  0  0  0  0  0  0  0  0  0
    2.5920   -4.0618   24.2788 H   0  0  0  0  0  0  0  0  0  0  0  0
    3.0105   -4.2672   26.4066 C   0  0  0  0  0  0  0  0  0  0  0  0
    2.0333   -4.6769   26.6419 H   0  0  0  0  0  0  0  0  0  0  0  0
    3.9595   -4.0771   27.4357 C   0  0  0  0  0  0  0  0  0  0  0  0
    3.6987   -4.3589   28.4528 H   0  0  0  0  0  0  0  0  0  0  0  0
    5.2190   -3.5358   27.1689 C   0  0  0  0  0  0  0  0  0  0  0  0
    5.9443   -3.3972   27.9620 H   0  0  0  0  0  0  0  0  0  0  0  0
    5.5089   -3.1994   25.8392 C   0  0  0  0  0  0  0  0  0  0  0  0
    6.5883   -2.6052   25.2148 N   0  0  0  0  0  0  0  0  0  0  0  0
    7.5109   -2.4299   25.5732 H   0  0  0  0  0  0  0  0  0  0  0  0
    8.5806   -2.1095   23.1295 C   0  0  0  0  0  0  0  0  0  0  0  0
    9.0393   -2.7159   24.0846 O   0  0  0  0  0  0  0  0  0  0  0  0
    9.3824   -1.4703   22.0848 C   0  0  0  0  0  0  0  0  0  0  0  0
   10.4561   -1.5696   22.2145 H   0  0  0  0  0  0  0  0  0  0  0  0
    8.7968   -0.7894   21.0559 C   0  0  0  0  0  0  0  0  0  0  0  0
    9.3661   -0.2601   20.2984 H   0  0  0  0  0  0  0  0  0  0  0  0
    5.4159    0.6581   20.1519 C   0  0  0  0  0  0  0  0  0  0  0  0
    4.9822    0.6216   21.1533 H   0  0  0  0  0  0  0  0  0  0  0  0
    4.7943    1.3228   19.0940 C   0  0  0  0  0  0  0  0  0  0  0  0
    3.8611    1.8586   19.2275 H   0  0  0  0  0  0  0  0  0  0  0  0
  1  2  1  0
  2  3  2  0
  3  4  1  0
  4  5  1  0
  4  6  2  0
  6  7  1  0
  7  8  2  0
  8  9  1  0
  9 10  1  0
 10 11  2  0
 11 12  1  0
 12 13  2  0
 13 14  1  0
 13 15  1  0
 15 16  1  0
 15 17  2  0
 17 18  1  0
 17 19  1  0
 19 20  1  0
 19 21  2  0
 21 22  1  0
 22 23  1  0
  9 24  1  0
 24 25  2  0
 24 26  1  0
 26 27  1  0
 26 28  2  0
 28 29  1  0
  6 30  1  0
 30 31  1  0
 30 32  2  0
 32 33  1  0
 32  2  1  0
 28  7  1  0
 22 10  1  0
 21 12  1  0
M  END
>  <cnnaffinity>  (1) 
-5.28461

>  <filename>  (1) 
O=c1ccc(-c2cccnc2)nn1-c1nc2ccccc2[nH]1

$$$$
