
     RDKit          3D

 39 41  0  0  0  0  0  0  0  0999 V2000
    4.9303    1.8000   16.9969 H   0  0  0  0  0  0  0  0  0  0  0  0
    5.4139    1.3128   17.8415 C   0  0  0  0  0  0  0  0  0  0  0  0
    6.5869    0.7055   17.5926 N   0  0  0  0  0  0  0  0  0  0  0  0
    7.1921    0.0682   18.6059 C   0  0  0  0  0  0  0  0  0  0  0  0
    8.1470   -0.4101   18.3855 H   0  0  0  0  0  0  0  0  0  0  0  0
    6.6568    0.0104   19.9136 C   0  0  0  0  0  0  0  0  0  0  0  0
    7.3089   -0.6629   20.9974 N   0  0  0  0  0  0  0  0  0  0  0  0
    7.9469   -0.0816   22.1192 C   0  0  0  0  0  0  0  0  0  0  0  0
    7.7032    1.3117   22.6169 C   0  0  0  0  0  0  0  0  0  0  0  0
    7.3820    1.9801   21.8122 H   0  0  0  0  0  0  0  0  0  0  0  0
    8.6353    1.7366   23.0036 H   0  0  0  0  0  0  0  0  0  0  0  0
    6.6526    1.3483   23.7489 C   0  0  0  0  0  0  0  0  0  0  0  0
    6.3901    2.4018   23.9531 H   0  0  0  0  0  0  0  0  0  0  0  0
    5.7324    0.8786   23.3708 H   0  0  0  0  0  0  0  0  0  0  0  0
    7.0887    0.6550   24.9636 N   0  0  0  0  0  0  0  0  0  0  0  0
    5.9720    0.0580   25.7182 C   0  0  0  0  0  0  0  0  0  0  0  0
    5.6042   -0.8044   25.1457 H   0  0  0  0  0  0  0  0  0  0  0  0
    5.1124    0.7518   25.8234 H   0  0  0  0  0  0  0  0  0  0  0  0
    6.4005   -0.3855   27.1197 C   0  0  0  0  0  0  0  0  0  0  0  0
    7.1837   -1.1450   27.0091 H   0  0  0  0  0  0  0  0  0  0  0  0
    5.5577   -0.8786   27.6178 H   0  0  0  0  0  0  0  0  0  0  0  0
    6.9215    0.8005   27.9717 C   0  0  0  0  0  0  0  0  0  0  0  0
    6.1173    1.2015   28.6004 H   0  0  0  0  0  0  0  0  0  0  0  0
    7.6987    0.4365   28.6555 H   0  0  0  0  0  0  0  0  0  0  0  0
    7.4844    1.9353   27.0842 C   0  0  0  0  0  0  0  0  0  0  0  0
    8.2346    2.5239   27.6219 H   0  0  0  0  0  0  0  0  0  0  0  0
    6.6776    2.6279   26.8091 H   0  0  0  0  0  0  0  0  0  0  0  0
    8.0833    1.3728   25.7898 C   0  0  0  0  0  0  0  0  0  0  0  0
    8.5516    2.1781   25.2101 H   0  0  0  0  0  0  0  0  0  0  0  0
    8.8977    0.6776   26.0498 H   0  0  0  0  0  0  0  0  0  0  0  0
    8.4783   -1.1084   22.7971 C   0  0  0  0  0  0  0  0  0  0  0  0
    9.0375   -1.1624   23.7187 H   0  0  0  0  0  0  0  0  0  0  0  0
    8.1315   -2.3034   22.2066 O   0  0  0  0  0  0  0  0  0  0  0  0
    7.3157   -2.0488   21.1372 C   0  0  0  0  0  0  0  0  0  0  0  0
    6.7337   -2.8805   20.4913 O   0  0  0  0  0  0  0  0  0  0  0  0
    5.4413    0.6521   20.1512 C   0  0  0  0  0  0  0  0  0  0  0  0
    5.0299    0.6353   21.1584 H   0  0  0  0  0  0  0  0  0  0  0  0
    4.8036    1.3149   19.0983 C   0  0  0  0  0  0  0  0  0  0  0  0
    3.8553    1.8179   19.2463 H   0  0  0  0  0  0  0  0  0  0  0  0
  1  2  1  0
  2  3  2  0
  3  4  1  0
  4  5  1  0
  4  6  2  0
  6  7  1  0
  7  8  1  0
  8  9  1  0
  9 10  1  0
  9 11  1  0
  9 12  1  0
 12 13  1  0
 12 14  1  0
 12 15  1  0
 15 16  1  0
 16 17  1  0
 16 18  1  0
 16 19  1  0
 19 20  1  0
 19 21  1  0
 19 22  1  0
 22 23  1  0
 22 24  1  0
 22 25  1  0
 25 26  1  0
 25 27  1  0
 25 28  1  0
 28 29  1  0
 28 30  1  0
  8 31  2  0
 31 32  1  0
 31 33  1  0
 33 34  1  0
 34 35  2  0
  6 36  1  0
 36 37  1  0
 36 38  2  0
 38 39  1  0
 38  2  1  0
 34  7  1  0
 28 15  1  0
M  END
>  <cnnaffinity>  (1) 
-5.01234

>  <filename>  (1) 
O=c1occ(CCN2CCCCC2)n1-c1cccnc1

$$$$
