
     RDKit          3D

 30 32  0  0  0  0  0  0  0  0999 V2000
    4.9739    1.8026   16.9659 H   0  0  0  0  0  0  0  0  0  0  0  0
    5.4578    1.3136   17.8112 C   0  0  0  0  0  0  0  0  0  0  0  0
    6.6435    0.7359   17.5611 N   0  0  0  0  0  0  0  0  0  0  0  0
    7.2568    0.1218   18.5784 C   0  0  0  0  0  0  0  0  0  0  0  0
    8.2281   -0.3207   18.3667 H   0  0  0  0  0  0  0  0  0  0  0  0
    6.7018    0.0017   19.8635 C   0  0  0  0  0  0  0  0  0  0  0  0
    7.4334   -0.7926   20.8925 C   0  0  0  0  0  0  0  0  0  0  0  0
    8.7154   -0.5423   20.9604 N   0  0  0  0  0  0  0  0  0  0  0  0
    9.4694   -1.1709   21.9165 N   0  0  0  0  0  0  0  0  0  0  0  0
   10.8631   -0.8329   21.9309 C   0  0  0  0  0  0  0  0  0  0  0  0
   11.8443   -1.8299   21.9897 C   0  0  0  0  0  0  0  0  0  0  0  0
   11.5796   -2.8737   22.0400 H   0  0  0  0  0  0  0  0  0  0  0  0
   13.1789   -1.4380   22.0020 C   0  0  0  0  0  0  0  0  0  0  0  0
   14.1277   -2.3806   21.9539 F   0  0  0  0  0  0  0  0  0  0  0  0
   13.5616   -0.1066   22.0934 C   0  0  0  0  0  0  0  0  0  0  0  0
   14.6048    0.1732   22.0923 H   0  0  0  0  0  0  0  0  0  0  0  0
   12.5487    0.8534   22.0887 C   0  0  0  0  0  0  0  0  0  0  0  0
   12.8736    2.1451   22.2233 F   0  0  0  0  0  0  0  0  0  0  0  0
   11.2096    0.5215   21.9342 C   0  0  0  0  0  0  0  0  0  0  0  0
   10.4466    1.2827   21.8154 H   0  0  0  0  0  0  0  0  0  0  0  0
    8.8949   -1.9599   22.8891 C   0  0  0  0  0  0  0  0  0  0  0  0
    9.5728   -2.3042   23.6712 H   0  0  0  0  0  0  0  0  0  0  0  0
    7.5817   -2.2631   22.8787 C   0  0  0  0  0  0  0  0  0  0  0  0
    7.1150   -2.8769   23.6340 H   0  0  0  0  0  0  0  0  0  0  0  0
    6.7382   -1.8150   21.7783 C   0  0  0  0  0  0  0  0  0  0  0  0
    5.6056   -2.2486   21.5986 O   0  0  0  0  0  0  0  0  0  0  0  0
    5.4784    0.6388   20.1176 C   0  0  0  0  0  0  0  0  0  0  0  0
    5.0343    0.6003   21.1130 H   0  0  0  0  0  0  0  0  0  0  0  0
    4.8479    1.3074   19.0688 C   0  0  0  0  0  0  0  0  0  0  0  0
    3.9068    1.8270   19.2106 H   0  0  0  0  0  0  0  0  0  0  0  0
  1  2  1  0
  2  3  2  0
  3  4  1  0
  4  5  1  0
  4  6  2  0
  6  7  1  0
  7  8  2  0
  8  9  1  0
  9 10  1  0
 10 11  2  0
 11 12  1  0
 11 13  1  0
 13 14  1  0
 13 15  2  0
 15 16  1  0
 15 17  1  0
 17 18  1  0
 17 19  2  0
 19 20  1  0
  9 21  1  0
 21 22  1  0
 21 23  2  0
 23 24  1  0
 23 25  1  0
 25 26  2  0
  6 27  1  0
 27 28  1  0
 27 29  2  0
 29 30  1  0
 29  2  1  0
 25  7  1  0
 19 10  1  0
M  END
>  <cnnaffinity>  (1) 
-5.53198

>  <filename>  (1) 
O=c1ccn(-c2cc(F)cc(F)c2)nc1-c1cccnc1

$$$$
