
     RDKit          3D

 35 38  0  0  0  0  0  0  0  0999 V2000
    4.9921    1.8649   16.9337 H   0  0  0  0  0  0  0  0  0  0  0  0
    5.4305    1.3153   17.7635 C   0  0  0  0  0  0  0  0  0  0  0  0
    6.5811    0.6735   17.5044 N   0  0  0  0  0  0  0  0  0  0  0  0
    7.1473    0.0129   18.5227 C   0  0  0  0  0  0  0  0  0  0  0  0
    8.0881   -0.4934   18.3016 H   0  0  0  0  0  0  0  0  0  0  0  0
    6.6166   -0.0649   19.8223 C   0  0  0  0  0  0  0  0  0  0  0  0
    7.3451   -0.7965   20.9298 C   0  0  2  0  0  0  0  0  0  0  0  0
    8.2349   -1.2760   20.5015 H   0  0  0  0  0  0  0  0  0  0  0  0
    6.4968   -1.8992   21.6182 C   0  0  0  0  0  0  0  0  0  0  0  0
    5.4226   -1.7303   21.4420 H   0  0  0  0  0  0  0  0  0  0  0  0
    6.7449   -2.9008   21.2407 H   0  0  0  0  0  0  0  0  0  0  0  0
    6.8434   -1.7623   23.0200 N   0  0  0  0  0  0  0  0  0  0  0  0
    6.3016   -2.1539   23.7769 H   0  0  0  0  0  0  0  0  0  0  0  0
    7.3695   -0.5466   23.3479 C   0  0  0  0  0  0  0  0  0  0  0  0
    7.4319   -0.1410   24.4868 O   0  0  0  0  0  0  0  0  0  0  0  0
    7.8034    0.1616   22.0639 C   0  0  1  0  0  0  0  0  0  0  0  0
    7.2375    1.1027   22.0352 H   0  0  0  0  0  0  0  0  0  0  0  0
    9.2837    0.5296   22.0527 C   0  0  0  0  0  0  0  0  0  0  0  0
   10.2458   -0.4813   22.3476 C   0  0  0  0  0  0  0  0  0  0  0  0
    9.9123   -1.5095   22.4887 H   0  0  0  0  0  0  0  0  0  0  0  0
   11.5930   -0.1899   22.4939 C   0  0  0  0  0  0  0  0  0  0  0  0
   12.3302   -0.9441   22.7280 H   0  0  0  0  0  0  0  0  0  0  0  0
   11.9789    1.1589   22.3588 C   0  0  0  0  0  0  0  0  0  0  0  0
   11.0584    2.1705   22.0174 C   0  0  0  0  0  0  0  0  0  0  0  0
   11.8370    3.3690   22.0414 C   0  0  0  0  0  0  0  0  0  0  0  0
   11.5050    4.3843   21.8691 H   0  0  0  0  0  0  0  0  0  0  0  0
   13.0890    3.1258   22.3674 N   0  0  0  0  0  0  0  0  0  0  0  0
   13.1701    1.7886   22.5520 N   0  0  0  0  0  0  0  0  0  0  0  0
   14.0434    1.3534   22.8080 H   0  0  0  0  0  0  0  0  0  0  0  0
    9.6938    1.8367   21.8264 C   0  0  0  0  0  0  0  0  0  0  0  0
    8.9850    2.6061   21.5213 H   0  0  0  0  0  0  0  0  0  0  0  0
    5.4073    0.6084   20.0627 C   0  0  0  0  0  0  0  0  0  0  0  0
    4.9445    0.5869   21.0536 H   0  0  0  0  0  0  0  0  0  0  0  0
    4.8067    1.3128   19.0166 C   0  0  0  0  0  0  0  0  0  0  0  0
    3.8835    1.8674   19.1605 H   0  0  0  0  0  0  0  0  0  0  0  0
  1  2  1  0
  2  3  2  0
  3  4  1  0
  4  5  1  0
  4  6  2  0
  6  7  1  0
  7  8  1  6
  7  9  1  0
  9 10  1  0
  9 11  1  0
  9 12  1  0
 12 13  1  0
 12 14  1  0
 14 15  2  0
 14 16  1  0
 16 17  1  6
 16 18  1  0
 18 19  2  0
 19 20  1  0
 19 21  1  0
 21 22  1  0
 21 23  2  0
 23 24  1  0
 24 25  1  0
 25 26  1  0
 25 27  2  0
 27 28  1  0
 28 29  1  0
 24 30  2  0
 30 31  1  0
  6 32  1  0
 32 33  1  0
 32 34  2  0
 34 35  1  0
 34  2  1  0
 16  7  1  0
 30 18  1  0
 28 23  1  0
M  END
>  <cnnaffinity>  (1) 
-5.80707

>  <filename>  (1) 
O=C1NC[C@@H](c2cccnc2)[C@@H]1c1ccc2[nH]ncc2c1

$$$$
