
     RDKit          3D

 27 29  0  0  0  0  0  0  0  0999 V2000
    7.0266   -4.9864   26.9615 H   0  0  0  0  0  0  0  0  0  0  0  0
    7.1945   -4.3575   26.0972 C   0  0  0  0  0  0  0  0  0  0  0  0
    8.4701   -4.0499   25.7953 N   0  0  0  0  0  0  0  0  0  0  0  0
    8.6391   -3.2665   24.7146 C   0  0  0  0  0  0  0  0  0  0  0  0
    9.6629   -3.0107   24.4573 H   0  0  0  0  0  0  0  0  0  0  0  0
    7.5484   -2.7952   23.9387 C   0  0  0  0  0  0  0  0  0  0  0  0
    7.7309   -1.9400   22.7549 C   0  0  0  0  0  0  0  0  0  0  0  0
    6.7654   -1.4436   21.9429 C   0  0  0  0  0  0  0  0  0  0  0  0
    5.6979   -1.6008   21.9975 H   0  0  0  0  0  0  0  0  0  0  0  0
    7.3602   -0.6804   20.9483 N   0  0  0  0  0  0  0  0  0  0  0  0
    6.6671    0.0022   19.9056 C   0  0  0  0  0  0  0  0  0  0  0  0
    7.1776    0.0558   18.5918 C   0  0  0  0  0  0  0  0  0  0  0  0
    8.1268   -0.4254   18.3769 H   0  0  0  0  0  0  0  0  0  0  0  0
    6.5589    0.6741   17.5812 N   0  0  0  0  0  0  0  0  0  0  0  0
    5.3974    1.2932   17.8409 C   0  0  0  0  0  0  0  0  0  0  0  0
    4.9114    1.7809   16.9981 H   0  0  0  0  0  0  0  0  0  0  0  0
    4.8108    1.3090   19.1110 C   0  0  0  0  0  0  0  0  0  0  0  0
    3.8772    1.8413   19.2647 H   0  0  0  0  0  0  0  0  0  0  0  0
    5.4480    0.6424   20.1631 C   0  0  0  0  0  0  0  0  0  0  0  0
    5.0213    0.6311   21.1682 H   0  0  0  0  0  0  0  0  0  0  0  0
    8.7522   -0.6787   21.1358 C   0  0  0  0  0  0  0  0  0  0  0  0
    9.6118   -0.1184   20.4857 O   0  0  0  0  0  0  0  0  0  0  0  0
    8.9404   -1.4705   22.2398 N   0  0  0  0  0  0  0  0  0  0  0  0
    9.8851   -1.5955   22.5557 H   0  0  0  0  0  0  0  0  0  0  0  0
    6.2702   -3.1214   24.2548 N   0  0  0  0  0  0  0  0  0  0  0  0
    6.1064   -3.8958   25.3352 C   0  0  0  0  0  0  0  0  0  0  0  0
    5.0853   -4.1554   25.5958 H   0  0  0  0  0  0  0  0  0  0  0  0
  1  2  1  0
  2  3  2  0
  3  4  1  0
  4  5  1  0
  4  6  2  0
  6  7  1  0
  7  8  2  0
  8  9  1  0
  8 10  1  0
 10 11  1  0
 11 12  2  0
 12 13  1  0
 12 14  1  0
 14 15  2  0
 15 16  1  0
 15 17  1  0
 17 18  1  0
 17 19  2  0
 19 20  1  0
 10 21  1  0
 21 22  2  0
 21 23  1  0
 23 24  1  0
  6 25  1  0
 25 26  2  0
 26 27  1  0
 26  2  1  0
 23  7  1  0
 19 11  1  0
M  END
>  <cnnaffinity>  (1) 
-5.17312

>  <filename>  (1) 
O=c1[nH]c(-c2cnccn2)cn1-c1cccnc1

$$$$
