
     RDKit          3D

 30 32  0  0  0  0  0  0  0  0999 V2000
    4.9786    1.8196   16.9403 H   0  0  0  0  0  0  0  0  0  0  0  0
    5.4566    1.3318   17.7908 C   0  0  0  0  0  0  0  0  0  0  0  0
    6.6487    0.7623   17.5529 N   0  0  0  0  0  0  0  0  0  0  0  0
    7.2425    0.1329   18.5720 C   0  0  0  0  0  0  0  0  0  0  0  0
    8.2233   -0.2908   18.3698 H   0  0  0  0  0  0  0  0  0  0  0  0
    6.6604   -0.0251   19.8425 C   0  0  0  0  0  0  0  0  0  0  0  0
    7.3829   -0.8580   20.8529 C   0  0  0  0  0  0  0  0  0  0  0  0
    8.6649   -0.6099   20.9272 N   0  0  0  0  0  0  0  0  0  0  0  0
    9.4122   -1.2275   21.8947 N   0  0  0  0  0  0  0  0  0  0  0  0
   10.7985   -0.8532   21.9456 C   0  0  0  0  0  0  0  0  0  0  0  0
   11.8166   -1.8107   22.0519 C   0  0  0  0  0  0  0  0  0  0  0  0
   11.5504   -2.8633   22.0554 H   0  0  0  0  0  0  0  0  0  0  0  0
   13.1512   -1.3966   22.1713 C   0  0  0  0  0  0  0  0  0  0  0  0
   13.9684   -2.1108   22.2040 H   0  0  0  0  0  0  0  0  0  0  0  0
   13.4429   -0.0425   22.2807 C   0  0  0  0  0  0  0  0  0  0  0  0
   14.7036    0.3589   22.4813 F   0  0  0  0  0  0  0  0  0  0  0  0
   12.4205    0.9089   22.1734 C   0  0  0  0  0  0  0  0  0  0  0  0
   12.7170    2.2066   22.3033 F   0  0  0  0  0  0  0  0  0  0  0  0
   11.1104    0.5140   21.9412 C   0  0  0  0  0  0  0  0  0  0  0  0
   10.3360    1.2486   21.7477 H   0  0  0  0  0  0  0  0  0  0  0  0
    8.8262   -1.9826   22.8891 C   0  0  0  0  0  0  0  0  0  0  0  0
    9.4910   -2.3012   23.6935 H   0  0  0  0  0  0  0  0  0  0  0  0
    7.5159   -2.2934   22.8669 C   0  0  0  0  0  0  0  0  0  0  0  0
    7.0438   -2.8656   23.6510 H   0  0  0  0  0  0  0  0  0  0  0  0
    6.6923   -1.8951   21.7332 C   0  0  0  0  0  0  0  0  0  0  0  0
    5.5799   -2.3699   21.5376 O   0  0  0  0  0  0  0  0  0  0  0  0
    5.4475    0.6355   20.0955 C   0  0  0  0  0  0  0  0  0  0  0  0
    4.9998    0.6200   21.0904 H   0  0  0  0  0  0  0  0  0  0  0  0
    4.8345    1.3177   19.0422 C   0  0  0  0  0  0  0  0  0  0  0  0
    3.8954    1.8443   19.1748 H   0  0  0  0  0  0  0  0  0  0  0  0
  1  2  1  0
  2  3  2  0
  3  4  1  0
  4  5  1  0
  4  6  2  0
  6  7  1  0
  7  8  2  0
  8  9  1  0
  9 10  1  0
 10 11  2  0
 11 12  1  0
 11 13  1  0
 13 14  1  0
 13 15  2  0
 15 16  1  0
 15 17  1  0
 17 18  1  0
 17 19  2  0
 19 20  1  0
  9 21  1  0
 21 22  1  0
 21 23  2  0
 23 24  1  0
 23 25  1  0
 25 26  2  0
  6 27  1  0
 27 28  1  0
 27 29  2  0
 29 30  1  0
 29  2  1  0
 25  7  1  0
 19 10  1  0
M  END
>  <cnnaffinity>  (1) 
-5.53717

>  <filename>  (1) 
O=c1ccn(-c2ccc(F)c(F)c2)nc1-c1cccnc1

$$$$
