
     RDKit          3D

 29 31  0  0  0  0  0  0  0  0999 V2000
    5.0040    1.8511   16.9406 H   0  0  0  0  0  0  0  0  0  0  0  0
    5.4851    1.3330   17.7698 C   0  0  0  0  0  0  0  0  0  0  0  0
    6.6643    0.7455   17.5073 N   0  0  0  0  0  0  0  0  0  0  0  0
    7.2581    0.0739   18.4995 C   0  0  0  0  0  0  0  0  0  0  0  0
    8.2157   -0.3817   18.2690 H   0  0  0  0  0  0  0  0  0  0  0  0
    6.7111   -0.0798   19.7912 C   0  0  0  0  0  0  0  0  0  0  0  0
    7.3731   -0.8537   20.7841 N   0  0  0  0  0  0  0  0  0  0  0  0
    6.8447   -1.8079   21.6814 C   0  0  0  0  0  0  0  0  0  0  0  0
    5.7132   -2.2504   21.6204 O   0  0  0  0  0  0  0  0  0  0  0  0
    7.9747   -2.1043   22.5894 C   0  0  0  0  0  0  0  0  0  0  0  0
    7.8658   -2.9169   23.8077 C   0  0  0  0  0  0  0  0  0  0  0  0
    8.9500   -3.7004   24.2349 C   0  0  0  0  0  0  0  0  0  0  0  0
    9.8915   -3.7155   23.7017 H   0  0  0  0  0  0  0  0  0  0  0  0
    8.8020   -4.4944   25.3659 C   0  0  0  0  0  0  0  0  0  0  0  0
    9.8134   -5.2877   25.7462 F   0  0  0  0  0  0  0  0  0  0  0  0
    7.6348   -4.5104   26.1222 C   0  0  0  0  0  0  0  0  0  0  0  0
    7.5319   -5.1512   26.9867 H   0  0  0  0  0  0  0  0  0  0  0  0
    6.5919   -3.6948   25.6959 C   0  0  0  0  0  0  0  0  0  0  0  0
    5.4571   -3.6860   26.4078 F   0  0  0  0  0  0  0  0  0  0  0  0
    6.6747   -2.9106   24.5544 C   0  0  0  0  0  0  0  0  0  0  0  0
    5.8262   -2.3151   24.2435 H   0  0  0  0  0  0  0  0  0  0  0  0
    9.0522   -1.4298   22.1168 C   0  0  0  0  0  0  0  0  0  0  0  0
   10.0596   -1.4016   22.5193 H   0  0  0  0  0  0  0  0  0  0  0  0
    8.7553   -0.7562   20.9433 N   0  0  0  0  0  0  0  0  0  0  0  0
    9.1334    0.1747   20.7577 H   0  0  0  0  0  0  0  0  0  0  0  0
    5.4999    0.5762   20.0645 C   0  0  0  0  0  0  0  0  0  0  0  0
    5.0812    0.5533   21.0686 H   0  0  0  0  0  0  0  0  0  0  0  0
    4.8801    1.2855   19.0292 C   0  0  0  0  0  0  0  0  0  0  0  0
    3.9460    1.8109   19.1883 H   0  0  0  0  0  0  0  0  0  0  0  0
  1  2  1  0
  2  3  2  0
  3  4  1  0
  4  5  1  0
  4  6  2  0
  6  7  1  0
  7  8  1  0
  8  9  2  0
  8 10  1  0
 10 11  1  0
 11 12  2  0
 12 13  1  0
 12 14  1  0
 14 15  1  0
 14 16  2  0
 16 17  1  0
 16 18  1  0
 18 19  1  0
 18 20  2  0
 20 21  1  0
 10 22  2  0
 22 23  1  0
 22 24  1  0
 24 25  1  0
  6 26  1  0
 26 27  1  0
 26 28  2  0
 28 29  1  0
 28  2  1  0
 24  7  1  0
 20 11  1  0
M  END
>  <cnnaffinity>  (1) 
-5.3176

>  <filename>  (1) 
O=c1c(-c2cc(F)cc(F)c2)c[nH]n1-c1cccnc1

$$$$
