
     RDKit          3D

 33 35  0  0  0  0  0  0  0  0999 V2000
    5.7620   -5.6886   26.9210 H   0  0  0  0  0  0  0  0  0  0  0  0
    6.2417   -4.9161   26.6051 O   0  0  0  0  0  0  0  0  0  0  0  0
    6.0865   -4.8341   25.2641 C   0  0  0  0  0  0  0  0  0  0  0  0
    5.3264   -5.7563   24.5378 C   0  0  0  0  0  0  0  0  0  0  0  0
    4.8216   -6.5844   25.0348 H   0  0  0  0  0  0  0  0  0  0  0  0
    5.2356   -5.5671   23.1554 C   0  0  0  0  0  0  0  0  0  0  0  0
    4.5207   -6.3882   22.3526 O   0  0  0  0  0  0  0  0  0  0  0  0
    4.1424   -7.0902   22.8925 H   0  0  0  0  0  0  0  0  0  0  0  0
    5.8772   -4.5040   22.5187 C   0  0  0  0  0  0  0  0  0  0  0  0
    5.7844   -4.4278   21.4444 H   0  0  0  0  0  0  0  0  0  0  0  0
    6.6398   -3.5928   23.2556 C   0  0  0  0  0  0  0  0  0  0  0  0
    7.3308   -2.4572   22.5834 C   0  0  0  0  0  0  0  0  0  0  0  0
    8.6560   -2.0735   22.9675 C   0  0  0  0  0  0  0  0  0  0  0  0
    9.1652   -2.6362   23.7503 H   0  0  0  0  0  0  0  0  0  0  0  0
    9.2857   -1.0382   22.3542 C   0  0  0  0  0  0  0  0  0  0  0  0
   10.2813   -0.7089   22.6041 H   0  0  0  0  0  0  0  0  0  0  0  0
    8.6673   -0.2665   21.2932 C   0  0  0  0  0  0  0  0  0  0  0  0
    9.2196    0.6628   20.7253 O   0  0  0  0  0  0  0  0  0  0  0  0
    7.3433   -0.6932   20.9399 N   0  0  0  0  0  0  0  0  0  0  0  0
    6.6386   -0.0099   19.8876 C   0  0  0  0  0  0  0  0  0  0  0  0
    7.1587    0.0488   18.5816 C   0  0  0  0  0  0  0  0  0  0  0  0
    8.1176   -0.4201   18.3692 H   0  0  0  0  0  0  0  0  0  0  0  0
    6.5472    0.6721   17.5694 N   0  0  0  0  0  0  0  0  0  0  0  0
    5.3886    1.2987   17.8317 C   0  0  0  0  0  0  0  0  0  0  0  0
    4.9166    1.7977   16.9873 H   0  0  0  0  0  0  0  0  0  0  0  0
    4.7987    1.3154   19.0999 C   0  0  0  0  0  0  0  0  0  0  0  0
    3.8701    1.8508   19.2527 H   0  0  0  0  0  0  0  0  0  0  0  0
    5.4293    0.6377   20.1493 C   0  0  0  0  0  0  0  0  0  0  0  0
    5.0266    0.6249   21.1616 H   0  0  0  0  0  0  0  0  0  0  0  0
    6.7254   -1.7416   21.5865 C   0  0  0  0  0  0  0  0  0  0  0  0
    5.7148   -1.9529   21.2493 H   0  0  0  0  0  0  0  0  0  0  0  0
    6.7366   -3.7710   24.6389 C   0  0  0  0  0  0  0  0  0  0  0  0
    7.2994   -3.0858   25.2594 H   0  0  0  0  0  0  0  0  0  0  0  0
  1  2  1  0
  2  3  1  0
  3  4  2  0
  4  5  1  0
  4  6  1  0
  6  7  1  0
  7  8  1  0
  6  9  2  0
  9 10  1  0
  9 11  1  0
 11 12  1  0
 12 13  1  0
 13 14  1  0
 13 15  2  0
 15 16  1  0
 15 17  1  0
 17 18  2  0
 17 19  1  0
 19 20  1  0
 20 21  2  0
 21 22  1  0
 21 23  1  0
 23 24  2  0
 24 25  1  0
 24 26  1  0
 26 27  1  0
 26 28  2  0
 28 29  1  0
 19 30  1  0
 30 31  1  0
 11 32  2  0
 32 33  1  0
 32  3  1  0
 30 12  2  0
 28 20  1  0
M  END
>  <cnnaffinity>  (1) 
-5.5377

>  <filename>  (1) 
O=c1ccc(-c2cc(O)cc(O)c2)cn1-c1cccnc1

$$$$
