
     RDKit          3D

 41 44  0  0  0  0  0  0  0  0999 V2000
    4.9211    1.7822   16.9959 H   0  0  0  0  0  0  0  0  0  0  0  0
    5.4056    1.2901   17.8354 C   0  0  0  0  0  0  0  0  0  0  0  0
    6.5718    0.6748   17.5706 N   0  0  0  0  0  0  0  0  0  0  0  0
    7.1632    0.0410   18.5890 C   0  0  0  0  0  0  0  0  0  0  0  0
    8.1227   -0.4274   18.3671 H   0  0  0  0  0  0  0  0  0  0  0  0
    6.6405   -0.0147   19.8925 C   0  0  0  0  0  0  0  0  0  0  0  0
    7.3736   -0.6747   20.9787 C   0  0  0  0  0  0  0  0  0  0  0  0
    7.7135   -0.0652   22.1735 C   0  0  0  0  0  0  0  0  0  0  0  0
    7.4837    1.3854   22.4126 C   0  0  0  0  0  0  0  0  0  0  0  0
    8.0037    2.3504   21.5322 C   0  0  0  0  0  0  0  0  0  0  0  0
    8.5566    2.0161   20.6571 H   0  0  0  0  0  0  0  0  0  0  0  0
    7.7980    3.7050   21.8017 C   0  0  0  0  0  0  0  0  0  0  0  0
    8.2147    4.4886   21.1800 H   0  0  0  0  0  0  0  0  0  0  0  0
    7.0396    4.1018   22.8980 C   0  0  0  0  0  0  0  0  0  0  0  0
    6.8758    5.1631   23.0673 H   0  0  0  0  0  0  0  0  0  0  0  0
    6.5205    3.1540   23.7941 C   0  0  0  0  0  0  0  0  0  0  0  0
    5.7518    3.5907   24.9918 C   0  0  0  0  0  0  0  0  0  0  0  0
    5.9500    2.9691   26.2377 C   0  0  0  0  0  0  0  0  0  0  0  0
    6.6870    2.1716   26.3184 H   0  0  0  0  0  0  0  0  0  0  0  0
    5.2288    3.3795   27.3617 C   0  0  0  0  0  0  0  0  0  0  0  0
    5.3911    2.8817   28.3145 H   0  0  0  0  0  0  0  0  0  0  0  0
    4.2922    4.4147   27.2533 C   0  0  0  0  0  0  0  0  0  0  0  0
    3.7273    4.7319   28.1255 H   0  0  0  0  0  0  0  0  0  0  0  0
    4.0841    5.0408   26.0182 C   0  0  0  0  0  0  0  0  0  0  0  0
    3.3648    5.8508   25.9244 H   0  0  0  0  0  0  0  0  0  0  0  0
    4.8129    4.6343   24.8987 C   0  0  0  0  0  0  0  0  0  0  0  0
    4.6455    5.1126   23.9348 H   0  0  0  0  0  0  0  0  0  0  0  0
    6.7646    1.7970   23.5392 C   0  0  0  0  0  0  0  0  0  0  0  0
    6.3638    1.0486   24.2200 H   0  0  0  0  0  0  0  0  0  0  0  0
    8.3395   -0.8581   23.1911 C   0  0  0  0  0  0  0  0  0  0  0  0
    8.5935   -0.3585   24.1329 H   0  0  0  0  0  0  0  0  0  0  0  0
    8.6293   -2.1695   22.9738 C   0  0  0  0  0  0  0  0  0  0  0  0
    9.1054   -2.8023   23.7054 H   0  0  0  0  0  0  0  0  0  0  0  0
    8.3026   -2.8272   21.7145 C   0  0  0  0  0  0  0  0  0  0  0  0
    8.4848   -3.9976   21.4241 O   0  0  0  0  0  0  0  0  0  0  0  0
    7.7203   -1.9877   20.7822 N   0  0  0  0  0  0  0  0  0  0  0  0
    7.4652   -2.4780   19.9424 H   0  0  0  0  0  0  0  0  0  0  0  0
    5.4284    0.6485   20.1574 C   0  0  0  0  0  0  0  0  0  0  0  0
    5.0141    0.6396   21.1735 H   0  0  0  0  0  0  0  0  0  0  0  0
    4.8010    1.3042   19.1003 C   0  0  0  0  0  0  0  0  0  0  0  0
    3.8722    1.8444   19.2544 H   0  0  0  0  0  0  0  0  0  0  0  0
  1  2  1  0
  2  3  2  0
  3  4  1  0
  4  5  1  0
  4  6  2  0
  6  7  1  0
  7  8  2  0
  8  9  1  0
  9 10  2  0
 10 11  1  0
 10 12  1  0
 12 13  1  0
 12 14  2  0
 14 15  1  0
 14 16  1  0
 16 17  1  0
 17 18  2  0
 18 19  1  0
 18 20  1  0
 20 21  1  0
 20 22  2  0
 22 23  1  0
 22 24  1  0
 24 25  1  0
 24 26  2  0
 26 27  1  0
 16 28  2  0
 28 29  1  0
  8 30  1  0
 30 31  1  0
 30 32  2  0
 32 33  1  0
 32 34  1  0
 34 35  2  0
 34 36  1  0
 36 37  1  0
  6 38  1  0
 38 39  1  0
 38 40  2  0
 40 41  1  0
 40  2  1  0
 36  7  1  0
 28  9  1  0
 26 17  1  0
M  END
>  <cnnaffinity>  (1) 
-5.31427

>  <filename>  (1) 
O=c1ccc(-c2cccc(-c3ccccc3)c2)c(-c2cccnc2)[nH]1

$$$$
