
     RDKit          3D

 39 41  0  0  0  0  0  0  0  0999 V2000
    4.9544    1.7665   16.6685 H   0  0  0  0  0  0  0  0  0  0  0  0
    5.4595    1.3410   17.5321 C   0  0  0  0  0  0  0  0  0  0  0  0
    6.5968    0.6716   17.2817 N   0  0  0  0  0  0  0  0  0  0  0  0
    7.2589    0.1418   18.3153 C   0  0  0  0  0  0  0  0  0  0  0  0
    8.2003   -0.3527   18.0828 H   0  0  0  0  0  0  0  0  0  0  0  0
    6.8101    0.2248   19.6496 C   0  0  0  0  0  0  0  0  0  0  0  0
    7.5399   -0.3668   20.7416 N   0  0  0  0  0  0  0  0  0  0  0  0
    6.8855   -1.2163   21.6111 C   0  0  0  0  0  0  0  0  0  0  0  0
    5.8288   -1.3740   21.4098 H   0  0  0  0  0  0  0  0  0  0  0  0
    7.5016   -1.8052   22.6773 C   0  0  0  0  0  0  0  0  0  0  0  0
    6.7572   -2.8636   23.4532 C   0  0  0  0  0  0  0  0  0  0  0  0
    7.0250   -2.8554   24.5153 H   0  0  0  0  0  0  0  0  0  0  0  0
    5.6803   -2.6541   23.3991 H   0  0  0  0  0  0  0  0  0  0  0  0
    6.9859   -4.2793   22.9042 C   0  0  0  0  0  0  0  0  0  0  0  0
    7.0041   -4.2911   21.7961 H   0  0  0  0  0  0  0  0  0  0  0  0
    7.9806   -4.6264   23.2249 H   0  0  0  0  0  0  0  0  0  0  0  0
    6.0157   -5.2282   23.4202 N   0  0  0  0  0  0  0  0  0  0  0  0
    6.2799   -6.5858   22.9816 C   0  0  0  0  0  0  0  0  0  0  0  0
    6.1896   -6.6777   21.8757 H   0  0  0  0  0  0  0  0  0  0  0  0
    7.3061   -6.8784   23.2265 H   0  0  0  0  0  0  0  0  0  0  0  0
    5.1621   -7.3321   23.7034 C   0  0  0  0  0  0  0  0  0  0  0  0
    5.3785   -7.3602   24.7774 H   0  0  0  0  0  0  0  0  0  0  0  0
    5.0173   -8.3557   23.3598 H   0  0  0  0  0  0  0  0  0  0  0  0
    3.9523   -6.4102   23.4525 C   0  0  0  0  0  0  0  0  0  0  0  0
    3.3555   -6.7785   22.6082 H   0  0  0  0  0  0  0  0  0  0  0  0
    3.3007   -6.3572   24.3334 H   0  0  0  0  0  0  0  0  0  0  0  0
    4.5944   -5.0392   23.1060 C   0  0  0  0  0  0  0  0  0  0  0  0
    4.4514   -4.8232   22.0318 H   0  0  0  0  0  0  0  0  0  0  0  0
    4.1385   -4.2063   23.6527 H   0  0  0  0  0  0  0  0  0  0  0  0
    8.8665   -1.4692   22.9537 C   0  0  0  0  0  0  0  0  0  0  0  0
    9.3644   -1.8870   23.8332 H   0  0  0  0  0  0  0  0  0  0  0  0
    9.5324   -0.6131   22.1327 C   0  0  0  0  0  0  0  0  0  0  0  0
   10.5664   -0.3289   22.2699 H   0  0  0  0  0  0  0  0  0  0  0  0
    8.9157   -0.0154   20.9597 C   0  0  0  0  0  0  0  0  0  0  0  0
    9.5088    0.7276   20.1973 O   0  0  0  0  0  0  0  0  0  0  0  0
    5.6277    0.9288   19.8971 C   0  0  0  0  0  0  0  0  0  0  0  0
    5.2913    1.0471   20.9266 H   0  0  0  0  0  0  0  0  0  0  0  0
    4.9440    1.4984   18.8215 C   0  0  0  0  0  0  0  0  0  0  0  0
    4.0311    2.0593   18.9726 H   0  0  0  0  0  0  0  0  0  0  0  0
  1  2  1  0
  2  3  2  0
  3  4  1  0
  4  5  1  0
  4  6  2  0
  6  7  1  0
  7  8  1  0
  8  9  1  0
  8 10  2  0
 10 11  1  0
 11 12  1  0
 11 13  1  0
 11 14  1  0
 14 15  1  0
 14 16  1  0
 14 17  1  0
 17 18  1  0
 18 19  1  0
 18 20  1  0
 18 21  1  0
 21 22  1  0
 21 23  1  0
 21 24  1  0
 24 25  1  0
 24 26  1  0
 24 27  1  0
 27 28  1  0
 27 29  1  0
 10 30  1  0
 30 31  1  0
 30 32  2  0
 32 33  1  0
 32 34  1  0
 34 35  2  0
  6 36  1  0
 36 37  1  0
 36 38  2  0
 38 39  1  0
 38  2  1  0
 34  7  1  0
 27 17  1  0
M  END
>  <cnnaffinity>  (1) 
-5.4148

>  <filename>  (1) 
O=c1ccc(CCN2CCCC2)cn1-c1cccnc1

$$$$
