
     RDKit          3D

 33 36  0  0  0  0  0  0  0  0999 V2000
    4.9099    1.7941   16.9364 H   0  0  0  0  0  0  0  0  0  0  0  0
    5.3574    1.3356   17.8166 C   0  0  0  0  0  0  0  0  0  0  0  0
    6.5322    0.7203   17.6201 N   0  0  0  0  0  0  0  0  0  0  0  0
    7.1144    0.1700   18.6864 C   0  0  0  0  0  0  0  0  0  0  0  0
    8.0658   -0.3178   18.4891 H   0  0  0  0  0  0  0  0  0  0  0  0
    6.5907    0.2073   19.9908 C   0  0  0  0  0  0  0  0  0  0  0  0
    7.3534   -0.4651   21.0605 C   0  0  0  0  0  0  0  0  0  0  0  0
    7.0253   -0.0862   22.3379 O   0  0  0  0  0  0  0  0  0  0  0  0
    7.6581   -0.6859   23.4044 C   0  0  0  0  0  0  0  0  0  0  0  0
    7.3994   -0.1088   24.7236 C   0  0  0  0  0  0  0  0  0  0  0  0
    7.4323   -0.8215   25.8875 C   0  0  0  0  0  0  0  0  0  0  0  0
    7.6021   -1.8848   26.0297 H   0  0  0  0  0  0  0  0  0  0  0  0
    7.1188    0.1314   27.2887 S   0  0  0  0  0  0  0  0  0  0  0  0
    6.9689    1.5786   26.3329 C   0  0  0  0  0  0  0  0  0  0  0  0
    6.6861    2.8822   26.7835 C   0  0  0  0  0  0  0  0  0  0  0  0
    6.4962    3.0783   27.8356 H   0  0  0  0  0  0  0  0  0  0  0  0
    6.6553    3.9047   25.8419 C   0  0  0  0  0  0  0  0  0  0  0  0
    6.4318    4.9163   26.1595 H   0  0  0  0  0  0  0  0  0  0  0  0
    6.9160    3.6506   24.4804 C   0  0  0  0  0  0  0  0  0  0  0  0
    6.9040    4.4591   23.7575 H   0  0  0  0  0  0  0  0  0  0  0  0
    7.1842    2.3662   24.0418 C   0  0  0  0  0  0  0  0  0  0  0  0
    7.4043    2.1579   23.0023 H   0  0  0  0  0  0  0  0  0  0  0  0
    7.1732    1.3059   24.9666 C   0  0  0  0  0  0  0  0  0  0  0  0
    8.4755   -1.7458   23.2359 C   0  0  0  0  0  0  0  0  0  0  0  0
    8.9932   -2.2158   24.0581 H   0  0  0  0  0  0  0  0  0  0  0  0
    8.6941   -2.2906   21.9129 C   0  0  0  0  0  0  0  0  0  0  0  0
    9.1730   -3.3920   21.7283 O   0  0  0  0  0  0  0  0  0  0  0  0
    8.2465   -1.4406   20.8261 C   0  0  0  0  0  0  0  0  0  0  0  0
    8.5709   -1.7212   19.8415 H   0  0  0  0  0  0  0  0  0  0  0  0
    5.3406    0.8252   20.1761 C   0  0  0  0  0  0  0  0  0  0  0  0
    4.8754    0.8462   21.1624 H   0  0  0  0  0  0  0  0  0  0  0  0
    4.7224    1.3958   19.0623 C   0  0  0  0  0  0  0  0  0  0  0  0
    3.7618    1.8902   19.1386 H   0  0  0  0  0  0  0  0  0  0  0  0
  1  2  1  0
  2  3  2  0
  3  4  1  0
  4  5  1  0
  4  6  2  0
  6  7  1  0
  7  8  1  0
  8  9  1  0
  9 10  1  0
 10 11  2  0
 11 12  1  0
 11 13  1  0
 13 14  1  0
 14 15  2  0
 15 16  1  0
 15 17  1  0
 17 18  1  0
 17 19  2  0
 19 20  1  0
 19 21  1  0
 21 22  1  0
 21 23  2  0
  9 24  2  0
 24 25  1  0
 24 26  1  0
 26 27  2  0
 26 28  1  0
 28 29  1  0
  6 30  1  0
 30 31  1  0
 30 32  2  0
 32 33  1  0
 32  2  1  0
 28  7  2  0
 23 10  1  0
 23 14  1  0
M  END
>  <cnnaffinity>  (1) 
-5.50619

>  <filename>  (1) 
O=c1cc(-c2cccnc2)oc(-c2csc3ccccc23)c1

$$$$
