
     RDKit          3D

 31 33  0  0  0  0  0  0  0  0999 V2000
    4.9079    1.8071   16.9620 H   0  0  0  0  0  0  0  0  0  0  0  0
    5.3993    1.3047   17.7907 C   0  0  0  0  0  0  0  0  0  0  0  0
    6.5506    0.6757   17.5091 N   0  0  0  0  0  0  0  0  0  0  0  0
    7.1815    0.0555   18.5143 C   0  0  0  0  0  0  0  0  0  0  0  0
    8.1192   -0.4346   18.2722 H   0  0  0  0  0  0  0  0  0  0  0  0
    6.7005    0.0194   19.8444 C   0  0  0  0  0  0  0  0  0  0  0  0
    7.3815   -0.6594   20.8988 N   0  0  0  0  0  0  0  0  0  0  0  0
    6.7509   -1.4422   21.8620 C   0  0  0  0  0  0  0  0  0  0  0  0
    5.6839   -1.5926   21.8022 H   0  0  0  0  0  0  0  0  0  0  0  0
    7.6781   -1.9393   22.7218 C   0  0  0  0  0  0  0  0  0  0  0  0
    7.5335   -2.8512   23.8928 C   0  0  0  0  0  0  0  0  0  0  0  0
    8.6669   -3.3213   24.4575 N   0  0  0  0  0  0  0  0  0  0  0  0
    8.5708   -4.1239   25.5273 C   0  0  0  0  0  0  0  0  0  0  0  0
    9.8391   -4.7354   26.1696 C   0  0  0  0  0  0  0  0  0  0  0  0
   10.9743   -4.4729   25.5242 F   0  0  0  0  0  0  0  0  0  0  0  0
    9.9773   -4.3099   27.4427 F   0  0  0  0  0  0  0  0  0  0  0  0
    9.7234   -6.0800   26.2412 F   0  0  0  0  0  0  0  0  0  0  0  0
    7.3385   -4.4753   26.1078 C   0  0  0  0  0  0  0  0  0  0  0  0
    7.2968   -5.1015   26.9937 H   0  0  0  0  0  0  0  0  0  0  0  0
    6.1661   -4.0306   25.5084 C   0  0  0  0  0  0  0  0  0  0  0  0
    5.1972   -4.3189   25.9184 H   0  0  0  0  0  0  0  0  0  0  0  0
    6.2599   -3.2120   24.3816 C   0  0  0  0  0  0  0  0  0  0  0  0
    5.3586   -2.8491   23.9100 H   0  0  0  0  0  0  0  0  0  0  0  0
    8.9006   -1.4211   22.2706 N   0  0  0  0  0  0  0  0  0  0  0  0
    9.8243   -1.6173   22.6166 H   0  0  0  0  0  0  0  0  0  0  0  0
    8.7687   -0.6493   21.1489 C   0  0  0  0  0  0  0  0  0  0  0  0
    9.6572   -0.1044   20.5293 O   0  0  0  0  0  0  0  0  0  0  0  0
    5.4903    0.6697   20.1155 C   0  0  0  0  0  0  0  0  0  0  0  0
    5.0920    0.6786   21.1306 H   0  0  0  0  0  0  0  0  0  0  0  0
    4.8348    1.3207   19.0693 C   0  0  0  0  0  0  0  0  0  0  0  0
    3.8972    1.8323   19.2375 H   0  0  0  0  0  0  0  0  0  0  0  0
  1  2  1  0
  2  3  2  0
  3  4  1  0
  4  5  1  0
  4  6  2  0
  6  7  1  0
  7  8  1  0
  8  9  1  0
  8 10  2  0
 10 11  1  0
 11 12  2  0
 12 13  1  0
 13 14  1  0
 14 15  1  0
 14 16  1  0
 14 17  1  0
 13 18  2  0
 18 19  1  0
 18 20  1  0
 20 21  1  0
 20 22  2  0
 22 23  1  0
 10 24  1  0
 24 25  1  0
 24 26  1  0
 26 27  2  0
  6 28  1  0
 28 29  1  0
 28 30  2  0
 30 31  1  0
 30  2  1  0
 26  7  1  0
 22 11  1  0
M  END
>  <cnnaffinity>  (1) 
-5.57189

>  <filename>  (1) 
O=c1[nH]c(-c2cccc(C(F)(F)F)n2)cn1-c1cccnc1

$$$$
