
     RDKit          3D

 35 38  0  0  0  0  0  0  0  0999 V2000
    4.9979    1.7516   17.0742 H   0  0  0  0  0  0  0  0  0  0  0  0
    5.4707    1.2869   17.9354 C   0  0  0  0  0  0  0  0  0  0  0  0
    6.6325    0.6568   17.6911 N   0  0  0  0  0  0  0  0  0  0  0  0
    7.2318    0.0529   18.7238 C   0  0  0  0  0  0  0  0  0  0  0  0
    8.1850   -0.4349   18.5294 H   0  0  0  0  0  0  0  0  0  0  0  0
    6.7020    0.0248   20.0363 C   0  0  0  0  0  0  0  0  0  0  0  0
    7.3755   -0.6399   21.0964 N   0  0  0  0  0  0  0  0  0  0  0  0
    7.5721   -2.0102   21.1730 C   0  0  0  0  0  0  0  0  0  0  0  0
    6.9221   -2.9059   20.6803 O   0  0  0  0  0  0  0  0  0  0  0  0
    8.6876   -2.1776   21.9471 N   0  0  0  0  0  0  0  0  0  0  0  0
    8.8860   -3.1369   22.1628 H   0  0  0  0  0  0  0  0  0  0  0  0
    9.0749   -0.9938   22.6910 C   0  0  0  0  0  0  0  0  0  0  0  0
    9.0027   -1.1499   23.7764 H   0  0  0  0  0  0  0  0  0  0  0  0
   10.1050   -0.6956   22.4802 H   0  0  0  0  0  0  0  0  0  0  0  0
    8.0565    0.0667   22.1865 C   0  0  2  0  0  0  0  0  0  0  0  0
    8.5594    0.9533   21.7824 H   0  0  0  0  0  0  0  0  0  0  0  0
    7.0956    0.5415   23.2601 C   0  0  0  0  0  0  0  0  0  0  0  0
    6.8475    1.9031   23.4613 C   0  0  0  0  0  0  0  0  0  0  0  0
    7.3965    2.6358   22.8724 H   0  0  0  0  0  0  0  0  0  0  0  0
    5.8971    2.3491   24.4079 C   0  0  0  0  0  0  0  0  0  0  0  0
    5.7411    3.4201   24.5332 H   0  0  0  0  0  0  0  0  0  0  0  0
    5.1623    1.4424   25.1696 C   0  0  0  0  0  0  0  0  0  0  0  0
    4.4396    1.7821   25.9057 H   0  0  0  0  0  0  0  0  0  0  0  0
    5.4159    0.0695   24.9788 C   0  0  0  0  0  0  0  0  0  0  0  0
    6.3914   -0.3946   24.0587 C   0  0  0  0  0  0  0  0  0  0  0  0
    6.4078   -1.8320   24.2023 C   0  0  0  0  0  0  0  0  0  0  0  0
    7.0378   -2.5186   23.6579 H   0  0  0  0  0  0  0  0  0  0  0  0
    5.4773   -2.1737   25.1319 C   0  0  0  0  0  0  0  0  0  0  0  0
    5.2119   -3.1397   25.5451 H   0  0  0  0  0  0  0  0  0  0  0  0
    4.8709   -1.0274   25.6011 N   0  0  0  0  0  0  0  0  0  0  0  0
    4.0856   -0.9957   26.2328 H   0  0  0  0  0  0  0  0  0  0  0  0
    5.5115    0.7127   20.2811 C   0  0  0  0  0  0  0  0  0  0  0  0
    5.1311    0.7244   21.3064 H   0  0  0  0  0  0  0  0  0  0  0  0
    4.8788    1.3490   19.2057 C   0  0  0  0  0  0  0  0  0  0  0  0
    3.9635    1.9158   19.3465 H   0  0  0  0  0  0  0  0  0  0  0  0
  1  2  1  0
  2  3  2  0
  3  4  1  0
  4  5  1  0
  4  6  2  0
  6  7  1  0
  7  8  1  0
  8  9  2  0
  8 10  1  0
 10 11  1  0
 10 12  1  0
 12 13  1  0
 12 14  1  0
 12 15  1  0
 15 16  1  6
 15 17  1  0
 17 18  2  0
 18 19  1  0
 18 20  1  0
 20 21  1  0
 20 22  2  0
 22 23  1  0
 22 24  1  0
 24 25  2  0
 25 26  1  0
 26 27  1  0
 26 28  2  0
 28 29  1  0
 28 30  1  0
 30 31  1  0
  6 32  1  0
 32 33  1  0
 32 34  2  0
 34 35  1  0
 34  2  1  0
 15  7  1  0
 25 17  1  0
 30 24  1  0
M  END
>  <cnnaffinity>  (1) 
-4.92859

>  <filename>  (1) 
O=C1NC[C@H](c2cccc3[nH]ccc23)N1c1cccnc1

$$$$
