
     RDKit          3D

 33 35  0  0  0  0  0  0  0  0999 V2000
    5.0625    1.8544   16.9863 H   0  0  0  0  0  0  0  0  0  0  0  0
    5.5168    1.3303   17.8250 C   0  0  0  0  0  0  0  0  0  0  0  0
    6.6893    0.7255   17.5793 N   0  0  0  0  0  0  0  0  0  0  0  0
    7.2759    0.0652   18.5839 C   0  0  0  0  0  0  0  0  0  0  0  0
    8.2334   -0.4107   18.3684 H   0  0  0  0  0  0  0  0  0  0  0  0
    6.7074   -0.0671   19.8657 C   0  0  0  0  0  0  0  0  0  0  0  0
    7.3709   -0.8356   20.8930 N   0  0  0  0  0  0  0  0  0  0  0  0
    8.7022   -0.5289   21.2090 C   0  0  0  0  0  0  0  0  0  0  0  0
    9.1652    0.2342   20.5902 H   0  0  0  0  0  0  0  0  0  0  0  0
    9.3732   -1.1080   22.2341 C   0  0  0  0  0  0  0  0  0  0  0  0
   10.6989   -0.7894   22.5740 N   0  0  0  0  0  0  0  0  0  0  0  0
   10.9906   -1.2316   23.4411 H   0  0  0  0  0  0  0  0  0  0  0  0
   11.3083    0.5253   22.3728 C   0  0  0  0  0  0  0  0  0  0  0  0
   12.2749    0.4740   22.8841 H   0  0  0  0  0  0  0  0  0  0  0  0
   11.5356    0.6705   21.3112 H   0  0  0  0  0  0  0  0  0  0  0  0
   10.5606    1.7206   22.9215 C   0  0  0  0  0  0  0  0  0  0  0  0
    9.6163    2.7548   21.9031 S   0  0  0  0  0  0  0  0  0  0  0  0
    9.2328    3.7997   23.2139 C   0  0  0  0  0  0  0  0  0  0  0  0
    8.6166    4.6725   23.0352 H   0  0  0  0  0  0  0  0  0  0  0  0
    9.7810    3.3636   24.3799 C   0  0  0  0  0  0  0  0  0  0  0  0
    9.6615    3.8733   25.3299 H   0  0  0  0  0  0  0  0  0  0  0  0
   10.5230    2.1534   24.2137 C   0  0  0  0  0  0  0  0  0  0  0  0
   10.9990    1.5998   25.0182 H   0  0  0  0  0  0  0  0  0  0  0  0
    8.6330   -2.1711   23.0155 C   0  0  0  0  0  0  0  0  0  0  0  0
    9.0561   -2.8254   23.9491 O   0  0  0  0  0  0  0  0  0  0  0  0
    7.3462   -2.4103   22.6147 N   0  0  0  0  0  0  0  0  0  0  0  0
    6.8418   -3.1001   23.1331 H   0  0  0  0  0  0  0  0  0  0  0  0
    6.6708   -1.8625   21.5728 C   0  0  0  0  0  0  0  0  0  0  0  0
    5.5699   -2.2740   21.2941 O   0  0  0  0  0  0  0  0  0  0  0  0
    5.4853    0.5725   20.1141 C   0  0  0  0  0  0  0  0  0  0  0  0
    5.0284    0.5088   21.1006 H   0  0  0  0  0  0  0  0  0  0  0  0
    4.8866    1.2894   19.0724 C   0  0  0  0  0  0  0  0  0  0  0  0
    3.9442    1.8050   19.2119 H   0  0  0  0  0  0  0  0  0  0  0  0
  1  2  1  0
  2  3  2  0
  3  4  1  0
  4  5  1  0
  4  6  2  0
  6  7  1  0
  7  8  1  0
  8  9  1  0
  8 10  2  0
 10 11  1  0
 11 12  1  0
 11 13  1  0
 13 14  1  0
 13 15  1  0
 13 16  1  0
 16 17  1  0
 17 18  1  0
 18 19  1  0
 18 20  2  0
 20 21  1  0
 20 22  1  0
 22 23  1  0
 10 24  1  0
 24 25  2  0
 24 26  1  0
 26 27  1  0
 26 28  1  0
 28 29  2  0
  6 30  1  0
 30 31  1  0
 30 32  2  0
 32 33  1  0
 32  2  1  0
 28  7  1  0
 22 16  2  0
M  END
>  <cnnaffinity>  (1) 
-5.41414

>  <filename>  (1) 
O=c1[nH]c(=O)n(-c2cccnc2)cc1NCc1cccs1

$$$$
