
     RDKit          3D

 36 38  0  0  0  0  0  0  0  0999 V2000
    4.9111    1.7752   17.0016 H   0  0  0  0  0  0  0  0  0  0  0  0
    5.4023    1.2928   17.8436 C   0  0  0  0  0  0  0  0  0  0  0  0
    6.5663    0.6747   17.5839 N   0  0  0  0  0  0  0  0  0  0  0  0
    7.1754    0.0530   18.6008 C   0  0  0  0  0  0  0  0  0  0  0  0
    8.1257   -0.4284   18.3831 H   0  0  0  0  0  0  0  0  0  0  0  0
    6.6450   -0.0129   19.9046 C   0  0  0  0  0  0  0  0  0  0  0  0
    7.3312   -0.7176   20.9473 N   0  0  0  0  0  0  0  0  0  0  0  0
    6.5747   -1.6188   21.6625 N   0  0  0  0  0  0  0  0  0  0  0  0
    7.1426   -2.2996   22.6268 C   0  0  0  0  0  0  0  0  0  0  0  0
    6.2417   -3.2950   23.3629 C   0  0  0  0  0  0  0  0  0  0  0  0
    5.2738   -3.1917   22.8645 H   0  0  0  0  0  0  0  0  0  0  0  0
    6.6892   -4.7738   23.1805 C   0  0  0  0  0  0  0  0  0  0  0  0
    5.7935   -5.4026   23.2789 H   0  0  0  0  0  0  0  0  0  0  0  0
    7.0605   -4.9248   22.1584 H   0  0  0  0  0  0  0  0  0  0  0  0
    7.7286   -5.2793   24.1931 C   0  0  0  0  0  0  0  0  0  0  0  0
    8.7121   -4.8390   23.9851 H   0  0  0  0  0  0  0  0  0  0  0  0
    7.8531   -6.3608   24.0717 H   0  0  0  0  0  0  0  0  0  0  0  0
    7.3160   -4.9665   25.6345 C   0  0  0  0  0  0  0  0  0  0  0  0
    6.3919   -5.5160   25.8712 H   0  0  0  0  0  0  0  0  0  0  0  0
    8.0821   -5.3225   26.3330 H   0  0  0  0  0  0  0  0  0  0  0  0
    7.0710   -3.4682   25.8388 C   0  0  0  0  0  0  0  0  0  0  0  0
    8.0155   -2.9201   25.7258 H   0  0  0  0  0  0  0  0  0  0  0  0
    6.7331   -3.2877   26.8676 H   0  0  0  0  0  0  0  0  0  0  0  0
    6.0188   -2.9257   24.8581 C   0  0  0  0  0  0  0  0  0  0  0  0
    5.9388   -1.8353   24.9618 H   0  0  0  0  0  0  0  0  0  0  0  0
    5.0433   -3.3345   25.1557 H   0  0  0  0  0  0  0  0  0  0  0  0
    8.5269   -2.1116   22.9708 C   0  0  0  0  0  0  0  0  0  0  0  0
    8.9907   -2.6765   23.7746 H   0  0  0  0  0  0  0  0  0  0  0  0
    9.2728   -1.1969   22.2810 C   0  0  0  0  0  0  0  0  0  0  0  0
   10.3118   -0.9907   22.4851 H   0  0  0  0  0  0  0  0  0  0  0  0
    8.7115   -0.4007   21.2087 C   0  0  0  0  0  0  0  0  0  0  0  0
    9.3260    0.4412   20.5697 O   0  0  0  0  0  0  0  0  0  0  0  0
    5.4390    0.6451   20.1647 C   0  0  0  0  0  0  0  0  0  0  0  0
    5.0154    0.6138   21.1686 H   0  0  0  0  0  0  0  0  0  0  0  0
    4.8083    1.3154   19.1127 C   0  0  0  0  0  0  0  0  0  0  0  0
    3.8725    1.8460   19.2662 H   0  0  0  0  0  0  0  0  0  0  0  0
  1  2  1  0
  2  3  2  0
  3  4  1  0
  4  5  1  0
  4  6  2  0
  6  7  1  0
  7  8  1  0
  8  9  2  0
  9 10  1  0
 10 11  1  0
 10 12  1  0
 12 13  1  0
 12 14  1  0
 12 15  1  0
 15 16  1  0
 15 17  1  0
 15 18  1  0
 18 19  1  0
 18 20  1  0
 18 21  1  0
 21 22  1  0
 21 23  1  0
 21 24  1  0
 24 25  1  0
 24 26  1  0
  9 27  1  0
 27 28  1  0
 27 29  2  0
 29 30  1  0
 29 31  1  0
 31 32  2  0
  6 33  1  0
 33 34  1  0
 33 35  2  0
 35 36  1  0
 35  2  1  0
 31  7  1  0
 24 10  1  0
M  END
>  <cnnaffinity>  (1) 
-5.46571

>  <filename>  (1) 
O=c1ccc(C2CCCCC2)nn1-c1cccnc1

$$$$
