
     RDKit          3D

 29 31  0  0  0  0  0  0  0  0999 V2000
    4.9071    1.7763   17.0015 H   0  0  0  0  0  0  0  0  0  0  0  0
    5.3978    1.2939   17.8424 C   0  0  0  0  0  0  0  0  0  0  0  0
    6.5629    0.6782   17.5788 N   0  0  0  0  0  0  0  0  0  0  0  0
    7.1797    0.0588   18.5922 C   0  0  0  0  0  0  0  0  0  0  0  0
    8.1288   -0.4305   18.3835 H   0  0  0  0  0  0  0  0  0  0  0  0
    6.6667    0.0023   19.9077 C   0  0  0  0  0  0  0  0  0  0  0  0
    7.3588   -0.6837   20.9478 N   0  0  0  0  0  0  0  0  0  0  0  0
    6.7701   -1.4537   21.9436 C   0  0  0  0  0  0  0  0  0  0  0  0
    5.7017   -1.5832   21.9959 H   0  0  0  0  0  0  0  0  0  0  0  0
    7.7401   -1.9382   22.7504 C   0  0  0  0  0  0  0  0  0  0  0  0
    7.6158   -2.7900   23.9292 C   0  0  0  0  0  0  0  0  0  0  0  0
    8.6402   -2.8904   24.8862 C   0  0  0  0  0  0  0  0  0  0  0  0
    9.5607   -2.3240   24.7694 H   0  0  0  0  0  0  0  0  0  0  0  0
    8.4746   -3.7041   26.0045 C   0  0  0  0  0  0  0  0  0  0  0  0
    9.2725   -3.7764   26.7363 H   0  0  0  0  0  0  0  0  0  0  0  0
    7.2884   -4.4230   26.1816 C   0  0  0  0  0  0  0  0  0  0  0  0
    7.1630   -5.0568   27.0536 H   0  0  0  0  0  0  0  0  0  0  0  0
    6.2635   -4.3256   25.2361 C   0  0  0  0  0  0  0  0  0  0  0  0
    5.3412   -4.8799   25.3701 H   0  0  0  0  0  0  0  0  0  0  0  0
    6.4231   -3.5139   24.1168 C   0  0  0  0  0  0  0  0  0  0  0  0
    5.6232   -3.4510   23.3822 H   0  0  0  0  0  0  0  0  0  0  0  0
    8.9430   -1.4587   22.2439 N   0  0  0  0  0  0  0  0  0  0  0  0
    9.8737   -1.6271   22.5757 H   0  0  0  0  0  0  0  0  0  0  0  0
    8.7512   -0.6744   21.1382 C   0  0  0  0  0  0  0  0  0  0  0  0
    9.5949   -0.1058   20.4755 O   0  0  0  0  0  0  0  0  0  0  0  0
    5.4471    0.6450   20.1625 C   0  0  0  0  0  0  0  0  0  0  0  0
    5.0142    0.6305   21.1627 H   0  0  0  0  0  0  0  0  0  0  0  0
    4.8082    1.3112   19.1110 C   0  0  0  0  0  0  0  0  0  0  0  0
    3.8732    1.8437   19.2679 H   0  0  0  0  0  0  0  0  0  0  0  0
  1  2  1  0
  2  3  2  0
  3  4  1  0
  4  5  1  0
  4  6  2  0
  6  7  1  0
  7  8  1  0
  8  9  1  0
  8 10  2  0
 10 11  1  0
 11 12  2  0
 12 13  1  0
 12 14  1  0
 14 15  1  0
 14 16  2  0
 16 17  1  0
 16 18  1  0
 18 19  1  0
 18 20  2  0
 20 21  1  0
 10 22  1  0
 22 23  1  0
 22 24  1  0
 24 25  2  0
  6 26  1  0
 26 27  1  0
 26 28  2  0
 28 29  1  0
 28  2  1  0
 24  7  1  0
 20 11  1  0
M  END
>  <cnnaffinity>  (1) 
-5.08239

>  <filename>  (1) 
O=c1[nH]c(-c2ccccc2)cn1-c1cccnc1

$$$$
