
     RDKit          3D

 33 35  0  0  0  0  0  0  0  0999 V2000
    4.9545    1.8637   16.9519 H   0  0  0  0  0  0  0  0  0  0  0  0
    5.4165    1.3391   17.7876 C   0  0  0  0  0  0  0  0  0  0  0  0
    6.5777    0.7172   17.5278 N   0  0  0  0  0  0  0  0  0  0  0  0
    7.1741    0.0702   18.5381 C   0  0  0  0  0  0  0  0  0  0  0  0
    8.1177   -0.4205   18.3060 H   0  0  0  0  0  0  0  0  0  0  0  0
    6.6356   -0.0191   19.8384 C   0  0  0  0  0  0  0  0  0  0  0  0
    7.3215   -0.7202   20.8992 N   0  0  0  0  0  0  0  0  0  0  0  0
    8.5727   -0.2646   21.2530 C   0  0  0  0  0  0  0  0  0  0  0  0
    8.9381    0.5917   20.6963 H   0  0  0  0  0  0  0  0  0  0  0  0
    9.3387   -0.8370   22.2280 C   0  0  0  0  0  0  0  0  0  0  0  0
   10.7326   -0.3365   22.4526 C   0  0  0  0  0  0  0  0  0  0  0  0
   11.8377   -1.2074   22.4047 C   0  0  0  0  0  0  0  0  0  0  0  0
   11.6720   -2.2594   22.1659 H   0  0  0  0  0  0  0  0  0  0  0  0
   13.1349   -0.7280   22.6479 C   0  0  0  0  0  0  0  0  0  0  0  0
   13.9723   -1.4199   22.7147 H   0  0  0  0  0  0  0  0  0  0  0  0
   13.3553    0.6299   22.8971 C   0  0  0  0  0  0  0  0  0  0  0  0
   14.3599    0.9911   23.0881 H   0  0  0  0  0  0  0  0  0  0  0  0
   12.2629    1.5052   22.8933 C   0  0  0  0  0  0  0  0  0  0  0  0
   12.4846    2.9618   23.0844 N   0  0  0  0  0  4  0  0  0  0  0  0
   13.6021    3.3339   23.4029 O   0  0  0  0  0  0  0  0  0  0  0  0
   11.5397    3.7158   22.9191 O   0  0  0  0  0  1  0  0  0  0  0  0
   10.9617    1.0323   22.6885 C   0  0  0  0  0  0  0  0  0  0  0  0
   10.1364    1.7352   22.7167 H   0  0  0  0  0  0  0  0  0  0  0  0
    8.7717   -1.9293   22.9641 C   0  0  0  0  0  0  0  0  0  0  0  0
    9.3489   -2.3953   23.7650 H   0  0  0  0  0  0  0  0  0  0  0  0
    7.5178   -2.3792   22.6733 C   0  0  0  0  0  0  0  0  0  0  0  0
    7.0395   -3.1998   23.1863 H   0  0  0  0  0  0  0  0  0  0  0  0
    6.7051   -1.8194   21.5994 C   0  0  0  0  0  0  0  0  0  0  0  0
    5.6108   -2.2617   21.2897 O   0  0  0  0  0  0  0  0  0  0  0  0
    5.4283    0.6349   20.0964 C   0  0  0  0  0  0  0  0  0  0  0  0
    5.0066    0.6025   21.1000 H   0  0  0  0  0  0  0  0  0  0  0  0
    4.8103    1.3263   19.0479 C   0  0  0  0  0  0  0  0  0  0  0  0
    3.8822    1.8637   19.1985 H   0  0  0  0  0  0  0  0  0  0  0  0
  1  2  1  0
  2  3  2  0
  3  4  1  0
  4  5  1  0
  4  6  2  0
  6  7  1  0
  7  8  1  0
  8  9  1  0
  8 10  2  0
 10 11  1  0
 11 12  2  0
 12 13  1  0
 12 14  1  0
 14 15  1  0
 14 16  2  0
 16 17  1  0
 16 18  1  0
 18 19  1  0
 19 20  2  0
 19 21  1  0
 18 22  2  0
 22 23  1  0
 10 24  1  0
 24 25  1  0
 24 26  2  0
 26 27  1  0
 26 28  1  0
 28 29  2  0
  6 30  1  0
 30 31  1  0
 30 32  2  0
 32 33  1  0
 32  2  1  0
 28  7  1  0
 22 11  1  0
M  CHG  2  19   1  21  -1
M  END
>  <cnnaffinity>  (1) 
-5.48469

>  <filename>  (1) 
O=c1ccc(-c2cccc([N+](=O)[O-])c2)cn1-c1cccnc1

$$$$
