
     RDKit          3D

 30 32  0  0  0  0  0  0  0  0999 V2000
    4.9631    1.7743   16.9915 H   0  0  0  0  0  0  0  0  0  0  0  0
    5.4384    1.2917   17.8409 C   0  0  0  0  0  0  0  0  0  0  0  0
    6.6169    0.6909   17.5946 N   0  0  0  0  0  0  0  0  0  0  0  0
    7.2306    0.0853   18.6146 C   0  0  0  0  0  0  0  0  0  0  0  0
    8.1989   -0.3706   18.4184 H   0  0  0  0  0  0  0  0  0  0  0  0
    6.6763    0.0144   19.9023 C   0  0  0  0  0  0  0  0  0  0  0  0
    7.3734   -0.6831   20.9369 N   0  0  0  0  0  0  0  0  0  0  0  0
    8.7043   -0.3730   21.0401 N   0  0  0  0  0  0  0  0  0  0  0  0
    9.4087   -0.9252   22.0013 C   0  0  0  0  0  0  0  0  0  0  0  0
   10.8347   -0.4740   22.1195 C   0  0  0  0  0  0  0  0  0  0  0  0
   11.1820    0.8859   21.9708 C   0  0  0  0  0  0  0  0  0  0  0  0
   10.3991    1.6031   21.7306 H   0  0  0  0  0  0  0  0  0  0  0  0
   12.5023    1.3201   22.1292 C   0  0  0  0  0  0  0  0  0  0  0  0
   12.7382    2.3802   22.0582 H   0  0  0  0  0  0  0  0  0  0  0  0
   13.5238    0.3896   22.3647 C   0  0  0  0  0  0  0  0  0  0  0  0
   14.5486    0.7288   22.5156 H   0  0  0  0  0  0  0  0  0  0  0  0
   13.2195   -0.9727   22.4235 C   0  0  0  0  0  0  0  0  0  0  0  0
   13.9837   -1.7388   22.5206 H   0  0  0  0  0  0  0  0  0  0  0  0
   11.8842   -1.3739   22.3600 C   0  0  0  0  0  0  0  0  0  0  0  0
   11.6225   -2.6814   22.5607 F   0  0  0  0  0  0  0  0  0  0  0  0
    8.8246   -1.8907   22.9045 C   0  0  0  0  0  0  0  0  0  0  0  0
    9.4437   -2.3298   23.6824 H   0  0  0  0  0  0  0  0  0  0  0  0
    7.5142   -2.2370   22.7638 C   0  0  0  0  0  0  0  0  0  0  0  0
    6.9935   -2.9549   23.3864 H   0  0  0  0  0  0  0  0  0  0  0  0
    6.6883   -1.7019   21.6900 C   0  0  0  0  0  0  0  0  0  0  0  0
    5.5643   -2.0841   21.4207 O   0  0  0  0  0  0  0  0  0  0  0  0
    5.4536    0.6434   20.1562 C   0  0  0  0  0  0  0  0  0  0  0  0
    5.0132    0.5995   21.1501 H   0  0  0  0  0  0  0  0  0  0  0  0
    4.8276    1.3099   19.0988 C   0  0  0  0  0  0  0  0  0  0  0  0
    3.8808    1.8285   19.2348 H   0  0  0  0  0  0  0  0  0  0  0  0
  1  2  1  0
  2  3  2  0
  3  4  1  0
  4  5  1  0
  4  6  2  0
  6  7  1  0
  7  8  1  0
  8  9  2  0
  9 10  1  0
 10 11  2  0
 11 12  1  0
 11 13  1  0
 13 14  1  0
 13 15  2  0
 15 16  1  0
 15 17  1  0
 17 18  1  0
 17 19  2  0
 19 20  1  0
  9 21  1  0
 21 22  1  0
 21 23  2  0
 23 24  1  0
 23 25  1  0
 25 26  2  0
  6 27  1  0
 27 28  1  0
 27 29  2  0
 29 30  1  0
 29  2  1  0
 25  7  1  0
 19 10  1  0
M  END
>  <cnnaffinity>  (1) 
-4.79342

>  <filename>  (1) 
O=c1ccc(-c2ccccc2F)nn1-c1cccnc1

$$$$
