
     RDKit          3D

 34 36  0  0  0  0  0  0  0  0999 V2000
    4.8960    1.8965   16.9428 H   0  0  0  0  0  0  0  0  0  0  0  0
    5.3574    1.3429   17.7579 C   0  0  0  0  0  0  0  0  0  0  0  0
    6.5070    0.7140   17.4649 N   0  0  0  0  0  0  0  0  0  0  0  0
    7.1314    0.0728   18.4616 C   0  0  0  0  0  0  0  0  0  0  0  0
    8.0876   -0.3905   18.2258 H   0  0  0  0  0  0  0  0  0  0  0  0
    6.6265   -0.0084   19.7793 C   0  0  0  0  0  0  0  0  0  0  0  0
    7.3540   -0.6883   20.8496 N   0  0  0  0  0  0  0  0  0  0  0  0
    8.6065   -0.1760   21.2964 C   0  0  0  0  0  0  0  0  0  0  0  0
    9.1085    0.7796   20.7405 O   0  0  0  0  0  0  0  0  0  0  0  0
    9.2380   -0.8693   22.4054 C   0  0  0  0  0  0  0  0  0  0  0  0
   10.2004   -0.4748   22.6859 H   0  0  0  0  0  0  0  0  0  0  0  0
    8.6646   -1.9254   23.0074 C   0  0  0  0  0  0  0  0  0  0  0  0
    9.2667   -2.7293   24.1197 C   0  0  0  0  0  0  0  0  0  0  0  0
   10.4670   -3.4061   23.8445 C   0  0  0  0  0  0  0  0  0  0  0  0
   10.9504   -3.2541   22.8807 H   0  0  0  0  0  0  0  0  0  0  0  0
   11.0205   -4.2895   24.7746 C   0  0  0  0  0  0  0  0  0  0  0  0
   11.8834   -4.8879   24.5217 H   0  0  0  0  0  0  0  0  0  0  0  0
   10.4586   -4.4236   26.0437 C   0  0  0  0  0  0  0  0  0  0  0  0
   10.9265   -5.0725   26.7854 H   0  0  0  0  0  0  0  0  0  0  0  0
    9.3253   -3.6776   26.3747 C   0  0  0  0  0  0  0  0  0  0  0  0
    8.9459   -3.7278   27.3935 H   0  0  0  0  0  0  0  0  0  0  0  0
    8.6963   -2.8602   25.4178 C   0  0  0  0  0  0  0  0  0  0  0  0
    7.4091   -2.1250   25.7727 C   0  0  0  0  0  0  0  0  0  0  0  0
    7.3727   -0.8970   25.2276 F   0  0  0  0  0  0  0  0  0  0  0  0
    6.3137   -2.7753   25.3128 F   0  0  0  0  0  0  0  0  0  0  0  0
    7.2377   -1.9826   27.1000 F   0  0  0  0  0  0  0  0  0  0  0  0
    7.4653   -2.3557   22.4987 N   0  0  0  0  0  0  0  0  0  0  0  0
    6.9240   -3.0815   22.9338 H   0  0  0  0  0  0  0  0  0  0  0  0
    6.7587   -1.7776   21.4786 C   0  0  0  0  0  0  0  0  0  0  0  0
    5.6882   -2.2455   21.1584 O   0  0  0  0  0  0  0  0  0  0  0  0
    5.4113    0.6214   20.0574 C   0  0  0  0  0  0  0  0  0  0  0  0
    4.9927    0.5792   21.0617 H   0  0  0  0  0  0  0  0  0  0  0  0
    4.7733    1.3241   19.0273 C   0  0  0  0  0  0  0  0  0  0  0  0
    3.8562    1.8745   19.1978 H   0  0  0  0  0  0  0  0  0  0  0  0
  1  2  1  0
  2  3  2  0
  3  4  1  0
  4  5  1  0
  4  6  2  0
  6  7  1  0
  7  8  1  0
  8  9  2  0
  8 10  1  0
 10 11  1  0
 10 12  2  0
 12 13  1  0
 13 14  2  0
 14 15  1  0
 14 16  1  0
 16 17  1  0
 16 18  2  0
 18 19  1  0
 18 20  1  0
 20 21  1  0
 20 22  2  0
 22 23  1  0
 23 24  1  0
 23 25  1  0
 23 26  1  0
 12 27  1  0
 27 28  1  0
 27 29  1  0
 29 30  2  0
  6 31  1  0
 31 32  1  0
 31 33  2  0
 33 34  1  0
 33  2  1  0
 29  7  1  0
 22 13  1  0
M  END
>  <cnnaffinity>  (1) 
-5.78117

>  <filename>  (1) 
O=c1cc(-c2ccccc2C(F)(F)F)[nH]c(=O)n1-c1cccnc1

$$$$
