
     RDKit          3D

 36 39  0  0  0  0  0  0  0  0999 V2000
    4.9115    1.8136   16.9684 H   0  0  0  0  0  0  0  0  0  0  0  0
    5.3851    1.3098   17.8095 C   0  0  0  0  0  0  0  0  0  0  0  0
    6.5470    0.6907   17.5416 N   0  0  0  0  0  0  0  0  0  0  0  0
    7.1637    0.0774   18.5611 C   0  0  0  0  0  0  0  0  0  0  0  0
    8.1022   -0.4171   18.3098 H   0  0  0  0  0  0  0  0  0  0  0  0
    6.6647    0.0206   19.8777 C   0  0  0  0  0  0  0  0  0  0  0  0
    7.3801   -0.7035   20.9673 C   0  0  0  0  0  0  0  0  0  0  0  0
    6.6713   -1.5402   21.8736 C   0  0  0  0  0  0  0  0  0  0  0  0
    5.6010   -1.6580   21.7251 H   0  0  0  0  0  0  0  0  0  0  0  0
    7.3039   -2.2235   22.8917 C   0  0  0  0  0  0  0  0  0  0  0  0
    6.5864   -3.0961   23.8242 C   0  0  0  0  0  0  0  0  0  0  0  0
    5.4027   -2.6796   24.2241 N   0  0  0  0  0  0  0  0  0  0  0  0
    4.6630   -3.4697   25.0529 C   0  0  0  0  0  0  0  0  0  0  0  0
    3.3839   -2.9901   25.4730 C   0  0  0  0  0  0  0  0  0  0  0  0
    3.0874   -2.0151   25.0997 H   0  0  0  0  0  0  0  0  0  0  0  0
    2.5954   -3.7527   26.3073 C   0  0  0  0  0  0  0  0  0  0  0  0
    1.6218   -3.3940   26.6371 H   0  0  0  0  0  0  0  0  0  0  0  0
    3.0499   -5.0275   26.7527 C   0  0  0  0  0  0  0  0  0  0  0  0
    2.4199   -5.6123   27.4147 H   0  0  0  0  0  0  0  0  0  0  0  0
    4.2718   -5.5191   26.3574 C   0  0  0  0  0  0  0  0  0  0  0  0
    4.6284   -6.4896   26.6938 H   0  0  0  0  0  0  0  0  0  0  0  0
    5.1083   -4.7560   25.4920 C   0  0  0  0  0  0  0  0  0  0  0  0
    6.3820   -5.1897   25.0270 C   0  0  0  0  0  0  0  0  0  0  0  0
    6.7539   -6.1610   25.3449 H   0  0  0  0  0  0  0  0  0  0  0  0
    7.1188   -4.3702   24.2071 C   0  0  0  0  0  0  0  0  0  0  0  0
    8.0986   -4.6326   23.8350 H   0  0  0  0  0  0  0  0  0  0  0  0
    8.7379   -2.0771   23.0738 C   0  0  0  0  0  0  0  0  0  0  0  0
    9.4860   -2.5820   23.8937 O   0  0  0  0  0  0  0  0  0  0  0  0
    9.3493   -1.2251   22.1550 N   0  0  0  0  0  0  0  0  0  0  0  0
   10.3328   -1.2074   22.3846 H   0  0  0  0  0  0  0  0  0  0  0  0
    8.7320   -0.5665   21.1363 C   0  0  0  0  0  0  0  0  0  0  0  0
    9.3368    0.0691   20.4988 H   0  0  0  0  0  0  0  0  0  0  0  0
    5.4434    0.6654   20.1253 C   0  0  0  0  0  0  0  0  0  0  0  0
    5.0277    0.6403   21.1330 H   0  0  0  0  0  0  0  0  0  0  0  0
    4.7965    1.3269   19.0804 C   0  0  0  0  0  0  0  0  0  0  0  0
    3.8585    1.8520   19.2336 H   0  0  0  0  0  0  0  0  0  0  0  0
  1  2  1  0
  2  3  2  0
  3  4  1  0
  4  5  1  0
  4  6  2  0
  6  7  1  0
  7  8  1  0
  8  9  1  0
  8 10  2  0
 10 11  1  0
 11 12  2  0
 12 13  1  0
 13 14  2  0
 14 15  1  0
 14 16  1  0
 16 17  1  0
 16 18  2  0
 18 19  1  0
 18 20  1  0
 20 21  1  0
 20 22  2  0
 22 23  1  0
 23 24  1  0
 23 25  2  0
 25 26  1  0
 10 27  1  0
 27 28  2  0
 27 29  1  0
 29 30  1  0
 29 31  1  0
 31 32  1  0
  6 33  1  0
 33 34  1  0
 33 35  2  0
 35 36  1  0
 35  2  1  0
 31  7  2  0
 25 11  1  0
 22 13  1  0
M  END
>  <cnnaffinity>  (1) 
-5.35425

>  <filename>  (1) 
O=c1[nH]cc(-c2cccnc2)cc1-c1ccc2ccccc2n1

$$$$
