
     RDKit          3D

 29 31  0  0  0  0  0  0  0  0999 V2000
    4.9389    1.8313   17.0130 H   0  0  0  0  0  0  0  0  0  0  0  0
    5.4543    1.3047   17.8141 C   0  0  0  0  0  0  0  0  0  0  0  0
    6.6264    0.7369   17.4871 N   0  0  0  0  0  0  0  0  0  0  0  0
    7.2820    0.0791   18.4527 C   0  0  0  0  0  0  0  0  0  0  0  0
    8.2284   -0.3721   18.1578 H   0  0  0  0  0  0  0  0  0  0  0  0
    6.8090   -0.0792   19.7725 C   0  0  0  0  0  0  0  0  0  0  0  0
    7.5575   -0.8235   20.8142 C   0  0  0  0  0  0  0  0  0  0  0  0
    8.8707   -0.7392   21.1161 C   0  0  0  0  0  0  0  0  0  0  0  0
    9.6410   -0.2035   20.5745 H   0  0  0  0  0  0  0  0  0  0  0  0
    9.1802   -1.3768   22.3119 N   0  0  0  0  0  0  0  0  0  0  0  0
    9.9921   -1.9991   22.3265 H   0  0  0  0  0  0  0  0  0  0  0  0
    7.9937   -2.0179   22.7174 N   0  0  0  0  0  0  0  0  0  0  0  0
    7.8864   -2.6733   23.9684 C   0  0  0  0  0  0  0  0  0  0  0  0
    8.8201   -2.4503   24.9940 C   0  0  0  0  0  0  0  0  0  0  0  0
    9.6130   -1.7282   24.8382 H   0  0  0  0  0  0  0  0  0  0  0  0
    8.7174   -3.1481   26.1960 C   0  0  0  0  0  0  0  0  0  0  0  0
    9.4372   -2.9815   26.9908 H   0  0  0  0  0  0  0  0  0  0  0  0
    7.6846   -4.0731   26.3990 C   0  0  0  0  0  0  0  0  0  0  0  0
    7.6156   -4.9407   27.8952 Cl  0  0  0  0  0  0  0  0  0  0  0  0
    6.7423   -4.2765   25.3772 C   0  0  0  0  0  0  0  0  0  0  0  0
    5.4227   -5.3808   25.5586 Cl  0  0  0  0  0  0  0  0  0  0  0  0
    6.8341   -3.5763   24.1753 C   0  0  0  0  0  0  0  0  0  0  0  0
    6.0875   -3.7082   23.4055 H   0  0  0  0  0  0  0  0  0  0  0  0
    6.9555   -1.7326   21.8154 C   0  0  0  0  0  0  0  0  0  0  0  0
    5.8262   -2.1985   21.8553 O   0  0  0  0  0  0  0  0  0  0  0  0
    5.5908    0.5475   20.0887 C   0  0  0  0  0  0  0  0  0  0  0  0
    5.2162    0.4873   21.1098 H   0  0  0  0  0  0  0  0  0  0  0  0
    4.9030    1.2487   19.0977 C   0  0  0  0  0  0  0  0  0  0  0  0
    3.9728    1.7672   19.3064 H   0  0  0  0  0  0  0  0  0  0  0  0
  1  2  1  0
  2  3  2  0
  3  4  1  0
  4  5  1  0
  4  6  2  0
  6  7  1  0
  7  8  2  0
  8  9  1  0
  8 10  1  0
 10 11  1  0
 10 12  1  0
 12 13  1  0
 13 14  2  0
 14 15  1  0
 14 16  1  0
 16 17  1  0
 16 18  2  0
 18 19  1  0
 18 20  1  0
 20 21  1  0
 20 22  2  0
 22 23  1  0
 12 24  1  0
 24 25  2  0
  6 26  1  0
 26 27  1  0
 26 28  2  0
 28 29  1  0
 28  2  1  0
 24  7  1  0
 22 13  1  0
M  END
>  <cnnaffinity>  (1) 
-5.36557

>  <filename>  (1) 
O=c1c(-c2cccnc2)c[nH]n1-c1ccc(Cl)c(Cl)c1

$$$$
