
     RDKit          3D

 32 35  0  0  0  0  0  0  0  0999 V2000
    4.9072    1.7760   17.0014 H   0  0  0  0  0  0  0  0  0  0  0  0
    5.3980    1.2939   17.8425 C   0  0  0  0  0  0  0  0  0  0  0  0
    6.5630    0.6782   17.5792 N   0  0  0  0  0  0  0  0  0  0  0  0
    7.1804    0.0587   18.5926 C   0  0  0  0  0  0  0  0  0  0  0  0
    8.1291   -0.4305   18.3814 H   0  0  0  0  0  0  0  0  0  0  0  0
    6.6669    0.0017   19.9089 C   0  0  0  0  0  0  0  0  0  0  0  0
    7.3581   -0.6861   20.9503 N   0  0  0  0  0  0  0  0  0  0  0  0
    6.7683   -1.4508   21.9513 C   0  0  0  0  0  0  0  0  0  0  0  0
    5.7012   -1.5996   21.9847 H   0  0  0  0  0  0  0  0  0  0  0  0
    7.7373   -1.9436   22.7574 C   0  0  0  0  0  0  0  0  0  0  0  0
    7.6142   -2.7951   23.9388 C   0  0  0  0  0  0  0  0  0  0  0  0
    6.3620   -2.8907   24.5746 C   0  0  0  0  0  0  0  0  0  0  0  0
    5.5140   -2.3166   24.2021 H   0  0  0  0  0  0  0  0  0  0  0  0
    6.1798   -3.7037   25.7040 C   0  0  0  0  0  0  0  0  0  0  0  0
    5.2186   -3.7757   26.1951 H   0  0  0  0  0  0  0  0  0  0  0  0
    7.2736   -4.4116   26.1712 C   0  0  0  0  0  0  0  0  0  0  0  0
    8.5184   -4.3256   25.5460 C   0  0  0  0  0  0  0  0  0  0  0  0
    8.7185   -3.5344   24.4378 C   0  0  0  0  0  0  0  0  0  0  0  0
    9.6912   -3.4970   23.9608 H   0  0  0  0  0  0  0  0  0  0  0  0
    9.4191   -5.1176   26.2018 O   0  0  0  0  0  0  0  0  0  0  0  0
    8.7052   -5.7236   27.2802 C   0  0  0  0  0  0  0  0  0  0  0  0
    9.1660   -5.4457   28.2357 H   0  0  0  0  0  0  0  0  0  0  0  0
    8.7243   -6.8143   27.1743 H   0  0  0  0  0  0  0  0  0  0  0  0
    7.3543   -5.2594   27.2388 O   0  0  0  0  0  0  0  0  0  0  0  0
    8.9426   -1.4788   22.2349 N   0  0  0  0  0  0  0  0  0  0  0  0
    9.8703   -1.6058   22.5909 H   0  0  0  0  0  0  0  0  0  0  0  0
    8.7519   -0.6816   21.1358 C   0  0  0  0  0  0  0  0  0  0  0  0
    9.5952   -0.1082   20.4758 O   0  0  0  0  0  0  0  0  0  0  0  0
    5.4468    0.6453   20.1623 C   0  0  0  0  0  0  0  0  0  0  0  0
    5.0158    0.6296   21.1634 H   0  0  0  0  0  0  0  0  0  0  0  0
    4.8076    1.3116   19.1111 C   0  0  0  0  0  0  0  0  0  0  0  0
    3.8725    1.8445   19.2670 H   0  0  0  0  0  0  0  0  0  0  0  0
  1  2  1  0
  2  3  2  0
  3  4  1  0
  4  5  1  0
  4  6  2  0
  6  7  1  0
  7  8  1  0
  8  9  1  0
  8 10  2  0
 10 11  1  0
 11 12  2  0
 12 13  1  0
 12 14  1  0
 14 15  1  0
 14 16  2  0
 16 17  1  0
 17 18  2  0
 18 19  1  0
 17 20  1  0
 20 21  1  0
 21 22  1  0
 21 23  1  0
 21 24  1  0
 10 25  1  0
 25 26  1  0
 25 27  1  0
 27 28  2  0
  6 29  1  0
 29 30  1  0
 29 31  2  0
 31 32  1  0
 31  2  1  0
 27  7  1  0
 18 11  1  0
 24 16  1  0
M  END
>  <cnnaffinity>  (1) 
-5.19785

>  <filename>  (1) 
O=c1[nH]c(-c2ccc3c(c2)OCO3)cn1-c1cccnc1

$$$$
