
     RDKit          3D

 33 36  0  0  0  0  0  0  0  0999 V2000
    4.9408    1.8066   16.9514 H   0  0  0  0  0  0  0  0  0  0  0  0
    5.3893    1.3113   17.8079 C   0  0  0  0  0  0  0  0  0  0  0  0
    6.5557    0.6879   17.5863 N   0  0  0  0  0  0  0  0  0  0  0  0
    7.1477    0.0976   18.6323 C   0  0  0  0  0  0  0  0  0  0  0  0
    8.0917   -0.3983   18.4065 H   0  0  0  0  0  0  0  0  0  0  0  0
    6.6316    0.0913   19.9446 C   0  0  0  0  0  0  0  0  0  0  0  0
    7.3451   -0.6373   21.0151 C   0  0  0  0  0  0  0  0  0  0  0  0
    7.8026   -1.8906   21.0072 C   0  0  0  0  0  0  0  0  0  0  0  0
    7.6824   -2.6560   20.2708 H   0  0  0  0  0  0  0  0  0  0  0  0
    8.3149   -2.2521   22.2195 O   0  0  0  0  0  0  0  0  0  0  0  0
    8.1520   -1.1974   23.0946 C   0  0  0  0  0  0  0  0  0  0  0  0
    8.4998   -1.2033   24.2368 O   0  0  0  0  0  0  0  0  0  0  0  0
    7.5565   -0.2017   22.3432 N   0  0  0  0  0  0  0  0  0  0  0  0
    7.2447    1.0066   22.9437 C   0  0  0  0  0  0  0  0  0  0  0  0
    6.7648    0.9669   24.1567 N   0  0  0  0  0  0  0  0  0  0  0  0
    6.4261    2.1593   24.7173 C   0  0  0  0  0  0  0  0  0  0  0  0
    5.8793    2.1251   26.0302 C   0  0  0  0  0  0  0  0  0  0  0  0
    5.7614    1.1345   26.4588 H   0  0  0  0  0  0  0  0  0  0  0  0
    5.5489    3.2945   26.6835 C   0  0  0  0  0  0  0  0  0  0  0  0
    5.1497    3.2678   27.6999 H   0  0  0  0  0  0  0  0  0  0  0  0
    5.7434    4.5500   26.0328 C   0  0  0  0  0  0  0  0  0  0  0  0
    5.4884    5.4652   26.5613 H   0  0  0  0  0  0  0  0  0  0  0  0
    6.2562    4.6197   24.7529 C   0  0  0  0  0  0  0  0  0  0  0  0
    6.4079    5.5735   24.2417 H   0  0  0  0  0  0  0  0  0  0  0  0
    6.6123    3.4251   24.0637 C   0  0  0  0  0  0  0  0  0  0  0  0
    7.1636    3.4028   22.7422 C   0  0  0  0  0  0  0  0  0  0  0  0
    7.3204    4.3311   22.1897 H   0  0  0  0  0  0  0  0  0  0  0  0
    7.4755    2.1908   22.1904 C   0  0  0  0  0  0  0  0  0  0  0  0
    7.8567    2.0550   21.1892 H   0  0  0  0  0  0  0  0  0  0  0  0
    5.3798    0.7155   20.1348 C   0  0  0  0  0  0  0  0  0  0  0  0
    4.9063    0.6984   21.1169 H   0  0  0  0  0  0  0  0  0  0  0  0
    4.7606    1.3424   19.0555 C   0  0  0  0  0  0  0  0  0  0  0  0
    3.8121    1.8576   19.1661 H   0  0  0  0  0  0  0  0  0  0  0  0
  1  2  1  0
  2  3  2  0
  3  4  1  0
  4  5  1  0
  4  6  2  0
  6  7  1  0
  7  8  2  0
  8  9  1  0
  8 10  1  0
 10 11  1  0
 11 12  2  0
 11 13  1  0
 13 14  1  0
 14 15  2  0
 15 16  1  0
 16 17  2  0
 17 18  1  0
 17 19  1  0
 19 20  1  0
 19 21  2  0
 21 22  1  0
 21 23  1  0
 23 24  1  0
 23 25  2  0
 25 26  1  0
 26 27  1  0
 26 28  2  0
 28 29  1  0
  6 30  1  0
 30 31  1  0
 30 32  2  0
 32 33  1  0
 32  2  1  0
 13  7  1  0
 28 14  1  0
 25 16  1  0
M  END
>  <cnnaffinity>  (1) 
-5.0829

>  <filename>  (1) 
O=c1occ(-c2cccnc2)n1-c1ccc2ccccc2n1

$$$$
