
     RDKit          3D

 27 29  0  0  0  0  0  0  0  0999 V2000
    4.9540    1.8681   16.9221 H   0  0  0  0  0  0  0  0  0  0  0  0
    5.4157    1.3511   17.7588 C   0  0  0  0  0  0  0  0  0  0  0  0
    6.5990    0.7696   17.5085 N   0  0  0  0  0  0  0  0  0  0  0  0
    7.2037    0.1454   18.5226 C   0  0  0  0  0  0  0  0  0  0  0  0
    8.1783   -0.2926   18.3064 H   0  0  0  0  0  0  0  0  0  0  0  0
    6.6317    0.0042   19.7998 C   0  0  0  0  0  0  0  0  0  0  0  0
    7.3595   -0.7658   20.8267 C   0  0  0  0  0  0  0  0  0  0  0  0
    8.6303   -0.4788   21.0075 N   0  0  0  0  0  0  0  0  0  0  0  0
    9.3174   -1.0665   22.0554 C   0  0  0  0  0  0  0  0  0  0  0  0
   10.7562   -0.7624   22.1503 C   0  0  0  0  0  0  0  0  0  0  0  0
   11.3338    0.8481   21.8891 S   0  0  0  0  0  0  0  0  0  0  0  0
   12.9566    0.3621   22.1883 C   0  0  0  0  0  0  0  0  0  0  0  0
   13.7567    1.0915   22.1878 H   0  0  0  0  0  0  0  0  0  0  0  0
   13.0601   -0.9819   22.3860 C   0  0  0  0  0  0  0  0  0  0  0  0
   14.0096   -1.4895   22.5193 H   0  0  0  0  0  0  0  0  0  0  0  0
   11.7913   -1.6308   22.3894 C   0  0  0  0  0  0  0  0  0  0  0  0
   11.6755   -2.6979   22.5655 H   0  0  0  0  0  0  0  0  0  0  0  0
    8.7030   -1.9036   22.9536 C   0  0  0  0  0  0  0  0  0  0  0  0
    9.1968   -2.3008   23.8358 H   0  0  0  0  0  0  0  0  0  0  0  0
    7.3879   -2.2451   22.7514 N   0  0  0  0  0  0  0  0  0  0  0  0
    6.8695   -2.9030   23.3211 H   0  0  0  0  0  0  0  0  0  0  0  0
    6.6346   -1.8308   21.6497 C   0  0  0  0  0  0  0  0  0  0  0  0
    5.5481   -2.3527   21.4676 O   0  0  0  0  0  0  0  0  0  0  0  0
    5.3996    0.6329   20.0508 C   0  0  0  0  0  0  0  0  0  0  0  0
    4.9400    0.5923   21.0399 H   0  0  0  0  0  0  0  0  0  0  0  0
    4.7876    1.3228   19.0054 C   0  0  0  0  0  0  0  0  0  0  0  0
    3.8568    1.8578   19.1488 H   0  0  0  0  0  0  0  0  0  0  0  0
  1  2  1  0
  2  3  2  0
  3  4  1  0
  4  5  1  0
  4  6  2  0
  6  7  1  0
  7  8  2  0
  8  9  1  0
  9 10  1  0
 10 11  1  0
 11 12  1  0
 12 13  1  0
 12 14  2  0
 14 15  1  0
 14 16  1  0
 16 17  1  0
  9 18  2  0
 18 19  1  0
 18 20  1  0
 20 21  1  0
 20 22  1  0
 22 23  2  0
  6 24  1  0
 24 25  1  0
 24 26  2  0
 26 27  1  0
 26  2  1  0
 22  7  1  0
 16 10  2  0
M  END
>  <cnnaffinity>  (1) 
-5.05137

>  <filename>  (1) 
O=c1[nH]cc(-c2cccs2)nc1-c1cccnc1

$$$$
