
     RDKit          3D

 31 33  0  0  0  0  0  0  0  0999 V2000
    4.9585    1.8243   16.9672 H   0  0  0  0  0  0  0  0  0  0  0  0
    5.4164    1.3036   17.8091 C   0  0  0  0  0  0  0  0  0  0  0  0
    6.5804    0.6776   17.5657 N   0  0  0  0  0  0  0  0  0  0  0  0
    7.1686    0.0609   18.5987 C   0  0  0  0  0  0  0  0  0  0  0  0
    8.1144   -0.4349   18.3855 H   0  0  0  0  0  0  0  0  0  0  0  0
    6.6619    0.0289   19.9095 C   0  0  0  0  0  0  0  0  0  0  0  0
    7.4361   -0.6226   20.9601 C   0  0  0  0  0  0  0  0  0  0  0  0
    8.4355   -1.5374   20.9067 C   0  0  0  0  0  0  0  0  0  0  0  0
    8.9858   -1.9774   20.0925 H   0  0  0  0  0  0  0  0  0  0  0  0
    8.7629   -1.8945   22.2083 N   0  0  0  0  0  0  0  0  0  0  0  0
    9.6668   -2.9052   22.4753 N   0  0  0  0  0  0  0  0  0  0  0  0
   10.5066   -2.9582   21.9130 H   0  0  0  0  0  0  0  0  0  0  0  0
    9.6087   -3.7450   23.5874 C   0  0  0  0  0  0  0  0  0  0  0  0
    8.4231   -4.2746   24.1157 C   0  0  0  0  0  0  0  0  0  0  0  0
    7.4659   -3.9981   23.6802 H   0  0  0  0  0  0  0  0  0  0  0  0
    8.4935   -5.1644   25.1928 C   0  0  0  0  0  0  0  0  0  0  0  0
    7.5787   -5.5430   25.6322 H   0  0  0  0  0  0  0  0  0  0  0  0
    9.7239   -5.5654   25.7175 C   0  0  0  0  0  0  0  0  0  0  0  0
    9.7664   -6.2802   26.5337 H   0  0  0  0  0  0  0  0  0  0  0  0
   10.8981   -5.0438   25.1725 C   0  0  0  0  0  0  0  0  0  0  0  0
   11.8613   -5.3631   25.5386 H   0  0  0  0  0  0  0  0  0  0  0  0
   10.8423   -4.1202   24.1347 C   0  0  0  0  0  0  0  0  0  0  0  0
   11.7448   -3.6739   23.7253 H   0  0  0  0  0  0  0  0  0  0  0  0
    8.0194   -1.1083   23.1220 C   0  0  0  0  0  0  0  0  0  0  0  0
    8.0917   -1.0235   24.3299 O   0  0  0  0  0  0  0  0  0  0  0  0
    7.1659   -0.4058   22.3093 N   0  0  0  0  0  0  0  0  0  0  0  0
    6.7061    0.3818   22.7315 H   0  0  0  0  0  0  0  0  0  0  0  0
    5.4171    0.6543   20.1306 C   0  0  0  0  0  0  0  0  0  0  0  0
    4.9462    0.6389   21.1158 H   0  0  0  0  0  0  0  0  0  0  0  0
    4.7960    1.3061   19.0660 C   0  0  0  0  0  0  0  0  0  0  0  0
    3.8627    1.8439   19.2016 H   0  0  0  0  0  0  0  0  0  0  0  0
  1  2  1  0
  2  3  2  0
  3  4  1  0
  4  5  1  0
  4  6  2  0
  6  7  1  0
  7  8  2  0
  8  9  1  0
  8 10  1  0
 10 11  1  0
 11 12  1  0
 11 13  1  0
 13 14  2  0
 14 15  1  0
 14 16  1  0
 16 17  1  0
 16 18  2  0
 18 19  1  0
 18 20  1  0
 20 21  1  0
 20 22  2  0
 22 23  1  0
 10 24  1  0
 24 25  2  0
 24 26  1  0
 26 27  1  0
  6 28  1  0
 28 29  1  0
 28 30  2  0
 30 31  1  0
 30  2  1  0
 26  7  1  0
 22 13  1  0
M  END
>  <cnnaffinity>  (1) 
-5.17338

>  <filename>  (1) 
O=c1[nH]c(-c2cccnc2)cn1Nc1ccccc1

$$$$
