
     RDKit          3D

 43 46  0  0  0  0  0  0  0  0999 V2000
    2.5479   -4.7286   29.0815 H   0  0  0  0  0  0  0  0  0  0  0  0
    2.8582   -5.3048   28.2092 C   0  0  0  0  0  0  0  0  0  0  0  0
    3.7175   -4.6888   27.3948 N   0  0  0  0  0  0  0  0  0  0  0  0
    4.0804   -5.3366   26.2807 C   0  0  0  0  0  0  0  0  0  0  0  0
    4.8957   -4.6302   25.4101 N   0  0  0  0  0  0  0  0  0  0  0  0
    6.0484   -3.8686   25.9044 C   0  0  0  0  0  0  0  0  0  0  0  0
    6.9715   -4.4740   25.8347 H   0  0  0  0  0  0  0  0  0  0  0  0
    5.8914   -3.6020   26.9542 H   0  0  0  0  0  0  0  0  0  0  0  0
    6.2552   -2.5817   25.0907 C   0  0  0  0  0  0  0  0  0  0  0  0
    5.4256   -1.8867   25.3144 H   0  0  0  0  0  0  0  0  0  0  0  0
    7.2019   -2.1312   25.4075 H   0  0  0  0  0  0  0  0  0  0  0  0
    6.3359   -2.8720   23.6536 N   0  0  0  0  0  0  0  0  0  0  0  0
    7.1482   -2.1087   22.7986 C   0  0  0  0  0  0  0  0  0  0  0  0
    6.5649   -1.4923   21.7947 N   0  0  0  0  0  0  0  0  0  0  0  0
    7.3429   -0.7190   20.9591 N   0  0  0  0  0  0  0  0  0  0  0  0
    6.6576   -0.0163   19.9131 C   0  0  0  0  0  0  0  0  0  0  0  0
    7.1703    0.0486   18.6010 C   0  0  0  0  0  0  0  0  0  0  0  0
    8.1096   -0.4424   18.3548 H   0  0  0  0  0  0  0  0  0  0  0  0
    6.5612    0.6714   17.5839 N   0  0  0  0  0  0  0  0  0  0  0  0
    5.4015    1.2962   17.8398 C   0  0  0  0  0  0  0  0  0  0  0  0
    4.9320    1.7945   16.9931 H   0  0  0  0  0  0  0  0  0  0  0  0
    4.8112    1.3098   19.1101 C   0  0  0  0  0  0  0  0  0  0  0  0
    3.8771    1.8440   19.2547 H   0  0  0  0  0  0  0  0  0  0  0  0
    5.4403    0.6347   20.1646 C   0  0  0  0  0  0  0  0  0  0  0  0
    5.0249    0.5922   21.1704 H   0  0  0  0  0  0  0  0  0  0  0  0
    8.7017   -0.6197   21.1150 C   0  0  0  0  0  0  0  0  0  0  0  0
    9.1960    0.0329   20.3983 H   0  0  0  0  0  0  0  0  0  0  0  0
    9.3712   -1.2637   22.0991 C   0  0  0  0  0  0  0  0  0  0  0  0
   10.4457   -1.2122   22.2139 H   0  0  0  0  0  0  0  0  0  0  0  0
    8.6594   -2.0833   23.0606 C   0  0  0  0  0  0  0  0  0  0  0  0
    9.2387   -2.6869   23.9597 O   0  0  0  0  0  0  0  0  0  0  0  0
    5.1974   -3.6282   23.1430 C   0  0  0  0  0  0  0  0  0  0  0  0
    4.2707   -3.0383   23.1632 H   0  0  0  0  0  0  0  0  0  0  0  0
    5.3913   -3.9102   22.1052 H   0  0  0  0  0  0  0  0  0  0  0  0
    4.9739   -4.9167   23.9772 C   0  0  0  0  0  0  0  0  0  0  0  0
    5.8036   -5.6149   23.7659 H   0  0  0  0  0  0  0  0  0  0  0  0
    4.0367   -5.3746   23.6390 H   0  0  0  0  0  0  0  0  0  0  0  0
    3.6561   -6.6531   25.9906 C   0  0  0  0  0  0  0  0  0  0  0  0
    4.0486   -7.1206   25.0995 H   0  0  0  0  0  0  0  0  0  0  0  0
    2.7960   -7.2995   26.8740 C   0  0  0  0  0  0  0  0  0  0  0  0
    2.4632   -8.3247   26.6890 H   0  0  0  0  0  0  0  0  0  0  0  0
    2.3715   -6.5976   28.0097 C   0  0  0  0  0  0  0  0  0  0  0  0
    1.7016   -7.0317   28.7428 H   0  0  0  0  0  0  0  0  0  0  0  0
  1  2  1  0
  2  3  2  0
  3  4  1  0
  4  5  1  0
  5  6  1  0
  6  7  1  0
  6  8  1  0
  6  9  1  0
  9 10  1  0
  9 11  1  0
  9 12  1  0
 12 13  1  0
 13 14  2  0
 14 15  1  0
 15 16  1  0
 16 17  2  0
 17 18  1  0
 17 19  1  0
 19 20  2  0
 20 21  1  0
 20 22  1  0
 22 23  1  0
 22 24  2  0
 24 25  1  0
 15 26  1  0
 26 27  1  0
 26 28  2  0
 28 29  1  0
 28 30  1  0
 30 31  2  0
 12 32  1  0
 32 33  1  0
 32 34  1  0
 32 35  1  0
 35 36  1  0
 35 37  1  0
  4 38  2  0
 38 39  1  0
 38 40  1  0
 40 41  1  0
 40 42  2  0
 42 43  1  0
 42  2  1  0
 35  5  1  0
 30 13  1  0
 24 16  1  0
M  END
>  <cnnaffinity>  (1) 
-5.352

>  <filename>  (1) 
O=c1ccn(-c2cccnc2)nc1N1CCN(c2ccccn2)CC1

$$$$
