
     RDKit          3D

 31 33  0  0  0  0  0  0  0  0999 V2000
    4.9142    1.8774   16.9939 H   0  0  0  0  0  0  0  0  0  0  0  0
    5.4117    1.3285   17.7892 C   0  0  0  0  0  0  0  0  0  0  0  0
    6.5950    0.7429   17.5364 N   0  0  0  0  0  0  0  0  0  0  0  0
    7.2088    0.0993   18.5516 C   0  0  0  0  0  0  0  0  0  0  0  0
    8.1705   -0.3664   18.3522 H   0  0  0  0  0  0  0  0  0  0  0  0
    6.6629   -0.0115   19.8543 C   0  0  0  0  0  0  0  0  0  0  0  0
    7.3359   -0.6795   20.9006 N   0  0  0  0  0  0  0  0  0  0  0  0
    8.6181   -0.2220   21.2286 C   0  0  0  0  0  0  0  0  0  0  0  0
    9.0654    0.6199   20.6970 H   0  0  0  0  0  0  0  0  0  0  0  0
    9.3536   -0.8493   22.2045 C   0  0  0  0  0  0  0  0  0  0  0  0
   10.7183   -0.3687   22.4511 C   0  0  0  0  0  0  0  0  0  0  0  0
   11.8019   -1.2417   22.3585 C   0  0  0  0  0  0  0  0  0  0  0  0
   11.6324   -2.2884   22.1211 H   0  0  0  0  0  0  0  0  0  0  0  0
   13.1060   -0.7652   22.5498 C   0  0  0  0  0  0  0  0  0  0  0  0
   13.9298   -1.4631   22.4851 H   0  0  0  0  0  0  0  0  0  0  0  0
   13.3406    0.5777   22.8702 C   0  0  0  0  0  0  0  0  0  0  0  0
   14.3494    0.9439   23.0482 H   0  0  0  0  0  0  0  0  0  0  0  0
   12.2635    1.4597   22.9558 C   0  0  0  0  0  0  0  0  0  0  0  0
   12.5476    3.2946   23.4004 Br  0  0  0  0  0  0  0  0  0  0  0  0
   10.9669    0.9857   22.7238 C   0  0  0  0  0  0  0  0  0  0  0  0
   10.1456    1.6892   22.7543 H   0  0  0  0  0  0  0  0  0  0  0  0
    8.7416   -1.9855   22.9154 C   0  0  0  0  0  0  0  0  0  0  0  0
    9.2871   -2.6400   23.7802 O   0  0  0  0  0  0  0  0  0  0  0  0
    7.4759   -2.3728   22.6156 N   0  0  0  0  0  0  0  0  0  0  0  0
    7.0215   -3.0819   23.1706 H   0  0  0  0  0  0  0  0  0  0  0  0
    6.7721   -1.7259   21.6460 C   0  0  0  0  0  0  0  0  0  0  0  0
    5.6987   -2.2357   21.3965 O   0  0  0  0  0  0  0  0  0  0  0  0
    5.4334    0.5953   20.1041 C   0  0  0  0  0  0  0  0  0  0  0  0
    4.9972    0.5574   21.1023 H   0  0  0  0  0  0  0  0  0  0  0  0
    4.8121    1.2732   19.0524 C   0  0  0  0  0  0  0  0  0  0  0  0
    3.8734    1.7858   19.2034 H   0  0  0  0  0  0  0  0  0  0  0  0
  1  2  1  0
  2  3  2  0
  3  4  1  0
  4  5  1  0
  4  6  2  0
  6  7  1  0
  7  8  1  0
  8  9  1  0
  8 10  2  0
 10 11  1  0
 11 12  2  0
 12 13  1  0
 12 14  1  0
 14 15  1  0
 14 16  2  0
 16 17  1  0
 16 18  1  0
 18 19  1  0
 18 20  2  0
 20 21  1  0
 10 22  1  0
 22 23  2  0
 22 24  1  0
 24 25  1  0
 24 26  1  0
 26 27  2  0
  6 28  1  0
 28 29  1  0
 28 30  2  0
 30 31  1  0
 30  2  1  0
 26  7  1  0
 20 11  1  0
M  END
>  <cnnaffinity>  (1) 
-5.2677

>  <filename>  (1) 
O=c1[nH]c(=O)n(-c2cccnc2)cc1-c1cccc(Br)c1

$$$$
