
     RDKit          3D

 33 35  0  0  0  0  0  0  0  0999 V2000
    4.9095    1.7878   16.9906 H   0  0  0  0  0  0  0  0  0  0  0  0
    5.3940    1.2988   17.8330 C   0  0  0  0  0  0  0  0  0  0  0  0
    6.5561    0.6815   17.5625 N   0  0  0  0  0  0  0  0  0  0  0  0
    7.1702    0.0648   18.5780 C   0  0  0  0  0  0  0  0  0  0  0  0
    8.1216   -0.4174   18.3693 H   0  0  0  0  0  0  0  0  0  0  0  0
    6.6492   -0.0003   19.8864 C   0  0  0  0  0  0  0  0  0  0  0  0
    7.3519   -0.6901   20.9517 N   0  0  0  0  0  0  0  0  0  0  0  0
    8.6223   -0.2061   21.3892 C   0  0  0  0  0  0  0  0  0  0  0  0
    9.0963    0.7790   20.8619 O   0  0  0  0  0  0  0  0  0  0  0  0
    9.2795   -0.9440   22.4232 C   0  0  0  0  0  0  0  0  0  0  0  0
   10.2253   -0.5454   22.7431 H   0  0  0  0  0  0  0  0  0  0  0  0
    8.6971   -2.0185   22.9676 C   0  0  0  0  0  0  0  0  0  0  0  0
    9.2573   -2.7738   23.9470 N   0  0  0  0  0  0  0  0  0  0  0  0
   10.2555   -2.6762   23.9755 H   0  0  0  0  0  0  0  0  0  0  0  0
    8.6693   -3.4226   25.0526 C   0  0  0  0  0  0  0  0  0  0  0  0
    9.3313   -4.5083   25.6494 C   0  0  0  0  0  0  0  0  0  0  0  0
   10.3002   -4.8282   25.2749 H   0  0  0  0  0  0  0  0  0  0  0  0
    8.7329   -5.2082   26.7026 C   0  0  0  0  0  0  0  0  0  0  0  0
    9.2194   -6.0643   27.1578 H   0  0  0  0  0  0  0  0  0  0  0  0
    7.4869   -4.7989   27.1839 C   0  0  0  0  0  0  0  0  0  0  0  0
    6.7351   -5.6561   28.4984 Cl  0  0  0  0  0  0  0  0  0  0  0  0
    6.8390   -3.6956   26.6288 C   0  0  0  0  0  0  0  0  0  0  0  0
    5.8752   -3.3799   27.0100 H   0  0  0  0  0  0  0  0  0  0  0  0
    7.4354   -3.0071   25.5727 C   0  0  0  0  0  0  0  0  0  0  0  0
    6.9587   -2.1339   25.1446 H   0  0  0  0  0  0  0  0  0  0  0  0
    7.4884   -2.4208   22.5138 N   0  0  0  0  0  0  0  0  0  0  0  0
    7.0484   -3.2527   22.8461 H   0  0  0  0  0  0  0  0  0  0  0  0
    6.7841   -1.8197   21.5136 C   0  0  0  0  0  0  0  0  0  0  0  0
    5.7353   -2.3158   21.1701 O   0  0  0  0  0  0  0  0  0  0  0  0
    5.4428    0.6442   20.1567 C   0  0  0  0  0  0  0  0  0  0  0  0
    5.0204    0.6147   21.1626 H   0  0  0  0  0  0  0  0  0  0  0  0
    4.8072    1.3163   19.1035 C   0  0  0  0  0  0  0  0  0  0  0  0
    3.8737    1.8456   19.2589 H   0  0  0  0  0  0  0  0  0  0  0  0
  1  2  1  0
  2  3  2  0
  3  4  1  0
  4  5  1  0
  4  6  2  0
  6  7  1  0
  7  8  1  0
  8  9  2  0
  8 10  1  0
 10 11  1  0
 10 12  2  0
 12 13  1  0
 13 14  1  0
 13 15  1  0
 15 16  2  0
 16 17  1  0
 16 18  1  0
 18 19  1  0
 18 20  2  0
 20 21  1  0
 20 22  1  0
 22 23  1  0
 22 24  2  0
 24 25  1  0
 12 26  1  0
 26 27  1  0
 26 28  1  0
 28 29  2  0
  6 30  1  0
 30 31  1  0
 30 32  2  0
 32 33  1  0
 32  2  1  0
 28  7  1  0
 24 15  1  0
M  END
>  <cnnaffinity>  (1) 
-5.52084

>  <filename>  (1) 
O=c1cc(Nc2ccc(Cl)cc2)[nH]c(=O)n1-c1cccnc1

$$$$
