
     RDKit          3D

 29 31  0  0  0  0  0  0  0  0999 V2000
   13.3562    0.5738   25.6782 H   0  0  0  0  0  0  0  0  0  0  0  0
   12.3662    0.3624   25.2850 C   0  0  0  0  0  0  0  0  0  0  0  0
   12.2270    0.1030   23.9442 N   0  0  0  0  0  0  0  0  0  0  0  0
   10.9759   -0.1456   23.6961 C   0  0  0  0  0  0  0  0  0  0  0  0
   10.5917   -0.4913   22.4429 N   0  0  0  0  0  0  0  0  0  0  0  0
   11.3555   -0.3596   21.7970 H   0  0  0  0  0  0  0  0  0  0  0  0
    9.3250   -0.9782   22.0883 C   0  0  0  0  0  0  0  0  0  0  0  0
    8.7660   -2.0841   22.7941 C   0  0  0  0  0  0  0  0  0  0  0  0
    9.3877   -2.5450   23.5616 H   0  0  0  0  0  0  0  0  0  0  0  0
    7.4865   -2.4700   22.5426 C   0  0  0  0  0  0  0  0  0  0  0  0
    6.9808   -3.2323   23.1141 H   0  0  0  0  0  0  0  0  0  0  0  0
    6.6598   -1.8401   21.5200 C   0  0  0  0  0  0  0  0  0  0  0  0
    5.5310   -2.2070   21.2576 O   0  0  0  0  0  0  0  0  0  0  0  0
    7.3074   -0.7595   20.8219 N   0  0  0  0  0  0  0  0  0  0  0  0
    6.6219   -0.0116   19.8097 C   0  0  0  0  0  0  0  0  0  0  0  0
    7.1600    0.0921   18.5138 C   0  0  0  0  0  0  0  0  0  0  0  0
    8.1039   -0.4029   18.2954 H   0  0  0  0  0  0  0  0  0  0  0  0
    6.5647    0.7365   17.5066 N   0  0  0  0  0  0  0  0  0  0  0  0
    5.4009    1.3505   17.7722 C   0  0  0  0  0  0  0  0  0  0  0  0
    4.9358    1.8718   16.9372 H   0  0  0  0  0  0  0  0  0  0  0  0
    4.8038    1.3355   19.0372 C   0  0  0  0  0  0  0  0  0  0  0  0
    3.8773    1.8696   19.1912 H   0  0  0  0  0  0  0  0  0  0  0  0
    5.4202    0.6456   20.0864 C   0  0  0  0  0  0  0  0  0  0  0  0
    5.0041    0.6115   21.0935 H   0  0  0  0  0  0  0  0  0  0  0  0
    8.5885   -0.3551   21.1403 C   0  0  0  0  0  0  0  0  0  0  0  0
    8.9591    0.5380   20.6529 H   0  0  0  0  0  0  0  0  0  0  0  0
    9.8739    0.0300   25.0367 S   0  0  0  0  0  0  0  0  0  0  0  0
   11.2428    0.3192   26.0426 C   0  0  0  0  0  0  0  0  0  0  0  0
   11.1367    0.3929   27.1173 H   0  0  0  0  0  0  0  0  0  0  0  0
  1  2  1  0
  2  3  1  0
  3  4  2  0
  4  5  1  0
  5  6  1  0
  5  7  1  0
  7  8  1  0
  8  9  1  0
  8 10  2  0
 10 11  1  0
 10 12  1  0
 12 13  2  0
 12 14  1  0
 14 15  1  0
 15 16  2  0
 16 17  1  0
 16 18  1  0
 18 19  2  0
 19 20  1  0
 19 21  1  0
 21 22  1  0
 21 23  2  0
 23 24  1  0
 14 25  1  0
 25 26  1  0
  4 27  1  0
 27 28  1  0
 28 29  1  0
 28  2  2  0
 25  7  2  0
 23 15  1  0
M  END
>  <cnnaffinity>  (1) 
-4.87915

>  <filename>  (1) 
O=c1ccc(Nc2nccs2)cn1-c1cccnc1

$$$$
