
     RDKit          3D

 28 30  0  0  0  0  0  0  0  0999 V2000
    4.9356    1.7828   17.0095 H   0  0  0  0  0  0  0  0  0  0  0  0
    5.4123    1.2946   17.8518 C   0  0  0  0  0  0  0  0  0  0  0  0
    6.5882    0.6961   17.5984 N   0  0  0  0  0  0  0  0  0  0  0  0
    7.1986    0.0843   18.6218 C   0  0  0  0  0  0  0  0  0  0  0  0
    8.1424   -0.4161   18.4039 H   0  0  0  0  0  0  0  0  0  0  0  0
    6.6607    0.0392   19.9318 C   0  0  0  0  0  0  0  0  0  0  0  0
    7.2753   -0.6753   21.0161 N   0  0  0  0  0  0  0  0  0  0  0  0
    7.7324   -0.2064   22.2546 C   0  0  0  0  0  0  0  0  0  0  0  0
    7.4334    1.1235   22.8376 C   0  0  0  0  0  0  0  0  0  0  0  0
    7.6157    2.2804   22.0664 C   0  0  0  0  0  0  0  0  0  0  0  0
    7.9244    2.1582   21.0330 H   0  0  0  0  0  0  0  0  0  0  0  0
    7.3624    3.5398   22.6063 C   0  0  0  0  0  0  0  0  0  0  0  0
    7.5212    4.4151   21.9848 H   0  0  0  0  0  0  0  0  0  0  0  0
    6.9098    3.6694   23.9231 C   0  0  0  0  0  0  0  0  0  0  0  0
    6.7245    4.6452   24.3606 H   0  0  0  0  0  0  0  0  0  0  0  0
    6.7068    2.5135   24.6847 C   0  0  0  0  0  0  0  0  0  0  0  0
    6.1562    2.6647   26.3298 Cl  0  0  0  0  0  0  0  0  0  0  0  0
    6.9591    1.2456   24.1623 C   0  0  0  0  0  0  0  0  0  0  0  0
    6.7740    0.3723   24.7857 H   0  0  0  0  0  0  0  0  0  0  0  0
    8.3741   -1.1307   22.9048 N   0  0  0  0  0  0  0  0  0  0  0  0
    8.2498   -2.2480   22.1163 N   0  0  0  0  0  0  0  0  0  0  0  0
    8.4243   -3.1742   22.4712 H   0  0  0  0  0  0  0  0  0  0  0  0
    7.3736   -2.0829   21.0810 C   0  0  0  0  0  0  0  0  0  0  0  0
    6.7892   -2.9281   20.4371 O   0  0  0  0  0  0  0  0  0  0  0  0
    5.4430    0.6731   20.1744 C   0  0  0  0  0  0  0  0  0  0  0  0
    5.0427    0.6406   21.1909 H   0  0  0  0  0  0  0  0  0  0  0  0
    4.8025    1.3117   19.1117 C   0  0  0  0  0  0  0  0  0  0  0  0
    3.8523    1.8149   19.2549 H   0  0  0  0  0  0  0  0  0  0  0  0
  1  2  1  0
  2  3  2  0
  3  4  1  0
  4  5  1  0
  4  6  2  0
  6  7  1  0
  7  8  1  0
  8  9  1  0
  9 10  2  0
 10 11  1  0
 10 12  1  0
 12 13  1  0
 12 14  2  0
 14 15  1  0
 14 16  1  0
 16 17  1  0
 16 18  2  0
 18 19  1  0
  8 20  2  0
 20 21  1  0
 21 22  1  0
 21 23  1  0
 23 24  2  0
  6 25  1  0
 25 26  1  0
 25 27  2  0
 27 28  1  0
 27  2  1  0
 23  7  1  0
 18  9  1  0
M  END
>  <cnnaffinity>  (1) 
-4.83849

>  <filename>  (1) 
O=c1[nH]nc(-c2cccc(Cl)c2)n1-c1cccnc1

$$$$
