
     RDKit          3D

 31 33  0  0  0  0  0  0  0  0999 V2000
    4.9138    1.7770   17.0000 H   0  0  0  0  0  0  0  0  0  0  0  0
    5.4022    1.2931   17.8435 C   0  0  0  0  0  0  0  0  0  0  0  0
    6.5646    0.6731   17.5837 N   0  0  0  0  0  0  0  0  0  0  0  0
    7.1731    0.0512   18.5999 C   0  0  0  0  0  0  0  0  0  0  0  0
    8.1245   -0.4266   18.3818 H   0  0  0  0  0  0  0  0  0  0  0  0
    6.6437   -0.0135   19.9020 C   0  0  0  0  0  0  0  0  0  0  0  0
    7.3310   -0.7150   20.9443 N   0  0  0  0  0  0  0  0  0  0  0  0
    6.5679   -1.6084   21.6581 N   0  0  0  0  0  0  0  0  0  0  0  0
    7.1401   -2.2857   22.6179 C   0  0  0  0  0  0  0  0  0  0  0  0
    6.2886   -3.2839   23.3678 C   0  0  2  0  0  0  0  0  0  0  0  0
    5.2801   -3.2419   22.9465 H   0  0  0  0  0  0  0  0  0  0  0  0
    6.2030   -3.0126   24.8799 C   0  0  0  0  0  0  0  0  0  0  0  0
    5.3501   -2.3678   25.1290 H   0  0  0  0  0  0  0  0  0  0  0  0
    7.1155   -2.5417   25.2801 H   0  0  0  0  0  0  0  0  0  0  0  0
    6.0258   -4.2669   25.5045 O   0  0  0  0  0  0  0  0  0  0  0  0
    6.2782   -5.3406   24.6137 C   0  0  0  0  0  0  0  0  0  0  0  0
    7.0060   -6.0228   25.0721 H   0  0  0  0  0  0  0  0  0  0  0  0
    5.3414   -5.8890   24.4462 H   0  0  0  0  0  0  0  0  0  0  0  0
    6.8051   -4.7334   23.3153 C   0  0  0  0  0  0  0  0  0  0  0  0
    7.9012   -4.7674   23.2964 H   0  0  0  0  0  0  0  0  0  0  0  0
    6.4323   -5.2661   22.4371 H   0  0  0  0  0  0  0  0  0  0  0  0
    8.5277   -2.1059   22.9656 C   0  0  0  0  0  0  0  0  0  0  0  0
    8.9740   -2.6861   23.7748 H   0  0  0  0  0  0  0  0  0  0  0  0
    9.2763   -1.1971   22.2837 C   0  0  0  0  0  0  0  0  0  0  0  0
   10.3193   -0.9875   22.4856 H   0  0  0  0  0  0  0  0  0  0  0  0
    8.7126   -0.3989   21.2084 C   0  0  0  0  0  0  0  0  0  0  0  0
    9.3261    0.4429   20.5704 O   0  0  0  0  0  0  0  0  0  0  0  0
    5.4371    0.6432   20.1653 C   0  0  0  0  0  0  0  0  0  0  0  0
    5.0162    0.6116   21.1703 H   0  0  0  0  0  0  0  0  0  0  0  0
    4.8089    1.3155   19.1122 C   0  0  0  0  0  0  0  0  0  0  0  0
    3.8735    1.8461   19.2645 H   0  0  0  0  0  0  0  0  0  0  0  0
  1  2  1  0
  2  3  2  0
  3  4  1  0
  4  5  1  0
  4  6  2  0
  6  7  1  0
  7  8  1  0
  8  9  2  0
  9 10  1  0
 10 11  1  6
 10 12  1  0
 12 13  1  0
 12 14  1  0
 12 15  1  0
 15 16  1  0
 16 17  1  0
 16 18  1  0
 16 19  1  0
 19 20  1  0
 19 21  1  0
  9 22  1  0
 22 23  1  0
 22 24  2  0
 24 25  1  0
 24 26  1  0
 26 27  2  0
  6 28  1  0
 28 29  1  0
 28 30  2  0
 30 31  1  0
 30  2  1  0
 26  7  1  0
 19 10  1  0
M  END
>  <cnnaffinity>  (1) 
-4.97403

>  <filename>  (1) 
O=c1ccc([C@H]2CCOC2)nn1-c1cccnc1

$$$$
