
     RDKit          3D

 30 32  0  0  0  0  0  0  0  0999 V2000
    4.9135    1.7758   17.0007 H   0  0  0  0  0  0  0  0  0  0  0  0
    5.4033    1.2899   17.8432 C   0  0  0  0  0  0  0  0  0  0  0  0
    6.5697    0.6726   17.5797 N   0  0  0  0  0  0  0  0  0  0  0  0
    7.1979    0.0742   18.5990 C   0  0  0  0  0  0  0  0  0  0  0  0
    8.1373   -0.4277   18.3824 H   0  0  0  0  0  0  0  0  0  0  0  0
    6.6832    0.0335   19.9070 C   0  0  0  0  0  0  0  0  0  0  0  0
    7.3872   -0.6525   20.9484 N   0  0  0  0  0  0  0  0  0  0  0  0
    8.7202   -0.3455   21.0683 N   0  0  0  0  0  0  0  0  0  0  0  0
    9.4072   -0.9116   22.0277 C   0  0  0  0  0  0  0  0  0  0  0  0
   10.8357   -0.4794   22.2139 C   0  0  0  0  0  0  0  0  0  0  0  0
   11.2477   -0.1932   21.2444 H   0  0  0  0  0  0  0  0  0  0  0  0
   11.4211   -1.3339   22.5772 H   0  0  0  0  0  0  0  0  0  0  0  0
   10.9594    0.6580   23.2129 C   0  0  0  0  0  0  0  0  0  0  0  0
   10.3761    1.5456   22.9785 H   0  0  0  0  0  0  0  0  0  0  0  0
   11.1262    0.3390   24.6691 C   0  0  0  0  0  0  0  0  0  0  0  0
   11.1632   -0.7110   24.9447 H   0  0  0  0  0  0  0  0  0  0  0  0
   10.6663    0.9888   25.4040 H   0  0  0  0  0  0  0  0  0  0  0  0
   12.2767    0.8837   23.8805 C   0  0  0  0  0  0  0  0  0  0  0  0
   12.5826    1.9042   24.0747 H   0  0  0  0  0  0  0  0  0  0  0  0
   13.0805    0.2018   23.6250 H   0  0  0  0  0  0  0  0  0  0  0  0
    8.8231   -1.8937   22.9140 C   0  0  0  0  0  0  0  0  0  0  0  0
    9.4359   -2.3472   23.6954 H   0  0  0  0  0  0  0  0  0  0  0  0
    7.5204   -2.2421   22.7612 C   0  0  0  0  0  0  0  0  0  0  0  0
    7.0056   -2.9793   23.3659 H   0  0  0  0  0  0  0  0  0  0  0  0
    6.6888   -1.6490   21.7219 C   0  0  0  0  0  0  0  0  0  0  0  0
    5.5375   -1.9747   21.4876 O   0  0  0  0  0  0  0  0  0  0  0  0
    5.4518    0.6484   20.1665 C   0  0  0  0  0  0  0  0  0  0  0  0
    5.0124    0.6142   21.1631 H   0  0  0  0  0  0  0  0  0  0  0  0
    4.8141    1.3093   19.1119 C   0  0  0  0  0  0  0  0  0  0  0  0
    3.8778    1.8396   19.2650 H   0  0  0  0  0  0  0  0  0  0  0  0
  1  2  1  0
  2  3  2  0
  3  4  1  0
  4  5  1  0
  4  6  2  0
  6  7  1  0
  7  8  1  0
  8  9  2  0
  9 10  1  0
 10 11  1  0
 10 12  1  0
 10 13  1  0
 13 14  1  0
 13 15  1  0
 15 16  1  0
 15 17  1  0
 15 18  1  0
 18 19  1  0
 18 20  1  0
  9 21  1  0
 21 22  1  0
 21 23  2  0
 23 24  1  0
 23 25  1  0
 25 26  2  0
  6 27  1  0
 27 28  1  0
 27 29  2  0
 29 30  1  0
 29  2  1  0
 25  7  1  0
 18 13  1  0
M  END
>  <cnnaffinity>  (1) 
-5.26104

>  <filename>  (1) 
O=c1ccc(CC2CC2)nn1-c1cccnc1

$$$$
