
     RDKit          3D

 32 35  0  0  0  0  0  0  0  0999 V2000
    5.1286    1.8057   17.0665 H   0  0  0  0  0  0  0  0  0  0  0  0
    5.5258    1.2511   17.9144 C   0  0  0  0  0  0  0  0  0  0  0  0
    6.6617    0.5758   17.6825 N   0  0  0  0  0  0  0  0  0  0  0  0
    7.1836   -0.1003   18.7076 C   0  0  0  0  0  0  0  0  0  0  0  0
    8.0966   -0.6568   18.5009 H   0  0  0  0  0  0  0  0  0  0  0  0
    6.6217   -0.1427   19.9874 C   0  0  0  0  0  0  0  0  0  0  0  0
    7.3464   -0.8911   21.0455 C   0  0  0  0  0  0  0  0  0  0  0  0
    6.6277   -1.5756   21.8792 N   0  0  0  0  0  0  0  0  0  0  0  0
    7.2464   -2.3056   22.8835 N   0  0  0  0  0  0  0  0  0  0  0  0
    6.3942   -2.9880   23.7447 C   0  0  0  0  0  0  0  0  0  0  0  0
    5.1298   -3.1724   23.5622 N   0  0  0  0  0  0  0  0  0  0  0  0
    4.6966   -3.7069   24.7659 C   0  0  0  0  0  0  0  0  0  0  0  0
    3.4075   -3.9768   25.2536 C   0  0  0  0  0  0  0  0  0  0  0  0
    2.5567   -3.8377   24.5922 H   0  0  0  0  0  0  0  0  0  0  0  0
    3.2813   -4.3799   26.5857 C   0  0  0  0  0  0  0  0  0  0  0  0
    2.2828   -4.5590   26.9855 H   0  0  0  0  0  0  0  0  0  0  0  0
    4.4197   -4.5561   27.4053 C   0  0  0  0  0  0  0  0  0  0  0  0
    4.2817   -4.9077   28.4265 H   0  0  0  0  0  0  0  0  0  0  0  0
    5.7152   -4.3052   26.9235 C   0  0  0  0  0  0  0  0  0  0  0  0
    6.6113   -4.4421   27.5232 H   0  0  0  0  0  0  0  0  0  0  0  0
    5.8043   -3.8680   25.6068 C   0  0  0  0  0  0  0  0  0  0  0  0
    6.9019   -3.4410   24.9251 O   0  0  0  0  0  0  0  0  0  0  0  0
    8.6763   -2.3232   23.1254 C   0  0  0  0  0  0  0  0  0  0  0  0
    9.2048   -2.9254   24.0274 O   0  0  0  0  0  0  0  0  0  0  0  0
    9.4144   -1.5397   22.1351 C   0  0  0  0  0  0  0  0  0  0  0  0
   10.4872   -1.5691   22.2819 H   0  0  0  0  0  0  0  0  0  0  0  0
    8.7871   -0.8653   21.1344 C   0  0  0  0  0  0  0  0  0  0  0  0
    9.3354   -0.2833   20.4056 H   0  0  0  0  0  0  0  0  0  0  0  0
    5.4057    0.5213   20.2089 C   0  0  0  0  0  0  0  0  0  0  0  0
    4.9210    0.4567   21.1863 H   0  0  0  0  0  0  0  0  0  0  0  0
    4.8589    1.2496   19.1476 C   0  0  0  0  0  0  0  0  0  0  0  0
    3.9353    1.8120   19.2527 H   0  0  0  0  0  0  0  0  0  0  0  0
  1  2  1  0
  2  3  2  0
  3  4  1  0
  4  5  1  0
  4  6  2  0
  6  7  1  0
  7  8  2  0
  8  9  1  0
  9 10  1  0
 10 11  2  0
 11 12  1  0
 12 13  2  0
 13 14  1  0
 13 15  1  0
 15 16  1  0
 15 17  2  0
 17 18  1  0
 17 19  1  0
 19 20  1  0
 19 21  2  0
 21 22  1  0
  9 23  1  0
 23 24  2  0
 23 25  1  0
 25 26  1  0
 25 27  2  0
 27 28  1  0
  6 29  1  0
 29 30  1  0
 29 31  2  0
 31 32  1  0
 31  2  1  0
 27  7  1  0
 22 10  1  0
 21 12  1  0
M  END
>  <cnnaffinity>  (1) 
-5.19218

>  <filename>  (1) 
O=c1ccc(-c2cccnc2)nn1-c1nc2ccccc2o1

$$$$
