
     RDKit          3D

 31 33  0  0  0  0  0  0  0  0999 V2000
    4.9121    1.7891   16.9884 H   0  0  0  0  0  0  0  0  0  0  0  0
    5.3933    1.2998   17.8285 C   0  0  0  0  0  0  0  0  0  0  0  0
    6.5518    0.6800   17.5570 N   0  0  0  0  0  0  0  0  0  0  0  0
    7.1573    0.0685   18.5772 C   0  0  0  0  0  0  0  0  0  0  0  0
    8.1102   -0.4129   18.3722 H   0  0  0  0  0  0  0  0  0  0  0  0
    6.6431    0.0026   19.8866 C   0  0  0  0  0  0  0  0  0  0  0  0
    7.3499   -0.7132   20.9631 C   0  0  0  0  0  0  0  0  0  0  0  0
    6.6909   -1.6487   21.7335 C   0  0  0  0  0  0  0  0  0  0  0  0
    5.6316   -1.8379   21.5426 H   0  0  0  0  0  0  0  0  0  0  0  0
    7.3445   -2.3709   22.7730 C   0  0  0  0  0  0  0  0  0  0  0  0
    6.6113   -3.3784   23.5836 C   0  0  0  0  0  0  0  0  0  0  0  0
    6.8114   -3.4570   24.9710 C   0  0  0  0  0  0  0  0  0  0  0  0
    7.4927   -2.7581   25.4490 H   0  0  0  0  0  0  0  0  0  0  0  0
    6.1216   -4.4012   25.7297 C   0  0  0  0  0  0  0  0  0  0  0  0
    6.2972   -4.4548   26.7982 H   0  0  0  0  0  0  0  0  0  0  0  0
    5.2253   -5.2838   25.1196 C   0  0  0  0  0  0  0  0  0  0  0  0
    4.6890   -6.0265   25.6998 H   0  0  0  0  0  0  0  0  0  0  0  0
    5.0251   -5.1962   23.7388 C   0  0  0  0  0  0  0  0  0  0  0  0
    3.9087   -6.2835   22.9699 Cl  0  0  0  0  0  0  0  0  0  0  0  0
    5.6980   -4.2514   22.9676 C   0  0  0  0  0  0  0  0  0  0  0  0
    5.5344   -4.2118   21.8940 H   0  0  0  0  0  0  0  0  0  0  0  0
    8.6662   -2.0984   23.0095 C   0  0  0  0  0  0  0  0  0  0  0  0
    9.2410   -2.6128   23.7808 H   0  0  0  0  0  0  0  0  0  0  0  0
    9.3172   -1.1698   22.2524 N   0  0  0  0  0  0  0  0  0  0  0  0
   10.2800   -0.9037   22.3734 H   0  0  0  0  0  0  0  0  0  0  0  0
    8.7706   -0.4076   21.2197 C   0  0  0  0  0  0  0  0  0  0  0  0
    9.5123    0.3920   20.6701 O   0  0  0  0  0  0  0  0  0  0  0  0
    5.4240    0.6457   20.1461 C   0  0  0  0  0  0  0  0  0  0  0  0
    5.0119    0.6329   21.1615 H   0  0  0  0  0  0  0  0  0  0  0  0
    4.7992    1.3199   19.0978 C   0  0  0  0  0  0  0  0  0  0  0  0
    3.8665    1.8514   19.2528 H   0  0  0  0  0  0  0  0  0  0  0  0
  1  2  1  0
  2  3  2  0
  3  4  1  0
  4  5  1  0
  4  6  2  0
  6  7  1  0
  7  8  2  0
  8  9  1  0
  8 10  1  0
 10 11  1  0
 11 12  2  0
 12 13  1  0
 12 14  1  0
 14 15  1  0
 14 16  2  0
 16 17  1  0
 16 18  1  0
 18 19  1  0
 18 20  2  0
 20 21  1  0
 10 22  2  0
 22 23  1  0
 22 24  1  0
 24 25  1  0
 24 26  1  0
 26 27  2  0
  6 28  1  0
 28 29  1  0
 28 30  2  0
 30 31  1  0
 30  2  1  0
 26  7  1  0
 20 11  1  0
M  END
>  <cnnaffinity>  (1) 
-5.38034

>  <filename>  (1) 
O=c1[nH]cc(-c2cccc(Cl)c2)cc1-c1cccnc1

$$$$
