
     RDKit          3D

 32 34  0  0  0  0  0  0  0  0999 V2000
    4.9328    1.8394   16.9359 H   0  0  0  0  0  0  0  0  0  0  0  0
    5.3915    1.3215   17.7801 C   0  0  0  0  0  0  0  0  0  0  0  0
    6.5452    0.6783   17.5355 N   0  0  0  0  0  0  0  0  0  0  0  0
    7.1247    0.0523   18.5682 C   0  0  0  0  0  0  0  0  0  0  0  0
    8.0572   -0.4633   18.3450 H   0  0  0  0  0  0  0  0  0  0  0  0
    6.6182    0.0129   19.8831 C   0  0  0  0  0  0  0  0  0  0  0  0
    7.3938   -0.6807   20.9230 C   0  0  0  0  0  0  0  0  0  0  0  0
    8.7180   -0.9706   20.9813 C   0  0  0  0  0  0  0  0  0  0  0  0
    9.5164   -0.7350   20.2981 H   0  0  0  0  0  0  0  0  0  0  0  0
    8.9741   -1.6581   22.1576 N   0  0  0  0  0  0  0  0  0  0  0  0
   10.2774   -2.0867   22.6575 C   0  0  0  0  0  0  0  0  0  0  0  0
   10.7682   -2.7390   21.9241 H   0  0  0  0  0  0  0  0  0  0  0  0
   10.1066   -2.6892   23.5540 H   0  0  0  0  0  0  0  0  0  0  0  0
   11.2161   -0.9348   22.9671 C   0  0  0  0  0  0  0  0  0  0  0  0
   12.2921   -0.6643   22.1031 C   0  0  0  0  0  0  0  0  0  0  0  0
   12.4027   -1.2626   21.1972 H   0  0  0  0  0  0  0  0  0  0  0  0
   13.2024    0.3559   22.3805 C   0  0  0  0  0  0  0  0  0  0  0  0
   14.0635    0.4932   21.7363 H   0  0  0  0  0  0  0  0  0  0  0  0
   12.9981    1.1879   23.4830 C   0  0  0  0  0  0  0  0  0  0  0  0
   13.6636    2.0215   23.6821 H   0  0  0  0  0  0  0  0  0  0  0  0
   11.9374    0.9467   24.3547 C   0  0  0  0  0  0  0  0  0  0  0  0
   11.7569    1.6000   25.2030 H   0  0  0  0  0  0  0  0  0  0  0  0
   11.0877   -0.1374   24.1195 C   0  0  0  0  0  0  0  0  0  0  0  0
    9.8857   -0.4641   25.3339 Cl  0  0  0  0  0  0  0  0  0  0  0  0
    7.7871   -1.8298   22.8634 C   0  0  0  0  0  0  0  0  0  0  0  0
    7.6033   -2.4418   23.8932 O   0  0  0  0  0  0  0  0  0  0  0  0
    6.8453   -1.1824   22.0955 N   0  0  0  0  0  0  0  0  0  0  0  0
    5.8873   -1.2431   22.3861 H   0  0  0  0  0  0  0  0  0  0  0  0
    5.4024    0.6870   20.1111 C   0  0  0  0  0  0  0  0  0  0  0  0
    4.9623    0.7278   21.1094 H   0  0  0  0  0  0  0  0  0  0  0  0
    4.7843    1.3423   19.0425 C   0  0  0  0  0  0  0  0  0  0  0  0
    3.8465    1.8741   19.1686 H   0  0  0  0  0  0  0  0  0  0  0  0
  1  2  1  0
  2  3  2  0
  3  4  1  0
  4  5  1  0
  4  6  2  0
  6  7  1  0
  7  8  2  0
  8  9  1  0
  8 10  1  0
 10 11  1  0
 11 12  1  0
 11 13  1  0
 11 14  1  0
 14 15  2  0
 15 16  1  0
 15 17  1  0
 17 18  1  0
 17 19  2  0
 19 20  1  0
 19 21  1  0
 21 22  1  0
 21 23  2  0
 23 24  1  0
 10 25  1  0
 25 26  2  0
 25 27  1  0
 27 28  1  0
  6 29  1  0
 29 30  1  0
 29 31  2  0
 31 32  1  0
 31  2  1  0
 27  7  1  0
 23 14  1  0
M  END
>  <cnnaffinity>  (1) 
-5.79483

>  <filename>  (1) 
O=c1[nH]c(-c2cccnc2)cn1Cc1ccccc1Cl

$$$$
