
     RDKit          3D

 33 36  0  0  0  0  0  0  0  0999 V2000
    4.9200    1.8000   16.9705 H   0  0  0  0  0  0  0  0  0  0  0  0
    5.3934    1.3029   17.8168 C   0  0  0  0  0  0  0  0  0  0  0  0
    6.5586    0.6845   17.5610 N   0  0  0  0  0  0  0  0  0  0  0  0
    7.1712    0.0723   18.5826 C   0  0  0  0  0  0  0  0  0  0  0  0
    8.1080   -0.4229   18.3315 H   0  0  0  0  0  0  0  0  0  0  0  0
    6.6641    0.0210   19.8951 C   0  0  0  0  0  0  0  0  0  0  0  0
    7.3377   -0.6968   20.9768 C   0  0  0  0  0  0  0  0  0  0  0  0
    6.8204   -1.2276   22.1008 C   0  0  0  0  0  0  0  0  0  0  0  0
    5.7975   -1.3038   22.3888 H   0  0  0  0  0  0  0  0  0  0  0  0
    7.8312   -1.7981   22.8607 N   0  0  0  0  0  0  0  0  0  0  0  0
    7.6523   -2.4604   24.1107 C   0  0  0  0  0  0  0  0  0  0  0  0
    6.6686   -1.9913   25.0237 C   0  0  0  0  0  0  0  0  0  0  0  0
    6.0653   -1.1259   24.7509 H   0  0  0  0  0  0  0  0  0  0  0  0
    6.4861   -2.6131   26.2549 C   0  0  0  0  0  0  0  0  0  0  0  0
    5.7357   -2.2511   26.9514 H   0  0  0  0  0  0  0  0  0  0  0  0
    7.3007   -3.7256   26.5561 C   0  0  0  0  0  0  0  0  0  0  0  0
    8.2726   -4.2109   25.6471 C   0  0  0  0  0  0  0  0  0  0  0  0
    8.4451   -3.5656   24.4101 C   0  0  0  0  0  0  0  0  0  0  0  0
    9.1932   -3.8815   23.6934 H   0  0  0  0  0  0  0  0  0  0  0  0
    8.9111   -5.3325   26.2758 C   0  0  0  0  0  0  0  0  0  0  0  0
    9.7088   -5.9269   25.8505 H   0  0  0  0  0  0  0  0  0  0  0  0
    8.3281   -5.4930   27.4963 C   0  0  0  0  0  0  0  0  0  0  0  0
    8.5207   -6.2312   28.2655 H   0  0  0  0  0  0  0  0  0  0  0  0
    7.3578   -4.5254   27.6711 N   0  0  0  0  0  0  0  0  0  0  0  0
    6.7652   -4.4230   28.4749 H   0  0  0  0  0  0  0  0  0  0  0  0
    9.0428   -1.6321   22.1742 C   0  0  0  0  0  0  0  0  0  0  0  0
   10.1729   -1.9641   22.4682 O   0  0  0  0  0  0  0  0  0  0  0  0
    8.6939   -0.9793   21.0172 N   0  0  0  0  0  0  0  0  0  0  0  0
    9.4392   -0.6838   20.4175 H   0  0  0  0  0  0  0  0  0  0  0  0
    5.4368    0.6655   20.1343 C   0  0  0  0  0  0  0  0  0  0  0  0
    5.0052    0.6599   21.1353 H   0  0  0  0  0  0  0  0  0  0  0  0
    4.7974    1.3207   19.0837 C   0  0  0  0  0  0  0  0  0  0  0  0
    3.8634    1.8514   19.2324 H   0  0  0  0  0  0  0  0  0  0  0  0
  1  2  1  0
  2  3  2  0
  3  4  1  0
  4  5  1  0
  4  6  2  0
  6  7  1  0
  7  8  2  0
  8  9  1  0
  8 10  1  0
 10 11  1  0
 11 12  2  0
 12 13  1  0
 12 14  1  0
 14 15  1  0
 14 16  2  0
 16 17  1  0
 17 18  2  0
 18 19  1  0
 17 20  1  0
 20 21  1  0
 20 22  2  0
 22 23  1  0
 22 24  1  0
 24 25  1  0
 10 26  1  0
 26 27  2  0
 26 28  1  0
 28 29  1  0
  6 30  1  0
 30 31  1  0
 30 32  2  0
 32 33  1  0
 32  2  1  0
 28  7  1  0
 18 11  1  0
 24 16  1  0
M  END
>  <cnnaffinity>  (1) 
-5.39485

>  <filename>  (1) 
O=c1[nH]c(-c2cccnc2)cn1-c1ccc2[nH]ccc2c1

$$$$
