
     RDKit          3D

 31 33  0  0  0  0  0  0  0  0999 V2000
    5.0364    1.8411   16.8534 H   0  0  0  0  0  0  0  0  0  0  0  0
    5.4530    1.3228   17.7168 C   0  0  0  0  0  0  0  0  0  0  0  0
    6.5937    0.6458   17.5067 N   0  0  0  0  0  0  0  0  0  0  0  0
    7.1399    0.0276   18.5639 C   0  0  0  0  0  0  0  0  0  0  0  0
    8.0564   -0.5293   18.3690 H   0  0  0  0  0  0  0  0  0  0  0  0
    6.6048    0.0376   19.8682 C   0  0  0  0  0  0  0  0  0  0  0  0
    7.3220   -0.6218   21.0017 C   0  0  0  0  0  0  0  0  0  0  0  0
    8.6936   -0.3473   21.2728 C   0  0  0  0  0  0  0  0  0  0  0  0
    9.2256    0.3575   20.6394 H   0  0  0  0  0  0  0  0  0  0  0  0
    9.3815   -0.9436   22.3078 C   0  0  0  0  0  0  0  0  0  0  0  0
   10.8524   -0.7454   22.4252 C   0  0  0  0  0  0  0  0  0  0  0  0
   11.7701   -1.8103   22.3578 C   0  0  0  0  0  0  0  0  0  0  0  0
   11.3055   -3.0545   22.5108 F   0  0  0  0  0  0  0  0  0  0  0  0
   13.1385   -1.6388   22.1455 C   0  0  0  0  0  0  0  0  0  0  0  0
   13.7599   -2.5230   22.0387 H   0  0  0  0  0  0  0  0  0  0  0  0
   13.6513   -0.3434   22.1080 C   0  0  0  0  0  0  0  0  0  0  0  0
   14.7126   -0.1778   21.9445 H   0  0  0  0  0  0  0  0  0  0  0  0
   12.8088    0.7535   22.2952 C   0  0  0  0  0  0  0  0  0  0  0  0
   13.1908    1.7683   22.3226 H   0  0  0  0  0  0  0  0  0  0  0  0
   11.4434    0.5325   22.4559 C   0  0  0  0  0  0  0  0  0  0  0  0
   10.6526    1.6056   22.6316 F   0  0  0  0  0  0  0  0  0  0  0  0
    8.6552   -1.8372   23.2323 C   0  0  0  0  0  0  0  0  0  0  0  0
    9.0270   -2.3589   24.2642 O   0  0  0  0  0  0  0  0  0  0  0  0
    7.3378   -2.0969   22.8428 N   0  0  0  0  0  0  0  0  0  0  0  0
    6.9306   -2.7088   23.5354 H   0  0  0  0  0  0  0  0  0  0  0  0
    6.6754   -1.5214   21.8051 C   0  0  0  0  0  0  0  0  0  0  0  0
    5.6443   -1.8160   21.6319 H   0  0  0  0  0  0  0  0  0  0  0  0
    5.3824    0.7094   20.0456 C   0  0  0  0  0  0  0  0  0  0  0  0
    4.8985    0.7304   21.0233 H   0  0  0  0  0  0  0  0  0  0  0  0
    4.8067    1.3722   18.9578 C   0  0  0  0  0  0  0  0  0  0  0  0
    3.8819    1.9326   19.0579 H   0  0  0  0  0  0  0  0  0  0  0  0
  1  2  1  0
  2  3  2  0
  3  4  1  0
  4  5  1  0
  4  6  2  0
  6  7  1  0
  7  8  1  0
  8  9  1  0
  8 10  2  0
 10 11  1  0
 11 12  2  0
 12 13  1  0
 12 14  1  0
 14 15  1  0
 14 16  2  0
 16 17  1  0
 16 18  1  0
 18 19  1  0
 18 20  2  0
 20 21  1  0
 10 22  1  0
 22 23  2  0
 22 24  1  0
 24 25  1  0
 24 26  1  0
 26 27  1  0
  6 28  1  0
 28 29  1  0
 28 30  2  0
 30 31  1  0
 30  2  1  0
 26  7  2  0
 20 11  1  0
M  END
>  <cnnaffinity>  (1) 
-5.42931

>  <filename>  (1) 
O=c1[nH]cc(-c2cccnc2)cc1-c1c(F)cccc1F

$$$$
