
     RDKit          3D

 41 43  0  0  0  0  0  0  0  0999 V2000
    4.9509    1.8159   17.0223 H   0  0  0  0  0  0  0  0  0  0  0  0
    5.4047    1.2779   17.8499 C   0  0  0  0  0  0  0  0  0  0  0  0
    6.5527    0.6363   17.5789 N   0  0  0  0  0  0  0  0  0  0  0  0
    7.1687    0.0133   18.5895 C   0  0  0  0  0  0  0  0  0  0  0  0
    8.1252   -0.4567   18.3706 H   0  0  0  0  0  0  0  0  0  0  0  0
    6.6448   -0.0411   19.8940 C   0  0  0  0  0  0  0  0  0  0  0  0
    7.3437   -0.7200   20.9412 N   0  0  0  0  0  0  0  0  0  0  0  0
    6.5812   -1.5928   21.6803 N   0  0  0  0  0  0  0  0  0  0  0  0
    7.1540   -2.2631   22.6452 C   0  0  0  0  0  0  0  0  0  0  0  0
    6.2938   -3.2136   23.4290 C   0  0  0  0  0  0  0  0  0  0  0  0
    6.8727   -4.0997   23.7031 H   0  0  0  0  0  0  0  0  0  0  0  0
    5.4744   -3.5431   22.7905 H   0  0  0  0  0  0  0  0  0  0  0  0
    5.7664   -2.6016   24.7275 C   0  0  0  0  0  0  0  0  0  0  0  0
    5.3426   -1.5927   24.5636 H   0  0  0  0  0  0  0  0  0  0  0  0
    6.6424   -2.4639   25.3726 H   0  0  0  0  0  0  0  0  0  0  0  0
    4.8605   -3.5039   25.4339 N   0  0  0  0  0  0  0  0  0  0  0  0
    3.4989   -3.6228   24.8931 C   0  0  0  0  0  0  0  0  0  0  0  0
    3.0751   -4.5520   25.3023 H   0  0  0  0  0  0  0  0  0  0  0  0
    3.5578   -3.7683   23.8075 H   0  0  0  0  0  0  0  0  0  0  0  0
    2.5536   -2.4523   25.2398 C   0  0  0  0  0  0  0  0  0  0  0  0
    2.8823   -1.5547   24.7028 H   0  0  0  0  0  0  0  0  0  0  0  0
    1.5461   -2.6893   24.8770 H   0  0  0  0  0  0  0  0  0  0  0  0
    2.5497   -2.1462   26.7485 C   0  0  0  0  0  0  0  0  0  0  0  0
    2.0413   -2.9490   27.3024 H   0  0  0  0  0  0  0  0  0  0  0  0
    1.9755   -1.2343   26.9489 H   0  0  0  0  0  0  0  0  0  0  0  0
    3.9953   -2.0028   27.2534 C   0  0  0  0  0  0  0  0  0  0  0  0
    4.4586   -1.1271   26.7756 H   0  0  0  0  0  0  0  0  0  0  0  0
    4.0377   -1.8364   28.3363 H   0  0  0  0  0  0  0  0  0  0  0  0
    4.8205   -3.2473   26.8797 C   0  0  0  0  0  0  0  0  0  0  0  0
    5.8510   -3.1646   27.2500 H   0  0  0  0  0  0  0  0  0  0  0  0
    4.4007   -4.1349   27.3740 H   0  0  0  0  0  0  0  0  0  0  0  0
    8.5444   -2.0816   22.9892 C   0  0  0  0  0  0  0  0  0  0  0  0
    8.9703   -2.6770   23.7992 H   0  0  0  0  0  0  0  0  0  0  0  0
    9.2909   -1.1810   22.2950 C   0  0  0  0  0  0  0  0  0  0  0  0
   10.3310   -0.9560   22.4912 H   0  0  0  0  0  0  0  0  0  0  0  0
    8.7230   -0.4026   21.2012 C   0  0  0  0  0  0  0  0  0  0  0  0
    9.3380    0.4299   20.5497 O   0  0  0  0  0  0  0  0  0  0  0  0
    5.4297    0.6034   20.1577 C   0  0  0  0  0  0  0  0  0  0  0  0
    5.0093    0.5542   21.1610 H   0  0  0  0  0  0  0  0  0  0  0  0
    4.8030    1.2916   19.1150 C   0  0  0  0  0  0  0  0  0  0  0  0
    3.8829    1.8532   19.2707 H   0  0  0  0  0  0  0  0  0  0  0  0
  1  2  1  0
  2  3  2  0
  3  4  1  0
  4  5  1  0
  4  6  2  0
  6  7  1  0
  7  8  1  0
  8  9  2  0
  9 10  1  0
 10 11  1  0
 10 12  1  0
 10 13  1  0
 13 14  1  0
 13 15  1  0
 13 16  1  0
 16 17  1  0
 17 18  1  0
 17 19  1  0
 17 20  1  0
 20 21  1  0
 20 22  1  0
 20 23  1  0
 23 24  1  0
 23 25  1  0
 23 26  1  0
 26 27  1  0
 26 28  1  0
 26 29  1  0
 29 30  1  0
 29 31  1  0
  9 32  1  0
 32 33  1  0
 32 34  2  0
 34 35  1  0
 34 36  1  0
 36 37  2  0
  6 38  1  0
 38 39  1  0
 38 40  2  0
 40 41  1  0
 40  2  1  0
 36  7  1  0
 29 16  1  0
M  END
>  <cnnaffinity>  (1) 
-5.29328

>  <filename>  (1) 
O=c1ccc(CCN2CCCCC2)nn1-c1cccnc1

$$$$
