
     RDKit          3D

 30 32  0  0  0  0  0  0  0  0999 V2000
    5.0522    1.7406   16.9246 H   0  0  0  0  0  0  0  0  0  0  0  0
    5.5297    1.2671   17.7810 C   0  0  0  0  0  0  0  0  0  0  0  0
    6.7056    0.6630   17.5537 N   0  0  0  0  0  0  0  0  0  0  0  0
    7.3250    0.0868   18.5911 C   0  0  0  0  0  0  0  0  0  0  0  0
    8.2856   -0.3807   18.3798 H   0  0  0  0  0  0  0  0  0  0  0  0
    6.7879    0.0465   19.8855 C   0  0  0  0  0  0  0  0  0  0  0  0
    7.5135   -0.6703   20.9685 C   0  0  0  0  0  0  0  0  0  0  0  0
    8.8194   -0.5659   21.0216 N   0  0  0  0  0  0  0  0  0  0  0  0
    9.4859   -1.1927   22.0570 N   0  0  0  0  0  0  0  0  0  0  0  0
   10.8990   -0.9563   22.1367 C   0  0  0  0  0  0  0  0  0  0  0  0
   11.7653   -2.0549   22.1101 C   0  0  0  0  0  0  0  0  0  0  0  0
   11.3500   -3.0507   22.1747 H   0  0  0  0  0  0  0  0  0  0  0  0
   13.1463   -1.8640   22.0826 C   0  0  0  0  0  0  0  0  0  0  0  0
   13.8071   -2.7158   21.9554 H   0  0  0  0  0  0  0  0  0  0  0  0
   13.6766   -0.5923   22.2811 C   0  0  0  0  0  0  0  0  0  0  0  0
   14.7495   -0.4580   22.3724 H   0  0  0  0  0  0  0  0  0  0  0  0
   12.8248    0.5105   22.3804 C   0  0  0  0  0  0  0  0  0  0  0  0
   13.5141    2.0580   22.7576 Cl  0  0  0  0  0  0  0  0  0  0  0  0
   11.4295    0.3544   22.2164 C   0  0  0  0  0  0  0  0  0  0  0  0
   10.4225    1.7521   22.0984 Cl  0  0  0  0  0  0  0  0  0  0  0  0
    8.8685   -2.0499   23.0333 C   0  0  0  0  0  0  0  0  0  0  0  0
    9.5080   -2.6607   23.8700 O   0  0  0  0  0  0  0  0  0  0  0  0
    7.4153   -2.0919   22.9238 C   0  0  0  0  0  0  0  0  0  0  0  0
    6.9200   -2.6828   23.6831 H   0  0  0  0  0  0  0  0  0  0  0  0
    6.7671   -1.4401   21.9264 C   0  0  0  0  0  0  0  0  0  0  0  0
    5.6912   -1.5035   21.8079 H   0  0  0  0  0  0  0  0  0  0  0  0
    5.5524    0.6761   20.1072 C   0  0  0  0  0  0  0  0  0  0  0  0
    5.0997    0.6876   21.1003 H   0  0  0  0  0  0  0  0  0  0  0  0
    4.9187    1.3035   19.0382 C   0  0  0  0  0  0  0  0  0  0  0  0
    3.9719    1.8131   19.1665 H   0  0  0  0  0  0  0  0  0  0  0  0
  1  2  1  0
  2  3  2  0
  3  4  1  0
  4  5  1  0
  4  6  2  0
  6  7  1  0
  7  8  2  0
  8  9  1  0
  9 10  1  0
 10 11  2  0
 11 12  1  0
 11 13  1  0
 13 14  1  0
 13 15  2  0
 15 16  1  0
 15 17  1  0
 17 18  1  0
 17 19  2  0
 19 20  1  0
  9 21  1  0
 21 22  2  0
 21 23  1  0
 23 24  1  0
 23 25  2  0
 25 26  1  0
  6 27  1  0
 27 28  1  0
 27 29  2  0
 29 30  1  0
 29  2  1  0
 25  7  1  0
 19 10  1  0
M  END
>  <cnnaffinity>  (1) 
-5.81856

>  <filename>  (1) 
O=c1ccc(-c2cccnc2)nn1-c1cccc(Cl)c1Cl

$$$$
