
     RDKit          3D

 30 32  0  0  0  0  0  0  0  0999 V2000
    5.2181    1.6139   17.0419 H   0  0  0  0  0  0  0  0  0  0  0  0
    5.7399    1.1848   17.8909 C   0  0  0  0  0  0  0  0  0  0  0  0
    6.9931    0.7179   17.7247 N   0  0  0  0  0  0  0  0  0  0  0  0
    7.6077    0.1733   18.7980 C   0  0  0  0  0  0  0  0  0  0  0  0
    8.6212   -0.1999   18.6730 H   0  0  0  0  0  0  0  0  0  0  0  0
    6.9916    0.0378   20.0619 C   0  0  0  0  0  0  0  0  0  0  0  0
    7.6377   -0.5998   21.1303 N   0  0  0  0  0  0  0  0  0  0  0  0
    9.0041   -0.5049   21.1755 N   0  0  0  0  0  0  0  0  0  0  0  0
    9.6438   -0.9889   22.2236 C   0  0  0  0  0  0  0  0  0  0  0  0
   11.0838   -0.7991   22.2965 C   0  0  0  0  0  0  0  0  0  0  0  0
   11.6398    0.0508   23.2551 C   0  0  0  0  0  0  0  0  0  0  0  0
   11.0052    0.6460   23.9120 H   0  0  0  0  0  0  0  0  0  0  0  0
   13.0310    0.1088   23.3840 C   0  0  0  0  0  0  0  0  0  0  0  0
   13.4742    0.7369   24.1463 H   0  0  0  0  0  0  0  0  0  0  0  0
   13.8537   -0.6685   22.5571 C   0  0  0  0  0  0  0  0  0  0  0  0
   14.9242   -0.6595   22.7065 H   0  0  0  0  0  0  0  0  0  0  0  0
   13.3011   -1.4700   21.5587 C   0  0  0  0  0  0  0  0  0  0  0  0
   14.3584   -2.4977   20.3504 Br  0  0  0  0  0  0  0  0  0  0  0  0
   11.9187   -1.5301   21.4519 C   0  0  0  0  0  0  0  0  0  0  0  0
   11.4845   -2.1839   20.7218 H   0  0  0  0  0  0  0  0  0  0  0  0
    8.9358   -1.7210   23.3052 C   0  0  0  0  0  0  0  0  0  0  0  0
    9.4945   -2.1787   24.3001 O   0  0  0  0  0  0  0  0  0  0  0  0
    7.5014   -1.9026   23.1715 C   0  0  0  0  0  0  0  0  0  0  0  0
    6.9565   -2.4790   23.9150 H   0  0  0  0  0  0  0  0  0  0  0  0
    6.8856   -1.3122   22.0912 C   0  0  0  0  0  0  0  0  0  0  0  0
    5.8128   -1.4097   21.9562 H   0  0  0  0  0  0  0  0  0  0  0  0
    5.7073    0.5614   20.2289 C   0  0  0  0  0  0  0  0  0  0  0  0
    5.2319    0.5260   21.2089 H   0  0  0  0  0  0  0  0  0  0  0  0
    5.0791    1.1380   19.1250 C   0  0  0  0  0  0  0  0  0  0  0  0
    4.0811    1.5540   19.2136 H   0  0  0  0  0  0  0  0  0  0  0  0
  1  2  1  0
  2  3  2  0
  3  4  1  0
  4  5  1  0
  4  6  2  0
  6  7  1  0
  7  8  1  0
  8  9  2  0
  9 10  1  0
 10 11  2  0
 11 12  1  0
 11 13  1  0
 13 14  1  0
 13 15  2  0
 15 16  1  0
 15 17  1  0
 17 18  1  0
 17 19  2  0
 19 20  1  0
  9 21  1  0
 21 22  2  0
 21 23  1  0
 23 24  1  0
 23 25  2  0
 25 26  1  0
  6 27  1  0
 27 28  1  0
 27 29  2  0
 29 30  1  0
 29  2  1  0
 25  7  1  0
 19 10  1  0
M  END
>  <cnnaffinity>  (1) 
-6.05711

>  <filename>  (1) 
O=c1ccn(-c2cccnc2)nc1-c1cccc(Br)c1

$$$$
