
     RDKit          3D

 29 31  0  0  0  0  0  0  0  0999 V2000
   14.4725    0.2002   23.3875 H   0  0  0  0  0  0  0  0  0  0  0  0
   13.4222   -0.0332   23.1878 C   0  0  0  0  0  0  0  0  0  0  0  0
   13.1450   -0.4814   21.9668 N   0  0  0  0  0  0  0  0  0  0  0  0
   11.8695   -0.7840   21.7031 C   0  0  0  0  0  0  0  0  0  0  0  0
   11.6557   -1.1126   20.6827 H   0  0  0  0  0  0  0  0  0  0  0  0
   10.8334   -0.6650   22.6358 C   0  0  0  0  0  0  0  0  0  0  0  0
    9.4129   -1.0351   22.3027 C   0  0  0  0  0  0  0  0  0  0  0  0
    8.6965   -0.4392   21.2165 C   0  0  0  0  0  0  0  0  0  0  0  0
    9.2064    0.3288   20.6423 H   0  0  0  0  0  0  0  0  0  0  0  0
    7.3830   -0.7442   20.9098 C   0  0  0  0  0  0  0  0  0  0  0  0
    6.6521   -0.0110   19.8240 C   0  0  0  0  0  0  0  0  0  0  0  0
    7.1764    0.1135   18.5127 C   0  0  0  0  0  0  0  0  0  0  0  0
    8.1242   -0.3566   18.2619 H   0  0  0  0  0  0  0  0  0  0  0  0
    6.5789    0.7542   17.4974 N   0  0  0  0  0  0  0  0  0  0  0  0
    5.4063    1.3525   17.7574 C   0  0  0  0  0  0  0  0  0  0  0  0
    4.9368    1.8825   16.9270 H   0  0  0  0  0  0  0  0  0  0  0  0
    4.7954    1.3178   19.0140 C   0  0  0  0  0  0  0  0  0  0  0  0
    3.8641    1.8523   19.1631 H   0  0  0  0  0  0  0  0  0  0  0  0
    5.4174    0.6217   20.0588 C   0  0  0  0  0  0  0  0  0  0  0  0
    4.9678    0.5828   21.0530 H   0  0  0  0  0  0  0  0  0  0  0  0
    6.7146   -1.8248   21.6793 C   0  0  0  0  0  0  0  0  0  0  0  0
    5.6324   -2.3594   21.4915 O   0  0  0  0  0  0  0  0  0  0  0  0
    7.4797   -2.3201   22.7422 N   0  0  0  0  0  0  0  0  0  0  0  0
    6.9379   -3.0145   23.2362 H   0  0  0  0  0  0  0  0  0  0  0  0
    8.7660   -1.9875   23.0421 C   0  0  0  0  0  0  0  0  0  0  0  0
    9.2599   -2.5105   23.8565 H   0  0  0  0  0  0  0  0  0  0  0  0
   11.2638   -0.1877   23.8894 C   0  0  0  0  0  0  0  0  0  0  0  0
   10.5519   -0.0280   24.7039 H   0  0  0  0  0  0  0  0  0  0  0  0
   12.5344    0.1308   24.1731 N   0  0  0  0  0  0  0  0  0  0  0  0
  1  2  1  0
  2  3  2  0
  3  4  1  0
  4  5  1  0
  4  6  2  0
  6  7  1  0
  7  8  1  0
  8  9  1  0
  8 10  2  0
 10 11  1  0
 11 12  2  0
 12 13  1  0
 12 14  1  0
 14 15  2  0
 15 16  1  0
 15 17  1  0
 17 18  1  0
 17 19  2  0
 19 20  1  0
 10 21  1  0
 21 22  2  0
 21 23  1  0
 23 24  1  0
 23 25  1  0
 25 26  1  0
  6 27  1  0
 27 28  1  0
 27 29  2  0
 29  2  1  0
 25  7  2  0
 19 11  1  0
M  END
>  <cnnaffinity>  (1) 
-5.12904

>  <filename>  (1) 
O=c1[nH]cc(-c2cncnc2)cc1-c1cccnc1

$$$$
