
     RDKit          3D

 34 36  0  0  0  0  0  0  0  0999 V2000
   11.0967   -5.7503   25.3133 H   0  0  0  0  0  0  0  0  0  0  0  0
   10.7754   -4.9717   24.8469 O   0  0  0  0  0  0  0  0  0  0  0  0
    9.6612   -4.5399   25.4885 C   0  0  0  0  0  0  0  0  0  0  0  0
    9.1891   -5.1963   26.6251 C   0  0  0  0  0  0  0  0  0  0  0  0
    9.6942   -6.0814   26.9904 H   0  0  0  0  0  0  0  0  0  0  0  0
    8.0522   -4.7208   27.2857 C   0  0  0  0  0  0  0  0  0  0  0  0
    7.4420   -5.5695   28.6703 Cl  0  0  0  0  0  0  0  0  0  0  0  0
    7.3985   -3.5789   26.8368 C   0  0  0  0  0  0  0  0  0  0  0  0
    6.5194   -3.2229   27.3622 H   0  0  0  0  0  0  0  0  0  0  0  0
    7.8681   -2.9167   25.6929 C   0  0  0  0  0  0  0  0  0  0  0  0
    7.3894   -2.0009   25.3539 H   0  0  0  0  0  0  0  0  0  0  0  0
    8.9656   -3.4110   24.9898 C   0  0  0  0  0  0  0  0  0  0  0  0
    9.4866   -2.8224   23.8428 O   0  0  0  0  0  0  0  0  0  0  0  0
    8.7924   -2.0449   22.9793 C   0  0  0  0  0  0  0  0  0  0  0  0
    9.3996   -1.0190   22.3562 C   0  0  0  0  0  0  0  0  0  0  0  0
   10.4271   -0.7877   22.5768 H   0  0  0  0  0  0  0  0  0  0  0  0
    8.6503   -0.1416   21.4099 C   0  0  0  0  0  0  0  0  0  0  0  0
    8.4847    0.8643   21.8529 H   0  0  0  0  0  0  0  0  0  0  0  0
    9.2676    0.0493   20.5090 H   0  0  0  0  0  0  0  0  0  0  0  0
    7.3573   -0.7139   20.9828 N   0  0  0  0  0  0  0  0  0  0  0  0
    6.6640   -0.0266   19.9188 C   0  0  0  0  0  0  0  0  0  0  0  0
    7.1854    0.0485   18.6055 C   0  0  0  0  0  0  0  0  0  0  0  0
    8.1357   -0.4354   18.3719 H   0  0  0  0  0  0  0  0  0  0  0  0
    6.5752    0.6711   17.5901 N   0  0  0  0  0  0  0  0  0  0  0  0
    5.4106    1.2879   17.8496 C   0  0  0  0  0  0  0  0  0  0  0  0
    4.9365    1.7827   17.0062 H   0  0  0  0  0  0  0  0  0  0  0  0
    4.8198    1.3006   19.1161 C   0  0  0  0  0  0  0  0  0  0  0  0
    3.8884    1.8343   19.2629 H   0  0  0  0  0  0  0  0  0  0  0  0
    5.4488    0.6263   20.1710 C   0  0  0  0  0  0  0  0  0  0  0  0
    5.0257    0.5966   21.1727 H   0  0  0  0  0  0  0  0  0  0  0  0
    6.7496   -1.7658   21.6616 C   0  0  0  0  0  0  0  0  0  0  0  0
    5.6533   -2.2304   21.4281 O   0  0  0  0  0  0  0  0  0  0  0  0
    7.4923   -2.3548   22.6705 N   0  0  0  0  0  0  0  0  0  0  0  0
    6.9637   -3.1267   23.0313 H   0  0  0  0  0  0  0  0  0  0  0  0
  1  2  1  0
  2  3  1  0
  3  4  2  0
  4  5  1  0
  4  6  1  0
  6  7  1  0
  6  8  2  0
  8  9  1  0
  8 10  1  0
 10 11  1  0
 10 12  2  0
 12 13  1  0
 13 14  1  0
 14 15  2  0
 15 16  1  0
 15 17  1  0
 17 18  1  0
 17 19  1  0
 17 20  1  0
 20 21  1  0
 21 22  2  0
 22 23  1  0
 22 24  1  0
 24 25  2  0
 25 26  1  0
 25 27  1  0
 27 28  1  0
 27 29  2  0
 29 30  1  0
 20 31  1  0
 31 32  2  0
 31 33  1  0
 33 34  1  0
 12  3  1  0
 33 14  1  0
 29 21  1  0
M  END
>  <cnnaffinity>  (1) 
-5.15442

>  <filename>  (1) 
O=C1NC(Oc2ccc(Cl)cc2O)=CCN1c1cccnc1

$$$$
