
     RDKit          3D

 34 37  0  0  0  0  0  0  0  0999 V2000
    5.0120    1.9772   16.9250 H   0  0  0  0  0  0  0  0  0  0  0  0
    5.4058    1.3783   17.7433 C   0  0  0  0  0  0  0  0  0  0  0  0
    6.5389    0.7042   17.4840 N   0  0  0  0  0  0  0  0  0  0  0  0
    7.0573   -0.0176   18.4829 C   0  0  0  0  0  0  0  0  0  0  0  0
    7.9979   -0.5277   18.2833 H   0  0  0  0  0  0  0  0  0  0  0  0
    6.4667   -0.1523   19.7565 C   0  0  0  0  0  0  0  0  0  0  0  0
    7.1468   -0.8927   20.7944 N   0  0  0  0  0  0  0  0  0  0  0  0
    8.4212   -0.4724   21.1134 C   0  0  0  0  0  0  0  0  0  0  0  0
    8.7805    0.3808   20.5440 H   0  0  0  0  0  0  0  0  0  0  0  0
    9.1910   -1.0443   22.0863 C   0  0  0  0  0  0  0  0  0  0  0  0
   10.5472   -0.4840   22.3480 C   0  0  0  0  0  0  0  0  0  0  0  0
   11.7302   -1.2828   22.2710 C   0  0  0  0  0  0  0  0  0  0  0  0
   11.6439   -2.3457   22.0586 H   0  0  0  0  0  0  0  0  0  0  0  0
   12.9930   -0.7264   22.4248 C   0  0  0  0  0  0  0  0  0  0  0  0
   13.8868   -1.3307   22.3430 H   0  0  0  0  0  0  0  0  0  0  0  0
   13.0755    0.6599   22.6843 C   0  0  0  0  0  0  0  0  0  0  0  0
   11.9248    1.4753   22.7474 C   0  0  0  0  0  0  0  0  0  0  0  0
   12.4400    2.7938   22.9415 C   0  0  0  0  0  0  0  0  0  0  0  0
   11.8957    3.7270   23.0190 H   0  0  0  0  0  0  0  0  0  0  0  0
   13.7529    2.7889   23.0221 N   0  0  0  0  0  0  0  0  0  0  0  0
   14.1316    1.4970   22.8754 N   0  0  0  0  0  0  0  0  0  0  0  0
   15.1110    1.2560   22.8823 H   0  0  0  0  0  0  0  0  0  0  0  0
   10.6505    0.8845   22.5953 C   0  0  0  0  0  0  0  0  0  0  0  0
    9.7367    1.4682   22.6493 H   0  0  0  0  0  0  0  0  0  0  0  0
    8.6113   -2.1019   22.8557 C   0  0  0  0  0  0  0  0  0  0  0  0
    9.1889   -2.5408   23.6696 H   0  0  0  0  0  0  0  0  0  0  0  0
    7.3383   -2.5180   22.5994 C   0  0  0  0  0  0  0  0  0  0  0  0
    6.8302   -3.2839   23.1663 H   0  0  0  0  0  0  0  0  0  0  0  0
    6.5236   -1.9734   21.5189 C   0  0  0  0  0  0  0  0  0  0  0  0
    5.4283   -2.4184   21.2307 O   0  0  0  0  0  0  0  0  0  0  0  0
    5.2848    0.5498   20.0131 C   0  0  0  0  0  0  0  0  0  0  0  0
    4.8211    0.4905   20.9979 H   0  0  0  0  0  0  0  0  0  0  0  0
    4.7535    1.3361   18.9808 C   0  0  0  0  0  0  0  0  0  0  0  0
    3.8592    1.9309   19.1290 H   0  0  0  0  0  0  0  0  0  0  0  0
  1  2  1  0
  2  3  2  0
  3  4  1  0
  4  5  1  0
  4  6  2  0
  6  7  1  0
  7  8  1  0
  8  9  1  0
  8 10  2  0
 10 11  1  0
 11 12  2  0
 12 13  1  0
 12 14  1  0
 14 15  1  0
 14 16  2  0
 16 17  1  0
 17 18  1  0
 18 19  1  0
 18 20  2  0
 20 21  1  0
 21 22  1  0
 17 23  2  0
 23 24  1  0
 10 25  1  0
 25 26  1  0
 25 27  2  0
 27 28  1  0
 27 29  1  0
 29 30  2  0
  6 31  1  0
 31 32  1  0
 31 33  2  0
 33 34  1  0
 33  2  1  0
 29  7  1  0
 23 11  1  0
 21 16  1  0
M  END
>  <cnnaffinity>  (1) 
-6.18513

>  <filename>  (1) 
O=c1ccc(-c2ccc3[nH]ncc3c2)cn1-c1cccnc1

$$$$
