
     RDKit          3D

 36 39  0  0  0  0  0  0  0  0999 V2000
    4.9289    1.8323   16.9559 H   0  0  0  0  0  0  0  0  0  0  0  0
    5.4011    1.3128   17.7890 C   0  0  0  0  0  0  0  0  0  0  0  0
    6.5636    0.6944   17.5277 N   0  0  0  0  0  0  0  0  0  0  0  0
    7.1626    0.0604   18.5455 C   0  0  0  0  0  0  0  0  0  0  0  0
    8.1149   -0.4108   18.3004 H   0  0  0  0  0  0  0  0  0  0  0  0
    6.6554   -0.0115   19.8605 C   0  0  0  0  0  0  0  0  0  0  0  0
    7.3884   -0.7223   20.9855 C   0  0  2  0  0  0  0  0  0  0  0  0
    8.3055   -1.1604   20.5703 H   0  0  0  0  0  0  0  0  0  0  0  0
    6.5848   -1.8649   21.6593 C   0  0  0  0  0  0  0  0  0  0  0  0
    5.5107   -1.8082   21.4287 H   0  0  0  0  0  0  0  0  0  0  0  0
    6.9280   -2.8513   21.3249 H   0  0  0  0  0  0  0  0  0  0  0  0
    6.8408   -1.6938   23.0757 N   0  0  0  0  0  0  0  0  0  0  0  0
    6.2708   -2.1047   23.7982 H   0  0  0  0  0  0  0  0  0  0  0  0
    7.3631   -0.4832   23.4234 C   0  0  0  0  0  0  0  0  0  0  0  0
    7.3930   -0.0657   24.5591 O   0  0  0  0  0  0  0  0  0  0  0  0
    7.8044    0.2386   22.1478 C   0  0  1  0  0  0  0  0  0  0  0  0
    7.2136    1.1652   22.1320 H   0  0  0  0  0  0  0  0  0  0  0  0
    9.2606    0.6161   22.1363 C   0  0  0  0  0  0  0  0  0  0  0  0
    9.8158    1.8382   21.9060 C   0  0  0  0  0  0  0  0  0  0  0  0
    9.3253    2.7822   21.6969 H   0  0  0  0  0  0  0  0  0  0  0  0
   11.1943    1.7386   21.9072 N   0  0  0  0  0  0  0  0  0  0  0  0
   11.8421    2.4929   21.7625 H   0  0  0  0  0  0  0  0  0  0  0  0
   11.5498    0.4270   22.1136 C   0  0  0  0  0  0  0  0  0  0  0  0
   12.8121   -0.1917   22.1257 C   0  0  0  0  0  0  0  0  0  0  0  0
   13.7263    0.3902   22.0364 H   0  0  0  0  0  0  0  0  0  0  0  0
   12.8410   -1.5740   22.2530 C   0  0  0  0  0  0  0  0  0  0  0  0
   13.7823   -2.1112   22.1857 H   0  0  0  0  0  0  0  0  0  0  0  0
   11.6545   -2.3199   22.4756 C   0  0  0  0  0  0  0  0  0  0  0  0
   11.7169   -3.3829   22.6662 H   0  0  0  0  0  0  0  0  0  0  0  0
   10.4148   -1.7060   22.5024 C   0  0  0  0  0  0  0  0  0  0  0  0
    9.4978   -2.2604   22.6986 H   0  0  0  0  0  0  0  0  0  0  0  0
   10.3535   -0.3104   22.2814 C   0  0  0  0  0  0  0  0  0  0  0  0
    5.4369    0.6417   20.0987 C   0  0  0  0  0  0  0  0  0  0  0  0
    5.0030    0.6455   21.1015 H   0  0  0  0  0  0  0  0  0  0  0  0
    4.8013    1.3124   19.0525 C   0  0  0  0  0  0  0  0  0  0  0  0
    3.8689    1.8454   19.2080 H   0  0  0  0  0  0  0  0  0  0  0  0
  1  2  1  0
  2  3  2  0
  3  4  1  0
  4  5  1  0
  4  6  2  0
  6  7  1  0
  7  8  1  6
  7  9  1  0
  9 10  1  0
  9 11  1  0
  9 12  1  0
 12 13  1  0
 12 14  1  0
 14 15  2  0
 14 16  1  0
 16 17  1  6
 16 18  1  0
 18 19  2  0
 19 20  1  0
 19 21  1  0
 21 22  1  0
 21 23  1  0
 23 24  2  0
 24 25  1  0
 24 26  1  0
 26 27  1  0
 26 28  2  0
 28 29  1  0
 28 30  1  0
 30 31  1  0
 30 32  2  0
  6 33  1  0
 33 34  1  0
 33 35  2  0
 35 36  1  0
 35  2  1  0
 16  7  1  0
 32 18  1  0
 32 23  1  0
M  END
>  <cnnaffinity>  (1) 
-5.50825

>  <filename>  (1) 
O=C1NC[C@@H](c2cccnc2)[C@@H]1c1c[nH]c2ccccc12

$$$$
