
     RDKit          3D

 39 41  0  0  0  0  0  0  0  0999 V2000
    4.9783    1.8998   16.9504 H   0  0  0  0  0  0  0  0  0  0  0  0
    5.4222    1.3446   17.7727 C   0  0  0  0  0  0  0  0  0  0  0  0
    6.5768    0.7145   17.4986 N   0  0  0  0  0  0  0  0  0  0  0  0
    7.1585    0.0373   18.4935 C   0  0  0  0  0  0  0  0  0  0  0  0
    8.1005   -0.4632   18.2670 H   0  0  0  0  0  0  0  0  0  0  0  0
    6.6107   -0.0719   19.7882 C   0  0  0  0  0  0  0  0  0  0  0  0
    7.3252   -0.7662   20.8348 N   0  0  0  0  0  0  0  0  0  0  0  0
    8.6161   -0.3467   21.1378 C   0  0  0  0  0  0  0  0  0  0  0  0
    8.9989    0.4725   20.5221 H   0  0  0  0  0  0  0  0  0  0  0  0
    9.3069   -0.8893   22.1519 C   0  0  0  0  0  0  0  0  0  0  0  0
   10.6243   -0.4097   22.6264 C   0  0  0  0  0  0  0  0  0  0  0  0
   11.3057   -1.2668   22.7822 H   0  0  0  0  0  0  0  0  0  0  0  0
   11.0845    0.2496   21.8746 H   0  0  0  0  0  0  0  0  0  0  0  0
   10.3411    0.3022   23.8629 N   0  0  0  0  0  0  0  0  0  0  0  0
   10.0873   -0.3985   24.5521 H   0  0  0  0  0  0  0  0  0  0  0  0
   11.3364    1.2227   24.3814 C   0  0  0  0  0  0  0  0  0  0  0  0
   10.9095    1.6295   25.3070 H   0  0  0  0  0  0  0  0  0  0  0  0
   12.7305    0.6353   24.6310 C   0  0  0  0  0  0  0  0  0  0  0  0
   13.2384    1.3134   25.3124 H   0  0  0  0  0  0  0  0  0  0  0  0
   12.7036   -0.3431   25.1159 H   0  0  0  0  0  0  0  0  0  0  0  0
   13.4361    0.6611   23.2659 C   0  0  0  0  0  0  0  0  0  0  0  0
   13.1646   -0.2291   22.6912 H   0  0  0  0  0  0  0  0  0  0  0  0
   14.5277    0.6320   23.3344 H   0  0  0  0  0  0  0  0  0  0  0  0
   12.8799    1.9224   22.5615 C   0  0  0  0  0  0  0  0  0  0  0  0
   12.5989    1.7020   21.5226 H   0  0  0  0  0  0  0  0  0  0  0  0
   13.6070    2.7419   22.5286 H   0  0  0  0  0  0  0  0  0  0  0  0
   11.6437    2.3550   23.3854 C   0  0  0  0  0  0  0  0  0  0  0  0
   10.7819    2.5780   22.7529 H   0  0  0  0  0  0  0  0  0  0  0  0
   11.8743    3.2691   23.9403 H   0  0  0  0  0  0  0  0  0  0  0  0
    8.6685   -1.8508   23.0364 C   0  0  0  0  0  0  0  0  0  0  0  0
    9.1167   -2.2874   24.0811 O   0  0  0  0  0  0  0  0  0  0  0  0
    7.4513   -2.2915   22.6073 N   0  0  0  0  0  0  0  0  0  0  0  0
    6.9777   -2.9436   23.2043 H   0  0  0  0  0  0  0  0  0  0  0  0
    6.7116   -1.8141   21.5703 C   0  0  0  0  0  0  0  0  0  0  0  0
    5.6355   -2.3003   21.3254 O   0  0  0  0  0  0  0  0  0  0  0  0
    5.3939    0.5625   20.0551 C   0  0  0  0  0  0  0  0  0  0  0  0
    4.9397    0.4798   21.0429 H   0  0  0  0  0  0  0  0  0  0  0  0
    4.7986    1.2997   19.0247 C   0  0  0  0  0  0  0  0  0  0  0  0
    3.8687    1.8357   19.1822 H   0  0  0  0  0  0  0  0  0  0  0  0
  1  2  1  0
  2  3  2  0
  3  4  1  0
  4  5  1  0
  4  6  2  0
  6  7  1  0
  7  8  1  0
  8  9  1  0
  8 10  2  0
 10 11  1  0
 11 12  1  0
 11 13  1  0
 11 14  1  0
 14 15  1  0
 14 16  1  0
 16 17  1  0
 16 18  1  0
 18 19  1  0
 18 20  1  0
 18 21  1  0
 21 22  1  0
 21 23  1  0
 21 24  1  0
 24 25  1  0
 24 26  1  0
 24 27  1  0
 27 28  1  0
 27 29  1  0
 10 30  1  0
 30 31  2  0
 30 32  1  0
 32 33  1  0
 32 34  1  0
 34 35  2  0
  6 36  1  0
 36 37  1  0
 36 38  2  0
 38 39  1  0
 38  2  1  0
 34  7  1  0
 27 16  1  0
M  END
>  <cnnaffinity>  (1) 
-5.28339

>  <filename>  (1) 
O=c1[nH]c(=O)n(-c2cccnc2)cc1CNC1CCCC1

$$$$
