
     RDKit          3D

 30 32  0  0  0  0  0  0  0  0999 V2000
    4.9254    1.7819   16.9940 H   0  0  0  0  0  0  0  0  0  0  0  0
    5.4003    1.2932   17.8402 C   0  0  0  0  0  0  0  0  0  0  0  0
    6.5587    0.6680   17.5882 N   0  0  0  0  0  0  0  0  0  0  0  0
    7.1538    0.0455   18.6067 C   0  0  0  0  0  0  0  0  0  0  0  0
    8.1146   -0.4150   18.3842 H   0  0  0  0  0  0  0  0  0  0  0  0
    6.6205   -0.0151   19.9036 C   0  0  0  0  0  0  0  0  0  0  0  0
    7.3107   -0.7348   20.9836 C   0  0  0  0  0  0  0  0  0  0  0  0
    6.5849   -1.5078   21.7682 N   0  0  0  0  0  0  0  0  0  0  0  0
    7.1826   -2.1971   22.8083 C   0  0  0  0  0  0  0  0  0  0  0  0
    6.2955   -3.0453   23.6712 C   0  0  0  0  0  0  0  0  0  0  0  0
    6.6353   -3.3146   25.0110 C   0  0  0  0  0  0  0  0  0  0  0  0
    7.5177   -2.9062   25.4906 H   0  0  0  0  0  0  0  0  0  0  0  0
    5.7886   -4.1100   25.7756 C   0  0  0  0  0  0  0  0  0  0  0  0
    6.1160   -4.3629   27.0485 F   0  0  0  0  0  0  0  0  0  0  0  0
    4.6128   -4.6617   25.2813 C   0  0  0  0  0  0  0  0  0  0  0  0
    3.9687   -5.2794   25.8981 H   0  0  0  0  0  0  0  0  0  0  0  0
    4.3059   -4.3762   23.9555 C   0  0  0  0  0  0  0  0  0  0  0  0
    3.1744   -4.8785   23.4478 F   0  0  0  0  0  0  0  0  0  0  0  0
    5.1124   -3.5902   23.1426 C   0  0  0  0  0  0  0  0  0  0  0  0
    4.8145   -3.3788   22.1226 H   0  0  0  0  0  0  0  0  0  0  0  0
    8.5329   -2.1234   23.0272 C   0  0  0  0  0  0  0  0  0  0  0  0
    9.0454   -2.6826   23.8021 H   0  0  0  0  0  0  0  0  0  0  0  0
    9.3039   -1.3255   22.2174 N   0  0  0  0  0  0  0  0  0  0  0  0
   10.3041   -1.1765   22.3108 H   0  0  0  0  0  0  0  0  0  0  0  0
    8.8003   -0.5569   21.1737 C   0  0  0  0  0  0  0  0  0  0  0  0
    9.5927    0.1390   20.5580 O   0  0  0  0  0  0  0  0  0  0  0  0
    5.4125    0.6477   20.1574 C   0  0  0  0  0  0  0  0  0  0  0  0
    4.9834    0.6332   21.1634 H   0  0  0  0  0  0  0  0  0  0  0  0
    4.8016    1.3208   19.1038 C   0  0  0  0  0  0  0  0  0  0  0  0
    3.8697    1.8521   19.2517 H   0  0  0  0  0  0  0  0  0  0  0  0
  1  2  1  0
  2  3  2  0
  3  4  1  0
  4  5  1  0
  4  6  2  0
  6  7  1  0
  7  8  2  0
  8  9  1  0
  9 10  1  0
 10 11  2  0
 11 12  1  0
 11 13  1  0
 13 14  1  0
 13 15  2  0
 15 16  1  0
 15 17  1  0
 17 18  1  0
 17 19  2  0
 19 20  1  0
  9 21  2  0
 21 22  1  0
 21 23  1  0
 23 24  1  0
 23 25  1  0
 25 26  2  0
  6 27  1  0
 27 28  1  0
 27 29  2  0
 29 30  1  0
 29  2  1  0
 25  7  1  0
 19 10  1  0
M  END
>  <cnnaffinity>  (1) 
-5.49594

>  <filename>  (1) 
O=c1[nH]cc(-c2cc(F)cc(F)c2)nc1-c1cccnc1

$$$$
