
     RDKit          3D

 30 32  0  0  0  0  0  0  0  0999 V2000
    5.1680    2.5509   16.3780 H   0  0  0  0  0  0  0  0  0  0  0  0
    5.3873    1.9409   17.2512 C   0  0  0  0  0  0  0  0  0  0  0  0
    6.5029    1.1977   17.1906 N   0  0  0  0  0  0  0  0  0  0  0  0
    6.7945    0.4538   18.2626 C   0  0  0  0  0  0  0  0  0  0  0  0
    7.7166   -0.1216   18.1880 H   0  0  0  0  0  0  0  0  0  0  0  0
    6.0158    0.4080   19.4323 C   0  0  0  0  0  0  0  0  0  0  0  0
    6.4372   -0.4507   20.5722 C   0  0  0  0  0  0  0  0  0  0  0  0
    6.5289    0.3436   22.1320 S   0  0  0  0  0  0  0  0  0  0  0  0
    6.9809   -0.9716   23.1863 C   0  0  0  0  0  0  0  0  0  0  0  0
    7.3512   -0.6035   24.5881 C   0  0  0  0  0  0  0  0  0  0  0  0
    6.3901   -0.6728   25.6114 C   0  0  0  0  0  0  0  0  0  0  0  0
    5.3711   -0.9563   25.3634 H   0  0  0  0  0  0  0  0  0  0  0  0
    6.7397   -0.4121   26.9413 C   0  0  0  0  0  0  0  0  0  0  0  0
    5.9829   -0.4396   27.7189 H   0  0  0  0  0  0  0  0  0  0  0  0
    8.0682   -0.1506   27.2789 C   0  0  0  0  0  0  0  0  0  0  0  0
    8.3799    0.0188   28.3067 H   0  0  0  0  0  0  0  0  0  0  0  0
    9.0439   -0.1359   26.2799 C   0  0  0  0  0  0  0  0  0  0  0  0
   10.6928    0.0467   26.7383 Cl  0  0  0  0  0  0  0  0  0  0  0  0
    8.6904   -0.3189   24.9339 C   0  0  0  0  0  0  0  0  0  0  0  0
    9.8921   -0.2216   23.6925 Cl  0  0  0  0  0  0  0  0  0  0  0  0
    7.0547   -2.2592   22.8057 C   0  0  0  0  0  0  0  0  0  0  0  0
    7.2201   -3.0344   23.5463 H   0  0  0  0  0  0  0  0  0  0  0  0
    7.0298   -2.7227   21.4159 C   0  0  0  0  0  0  0  0  0  0  0  0
    7.2579   -3.8902   21.1438 O   0  0  0  0  0  0  0  0  0  0  0  0
    6.7444   -1.7407   20.3663 C   0  0  0  0  0  0  0  0  0  0  0  0
    6.7532   -2.1338   19.3542 H   0  0  0  0  0  0  0  0  0  0  0  0
    4.8294    1.1544   19.4553 C   0  0  0  0  0  0  0  0  0  0  0  0
    4.1711    1.0919   20.3216 H   0  0  0  0  0  0  0  0  0  0  0  0
    4.5160    1.9402   18.3458 C   0  0  0  0  0  0  0  0  0  0  0  0
    3.6195    2.5499   18.3205 H   0  0  0  0  0  0  0  0  0  0  0  0
  1  2  1  0
  2  3  2  0
  3  4  1  0
  4  5  1  0
  4  6  2  0
  6  7  1  0
  7  8  1  0
  8  9  1  0
  9 10  1  0
 10 11  2  0
 11 12  1  0
 11 13  1  0
 13 14  1  0
 13 15  2  0
 15 16  1  0
 15 17  1  0
 17 18  1  0
 17 19  2  0
 19 20  1  0
  9 21  2  0
 21 22  1  0
 21 23  1  0
 23 24  2  0
 23 25  1  0
 25 26  1  0
  6 27  1  0
 27 28  1  0
 27 29  2  0
 29 30  1  0
 29  2  1  0
 25  7  2  0
 19 10  1  0
M  END
>  <cnnaffinity>  (1) 
-5.22128

>  <filename>  (1) 
O=c1cc(-c2cccnc2)sc(-c2cccc(Cl)c2Cl)c1

$$$$
