
     RDKit          3D

 34 36  0  0  0  0  0  0  0  0999 V2000
    4.9637    1.8331   16.9252 H   0  0  0  0  0  0  0  0  0  0  0  0
    5.4145    1.3259   17.7750 C   0  0  0  0  0  0  0  0  0  0  0  0
    6.5679    0.6824   17.5335 N   0  0  0  0  0  0  0  0  0  0  0  0
    7.1460    0.0637   18.5688 C   0  0  0  0  0  0  0  0  0  0  0  0
    8.0760   -0.4605   18.3495 H   0  0  0  0  0  0  0  0  0  0  0  0
    6.6252    0.0294   19.8739 C   0  0  0  0  0  0  0  0  0  0  0  0
    7.3615   -0.7164   20.9309 C   0  0  0  0  0  0  0  0  0  0  0  0
    8.7803   -0.5808   21.0452 C   0  0  0  0  0  0  0  0  0  0  0  0
    9.2991    0.1321   20.4197 H   0  0  0  0  0  0  0  0  0  0  0  0
    9.4713   -1.3152   21.9575 C   0  0  0  0  0  0  0  0  0  0  0  0
   10.5486   -1.2160   22.0827 H   0  0  0  0  0  0  0  0  0  0  0  0
    8.8367   -2.2348   22.7663 N   0  0  0  0  0  0  0  0  0  0  0  0
    9.5493   -2.8848   23.8895 C   0  0  0  0  0  0  0  0  0  0  0  0
    9.2283   -3.9298   23.9251 H   0  0  0  0  0  0  0  0  0  0  0  0
   10.6289   -2.8741   23.6963 H   0  0  0  0  0  0  0  0  0  0  0  0
    9.2325   -2.2002   25.2154 C   0  0  0  0  0  0  0  0  0  0  0  0
    8.2025   -2.6806   26.0452 C   0  0  0  0  0  0  0  0  0  0  0  0
    7.7192   -3.6269   25.8125 H   0  0  0  0  0  0  0  0  0  0  0  0
    7.7060   -1.9087   27.0947 C   0  0  0  0  0  0  0  0  0  0  0  0
    6.8565   -2.2989   27.6426 H   0  0  0  0  0  0  0  0  0  0  0  0
    8.2727   -0.6643   27.3861 C   0  0  0  0  0  0  0  0  0  0  0  0
    7.8957   -0.0593   28.2054 H   0  0  0  0  0  0  0  0  0  0  0  0
    9.3408   -0.1958   26.6232 C   0  0  0  0  0  0  0  0  0  0  0  0
    9.7856    0.7773   26.7917 H   0  0  0  0  0  0  0  0  0  0  0  0
    9.8235   -0.9737   25.5713 C   0  0  0  0  0  0  0  0  0  0  0  0
   11.2366   -0.3539   24.7511 Cl  0  0  0  0  0  0  0  0  0  0  0  0
    7.4185   -2.4044   22.7226 C   0  0  0  0  0  0  0  0  0  0  0  0
    6.8567   -3.2231   23.4412 O   0  0  0  0  0  0  0  0  0  0  0  0
    6.7206   -1.5759   21.7725 C   0  0  0  0  0  0  0  0  0  0  0  0
    5.6549   -1.7250   21.7742 H   0  0  0  0  0  0  0  0  0  0  0  0
    5.4064    0.6910   20.0974 C   0  0  0  0  0  0  0  0  0  0  0  0
    4.9604    0.7064   21.0935 H   0  0  0  0  0  0  0  0  0  0  0  0
    4.7971    1.3533   19.0301 C   0  0  0  0  0  0  0  0  0  0  0  0
    3.8632    1.8905   19.1560 H   0  0  0  0  0  0  0  0  0  0  0  0
  1  2  1  0
  2  3  2  0
  3  4  1  0
  4  5  1  0
  4  6  2  0
  6  7  1  0
  7  8  1  0
  8  9  1  0
  8 10  2  0
 10 11  1  0
 10 12  1  0
 12 13  1  0
 13 14  1  0
 13 15  1  0
 13 16  1  0
 16 17  2  0
 17 18  1  0
 17 19  1  0
 19 20  1  0
 19 21  2  0
 21 22  1  0
 21 23  1  0
 23 24  1  0
 23 25  2  0
 25 26  1  0
 12 27  1  0
 27 28  2  0
 27 29  1  0
 29 30  1  0
  6 31  1  0
 31 32  1  0
 31 33  2  0
 33 34  1  0
 33  2  1  0
 29  7  2  0
 25 16  1  0
M  END
>  <cnnaffinity>  (1) 
-5.26042

>  <filename>  (1) 
O=c1cc(-c2cccnc2)ccn1Cc1ccccc1Cl

$$$$
