
     RDKit          3D

 33 35  0  0  0  0  0  0  0  0999 V2000
   11.3536    3.1205   21.2206 H   0  0  0  0  0  0  0  0  0  0  0  0
   11.0904    2.0936   21.4573 C   0  0  0  0  0  0  0  0  0  0  0  0
    9.7827    1.8397   21.5170 N   0  0  0  0  0  0  0  0  0  0  0  0
    9.4356    0.5862   21.8147 C   0  0  0  0  0  0  0  0  0  0  0  0
    7.9797    0.2832   22.0423 C   0  0  2  0  0  0  0  0  0  0  0  0
    7.4722    1.2497   21.9731 H   0  0  0  0  0  0  0  0  0  0  0  0
    7.6985   -0.3280   23.4402 C   0  0  0  0  0  0  0  0  0  0  0  0
    7.2849    0.4184   24.1377 H   0  0  0  0  0  0  0  0  0  0  0  0
    8.6103   -0.7448   23.8980 H   0  0  0  0  0  0  0  0  0  0  0  0
    6.7482   -1.3697   23.1406 N   0  0  0  0  0  0  0  0  0  0  0  0
    6.1936   -1.8939   23.7955 H   0  0  0  0  0  0  0  0  0  0  0  0
    6.5135   -1.6705   21.8407 C   0  0  0  0  0  0  0  0  0  0  0  0
    5.7769   -2.5594   21.4735 O   0  0  0  0  0  0  0  0  0  0  0  0
    7.3853   -0.7145   20.9959 C   0  0  1  0  0  0  0  0  0  0  0  0
    8.1687   -1.3664   20.5871 H   0  0  0  0  0  0  0  0  0  0  0  0
    6.6684   -0.0169   19.8429 C   0  0  0  0  0  0  0  0  0  0  0  0
    7.1778    0.0605   18.5273 C   0  0  0  0  0  0  0  0  0  0  0  0
    8.1336   -0.4039   18.2714 H   0  0  0  0  0  0  0  0  0  0  0  0
    6.5701    0.7031   17.5202 N   0  0  0  0  0  0  0  0  0  0  0  0
    5.4069    1.3191   17.7894 C   0  0  0  0  0  0  0  0  0  0  0  0
    4.9282    1.8354   16.9583 H   0  0  0  0  0  0  0  0  0  0  0  0
    4.8130    1.3145   19.0532 C   0  0  0  0  0  0  0  0  0  0  0  0
    3.8812    1.8426   19.2148 H   0  0  0  0  0  0  0  0  0  0  0  0
    5.4583    0.6425   20.0930 C   0  0  0  0  0  0  0  0  0  0  0  0
    5.0419    0.6410   21.1018 H   0  0  0  0  0  0  0  0  0  0  0  0
   10.2775   -0.4467   21.9115 N   0  0  0  0  0  0  0  0  0  0  0  0
   11.5905   -0.1854   21.8469 C   0  0  0  0  0  0  0  0  0  0  0  0
   12.6101   -1.3597   21.9014 C   0  0  0  0  0  0  0  0  0  0  0  0
   13.0490   -1.6810   20.6679 F   0  0  0  0  0  0  0  0  0  0  0  0
   13.7070   -0.9873   22.6000 F   0  0  0  0  0  0  0  0  0  0  0  0
   12.1190   -2.4664   22.4612 F   0  0  0  0  0  0  0  0  0  0  0  0
   12.0534    1.1221   21.6960 C   0  0  0  0  0  0  0  0  0  0  0  0
   13.1023    1.3690   21.7730 H   0  0  0  0  0  0  0  0  0  0  0  0
  1  2  1  0
  2  3  2  0
  3  4  1  0
  4  5  1  0
  5  6  1  1
  5  7  1  0
  7  8  1  0
  7  9  1  0
  7 10  1  0
 10 11  1  0
 10 12  1  0
 12 13  2  0
 12 14  1  0
 14 15  1  6
 14 16  1  0
 16 17  2  0
 17 18  1  0
 17 19  1  0
 19 20  2  0
 20 21  1  0
 20 22  1  0
 22 23  1  0
 22 24  2  0
 24 25  1  0
  4 26  2  0
 26 27  1  0
 27 28  1  0
 28 29  1  0
 28 30  1  0
 28 31  1  0
 27 32  2  0
 32 33  1  0
 32  2  1  0
 14  5  1  0
 24 16  1  0
M  END
>  <cnnaffinity>  (1) 
-5.34979

>  <filename>  (1) 
O=C1NC[C@@H](c2nccc(C(F)(F)F)n2)[C@@H]1c1cccnc1

$$$$
