
     RDKit          3D

 33 35  0  0  0  0  0  0  0  0999 V2000
    4.9175    1.8050   16.9739 H   0  0  0  0  0  0  0  0  0  0  0  0
    5.3893    1.3032   17.8169 C   0  0  0  0  0  0  0  0  0  0  0  0
    6.5503    0.6828   17.5525 N   0  0  0  0  0  0  0  0  0  0  0  0
    7.1664    0.0768   18.5749 C   0  0  0  0  0  0  0  0  0  0  0  0
    8.1054   -0.4197   18.3314 H   0  0  0  0  0  0  0  0  0  0  0  0
    6.6697    0.0226   19.8912 C   0  0  0  0  0  0  0  0  0  0  0  0
    7.4102   -0.6951   20.9623 C   0  0  0  0  0  0  0  0  0  0  0  0
    6.7283   -1.5552   21.8732 C   0  0  0  0  0  0  0  0  0  0  0  0
    5.6563   -1.6766   21.7414 H   0  0  0  0  0  0  0  0  0  0  0  0
    7.4065   -2.2215   22.8511 C   0  0  0  0  0  0  0  0  0  0  0  0
    6.9230   -2.8632   23.5736 H   0  0  0  0  0  0  0  0  0  0  0  0
    8.8446   -2.0795   23.0370 C   0  0  0  0  0  0  0  0  0  0  0  0
    9.4688   -2.6392   23.9138 O   0  0  0  0  0  0  0  0  0  0  0  0
    9.4642   -1.1895   22.1127 N   0  0  0  0  0  0  0  0  0  0  0  0
   10.8569   -1.0142   22.2822 C   0  0  0  0  0  0  0  0  0  0  0  0
   11.5959   -2.0479   21.9161 N   0  0  0  0  0  0  0  0  0  0  0  0
   12.9253   -1.9070   21.9424 C   0  0  0  0  0  0  0  0  0  0  0  0
   13.5218   -2.7509   21.6176 H   0  0  0  0  0  0  0  0  0  0  0  0
   13.5730   -0.7529   22.3736 C   0  0  0  0  0  0  0  0  0  0  0  0
   14.6542   -0.7398   22.3968 H   0  0  0  0  0  0  0  0  0  0  0  0
   12.8083    0.3243   22.8010 C   0  0  0  0  0  0  0  0  0  0  0  0
   13.2820    1.2393   23.1631 H   0  0  0  0  0  0  0  0  0  0  0  0
   11.4145    0.1838   22.7649 C   0  0  0  0  0  0  0  0  0  0  0  0
   10.5362    1.3154   23.1892 C   0  0  0  0  0  0  0  0  0  0  0  0
   11.2041    2.1737   23.9854 F   0  0  0  0  0  0  0  0  0  0  0  0
    9.4552    0.9083   23.8680 F   0  0  0  0  0  0  0  0  0  0  0  0
   10.1091    2.0276   22.1237 F   0  0  0  0  0  0  0  0  0  0  0  0
    8.7584   -0.5533   21.1074 C   0  0  0  0  0  0  0  0  0  0  0  0
    9.3236    0.1034   20.4511 H   0  0  0  0  0  0  0  0  0  0  0  0
    5.4424    0.6596   20.1362 C   0  0  0  0  0  0  0  0  0  0  0  0
    5.0189    0.6469   21.1417 H   0  0  0  0  0  0  0  0  0  0  0  0
    4.8010    1.3187   19.0862 C   0  0  0  0  0  0  0  0  0  0  0  0
    3.8668    1.8471   19.2371 H   0  0  0  0  0  0  0  0  0  0  0  0
  1  2  1  0
  2  3  2  0
  3  4  1  0
  4  5  1  0
  4  6  2  0
  6  7  1  0
  7  8  1  0
  8  9  1  0
  8 10  2  0
 10 11  1  0
 10 12  1  0
 12 13  2  0
 12 14  1  0
 14 15  1  0
 15 16  2  0
 16 17  1  0
 17 18  1  0
 17 19  2  0
 19 20  1  0
 19 21  1  0
 21 22  1  0
 21 23  2  0
 23 24  1  0
 24 25  1  0
 24 26  1  0
 24 27  1  0
 14 28  1  0
 28 29  1  0
  6 30  1  0
 30 31  1  0
 30 32  2  0
 32 33  1  0
 32  2  1  0
 28  7  2  0
 23 15  1  0
M  END
>  <cnnaffinity>  (1) 
-5.97634

>  <filename>  (1) 
O=c1ccc(-c2cccnc2)cn1-c1ncccc1C(F)(F)F

$$$$
