
     RDKit          3D

 27 29  0  0  0  0  0  0  0  0999 V2000
    4.9141    1.7745   17.0040 H   0  0  0  0  0  0  0  0  0  0  0  0
    5.4045    1.2918   17.8452 C   0  0  0  0  0  0  0  0  0  0  0  0
    6.5718    0.6804   17.5843 N   0  0  0  0  0  0  0  0  0  0  0  0
    7.1753    0.0544   18.5978 C   0  0  0  0  0  0  0  0  0  0  0  0
    8.1228   -0.4364   18.3773 H   0  0  0  0  0  0  0  0  0  0  0  0
    6.6526    0.0112   19.8963 C   0  0  0  0  0  0  0  0  0  0  0  0
    7.3744   -0.7464   20.9052 C   0  0  0  0  0  0  0  0  0  0  0  0
    7.9464   -1.8883   20.6746 N   0  0  0  0  0  0  0  0  0  0  0  0
    8.4289   -2.2579   21.9006 N   0  0  0  0  0  0  0  0  0  0  0  0
    8.9376   -3.1081   22.0626 H   0  0  0  0  0  0  0  0  0  0  0  0
    8.2076   -1.3587   22.8941 C   0  0  0  0  0  0  0  0  0  0  0  0
    8.5572   -1.4193   24.0562 O   0  0  0  0  0  0  0  0  0  0  0  0
    7.4966   -0.3376   22.2307 N   0  0  0  0  0  0  0  0  0  0  0  0
    7.1329    0.9160   22.8513 C   0  0  0  0  0  0  0  0  0  0  0  0
    7.4088    2.1731   22.2606 C   0  0  0  0  0  0  0  0  0  0  0  0
    7.9013    2.1955   21.2887 H   0  0  0  0  0  0  0  0  0  0  0  0
    7.0860    3.3471   22.8191 N   0  0  0  0  0  0  0  0  0  0  0  0
    6.4751    3.3320   24.0117 C   0  0  0  0  0  0  0  0  0  0  0  0
    6.2233    4.2974   24.4510 H   0  0  0  0  0  0  0  0  0  0  0  0
    6.1654    2.1491   24.6881 C   0  0  0  0  0  0  0  0  0  0  0  0
    5.6788    2.1867   25.6586 H   0  0  0  0  0  0  0  0  0  0  0  0
    6.5003    0.9239   24.1005 C   0  0  0  0  0  0  0  0  0  0  0  0
    6.2790   -0.0117   24.6086 H   0  0  0  0  0  0  0  0  0  0  0  0
    5.4329    0.6523   20.1571 C   0  0  0  0  0  0  0  0  0  0  0  0
    5.0071    0.6327   21.1626 H   0  0  0  0  0  0  0  0  0  0  0  0
    4.8023    1.3111   19.1090 C   0  0  0  0  0  0  0  0  0  0  0  0
    3.8723    1.8448   19.2632 H   0  0  0  0  0  0  0  0  0  0  0  0
  1  2  1  0
  2  3  2  0
  3  4  1  0
  4  5  1  0
  4  6  2  0
  6  7  1  0
  7  8  2  0
  8  9  1  0
  9 10  1  0
  9 11  1  0
 11 12  2  0
 11 13  1  0
 13 14  1  0
 14 15  2  0
 15 16  1  0
 15 17  1  0
 17 18  2  0
 18 19  1  0
 18 20  1  0
 20 21  1  0
 20 22  2  0
 22 23  1  0
  6 24  1  0
 24 25  1  0
 24 26  2  0
 26 27  1  0
 26  2  1  0
 13  7  1  0
 22 14  1  0
M  END
>  <cnnaffinity>  (1) 
-4.92569

>  <filename>  (1) 
O=c1[nH]nc(-c2cccnc2)n1-c1cccnc1

$$$$
