
     RDKit          3D

 32 34  0  0  0  0  0  0  0  0999 V2000
    4.9829    1.8464   16.9091 H   0  0  0  0  0  0  0  0  0  0  0  0
    5.4275    1.3324   17.7596 C   0  0  0  0  0  0  0  0  0  0  0  0
    6.5816    0.6895   17.5132 N   0  0  0  0  0  0  0  0  0  0  0  0
    7.1594    0.0633   18.5451 C   0  0  0  0  0  0  0  0  0  0  0  0
    8.1021   -0.4403   18.3310 H   0  0  0  0  0  0  0  0  0  0  0  0
    6.6210    0.0033   19.8481 C   0  0  0  0  0  0  0  0  0  0  0  0
    7.3296   -0.7232   20.9318 C   0  0  0  0  0  0  0  0  0  0  0  0
    6.6606   -1.6103   21.8250 C   0  0  0  0  0  0  0  0  0  0  0  0
    5.5801   -1.7408   21.7244 H   0  0  0  0  0  0  0  0  0  0  0  0
    7.3774   -2.2994   22.7632 C   0  0  0  0  0  0  0  0  0  0  0  0
    6.9425   -2.9617   23.4956 H   0  0  0  0  0  0  0  0  0  0  0  0
    8.8244   -2.1964   22.9027 C   0  0  0  0  0  0  0  0  0  0  0  0
    9.4639   -2.8013   23.7459 O   0  0  0  0  0  0  0  0  0  0  0  0
    9.4326   -1.2940   21.9522 N   0  0  0  0  0  0  0  0  0  0  0  0
   10.7958   -0.9787   21.9197 N   0  0  0  0  0  0  0  0  0  0  0  0
   11.3872   -1.7152   21.5464 H   0  0  0  0  0  0  0  0  0  0  0  0
   11.3931   -0.2796   22.9626 C   0  0  0  0  0  0  0  0  0  0  0  0
   12.7636   -0.0202   22.8586 C   0  0  0  0  0  0  0  0  0  0  0  0
   13.2788   -0.2522   21.9369 H   0  0  0  0  0  0  0  0  0  0  0  0
   13.4021    0.5751   23.9384 C   0  0  0  0  0  0  0  0  0  0  0  0
   14.4634    0.7991   23.8922 H   0  0  0  0  0  0  0  0  0  0  0  0
   12.7848    0.9300   25.0685 N   0  0  0  0  0  0  0  0  0  0  0  0
   11.4620    0.7195   25.1326 C   0  0  0  0  0  0  0  0  0  0  0  0
   10.9673    1.0316   26.0515 H   0  0  0  0  0  0  0  0  0  0  0  0
   10.7174    0.1544   24.1011 C   0  0  0  0  0  0  0  0  0  0  0  0
    9.6483    0.0123   24.1962 H   0  0  0  0  0  0  0  0  0  0  0  0
    8.6777   -0.5579   21.0639 C   0  0  0  0  0  0  0  0  0  0  0  0
    9.2450    0.1801   20.5038 H   0  0  0  0  0  0  0  0  0  0  0  0
    5.4113    0.6728   20.0742 C   0  0  0  0  0  0  0  0  0  0  0  0
    4.9853    0.6869   21.0781 H   0  0  0  0  0  0  0  0  0  0  0  0
    4.8054    1.3536   19.0148 C   0  0  0  0  0  0  0  0  0  0  0  0
    3.8775    1.9041   19.1461 H   0  0  0  0  0  0  0  0  0  0  0  0
  1  2  1  0
  2  3  2  0
  3  4  1  0
  4  5  1  0
  4  6  2  0
  6  7  1  0
  7  8  1  0
  8  9  1  0
  8 10  2  0
 10 11  1  0
 10 12  1  0
 12 13  2  0
 12 14  1  0
 14 15  1  0
 15 16  1  0
 15 17  1  0
 17 18  2  0
 18 19  1  0
 18 20  1  0
 20 21  1  0
 20 22  2  0
 22 23  1  0
 23 24  1  0
 23 25  2  0
 25 26  1  0
 14 27  1  0
 27 28  1  0
  6 29  1  0
 29 30  1  0
 29 31  2  0
 31 32  1  0
 31  2  1  0
 27  7  2  0
 25 17  1  0
M  END
>  <cnnaffinity>  (1) 
-5.41173

>  <filename>  (1) 
O=c1ccc(-c2cccnc2)cn1Nc1ccncc1

$$$$
