
     RDKit          3D

 35 38  0  0  0  0  0  0  0  0999 V2000
    4.9322    1.7985   16.7350 H   0  0  0  0  0  0  0  0  0  0  0  0
    5.3219    1.3915   17.6652 C   0  0  0  0  0  0  0  0  0  0  0  0
    6.5107    0.7789   17.5726 N   0  0  0  0  0  0  0  0  0  0  0  0
    7.0230    0.2733   18.7031 C   0  0  0  0  0  0  0  0  0  0  0  0
    7.9966   -0.1993   18.5991 H   0  0  0  0  0  0  0  0  0  0  0  0
    6.4108    0.3402   19.9725 C   0  0  0  0  0  0  0  0  0  0  0  0
    7.1143   -0.2144   21.2105 C   0  0  2  0  0  0  0  0  0  0  0  0
    6.4793   -0.0036   22.0773 H   0  0  0  0  0  0  0  0  0  0  0  0
    8.5236    0.4051   21.4311 C   0  0  0  0  0  0  0  0  0  0  0  0
    8.6278    1.3898   20.9547 H   0  0  0  0  0  0  0  0  0  0  0  0
    8.7358    0.5224   22.5101 H   0  0  0  0  0  0  0  0  0  0  0  0
    9.3995   -0.5635   20.7992 N   0  0  0  0  0  0  0  0  0  0  0  0
   10.4070   -0.5338   20.8212 H   0  0  0  0  0  0  0  0  0  0  0  0
    8.9162   -1.8339   20.8698 C   0  0  0  0  0  0  0  0  0  0  0  0
    9.6006   -2.8203   20.7549 O   0  0  0  0  0  0  0  0  0  0  0  0
    7.4120   -1.7549   21.0846 C   0  0  1  0  0  0  0  0  0  0  0  0
    6.9498   -2.1708   20.1842 H   0  0  0  0  0  0  0  0  0  0  0  0
    6.9834   -2.6687   22.2017 C   0  0  0  0  0  0  0  0  0  0  0  0
    5.9325   -3.5082   21.9108 O   0  0  0  0  0  0  0  0  0  0  0  0
    5.7319   -4.2950   23.0106 C   0  0  0  0  0  0  0  0  0  0  0  0
    4.7961   -5.3307   23.1392 C   0  0  0  0  0  0  0  0  0  0  0  0
    4.1635   -5.6282   22.3103 H   0  0  0  0  0  0  0  0  0  0  0  0
    4.7430   -5.9734   24.3770 C   0  0  0  0  0  0  0  0  0  0  0  0
    4.0227   -6.7742   24.5354 H   0  0  0  0  0  0  0  0  0  0  0  0
    5.6123   -5.6134   25.4311 C   0  0  0  0  0  0  0  0  0  0  0  0
    5.5301   -6.1247   26.3877 H   0  0  0  0  0  0  0  0  0  0  0  0
    6.5750   -4.6237   25.2557 C   0  0  0  0  0  0  0  0  0  0  0  0
    7.2752   -4.3766   26.0498 H   0  0  0  0  0  0  0  0  0  0  0  0
    6.6451   -3.9545   24.0191 C   0  0  0  0  0  0  0  0  0  0  0  0
    7.4730   -2.9171   23.4418 C   0  0  0  0  0  0  0  0  0  0  0  0
    8.3464   -2.4665   23.8915 H   0  0  0  0  0  0  0  0  0  0  0  0
    5.1589    0.9812   20.0328 C   0  0  0  0  0  0  0  0  0  0  0  0
    4.6256    1.0893   20.9816 H   0  0  0  0  0  0  0  0  0  0  0  0
    4.6037    1.5109   18.8598 C   0  0  0  0  0  0  0  0  0  0  0  0
    3.6416    2.0209   18.8529 H   0  0  0  0  0  0  0  0  0  0  0  0
  1  2  1  0
  2  3  2  0
  3  4  1  0
  4  5  1  0
  4  6  2  0
  6  7  1  0
  7  8  1  1
  7  9  1  0
  9 10  1  0
  9 11  1  0
  9 12  1  0
 12 13  1  0
 12 14  1  0
 14 15  2  0
 14 16  1  0
 16 17  1  6
 16 18  1  0
 18 19  1  0
 19 20  1  0
 20 21  2  0
 21 22  1  0
 21 23  1  0
 23 24  1  0
 23 25  2  0
 25 26  1  0
 25 27  1  0
 27 28  1  0
 27 29  2  0
 29 30  1  0
 30 31  1  0
  6 32  1  0
 32 33  1  0
 32 34  2  0
 34 35  1  0
 34  2  1  0
 16  7  1  0
 30 18  2  0
 29 20  1  0
M  END
>  <cnnaffinity>  (1) 
-5.21609

>  <filename>  (1) 
O=C1NC[C@@H](c2cccnc2)[C@@H]1c1cc2ccccc2o1

$$$$
