
     RDKit          3D

 31 33  0  0  0  0  0  0  0  0999 V2000
    4.9363    1.8347   16.9632 H   0  0  0  0  0  0  0  0  0  0  0  0
    5.4099    1.3323   17.8035 C   0  0  0  0  0  0  0  0  0  0  0  0
    6.5727    0.7133   17.5416 N   0  0  0  0  0  0  0  0  0  0  0  0
    7.1746    0.0687   18.5489 C   0  0  0  0  0  0  0  0  0  0  0  0
    8.1256   -0.4161   18.3205 H   0  0  0  0  0  0  0  0  0  0  0  0
    6.6352   -0.0162   19.8479 C   0  0  0  0  0  0  0  0  0  0  0  0
    7.3244   -0.7137   20.9081 N   0  0  0  0  0  0  0  0  0  0  0  0
    8.5830   -0.2737   21.2756 C   0  0  0  0  0  0  0  0  0  0  0  0
    8.9560    0.5857   20.7233 H   0  0  0  0  0  0  0  0  0  0  0  0
    9.3209   -0.8671   22.2651 C   0  0  0  0  0  0  0  0  0  0  0  0
   10.7071   -0.3693   22.5645 C   0  0  0  0  0  0  0  0  0  0  0  0
   11.8468   -1.1910   22.4932 C   0  0  0  0  0  0  0  0  0  0  0  0
   11.7004   -2.4994   22.2293 F   0  0  0  0  0  0  0  0  0  0  0  0
   13.1503   -0.7417   22.6947 C   0  0  0  0  0  0  0  0  0  0  0  0
   13.9457   -1.4587   22.5278 H   0  0  0  0  0  0  0  0  0  0  0  0
   13.3602    0.5752   23.0966 C   0  0  0  0  0  0  0  0  0  0  0  0
   14.3540    0.9365   23.3426 H   0  0  0  0  0  0  0  0  0  0  0  0
   12.2717    1.4426   23.1977 C   0  0  0  0  0  0  0  0  0  0  0  0
   12.3723    2.4645   23.5356 H   0  0  0  0  0  0  0  0  0  0  0  0
   10.9980    0.9715   22.8837 C   0  0  0  0  0  0  0  0  0  0  0  0
    9.9960    1.8659   22.9465 F   0  0  0  0  0  0  0  0  0  0  0  0
    8.7402   -1.9779   22.9677 C   0  0  0  0  0  0  0  0  0  0  0  0
    9.3109   -2.4843   23.7523 H   0  0  0  0  0  0  0  0  0  0  0  0
    7.4818   -2.3947   22.6610 C   0  0  0  0  0  0  0  0  0  0  0  0
    6.9819   -3.2076   23.1680 H   0  0  0  0  0  0  0  0  0  0  0  0
    6.6828   -1.8083   21.5937 C   0  0  0  0  0  0  0  0  0  0  0  0
    5.5817   -2.2318   21.2827 O   0  0  0  0  0  0  0  0  0  0  0  0
    5.4249    0.6370   20.1094 C   0  0  0  0  0  0  0  0  0  0  0  0
    5.0091    0.6137   21.1157 H   0  0  0  0  0  0  0  0  0  0  0  0
    4.8055    1.3264   19.0638 C   0  0  0  0  0  0  0  0  0  0  0  0
    3.8728    1.8583   19.2117 H   0  0  0  0  0  0  0  0  0  0  0  0
  1  2  1  0
  2  3  2  0
  3  4  1  0
  4  5  1  0
  4  6  2  0
  6  7  1  0
  7  8  1  0
  8  9  1  0
  8 10  2  0
 10 11  1  0
 11 12  2  0
 12 13  1  0
 12 14  1  0
 14 15  1  0
 14 16  2  0
 16 17  1  0
 16 18  1  0
 18 19  1  0
 18 20  2  0
 20 21  1  0
 10 22  1  0
 22 23  1  0
 22 24  2  0
 24 25  1  0
 24 26  1  0
 26 27  2  0
  6 28  1  0
 28 29  1  0
 28 30  2  0
 30 31  1  0
 30  2  1  0
 26  7  1  0
 20 11  1  0
M  END
>  <cnnaffinity>  (1) 
-5.2676

>  <filename>  (1) 
O=c1ccc(-c2c(F)cccc2F)cn1-c1cccnc1

$$$$
