
     RDKit          3D

 32 34  0  0  0  0  0  0  0  0999 V2000
    4.8800    1.8400   17.0151 H   0  0  0  0  0  0  0  0  0  0  0  0
    5.4097    1.3142   17.8082 C   0  0  0  0  0  0  0  0  0  0  0  0
    6.5693    0.7298   17.4614 N   0  0  0  0  0  0  0  0  0  0  0  0
    7.2521    0.0856   18.4173 C   0  0  0  0  0  0  0  0  0  0  0  0
    8.1896   -0.3817   18.1296 H   0  0  0  0  0  0  0  0  0  0  0  0
    6.8065   -0.0236   19.7557 C   0  0  0  0  0  0  0  0  0  0  0  0
    7.5132   -0.7530   20.7780 N   0  0  0  0  0  0  0  0  0  0  0  0
    8.8379   -0.5937   21.1652 C   0  0  0  0  0  0  0  0  0  0  0  0
    9.6595    0.0980   20.6281 O   0  0  0  0  0  0  0  0  0  0  0  0
    8.9834   -1.4944   22.4183 C   0  0  0  0  0  0  0  0  0  0  0  0
    9.9618   -1.8272   23.0358 O   0  0  0  0  0  0  0  0  0  0  0  0
    7.6976   -1.8930   22.7100 N   0  0  0  0  0  0  0  0  0  0  0  0
    7.3320   -2.8171   23.7863 C   0  0  0  0  0  0  0  0  0  0  0  0
    8.0873   -2.7115   24.5723 H   0  0  0  0  0  0  0  0  0  0  0  0
    6.3715   -2.5227   24.2208 H   0  0  0  0  0  0  0  0  0  0  0  0
    7.2594   -4.2529   23.2881 C   0  0  0  0  0  0  0  0  0  0  0  0
    8.4502   -4.9315   22.9644 C   0  0  0  0  0  0  0  0  0  0  0  0
    9.3941   -4.3973   23.0551 H   0  0  0  0  0  0  0  0  0  0  0  0
    8.4256   -6.2543   22.5080 C   0  0  0  0  0  0  0  0  0  0  0  0
    9.3364   -6.8122   22.3155 H   0  0  0  0  0  0  0  0  0  0  0  0
    7.2037   -6.8911   22.2931 C   0  0  0  0  0  0  0  0  0  0  0  0
    7.1795   -7.8947   21.8794 H   0  0  0  0  0  0  0  0  0  0  0  0
    6.0094   -6.2358   22.5829 C   0  0  0  0  0  0  0  0  0  0  0  0
    5.0528   -6.7198   22.4224 H   0  0  0  0  0  0  0  0  0  0  0  0
    6.0422   -4.9312   23.0859 C   0  0  0  0  0  0  0  0  0  0  0  0
    4.5083   -4.1777   23.4266 Cl  0  0  0  0  0  0  0  0  0  0  0  0
    6.8770   -1.6647   21.6226 C   0  0  0  0  0  0  0  0  0  0  0  0
    5.8262   -2.1995   21.4059 O   0  0  0  0  0  0  0  0  0  0  0  0
    5.5820    0.5627   20.0896 C   0  0  0  0  0  0  0  0  0  0  0  0
    5.1937    0.4533   21.1021 H   0  0  0  0  0  0  0  0  0  0  0  0
    4.8768    1.2598   19.1018 C   0  0  0  0  0  0  0  0  0  0  0  0
    3.9328    1.7529   19.3232 H   0  0  0  0  0  0  0  0  0  0  0  0
  1  2  1  0
  2  3  2  0
  3  4  1  0
  4  5  1  0
  4  6  2  0
  6  7  1  0
  7  8  1  0
  8  9  2  0
  8 10  1  0
 10 11  2  0
 10 12  1  0
 12 13  1  0
 13 14  1  0
 13 15  1  0
 13 16  1  0
 16 17  2  0
 17 18  1  0
 17 19  1  0
 19 20  1  0
 19 21  2  0
 21 22  1  0
 21 23  1  0
 23 24  1  0
 23 25  2  0
 25 26  1  0
 12 27  1  0
 27 28  2  0
  6 29  1  0
 29 30  1  0
 29 31  2  0
 31 32  1  0
 31  2  1  0
 27  7  1  0
 25 16  1  0
M  END
>  <cnnaffinity>  (1) 
-5.10956

>  <filename>  (1) 
O=C1C(=O)N(c2cccnc2)C(=O)N1Cc1ccccc1Cl

$$$$
