
     RDKit          3D

 39 41  0  0  0  0  0  0  0  0999 V2000
    4.9916    1.8325   16.9650 H   0  0  0  0  0  0  0  0  0  0  0  0
    5.4777    1.3192   17.7928 C   0  0  0  0  0  0  0  0  0  0  0  0
    6.6715    0.7662   17.5291 N   0  0  0  0  0  0  0  0  0  0  0  0
    7.2970    0.1424   18.5314 C   0  0  0  0  0  0  0  0  0  0  0  0
    8.2747   -0.2734   18.2965 H   0  0  0  0  0  0  0  0  0  0  0  0
    6.7504   -0.0193   19.8171 C   0  0  0  0  0  0  0  0  0  0  0  0
    7.5091   -0.8004   20.8179 C   0  0  0  0  0  0  0  0  0  0  0  0
    8.8065   -0.5661   20.9341 N   0  0  0  0  0  0  0  0  0  0  0  0
    9.4999   -1.1253   22.0000 C   0  0  0  0  0  0  0  0  0  0  0  0
   10.9711   -0.7862   22.1578 C   0  0  0  0  0  0  0  0  0  0  0  0
   11.3176   -0.3471   21.2188 H   0  0  0  0  0  0  0  0  0  0  0  0
   11.5437   -1.7120   22.3137 H   0  0  0  0  0  0  0  0  0  0  0  0
   11.2475    0.1886   23.3380 C   0  0  0  0  0  0  0  0  0  0  0  0
   10.8318   -0.2759   24.2463 H   0  0  0  0  0  0  0  0  0  0  0  0
   12.7463    0.4358   23.6412 C   0  0  0  0  0  0  0  0  0  0  0  0
   12.8298    0.8399   24.6590 H   0  0  0  0  0  0  0  0  0  0  0  0
   13.2918   -0.5095   23.6357 H   0  0  0  0  0  0  0  0  0  0  0  0
   13.4729    1.3965   22.6917 C   0  0  0  0  0  0  0  0  0  0  0  0
   13.6448    0.8709   21.7516 H   0  0  0  0  0  0  0  0  0  0  0  0
   14.4710    1.6162   23.0936 H   0  0  0  0  0  0  0  0  0  0  0  0
   12.6845    2.6903   22.4524 C   0  0  0  0  0  0  0  0  0  0  0  0
   12.6523    3.2659   23.3880 H   0  0  0  0  0  0  0  0  0  0  0  0
   13.1795    3.3326   21.7139 H   0  0  0  0  0  0  0  0  0  0  0  0
   11.2419    2.3817   22.0298 C   0  0  0  0  0  0  0  0  0  0  0  0
   11.2396    1.8311   21.0775 H   0  0  0  0  0  0  0  0  0  0  0  0
   10.6951    3.3124   21.8478 H   0  0  0  0  0  0  0  0  0  0  0  0
   10.5409    1.5412   23.1111 C   0  0  0  0  0  0  0  0  0  0  0  0
   10.5647    2.1150   24.0480 H   0  0  0  0  0  0  0  0  0  0  0  0
    9.4861    1.3788   22.8619 H   0  0  0  0  0  0  0  0  0  0  0  0
    8.8803   -1.9119   22.9320 C   0  0  0  0  0  0  0  0  0  0  0  0
    9.3883   -2.2796   23.8222 H   0  0  0  0  0  0  0  0  0  0  0  0
    7.5514   -2.2607   22.7515 N   0  0  0  0  0  0  0  0  0  0  0  0
    7.0494   -2.9093   23.3419 H   0  0  0  0  0  0  0  0  0  0  0  0
    6.7927   -1.8565   21.6578 C   0  0  0  0  0  0  0  0  0  0  0  0
    5.6998   -2.3806   21.4914 O   0  0  0  0  0  0  0  0  0  0  0  0
    5.5086    0.5890   20.0841 C   0  0  0  0  0  0  0  0  0  0  0  0
    5.0606    0.5472   21.0785 H   0  0  0  0  0  0  0  0  0  0  0  0
    4.8681    1.2729   19.0498 C   0  0  0  0  0  0  0  0  0  0  0  0
    3.9296    1.7934   19.2074 H   0  0  0  0  0  0  0  0  0  0  0  0
  1  2  1  0
  2  3  2  0
  3  4  1  0
  4  5  1  0
  4  6  2  0
  6  7  1  0
  7  8  2  0
  8  9  1  0
  9 10  1  0
 10 11  1  0
 10 12  1  0
 10 13  1  0
 13 14  1  0
 13 15  1  0
 15 16  1  0
 15 17  1  0
 15 18  1  0
 18 19  1  0
 18 20  1  0
 18 21  1  0
 21 22  1  0
 21 23  1  0
 21 24  1  0
 24 25  1  0
 24 26  1  0
 24 27  1  0
 27 28  1  0
 27 29  1  0
  9 30  2  0
 30 31  1  0
 30 32  1  0
 32 33  1  0
 32 34  1  0
 34 35  2  0
  6 36  1  0
 36 37  1  0
 36 38  2  0
 38 39  1  0
 38  2  1  0
 34  7  1  0
 27 13  1  0
M  END
>  <cnnaffinity>  (1) 
-5.33979

>  <filename>  (1) 
O=c1[nH]cc(CC2CCCCC2)nc1-c1cccnc1

$$$$
