
     RDKit          3D

 29 31  0  0  0  0  0  0  0  0999 V2000
    4.9195    1.7751   16.9996 H   0  0  0  0  0  0  0  0  0  0  0  0
    5.4056    1.2906   17.8428 C   0  0  0  0  0  0  0  0  0  0  0  0
    6.5705    0.6722   17.5885 N   0  0  0  0  0  0  0  0  0  0  0  0
    7.1710    0.0591   18.6135 C   0  0  0  0  0  0  0  0  0  0  0  0
    8.1148   -0.4307   18.3751 H   0  0  0  0  0  0  0  0  0  0  0  0
    6.6380    0.0037   19.9111 C   0  0  0  0  0  0  0  0  0  0  0  0
    7.3287   -0.7261   21.0002 C   0  0  0  0  0  0  0  0  0  0  0  0
    6.5712   -1.3054   21.9119 N   0  0  0  0  0  0  0  0  0  0  0  0
    7.1765   -1.9499   22.9628 N   0  0  0  0  0  0  0  0  0  0  0  0
    6.2910   -2.5260   23.9482 C   0  0  0  0  0  0  0  0  0  0  0  0
    5.1728   -3.2902   23.5652 C   0  0  0  0  0  0  0  0  0  0  0  0
    4.9728   -3.4408   22.5098 H   0  0  0  0  0  0  0  0  0  0  0  0
    4.3317   -3.8619   24.4380 N   0  0  0  0  0  0  0  0  0  0  0  0
    4.5686   -3.6738   25.7462 C   0  0  0  0  0  0  0  0  0  0  0  0
    3.8668   -4.1330   26.4398 H   0  0  0  0  0  0  0  0  0  0  0  0
    5.6490   -2.9314   26.2280 C   0  0  0  0  0  0  0  0  0  0  0  0
    5.7960   -2.8129   27.2974 H   0  0  0  0  0  0  0  0  0  0  0  0
    6.5356   -2.3515   25.3171 C   0  0  0  0  0  0  0  0  0  0  0  0
    7.3878   -1.7728   25.6607 H   0  0  0  0  0  0  0  0  0  0  0  0
    8.6066   -2.1064   23.1168 C   0  0  0  0  0  0  0  0  0  0  0  0
    9.1112   -2.7446   24.0243 O   0  0  0  0  0  0  0  0  0  0  0  0
    9.3727   -1.4355   22.0699 C   0  0  0  0  0  0  0  0  0  0  0  0
   10.4475   -1.5328   22.1758 H   0  0  0  0  0  0  0  0  0  0  0  0
    8.7687   -0.7717   21.0516 C   0  0  0  0  0  0  0  0  0  0  0  0
    9.3569   -0.2510   20.2940 H   0  0  0  0  0  0  0  0  0  0  0  0
    5.4235    0.6548   20.1604 C   0  0  0  0  0  0  0  0  0  0  0  0
    5.0010    0.6239   21.1673 H   0  0  0  0  0  0  0  0  0  0  0  0
    4.8033    1.3171   19.1058 C   0  0  0  0  0  0  0  0  0  0  0  0
    3.8706    1.8478   19.2581 H   0  0  0  0  0  0  0  0  0  0  0  0
  1  2  1  0
  2  3  2  0
  3  4  1  0
  4  5  1  0
  4  6  2  0
  6  7  1  0
  7  8  2  0
  8  9  1  0
  9 10  1  0
 10 11  2  0
 11 12  1  0
 11 13  1  0
 13 14  2  0
 14 15  1  0
 14 16  1  0
 16 17  1  0
 16 18  2  0
 18 19  1  0
  9 20  1  0
 20 21  2  0
 20 22  1  0
 22 23  1  0
 22 24  2  0
 24 25  1  0
  6 26  1  0
 26 27  1  0
 26 28  2  0
 28 29  1  0
 28  2  1  0
 24  7  1  0
 18 10  1  0
M  END
>  <cnnaffinity>  (1) 
-4.82063

>  <filename>  (1) 
O=c1ccc(-c2cccnc2)nn1-c1cccnc1

$$$$
