
     RDKit          3D

 29 31  0  0  0  0  0  0  0  0999 V2000
    5.0274    1.8920   16.7573 H   0  0  0  0  0  0  0  0  0  0  0  0
    5.4928    1.3923   17.5999 C   0  0  0  0  0  0  0  0  0  0  0  0
    6.6413    0.7514   17.3249 N   0  0  0  0  0  0  0  0  0  0  0  0
    7.2418    0.1054   18.3326 C   0  0  0  0  0  0  0  0  0  0  0  0
    8.1661   -0.4115   18.0665 H   0  0  0  0  0  0  0  0  0  0  0  0
    6.7290    0.0613   19.6459 C   0  0  0  0  0  0  0  0  0  0  0  0
    7.3425   -0.7078   20.7252 C   0  0  0  0  0  0  0  0  0  0  0  0
    6.7574   -1.2801   21.7972 C   0  0  0  0  0  0  0  0  0  0  0  0
    5.7213   -1.3009   22.0784 H   0  0  0  0  0  0  0  0  0  0  0  0
    7.7241   -1.9281   22.5631 N   0  0  0  0  0  0  0  0  0  0  0  0
    7.4974   -2.6497   23.7676 C   0  0  0  0  0  0  0  0  0  0  0  0
    6.2623   -3.2802   23.9783 C   0  0  0  0  0  0  0  0  0  0  0  0
    5.5037   -3.2330   23.2048 H   0  0  0  0  0  0  0  0  0  0  0  0
    6.0119   -3.9519   25.1763 C   0  0  0  0  0  0  0  0  0  0  0  0
    5.0434   -4.3912   25.3855 H   0  0  0  0  0  0  0  0  0  0  0  0
    7.0084   -4.0628   26.1498 C   0  0  0  0  0  0  0  0  0  0  0  0
    6.6557   -4.8883   27.6294 Cl  0  0  0  0  0  0  0  0  0  0  0  0
    8.2635   -3.4892   25.9020 C   0  0  0  0  0  0  0  0  0  0  0  0
    9.5791   -3.6964   26.9931 Cl  0  0  0  0  0  0  0  0  0  0  0  0
    8.4926   -2.7406   24.7466 C   0  0  0  0  0  0  0  0  0  0  0  0
    9.4402   -2.2321   24.6243 H   0  0  0  0  0  0  0  0  0  0  0  0
    8.9686   -1.7243   21.9532 C   0  0  0  0  0  0  0  0  0  0  0  0
   10.0800   -2.0404   22.3125 O   0  0  0  0  0  0  0  0  0  0  0  0
    8.6907   -1.0372   20.7898 N   0  0  0  0  0  0  0  0  0  0  0  0
    9.4731   -0.5442   20.3971 H   0  0  0  0  0  0  0  0  0  0  0  0
    5.5313    0.7547   19.9092 C   0  0  0  0  0  0  0  0  0  0  0  0
    5.1296    0.7903   20.9257 H   0  0  0  0  0  0  0  0  0  0  0  0
    4.8976    1.4245   18.8676 C   0  0  0  0  0  0  0  0  0  0  0  0
    3.9651    1.9607   19.0254 H   0  0  0  0  0  0  0  0  0  0  0  0
  1  2  1  0
  2  3  2  0
  3  4  1  0
  4  5  1  0
  4  6  2  0
  6  7  1  0
  7  8  2  0
  8  9  1  0
  8 10  1  0
 10 11  1  0
 11 12  2  0
 12 13  1  0
 12 14  1  0
 14 15  1  0
 14 16  2  0
 16 17  1  0
 16 18  1  0
 18 19  1  0
 18 20  2  0
 20 21  1  0
 10 22  1  0
 22 23  2  0
 22 24  1  0
 24 25  1  0
  6 26  1  0
 26 27  1  0
 26 28  2  0
 28 29  1  0
 28  2  1  0
 24  7  1  0
 20 11  1  0
M  END
>  <cnnaffinity>  (1) 
-5.6444

>  <filename>  (1) 
O=c1[nH]c(-c2cccnc2)cn1-c1ccc(Cl)c(Cl)c1

$$$$
