
     RDKit          3D

 30 32  0  0  0  0  0  0  0  0999 V2000
    4.9388    1.8020   16.9861 H   0  0  0  0  0  0  0  0  0  0  0  0
    5.3906    1.2966   17.8382 C   0  0  0  0  0  0  0  0  0  0  0  0
    6.5431    0.6624   17.5834 N   0  0  0  0  0  0  0  0  0  0  0  0
    7.1297    0.0286   18.6016 C   0  0  0  0  0  0  0  0  0  0  0  0
    8.1056   -0.4109   18.4006 H   0  0  0  0  0  0  0  0  0  0  0  0
    6.5920   -0.0394   19.8996 C   0  0  0  0  0  0  0  0  0  0  0  0
    7.3190   -0.7526   20.9891 C   0  0  0  0  0  0  0  0  0  0  0  0
    6.5774   -1.5181   21.7504 N   0  0  0  0  0  0  0  0  0  0  0  0
    7.1598   -2.1848   22.7997 N   0  0  0  0  0  0  0  0  0  0  0  0
    6.2951   -2.9876   23.6178 C   0  0  0  0  0  0  0  0  0  0  0  0
    5.2208   -3.6611   23.0205 C   0  0  0  0  0  0  0  0  0  0  0  0
    5.0557   -3.5360   21.9591 H   0  0  0  0  0  0  0  0  0  0  0  0
    4.3860   -4.4517   23.8122 C   0  0  0  0  0  0  0  0  0  0  0  0
    3.0448   -5.2840   23.0867 Cl  0  0  0  0  0  0  0  0  0  0  0  0
    4.5872   -4.5821   25.1886 C   0  0  0  0  0  0  0  0  0  0  0  0
    3.9286   -5.1903   25.7995 H   0  0  0  0  0  0  0  0  0  0  0  0
    5.6565   -3.8957   25.7624 C   0  0  0  0  0  0  0  0  0  0  0  0
    5.9298   -4.0376   27.4708 Cl  0  0  0  0  0  0  0  0  0  0  0  0
    6.5165   -3.1049   24.9997 C   0  0  0  0  0  0  0  0  0  0  0  0
    7.3184   -2.5623   25.4832 H   0  0  0  0  0  0  0  0  0  0  0  0
    8.5172   -2.1259   23.0281 C   0  0  0  0  0  0  0  0  0  0  0  0
    8.8703   -2.7539   23.8442 H   0  0  0  0  0  0  0  0  0  0  0  0
    9.3451   -1.3717   22.2861 C   0  0  0  0  0  0  0  0  0  0  0  0
   10.4086   -1.3050   22.4612 H   0  0  0  0  0  0  0  0  0  0  0  0
    8.8069   -0.5730   21.1921 C   0  0  0  0  0  0  0  0  0  0  0  0
    9.5157    0.1602   20.5119 O   0  0  0  0  0  0  0  0  0  0  0  0
    5.3876    0.6268   20.1530 C   0  0  0  0  0  0  0  0  0  0  0  0
    4.9780    0.6170   21.1643 H   0  0  0  0  0  0  0  0  0  0  0  0
    4.7841    1.3185   19.1002 C   0  0  0  0  0  0  0  0  0  0  0  0
    3.8617    1.8696   19.2328 H   0  0  0  0  0  0  0  0  0  0  0  0
  1  2  1  0
  2  3  2  0
  3  4  1  0
  4  5  1  0
  4  6  2  0
  6  7  1  0
  7  8  2  0
  8  9  1  0
  9 10  1  0
 10 11  2  0
 11 12  1  0
 11 13  1  0
 13 14  1  0
 13 15  2  0
 15 16  1  0
 15 17  1  0
 17 18  1  0
 17 19  2  0
 19 20  1  0
  9 21  1  0
 21 22  1  0
 21 23  2  0
 23 24  1  0
 23 25  1  0
 25 26  2  0
  6 27  1  0
 27 28  1  0
 27 29  2  0
 29 30  1  0
 29  2  1  0
 25  7  1  0
 19 10  1  0
M  END
>  <cnnaffinity>  (1) 
-5.62955

>  <filename>  (1) 
O=c1ccn(-c2cc(Cl)cc(Cl)c2)nc1-c1cccnc1

$$$$
