
     RDKit          3D

 44 47  0  0  0  0  0  0  0  0999 V2000
    6.3576    3.9619   29.5496 H   0  0  0  0  0  0  0  0  0  0  0  0
    7.0097    4.1378   28.6925 C   0  0  0  0  0  0  0  0  0  0  0  0
    7.3075    3.0711   27.9404 N   0  0  0  0  0  0  0  0  0  0  0  0
    8.1430    3.2572   26.9063 C   0  0  0  0  0  0  0  0  0  0  0  0
    8.5299    2.1455   26.1851 N   0  0  0  0  0  0  0  0  0  0  0  0
    9.7246    2.1022   25.3333 C   0  0  0  0  0  0  0  0  0  0  0  0
   10.1057    3.0892   25.0827 H   0  0  0  0  0  0  0  0  0  0  0  0
   10.5366    1.5758   25.8569 H   0  0  0  0  0  0  0  0  0  0  0  0
    9.4450    1.3900   23.9970 C   0  0  0  0  0  0  0  0  0  0  0  0
   10.3940    1.2484   23.4555 H   0  0  0  0  0  0  0  0  0  0  0  0
    8.8117    2.0379   23.3744 H   0  0  0  0  0  0  0  0  0  0  0  0
    8.7866    0.0994   24.1889 N   0  0  0  0  0  0  0  0  0  0  0  0
    8.3923   -0.6462   23.0693 C   0  0  0  0  0  0  0  0  0  0  0  0
    7.7961   -0.0407   22.0007 C   0  0  0  0  0  0  0  0  0  0  0  0
    7.7149    1.0433   21.9349 H   0  0  0  0  0  0  0  0  0  0  0  0
    7.2187   -0.7593   20.9474 N   0  0  0  0  0  0  0  0  0  0  0  0
    6.5842   -0.0230   19.8720 C   0  0  0  0  0  0  0  0  0  0  0  0
    7.1591    0.0592   18.5880 C   0  0  0  0  0  0  0  0  0  0  0  0
    8.1119   -0.4262   18.3942 H   0  0  0  0  0  0  0  0  0  0  0  0
    6.6058    0.7272   17.5666 N   0  0  0  0  0  0  0  0  0  0  0  0
    5.4430    1.3596   17.7928 C   0  0  0  0  0  0  0  0  0  0  0  0
    5.0073    1.8898   16.9474 H   0  0  0  0  0  0  0  0  0  0  0  0
    4.8006    1.3624   19.0365 C   0  0  0  0  0  0  0  0  0  0  0  0
    3.8733    1.9114   19.1658 H   0  0  0  0  0  0  0  0  0  0  0  0
    5.3857    0.6599   20.0976 C   0  0  0  0  0  0  0  0  0  0  0  0
    4.9432    0.6341   21.0939 H   0  0  0  0  0  0  0  0  0  0  0  0
    7.1525   -2.1790   20.9964 C   0  0  0  0  0  0  0  0  0  0  0  0
    6.3711   -2.8735   20.3988 O   0  0  0  0  0  0  0  0  0  0  0  0
    8.1377   -2.7205   21.7872 N   0  0  0  0  0  0  0  0  0  0  0  0
    8.0785   -3.7190   21.8589 H   0  0  0  0  0  0  0  0  0  0  0  0
    8.5565   -2.1528   22.9852 C   0  0  0  0  0  0  0  0  0  0  0  0
    8.9977   -2.9178   23.8212 O   0  0  0  0  0  0  0  0  0  0  0  0
    8.5317   -0.3216   25.5700 C   0  0  0  0  0  0  0  0  0  0  0  0
    9.4674   -0.6851   26.0252 H   0  0  0  0  0  0  0  0  0  0  0  0
    7.8487   -1.1736   25.5386 H   0  0  0  0  0  0  0  0  0  0  0  0
    7.9295    0.8156   26.4487 C   0  0  0  0  0  0  0  0  0  0  0  0
    6.8465    0.8749   26.2829 H   0  0  0  0  0  0  0  0  0  0  0  0
    8.0805    0.5366   27.4991 H   0  0  0  0  0  0  0  0  0  0  0  0
    8.6403    4.5411   26.5598 C   0  0  0  0  0  0  0  0  0  0  0  0
    9.2291    4.6475   25.6622 H   0  0  0  0  0  0  0  0  0  0  0  0
    8.3436    5.6277   27.3701 C   0  0  0  0  0  0  0  0  0  0  0  0
    8.8054    6.5989   27.1732 H   0  0  0  0  0  0  0  0  0  0  0  0
    7.4956    5.4257   28.4672 C   0  0  0  0  0  0  0  0  0  0  0  0
    7.2173    6.2384   29.1305 H   0  0  0  0  0  0  0  0  0  0  0  0
  1  2  1  0
  2  3  2  0
  3  4  1  0
  4  5  1  0
  5  6  1  0
  6  7  1  0
  6  8  1  0
  6  9  1  0
  9 10  1  0
  9 11  1  0
  9 12  1  0
 12 13  1  0
 13 14  2  0
 14 15  1  0
 14 16  1  0
 16 17  1  0
 17 18  2  0
 18 19  1  0
 18 20  1  0
 20 21  2  0
 21 22  1  0
 21 23  1  0
 23 24  1  0
 23 25  2  0
 25 26  1  0
 16 27  1  0
 27 28  2  0
 27 29  1  0
 29 30  1  0
 29 31  1  0
 31 32  2  0
 12 33  1  0
 33 34  1  0
 33 35  1  0
 33 36  1  0
 36 37  1  0
 36 38  1  0
  4 39  2  0
 39 40  1  0
 39 41  1  0
 41 42  1  0
 41 43  2  0
 43 44  1  0
 43  2  1  0
 36  5  1  0
 31 13  1  0
 25 17  1  0
M  END
>  <cnnaffinity>  (1) 
-5.37879

>  <filename>  (1) 
O=c1[nH]c(=O)n(-c2cccnc2)cc1N1CCN(c2ccccn2)CC1

$$$$
