
     RDKit          3D

 33 36  0  0  0  0  0  0  0  0999 V2000
    5.2546    1.8066   16.8058 H   0  0  0  0  0  0  0  0  0  0  0  0
    5.5187    1.3155   17.7409 C   0  0  0  0  0  0  0  0  0  0  0  0
    6.6554    0.6003   17.7250 N   0  0  0  0  0  0  0  0  0  0  0  0
    7.0276    0.0069   18.8654 C   0  0  0  0  0  0  0  0  0  0  0  0
    7.9443   -0.5757   18.8450 H   0  0  0  0  0  0  0  0  0  0  0  0
    6.2844    0.0614   20.0599 C   0  0  0  0  0  0  0  0  0  0  0  0
    6.8273   -0.5641   21.2333 N   0  0  0  0  0  0  0  0  0  0  0  0
    8.1553   -0.3115   21.4463 N   0  0  0  0  0  0  0  0  0  0  0  0
    8.7388   -0.8330   22.4985 C   0  0  0  0  0  0  0  0  0  0  0  0
   10.2248   -0.6836   22.5104 C   0  0  0  0  0  0  0  0  0  0  0  0
   10.9756   -0.1685   23.5828 C   0  0  0  0  0  0  0  0  0  0  0  0
   10.4665    0.1882   24.4773 H   0  0  0  0  0  0  0  0  0  0  0  0
   12.3888   -0.1398   23.5265 C   0  0  0  0  0  0  0  0  0  0  0  0
   12.9957    0.2323   24.3518 H   0  0  0  0  0  0  0  0  0  0  0  0
   12.9871   -0.7038   22.4107 C   0  0  0  0  0  0  0  0  0  0  0  0
   12.2348   -1.2090   21.3436 C   0  0  0  0  0  0  0  0  0  0  0  0
   10.8705   -1.1648   21.3486 C   0  0  0  0  0  0  0  0  0  0  0  0
   10.2848   -1.4902   20.4980 H   0  0  0  0  0  0  0  0  0  0  0  0
   13.0575   -1.7126   20.3817 O   0  0  0  0  0  0  0  0  0  0  0  0
   14.3537   -1.7094   20.9614 C   0  0  0  0  0  0  0  0  0  0  0  0
   14.6326   -2.7445   21.2273 H   0  0  0  0  0  0  0  0  0  0  0  0
   15.0493   -1.2606   20.2473 H   0  0  0  0  0  0  0  0  0  0  0  0
   14.3134   -0.8932   22.1350 O   0  0  0  0  0  0  0  0  0  0  0  0
    8.0378   -1.7326   23.4844 C   0  0  0  0  0  0  0  0  0  0  0  0
    8.5107   -2.1303   24.5409 O   0  0  0  0  0  0  0  0  0  0  0  0
    6.7247   -2.1508   23.0039 C   0  0  0  0  0  0  0  0  0  0  0  0
    6.2150   -2.9190   23.5665 H   0  0  0  0  0  0  0  0  0  0  0  0
    6.1816   -1.5659   21.9173 C   0  0  0  0  0  0  0  0  0  0  0  0
    5.2089   -1.8450   21.5132 H   0  0  0  0  0  0  0  0  0  0  0  0
    5.0633    0.7495   20.0494 C   0  0  0  0  0  0  0  0  0  0  0  0
    4.4273    0.7821   20.9338 H   0  0  0  0  0  0  0  0  0  0  0  0
    4.6961    1.4107   18.8682 C   0  0  0  0  0  0  0  0  0  0  0  0
    3.7940    2.0069   18.8042 H   0  0  0  0  0  0  0  0  0  0  0  0
  1  2  1  0
  2  3  2  0
  3  4  1  0
  4  5  1  0
  4  6  2  0
  6  7  1  0
  7  8  1  0
  8  9  2  0
  9 10  1  0
 10 11  2  0
 11 12  1  0
 11 13  1  0
 13 14  1  0
 13 15  2  0
 15 16  1  0
 16 17  2  0
 17 18  1  0
 16 19  1  0
 19 20  1  0
 20 21  1  0
 20 22  1  0
 20 23  1  0
  9 24  1  0
 24 25  2  0
 24 26  1  0
 26 27  1  0
 26 28  2  0
 28 29  1  0
  6 30  1  0
 30 31  1  0
 30 32  2  0
 32 33  1  0
 32  2  1  0
 28  7  1  0
 17 10  1  0
 23 15  1  0
M  END
>  <cnnaffinity>  (1) 
-5.90631

>  <filename>  (1) 
O=c1ccn(-c2cccnc2)nc1-c1ccc2c(c1)OCO2

$$$$
