
     RDKit          3D

 36 39  0  0  0  0  0  0  0  0999 V2000
    9.0610    0.0524   22.8321 H   0  0  0  0  0  0  0  0  0  0  0  0
    8.3880   -0.4495   22.1598 C   0  0  0  0  0  0  0  0  0  0  0  0
    8.1321   -1.7605   22.2780 C   0  0  0  0  0  0  0  0  0  0  0  0
    8.5005   -2.5707   23.4315 C   0  0  0  0  0  0  0  0  0  0  0  0
    8.8624   -3.8875   23.5360 C   0  0  0  0  0  0  0  0  0  0  0  0
    8.9757   -4.5779   22.7102 H   0  0  0  0  0  0  0  0  0  0  0  0
    9.1977   -4.1766   24.8759 C   0  0  0  0  0  0  0  0  0  0  0  0
    9.6246   -5.4712   25.3380 C   0  0  0  0  0  0  0  0  0  0  0  0
    9.4053   -6.2570   24.6012 H   0  0  0  0  0  0  0  0  0  0  0  0
   10.2607   -5.6776   26.5052 C   0  0  0  0  0  0  0  0  0  0  0  0
    9.5631   -4.4700   27.9177 H   0  0  0  0  0  0  0  0  0  0  0  0
   10.3756   -5.1841   27.7195 C   0  0  0  0  0  0  0  0  0  0  0  0
   11.1185   -5.3653   28.5092 H   0  0  0  0  0  0  0  0  0  0  0  0
    9.0792   -2.6079   26.9974 C   0  0  0  0  0  0  0  0  0  0  0  0
    8.9056   -1.5311   27.1818 H   0  0  0  0  0  0  0  0  0  0  0  0
    9.0010   -2.9269   25.6532 C   0  0  0  0  0  0  0  0  0  0  0  0
    8.6104   -1.9968   24.6606 N   0  0  0  0  0  0  0  0  0  0  0  0
    8.1923   -1.1063   24.8851 H   0  0  0  0  0  0  0  0  0  0  0  0
    7.4622   -2.4121   21.2560 N   0  0  0  0  0  0  0  0  0  0  0  0
    7.0592   -3.3169   21.4020 H   0  0  0  0  0  0  0  0  0  0  0  0
    6.6754   -1.7691   20.3255 C   0  0  0  0  0  0  0  0  0  0  0  0
    5.8463   -2.4103   19.7164 O   0  0  0  0  0  0  0  0  0  0  0  0
    6.9575   -0.4202   20.1614 N   0  0  0  0  0  0  0  0  0  0  0  0
    6.3199    0.3159   19.1149 C   0  0  0  0  0  0  0  0  0  0  0  0
    6.9043    0.4637   17.8432 C   0  0  0  0  0  0  0  0  0  0  0  0
    7.8235   -0.0735   17.6125 H   0  0  0  0  0  0  0  0  0  0  0  0
    6.3866    1.2277   16.8740 N   0  0  0  0  0  0  0  0  0  0  0  0
    5.2488    1.8896   17.1460 C   0  0  0  0  0  0  0  0  0  0  0  0
    4.8662    2.5227   16.3475 H   0  0  0  0  0  0  0  0  0  0  0  0
    4.5676    1.7791   18.3641 C   0  0  0  0  0  0  0  0  0  0  0  0
    3.6439    2.3264   18.5176 H   0  0  0  0  0  0  0  0  0  0  0  0
    5.1158    0.9749   19.3699 C   0  0  0  0  0  0  0  0  0  0  0  0
    4.6420    0.8566   20.3439 H   0  0  0  0  0  0  0  0  0  0  0  0
    7.7748    0.3807   21.0895 C   0  0  0  0  0  0  0  0  0  0  0  0
    7.1588    1.1775   21.5572 H   0  0  0  0  0  0  0  0  0  0  0  0
    8.5572    0.9225   20.5227 H   0  0  0  0  0  0  0  0  0  0  0  0
  1  2  1  0
  2  3  2  0
  3  4  1  0
  4  5  2  0
  5  6  1  0
  5  7  1  0
  7  8  2  0
  8  9  1  0
  8 10  1  0
 10 11  1  0
 10 12  2  0
 12 13  1  0
 12 14  1  0
 14 15  1  0
 14 16  2  0
 16 17  1  0
 17 18  1  0
  3 19  1  0
 19 20  1  0
 19 21  1  0
 21 22  2  0
 21 23  1  0
 23 24  1  0
 24 25  2  0
 25 26  1  0
 25 27  1  0
 27 28  2  0
 28 29  1  0
 28 30  1  0
 30 31  1  0
 30 32  2  0
 32 33  1  0
 23 34  1  0
 34 35  1  0
 34 36  1  0
 34  2  1  0
 17  4  1  0
 32 24  1  0
 16  7  1  0
M  END
>  <cnnaffinity>  (1) 
-5.14146

>  <filename>  (1) 
O=C1NC(c2cc3ccccc3[nH]2)=CCN1c1cccnc1

$$$$
