
     RDKit          3D

 29 31  0  0  0  0  0  0  0  0999 V2000
    4.9197    1.8003   16.9794 H   0  0  0  0  0  0  0  0  0  0  0  0
    5.3838    1.3006   17.8260 C   0  0  0  0  0  0  0  0  0  0  0  0
    6.5423    0.6732   17.5636 N   0  0  0  0  0  0  0  0  0  0  0  0
    7.1506    0.0552   18.5801 C   0  0  0  0  0  0  0  0  0  0  0  0
    8.1129   -0.4115   18.3836 H   0  0  0  0  0  0  0  0  0  0  0  0
    6.6320    0.0019   19.8862 C   0  0  0  0  0  0  0  0  0  0  0  0
    7.3633   -0.6679   20.8965 N   0  0  0  0  0  0  0  0  0  0  0  0
    8.7685   -0.6386   21.1377 C   0  0  0  0  0  0  0  0  0  0  0  0
    9.5889   -0.0374   20.4611 O   0  0  0  0  0  0  0  0  0  0  0  0
    8.9218   -1.4540   22.3178 C   0  0  0  0  0  0  0  0  0  0  0  0
    9.8722   -1.6711   22.7628 H   0  0  0  0  0  0  0  0  0  0  0  0
    7.7035   -1.8970   22.7236 C   0  0  0  0  0  0  0  0  0  0  0  0
    7.3710   -2.7386   23.8899 C   0  0  0  0  0  0  0  0  0  0  0  0
    8.0228   -2.4463   25.1021 C   0  0  0  0  0  0  0  0  0  0  0  0
    8.7269   -1.6184   25.1110 H   0  0  0  0  0  0  0  0  0  0  0  0
    7.7788   -3.1808   26.2603 C   0  0  0  0  0  0  0  0  0  0  0  0
    8.2950   -2.9309   27.1839 H   0  0  0  0  0  0  0  0  0  0  0  0
    6.8736   -4.2437   26.2248 C   0  0  0  0  0  0  0  0  0  0  0  0
    6.6550   -4.8345   27.1100 H   0  0  0  0  0  0  0  0  0  0  0  0
    6.2289   -4.5743   25.0274 C   0  0  0  0  0  0  0  0  0  0  0  0
    5.1209   -5.9105   25.0433 Cl  0  0  0  0  0  0  0  0  0  0  0  0
    6.4784   -3.8370   23.8544 C   0  0  0  0  0  0  0  0  0  0  0  0
    5.7161   -4.3285   22.3754 Cl  0  0  0  0  0  0  0  0  0  0  0  0
    6.7579   -1.3952   21.8960 N   0  0  0  0  0  0  0  0  0  0  0  0
    5.7611   -1.5523   21.9387 H   0  0  0  0  0  0  0  0  0  0  0  0
    5.4191    0.6512   20.1515 C   0  0  0  0  0  0  0  0  0  0  0  0
    5.0155    0.6429   21.1655 H   0  0  0  0  0  0  0  0  0  0  0  0
    4.7937    1.3175   19.0960 C   0  0  0  0  0  0  0  0  0  0  0  0
    3.8651    1.8520   19.2474 H   0  0  0  0  0  0  0  0  0  0  0  0
  1  2  1  0
  2  3  2  0
  3  4  1  0
  4  5  1  0
  4  6  2  0
  6  7  1  0
  7  8  1  0
  8  9  2  0
  8 10  1  0
 10 11  1  0
 10 12  2  0
 12 13  1  0
 13 14  2  0
 14 15  1  0
 14 16  1  0
 16 17  1  0
 16 18  2  0
 18 19  1  0
 18 20  1  0
 20 21  1  0
 20 22  2  0
 22 23  1  0
 12 24  1  0
 24 25  1  0
  6 26  1  0
 26 27  1  0
 26 28  2  0
 28 29  1  0
 28  2  1  0
 24  7  1  0
 22 13  1  0
M  END
>  <cnnaffinity>  (1) 
-5.49818

>  <filename>  (1) 
O=c1cc(-c2cccc(Cl)c2Cl)[nH]n1-c1cccnc1

$$$$
