
     RDKit          3D

 33 35  0  0  0  0  0  0  0  0999 V2000
    4.9275    1.7946   16.9782 H   0  0  0  0  0  0  0  0  0  0  0  0
    5.3984    1.2997   17.8255 C   0  0  0  0  0  0  0  0  0  0  0  0
    6.5633    0.6812   17.5694 N   0  0  0  0  0  0  0  0  0  0  0  0
    7.1820    0.0794   18.5917 C   0  0  0  0  0  0  0  0  0  0  0  0
    8.1179   -0.4224   18.3373 H   0  0  0  0  0  0  0  0  0  0  0  0
    6.6673    0.0337   19.8993 C   0  0  0  0  0  0  0  0  0  0  0  0
    7.3369   -0.7128   20.9661 C   0  0  0  0  0  0  0  0  0  0  0  0
    6.6808   -1.5133   21.8605 C   0  0  0  0  0  0  0  0  0  0  0  0
    5.6207   -1.6658   21.7449 H   0  0  0  0  0  0  0  0  0  0  0  0
    7.4393   -2.1688   22.8658 C   0  0  0  0  0  0  0  0  0  0  0  0
    6.7396   -3.0636   23.8652 C   0  0  0  0  0  0  0  0  0  0  0  0
    5.6558   -2.5259   24.5851 C   0  0  0  0  0  0  0  0  0  0  0  0
    5.4211   -1.4672   24.4877 H   0  0  0  0  0  0  0  0  0  0  0  0
    4.9340   -3.2969   25.4950 C   0  0  0  0  0  0  0  0  0  0  0  0
    4.0692   -2.8619   25.9899 H   0  0  0  0  0  0  0  0  0  0  0  0
    5.3470   -4.5994   25.7820 C   0  0  0  0  0  0  0  0  0  0  0  0
    4.8378   -5.1817   26.5500 H   0  0  0  0  0  0  0  0  0  0  0  0
    6.4509   -5.1335   25.1131 C   0  0  0  0  0  0  0  0  0  0  0  0
    6.7864   -6.1349   25.3666 H   0  0  0  0  0  0  0  0  0  0  0  0
    7.1405   -4.3972   24.1310 C   0  0  0  0  0  0  0  0  0  0  0  0
    8.3207   -5.0468   23.4044 C   0  0  0  0  0  0  0  0  0  0  0  0
    8.3175   -6.3870   23.5206 F   0  0  0  0  0  0  0  0  0  0  0  0
    9.5007   -4.6196   23.8806 F   0  0  0  0  0  0  0  0  0  0  0  0
    8.2977   -4.7717   22.0824 F   0  0  0  0  0  0  0  0  0  0  0  0
    8.7359   -2.0280   22.9945 N   0  0  0  0  0  0  0  0  0  0  0  0
    9.4119   -1.2352   22.1010 C   0  0  0  0  0  0  0  0  0  0  0  0
   10.5999   -0.9998   22.1044 O   0  0  0  0  0  0  0  0  0  0  0  0
    8.6778   -0.6460   21.0729 N   0  0  0  0  0  0  0  0  0  0  0  0
    9.2682   -0.0146   20.5662 H   0  0  0  0  0  0  0  0  0  0  0  0
    5.4399    0.6702   20.1432 C   0  0  0  0  0  0  0  0  0  0  0  0
    5.0115    0.6473   21.1470 H   0  0  0  0  0  0  0  0  0  0  0  0
    4.8033    1.3235   19.0916 C   0  0  0  0  0  0  0  0  0  0  0  0
    3.8667    1.8483   19.2366 H   0  0  0  0  0  0  0  0  0  0  0  0
  1  2  1  0
  2  3  2  0
  3  4  1  0
  4  5  1  0
  4  6  2  0
  6  7  1  0
  7  8  2  0
  8  9  1  0
  8 10  1  0
 10 11  1  0
 11 12  2  0
 12 13  1  0
 12 14  1  0
 14 15  1  0
 14 16  2  0
 16 17  1  0
 16 18  1  0
 18 19  1  0
 18 20  2  0
 20 21  1  0
 21 22  1  0
 21 23  1  0
 21 24  1  0
 10 25  2  0
 25 26  1  0
 26 27  2  0
 26 28  1  0
 28 29  1  0
  6 30  1  0
 30 31  1  0
 30 32  2  0
 32 33  1  0
 32  2  1  0
 28  7  1  0
 20 11  1  0
M  END
>  <cnnaffinity>  (1) 
-5.90548

>  <filename>  (1) 
O=c1nc(-c2ccccc2C(F)(F)F)cc(-c2cccnc2)[nH]1

$$$$
