
     RDKit          3D

 26 28  0  0  0  0  0  0  0  0999 V2000
    6.8295    4.6205   24.2318 H   0  0  0  0  0  0  0  0  0  0  0  0
    7.0019    3.6349   23.8090 C   0  0  0  0  0  0  0  0  0  0  0  0
    6.7647    2.5936   24.6072 N   0  0  0  0  0  0  0  0  0  0  0  0
    7.0071    1.3899   24.0912 C   0  0  0  0  0  0  0  0  0  0  0  0
    6.7822    0.5521   24.7513 H   0  0  0  0  0  0  0  0  0  0  0  0
    7.4779    1.1766   22.7840 C   0  0  0  0  0  0  0  0  0  0  0  0
    7.7319   -0.1757   22.2646 C   0  0  0  0  0  0  0  0  0  0  0  0
    8.2338   -1.2267   22.9301 C   0  0  0  0  0  0  0  0  0  0  0  0
    8.7234   -1.2986   23.8959 H   0  0  0  0  0  0  0  0  0  0  0  0
    8.0274   -2.3845   22.2257 O   0  0  0  0  0  0  0  0  0  0  0  0
    7.2880   -2.0829   21.1064 C   0  0  0  0  0  0  0  0  0  0  0  0
    6.7392   -2.8881   20.4075 O   0  0  0  0  0  0  0  0  0  0  0  0
    7.2953   -0.6871   21.0127 N   0  0  0  0  0  0  0  0  0  0  0  0
    6.6527    0.0048   19.9273 C   0  0  0  0  0  0  0  0  0  0  0  0
    7.1977    0.0724   18.6246 C   0  0  0  0  0  0  0  0  0  0  0  0
    8.1565   -0.3971   18.4021 H   0  0  0  0  0  0  0  0  0  0  0  0
    6.6018    0.7120   17.6071 N   0  0  0  0  0  0  0  0  0  0  0  0
    5.4222    1.3144   17.8473 C   0  0  0  0  0  0  0  0  0  0  0  0
    4.9318    1.7941   16.9991 H   0  0  0  0  0  0  0  0  0  0  0  0
    4.8034    1.3116   19.1022 C   0  0  0  0  0  0  0  0  0  0  0  0
    3.8466    1.8105   19.2460 H   0  0  0  0  0  0  0  0  0  0  0  0
    5.4321    0.6434   20.1580 C   0  0  0  0  0  0  0  0  0  0  0  0
    5.0214    0.6307   21.1673 H   0  0  0  0  0  0  0  0  0  0  0  0
    7.6436    2.3568   22.0503 C   0  0  0  0  0  0  0  0  0  0  0  0
    7.9526    2.3088   21.0089 H   0  0  0  0  0  0  0  0  0  0  0  0
    7.4275    3.5741   22.5509 N   0  0  0  0  0  0  0  0  0  0  0  0
  1  2  1  0
  2  3  2  0
  3  4  1  0
  4  5  1  0
  4  6  2  0
  6  7  1  0
  7  8  2  0
  8  9  1  0
  8 10  1  0
 10 11  1  0
 11 12  2  0
 11 13  1  0
 13 14  1  0
 14 15  2  0
 15 16  1  0
 15 17  1  0
 17 18  2  0
 18 19  1  0
 18 20  1  0
 20 21  1  0
 20 22  2  0
 22 23  1  0
  6 24  1  0
 24 25  1  0
 24 26  2  0
 26  2  1  0
 13  7  1  0
 22 14  1  0
M  END
>  <cnnaffinity>  (1) 
-4.68258

>  <filename>  (1) 
O=c1occ(-c2cncnc2)n1-c1cccnc1

$$$$
