
     RDKit          3D

 33 35  0  0  0  0  0  0  0  0999 V2000
    4.9197    1.8015   16.9754 H   0  0  0  0  0  0  0  0  0  0  0  0
    5.3880    1.3032   17.8222 C   0  0  0  0  0  0  0  0  0  0  0  0
    6.5505    0.6825   17.5642 N   0  0  0  0  0  0  0  0  0  0  0  0
    7.1567    0.0697   18.5877 C   0  0  0  0  0  0  0  0  0  0  0  0
    8.1032   -0.4188   18.3533 H   0  0  0  0  0  0  0  0  0  0  0  0
    6.6468    0.0125   19.8985 C   0  0  0  0  0  0  0  0  0  0  0  0
    7.3738   -0.6944   20.9830 C   0  0  0  0  0  0  0  0  0  0  0  0
    8.7835   -0.5689   21.1379 C   0  0  0  0  0  0  0  0  0  0  0  0
    9.3032    0.0996   20.4527 H   0  0  0  0  0  0  0  0  0  0  0  0
    9.4358   -1.2304   22.1327 C   0  0  0  0  0  0  0  0  0  0  0  0
   10.4963   -1.1392   22.3212 H   0  0  0  0  0  0  0  0  0  0  0  0
    8.7542   -2.1114   23.0710 C   0  0  0  0  0  0  0  0  0  0  0  0
    9.3246   -2.6768   23.9908 O   0  0  0  0  0  0  0  0  0  0  0  0
    7.3398   -2.2449   22.8321 N   0  0  0  0  0  0  0  0  0  0  0  0
    6.4770   -2.9229   23.7132 N   0  0  0  0  0  0  0  0  0  0  0  0
    6.7890   -2.9800   24.6732 H   0  0  0  0  0  0  0  0  0  0  0  0
    5.6512   -3.9762   23.2917 C   0  0  0  0  0  0  0  0  0  0  0  0
    4.6809   -4.4279   24.2018 C   0  0  0  0  0  0  0  0  0  0  0  0
    4.6652   -3.9983   25.2017 H   0  0  0  0  0  0  0  0  0  0  0  0
    3.7172   -5.3633   23.8164 C   0  0  0  0  0  0  0  0  0  0  0  0
    2.9444   -5.6927   24.5071 H   0  0  0  0  0  0  0  0  0  0  0  0
    3.7516   -5.8843   22.5181 C   0  0  0  0  0  0  0  0  0  0  0  0
    2.5486   -7.0443   22.0316 Cl  0  0  0  0  0  0  0  0  0  0  0  0
    4.7503   -5.4923   21.6214 C   0  0  0  0  0  0  0  0  0  0  0  0
    4.7973   -5.9107   20.6226 H   0  0  0  0  0  0  0  0  0  0  0  0
    5.6961   -4.5414   22.0093 C   0  0  0  0  0  0  0  0  0  0  0  0
    6.4670   -4.2007   21.3247 H   0  0  0  0  0  0  0  0  0  0  0  0
    6.7047   -1.5021   21.8595 C   0  0  0  0  0  0  0  0  0  0  0  0
    5.6386   -1.6832   21.8028 H   0  0  0  0  0  0  0  0  0  0  0  0
    5.4232    0.6534   20.1404 C   0  0  0  0  0  0  0  0  0  0  0  0
    5.0081    0.6474   21.1503 H   0  0  0  0  0  0  0  0  0  0  0  0
    4.7949    1.3197   19.0880 C   0  0  0  0  0  0  0  0  0  0  0  0
    3.8663    1.8520   19.2368 H   0  0  0  0  0  0  0  0  0  0  0  0
  1  2  1  0
  2  3  2  0
  3  4  1  0
  4  5  1  0
  4  6  2  0
  6  7  1  0
  7  8  1  0
  8  9  1  0
  8 10  2  0
 10 11  1  0
 10 12  1  0
 12 13  2  0
 12 14  1  0
 14 15  1  0
 15 16  1  0
 15 17  1  0
 17 18  2  0
 18 19  1  0
 18 20  1  0
 20 21  1  0
 20 22  2  0
 22 23  1  0
 22 24  1  0
 24 25  1  0
 24 26  2  0
 26 27  1  0
 14 28  1  0
 28 29  1  0
  6 30  1  0
 30 31  1  0
 30 32  2  0
 32 33  1  0
 32  2  1  0
 28  7  2  0
 26 17  1  0
M  END
>  <cnnaffinity>  (1) 
-5.26096

>  <filename>  (1) 
O=c1ccc(-c2cccnc2)cn1Nc1ccc(Cl)cc1

$$$$
