
     RDKit          3D

 31 33  0  0  0  0  0  0  0  0999 V2000
    8.4365   -0.5277   27.8122 H   0  0  0  0  0  0  0  0  0  0  0  0
    7.9331   -0.0543   26.9740 C   0  0  0  0  0  0  0  0  0  0  0  0
    8.1343   -0.6108   25.7855 N   0  0  0  0  0  0  0  0  0  0  0  0
    7.5138   -0.0309   24.7431 C   0  0  0  0  0  0  0  0  0  0  0  0
    7.7515   -0.6607   23.4004 C   0  0  0  0  0  0  0  0  0  0  0  0
    7.0894   -0.0573   22.3501 O   0  0  0  0  0  0  0  0  0  0  0  0
    7.3677   -0.4669   21.0735 C   0  0  0  0  0  0  0  0  0  0  0  0
    6.6065    0.2106   20.0089 C   0  0  0  0  0  0  0  0  0  0  0  0
    7.1274    0.1709   18.7030 C   0  0  0  0  0  0  0  0  0  0  0  0
    8.0819   -0.3151   18.5132 H   0  0  0  0  0  0  0  0  0  0  0  0
    6.5433    0.7217   17.6378 N   0  0  0  0  0  0  0  0  0  0  0  0
    5.3663    1.3315   17.8441 C   0  0  0  0  0  0  0  0  0  0  0  0
    4.9029    1.7747   16.9651 H   0  0  0  0  0  0  0  0  0  0  0  0
    4.7399    1.3946   19.0947 C   0  0  0  0  0  0  0  0  0  0  0  0
    3.7769    1.8813   19.1752 H   0  0  0  0  0  0  0  0  0  0  0  0
    5.3635    0.8302   20.2085 C   0  0  0  0  0  0  0  0  0  0  0  0
    4.9119    0.8521   21.2027 H   0  0  0  0  0  0  0  0  0  0  0  0
    8.1960   -1.4938   20.8272 C   0  0  0  0  0  0  0  0  0  0  0  0
    8.4632   -1.7928   19.8359 H   0  0  0  0  0  0  0  0  0  0  0  0
    8.6280   -2.3691   21.8954 C   0  0  0  0  0  0  0  0  0  0  0  0
    9.0114   -3.5086   21.7104 O   0  0  0  0  0  0  0  0  0  0  0  0
    8.5036   -1.7735   23.2190 C   0  0  0  0  0  0  0  0  0  0  0  0
    8.9954   -2.2658   24.0467 H   0  0  0  0  0  0  0  0  0  0  0  0
    6.7267    1.0363   24.8187 N   0  0  0  0  0  0  0  0  0  0  0  0
    6.5242    1.5960   26.0162 C   0  0  0  0  0  0  0  0  0  0  0  0
    5.6027    2.8469   26.0772 C   0  0  0  0  0  0  0  0  0  0  0  0
    4.5475    2.6369   26.8910 F   0  0  0  0  0  0  0  0  0  0  0  0
    6.2560    3.9111   26.5874 F   0  0  0  0  0  0  0  0  0  0  0  0
    5.1277    3.1963   24.8811 F   0  0  0  0  0  0  0  0  0  0  0  0
    7.1246    1.0655   27.1614 C   0  0  0  0  0  0  0  0  0  0  0  0
    6.9910    1.4745   28.1527 H   0  0  0  0  0  0  0  0  0  0  0  0
  1  2  1  0
  2  3  2  0
  3  4  1  0
  4  5  1  0
  5  6  1  0
  6  7  1  0
  7  8  1  0
  8  9  2  0
  9 10  1  0
  9 11  1  0
 11 12  2  0
 12 13  1  0
 12 14  1  0
 14 15  1  0
 14 16  2  0
 16 17  1  0
  7 18  2  0
 18 19  1  0
 18 20  1  0
 20 21  2  0
 20 22  1  0
 22 23  1  0
  4 24  2  0
 24 25  1  0
 25 26  1  0
 26 27  1  0
 26 28  1  0
 26 29  1  0
 25 30  2  0
 30 31  1  0
 30  2  1  0
 22  5  2  0
 16  8  1  0
M  END
>  <cnnaffinity>  (1) 
-5.54817

>  <filename>  (1) 
O=c1cc(-c2cccnc2)oc(-c2nccc(C(F)(F)F)n2)c1

$$$$
