
     RDKit          3D

 45 48  0  0  0  0  0  0  0  0999 V2000
    4.9364    1.7612   16.9420 H   0  0  0  0  0  0  0  0  0  0  0  0
    5.4329    1.2651   17.7730 C   0  0  0  0  0  0  0  0  0  0  0  0
    6.5752    0.6223   17.4831 N   0  0  0  0  0  0  0  0  0  0  0  0
    7.2331    0.0299   18.4883 C   0  0  0  0  0  0  0  0  0  0  0  0
    8.1758   -0.4500   18.2308 H   0  0  0  0  0  0  0  0  0  0  0  0
    6.7721    0.0247   19.8224 C   0  0  0  0  0  0  0  0  0  0  0  0
    7.5060   -0.6126   20.8948 N   0  0  0  0  0  0  0  0  0  0  0  0
    6.8877   -1.6207   21.6362 C   0  0  0  0  0  0  0  0  0  0  0  0
    5.8489   -1.8441   21.4055 H   0  0  0  0  0  0  0  0  0  0  0  0
    7.5246   -2.3556   22.5847 C   0  0  0  0  0  0  0  0  0  0  0  0
    6.7901   -3.3906   23.2162 N   0  0  0  0  0  0  0  0  0  0  0  0
    7.3176   -4.7479   23.3242 C   0  0  0  0  0  0  0  0  0  0  0  0
    7.8525   -4.9072   24.2764 H   0  0  0  0  0  0  0  0  0  0  0  0
    8.0383   -4.9163   22.5172 H   0  0  0  0  0  0  0  0  0  0  0  0
    6.1468   -5.7421   23.2124 C   0  0  0  0  0  0  0  0  0  0  0  0
    6.5146   -6.7630   23.3369 H   0  0  0  0  0  0  0  0  0  0  0  0
    5.7322   -5.6680   22.1891 H   0  0  0  0  0  0  0  0  0  0  0  0
    5.1344   -5.4717   24.2440 N   0  0  0  0  0  0  0  0  0  0  0  0
    4.1629   -6.4661   24.5390 C   0  0  0  0  0  0  0  0  0  0  0  0
    3.6757   -7.3803   23.5878 C   0  0  0  0  0  0  0  0  0  0  0  0
    4.0520   -7.3057   22.5718 H   0  0  0  0  0  0  0  0  0  0  0  0
    2.7422   -8.3576   23.9538 C   0  0  0  0  0  0  0  0  0  0  0  0
    2.3757   -9.0657   23.2124 H   0  0  0  0  0  0  0  0  0  0  0  0
    2.2692   -8.4201   25.2686 C   0  0  0  0  0  0  0  0  0  0  0  0
    1.5625   -9.1902   25.5689 H   0  0  0  0  0  0  0  0  0  0  0  0
    2.7305   -7.4976   26.2147 C   0  0  0  0  0  0  0  0  0  0  0  0
    2.3387   -7.5125   27.2291 H   0  0  0  0  0  0  0  0  0  0  0  0
    3.6608   -6.5223   25.8502 C   0  0  0  0  0  0  0  0  0  0  0  0
    4.0660   -5.8207   26.5725 H   0  0  0  0  0  0  0  0  0  0  0  0
    4.6359   -4.0858   24.1814 C   0  0  0  0  0  0  0  0  0  0  0  0
    4.0567   -3.9010   23.2590 H   0  0  0  0  0  0  0  0  0  0  0  0
    3.9592   -3.8977   25.0224 H   0  0  0  0  0  0  0  0  0  0  0  0
    5.8097   -3.1027   24.2722 C   0  0  0  0  0  0  0  0  0  0  0  0
    5.4659   -2.0723   24.1721 H   0  0  0  0  0  0  0  0  0  0  0  0
    6.2647   -3.1940   25.2745 H   0  0  0  0  0  0  0  0  0  0  0  0
    8.9784   -2.0285   22.8418 C   0  0  0  0  0  0  0  0  0  0  0  0
    9.8070   -2.6532   23.4635 O   0  0  0  0  0  0  0  0  0  0  0  0
    9.3827   -0.8343   22.2709 N   0  0  0  0  0  0  0  0  0  0  0  0
   10.3585   -0.6337   22.3788 H   0  0  0  0  0  0  0  0  0  0  0  0
    8.8246   -0.1923   21.2068 C   0  0  0  0  0  0  0  0  0  0  0  0
    9.4495    0.6525   20.6086 O   0  0  0  0  0  0  0  0  0  0  0  0
    5.5662    0.6757   20.1022 C   0  0  0  0  0  0  0  0  0  0  0  0
    5.1913    0.6960   21.1260 H   0  0  0  0  0  0  0  0  0  0  0  0
    4.8901    1.3179   19.0601 C   0  0  0  0  0  0  0  0  0  0  0  0
    3.9682    1.8604   19.2362 H   0  0  0  0  0  0  0  0  0  0  0  0
  1  2  1  0
  2  3  2  0
  3  4  1  0
  4  5  1  0
  4  6  2  0
  6  7  1  0
  7  8  1  0
  8  9  1  0
  8 10  2  0
 10 11  1  0
 11 12  1  0
 12 13  1  0
 12 14  1  0
 12 15  1  0
 15 16  1  0
 15 17  1  0
 15 18  1  0
 18 19  1  0
 19 20  2  0
 20 21  1  0
 20 22  1  0
 22 23  1  0
 22 24  2  0
 24 25  1  0
 24 26  1  0
 26 27  1  0
 26 28  2  0
 28 29  1  0
 18 30  1  0
 30 31  1  0
 30 32  1  0
 30 33  1  0
 33 34  1  0
 33 35  1  0
 10 36  1  0
 36 37  2  0
 36 38  1  0
 38 39  1  0
 38 40  1  0
 40 41  2  0
  6 42  1  0
 42 43  1  0
 42 44  2  0
 44 45  1  0
 44  2  1  0
 40  7  1  0
 33 11  1  0
 28 19  1  0
M  END
>  <cnnaffinity>  (1) 
-5.38759

>  <filename>  (1) 
O=c1[nH]c(=O)n(-c2cccnc2)cc1N1CCN(c2ccccc2)CC1

$$$$
