
     RDKit          3D

 34 36  0  0  0  0  0  0  0  0999 V2000
    4.9387    1.8059   16.9877 H   0  0  0  0  0  0  0  0  0  0  0  0
    5.3877    1.2954   17.8388 C   0  0  0  0  0  0  0  0  0  0  0  0
    6.5401    0.6606   17.5861 N   0  0  0  0  0  0  0  0  0  0  0  0
    7.1325    0.0288   18.6009 C   0  0  0  0  0  0  0  0  0  0  0  0
    8.1060   -0.4162   18.3997 H   0  0  0  0  0  0  0  0  0  0  0  0
    6.5981   -0.0360   19.9017 C   0  0  0  0  0  0  0  0  0  0  0  0
    7.3213   -0.7542   20.9915 C   0  0  0  0  0  0  0  0  0  0  0  0
    6.5809   -1.5153   21.7559 N   0  0  0  0  0  0  0  0  0  0  0  0
    7.1544   -2.1892   22.8069 N   0  0  0  0  0  0  0  0  0  0  0  0
    6.2796   -3.0005   23.6202 C   0  0  0  0  0  0  0  0  0  0  0  0
    5.2013   -3.6730   23.0269 C   0  0  0  0  0  0  0  0  0  0  0  0
    5.0579   -3.5276   21.9631 H   0  0  0  0  0  0  0  0  0  0  0  0
    4.3402   -4.4775   23.7864 C   0  0  0  0  0  0  0  0  0  0  0  0
    3.5024   -4.9968   23.3328 H   0  0  0  0  0  0  0  0  0  0  0  0
    4.5643   -4.5933   25.1587 C   0  0  0  0  0  0  0  0  0  0  0  0
    3.7821   -5.3494   26.0264 O   0  0  0  0  0  0  0  0  0  0  0  0
    2.7114   -6.0529   25.6136 C   0  0  0  0  0  0  0  0  0  0  0  0
    2.2041   -6.6480   26.6840 F   0  0  0  0  0  0  0  0  0  0  0  0
    1.7622   -5.2792   25.0600 F   0  0  0  0  0  0  0  0  0  0  0  0
    3.0248   -6.9920   24.7051 F   0  0  0  0  0  0  0  0  0  0  0  0
    5.6220   -3.9278   25.7793 C   0  0  0  0  0  0  0  0  0  0  0  0
    5.7478   -4.0593   26.8541 H   0  0  0  0  0  0  0  0  0  0  0  0
    6.4802   -3.1350   25.0107 C   0  0  0  0  0  0  0  0  0  0  0  0
    7.2941   -2.5951   25.4859 H   0  0  0  0  0  0  0  0  0  0  0  0
    8.5136   -2.1287   23.0341 C   0  0  0  0  0  0  0  0  0  0  0  0
    8.8762   -2.7520   23.8492 H   0  0  0  0  0  0  0  0  0  0  0  0
    9.3395   -1.3746   22.2877 C   0  0  0  0  0  0  0  0  0  0  0  0
   10.4027   -1.3070   22.4611 H   0  0  0  0  0  0  0  0  0  0  0  0
    8.8083   -0.5757   21.1914 C   0  0  0  0  0  0  0  0  0  0  0  0
    9.5187    0.1612   20.5138 O   0  0  0  0  0  0  0  0  0  0  0  0
    5.3888    0.6257   20.1500 C   0  0  0  0  0  0  0  0  0  0  0  0
    4.9740    0.6160   21.1580 H   0  0  0  0  0  0  0  0  0  0  0  0
    4.7806    1.3154   19.0993 C   0  0  0  0  0  0  0  0  0  0  0  0
    3.8605    1.8729   19.2307 H   0  0  0  0  0  0  0  0  0  0  0  0
  1  2  1  0
  2  3  2  0
  3  4  1  0
  4  5  1  0
  4  6  2  0
  6  7  1  0
  7  8  2  0
  8  9  1  0
  9 10  1  0
 10 11  2  0
 11 12  1  0
 11 13  1  0
 13 14  1  0
 13 15  2  0
 15 16  1  0
 16 17  1  0
 17 18  1  0
 17 19  1  0
 17 20  1  0
 15 21  1  0
 21 22  1  0
 21 23  2  0
 23 24  1  0
  9 25  1  0
 25 26  1  0
 25 27  2  0
 27 28  1  0
 27 29  1  0
 29 30  2  0
  6 31  1  0
 31 32  1  0
 31 33  2  0
 33 34  1  0
 33  2  1  0
 29  7  1  0
 23 10  1  0
M  END
>  <cnnaffinity>  (1) 
-5.51997

>  <filename>  (1) 
O=c1ccn(-c2ccc(OC(F)(F)F)cc2)nc1-c1cccnc1

$$$$
