
     RDKit          3D

 38 40  0  0  0  0  0  0  0  0999 V2000
    5.1419    2.0258   16.9396 H   0  0  0  0  0  0  0  0  0  0  0  0
    5.5698    1.4063   17.7266 C   0  0  0  0  0  0  0  0  0  0  0  0
    6.7629    0.8521   17.4581 N   0  0  0  0  0  0  0  0  0  0  0  0
    7.3074    0.0886   18.4055 C   0  0  0  0  0  0  0  0  0  0  0  0
    8.3030   -0.3008   18.2012 H   0  0  0  0  0  0  0  0  0  0  0  0
    6.6728   -0.2184   19.6252 C   0  0  0  0  0  0  0  0  0  0  0  0
    7.3836   -1.0564   20.5994 C   0  0  0  0  0  0  0  0  0  0  0  0
    8.6863   -0.8763   20.6979 N   0  0  0  0  0  0  0  0  0  0  0  0
    9.3689   -1.3820   21.7890 C   0  0  0  0  0  0  0  0  0  0  0  0
   10.8493   -1.0000   21.8757 C   0  0  0  0  0  0  0  0  0  0  0  0
   11.1941   -0.8535   20.8448 H   0  0  0  0  0  0  0  0  0  0  0  0
   11.4405   -1.8371   22.2800 H   0  0  0  0  0  0  0  0  0  0  0  0
   11.1802    0.2135   22.6318 N   0  0  0  0  0  0  0  0  0  0  0  0
   10.7733    0.2153   24.0360 C   0  0  0  0  0  0  0  0  0  0  0  0
   10.9462   -0.7776   24.4735 H   0  0  0  0  0  0  0  0  0  0  0  0
    9.6926    0.4316   24.1529 H   0  0  0  0  0  0  0  0  0  0  0  0
   11.6048    1.2608   24.8097 C   0  0  0  0  0  0  0  0  0  0  0  0
   11.0742    1.4936   25.7409 H   0  0  0  0  0  0  0  0  0  0  0  0
   12.5613    0.8047   25.0929 H   0  0  0  0  0  0  0  0  0  0  0  0
   11.8573    2.5619   23.9956 C   0  0  0  0  0  0  0  0  0  0  0  0
   11.7842    3.4327   24.6550 H   0  0  0  0  0  0  0  0  0  0  0  0
   12.8817    2.5815   23.6030 H   0  0  0  0  0  0  0  0  0  0  0  0
   10.8524    2.7005   22.8403 C   0  0  0  0  0  0  0  0  0  0  0  0
   11.0521    3.6003   22.2444 H   0  0  0  0  0  0  0  0  0  0  0  0
    9.8469    2.8245   23.2699 H   0  0  0  0  0  0  0  0  0  0  0  0
   10.8684    1.4685   21.9124 C   0  0  0  0  0  0  0  0  0  0  0  0
   11.6280    1.5968   21.1221 H   0  0  0  0  0  0  0  0  0  0  0  0
    9.8935    1.3865   21.4005 H   0  0  0  0  0  0  0  0  0  0  0  0
    8.7416   -2.1397   22.7446 C   0  0  0  0  0  0  0  0  0  0  0  0
    9.2200   -2.4400   23.6760 H   0  0  0  0  0  0  0  0  0  0  0  0
    7.4287   -2.5168   22.5246 N   0  0  0  0  0  0  0  0  0  0  0  0
    6.8864   -3.1905   23.0553 H   0  0  0  0  0  0  0  0  0  0  0  0
    6.6530   -2.0678   21.4654 C   0  0  0  0  0  0  0  0  0  0  0  0
    5.5275   -2.5373   21.3692 O   0  0  0  0  0  0  0  0  0  0  0  0
    5.4304    0.3718   19.8987 C   0  0  0  0  0  0  0  0  0  0  0  0
    4.9163    0.1687   20.8427 H   0  0  0  0  0  0  0  0  0  0  0  0
    4.8870    1.2163   18.9332 C   0  0  0  0  0  0  0  0  0  0  0  0
    3.9494    1.7269   19.1021 H   0  0  0  0  0  0  0  0  0  0  0  0
  1  2  1  0
  2  3  2  0
  3  4  1  0
  4  5  1  0
  4  6  2  0
  6  7  1  0
  7  8  2  0
  8  9  1  0
  9 10  1  0
 10 11  1  0
 10 12  1  0
 10 13  1  0
 13 14  1  0
 14 15  1  0
 14 16  1  0
 14 17  1  0
 17 18  1  0
 17 19  1  0
 17 20  1  0
 20 21  1  0
 20 22  1  0
 20 23  1  0
 23 24  1  0
 23 25  1  0
 23 26  1  0
 26 27  1  0
 26 28  1  0
  9 29  2  0
 29 30  1  0
 29 31  1  0
 31 32  1  0
 31 33  1  0
 33 34  2  0
  6 35  1  0
 35 36  1  0
 35 37  2  0
 37 38  1  0
 37  2  1  0
 33  7  1  0
 26 13  1  0
M  END
>  <cnnaffinity>  (1) 
-5.28821

>  <filename>  (1) 
O=c1[nH]cc(CN2CCCCC2)nc1-c1cccnc1

$$$$
