
     RDKit          3D

 30 32  0  0  0  0  0  0  0  0999 V2000
    9.3883   -5.5739   26.7320 H   0  0  0  0  0  0  0  0  0  0  0  0
    9.6285   -5.0527   25.9604 O   0  0  0  0  0  0  0  0  0  0  0  0
    8.5320   -4.3626   25.5544 C   0  0  0  0  0  0  0  0  0  0  0  0
    7.2954   -4.4430   26.2112 C   0  0  0  0  0  0  0  0  0  0  0  0
    7.1758   -5.0789   27.0872 H   0  0  0  0  0  0  0  0  0  0  0  0
    6.2200   -3.6924   25.7216 C   0  0  0  0  0  0  0  0  0  0  0  0
    5.2488   -3.7357   26.2090 H   0  0  0  0  0  0  0  0  0  0  0  0
    6.3825   -2.8807   24.6010 C   0  0  0  0  0  0  0  0  0  0  0  0
    5.5522   -2.2896   24.2300 H   0  0  0  0  0  0  0  0  0  0  0  0
    7.6230   -2.8000   23.9392 C   0  0  0  0  0  0  0  0  0  0  0  0
    7.7377   -1.9469   22.7484 C   0  0  0  0  0  0  0  0  0  0  0  0
    6.7721   -1.4509   21.9381 C   0  0  0  0  0  0  0  0  0  0  0  0
    5.7050   -1.6038   21.9549 H   0  0  0  0  0  0  0  0  0  0  0  0
    7.3620   -0.6765   20.9424 N   0  0  0  0  0  0  0  0  0  0  0  0
    6.6663    0.0021   19.9023 C   0  0  0  0  0  0  0  0  0  0  0  0
    7.1729    0.0528   18.5851 C   0  0  0  0  0  0  0  0  0  0  0  0
    8.1279   -0.4209   18.3708 H   0  0  0  0  0  0  0  0  0  0  0  0
    6.5540    0.6670   17.5709 N   0  0  0  0  0  0  0  0  0  0  0  0
    5.3948    1.2913   17.8374 C   0  0  0  0  0  0  0  0  0  0  0  0
    4.9198    1.7902   16.9966 H   0  0  0  0  0  0  0  0  0  0  0  0
    4.8106    1.3069   19.1076 C   0  0  0  0  0  0  0  0  0  0  0  0
    3.8798    1.8376   19.2636 H   0  0  0  0  0  0  0  0  0  0  0  0
    5.4475    0.6436   20.1609 C   0  0  0  0  0  0  0  0  0  0  0  0
    5.0250    0.6369   21.1665 H   0  0  0  0  0  0  0  0  0  0  0  0
    8.7541   -0.6784   21.1348 C   0  0  0  0  0  0  0  0  0  0  0  0
    9.6244   -0.1205   20.4998 O   0  0  0  0  0  0  0  0  0  0  0  0
    8.9414   -1.4774   22.2272 N   0  0  0  0  0  0  0  0  0  0  0  0
    9.8788   -1.5659   22.5672 H   0  0  0  0  0  0  0  0  0  0  0  0
    8.6980   -3.5543   24.4298 C   0  0  0  0  0  0  0  0  0  0  0  0
    9.6765   -3.5535   23.9623 H   0  0  0  0  0  0  0  0  0  0  0  0
  1  2  1  0
  2  3  1  0
  3  4  2  0
  4  5  1  0
  4  6  1  0
  6  7  1  0
  6  8  2  0
  8  9  1  0
  8 10  1  0
 10 11  1  0
 11 12  2  0
 12 13  1  0
 12 14  1  0
 14 15  1  0
 15 16  2  0
 16 17  1  0
 16 18  1  0
 18 19  2  0
 19 20  1  0
 19 21  1  0
 21 22  1  0
 21 23  2  0
 23 24  1  0
 14 25  1  0
 25 26  2  0
 25 27  1  0
 27 28  1  0
 10 29  2  0
 29 30  1  0
 29  3  1  0
 27 11  1  0
 23 15  1  0
M  END
>  <cnnaffinity>  (1) 
-5.15653

>  <filename>  (1) 
O=c1[nH]c(-c2cccc(O)c2)cn1-c1cccnc1

$$$$
