
     RDKit          3D

 34 37  0  0  0  0  0  0  0  0999 V2000
    5.1197    2.0623   16.7598 H   0  0  0  0  0  0  0  0  0  0  0  0
    5.4261    1.4573   17.6133 C   0  0  0  0  0  0  0  0  0  0  0  0
    6.5503    0.7385   17.4557 N   0  0  0  0  0  0  0  0  0  0  0  0
    6.9673    0.0042   18.4950 C   0  0  0  0  0  0  0  0  0  0  0  0
    7.8875   -0.5579   18.3673 H   0  0  0  0  0  0  0  0  0  0  0  0
    6.2887   -0.0578   19.7252 C   0  0  0  0  0  0  0  0  0  0  0  0
    6.8070   -0.8155   20.8381 N   0  0  0  0  0  0  0  0  0  0  0  0
    7.3889   -0.1130   21.8775 C   0  0  0  0  0  0  0  0  0  0  0  0
    7.2665    0.9681   21.8521 H   0  0  0  0  0  0  0  0  0  0  0  0
    8.0923   -0.7363   22.8675 C   0  0  0  0  0  0  0  0  0  0  0  0
    8.7213    0.0380   23.9586 C   0  0  0  0  0  0  0  0  0  0  0  0
    7.9744    0.6700   24.9286 C   0  0  0  0  0  0  0  0  0  0  0  0
    6.8914    0.6969   24.9990 H   0  0  0  0  0  0  0  0  0  0  0  0
    8.9522    1.4000   26.2125 S   0  0  0  0  0  0  0  0  0  0  0  0
   10.6229    0.8422   25.5621 C   0  0  0  0  0  0  0  0  0  0  0  0
   10.8040    0.6594   25.3983 C   0  0  0  0  0  0  0  0  0  0  0  0
   11.3412    1.7226   25.5509 H   0  0  0  0  0  0  0  0  0  0  0  0
   12.6891    0.5646   24.7616 C   0  0  0  0  0  0  0  0  0  0  0  0
   13.6976    0.5718   25.2553 H   0  0  0  0  0  0  0  0  0  0  0  0
   12.4672    0.1487   23.5156 C   0  0  0  0  0  0  0  0  0  0  0  0
   13.2750   -0.0593   22.8196 H   0  0  0  0  0  0  0  0  0  0  0  0
   11.0677   -0.0602   23.1187 C   0  0  0  0  0  0  0  0  0  0  0  0
   10.7521   -0.4183   22.1417 H   0  0  0  0  0  0  0  0  0  0  0  0
   10.1852    0.2020   24.1113 C   0  0  0  0  0  0  0  0  0  0  0  0
    8.1799   -2.1660   22.8374 C   0  0  0  0  0  0  0  0  0  0  0  0
    8.7555   -2.6670   23.6180 H   0  0  0  0  0  0  0  0  0  0  0  0
    7.5289   -2.8841   21.8837 C   0  0  0  0  0  0  0  0  0  0  0  0
    7.5224   -3.9634   21.8575 H   0  0  0  0  0  0  0  0  0  0  0  0
    6.7290   -2.2529   20.8427 C   0  0  0  0  0  0  0  0  0  0  0  0
    6.0563   -2.8756   20.0405 O   0  0  0  0  0  0  0  0  0  0  0  0
    5.1178    0.6884   19.8759 C   0  0  0  0  0  0  0  0  0  0  0  0
    4.5867    0.6580   20.8284 H   0  0  0  0  0  0  0  0  0  0  0  0
    4.6710    1.4572   18.7940 C   0  0  0  0  0  0  0  0  0  0  0  0
    3.7785    2.0724   18.8647 H   0  0  0  0  0  0  0  0  0  0  0  0
  1  2  1  0
  2  3  2  0
  3  4  1  0
  4  5  1  0
  4  6  2  0
  6  7  1  0
  7  8  1  0
  8  9  1  0
  8 10  2  0
 10 11  1  0
 11 12  2  0
 12 13  1  0
 12 14  1  0
 14 15  1  0
 15 16  2  0
 16 17  1  0
 16 18  1  0
 18 19  1  0
 18 20  2  0
 20 21  1  0
 20 22  1  0
 22 23  1  0
 22 24  2  0
 10 25  1  0
 25 26  1  0
 25 27  2  0
 27 28  1  0
 27 29  1  0
 29 30  2  0
  6 31  1  0
 31 32  1  0
 31 33  2  0
 33 34  1  0
 33  2  1  0
 29  7  1  0
 24 11  1  0
 24 15  1  0
M  END
>  <cnnaffinity>  (1) 
-5.55549

>  <filename>  (1) 
O=c1ccc(-c2csc3ccccc23)cn1-c1cccnc1

$$$$
