
     RDKit          3D

 30 32  0  0  0  0  0  0  0  0999 V2000
    4.9765    1.7792   16.9793 H   0  0  0  0  0  0  0  0  0  0  0  0
    5.4394    1.2820   17.8274 C   0  0  0  0  0  0  0  0  0  0  0  0
    6.6100    0.6627   17.5919 N   0  0  0  0  0  0  0  0  0  0  0  0
    7.2117    0.0561   18.6227 C   0  0  0  0  0  0  0  0  0  0  0  0
    8.1738   -0.4209   18.4458 H   0  0  0  0  0  0  0  0  0  0  0  0
    6.6556   -0.0025   19.9128 C   0  0  0  0  0  0  0  0  0  0  0  0
    7.3396   -0.7160   20.9428 N   0  0  0  0  0  0  0  0  0  0  0  0
    8.7047   -0.5920   20.9414 N   0  0  0  0  0  0  0  0  0  0  0  0
    9.3826   -1.1445   21.9121 C   0  0  0  0  0  0  0  0  0  0  0  0
   10.8590   -0.9222   21.9240 C   0  0  0  0  0  0  0  0  0  0  0  0
   11.7495   -2.0035   22.0359 C   0  0  0  0  0  0  0  0  0  0  0  0
   11.3452   -2.9943   22.2209 H   0  0  0  0  0  0  0  0  0  0  0  0
   13.1290   -1.8094   22.0257 C   0  0  0  0  0  0  0  0  0  0  0  0
   13.7977   -2.6621   22.0033 H   0  0  0  0  0  0  0  0  0  0  0  0
   13.6376   -0.5121   22.0970 C   0  0  0  0  0  0  0  0  0  0  0  0
   14.7072   -0.3493   22.1879 H   0  0  0  0  0  0  0  0  0  0  0  0
   12.7712    0.5824   22.0645 C   0  0  0  0  0  0  0  0  0  0  0  0
   13.1443    1.5949   22.1629 H   0  0  0  0  0  0  0  0  0  0  0  0
   11.4044    0.3677   21.8876 C   0  0  0  0  0  0  0  0  0  0  0  0
   10.6017    1.4173   21.6925 F   0  0  0  0  0  0  0  0  0  0  0  0
    8.7545   -2.0338   22.9637 C   0  0  0  0  0  0  0  0  0  0  0  0
    9.3720   -2.6276   23.8406 O   0  0  0  0  0  0  0  0  0  0  0  0
    7.3088   -2.1551   22.8404 C   0  0  0  0  0  0  0  0  0  0  0  0
    6.7963   -2.7577   23.5756 H   0  0  0  0  0  0  0  0  0  0  0  0
    6.6738   -1.4960   21.8613 C   0  0  0  0  0  0  0  0  0  0  0  0
    5.5989   -1.5598   21.7272 H   0  0  0  0  0  0  0  0  0  0  0  0
    5.4417    0.6563   20.1544 C   0  0  0  0  0  0  0  0  0  0  0  0
    5.0288    0.6834   21.1626 H   0  0  0  0  0  0  0  0  0  0  0  0
    4.8276    1.3103   19.0840 C   0  0  0  0  0  0  0  0  0  0  0  0
    3.8904    1.8373   19.2174 H   0  0  0  0  0  0  0  0  0  0  0  0
  1  2  1  0
  2  3  2  0
  3  4  1  0
  4  5  1  0
  4  6  2  0
  6  7  1  0
  7  8  1  0
  8  9  2  0
  9 10  1  0
 10 11  2  0
 11 12  1  0
 11 13  1  0
 13 14  1  0
 13 15  2  0
 15 16  1  0
 15 17  1  0
 17 18  1  0
 17 19  2  0
 19 20  1  0
  9 21  1  0
 21 22  2  0
 21 23  1  0
 23 24  1  0
 23 25  2  0
 25 26  1  0
  6 27  1  0
 27 28  1  0
 27 29  2  0
 29 30  1  0
 29  2  1  0
 25  7  1  0
 19 10  1  0
M  END
>  <cnnaffinity>  (1) 
-5.66154

>  <filename>  (1) 
O=c1ccn(-c2cccnc2)nc1-c1ccccc1F

$$$$
