
     RDKit          3D

 32 34  0  0  0  0  0  0  0  0999 V2000
    4.9490    1.8233   17.0102 H   0  0  0  0  0  0  0  0  0  0  0  0
    5.4176    1.3016   17.8390 C   0  0  0  0  0  0  0  0  0  0  0  0
    6.5675    0.6650   17.5644 N   0  0  0  0  0  0  0  0  0  0  0  0
    7.1809    0.0324   18.5701 C   0  0  0  0  0  0  0  0  0  0  0  0
    8.1089   -0.4865   18.3285 H   0  0  0  0  0  0  0  0  0  0  0  0
    6.6725   -0.0094   19.8794 C   0  0  0  0  0  0  0  0  0  0  0  0
    7.3624   -0.6918   20.9206 N   0  0  0  0  0  0  0  0  0  0  0  0
    6.5758   -1.4327   21.7541 N   0  0  0  0  0  0  0  0  0  0  0  0
    7.1335   -2.1224   22.7123 C   0  0  0  0  0  0  0  0  0  0  0  0
    6.1920   -2.9095   23.5601 C   0  0  0  0  0  0  0  0  0  0  0  0
    5.0999   -3.6246   23.0292 C   0  0  0  0  0  0  0  0  0  0  0  0
    4.9078   -3.5840   21.9610 H   0  0  0  0  0  0  0  0  0  0  0  0
    4.2709   -4.3622   23.8849 C   0  0  0  0  0  0  0  0  0  0  0  0
    3.4630   -4.9647   23.4813 H   0  0  0  0  0  0  0  0  0  0  0  0
    4.4823   -4.3611   25.2713 C   0  0  0  0  0  0  0  0  0  0  0  0
    3.8720   -4.9521   25.9478 H   0  0  0  0  0  0  0  0  0  0  0  0
    5.5458   -3.6087   25.7754 C   0  0  0  0  0  0  0  0  0  0  0  0
    5.8474   -3.5544   27.2249 N   0  0  0  0  0  4  0  0  0  0  0  0
    5.1620   -4.1987   28.0029 O   0  0  0  0  0  0  0  0  0  0  0  0
    6.7888   -2.8526   27.5510 O   0  0  0  0  0  1  0  0  0  0  0  0
    6.4032   -2.9066   24.9380 C   0  0  0  0  0  0  0  0  0  0  0  0
    7.2538   -2.3855   25.3709 H   0  0  0  0  0  0  0  0  0  0  0  0
    8.6257   -2.0893   22.9952 C   0  0  0  0  0  0  0  0  0  0  0  0
    9.1929   -2.6864   23.9067 O   0  0  0  0  0  0  0  0  0  0  0  0
    9.3740   -1.2452   22.0656 C   0  0  0  0  0  0  0  0  0  0  0  0
   10.4484   -1.1877   22.1975 H   0  0  0  0  0  0  0  0  0  0  0  0
    8.7297   -0.5964   21.0836 C   0  0  0  0  0  0  0  0  0  0  0  0
    9.2395    0.0586   20.3724 H   0  0  0  0  0  0  0  0  0  0  0  0
    5.4523    0.6238   20.1499 C   0  0  0  0  0  0  0  0  0  0  0  0
    5.0469    0.5602   21.1602 H   0  0  0  0  0  0  0  0  0  0  0  0
    4.8222    1.3048   19.1068 C   0  0  0  0  0  0  0  0  0  0  0  0
    3.8889    1.8356   19.2632 H   0  0  0  0  0  0  0  0  0  0  0  0
  1  2  1  0
  2  3  2  0
  3  4  1  0
  4  5  1  0
  4  6  2  0
  6  7  1  0
  7  8  1  0
  8  9  2  0
  9 10  1  0
 10 11  2  0
 11 12  1  0
 11 13  1  0
 13 14  1  0
 13 15  2  0
 15 16  1  0
 15 17  1  0
 17 18  1  0
 18 19  2  0
 18 20  1  0
 17 21  2  0
 21 22  1  0
  9 23  1  0
 23 24  2  0
 23 25  1  0
 25 26  1  0
 25 27  2  0
 27 28  1  0
  6 29  1  0
 29 30  1  0
 29 31  2  0
 31 32  1  0
 31  2  1  0
 27  7  1  0
 21 10  1  0
M  CHG  2  18   1  20  -1
M  END
>  <cnnaffinity>  (1) 
-5.12137

>  <filename>  (1) 
O=c1ccn(-c2cccnc2)nc1-c1cccc([N+](=O)[O-])c1

$$$$
