
     RDKit          3D

 35 38  0  0  0  0  0  0  0  0999 V2000
    4.9153    1.7918   16.9831 H   0  0  0  0  0  0  0  0  0  0  0  0
    5.3913    1.3008   17.8259 C   0  0  0  0  0  0  0  0  0  0  0  0
    6.5537    0.6838   17.5638 N   0  0  0  0  0  0  0  0  0  0  0  0
    7.1632    0.0730   18.5859 C   0  0  0  0  0  0  0  0  0  0  0  0
    8.1079   -0.4221   18.3621 H   0  0  0  0  0  0  0  0  0  0  0  0
    6.6483    0.0137   19.8950 C   0  0  0  0  0  0  0  0  0  0  0  0
    7.3700   -0.7050   20.9700 C   0  0  0  0  0  0  0  0  0  0  0  0
    8.7834   -0.5559   21.1259 C   0  0  0  0  0  0  0  0  0  0  0  0
    9.3107    0.1132   20.4440 H   0  0  0  0  0  0  0  0  0  0  0  0
    9.4359   -1.2062   22.1238 C   0  0  0  0  0  0  0  0  0  0  0  0
   10.5000   -1.1340   22.2892 H   0  0  0  0  0  0  0  0  0  0  0  0
    8.7532   -2.0849   23.0650 C   0  0  0  0  0  0  0  0  0  0  0  0
    9.3404   -2.6885   23.9451 O   0  0  0  0  0  0  0  0  0  0  0  0
    7.3373   -2.1931   22.8661 N   0  0  0  0  0  0  0  0  0  0  0  0
    6.5643   -3.0261   23.7535 C   0  0  0  0  0  0  0  0  0  0  0  0
    6.6041   -2.7848   25.1525 C   0  0  0  0  0  0  0  0  0  0  0  0
    7.2378   -1.9761   25.5112 H   0  0  0  0  0  0  0  0  0  0  0  0
    5.8768   -3.5803   26.0333 C   0  0  0  0  0  0  0  0  0  0  0  0
    5.9135   -3.4045   27.1076 H   0  0  0  0  0  0  0  0  0  0  0  0
    5.1106   -4.6263   25.4837 C   0  0  0  0  0  0  0  0  0  0  0  0
    5.0601   -4.8797   24.0900 C   0  0  0  0  0  0  0  0  0  0  0  0
    5.7956   -4.0547   23.2202 C   0  0  0  0  0  0  0  0  0  0  0  0
    5.7916   -4.2324   22.1497 H   0  0  0  0  0  0  0  0  0  0  0  0
    4.1823   -5.9988   23.9040 C   0  0  0  0  0  0  0  0  0  0  0  0
    3.9312   -6.4379   22.9482 H   0  0  0  0  0  0  0  0  0  0  0  0
    3.7425   -6.3811   25.1356 C   0  0  0  0  0  0  0  0  0  0  0  0
    3.0683   -7.1823   25.4221 H   0  0  0  0  0  0  0  0  0  0  0  0
    4.3026   -5.5539   26.0929 N   0  0  0  0  0  0  0  0  0  0  0  0
    4.1626   -5.6042   27.0865 H   0  0  0  0  0  0  0  0  0  0  0  0
    6.7053   -1.5194   21.8449 C   0  0  0  0  0  0  0  0  0  0  0  0
    5.6333   -1.6821   21.7614 H   0  0  0  0  0  0  0  0  0  0  0  0
    5.4250    0.6534   20.1438 C   0  0  0  0  0  0  0  0  0  0  0  0
    5.0091    0.6429   21.1538 H   0  0  0  0  0  0  0  0  0  0  0  0
    4.7979    1.3203   19.0924 C   0  0  0  0  0  0  0  0  0  0  0  0
    3.8686    1.8492   19.2464 H   0  0  0  0  0  0  0  0  0  0  0  0
  1  2  1  0
  2  3  2  0
  3  4  1  0
  4  5  1  0
  4  6  2  0
  6  7  1  0
  7  8  1  0
  8  9  1  0
  8 10  2  0
 10 11  1  0
 10 12  1  0
 12 13  2  0
 12 14  1  0
 14 15  1  0
 15 16  2  0
 16 17  1  0
 16 18  1  0
 18 19  1  0
 18 20  2  0
 20 21  1  0
 21 22  2  0
 22 23  1  0
 21 24  1  0
 24 25  1  0
 24 26  2  0
 26 27  1  0
 26 28  1  0
 28 29  1  0
 14 30  1  0
 30 31  1  0
  6 32  1  0
 32 33  1  0
 32 34  2  0
 34 35  1  0
 34  2  1  0
 30  7  2  0
 22 15  1  0
 28 20  1  0
M  END
>  <cnnaffinity>  (1) 
-6.12456

>  <filename>  (1) 
O=c1ccc(-c2cccnc2)cn1-c1ccc2[nH]ccc2c1

$$$$
