
     RDKit          3D

 36 38  0  0  0  0  0  0  0  0999 V2000
    5.0352    2.1609   16.8141 H   0  0  0  0  0  0  0  0  0  0  0  0
    5.3341    1.4671   17.5979 C   0  0  0  0  0  0  0  0  0  0  0  0
    6.4248    0.7247   17.3422 N   0  0  0  0  0  0  0  0  0  0  0  0
    6.8445   -0.1082   18.3004 C   0  0  0  0  0  0  0  0  0  0  0  0
    7.7364   -0.7030   18.0997 H   0  0  0  0  0  0  0  0  0  0  0  0
    6.2055   -0.2474   19.5455 C   0  0  0  0  0  0  0  0  0  0  0  0
    6.8451   -0.9771   20.6120 N   0  0  0  0  0  0  0  0  0  0  0  0
    7.9295   -0.3488   21.1922 C   0  0  0  0  0  0  0  0  0  0  0  0
    8.2873    0.5483   20.6987 H   0  0  0  0  0  0  0  0  0  0  0  0
    8.5312   -0.7943   22.3395 C   0  0  0  0  0  0  0  0  0  0  0  0
    9.6012   -0.0690   22.8303 N   0  0  0  0  0  0  0  0  0  0  0  0
    9.9745    0.5940   22.1628 H   0  0  0  0  0  0  0  0  0  0  0  0
   10.5201   -0.3829   23.9143 C   0  0  0  0  0  0  0  0  0  0  0  0
   10.6126   -1.4728   24.0524 H   0  0  0  0  0  0  0  0  0  0  0  0
   10.1598    0.0277   24.8726 H   0  0  0  0  0  0  0  0  0  0  0  0
   11.8698    0.2210   23.5473 C   0  0  0  0  0  0  0  0  0  0  0  0
   12.7756   -0.5428   22.7940 C   0  0  0  0  0  0  0  0  0  0  0  0
   12.5164   -1.5578   22.4940 H   0  0  0  0  0  0  0  0  0  0  0  0
   14.0211   -0.0238   22.4406 C   0  0  0  0  0  0  0  0  0  0  0  0
   14.7021   -0.6487   21.8843 H   0  0  0  0  0  0  0  0  0  0  0  0
   14.3529    1.2932   22.7749 C   0  0  0  0  0  0  0  0  0  0  0  0
   15.3071    1.7148   22.4680 H   0  0  0  0  0  0  0  0  0  0  0  0
   13.4316    2.0912   23.4580 C   0  0  0  0  0  0  0  0  0  0  0  0
   13.6726    3.1380   23.6359 H   0  0  0  0  0  0  0  0  0  0  0  0
   12.1944    1.5593   23.8410 C   0  0  0  0  0  0  0  0  0  0  0  0
   11.4636    2.1823   24.3588 H   0  0  0  0  0  0  0  0  0  0  0  0
    7.9861   -1.9664   22.9611 C   0  0  0  0  0  0  0  0  0  0  0  0
    8.4217   -2.3120   23.8979 H   0  0  0  0  0  0  0  0  0  0  0  0
    6.9432   -2.6328   22.3841 C   0  0  0  0  0  0  0  0  0  0  0  0
    6.5238   -3.5370   22.8047 H   0  0  0  0  0  0  0  0  0  0  0  0
    6.3268   -2.2195   21.1223 C   0  0  0  0  0  0  0  0  0  0  0  0
    5.4851   -2.8723   20.5344 O   0  0  0  0  0  0  0  0  0  0  0  0
    5.0351    0.4796   19.7803 C   0  0  0  0  0  0  0  0  0  0  0  0
    4.5078    0.3777   20.7276 H   0  0  0  0  0  0  0  0  0  0  0  0
    4.6020    1.3639   18.7851 C   0  0  0  0  0  0  0  0  0  0  0  0
    3.7370    1.9980   18.9291 H   0  0  0  0  0  0  0  0  0  0  0  0
  1  2  1  0
  2  3  2  0
  3  4  1  0
  4  5  1  0
  4  6  2  0
  6  7  1  0
  7  8  1  0
  8  9  1  0
  8 10  2  0
 10 11  1  0
 11 12  1  0
 11 13  1  0
 13 14  1  0
 13 15  1  0
 13 16  1  0
 16 17  2  0
 17 18  1  0
 17 19  1  0
 19 20  1  0
 19 21  2  0
 21 22  1  0
 21 23  1  0
 23 24  1  0
 23 25  2  0
 25 26  1  0
 10 27  1  0
 27 28  1  0
 27 29  2  0
 29 30  1  0
 29 31  1  0
 31 32  2  0
  6 33  1  0
 33 34  1  0
 33 35  2  0
 35 36  1  0
 35  2  1  0
 31  7  1  0
 25 16  1  0
M  END
>  <cnnaffinity>  (1) 
-5.60563

>  <filename>  (1) 
O=c1ccc(NCc2ccccc2)cn1-c1cccnc1

$$$$
