
     RDKit          3D

 37 39  0  0  0  0  0  0  0  0999 V2000
    4.9798    1.8749   16.9554 H   0  0  0  0  0  0  0  0  0  0  0  0
    5.4397    1.3399   17.7845 C   0  0  0  0  0  0  0  0  0  0  0  0
    6.6034    0.7224   17.5208 N   0  0  0  0  0  0  0  0  0  0  0  0
    7.1966    0.0652   18.5279 C   0  0  0  0  0  0  0  0  0  0  0  0
    8.1426   -0.4231   18.2972 H   0  0  0  0  0  0  0  0  0  0  0  0
    6.6580   -0.0385   19.8278 C   0  0  0  0  0  0  0  0  0  0  0  0
    7.3500   -0.7516   20.8818 N   0  0  0  0  0  0  0  0  0  0  0  0
    8.6065   -0.3042   21.2577 C   0  0  0  0  0  0  0  0  0  0  0  0
    8.9808    0.5359   20.6790 H   0  0  0  0  0  0  0  0  0  0  0  0
    9.3138   -0.8399   22.2965 C   0  0  0  0  0  0  0  0  0  0  0  0
   10.6241   -0.2441   22.7660 C   0  0  0  0  0  0  0  0  0  0  0  0
   11.1356    0.2522   21.9316 H   0  0  0  0  0  0  0  0  0  0  0  0
   11.2880   -1.0557   23.0823 H   0  0  0  0  0  0  0  0  0  0  0  0
   10.4800    0.7526   23.9463 C   0  0  0  0  0  0  0  0  0  0  0  0
   11.4826    1.0401   24.2847 H   0  0  0  0  0  0  0  0  0  0  0  0
   10.0409    0.2086   24.7912 H   0  0  0  0  0  0  0  0  0  0  0  0
    9.6508    1.9867   23.6309 C   0  0  0  0  0  0  0  0  0  0  0  0
    8.2483    1.9672   23.7606 C   0  0  0  0  0  0  0  0  0  0  0  0
    7.7603    1.0894   24.1859 H   0  0  0  0  0  0  0  0  0  0  0  0
    7.4763    3.0712   23.3785 C   0  0  0  0  0  0  0  0  0  0  0  0
    6.3937    3.0327   23.4583 H   0  0  0  0  0  0  0  0  0  0  0  0
    8.0941    4.2240   22.8840 C   0  0  0  0  0  0  0  0  0  0  0  0
    7.5058    5.0947   22.6023 H   0  0  0  0  0  0  0  0  0  0  0  0
    9.4826    4.2643   22.7643 C   0  0  0  0  0  0  0  0  0  0  0  0
    9.9614    5.1548   22.3666 H   0  0  0  0  0  0  0  0  0  0  0  0
   10.2527    3.1561   23.1318 C   0  0  0  0  0  0  0  0  0  0  0  0
   11.3316    3.2014   22.9963 H   0  0  0  0  0  0  0  0  0  0  0  0
    8.7288   -1.9371   23.0033 C   0  0  0  0  0  0  0  0  0  0  0  0
    9.2907   -2.4153   23.8083 H   0  0  0  0  0  0  0  0  0  0  0  0
    7.4883   -2.3943   22.6759 C   0  0  0  0  0  0  0  0  0  0  0  0
    6.9857   -3.1884   23.2054 H   0  0  0  0  0  0  0  0  0  0  0  0
    6.7084   -1.8382   21.5803 C   0  0  0  0  0  0  0  0  0  0  0  0
    5.6180   -2.2762   21.2573 O   0  0  0  0  0  0  0  0  0  0  0  0
    5.4442    0.6116   20.0844 C   0  0  0  0  0  0  0  0  0  0  0  0
    5.0079    0.5659   21.0810 H   0  0  0  0  0  0  0  0  0  0  0  0
    4.8285    1.3151   19.0424 C   0  0  0  0  0  0  0  0  0  0  0  0
    3.8953    1.8467   19.1957 H   0  0  0  0  0  0  0  0  0  0  0  0
  1  2  1  0
  2  3  2  0
  3  4  1  0
  4  5  1  0
  4  6  2  0
  6  7  1  0
  7  8  1  0
  8  9  1  0
  8 10  2  0
 10 11  1  0
 11 12  1  0
 11 13  1  0
 11 14  1  0
 14 15  1  0
 14 16  1  0
 14 17  1  0
 17 18  2  0
 18 19  1  0
 18 20  1  0
 20 21  1  0
 20 22  2  0
 22 23  1  0
 22 24  1  0
 24 25  1  0
 24 26  2  0
 26 27  1  0
 10 28  1  0
 28 29  1  0
 28 30  2  0
 30 31  1  0
 30 32  1  0
 32 33  2  0
  6 34  1  0
 34 35  1  0
 34 36  2  0
 36 37  1  0
 36  2  1  0
 32  7  1  0
 26 17  1  0
M  END
>  <cnnaffinity>  (1) 
-5.47394

>  <filename>  (1) 
O=c1ccc(CCc2ccccc2)cn1-c1cccnc1

$$$$
