
     RDKit          3D

 36 39  0  0  0  0  0  0  0  0999 V2000
    4.9205    1.8043   16.9694 H   0  0  0  0  0  0  0  0  0  0  0  0
    5.3875    1.3054   17.8161 C   0  0  0  0  0  0  0  0  0  0  0  0
    6.5502    0.6839   17.5592 N   0  0  0  0  0  0  0  0  0  0  0  0
    7.1528    0.0679   18.5847 C   0  0  0  0  0  0  0  0  0  0  0  0
    8.1022   -0.4216   18.3623 H   0  0  0  0  0  0  0  0  0  0  0  0
    6.6354    0.0081   19.8913 C   0  0  0  0  0  0  0  0  0  0  0  0
    7.3568   -0.7191   20.9668 C   0  0  0  0  0  0  0  0  0  0  0  0
    8.7631   -0.5899   21.1363 C   0  0  0  0  0  0  0  0  0  0  0  0
    9.3021    0.0868   20.4756 H   0  0  0  0  0  0  0  0  0  0  0  0
    9.4491   -1.2257   22.1501 C   0  0  0  0  0  0  0  0  0  0  0  0
   10.9036   -1.0529   22.3054 C   0  0  0  0  0  0  0  0  0  0  0  0
   11.7434   -2.1222   22.0907 C   0  0  0  0  0  0  0  0  0  0  0  0
   11.2857   -3.0966   21.9712 H   0  0  0  0  0  0  0  0  0  0  0  0
   13.1015   -2.0607   22.0831 N   0  0  0  0  0  0  0  0  0  0  0  0
   13.6663   -0.9165   22.3983 C   0  0  0  0  0  0  0  0  0  0  0  0
   14.7568   -0.9197   22.4756 H   0  0  0  0  0  0  0  0  0  0  0  0
   12.9302    0.2713   22.6992 C   0  0  0  0  0  0  0  0  0  0  0  0
   13.5626    1.4971   23.0513 C   0  0  0  0  0  0  0  0  0  0  0  0
   14.6493    1.5210   23.0788 H   0  0  0  0  0  0  0  0  0  0  0  0
   12.8079    2.6129   23.3177 C   0  0  0  0  0  0  0  0  0  0  0  0
   13.3005    3.5475   23.5610 H   0  0  0  0  0  0  0  0  0  0  0  0
   11.3884    2.5618   23.2632 C   0  0  0  0  0  0  0  0  0  0  0  0
   10.8035    3.4540   23.4736 H   0  0  0  0  0  0  0  0  0  0  0  0
   10.7520    1.3846   22.9368 C   0  0  0  0  0  0  0  0  0  0  0  0
    9.6663    1.3214   22.9080 H   0  0  0  0  0  0  0  0  0  0  0  0
   11.5040    0.2094   22.6337 C   0  0  0  0  0  0  0  0  0  0  0  0
    8.7132   -2.1173   23.0658 C   0  0  0  0  0  0  0  0  0  0  0  0
    9.1104   -2.7858   24.0075 O   0  0  0  0  0  0  0  0  0  0  0  0
    7.3490   -2.1830   22.8144 N   0  0  0  0  0  0  0  0  0  0  0  0
    6.9502   -2.7754   23.5259 H   0  0  0  0  0  0  0  0  0  0  0  0
    6.6746   -1.5258   21.8348 C   0  0  0  0  0  0  0  0  0  0  0  0
    5.6051   -1.6858   21.7582 H   0  0  0  0  0  0  0  0  0  0  0  0
    5.4168    0.6599   20.1330 C   0  0  0  0  0  0  0  0  0  0  0  0
    4.9942    0.6638   21.1389 H   0  0  0  0  0  0  0  0  0  0  0  0
    4.7886    1.3260   19.0809 C   0  0  0  0  0  0  0  0  0  0  0  0
    3.8586    1.8601   19.2292 H   0  0  0  0  0  0  0  0  0  0  0  0
  1  2  1  0
  2  3  2  0
  3  4  1  0
  4  5  1  0
  4  6  2  0
  6  7  1  0
  7  8  1  0
  8  9  1  0
  8 10  2  0
 10 11  1  0
 11 12  2  0
 12 13  1  0
 12 14  1  0
 14 15  2  0
 15 16  1  0
 15 17  1  0
 17 18  2  0
 18 19  1  0
 18 20  1  0
 20 21  1  0
 20 22  2  0
 22 23  1  0
 22 24  1  0
 24 25  1  0
 24 26  2  0
 10 27  1  0
 27 28  2  0
 27 29  1  0
 29 30  1  0
 29 31  1  0
 31 32  1  0
  6 33  1  0
 33 34  1  0
 33 35  2  0
 35 36  1  0
 35  2  1  0
 31  7  2  0
 26 11  1  0
 26 17  1  0
M  END
>  <cnnaffinity>  (1) 
-6.24965

>  <filename>  (1) 
O=c1[nH]cc(-c2cccnc2)cc1-c1cncc2ccccc12

$$$$
