
     RDKit          3D

 35 38  0  0  0  0  0  0  0  0999 V2000
    4.9326    1.8320   16.9574 H   0  0  0  0  0  0  0  0  0  0  0  0
    5.4065    1.3368   17.8011 C   0  0  0  0  0  0  0  0  0  0  0  0
    6.5712    0.7196   17.5411 N   0  0  0  0  0  0  0  0  0  0  0  0
    7.1717    0.0728   18.5479 C   0  0  0  0  0  0  0  0  0  0  0  0
    8.1235   -0.4092   18.3182 H   0  0  0  0  0  0  0  0  0  0  0  0
    6.6273   -0.0169   19.8443 C   0  0  0  0  0  0  0  0  0  0  0  0
    7.2980   -0.7297   20.9028 N   0  0  0  0  0  0  0  0  0  0  0  0
    8.5660   -0.3121   21.2542 C   0  0  0  0  0  0  0  0  0  0  0  0
    8.9595    0.5223   20.6801 H   0  0  0  0  0  0  0  0  0  0  0  0
    9.3050   -0.9047   22.2385 C   0  0  0  0  0  0  0  0  0  0  0  0
   10.6714   -0.4386   22.5102 C   0  0  0  0  0  0  0  0  0  0  0  0
   11.7589   -1.2451   22.6585 C   0  0  0  0  0  0  0  0  0  0  0  0
   11.7944   -2.3257   22.5771 H   0  0  0  0  0  0  0  0  0  0  0  0
   12.8907   -0.4977   22.8915 N   0  0  0  0  0  0  0  0  0  0  0  0
   13.7142   -0.8645   23.3395 H   0  0  0  0  0  0  0  0  0  0  0  0
   12.5334    0.8312   22.9260 C   0  0  0  0  0  0  0  0  0  0  0  0
   13.3258    1.9530   23.1755 C   0  0  0  0  0  0  0  0  0  0  0  0
   14.3721    1.8235   23.4079 H   0  0  0  0  0  0  0  0  0  0  0  0
   12.7341    3.2058   23.0883 C   0  0  0  0  0  0  0  0  0  0  0  0
   13.3398    4.0944   23.2368 H   0  0  0  0  0  0  0  0  0  0  0  0
   11.3619    3.3363   22.7697 C   0  0  0  0  0  0  0  0  0  0  0  0
   10.9416    4.3304   22.6370 H   0  0  0  0  0  0  0  0  0  0  0  0
   10.5674    2.2140   22.5685 C   0  0  0  0  0  0  0  0  0  0  0  0
    9.5114    2.3433   22.3515 H   0  0  0  0  0  0  0  0  0  0  0  0
   11.1514    0.9265   22.6466 C   0  0  0  0  0  0  0  0  0  0  0  0
    8.7120   -2.0093   22.9436 C   0  0  0  0  0  0  0  0  0  0  0  0
    9.2700   -2.4986   23.7461 H   0  0  0  0  0  0  0  0  0  0  0  0
    7.4529   -2.4260   22.6418 C   0  0  0  0  0  0  0  0  0  0  0  0
    6.9488   -3.2419   23.1445 H   0  0  0  0  0  0  0  0  0  0  0  0
    6.6500   -1.8260   21.5808 C   0  0  0  0  0  0  0  0  0  0  0  0
    5.5466   -2.2403   21.2689 O   0  0  0  0  0  0  0  0  0  0  0  0
    5.4246    0.6490   20.1068 C   0  0  0  0  0  0  0  0  0  0  0  0
    5.0140    0.6191   21.1150 H   0  0  0  0  0  0  0  0  0  0  0  0
    4.8010    1.3379   19.0621 C   0  0  0  0  0  0  0  0  0  0  0  0
    3.8609    1.8617   19.2076 H   0  0  0  0  0  0  0  0  0  0  0  0
  1  2  1  0
  2  3  2  0
  3  4  1  0
  4  5  1  0
  4  6  2  0
  6  7  1  0
  7  8  1  0
  8  9  1  0
  8 10  2  0
 10 11  1  0
 11 12  2  0
 12 13  1  0
 12 14  1  0
 14 15  1  0
 14 16  1  0
 16 17  2  0
 17 18  1  0
 17 19  1  0
 19 20  1  0
 19 21  2  0
 21 22  1  0
 21 23  1  0
 23 24  1  0
 23 25  2  0
 10 26  1  0
 26 27  1  0
 26 28  2  0
 28 29  1  0
 28 30  1  0
 30 31  2  0
  6 32  1  0
 32 33  1  0
 32 34  2  0
 34 35  1  0
 34  2  1  0
 30  7  1  0
 25 11  1  0
 25 16  1  0
M  END
>  <cnnaffinity>  (1) 
-5.36394

>  <filename>  (1) 
O=c1ccc(-c2c[nH]c3ccccc23)cn1-c1cccnc1

$$$$
