
     RDKit          3D

 31 33  0  0  0  0  0  0  0  0999 V2000
    4.9559    1.8799   16.9518 H   0  0  0  0  0  0  0  0  0  0  0  0
    5.4137    1.3409   17.7796 C   0  0  0  0  0  0  0  0  0  0  0  0
    6.5748    0.7200   17.5171 N   0  0  0  0  0  0  0  0  0  0  0  0
    7.1709    0.0692   18.5233 C   0  0  0  0  0  0  0  0  0  0  0  0
    8.1137   -0.4142   18.2794 H   0  0  0  0  0  0  0  0  0  0  0  0
    6.6360   -0.0256   19.8268 C   0  0  0  0  0  0  0  0  0  0  0  0
    7.3367   -0.7146   20.8972 N   0  0  0  0  0  0  0  0  0  0  0  0
    8.6020   -0.2687   21.2547 C   0  0  0  0  0  0  0  0  0  0  0  0
    8.9689    0.5863   20.6904 H   0  0  0  0  0  0  0  0  0  0  0  0
    9.3592   -0.8496   22.2088 C   0  0  0  0  0  0  0  0  0  0  0  0
   10.7419   -0.3667   22.4567 C   0  0  0  0  0  0  0  0  0  0  0  0
   11.8466   -1.2272   22.3412 C   0  0  0  0  0  0  0  0  0  0  0  0
   11.6838   -2.2758   22.1109 H   0  0  0  0  0  0  0  0  0  0  0  0
   13.1455   -0.7420   22.5204 C   0  0  0  0  0  0  0  0  0  0  0  0
   13.9894   -1.4213   22.4253 H   0  0  0  0  0  0  0  0  0  0  0  0
   13.3698    0.5990   22.8459 C   0  0  0  0  0  0  0  0  0  0  0  0
   14.3735    0.9909   22.9917 H   0  0  0  0  0  0  0  0  0  0  0  0
   12.2706    1.4499   22.9871 C   0  0  0  0  0  0  0  0  0  0  0  0
   12.5196    3.1060   23.4682 Cl  0  0  0  0  0  0  0  0  0  0  0  0
   10.9711    0.9872   22.7724 C   0  0  0  0  0  0  0  0  0  0  0  0
   10.1503    1.6913   22.8514 H   0  0  0  0  0  0  0  0  0  0  0  0
    8.7882   -1.9919   22.9616 C   0  0  0  0  0  0  0  0  0  0  0  0
    9.2982   -2.6909   23.8066 O   0  0  0  0  0  0  0  0  0  0  0  0
    7.4817   -2.2742   22.6277 N   0  0  0  0  0  0  0  0  0  0  0  0
    7.0698   -3.0501   23.1075 H   0  0  0  0  0  0  0  0  0  0  0  0
    6.7348   -1.7833   21.6111 C   0  0  0  0  0  0  0  0  0  0  0  0
    5.6545   -2.2710   21.3688 O   0  0  0  0  0  0  0  0  0  0  0  0
    5.4210    0.6201   20.0839 C   0  0  0  0  0  0  0  0  0  0  0  0
    4.9795    0.5763   21.0797 H   0  0  0  0  0  0  0  0  0  0  0  0
    4.8045    1.3192   19.0384 C   0  0  0  0  0  0  0  0  0  0  0  0
    3.8744    1.8570   19.1924 H   0  0  0  0  0  0  0  0  0  0  0  0
  1  2  1  0
  2  3  2  0
  3  4  1  0
  4  5  1  0
  4  6  2  0
  6  7  1  0
  7  8  1  0
  8  9  1  0
  8 10  2  0
 10 11  1  0
 11 12  2  0
 12 13  1  0
 12 14  1  0
 14 15  1  0
 14 16  2  0
 16 17  1  0
 16 18  1  0
 18 19  1  0
 18 20  2  0
 20 21  1  0
 10 22  1  0
 22 23  2  0
 22 24  1  0
 24 25  1  0
 24 26  1  0
 26 27  2  0
  6 28  1  0
 28 29  1  0
 28 30  2  0
 30 31  1  0
 30  2  1  0
 26  7  1  0
 20 11  1  0
M  END
>  <cnnaffinity>  (1) 
-5.30916

>  <filename>  (1) 
O=c1[nH]c(=O)n(-c2cccnc2)cc1-c1cccc(Cl)c1

$$$$
