
     RDKit          3D

 29 31  0  0  0  0  0  0  0  0999 V2000
    4.9047    1.8358   16.9469 H   0  0  0  0  0  0  0  0  0  0  0  0
    5.3846    1.3377   17.7861 C   0  0  0  0  0  0  0  0  0  0  0  0
    6.5501    0.7292   17.5172 N   0  0  0  0  0  0  0  0  0  0  0  0
    7.1717    0.1111   18.5282 C   0  0  0  0  0  0  0  0  0  0  0  0
    8.1141   -0.3744   18.2747 H   0  0  0  0  0  0  0  0  0  0  0  0
    6.6621    0.0235   19.8451 C   0  0  0  0  0  0  0  0  0  0  0  0
    7.3877   -0.7007   20.9382 C   0  0  0  0  0  0  0  0  0  0  0  0
    8.6916   -0.4343   21.1990 C   0  0  0  0  0  0  0  0  0  0  0  0
    9.2647    0.2869   20.6166 H   0  0  0  0  0  0  0  0  0  0  0  0
    9.4162   -1.0570   22.2153 N   0  0  0  0  0  0  0  0  0  0  0  0
   10.8133   -0.7385   22.3738 C   0  0  0  0  0  0  0  0  0  0  0  0
   11.2617    0.5811   22.5940 C   0  0  0  0  0  0  0  0  0  0  0  0
   10.5778    1.4228   22.6838 H   0  0  0  0  0  0  0  0  0  0  0  0
   12.5592    0.8709   22.7289 N   0  0  0  0  0  0  0  0  0  0  0  0
   13.4904   -0.0735   22.5824 N   0  0  0  0  0  0  0  0  0  0  0  0
   13.1189   -1.3355   22.3264 C   0  0  0  0  0  0  0  0  0  0  0  0
   13.9392   -2.0394   22.2073 H   0  0  0  0  0  0  0  0  0  0  0  0
   11.7751   -1.7307   22.2730 C   0  0  0  0  0  0  0  0  0  0  0  0
   11.4925   -2.7728   22.1867 H   0  0  0  0  0  0  0  0  0  0  0  0
    8.8102   -2.0339   23.0419 C   0  0  0  0  0  0  0  0  0  0  0  0
    9.3710   -2.6699   23.9039 O   0  0  0  0  0  0  0  0  0  0  0  0
    7.4826   -2.2192   22.8088 N   0  0  0  0  0  0  0  0  0  0  0  0
    7.0611   -2.9479   23.3553 H   0  0  0  0  0  0  0  0  0  0  0  0
    6.7147   -1.7543   21.7602 C   0  0  0  0  0  0  0  0  0  0  0  0
    5.6250   -2.2649   21.5947 O   0  0  0  0  0  0  0  0  0  0  0  0
    5.4342    0.6615   20.0915 C   0  0  0  0  0  0  0  0  0  0  0  0
    5.0053    0.6146   21.0931 H   0  0  0  0  0  0  0  0  0  0  0  0
    4.7915    1.3376   19.0501 C   0  0  0  0  0  0  0  0  0  0  0  0
    3.8507    1.8571   19.1999 H   0  0  0  0  0  0  0  0  0  0  0  0
  1  2  1  0
  2  3  2  0
  3  4  1  0
  4  5  1  0
  4  6  2  0
  6  7  1  0
  7  8  2  0
  8  9  1  0
  8 10  1  0
 10 11  1  0
 11 12  2  0
 12 13  1  0
 12 14  1  0
 14 15  2  0
 15 16  1  0
 16 17  1  0
 16 18  2  0
 18 19  1  0
 10 20  1  0
 20 21  2  0
 20 22  1  0
 22 23  1  0
 22 24  1  0
 24 25  2  0
  6 26  1  0
 26 27  1  0
 26 28  2  0
 28 29  1  0
 28  2  1  0
 24  7  1  0
 18 11  1  0
M  END
>  <cnnaffinity>  (1) 
-4.88172

>  <filename>  (1) 
O=c1[nH]c(=O)n(-c2ccnnc2)cc1-c1cccnc1

$$$$
