
     RDKit          3D

 30 32  0  0  0  0  0  0  0  0999 V2000
    4.9173    1.7779   16.9993 H   0  0  0  0  0  0  0  0  0  0  0  0
    5.4027    1.2934   17.8419 C   0  0  0  0  0  0  0  0  0  0  0  0
    6.5649    0.6739   17.5788 N   0  0  0  0  0  0  0  0  0  0  0  0
    7.1584    0.0503   18.5991 C   0  0  0  0  0  0  0  0  0  0  0  0
    8.1189   -0.4182   18.3883 H   0  0  0  0  0  0  0  0  0  0  0  0
    6.6166   -0.0208   19.8998 C   0  0  0  0  0  0  0  0  0  0  0  0
    7.3099   -0.7428   20.9976 C   0  0  0  0  0  0  0  0  0  0  0  0
    6.5627   -1.4946   21.7679 N   0  0  0  0  0  0  0  0  0  0  0  0
    7.1594   -2.1850   22.8025 N   0  0  0  0  0  0  0  0  0  0  0  0
    6.2993   -2.9896   23.6181 C   0  0  0  0  0  0  0  0  0  0  0  0
    6.3502   -2.8600   25.0209 C   0  0  0  0  0  0  0  0  0  0  0  0
    7.0340   -2.1284   25.4397 H   0  0  0  0  0  0  0  0  0  0  0  0
    5.5158   -3.6143   25.8469 C   0  0  0  0  0  0  0  0  0  0  0  0
    5.5632   -3.4897   26.9264 H   0  0  0  0  0  0  0  0  0  0  0  0
    4.6296   -4.5338   25.2816 C   0  0  0  0  0  0  0  0  0  0  0  0
    3.9813   -5.1282   25.9211 H   0  0  0  0  0  0  0  0  0  0  0  0
    4.5762   -4.6959   23.8958 C   0  0  0  0  0  0  0  0  0  0  0  0
    3.8918   -5.4143   23.4508 H   0  0  0  0  0  0  0  0  0  0  0  0
    5.4040   -3.9284   23.0619 C   0  0  0  0  0  0  0  0  0  0  0  0
    5.3266   -4.2384   21.3564 Cl  0  0  0  0  0  0  0  0  0  0  0  0
    8.5218   -2.1051   23.0250 C   0  0  0  0  0  0  0  0  0  0  0  0
    8.9057   -2.7094   23.8506 H   0  0  0  0  0  0  0  0  0  0  0  0
    9.3406   -1.3508   22.2722 C   0  0  0  0  0  0  0  0  0  0  0  0
   10.4041   -1.2661   22.4443 H   0  0  0  0  0  0  0  0  0  0  0  0
    8.7996   -0.5555   21.1822 C   0  0  0  0  0  0  0  0  0  0  0  0
    9.4966    0.1773   20.4850 O   0  0  0  0  0  0  0  0  0  0  0  0
    5.4175    0.6477   20.1586 C   0  0  0  0  0  0  0  0  0  0  0  0
    5.0062    0.6168   21.1705 H   0  0  0  0  0  0  0  0  0  0  0  0
    4.8012    1.3208   19.1059 C   0  0  0  0  0  0  0  0  0  0  0  0
    3.8678    1.8514   19.2579 H   0  0  0  0  0  0  0  0  0  0  0  0
  1  2  1  0
  2  3  2  0
  3  4  1  0
  4  5  1  0
  4  6  2  0
  6  7  1  0
  7  8  2  0
  8  9  1  0
  9 10  1  0
 10 11  2  0
 11 12  1  0
 11 13  1  0
 13 14  1  0
 13 15  2  0
 15 16  1  0
 15 17  1  0
 17 18  1  0
 17 19  2  0
 19 20  1  0
  9 21  1  0
 21 22  1  0
 21 23  2  0
 23 24  1  0
 23 25  1  0
 25 26  2  0
  6 27  1  0
 27 28  1  0
 27 29  2  0
 29 30  1  0
 29  2  1  0
 25  7  1  0
 19 10  1  0
M  END
>  <cnnaffinity>  (1) 
-5.46354

>  <filename>  (1) 
O=c1ccn(-c2ccccc2Cl)nc1-c1cccnc1

$$$$
