
     RDKit          3D

 33 35  0  0  0  0  0  0  0  0999 V2000
    4.9516    1.8029   16.8093 H   0  0  0  0  0  0  0  0  0  0  0  0
    5.4036    1.3232   17.6737 C   0  0  0  0  0  0  0  0  0  0  0  0
    6.5687    0.6917   17.4524 N   0  0  0  0  0  0  0  0  0  0  0  0
    7.1463    0.0897   18.4987 C   0  0  0  0  0  0  0  0  0  0  0  0
    8.0885   -0.4163   18.2861 H   0  0  0  0  0  0  0  0  0  0  0  0
    6.6151    0.1075   19.8009 C   0  0  0  0  0  0  0  0  0  0  0  0
    7.2947   -0.5278   20.9299 C   0  0  0  0  0  0  0  0  0  0  0  0
    7.3874    0.0208   22.1770 C   0  0  0  0  0  0  0  0  0  0  0  0
    7.0520    1.0327   22.3474 H   0  0  0  0  0  0  0  0  0  0  0  0
    7.9492   -0.7696   23.2178 C   0  0  0  0  0  0  0  0  0  0  0  0
    8.2288   -0.1303   24.5595 C   0  0  0  0  0  0  0  0  0  0  0  0
    7.5008    0.6561   24.7714 H   0  0  0  0  0  0  0  0  0  0  0  0
    8.1095   -0.9012   25.3262 H   0  0  0  0  0  0  0  0  0  0  0  0
    9.6363    0.4388   24.6194 C   0  0  0  0  0  0  0  0  0  0  0  0
   10.6940   -0.4242   24.9438 C   0  0  0  0  0  0  0  0  0  0  0  0
   10.4593   -1.4754   25.1078 H   0  0  0  0  0  0  0  0  0  0  0  0
   12.0078    0.0440   25.0248 C   0  0  0  0  0  0  0  0  0  0  0  0
   12.8069   -0.5807   25.4016 H   0  0  0  0  0  0  0  0  0  0  0  0
   12.3051    1.3548   24.6492 C   0  0  0  0  0  0  0  0  0  0  0  0
   13.3368    1.6959   24.6429 H   0  0  0  0  0  0  0  0  0  0  0  0
   11.2786    2.2248   24.2824 C   0  0  0  0  0  0  0  0  0  0  0  0
   11.4927    3.2474   23.9884 H   0  0  0  0  0  0  0  0  0  0  0  0
    9.9546    1.7733   24.3034 C   0  0  0  0  0  0  0  0  0  0  0  0
    8.6942    2.9264   23.9307 Cl  0  0  0  0  0  0  0  0  0  0  0  0
    8.2655   -2.0328   23.0784 N   0  0  0  0  0  0  0  0  0  0  0  0
    8.1501   -2.5938   21.8306 C   0  0  0  0  0  0  0  0  0  0  0  0
    8.3050   -3.7677   21.5645 O   0  0  0  0  0  0  0  0  0  0  0  0
    7.8565   -1.7471   20.7572 N   0  0  0  0  0  0  0  0  0  0  0  0
    7.7409   -2.2942   19.9237 H   0  0  0  0  0  0  0  0  0  0  0  0
    5.3916    0.7696   20.0099 C   0  0  0  0  0  0  0  0  0  0  0  0
    4.9402    0.7825   21.0071 H   0  0  0  0  0  0  0  0  0  0  0  0
    4.7687    1.3740   18.9216 C   0  0  0  0  0  0  0  0  0  0  0  0
    3.8218    1.8947   19.0323 H   0  0  0  0  0  0  0  0  0  0  0  0
  1  2  1  0
  2  3  2  0
  3  4  1  0
  4  5  1  0
  4  6  2  0
  6  7  1  0
  7  8  2  0
  8  9  1  0
  8 10  1  0
 10 11  1  0
 11 12  1  0
 11 13  1  0
 11 14  1  0
 14 15  2  0
 15 16  1  0
 15 17  1  0
 17 18  1  0
 17 19  2  0
 19 20  1  0
 19 21  1  0
 21 22  1  0
 21 23  2  0
 23 24  1  0
 10 25  2  0
 25 26  1  0
 26 27  2  0
 26 28  1  0
 28 29  1  0
  6 30  1  0
 30 31  1  0
 30 32  2  0
 32 33  1  0
 32  2  1  0
 28  7  1  0
 23 14  1  0
M  END
>  <cnnaffinity>  (1) 
-5.549

>  <filename>  (1) 
O=c1nc(Cc2ccccc2Cl)cc(-c2cccnc2)[nH]1

$$$$
