
     RDKit          3D

 28 30  0  0  0  0  0  0  0  0999 V2000
    4.9395    1.8097   16.9070 H   0  0  0  0  0  0  0  0  0  0  0  0
    5.4069    1.3012   17.7477 C   0  0  0  0  0  0  0  0  0  0  0  0
    6.5553    0.6538   17.4870 N   0  0  0  0  0  0  0  0  0  0  0  0
    7.1534    0.0276   18.5054 C   0  0  0  0  0  0  0  0  0  0  0  0
    8.0865   -0.4823   18.2860 H   0  0  0  0  0  0  0  0  0  0  0  0
    6.6549    0.0131   19.8261 C   0  0  0  0  0  0  0  0  0  0  0  0
    7.3407   -0.6591   20.8678 N   0  0  0  0  0  0  0  0  0  0  0  0
    7.4441   -0.2941   22.2192 C   0  0  0  0  0  0  0  0  0  0  0  0
    6.9414    0.7199   22.6880 O   0  0  0  0  0  0  0  0  0  0  0  0
    8.2574   -1.3805   22.8378 C   0  0  0  0  0  0  0  0  0  0  0  0
    8.6393   -1.4084   24.2660 C   0  0  0  0  0  0  0  0  0  0  0  0
    8.9598   -2.5707   25.0183 C   0  0  0  0  0  0  0  0  0  0  0  0
    8.9459   -3.5630   24.5669 H   0  0  0  0  0  0  0  0  0  0  0  0
    9.2717   -2.5361   26.3235 N   0  0  0  0  0  0  0  0  0  0  0  0
    9.2680   -1.3508   26.9548 C   0  0  0  0  0  0  0  0  0  0  0  0
    9.5459   -1.3145   28.0064 H   0  0  0  0  0  0  0  0  0  0  0  0
    8.9284   -0.1685   26.2949 C   0  0  0  0  0  0  0  0  0  0  0  0
    8.8231    0.9838   26.9646 F   0  0  0  0  0  0  0  0  0  0  0  0
    8.6524   -0.1759   24.9429 C   0  0  0  0  0  0  0  0  0  0  0  0
    8.4365    0.7531   24.4279 H   0  0  0  0  0  0  0  0  0  0  0  0
    8.5813   -2.2265   21.8299 C   0  0  0  0  0  0  0  0  0  0  0  0
    9.1693   -3.1319   21.8661 H   0  0  0  0  0  0  0  0  0  0  0  0
    8.1495   -1.7621   20.5934 N   0  0  0  0  0  0  0  0  0  0  0  0
    7.7032   -2.4136   19.9502 H   0  0  0  0  0  0  0  0  0  0  0  0
    5.4574    0.6968   20.0869 C   0  0  0  0  0  0  0  0  0  0  0  0
    5.0650    0.7299   21.1025 H   0  0  0  0  0  0  0  0  0  0  0  0
    4.8174    1.3329   19.0179 C   0  0  0  0  0  0  0  0  0  0  0  0
    3.8808    1.8627   19.1612 H   0  0  0  0  0  0  0  0  0  0  0  0
  1  2  1  0
  2  3  2  0
  3  4  1  0
  4  5  1  0
  4  6  2  0
  6  7  1  0
  7  8  1  0
  8  9  2  0
  8 10  1  0
 10 11  1  0
 11 12  2  0
 12 13  1  0
 12 14  1  0
 14 15  2  0
 15 16  1  0
 15 17  1  0
 17 18  1  0
 17 19  2  0
 19 20  1  0
 10 21  2  0
 21 22  1  0
 21 23  1  0
 23 24  1  0
  6 25  1  0
 25 26  1  0
 25 27  2  0
 27 28  1  0
 27  2  1  0
 23  7  1  0
 19 11  1  0
M  END
>  <cnnaffinity>  (1) 
-5.08352

>  <filename>  (1) 
O=c1c(-c2cncc(F)c2)c[nH]n1-c1cccnc1

$$$$
