
     RDKit          3D

 31 33  0  0  0  0  0  0  0  0999 V2000
    5.0135    1.8158   17.0199 H   0  0  0  0  0  0  0  0  0  0  0  0
    5.4101    1.2489   17.8621 C   0  0  0  0  0  0  0  0  0  0  0  0
    6.5549    0.5886   17.6359 N   0  0  0  0  0  0  0  0  0  0  0  0
    7.0763   -0.0936   18.6612 C   0  0  0  0  0  0  0  0  0  0  0  0
    8.0335   -0.5771   18.4754 H   0  0  0  0  0  0  0  0  0  0  0  0
    6.4915   -0.2001   19.9501 C   0  0  0  0  0  0  0  0  0  0  0  0
    7.1984   -0.9008   21.0500 C   0  0  0  0  0  0  0  0  0  0  0  0
    6.8317   -1.8552   21.9398 C   0  0  0  0  0  0  0  0  0  0  0  0
    5.6124   -2.4915   22.0618 N   0  0  0  0  0  0  0  0  0  0  0  0
    4.8412   -1.8434   21.9979 H   0  0  0  0  0  0  0  0  0  0  0  0
    5.3232   -3.6347   22.8585 C   0  0  0  0  0  0  0  0  0  0  0  0
    6.0487   -4.8194   22.6646 C   0  0  0  0  0  0  0  0  0  0  0  0
    6.8673   -4.7876   21.9508 H   0  0  0  0  0  0  0  0  0  0  0  0
    5.7246   -5.9915   23.3632 C   0  0  0  0  0  0  0  0  0  0  0  0
    6.2685   -6.9110   23.1717 H   0  0  0  0  0  0  0  0  0  0  0  0
    4.6782   -5.9730   24.2919 C   0  0  0  0  0  0  0  0  0  0  0  0
    4.2680   -7.4060   25.1950 Cl  0  0  0  0  0  0  0  0  0  0  0  0
    3.9342   -4.8081   24.4944 C   0  0  0  0  0  0  0  0  0  0  0  0
    3.1317   -4.8168   25.2300 H   0  0  0  0  0  0  0  0  0  0  0  0
    4.2573   -3.6470   23.7782 C   0  0  0  0  0  0  0  0  0  0  0  0
    3.6703   -2.7576   23.9745 H   0  0  0  0  0  0  0  0  0  0  0  0
    7.9757   -2.1534   22.8680 C   0  0  0  0  0  0  0  0  0  0  0  0
    7.7291   -1.9321   23.9154 H   0  0  0  0  0  0  0  0  0  0  0  0
    8.3069   -3.1965   22.8119 H   0  0  0  0  0  0  0  0  0  0  0  0
    9.0209   -1.3088   22.4339 O   0  0  0  0  0  0  0  0  0  0  0  0
    8.6132   -0.5921   21.3511 C   0  0  0  0  0  0  0  0  0  0  0  0
    9.3632    0.1590   20.7825 O   0  0  0  0  0  0  0  0  0  0  0  0
    5.2849    0.4905   20.1482 C   0  0  0  0  0  0  0  0  0  0  0  0
    4.8137    0.4847   21.1324 H   0  0  0  0  0  0  0  0  0  0  0  0
    4.7458    1.2327   19.0927 C   0  0  0  0  0  0  0  0  0  0  0  0
    3.8403    1.8148   19.2125 H   0  0  0  0  0  0  0  0  0  0  0  0
  1  2  1  0
  2  3  2  0
  3  4  1  0
  4  5  1  0
  4  6  2  0
  6  7  1  0
  7  8  2  0
  8  9  1  0
  9 10  1  0
  9 11  1  0
 11 12  2  0
 12 13  1  0
 12 14  1  0
 14 15  1  0
 14 16  2  0
 16 17  1  0
 16 18  1  0
 18 19  1  0
 18 20  2  0
 20 21  1  0
  8 22  1  0
 22 23  1  0
 22 24  1  0
 22 25  1  0
 25 26  1  0
 26 27  2  0
  6 28  1  0
 28 29  1  0
 28 30  2  0
 30 31  1  0
 30  2  1  0
 26  7  1  0
 20 11  1  0
M  END
>  <cnnaffinity>  (1) 
-4.74043

>  <filename>  (1) 
O=C1OCC(Nc2ccc(Cl)cc2)=C1c1cccnc1

$$$$
