
     RDKit          3D

 32 34  0  0  0  0  0  0  0  0999 V2000
    4.9237    1.8335   16.9679 H   0  0  0  0  0  0  0  0  0  0  0  0
    5.3938    1.3125   17.7983 C   0  0  0  0  0  0  0  0  0  0  0  0
    6.5552    0.6957   17.5299 N   0  0  0  0  0  0  0  0  0  0  0  0
    7.1613    0.0678   18.5451 C   0  0  0  0  0  0  0  0  0  0  0  0
    8.1133   -0.4064   18.2995 H   0  0  0  0  0  0  0  0  0  0  0  0
    6.6498   -0.0072   19.8563 C   0  0  0  0  0  0  0  0  0  0  0  0
    7.3926   -0.7130   20.9722 C   0  0  2  0  0  0  0  0  0  0  0  0
    8.3018   -1.1410   20.5301 H   0  0  0  0  0  0  0  0  0  0  0  0
    6.5937   -1.8506   21.6763 C   0  0  0  0  0  0  0  0  0  0  0  0
    5.5792   -1.9420   21.2605 H   0  0  0  0  0  0  0  0  0  0  0  0
    7.0869   -2.8256   21.5476 H   0  0  0  0  0  0  0  0  0  0  0  0
    6.5658   -1.4779   23.0817 N   0  0  0  0  0  0  0  0  0  0  0  0
    5.8149   -1.7308   23.7107 H   0  0  0  0  0  0  0  0  0  0  0  0
    7.0626   -0.2373   23.3547 C   0  0  0  0  0  0  0  0  0  0  0  0
    6.9251    0.3262   24.4178 O   0  0  0  0  0  0  0  0  0  0  0  0
    7.8018    0.2570   22.1222 C   0  0  1  0  0  0  0  0  0  0  0  0
    7.4712    1.2849   21.9524 H   0  0  0  0  0  0  0  0  0  0  0  0
    9.2991    0.2805   22.3533 C   0  0  0  0  0  0  0  0  0  0  0  0
    9.9482   -0.9101   22.7018 C   0  0  0  0  0  0  0  0  0  0  0  0
    9.3546   -1.7909   22.9332 H   0  0  0  0  0  0  0  0  0  0  0  0
   11.3356   -0.9685   22.7585 C   0  0  0  0  0  0  0  0  0  0  0  0
   11.8463   -1.9160   22.8645 H   0  0  0  0  0  0  0  0  0  0  0  0
   12.0985    0.1977   22.6277 C   0  0  0  0  0  0  0  0  0  0  0  0
   13.8026    0.1168   22.9309 Cl  0  0  0  0  0  0  0  0  0  0  0  0
   11.4601    1.4021   22.2798 C   0  0  0  0  0  0  0  0  0  0  0  0
   12.3524    2.8680   22.0131 Cl  0  0  0  0  0  0  0  0  0  0  0  0
   10.0679    1.4246   22.1206 C   0  0  0  0  0  0  0  0  0  0  0  0
    9.6006    2.3516   21.7983 H   0  0  0  0  0  0  0  0  0  0  0  0
    5.4349    0.6446   20.1063 C   0  0  0  0  0  0  0  0  0  0  0  0
    5.0039    0.6401   21.1087 H   0  0  0  0  0  0  0  0  0  0  0  0
    4.7963    1.3122   19.0616 C   0  0  0  0  0  0  0  0  0  0  0  0
    3.8664    1.8454   19.2187 H   0  0  0  0  0  0  0  0  0  0  0  0
  1  2  1  0
  2  3  2  0
  3  4  1  0
  4  5  1  0
  4  6  2  0
  6  7  1  0
  7  8  1  6
  7  9  1  0
  9 10  1  0
  9 11  1  0
  9 12  1  0
 12 13  1  0
 12 14  1  0
 14 15  2  0
 14 16  1  0
 16 17  1  6
 16 18  1  0
 18 19  2  0
 19 20  1  0
 19 21  1  0
 21 22  1  0
 21 23  2  0
 23 24  1  0
 23 25  1  0
 25 26  1  0
 25 27  2  0
 27 28  1  0
  6 29  1  0
 29 30  1  0
 29 31  2  0
 31 32  1  0
 31  2  1  0
 16  7  1  0
 27 18  1  0
M  END
>  <cnnaffinity>  (1) 
-5.43368

>  <filename>  (1) 
O=C1NC[C@@H](c2cccnc2)[C@@H]1c1ccc(Cl)c(Cl)c1

$$$$
