
     RDKit          3D

 34 36  0  0  0  0  0  0  0  0999 V2000
    4.9085    1.8496   16.9285 H   0  0  0  0  0  0  0  0  0  0  0  0
    5.3930    1.3365   17.7573 C   0  0  0  0  0  0  0  0  0  0  0  0
    6.5500    0.7146   17.4808 N   0  0  0  0  0  0  0  0  0  0  0  0
    7.1739    0.0936   18.4941 C   0  0  0  0  0  0  0  0  0  0  0  0
    8.0963   -0.4171   18.2218 H   0  0  0  0  0  0  0  0  0  0  0  0
    6.6964    0.0461   19.8232 C   0  0  0  0  0  0  0  0  0  0  0  0
    7.4196   -0.6567   20.9306 C   0  0  0  0  0  0  0  0  0  0  0  0
    6.6873   -1.4514   21.8682 C   0  0  0  0  0  0  0  0  0  0  0  0
    5.6221   -1.5652   21.6906 H   0  0  0  0  0  0  0  0  0  0  0  0
    7.2818   -2.0941   22.9253 C   0  0  0  0  0  0  0  0  0  0  0  0
    6.5506   -3.0204   23.8618 C   0  0  0  0  0  0  0  0  0  0  0  0
    6.8592   -2.8181   24.8912 H   0  0  0  0  0  0  0  0  0  0  0  0
    5.4680   -2.8503   23.8127 H   0  0  0  0  0  0  0  0  0  0  0  0
    6.8767   -4.4676   23.5340 C   0  0  0  0  0  0  0  0  0  0  0  0
    7.9809   -5.1032   24.1298 C   0  0  0  0  0  0  0  0  0  0  0  0
    8.4940   -4.6187   24.9571 H   0  0  0  0  0  0  0  0  0  0  0  0
    8.4650   -6.3153   23.6448 C   0  0  0  0  0  0  0  0  0  0  0  0
    9.3730   -6.7278   24.0743 H   0  0  0  0  0  0  0  0  0  0  0  0
    7.7936   -6.9738   22.6092 C   0  0  0  0  0  0  0  0  0  0  0  0
    8.1560   -7.9419   22.2686 H   0  0  0  0  0  0  0  0  0  0  0  0
    6.6503   -6.4036   22.0480 C   0  0  0  0  0  0  0  0  0  0  0  0
    6.0934   -6.9126   21.2673 H   0  0  0  0  0  0  0  0  0  0  0  0
    6.2140   -5.1538   22.5040 C   0  0  0  0  0  0  0  0  0  0  0  0
    4.8350   -4.4399   21.7146 Cl  0  0  0  0  0  0  0  0  0  0  0  0
    8.7343   -1.9756   23.0957 C   0  0  0  0  0  0  0  0  0  0  0  0
    9.4329   -2.4755   23.9618 O   0  0  0  0  0  0  0  0  0  0  0  0
    9.3788   -1.1976   22.1371 N   0  0  0  0  0  0  0  0  0  0  0  0
   10.3720   -1.2039   22.3162 H   0  0  0  0  0  0  0  0  0  0  0  0
    8.7755   -0.5487   21.0974 C   0  0  0  0  0  0  0  0  0  0  0  0
    9.4081    0.0602   20.4579 H   0  0  0  0  0  0  0  0  0  0  0  0
    5.4704    0.6879   20.0707 C   0  0  0  0  0  0  0  0  0  0  0  0
    5.0477    0.6767   21.0770 H   0  0  0  0  0  0  0  0  0  0  0  0
    4.8115    1.3444   19.0295 C   0  0  0  0  0  0  0  0  0  0  0  0
    3.8710    1.8601   19.1921 H   0  0  0  0  0  0  0  0  0  0  0  0
  1  2  1  0
  2  3  2  0
  3  4  1  0
  4  5  1  0
  4  6  2  0
  6  7  1  0
  7  8  1  0
  8  9  1  0
  8 10  2  0
 10 11  1  0
 11 12  1  0
 11 13  1  0
 11 14  1  0
 14 15  2  0
 15 16  1  0
 15 17  1  0
 17 18  1  0
 17 19  2  0
 19 20  1  0
 19 21  1  0
 21 22  1  0
 21 23  2  0
 23 24  1  0
 10 25  1  0
 25 26  2  0
 25 27  1  0
 27 28  1  0
 27 29  1  0
 29 30  1  0
  6 31  1  0
 31 32  1  0
 31 33  2  0
 33 34  1  0
 33  2  1  0
 29  7  2  0
 23 14  1  0
M  END
>  <cnnaffinity>  (1) 
-5.09282

>  <filename>  (1) 
O=c1[nH]cc(-c2cccnc2)cc1Cc1ccccc1Cl

$$$$
