
     RDKit          3D

 32 35  0  0  0  0  0  0  0  0999 V2000
    4.9114    1.8224   16.9685 H   0  0  0  0  0  0  0  0  0  0  0  0
    5.3818    1.3005   17.8004 C   0  0  0  0  0  0  0  0  0  0  0  0
    6.5341    0.6676   17.5286 N   0  0  0  0  0  0  0  0  0  0  0  0
    7.1736    0.0573   18.5352 C   0  0  0  0  0  0  0  0  0  0  0  0
    8.1252   -0.4153   18.2959 H   0  0  0  0  0  0  0  0  0  0  0  0
    6.6884    0.0195   19.8619 C   0  0  0  0  0  0  0  0  0  0  0  0
    7.3766   -0.6634   20.9119 N   0  0  0  0  0  0  0  0  0  0  0  0
    6.7607   -1.4174   21.9090 C   0  0  0  0  0  0  0  0  0  0  0  0
    5.6927   -1.5726   21.8663 H   0  0  0  0  0  0  0  0  0  0  0  0
    7.7058   -1.9075   22.7560 C   0  0  0  0  0  0  0  0  0  0  0  0
    7.5543   -2.6766   23.9943 C   0  0  0  0  0  0  0  0  0  0  0  0
    6.4981   -2.5106   24.8407 C   0  0  0  0  0  0  0  0  0  0  0  0
    5.7206   -1.7614   24.7613 H   0  0  0  0  0  0  0  0  0  0  0  0
    6.4888   -3.5511   26.2142 S   0  0  0  0  0  0  0  0  0  0  0  0
    7.9910   -4.2843   25.7180 C   0  0  0  0  0  0  0  0  0  0  0  0
    8.6792   -5.3374   26.3649 C   0  0  0  0  0  0  0  0  0  0  0  0
    8.2724   -5.8281   27.2478 H   0  0  0  0  0  0  0  0  0  0  0  0
    9.9111   -5.7316   25.8554 C   0  0  0  0  0  0  0  0  0  0  0  0
   10.4768   -6.5222   26.3449 H   0  0  0  0  0  0  0  0  0  0  0  0
   10.4337   -5.1159   24.6998 C   0  0  0  0  0  0  0  0  0  0  0  0
   11.4225   -5.3925   24.3436 H   0  0  0  0  0  0  0  0  0  0  0  0
    9.6984   -4.1678   23.9972 C   0  0  0  0  0  0  0  0  0  0  0  0
   10.0765   -3.7743   23.0571 H   0  0  0  0  0  0  0  0  0  0  0  0
    8.4584   -3.7163   24.5062 C   0  0  0  0  0  0  0  0  0  0  0  0
    8.9285   -1.5043   22.2081 N   0  0  0  0  0  0  0  0  0  0  0  0
    9.8294   -1.4502   22.6427 H   0  0  0  0  0  0  0  0  0  0  0  0
    8.7647   -0.6747   21.1276 C   0  0  0  0  0  0  0  0  0  0  0  0
    9.6564   -0.1041   20.5387 O   0  0  0  0  0  0  0  0  0  0  0  0
    5.4722    0.6661   20.1218 C   0  0  0  0  0  0  0  0  0  0  0  0
    5.0778    0.6727   21.1364 H   0  0  0  0  0  0  0  0  0  0  0  0
    4.8112    1.3169   19.0757 C   0  0  0  0  0  0  0  0  0  0  0  0
    3.8775    1.8415   19.2384 H   0  0  0  0  0  0  0  0  0  0  0  0
  1  2  1  0
  2  3  2  0
  3  4  1  0
  4  5  1  0
  4  6  2  0
  6  7  1  0
  7  8  1  0
  8  9  1  0
  8 10  2  0
 10 11  1  0
 11 12  2  0
 12 13  1  0
 12 14  1  0
 14 15  1  0
 15 16  2  0
 16 17  1  0
 16 18  1  0
 18 19  1  0
 18 20  2  0
 20 21  1  0
 20 22  1  0
 22 23  1  0
 22 24  2  0
 10 25  1  0
 25 26  1  0
 25 27  1  0
 27 28  2  0
  6 29  1  0
 29 30  1  0
 29 31  2  0
 31 32  1  0
 31  2  1  0
 27  7  1  0
 24 11  1  0
 24 15  1  0
M  END
>  <cnnaffinity>  (1) 
-5.49375

>  <filename>  (1) 
O=c1[nH]c(-c2csc3ccccc23)cn1-c1cccnc1

$$$$
