
     RDKit          3D

 33 35  0  0  0  0  0  0  0  0999 V2000
    4.9202    1.7902   16.9953 H   0  0  0  0  0  0  0  0  0  0  0  0
    5.3940    1.2918   17.8369 C   0  0  0  0  0  0  0  0  0  0  0  0
    6.5524    0.6680   17.5707 N   0  0  0  0  0  0  0  0  0  0  0  0
    7.1731    0.0537   18.5833 C   0  0  0  0  0  0  0  0  0  0  0  0
    8.1281   -0.4199   18.3653 H   0  0  0  0  0  0  0  0  0  0  0  0
    6.6653    0.0062   19.8996 C   0  0  0  0  0  0  0  0  0  0  0  0
    7.3588   -0.6731   20.9423 N   0  0  0  0  0  0  0  0  0  0  0  0
    6.7687   -1.4457   21.9364 C   0  0  0  0  0  0  0  0  0  0  0  0
    5.7034   -1.6020   21.9520 H   0  0  0  0  0  0  0  0  0  0  0  0
    7.7309   -1.9445   22.7491 C   0  0  0  0  0  0  0  0  0  0  0  0
    7.6098   -2.7960   23.9420 C   0  0  0  0  0  0  0  0  0  0  0  0
    6.3702   -2.8801   24.6008 C   0  0  0  0  0  0  0  0  0  0  0  0
    5.5387   -2.2911   24.2294 H   0  0  0  0  0  0  0  0  0  0  0  0
    6.1756   -3.6845   25.7239 C   0  0  0  0  0  0  0  0  0  0  0  0
    5.2057   -3.7287   26.2071 H   0  0  0  0  0  0  0  0  0  0  0  0
    7.2561   -4.4259   26.2052 C   0  0  0  0  0  0  0  0  0  0  0  0
    7.1906   -5.2578   27.3143 O   0  0  0  0  0  0  0  0  0  0  0  0
    6.0574   -5.4275   28.0255 C   0  0  0  0  0  0  0  0  0  0  0  0
    5.0466   -5.9311   27.2970 F   0  0  0  0  0  0  0  0  0  0  0  0
    5.6001   -4.2861   28.5678 F   0  0  0  0  0  0  0  0  0  0  0  0
    6.3459   -6.2762   29.0011 F   0  0  0  0  0  0  0  0  0  0  0  0
    8.5086   -4.3725   25.5800 C   0  0  0  0  0  0  0  0  0  0  0  0
    9.3313   -4.9620   25.9817 H   0  0  0  0  0  0  0  0  0  0  0  0
    8.6771   -3.5621   24.4557 C   0  0  0  0  0  0  0  0  0  0  0  0
    9.6446   -3.5303   23.9594 H   0  0  0  0  0  0  0  0  0  0  0  0
    8.9362   -1.4795   22.2268 N   0  0  0  0  0  0  0  0  0  0  0  0
    9.8750   -1.5647   22.5652 H   0  0  0  0  0  0  0  0  0  0  0  0
    8.7503   -0.6783   21.1338 C   0  0  0  0  0  0  0  0  0  0  0  0
    9.6261   -0.1218   20.5042 O   0  0  0  0  0  0  0  0  0  0  0  0
    5.4473    0.6451   20.1598 C   0  0  0  0  0  0  0  0  0  0  0  0
    5.0297    0.6358   21.1681 H   0  0  0  0  0  0  0  0  0  0  0  0
    4.8106    1.3076   19.1074 C   0  0  0  0  0  0  0  0  0  0  0  0
    3.8806    1.8384   19.2608 H   0  0  0  0  0  0  0  0  0  0  0  0
  1  2  1  0
  2  3  2  0
  3  4  1  0
  4  5  1  0
  4  6  2  0
  6  7  1  0
  7  8  1  0
  8  9  1  0
  8 10  2  0
 10 11  1  0
 11 12  2  0
 12 13  1  0
 12 14  1  0
 14 15  1  0
 14 16  2  0
 16 17  1  0
 17 18  1  0
 18 19  1  0
 18 20  1  0
 18 21  1  0
 16 22  1  0
 22 23  1  0
 22 24  2  0
 24 25  1  0
 10 26  1  0
 26 27  1  0
 26 28  1  0
 28 29  2  0
  6 30  1  0
 30 31  1  0
 30 32  2  0
 32 33  1  0
 32  2  1  0
 28  7  1  0
 24 11  1  0
M  END
>  <cnnaffinity>  (1) 
-5.40345

>  <filename>  (1) 
O=c1[nH]c(-c2ccc(OC(F)(F)F)cc2)cn1-c1cccnc1

$$$$
