
     RDKit          3D

 36 39  0  0  0  0  0  0  0  0999 V2000
    4.9205    1.8110   16.9735 H   0  0  0  0  0  0  0  0  0  0  0  0
    5.3930    1.3057   17.8120 C   0  0  0  0  0  0  0  0  0  0  0  0
    6.5590    0.6952   17.5447 N   0  0  0  0  0  0  0  0  0  0  0  0
    7.1659    0.0696   18.5618 C   0  0  0  0  0  0  0  0  0  0  0  0
    8.1213   -0.4048   18.3292 H   0  0  0  0  0  0  0  0  0  0  0  0
    6.6463   -0.0043   19.8701 C   0  0  0  0  0  0  0  0  0  0  0  0
    7.3746   -0.6978   21.0114 C   0  0  2  0  0  0  0  0  0  0  0  0
    8.2236   -1.2515   20.5828 H   0  0  0  0  0  0  0  0  0  0  0  0
    6.5199   -1.7430   21.7481 C   0  0  0  0  0  0  0  0  0  0  0  0
    5.9384   -2.7101   21.2977 O   0  0  0  0  0  0  0  0  0  0  0  0
    6.5298   -1.4435   23.0715 N   0  0  0  0  0  0  0  0  0  0  0  0
    5.7666   -1.8985   23.5537 H   0  0  0  0  0  0  0  0  0  0  0  0
    7.0813   -0.1450   23.4107 C   0  0  0  0  0  0  0  0  0  0  0  0
    6.3110    0.5898   23.6874 H   0  0  0  0  0  0  0  0  0  0  0  0
    7.7444   -0.2397   24.2818 H   0  0  0  0  0  0  0  0  0  0  0  0
    7.8463    0.2948   22.1289 C   0  0  1  0  0  0  0  0  0  0  0  0
    7.5780    1.3317   21.8708 H   0  0  0  0  0  0  0  0  0  0  0  0
    9.3493    0.2477   22.3054 C   0  0  0  0  0  0  0  0  0  0  0  0
    9.9620   -0.9802   22.6686 C   0  0  0  0  0  0  0  0  0  0  0  0
    9.3247   -1.8314   22.8936 H   0  0  0  0  0  0  0  0  0  0  0  0
   11.3396   -1.1115   22.7580 C   0  0  0  0  0  0  0  0  0  0  0  0
   11.7707   -2.1012   22.8953 H   0  0  0  0  0  0  0  0  0  0  0  0
   12.1419    0.0472   22.6274 C   0  0  0  0  0  0  0  0  0  0  0  0
   13.5395    0.3469   22.8104 C   0  0  0  0  0  0  0  0  0  0  0  0
   14.3277   -0.3470   23.0669 H   0  0  0  0  0  0  0  0  0  0  0  0
   13.6968    1.6754   22.5533 C   0  0  0  0  0  0  0  0  0  0  0  0
   14.5993    2.2705   22.5355 H   0  0  0  0  0  0  0  0  0  0  0  0
   12.4845    2.2355   22.2058 N   0  0  0  0  0  0  0  0  0  0  0  0
   12.3465    3.1508   21.8079 H   0  0  0  0  0  0  0  0  0  0  0  0
   11.5131    1.2703   22.2654 C   0  0  0  0  0  0  0  0  0  0  0  0
   10.1261    1.3786   22.0745 C   0  0  0  0  0  0  0  0  0  0  0  0
    9.6655    2.3032   21.7352 H   0  0  0  0  0  0  0  0  0  0  0  0
    5.4361    0.6511   20.1224 C   0  0  0  0  0  0  0  0  0  0  0  0
    5.0116    0.6400   21.1306 H   0  0  0  0  0  0  0  0  0  0  0  0
    4.7944    1.3170   19.0774 C   0  0  0  0  0  0  0  0  0  0  0  0
    3.8626    1.8501   19.2343 H   0  0  0  0  0  0  0  0  0  0  0  0
  1  2  1  0
  2  3  2  0
  3  4  1  0
  4  5  1  0
  4  6  2  0
  6  7  1  0
  7  8  1  6
  7  9  1  0
  9 10  2  0
  9 11  1  0
 11 12  1  0
 11 13  1  0
 13 14  1  0
 13 15  1  0
 13 16  1  0
 16 17  1  6
 16 18  1  0
 18 19  2  0
 19 20  1  0
 19 21  1  0
 21 22  1  0
 21 23  2  0
 23 24  1  0
 24 25  1  0
 24 26  2  0
 26 27  1  0
 26 28  1  0
 28 29  1  0
 28 30  1  0
 30 31  2  0
 31 32  1  0
  6 33  1  0
 33 34  1  0
 33 35  2  0
 35 36  1  0
 35  2  1  0
 16  7  1  0
 31 18  1  0
 30 23  1  0
M  END
>  <cnnaffinity>  (1) 
-5.51909

>  <filename>  (1) 
O=C1NC[C@@H](c2ccc3cc[nH]c3c2)[C@@H]1c1cccnc1

$$$$
