
     RDKit          3D

 30 32  0  0  0  0  0  0  0  0999 V2000
    4.9092    1.7739   17.0031 H   0  0  0  0  0  0  0  0  0  0  0  0
    5.4018    1.2928   17.8441 C   0  0  0  0  0  0  0  0  0  0  0  0
    6.5667    0.6765   17.5837 N   0  0  0  0  0  0  0  0  0  0  0  0
    7.1779    0.0554   18.5994 C   0  0  0  0  0  0  0  0  0  0  0  0
    8.1270   -0.4305   18.3833 H   0  0  0  0  0  0  0  0  0  0  0  0
    6.6460   -0.0072   19.9017 C   0  0  0  0  0  0  0  0  0  0  0  0
    7.3269   -0.7156   20.9481 N   0  0  0  0  0  0  0  0  0  0  0  0
    6.5681   -1.6155   21.6545 N   0  0  0  0  0  0  0  0  0  0  0  0
    7.1372   -2.2928   22.6293 C   0  0  0  0  0  0  0  0  0  0  0  0
    6.2937   -3.2773   23.3796 C   0  0  0  0  0  0  0  0  0  0  0  0
    5.1998   -3.8731   22.7272 C   0  0  0  0  0  0  0  0  0  0  0  0
    4.9812   -3.6172   21.6964 H   0  0  0  0  0  0  0  0  0  0  0  0
    4.3996   -4.7827   23.4148 C   0  0  0  0  0  0  0  0  0  0  0  0
    3.0447   -5.5012   22.6001 Cl  0  0  0  0  0  0  0  0  0  0  0  0
    4.6587   -5.1244   24.7440 C   0  0  0  0  0  0  0  0  0  0  0  0
    4.0267   -5.8314   25.2662 H   0  0  0  0  0  0  0  0  0  0  0  0
    5.7486   -4.5278   25.3832 C   0  0  0  0  0  0  0  0  0  0  0  0
    6.0774   -4.9358   27.0419 Cl  0  0  0  0  0  0  0  0  0  0  0  0
    6.5694   -3.6140   24.7206 C   0  0  0  0  0  0  0  0  0  0  0  0
    7.3886   -3.1589   25.2719 H   0  0  0  0  0  0  0  0  0  0  0  0
    8.5311   -2.1173   22.9613 C   0  0  0  0  0  0  0  0  0  0  0  0
    8.9970   -2.7159   23.7445 H   0  0  0  0  0  0  0  0  0  0  0  0
    9.2745   -1.2141   22.2732 C   0  0  0  0  0  0  0  0  0  0  0  0
   10.3194   -1.0147   22.4716 H   0  0  0  0  0  0  0  0  0  0  0  0
    8.7137   -0.4072   21.2057 C   0  0  0  0  0  0  0  0  0  0  0  0
    9.3287    0.4348   20.5695 O   0  0  0  0  0  0  0  0  0  0  0  0
    5.4388    0.6463   20.1647 C   0  0  0  0  0  0  0  0  0  0  0  0
    5.0168    0.6127   21.1674 H   0  0  0  0  0  0  0  0  0  0  0  0
    4.8075    1.3157   19.1123 C   0  0  0  0  0  0  0  0  0  0  0  0
    3.8714    1.8464   19.2670 H   0  0  0  0  0  0  0  0  0  0  0  0
  1  2  1  0
  2  3  2  0
  3  4  1  0
  4  5  1  0
  4  6  2  0
  6  7  1  0
  7  8  1  0
  8  9  2  0
  9 10  1  0
 10 11  2  0
 11 12  1  0
 11 13  1  0
 13 14  1  0
 13 15  2  0
 15 16  1  0
 15 17  1  0
 17 18  1  0
 17 19  2  0
 19 20  1  0
  9 21  1  0
 21 22  1  0
 21 23  2  0
 23 24  1  0
 23 25  1  0
 25 26  2  0
  6 27  1  0
 27 28  1  0
 27 29  2  0
 29 30  1  0
 29  2  1  0
 25  7  1  0
 19 10  1  0
M  END
>  <cnnaffinity>  (1) 
-5.59115

>  <filename>  (1) 
O=c1ccc(-c2cc(Cl)cc(Cl)c2)nn1-c1cccnc1

$$$$
