
     RDKit          3D

 32 34  0  0  0  0  0  0  0  0999 V2000
    4.9131    1.7767   17.0005 H   0  0  0  0  0  0  0  0  0  0  0  0
    5.4017    1.2932   17.8442 C   0  0  0  0  0  0  0  0  0  0  0  0
    6.5647    0.6737   17.5843 N   0  0  0  0  0  0  0  0  0  0  0  0
    7.1739    0.0518   18.6003 C   0  0  0  0  0  0  0  0  0  0  0  0
    8.1247   -0.4277   18.3829 H   0  0  0  0  0  0  0  0  0  0  0  0
    6.6429   -0.0137   19.9024 C   0  0  0  0  0  0  0  0  0  0  0  0
    7.3288   -0.7234   20.9487 N   0  0  0  0  0  0  0  0  0  0  0  0
    6.5726   -1.6118   21.6666 N   0  0  0  0  0  0  0  0  0  0  0  0
    7.1480   -2.2995   22.6381 C   0  0  0  0  0  0  0  0  0  0  0  0
    6.3043   -3.3009   23.4118 C   0  0  0  0  0  0  0  0  0  0  0  0
    6.8790   -4.0177   24.4067 N   0  0  0  0  0  0  0  0  0  0  0  0
    6.1422   -4.8900   25.0948 C   0  0  0  0  0  0  0  0  0  0  0  0
    6.6477   -5.4500   25.8800 H   0  0  0  0  0  0  0  0  0  0  0  0
    4.7874   -5.0969   24.8314 C   0  0  0  0  0  0  0  0  0  0  0  0
    4.0166   -6.1254   25.5912 C   0  0  0  0  0  0  0  0  0  0  0  0
    4.0880   -7.3326   24.9976 F   0  0  0  0  0  0  0  0  0  0  0  0
    2.7094   -5.8121   25.6694 F   0  0  0  0  0  0  0  0  0  0  0  0
    4.4589   -6.2842   26.8500 F   0  0  0  0  0  0  0  0  0  0  0  0
    4.1876   -4.3853   23.7865 C   0  0  0  0  0  0  0  0  0  0  0  0
    3.1417   -4.5336   23.5321 H   0  0  0  0  0  0  0  0  0  0  0  0
    4.9528   -3.4833   23.0733 C   0  0  0  0  0  0  0  0  0  0  0  0
    4.5272   -2.9045   22.2671 H   0  0  0  0  0  0  0  0  0  0  0  0
    8.5392   -2.1101   22.9732 C   0  0  0  0  0  0  0  0  0  0  0  0
    8.9752   -2.6923   23.7828 H   0  0  0  0  0  0  0  0  0  0  0  0
    9.2756   -1.2060   22.2825 C   0  0  0  0  0  0  0  0  0  0  0  0
   10.3202   -0.9997   22.4802 H   0  0  0  0  0  0  0  0  0  0  0  0
    8.7123   -0.4077   21.2054 C   0  0  0  0  0  0  0  0  0  0  0  0
    9.3273    0.4299   20.5668 O   0  0  0  0  0  0  0  0  0  0  0  0
    5.4369    0.6426   20.1660 C   0  0  0  0  0  0  0  0  0  0  0  0
    5.0179    0.6074   21.1715 H   0  0  0  0  0  0  0  0  0  0  0  0
    4.8087    1.3156   19.1125 C   0  0  0  0  0  0  0  0  0  0  0  0
    3.8736    1.8461   19.2648 H   0  0  0  0  0  0  0  0  0  0  0  0
  1  2  1  0
  2  3  2  0
  3  4  1  0
  4  5  1  0
  4  6  2  0
  6  7  1  0
  7  8  1  0
  8  9  2  0
  9 10  1  0
 10 11  2  0
 11 12  1  0
 12 13  1  0
 12 14  2  0
 14 15  1  0
 15 16  1  0
 15 17  1  0
 15 18  1  0
 14 19  1  0
 19 20  1  0
 19 21  2  0
 21 22  1  0
  9 23  1  0
 23 24  1  0
 23 25  2  0
 25 26  1  0
 25 27  1  0
 27 28  2  0
  6 29  1  0
 29 30  1  0
 29 31  2  0
 31 32  1  0
 31  2  1  0
 27  7  1  0
 21 10  1  0
M  END
>  <cnnaffinity>  (1) 
-5.48637

>  <filename>  (1) 
O=c1ccc(-c2ccc(C(F)(F)F)cn2)nn1-c1cccnc1

$$$$
