
     RDKit          3D

 31 33  0  0  0  0  0  0  0  0999 V2000
    4.9081    1.8589   16.9306 H   0  0  0  0  0  0  0  0  0  0  0  0
    5.3904    1.3537   17.7677 C   0  0  0  0  0  0  0  0  0  0  0  0
    6.5591    0.7504   17.4999 N   0  0  0  0  0  0  0  0  0  0  0  0
    7.1749    0.1148   18.5060 C   0  0  0  0  0  0  0  0  0  0  0  0
    8.1210   -0.3547   18.2365 H   0  0  0  0  0  0  0  0  0  0  0  0
    6.6619    0.0057   19.8248 C   0  0  0  0  0  0  0  0  0  0  0  0
    7.3882   -0.7119   20.9265 C   0  0  0  0  0  0  0  0  0  0  0  0
    8.6731   -0.4064   21.2109 C   0  0  0  0  0  0  0  0  0  0  0  0
    9.2450    0.3085   20.6196 H   0  0  0  0  0  0  0  0  0  0  0  0
    9.3714   -0.9811   22.2651 N   0  0  0  0  0  0  0  0  0  0  0  0
   10.7623   -0.6826   22.4007 C   0  0  0  0  0  0  0  0  0  0  0  0
   11.1625    0.6310   22.6559 C   0  0  0  0  0  0  0  0  0  0  0  0
   10.4219    1.4095   22.7861 H   0  0  0  0  0  0  0  0  0  0  0  0
   12.5277    0.9048   22.7766 C   0  0  0  0  0  0  0  0  0  0  0  0
   13.0429    2.4969   23.2344 Cl  0  0  0  0  0  0  0  0  0  0  0  0
   13.4880   -0.0779   22.5319 C   0  0  0  0  0  0  0  0  0  0  0  0
   14.5466    0.1354   22.6407 H   0  0  0  0  0  0  0  0  0  0  0  0
   13.0419   -1.3508   22.1680 C   0  0  0  0  0  0  0  0  0  0  0  0
   14.1939   -2.5222   21.6590 Cl  0  0  0  0  0  0  0  0  0  0  0  0
   11.6937   -1.6936   22.1813 C   0  0  0  0  0  0  0  0  0  0  0  0
   11.3636   -2.7152   22.0402 H   0  0  0  0  0  0  0  0  0  0  0  0
    8.8137   -1.9870   23.0665 C   0  0  0  0  0  0  0  0  0  0  0  0
    9.4156   -2.6363   23.8898 O   0  0  0  0  0  0  0  0  0  0  0  0
    7.4877   -2.1893   22.8485 N   0  0  0  0  0  0  0  0  0  0  0  0
    7.1101   -2.9627   23.3580 H   0  0  0  0  0  0  0  0  0  0  0  0
    6.7442   -1.7771   21.7555 C   0  0  0  0  0  0  0  0  0  0  0  0
    5.6833   -2.3262   21.5642 O   0  0  0  0  0  0  0  0  0  0  0  0
    5.4347    0.6474   20.0677 C   0  0  0  0  0  0  0  0  0  0  0  0
    5.0042    0.6130   21.0678 H   0  0  0  0  0  0  0  0  0  0  0  0
    4.7956    1.3361   19.0308 C   0  0  0  0  0  0  0  0  0  0  0  0
    3.8550    1.8559   19.1781 H   0  0  0  0  0  0  0  0  0  0  0  0
  1  2  1  0
  2  3  2  0
  3  4  1  0
  4  5  1  0
  4  6  2  0
  6  7  1  0
  7  8  2  0
  8  9  1  0
  8 10  1  0
 10 11  1  0
 11 12  2  0
 12 13  1  0
 12 14  1  0
 14 15  1  0
 14 16  2  0
 16 17  1  0
 16 18  1  0
 18 19  1  0
 18 20  2  0
 20 21  1  0
 10 22  1  0
 22 23  2  0
 22 24  1  0
 24 25  1  0
 24 26  1  0
 26 27  2  0
  6 28  1  0
 28 29  1  0
 28 30  2  0
 30 31  1  0
 30  2  1  0
 26  7  1  0
 20 11  1  0
M  END
>  <cnnaffinity>  (1) 
-5.67121

>  <filename>  (1) 
O=c1[nH]c(=O)n(-c2cc(Cl)cc(Cl)c2)cc1-c1cccnc1

$$$$
