
     RDKit          3D

 32 34  0  0  0  0  0  0  0  0999 V2000
    4.9441    1.8146   16.9550 H   0  0  0  0  0  0  0  0  0  0  0  0
    5.3980    1.3004   17.7972 C   0  0  0  0  0  0  0  0  0  0  0  0
    6.5584    0.6726   17.5507 N   0  0  0  0  0  0  0  0  0  0  0  0
    7.1574    0.0557   18.5754 C   0  0  0  0  0  0  0  0  0  0  0  0
    8.1150   -0.4044   18.3366 H   0  0  0  0  0  0  0  0  0  0  0  0
    6.6337    0.0133   19.8832 C   0  0  0  0  0  0  0  0  0  0  0  0
    7.3287   -0.6327   20.9944 C   0  0  0  0  0  0  0  0  0  0  0  0
    7.2269   -0.4166   22.3255 C   0  0  0  0  0  0  0  0  0  0  0  0
    6.6310    0.2691   22.9162 H   0  0  0  0  0  0  0  0  0  0  0  0
    8.0897   -1.2861   22.9777 N   0  0  0  0  0  0  0  0  0  0  0  0
    8.2830   -1.3773   24.3728 C   0  0  0  0  0  0  0  0  0  0  0  0
    8.2828   -0.2178   25.1503 C   0  0  0  0  0  0  0  0  0  0  0  0
    8.1404    0.7345   24.6526 H   0  0  0  0  0  0  0  0  0  0  0  0
    8.4854   -0.3115   26.5261 C   0  0  0  0  0  0  0  0  0  0  0  0
    8.4895    0.5902   27.1328 H   0  0  0  0  0  0  0  0  0  0  0  0
    8.6740   -1.5603   27.1285 C   0  0  0  0  0  0  0  0  0  0  0  0
    8.8625   -1.5751   28.1956 H   0  0  0  0  0  0  0  0  0  0  0  0
    8.6367   -2.7346   26.3484 C   0  0  0  0  0  0  0  0  0  0  0  0
    8.8135   -4.1329   26.9397 C   0  0  0  0  0  0  0  0  0  0  0  0
    8.2647   -5.0822   26.1546 F   0  0  0  0  0  0  0  0  0  0  0  0
   10.1097   -4.4650   27.0909 F   0  0  0  0  0  0  0  0  0  0  0  0
    8.2300   -4.2652   28.1422 F   0  0  0  0  0  0  0  0  0  0  0  0
    8.4627   -2.6280   24.9621 C   0  0  0  0  0  0  0  0  0  0  0  0
    8.4723   -3.4929   24.3056 H   0  0  0  0  0  0  0  0  0  0  0  0
    8.7256   -2.1000   22.0473 C   0  0  0  0  0  0  0  0  0  0  0  0
    9.4748   -3.0396   22.2208 O   0  0  0  0  0  0  0  0  0  0  0  0
    8.2944   -1.6265   20.8363 N   0  0  0  0  0  0  0  0  0  0  0  0
    8.5380   -2.1931   20.0447 H   0  0  0  0  0  0  0  0  0  0  0  0
    5.4075    0.6674   20.1109 C   0  0  0  0  0  0  0  0  0  0  0  0
    4.9591    0.6594   21.1040 H   0  0  0  0  0  0  0  0  0  0  0  0
    4.7824    1.3205   19.0524 C   0  0  0  0  0  0  0  0  0  0  0  0
    3.8527    1.8611   19.1933 H   0  0  0  0  0  0  0  0  0  0  0  0
  1  2  1  0
  2  3  2  0
  3  4  1  0
  4  5  1  0
  4  6  2  0
  6  7  1  0
  7  8  2  0
  8  9  1  0
  8 10  1  0
 10 11  1  0
 11 12  2  0
 12 13  1  0
 12 14  1  0
 14 15  1  0
 14 16  2  0
 16 17  1  0
 16 18  1  0
 18 19  1  0
 19 20  1  0
 19 21  1  0
 19 22  1  0
 18 23  2  0
 23 24  1  0
 10 25  1  0
 25 26  2  0
 25 27  1  0
 27 28  1  0
  6 29  1  0
 29 30  1  0
 29 31  2  0
 31 32  1  0
 31  2  1  0
 27  7  1  0
 23 11  1  0
M  END
>  <cnnaffinity>  (1) 
-5.43874

>  <filename>  (1) 
O=c1[nH]c(-c2cccnc2)cn1-c1cccc(C(F)(F)F)c1

$$$$
