
     RDKit          3D

 30 32  0  0  0  0  0  0  0  0999 V2000
    7.4148   -1.6427   24.1863 O   0  0  0  0  0  0  0  0  0  0  0  0
    7.5809   -1.4053   23.0193 C   0  0  0  0  0  0  0  0  0  0  0  0
    6.6639   -0.8195   22.1785 O   0  0  0  0  0  0  0  0  0  0  0  0
    7.2721   -0.6852   20.9799 C   0  0  0  0  0  0  0  0  0  0  0  0
    6.5667    0.0087   19.9054 C   0  0  0  0  0  0  0  0  0  0  0  0
    5.3534    0.7013   20.0834 C   0  0  0  0  0  0  0  0  0  0  0  0
    4.8069    1.3589   18.9845 C   0  0  0  0  0  0  0  0  0  0  0  0
    5.4743    1.3021   17.7572 C   0  0  0  0  0  0  0  0  0  0  0  0
    6.6219    0.6335   17.5760 N   0  0  0  0  0  0  0  0  0  0  0  0
    7.1544    0.0135   18.6323 C   0  0  0  0  0  0  0  0  0  0  0  0
    8.0957   -0.5080   18.4608 H   0  0  0  0  0  0  0  0  0  0  0  0
    5.0773    1.8194   16.8850 H   0  0  0  0  0  0  0  0  0  0  0  0
    3.8917    1.9337   19.0615 H   0  0  0  0  0  0  0  0  0  0  0  0
    4.8483    0.7388   21.0490 H   0  0  0  0  0  0  0  0  0  0  0  0
    8.4665   -1.1751   20.9402 N   0  0  0  0  0  0  0  0  0  0  0  0
    8.6579   -1.6620   22.2170 N   0  0  0  0  0  0  0  0  0  0  0  0
    9.9203   -2.2153   22.6898 C   0  0  0  0  0  0  0  0  0  0  0  0
   10.8332   -1.1516   23.2774 C   0  0  0  0  0  0  0  0  0  0  0  0
   10.5326   -0.6172   24.5429 C   0  0  0  0  0  0  0  0  0  0  0  0
   11.3890    0.2851   25.1712 C   0  0  0  0  0  0  0  0  0  0  0  0
   12.5409    0.7241   24.5141 C   0  0  0  0  0  0  0  0  0  0  0  0
   12.8179    0.2710   23.2251 C   0  0  0  0  0  0  0  0  0  0  0  0
   11.9855   -0.6825   22.6282 C   0  0  0  0  0  0  0  0  0  0  0  0
   12.4450   -1.3036   21.0689 Cl  0  0  0  0  0  0  0  0  0  0  0  0
   13.6867    0.6237   22.6810 H   0  0  0  0  0  0  0  0  0  0  0  0
   13.2044    1.4375   24.9954 H   0  0  0  0  0  0  0  0  0  0  0  0
   11.1296    0.6593   26.1566 H   0  0  0  0  0  0  0  0  0  0  0  0
    9.5912   -0.8965   25.0178 H   0  0  0  0  0  0  0  0  0  0  0  0
   10.3982   -2.7534   21.8693 H   0  0  0  0  0  0  0  0  0  0  0  0
    9.6787   -2.9558   23.4599 H   0  0  0  0  0  0  0  0  0  0  0  0
  1  2  2  0
  2  3  1  0
  3  4  1  0
  4  5  1  0
  5  6  2  0
  6  7  1  0
  7  8  2  0
  8  9  1  0
  9 10  2  0
 10 11  1  0
  8 12  1  0
  7 13  1  0
  6 14  1  0
  4 15  2  0
 15 16  1  0
 16 17  1  0
 17 18  1  0
 18 19  2  0
 19 20  1  0
 20 21  2  0
 21 22  1  0
 22 23  2  0
 23 24  1  0
 22 25  1  0
 21 26  1  0
 20 27  1  0
 19 28  1  0
 17 29  1  0
 17 30  1  0
 16  2  1  0
 23 18  1  0
 10  5  1  0
M  END
>  <cnnaffinity>  (1) 
-5.33639

>  <filename>  (1) 
O=c1oc(-c2cccnc2)nn1Cc1ccccc1Cl

$$$$
