
     RDKit          3D

 31 33  0  0  0  0  0  0  0  0999 V2000
   12.7453    2.4923   21.5676 H   0  0  0  0  0  0  0  0  0  0  0  0
   13.0569    1.9472   22.2992 O   0  0  0  0  0  0  0  0  0  0  0  0
   12.6146    0.6620   22.1242 C   0  0  0  0  0  0  0  0  0  0  0  0
   13.5644   -0.3640   22.2094 C   0  0  0  0  0  0  0  0  0  0  0  0
   14.6070   -0.1018   22.3733 H   0  0  0  0  0  0  0  0  0  0  0  0
   13.1377   -1.6853   22.0763 C   0  0  0  0  0  0  0  0  0  0  0  0
   13.8579   -2.4999   22.0555 H   0  0  0  0  0  0  0  0  0  0  0  0
   11.7759   -1.9839   22.0041 C   0  0  0  0  0  0  0  0  0  0  0  0
   11.4353   -3.0074   22.1052 H   0  0  0  0  0  0  0  0  0  0  0  0
   10.8205   -0.9589   21.9104 C   0  0  0  0  0  0  0  0  0  0  0  0
    9.3448   -1.2550   21.8760 C   0  0  0  0  0  0  0  0  0  0  0  0
    8.6639   -0.6687   20.9200 N   0  0  0  0  0  0  0  0  0  0  0  0
    7.2984   -0.7681   20.9267 N   0  0  0  0  0  0  0  0  0  0  0  0
    6.6258   -0.0325   19.9078 C   0  0  0  0  0  0  0  0  0  0  0  0
    7.2016    0.0365   18.6297 C   0  0  0  0  0  0  0  0  0  0  0  0
    8.1652   -0.4426   18.4705 H   0  0  0  0  0  0  0  0  0  0  0  0
    6.6270    0.6615   17.5952 N   0  0  0  0  0  0  0  0  0  0  0  0
    5.4583    1.2885   17.8144 C   0  0  0  0  0  0  0  0  0  0  0  0
    5.0114    1.7871   16.9565 H   0  0  0  0  0  0  0  0  0  0  0  0
    4.8303    1.3188   19.0622 C   0  0  0  0  0  0  0  0  0  0  0  0
    3.8988    1.8592   19.1828 H   0  0  0  0  0  0  0  0  0  0  0  0
    5.4249    0.6533   20.1397 C   0  0  0  0  0  0  0  0  0  0  0  0
    5.0054    0.6972   21.1431 H   0  0  0  0  0  0  0  0  0  0  0  0
    6.6241   -1.5149   21.8613 C   0  0  0  0  0  0  0  0  0  0  0  0
    5.5459   -1.5498   21.7349 H   0  0  0  0  0  0  0  0  0  0  0  0
    7.2597   -2.1886   22.8335 C   0  0  0  0  0  0  0  0  0  0  0  0
    6.7371   -2.7588   23.5873 H   0  0  0  0  0  0  0  0  0  0  0  0
    8.7124   -2.1334   22.9276 C   0  0  0  0  0  0  0  0  0  0  0  0
    9.3268   -2.7447   23.7953 O   0  0  0  0  0  0  0  0  0  0  0  0
   11.2639    0.3758   21.9097 C   0  0  0  0  0  0  0  0  0  0  0  0
   10.5562    1.1908   21.7704 H   0  0  0  0  0  0  0  0  0  0  0  0
  1  2  1  0
  2  3  1  0
  3  4  2  0
  4  5  1  0
  4  6  1  0
  6  7  1  0
  6  8  2  0
  8  9  1  0
  8 10  1  0
 10 11  1  0
 11 12  2  0
 12 13  1  0
 13 14  1  0
 14 15  2  0
 15 16  1  0
 15 17  1  0
 17 18  2  0
 18 19  1  0
 18 20  1  0
 20 21  1  0
 20 22  2  0
 22 23  1  0
 13 24  1  0
 24 25  1  0
 24 26  2  0
 26 27  1  0
 26 28  1  0
 28 29  2  0
 10 30  2  0
 30 31  1  0
 30  3  1  0
 28 11  1  0
 22 14  1  0
M  END
>  <cnnaffinity>  (1) 
-5.68126

>  <filename>  (1) 
O=c1ccn(-c2cccnc2)nc1-c1cccc(O)c1

$$$$
