
     RDKit          3D

 32 34  0  0  0  0  0  0  0  0999 V2000
    4.9106    1.8925   16.9148 H   0  0  0  0  0  0  0  0  0  0  0  0
    5.3944    1.3654   17.7319 C   0  0  0  0  0  0  0  0  0  0  0  0
    6.5509    0.7513   17.4281 N   0  0  0  0  0  0  0  0  0  0  0  0
    7.1828    0.1029   18.4137 C   0  0  0  0  0  0  0  0  0  0  0  0
    8.1250   -0.3897   18.1762 H   0  0  0  0  0  0  0  0  0  0  0  0
    6.6836    0.0270   19.7286 C   0  0  0  0  0  0  0  0  0  0  0  0
    7.4008   -0.6428   20.7873 N   0  0  0  0  0  0  0  0  0  0  0  0
    8.6573   -0.1216   21.2431 C   0  0  0  0  0  0  0  0  0  0  0  0
    9.1883    0.7770   20.6204 O   0  0  0  0  0  0  0  0  0  0  0  0
    9.1983   -0.7096   22.4252 C   0  0  0  0  0  0  0  0  0  0  0  0
   10.0910   -0.2575   22.8145 H   0  0  0  0  0  0  0  0  0  0  0  0
    8.6269   -1.7985   22.9498 C   0  0  0  0  0  0  0  0  0  0  0  0
    9.1056   -2.4660   24.0215 N   0  0  0  0  0  0  0  0  0  0  0  0
    9.8627   -1.9632   24.4463 H   0  0  0  0  0  0  0  0  0  0  0  0
    9.0661   -3.8199   24.3383 C   0  0  0  0  0  0  0  0  0  0  0  0
    9.5490   -4.1881   25.5965 C   0  0  0  0  0  0  0  0  0  0  0  0
    9.8018   -3.4422   26.3390 H   0  0  0  0  0  0  0  0  0  0  0  0
    9.6321   -5.5414   25.8947 C   0  0  0  0  0  0  0  0  0  0  0  0
   10.0362   -5.8721   26.8491 H   0  0  0  0  0  0  0  0  0  0  0  0
    9.2615   -6.5170   25.0595 N   0  0  0  0  0  0  0  0  0  0  0  0
    8.7685   -6.1418   23.8749 C   0  0  0  0  0  0  0  0  0  0  0  0
    8.4652   -6.9501   23.2107 H   0  0  0  0  0  0  0  0  0  0  0  0
    8.6537   -4.8220   23.4564 C   0  0  0  0  0  0  0  0  0  0  0  0
    8.3202   -4.5848   22.4570 H   0  0  0  0  0  0  0  0  0  0  0  0
    7.4724   -2.2799   22.4382 N   0  0  0  0  0  0  0  0  0  0  0  0
    6.8861   -2.8884   22.9686 H   0  0  0  0  0  0  0  0  0  0  0  0
    6.7671   -1.6825   21.4448 C   0  0  0  0  0  0  0  0  0  0  0  0
    5.6650   -2.1080   21.1925 O   0  0  0  0  0  0  0  0  0  0  0  0
    5.4592    0.6245   20.0195 C   0  0  0  0  0  0  0  0  0  0  0  0
    5.0394    0.5143   21.0195 H   0  0  0  0  0  0  0  0  0  0  0  0
    4.8106    1.3309   19.0033 C   0  0  0  0  0  0  0  0  0  0  0  0
    3.8699    1.8362   19.1899 H   0  0  0  0  0  0  0  0  0  0  0  0
  1  2  1  0
  2  3  2  0
  3  4  1  0
  4  5  1  0
  4  6  2  0
  6  7  1  0
  7  8  1  0
  8  9  2  0
  8 10  1  0
 10 11  1  0
 10 12  2  0
 12 13  1  0
 13 14  1  0
 13 15  1  0
 15 16  2  0
 16 17  1  0
 16 18  1  0
 18 19  1  0
 18 20  2  0
 20 21  1  0
 21 22  1  0
 21 23  2  0
 23 24  1  0
 12 25  1  0
 25 26  1  0
 25 27  1  0
 27 28  2  0
  6 29  1  0
 29 30  1  0
 29 31  2  0
 31 32  1  0
 31  2  1  0
 27  7  1  0
 23 15  1  0
M  END
>  <cnnaffinity>  (1) 
-5.51365

>  <filename>  (1) 
O=c1cc(Nc2ccncc2)[nH]c(=O)n1-c1cccnc1

$$$$
