
     RDKit          3D

 32 34  0  0  0  0  0  0  0  0999 V2000
    4.9335    1.7987   17.0162 H   0  0  0  0  0  0  0  0  0  0  0  0
    5.4180    1.2902   17.8466 C   0  0  0  0  0  0  0  0  0  0  0  0
    6.5828    0.6837   17.5669 N   0  0  0  0  0  0  0  0  0  0  0  0
    7.2116    0.0651   18.5720 C   0  0  0  0  0  0  0  0  0  0  0  0
    8.1513   -0.4257   18.3314 H   0  0  0  0  0  0  0  0  0  0  0  0
    6.7102   -0.0264   19.8896 C   0  0  0  0  0  0  0  0  0  0  0  0
    7.4116   -0.7416   20.8877 N   0  0  0  0  0  0  0  0  0  0  0  0
    6.8169   -1.6134   21.7924 C   0  0  0  0  0  0  0  0  0  0  0  0
    5.7371   -2.1419   21.7647 O   0  0  0  0  0  0  0  0  0  0  0  0
    7.7716   -1.8929   22.7440 N   0  0  0  0  0  0  0  0  0  0  0  0
    7.5827   -2.5920   23.4296 H   0  0  0  0  0  0  0  0  0  0  0  0
    9.0262   -1.5991   22.3126 C   0  0  0  0  0  0  0  0  0  0  0  0
   10.0351   -1.9656   22.8547 O   0  0  0  0  0  0  0  0  0  0  0  0
    8.8696   -0.7225   21.0739 C   0  0  2  0  0  0  0  0  0  0  0  0
    9.3844   -1.2227   20.2436 H   0  0  0  0  0  0  0  0  0  0  0  0
    9.4854    0.6782   21.2673 C   0  0  0  0  0  0  0  0  0  0  0  0
    9.4025    1.2014   20.3136 H   0  0  0  0  0  0  0  0  0  0  0  0
   10.5567    0.5470   21.4650 H   0  0  0  0  0  0  0  0  0  0  0  0
    8.8340    1.4859   22.3690 C   0  0  0  0  0  0  0  0  0  0  0  0
    7.8181    2.4070   22.0812 C   0  0  0  0  0  0  0  0  0  0  0  0
    7.4951    2.5779   21.0595 H   0  0  0  0  0  0  0  0  0  0  0  0
    7.2014    3.0967   23.1288 C   0  0  0  0  0  0  0  0  0  0  0  0
    6.4122    3.8231   22.9300 H   0  0  0  0  0  0  0  0  0  0  0  0
    7.5272    2.9287   24.4165 N   0  0  0  0  0  0  0  0  0  0  0  0
    8.4922    2.0425   24.6937 C   0  0  0  0  0  0  0  0  0  0  0  0
    8.7398    1.9289   25.7493 H   0  0  0  0  0  0  0  0  0  0  0  0
    9.1654    1.2978   23.7182 C   0  0  0  0  0  0  0  0  0  0  0  0
    9.9259    0.5792   24.0134 H   0  0  0  0  0  0  0  0  0  0  0  0
    5.4852    0.6117   20.1649 C   0  0  0  0  0  0  0  0  0  0  0  0
    5.0579    0.5658   21.1706 H   0  0  0  0  0  0  0  0  0  0  0  0
    4.8344    1.2872   19.1218 C   0  0  0  0  0  0  0  0  0  0  0  0
    3.8942    1.8151   19.2796 H   0  0  0  0  0  0  0  0  0  0  0  0
  1  2  1  0
  2  3  2  0
  3  4  1  0
  4  5  1  0
  4  6  2  0
  6  7  1  0
  7  8  1  0
  8  9  2  0
  8 10  1  0
 10 11  1  0
 10 12  1  0
 12 13  2  0
 12 14  1  0
 14 15  1  6
 14 16  1  0
 16 17  1  0
 16 18  1  0
 16 19  1  0
 19 20  2  0
 20 21  1  0
 20 22  1  0
 22 23  1  0
 22 24  2  0
 24 25  1  0
 25 26  1  0
 25 27  2  0
 27 28  1  0
  6 29  1  0
 29 30  1  0
 29 31  2  0
 31 32  1  0
 31  2  1  0
 14  7  1  0
 27 19  1  0
M  END
>  <cnnaffinity>  (1) 
-5.01634

>  <filename>  (1) 
O=C1NC(=O)N(c2cccnc2)[C@H]1Cc1ccncc1

$$$$
