
     RDKit          3D

 30 32  0  0  0  0  0  0  0  0999 V2000
    4.9536    1.8676   16.9630 H   0  0  0  0  0  0  0  0  0  0  0  0
    5.4193    1.3382   17.7939 C   0  0  0  0  0  0  0  0  0  0  0  0
    6.5816    0.7202   17.5306 N   0  0  0  0  0  0  0  0  0  0  0  0
    7.1835    0.0695   18.5339 C   0  0  0  0  0  0  0  0  0  0  0  0
    8.1293   -0.4128   18.2902 H   0  0  0  0  0  0  0  0  0  0  0  0
    6.6502   -0.0298   19.8380 C   0  0  0  0  0  0  0  0  0  0  0  0
    7.3496   -0.7313   20.9011 N   0  0  0  0  0  0  0  0  0  0  0  0
    8.6160   -0.2891   21.2635 C   0  0  0  0  0  0  0  0  0  0  0  0
    8.9907    0.5619   20.7011 H   0  0  0  0  0  0  0  0  0  0  0  0
    9.3645   -0.8663   22.2333 C   0  0  0  0  0  0  0  0  0  0  0  0
   10.7471   -0.3585   22.5077 C   0  0  0  0  0  0  0  0  0  0  0  0
   11.0068    0.9946   22.8567 C   0  0  0  0  0  0  0  0  0  0  0  0
   10.1845    1.6981   22.9756 H   0  0  0  0  0  0  0  0  0  0  0  0
   12.2352    1.4976   23.0543 N   0  0  0  0  0  0  0  0  0  0  0  0
   13.2825    0.6763   22.9062 C   0  0  0  0  0  0  0  0  0  0  0  0
   14.2802    1.0745   23.0949 H   0  0  0  0  0  0  0  0  0  0  0  0
   13.1297   -0.6640   22.5367 C   0  0  0  0  0  0  0  0  0  0  0  0
   14.2284   -1.4175   22.3951 F   0  0  0  0  0  0  0  0  0  0  0  0
   11.8600   -1.2095   22.3502 C   0  0  0  0  0  0  0  0  0  0  0  0
   11.7489   -2.2514   22.0522 H   0  0  0  0  0  0  0  0  0  0  0  0
    8.7926   -2.0379   22.9501 C   0  0  0  0  0  0  0  0  0  0  0  0
    9.3059   -2.7523   23.7859 O   0  0  0  0  0  0  0  0  0  0  0  0
    7.4836   -2.3106   22.6135 N   0  0  0  0  0  0  0  0  0  0  0  0
    7.0597   -3.0759   23.0987 H   0  0  0  0  0  0  0  0  0  0  0  0
    6.7317   -1.7919   21.6100 C   0  0  0  0  0  0  0  0  0  0  0  0
    5.6409   -2.2524   21.3665 O   0  0  0  0  0  0  0  0  0  0  0  0
    5.4357    0.6133   20.0967 C   0  0  0  0  0  0  0  0  0  0  0  0
    4.9980    0.5745   21.0924 H   0  0  0  0  0  0  0  0  0  0  0  0
    4.8158    1.3120   19.0538 C   0  0  0  0  0  0  0  0  0  0  0  0
    3.8842    1.8427   19.2082 H   0  0  0  0  0  0  0  0  0  0  0  0
  1  2  1  0
  2  3  2  0
  3  4  1  0
  4  5  1  0
  4  6  2  0
  6  7  1  0
  7  8  1  0
  8  9  1  0
  8 10  2  0
 10 11  1  0
 11 12  2  0
 12 13  1  0
 12 14  1  0
 14 15  2  0
 15 16  1  0
 15 17  1  0
 17 18  1  0
 17 19  2  0
 19 20  1  0
 10 21  1  0
 21 22  2  0
 21 23  1  0
 23 24  1  0
 23 25  1  0
 25 26  2  0
  6 27  1  0
 27 28  1  0
 27 29  2  0
 29 30  1  0
 29  2  1  0
 25  7  1  0
 19 11  1  0
M  END
>  <cnnaffinity>  (1) 
-5.25077

>  <filename>  (1) 
O=c1[nH]c(=O)n(-c2cccnc2)cc1-c1cncc(F)c1

$$$$
