
     RDKit          3D

 26 28  0  0  0  0  0  0  0  0999 V2000
    4.9305   -4.8353   26.2516 H   0  0  0  0  0  0  0  0  0  0  0  0
    5.1673   -4.2743   25.3507 C   0  0  0  0  0  0  0  0  0  0  0  0
    4.3137   -3.9984   24.4056 N   0  0  0  0  0  0  0  0  0  0  0  0
    4.9378   -3.2728   23.4211 C   0  0  0  0  0  0  0  0  0  0  0  0
    4.3702   -2.9610   22.5511 H   0  0  0  0  0  0  0  0  0  0  0  0
    6.2661   -2.9964   23.6248 C   0  0  0  0  0  0  0  0  0  0  0  0
    7.1347   -2.1535   22.7893 C   0  0  0  0  0  0  0  0  0  0  0  0
    6.5415   -1.4755   21.8282 N   0  0  0  0  0  0  0  0  0  0  0  0
    7.3138   -0.7358   20.9784 N   0  0  0  0  0  0  0  0  0  0  0  0
    6.6439   -0.0377   19.9183 C   0  0  0  0  0  0  0  0  0  0  0  0
    7.1667    0.0251   18.6122 C   0  0  0  0  0  0  0  0  0  0  0  0
    8.1046   -0.4668   18.3635 H   0  0  0  0  0  0  0  0  0  0  0  0
    6.5671    0.6595   17.5975 N   0  0  0  0  0  0  0  0  0  0  0  0
    5.4116    1.2945   17.8498 C   0  0  0  0  0  0  0  0  0  0  0  0
    4.9521    1.8032   17.0028 H   0  0  0  0  0  0  0  0  0  0  0  0
    4.8128    1.3066   19.1162 C   0  0  0  0  0  0  0  0  0  0  0  0
    3.8793    1.8449   19.2551 H   0  0  0  0  0  0  0  0  0  0  0  0
    5.4349    0.6224   20.1690 C   0  0  0  0  0  0  0  0  0  0  0  0
    5.0309    0.5694   21.1789 H   0  0  0  0  0  0  0  0  0  0  0  0
    8.6790   -0.6372   21.1360 C   0  0  0  0  0  0  0  0  0  0  0  0
    9.1613    0.0093   20.4060 H   0  0  0  0  0  0  0  0  0  0  0  0
    9.3489   -1.2648   22.1192 C   0  0  0  0  0  0  0  0  0  0  0  0
   10.4219   -1.2026   22.2367 H   0  0  0  0  0  0  0  0  0  0  0  0
    8.6325   -2.0967   23.0734 C   0  0  0  0  0  0  0  0  0  0  0  0
    9.1983   -2.6969   23.9819 O   0  0  0  0  0  0  0  0  0  0  0  0
    6.7728   -3.7108   25.1238 S   0  0  0  0  0  0  0  0  0  0  0  0
  1  2  1  0
  2  3  2  0
  3  4  1  0
  4  5  1  0
  4  6  2  0
  6  7  1  0
  7  8  2  0
  8  9  1  0
  9 10  1  0
 10 11  2  0
 11 12  1  0
 11 13  1  0
 13 14  2  0
 14 15  1  0
 14 16  1  0
 16 17  1  0
 16 18  2  0
 18 19  1  0
  9 20  1  0
 20 21  1  0
 20 22  2  0
 22 23  1  0
 22 24  1  0
 24 25  2  0
  6 26  1  0
 26  2  1  0
 24  7  1  0
 18 10  1  0
M  END
>  <cnnaffinity>  (1) 
-4.86638

>  <filename>  (1) 
O=c1ccn(-c2cccnc2)nc1-c1cncs1

$$$$
