
     RDKit          3D

 32 34  0  0  0  0  0  0  0  0999 V2000
    4.9085    1.7995   16.9834 H   0  0  0  0  0  0  0  0  0  0  0  0
    5.3890    1.3019   17.8249 C   0  0  0  0  0  0  0  0  0  0  0  0
    6.5468    0.6809   17.5503 N   0  0  0  0  0  0  0  0  0  0  0  0
    7.1765    0.0761   18.5654 C   0  0  0  0  0  0  0  0  0  0  0  0
    8.1205   -0.4131   18.3411 H   0  0  0  0  0  0  0  0  0  0  0  0
    6.6764    0.0351   19.8849 C   0  0  0  0  0  0  0  0  0  0  0  0
    7.3613   -0.6740   20.9582 N   0  0  0  0  0  0  0  0  0  0  0  0
    6.7673   -1.8422   21.5196 C   0  0  0  0  0  0  0  0  0  0  0  0
    5.7063   -2.2550   21.1027 O   0  0  0  0  0  0  0  0  0  0  0  0
    7.4914   -2.5179   22.5667 C   0  0  0  0  0  0  0  0  0  0  0  0
    7.0101   -3.3913   22.9599 H   0  0  0  0  0  0  0  0  0  0  0  0
    8.6663   -2.0498   23.0119 C   0  0  0  0  0  0  0  0  0  0  0  0
    9.4406   -2.5488   23.9944 O   0  0  0  0  0  0  0  0  0  0  0  0
    8.8686   -3.2875   25.0286 C   0  0  0  0  0  0  0  0  0  0  0  0
    7.6374   -2.9373   25.6065 C   0  0  0  0  0  0  0  0  0  0  0  0
    7.0721   -2.1012   25.2090 H   0  0  0  0  0  0  0  0  0  0  0  0
    7.1417   -3.6561   26.6982 C   0  0  0  0  0  0  0  0  0  0  0  0
    6.1870   -3.4027   27.1468 H   0  0  0  0  0  0  0  0  0  0  0  0
    7.8751   -4.7226   27.2162 C   0  0  0  0  0  0  0  0  0  0  0  0
    7.2505   -5.6169   28.5697 Cl  0  0  0  0  0  0  0  0  0  0  0  0
    9.1048   -5.0726   26.6545 C   0  0  0  0  0  0  0  0  0  0  0  0
    9.6612   -5.8981   27.0868 H   0  0  0  0  0  0  0  0  0  0  0  0
    9.6056   -4.3545   25.5601 C   0  0  0  0  0  0  0  0  0  0  0  0
   10.5727   -4.6108   25.1353 H   0  0  0  0  0  0  0  0  0  0  0  0
    9.1969   -0.9587   22.4017 N   0  0  0  0  0  0  0  0  0  0  0  0
   10.0727   -0.5300   22.6301 H   0  0  0  0  0  0  0  0  0  0  0  0
    8.6016   -0.2280   21.4027 C   0  0  0  0  0  0  0  0  0  0  0  0
    9.1924    0.7288   20.9634 O   0  0  0  0  0  0  0  0  0  0  0  0
    5.4577    0.6560   20.1504 C   0  0  0  0  0  0  0  0  0  0  0  0
    5.0364    0.6007   21.1536 H   0  0  0  0  0  0  0  0  0  0  0  0
    4.8115    1.3177   19.0987 C   0  0  0  0  0  0  0  0  0  0  0  0
    3.8774    1.8405   19.2542 H   0  0  0  0  0  0  0  0  0  0  0  0
  1  2  1  0
  2  3  2  0
  3  4  1  0
  4  5  1  0
  4  6  2  0
  6  7  1  0
  7  8  1  0
  8  9  2  0
  8 10  1  0
 10 11  1  0
 10 12  2  0
 12 13  1  0
 13 14  1  0
 14 15  2  0
 15 16  1  0
 15 17  1  0
 17 18  1  0
 17 19  2  0
 19 20  1  0
 19 21  1  0
 21 22  1  0
 21 23  2  0
 23 24  1  0
 12 25  1  0
 25 26  1  0
 25 27  1  0
 27 28  2  0
  6 29  1  0
 29 30  1  0
 29 31  2  0
 31 32  1  0
 31  2  1  0
 27  7  1  0
 23 14  1  0
M  END
>  <cnnaffinity>  (1) 
-5.30566

>  <filename>  (1) 
O=c1cc(Oc2ccc(Cl)cc2)[nH]c(=O)n1-c1cccnc1

$$$$
