
     RDKit          3D

 32 34  0  0  0  0  0  0  0  0999 V2000
    4.9168    1.7936   16.9875 H   0  0  0  0  0  0  0  0  0  0  0  0
    5.3979    1.2964   17.8270 C   0  0  0  0  0  0  0  0  0  0  0  0
    6.5623    0.6849   17.5630 N   0  0  0  0  0  0  0  0  0  0  0  0
    7.1729    0.0688   18.5795 C   0  0  0  0  0  0  0  0  0  0  0  0
    8.1242   -0.4126   18.3454 H   0  0  0  0  0  0  0  0  0  0  0  0
    6.6607    0.0111   19.8863 C   0  0  0  0  0  0  0  0  0  0  0  0
    7.3983   -0.6871   21.0094 C   0  0  2  0  0  0  0  0  0  0  0  0
    8.1907   -1.3110   20.5804 H   0  0  0  0  0  0  0  0  0  0  0  0
    6.5194   -1.6559   21.8150 C   0  0  0  0  0  0  0  0  0  0  0  0
    5.8303   -2.5756   21.4235 O   0  0  0  0  0  0  0  0  0  0  0  0
    6.6668   -1.3343   23.1183 N   0  0  0  0  0  0  0  0  0  0  0  0
    6.1170   -1.8828   23.7554 H   0  0  0  0  0  0  0  0  0  0  0  0
    7.5640   -0.2532   23.4512 C   0  0  0  0  0  0  0  0  0  0  0  0
    7.0698    0.5187   24.0596 H   0  0  0  0  0  0  0  0  0  0  0  0
    8.4182   -0.6176   24.0452 H   0  0  0  0  0  0  0  0  0  0  0  0
    7.9841    0.2982   22.0628 C   0  0  1  0  0  0  0  0  0  0  0  0
    7.5102    1.2786   21.9342 H   0  0  0  0  0  0  0  0  0  0  0  0
    9.4743    0.5037   21.9195 C   0  0  0  0  0  0  0  0  0  0  0  0
    9.9972    1.7632   21.5850 C   0  0  0  0  0  0  0  0  0  0  0  0
    9.3211    2.6002   21.4249 H   0  0  0  0  0  0  0  0  0  0  0  0
   11.3784    1.9543   21.4818 C   0  0  0  0  0  0  0  0  0  0  0  0
   11.7824    2.9243   21.2030 H   0  0  0  0  0  0  0  0  0  0  0  0
   12.2438    0.8881   21.7339 C   0  0  0  0  0  0  0  0  0  0  0  0
   13.3203    1.0013   21.6935 H   0  0  0  0  0  0  0  0  0  0  0  0
   11.7184   -0.3788   21.9883 C   0  0  0  0  0  0  0  0  0  0  0  0
   12.8044   -1.7274   22.1288 Cl  0  0  0  0  0  0  0  0  0  0  0  0
   10.3462   -0.5815   22.0974 C   0  0  0  0  0  0  0  0  0  0  0  0
    9.9783   -1.5771   22.3351 H   0  0  0  0  0  0  0  0  0  0  0  0
    5.4451    0.6513   20.1433 C   0  0  0  0  0  0  0  0  0  0  0  0
    5.0173    0.6278   21.1501 H   0  0  0  0  0  0  0  0  0  0  0  0
    4.8087    1.3090   19.0944 C   0  0  0  0  0  0  0  0  0  0  0  0
    3.8803    1.8399   19.2491 H   0  0  0  0  0  0  0  0  0  0  0  0
  1  2  1  0
  2  3  2  0
  3  4  1  0
  4  5  1  0
  4  6  2  0
  6  7  1  0
  7  8  1  6
  7  9  1  0
  9 10  2  0
  9 11  1  0
 11 12  1  0
 11 13  1  0
 13 14  1  0
 13 15  1  0
 13 16  1  0
 16 17  1  6
 16 18  1  0
 18 19  2  0
 19 20  1  0
 19 21  1  0
 21 22  1  0
 21 23  2  0
 23 24  1  0
 23 25  1  0
 25 26  1  0
 25 27  2  0
 27 28  1  0
  6 29  1  0
 29 30  1  0
 29 31  2  0
 31 32  1  0
 31  2  1  0
 16  7  1  0
 27 18  1  0
M  END
>  <cnnaffinity>  (1) 
-5.09584

>  <filename>  (1) 
O=C1NC[C@@H](c2cccc(Cl)c2)[C@@H]1c1cccnc1

$$$$
