
     RDKit          3D

 32 34  0  0  0  0  0  0  0  0999 V2000
    4.9423    1.7924   16.7454 H   0  0  0  0  0  0  0  0  0  0  0  0
    5.3241    1.3963   17.6828 C   0  0  0  0  0  0  0  0  0  0  0  0
    6.5189    0.7921   17.6036 N   0  0  0  0  0  0  0  0  0  0  0  0
    7.0214    0.2984   18.7413 C   0  0  0  0  0  0  0  0  0  0  0  0
    7.9908   -0.1851   18.6537 H   0  0  0  0  0  0  0  0  0  0  0  0
    6.3983    0.3646   20.0066 C   0  0  0  0  0  0  0  0  0  0  0  0
    7.1024   -0.2263   21.2295 C   0  0  2  0  0  0  0  0  0  0  0  0
    6.4969   -0.0145   22.1169 H   0  0  0  0  0  0  0  0  0  0  0  0
    8.5353    0.3541   21.4298 C   0  0  0  0  0  0  0  0  0  0  0  0
    8.7516    0.4904   22.5032 H   0  0  0  0  0  0  0  0  0  0  0  0
    8.6824    1.3250   20.9406 H   0  0  0  0  0  0  0  0  0  0  0  0
    9.3850   -0.6568   20.8263 N   0  0  0  0  0  0  0  0  0  0  0  0
   10.3871   -0.6902   20.9419 H   0  0  0  0  0  0  0  0  0  0  0  0
    8.8492   -1.9025   20.9339 C   0  0  0  0  0  0  0  0  0  0  0  0
    9.5125   -2.9131   20.8919 O   0  0  0  0  0  0  0  0  0  0  0  0
    7.3461   -1.7654   21.0747 C   0  0  1  0  0  0  0  0  0  0  0  0
    6.9530   -2.0917   20.1053 H   0  0  0  0  0  0  0  0  0  0  0  0
    6.7612   -2.7283   22.1031 C   0  0  0  0  0  0  0  0  0  0  0  0
    5.7190   -3.5764   21.6998 C   0  0  0  0  0  0  0  0  0  0  0  0
    5.3394   -3.5279   20.6855 H   0  0  0  0  0  0  0  0  0  0  0  0
    5.1873   -4.5099   22.5896 C   0  0  0  0  0  0  0  0  0  0  0  0
    3.9375   -5.5977   22.0776 Cl  0  0  0  0  0  0  0  0  0  0  0  0
    5.6708   -4.6250   23.8929 C   0  0  0  0  0  0  0  0  0  0  0  0
    5.2431   -5.3413   24.5850 H   0  0  0  0  0  0  0  0  0  0  0  0
    6.7325   -3.8042   24.2721 C   0  0  0  0  0  0  0  0  0  0  0  0
    7.4047   -4.0113   25.8589 Cl  0  0  0  0  0  0  0  0  0  0  0  0
    7.2853   -2.8624   23.3964 C   0  0  0  0  0  0  0  0  0  0  0  0
    8.1426   -2.2829   23.7223 H   0  0  0  0  0  0  0  0  0  0  0  0
    5.1486    1.0121   20.0578 C   0  0  0  0  0  0  0  0  0  0  0  0
    4.6091    1.1166   21.0027 H   0  0  0  0  0  0  0  0  0  0  0  0
    4.6012    1.5254   18.8734 C   0  0  0  0  0  0  0  0  0  0  0  0
    3.6366    2.0296   18.8511 H   0  0  0  0  0  0  0  0  0  0  0  0
  1  2  1  0
  2  3  2  0
  3  4  1  0
  4  5  1  0
  4  6  2  0
  6  7  1  0
  7  8  1  1
  7  9  1  0
  9 10  1  0
  9 11  1  0
  9 12  1  0
 12 13  1  0
 12 14  1  0
 14 15  2  0
 14 16  1  0
 16 17  1  6
 16 18  1  0
 18 19  2  0
 19 20  1  0
 19 21  1  0
 21 22  1  0
 21 23  2  0
 23 24  1  0
 23 25  1  0
 25 26  1  0
 25 27  2  0
 27 28  1  0
  6 29  1  0
 29 30  1  0
 29 31  2  0
 31 32  1  0
 31  2  1  0
 16  7  1  0
 27 18  1  0
M  END
>  <cnnaffinity>  (1) 
-5.24255

>  <filename>  (1) 
O=C1NC[C@@H](c2cccnc2)[C@@H]1c1cc(Cl)cc(Cl)c1

$$$$
