
     RDKit          3D

 33 35  0  0  0  0  0  0  0  0999 V2000
    4.9472    1.7650   16.9566 H   0  0  0  0  0  0  0  0  0  0  0  0
    5.4020    1.3116   17.8372 C   0  0  0  0  0  0  0  0  0  0  0  0
    6.5865    0.7089   17.6480 N   0  0  0  0  0  0  0  0  0  0  0  0
    7.1635    0.1586   18.7203 C   0  0  0  0  0  0  0  0  0  0  0  0
    8.1216   -0.3146   18.5241 H   0  0  0  0  0  0  0  0  0  0  0  0
    6.6326    0.1704   20.0246 C   0  0  0  0  0  0  0  0  0  0  0  0
    7.3800   -0.5152   21.1220 C   0  0  0  0  0  0  0  0  0  0  0  0
    7.2170   -0.0534   22.4073 N   0  0  0  0  0  0  0  0  0  0  0  0
    7.8552   -0.6590   23.3866 C   0  0  0  0  0  0  0  0  0  0  0  0
    7.7316   -0.1053   24.7695 C   0  0  0  0  0  0  0  0  0  0  0  0
    8.6256   -0.3384   25.3568 H   0  0  0  0  0  0  0  0  0  0  0  0
    7.6422    0.9883   24.7188 H   0  0  0  0  0  0  0  0  0  0  0  0
    6.5197   -0.7246   25.4416 C   0  0  0  0  0  0  0  0  0  0  0  0
    6.6493   -1.9250   26.1629 C   0  0  0  0  0  0  0  0  0  0  0  0
    7.6287   -2.3951   26.2300 H   0  0  0  0  0  0  0  0  0  0  0  0
    5.5390   -2.5337   26.7543 C   0  0  0  0  0  0  0  0  0  0  0  0
    5.6560   -3.4482   27.3290 H   0  0  0  0  0  0  0  0  0  0  0  0
    4.2683   -1.9736   26.5880 C   0  0  0  0  0  0  0  0  0  0  0  0
    3.3967   -2.4443   27.0338 H   0  0  0  0  0  0  0  0  0  0  0  0
    4.1076   -0.8101   25.8354 C   0  0  0  0  0  0  0  0  0  0  0  0
    3.1302   -0.3785   25.6527 H   0  0  0  0  0  0  0  0  0  0  0  0
    5.2298   -0.1993   25.2717 C   0  0  0  0  0  0  0  0  0  0  0  0
    4.9730    1.2273   24.3031 Cl  0  0  0  0  0  0  0  0  0  0  0  0
    8.6278   -1.9358   23.1986 C   0  0  0  0  0  0  0  0  0  0  0  0
    9.1679   -2.6420   24.0397 O   0  0  0  0  0  0  0  0  0  0  0  0
    8.7341   -2.3164   21.8723 N   0  0  0  0  0  0  0  0  0  0  0  0
    9.3028   -3.1481   21.7828 H   0  0  0  0  0  0  0  0  0  0  0  0
    8.1842   -1.5854   20.8406 C   0  0  0  0  0  0  0  0  0  0  0  0
    8.4466   -1.8692   19.8355 H   0  0  0  0  0  0  0  0  0  0  0  0
    5.3861    0.7962   20.1984 C   0  0  0  0  0  0  0  0  0  0  0  0
    4.9273    0.8340   21.1917 H   0  0  0  0  0  0  0  0  0  0  0  0
    4.7614    1.3625   19.0818 C   0  0  0  0  0  0  0  0  0  0  0  0
    3.7918    1.8452   19.1570 H   0  0  0  0  0  0  0  0  0  0  0  0
  1  2  1  0
  2  3  2  0
  3  4  1  0
  4  5  1  0
  4  6  2  0
  6  7  1  0
  7  8  1  0
  8  9  2  0
  9 10  1  0
 10 11  1  0
 10 12  1  0
 10 13  1  0
 13 14  2  0
 14 15  1  0
 14 16  1  0
 16 17  1  0
 16 18  2  0
 18 19  1  0
 18 20  1  0
 20 21  1  0
 20 22  2  0
 22 23  1  0
  9 24  1  0
 24 25  2  0
 24 26  1  0
 26 27  1  0
 26 28  1  0
 28 29  1  0
  6 30  1  0
 30 31  1  0
 30 32  2  0
 32 33  1  0
 32  2  1  0
 28  7  2  0
 22 13  1  0
M  END
>  <cnnaffinity>  (1) 
-5.05456

>  <filename>  (1) 
O=c1[nH]cc(-c2cccnc2)nc1Cc1ccccc1Cl

$$$$
