
     RDKit          3D

 33 36  0  0  0  0  0  0  0  0999 V2000
    4.9340    1.7949   16.9944 H   0  0  0  0  0  0  0  0  0  0  0  0
    5.3980    1.2944   17.8417 C   0  0  0  0  0  0  0  0  0  0  0  0
    6.5499    0.6612   17.5768 N   0  0  0  0  0  0  0  0  0  0  0  0
    7.1589    0.0368   18.5889 C   0  0  0  0  0  0  0  0  0  0  0  0
    8.1198   -0.4216   18.3754 H   0  0  0  0  0  0  0  0  0  0  0  0
    6.6400   -0.0171   19.8926 C   0  0  0  0  0  0  0  0  0  0  0  0
    7.3498   -0.7064   20.9325 N   0  0  0  0  0  0  0  0  0  0  0  0
    6.5967   -1.5825   21.6555 N   0  0  0  0  0  0  0  0  0  0  0  0
    7.1818   -2.2666   22.6173 C   0  0  0  0  0  0  0  0  0  0  0  0
    6.3654   -3.2597   23.3843 C   0  0  0  0  0  0  0  0  0  0  0  0
    6.7983   -4.0098   24.3727 N   0  0  0  0  0  0  0  0  0  0  0  0
    5.7088   -4.7557   24.7686 C   0  0  0  0  0  0  0  0  0  0  0  0
    5.6019   -5.7209   25.7901 C   0  0  0  0  0  0  0  0  0  0  0  0
    6.4769   -5.9576   26.3927 H   0  0  0  0  0  0  0  0  0  0  0  0
    4.3665   -6.3337   25.9858 C   0  0  0  0  0  0  0  0  0  0  0  0
    4.2661   -7.0784   26.7696 H   0  0  0  0  0  0  0  0  0  0  0  0
    3.2440   -6.0003   25.1863 C   0  0  0  0  0  0  0  0  0  0  0  0
    2.2943   -6.4967   25.3690 H   0  0  0  0  0  0  0  0  0  0  0  0
    3.3354   -5.0467   24.1718 C   0  0  0  0  0  0  0  0  0  0  0  0
    2.4829   -4.7806   23.5529 H   0  0  0  0  0  0  0  0  0  0  0  0
    4.5808   -4.4355   23.9766 C   0  0  0  0  0  0  0  0  0  0  0  0
    5.0429   -3.4827   23.0930 N   0  0  0  0  0  0  0  0  0  0  0  0
    4.5412   -2.9457   22.4055 H   0  0  0  0  0  0  0  0  0  0  0  0
    8.5681   -2.0831   22.9569 C   0  0  0  0  0  0  0  0  0  0  0  0
    8.9559   -2.6919   23.7707 H   0  0  0  0  0  0  0  0  0  0  0  0
    9.3124   -1.1755   22.2743 C   0  0  0  0  0  0  0  0  0  0  0  0
   10.3590   -0.9719   22.4692 H   0  0  0  0  0  0  0  0  0  0  0  0
    8.7359   -0.3886   21.1913 C   0  0  0  0  0  0  0  0  0  0  0  0
    9.3404    0.4508   20.5448 O   0  0  0  0  0  0  0  0  0  0  0  0
    5.4292    0.6280   20.1627 C   0  0  0  0  0  0  0  0  0  0  0  0
    5.0194    0.5921   21.1733 H   0  0  0  0  0  0  0  0  0  0  0  0
    4.8076    1.3120   19.1117 C   0  0  0  0  0  0  0  0  0  0  0  0
    3.8788    1.8505   19.2552 H   0  0  0  0  0  0  0  0  0  0  0  0
  1  2  1  0
  2  3  2  0
  3  4  1  0
  4  5  1  0
  4  6  2  0
  6  7  1  0
  7  8  1  0
  8  9  2  0
  9 10  1  0
 10 11  2  0
 11 12  1  0
 12 13  2  0
 13 14  1  0
 13 15  1  0
 15 16  1  0
 15 17  2  0
 17 18  1  0
 17 19  1  0
 19 20  1  0
 19 21  2  0
 21 22  1  0
 22 23  1  0
  9 24  1  0
 24 25  1  0
 24 26  2  0
 26 27  1  0
 26 28  1  0
 28 29  2  0
  6 30  1  0
 30 31  1  0
 30 32  2  0
 32 33  1  0
 32  2  1  0
 28  7  1  0
 22 10  1  0
 21 12  1  0
M  END
>  <cnnaffinity>  (1) 
-5.58268

>  <filename>  (1) 
O=c1ccc(-c2nc3ccccc3[nH]2)nn1-c1cccnc1

$$$$
