
     RDKit          3D

 32 34  0  0  0  0  0  0  0  0999 V2000
    4.9181    1.8002   16.9791 H   0  0  0  0  0  0  0  0  0  0  0  0
    5.3976    1.3031   17.8214 C   0  0  0  0  0  0  0  0  0  0  0  0
    6.5614    0.6885   17.5586 N   0  0  0  0  0  0  0  0  0  0  0  0
    7.1886    0.0898   18.5776 C   0  0  0  0  0  0  0  0  0  0  0  0
    8.1205   -0.4218   18.3438 H   0  0  0  0  0  0  0  0  0  0  0  0
    6.6797    0.0404   19.8888 C   0  0  0  0  0  0  0  0  0  0  0  0
    7.3699   -0.6649   20.9360 N   0  0  0  0  0  0  0  0  0  0  0  0
    8.6449   -0.2469   21.2705 C   0  0  0  0  0  0  0  0  0  0  0  0
    9.0322    0.5749   20.6828 H   0  0  0  0  0  0  0  0  0  0  0  0
    9.3526   -0.8333   22.2796 C   0  0  0  0  0  0  0  0  0  0  0  0
   10.6287   -0.4681   22.6453 O   0  0  0  0  0  0  0  0  0  0  0  0
   11.0891    0.8320   22.5446 C   0  0  0  0  0  0  0  0  0  0  0  0
   12.4700    0.9936   22.3686 C   0  0  0  0  0  0  0  0  0  0  0  0
   13.0828    0.1067   22.2381 H   0  0  0  0  0  0  0  0  0  0  0  0
   13.0188    2.2797   22.3935 C   0  0  0  0  0  0  0  0  0  0  0  0
   14.0980    2.4215   22.4149 H   0  0  0  0  0  0  0  0  0  0  0  0
   12.1931    3.4072   22.4583 C   0  0  0  0  0  0  0  0  0  0  0  0
   12.6006    4.4081   22.3654 H   0  0  0  0  0  0  0  0  0  0  0  0
   10.8270    3.2224   22.6591 C   0  0  0  0  0  0  0  0  0  0  0  0
    9.8151    4.6150   22.9090 Cl  0  0  0  0  0  0  0  0  0  0  0  0
   10.2603    1.9475   22.7275 C   0  0  0  0  0  0  0  0  0  0  0  0
    9.2059    1.8381   22.9477 H   0  0  0  0  0  0  0  0  0  0  0  0
    8.7807   -1.9437   22.9741 C   0  0  0  0  0  0  0  0  0  0  0  0
    9.3868   -2.4160   23.7501 H   0  0  0  0  0  0  0  0  0  0  0  0
    7.5313   -2.3751   22.6553 C   0  0  0  0  0  0  0  0  0  0  0  0
    7.0327   -3.2069   23.1351 H   0  0  0  0  0  0  0  0  0  0  0  0
    6.7254   -1.7644   21.6047 C   0  0  0  0  0  0  0  0  0  0  0  0
    5.6190   -2.1739   21.2930 O   0  0  0  0  0  0  0  0  0  0  0  0
    5.4586    0.6646   20.1501 C   0  0  0  0  0  0  0  0  0  0  0  0
    5.0341    0.6023   21.1521 H   0  0  0  0  0  0  0  0  0  0  0  0
    4.8174    1.3184   19.0941 C   0  0  0  0  0  0  0  0  0  0  0  0
    3.8800    1.8352   19.2466 H   0  0  0  0  0  0  0  0  0  0  0  0
  1  2  1  0
  2  3  2  0
  3  4  1  0
  4  5  1  0
  4  6  2  0
  6  7  1  0
  7  8  1  0
  8  9  1  0
  8 10  2  0
 10 11  1  0
 11 12  1  0
 12 13  2  0
 13 14  1  0
 13 15  1  0
 15 16  1  0
 15 17  2  0
 17 18  1  0
 17 19  1  0
 19 20  1  0
 19 21  2  0
 21 22  1  0
 10 23  1  0
 23 24  1  0
 23 25  2  0
 25 26  1  0
 25 27  1  0
 27 28  2  0
  6 29  1  0
 29 30  1  0
 29 31  2  0
 31 32  1  0
 31  2  1  0
 27  7  1  0
 21 12  1  0
M  END
>  <cnnaffinity>  (1) 
-5.19036

>  <filename>  (1) 
O=c1ccc(Oc2cccc(Cl)c2)cn1-c1cccnc1

$$$$
