
     RDKit          3D

 34 37  0  0  0  0  0  0  0  0999 V2000
    4.9169    1.7795   16.9978 H   0  0  0  0  0  0  0  0  0  0  0  0
    5.4021    1.2937   17.8425 C   0  0  0  0  0  0  0  0  0  0  0  0
    6.5625    0.6711   17.5826 N   0  0  0  0  0  0  0  0  0  0  0  0
    7.1702    0.0497   18.5985 C   0  0  0  0  0  0  0  0  0  0  0  0
    8.1218   -0.4238   18.3813 H   0  0  0  0  0  0  0  0  0  0  0  0
    6.6427   -0.0133   19.8990 C   0  0  0  0  0  0  0  0  0  0  0  0
    7.3355   -0.7103   20.9431 N   0  0  0  0  0  0  0  0  0  0  0  0
    6.5783   -1.6050   21.6491 N   0  0  0  0  0  0  0  0  0  0  0  0
    7.1441   -2.2868   22.6229 C   0  0  0  0  0  0  0  0  0  0  0  0
    6.2988   -3.2657   23.3740 C   0  0  0  0  0  0  0  0  0  0  0  0
    5.1776   -3.8592   22.7137 C   0  0  0  0  0  0  0  0  0  0  0  0
    4.9681   -3.5750   21.6852 H   0  0  0  0  0  0  0  0  0  0  0  0
    4.3656   -4.7660   23.3689 C   0  0  0  0  0  0  0  0  0  0  0  0
    3.5031   -5.2129   22.8827 H   0  0  0  0  0  0  0  0  0  0  0  0
    4.6544   -5.1055   24.7032 C   0  0  0  0  0  0  0  0  0  0  0  0
    4.0353   -5.9759   25.6561 C   0  0  0  0  0  0  0  0  0  0  0  0
    3.1520   -6.5675   25.4647 H   0  0  0  0  0  0  0  0  0  0  0  0
    4.7597   -5.9010   26.8090 C   0  0  0  0  0  0  0  0  0  0  0  0
    4.6064   -6.4106   27.7572 H   0  0  0  0  0  0  0  0  0  0  0  0
    5.8112   -5.0198   26.6246 N   0  0  0  0  0  0  0  0  0  0  0  0
    6.5064   -4.7668   27.3024 H   0  0  0  0  0  0  0  0  0  0  0  0
    5.7692   -4.5165   25.3465 C   0  0  0  0  0  0  0  0  0  0  0  0
    6.6002   -3.5997   24.7023 C   0  0  0  0  0  0  0  0  0  0  0  0
    7.4328   -3.1638   25.2569 H   0  0  0  0  0  0  0  0  0  0  0  0
    8.5387   -2.1108   22.9550 C   0  0  0  0  0  0  0  0  0  0  0  0
    8.9861   -2.7169   23.7414 H   0  0  0  0  0  0  0  0  0  0  0  0
    9.2867   -1.2073   22.2731 C   0  0  0  0  0  0  0  0  0  0  0  0
   10.3343   -1.0074   22.4710 H   0  0  0  0  0  0  0  0  0  0  0  0
    8.7218   -0.3984   21.2011 C   0  0  0  0  0  0  0  0  0  0  0  0
    9.3332    0.4407   20.5631 O   0  0  0  0  0  0  0  0  0  0  0  0
    5.4354    0.6399   20.1666 C   0  0  0  0  0  0  0  0  0  0  0  0
    5.0190    0.6038   21.1755 H   0  0  0  0  0  0  0  0  0  0  0  0
    4.8098    1.3155   19.1123 C   0  0  0  0  0  0  0  0  0  0  0  0
    3.8746    1.8458   19.2628 H   0  0  0  0  0  0  0  0  0  0  0  0
  1  2  1  0
  2  3  2  0
  3  4  1  0
  4  5  1  0
  4  6  2  0
  6  7  1  0
  7  8  1  0
  8  9  2  0
  9 10  1  0
 10 11  2  0
 11 12  1  0
 11 13  1  0
 13 14  1  0
 13 15  2  0
 15 16  1  0
 16 17  1  0
 16 18  2  0
 18 19  1  0
 18 20  1  0
 20 21  1  0
 20 22  1  0
 22 23  2  0
 23 24  1  0
  9 25  1  0
 25 26  1  0
 25 27  2  0
 27 28  1  0
 27 29  1  0
 29 30  2  0
  6 31  1  0
 31 32  1  0
 31 33  2  0
 33 34  1  0
 33  2  1  0
 29  7  1  0
 23 10  1  0
 22 15  1  0
M  END
>  <cnnaffinity>  (1) 
-5.5325

>  <filename>  (1) 
O=c1ccc(-c2ccc3cc[nH]c3c2)nn1-c1cccnc1

$$$$
