
     RDKit          3D

 30 32  0  0  0  0  0  0  0  0999 V2000
    4.9360    1.8369   16.9916 H   0  0  0  0  0  0  0  0  0  0  0  0
    5.4328    1.3237   17.8129 C   0  0  0  0  0  0  0  0  0  0  0  0
    6.5954    0.7177   17.5171 N   0  0  0  0  0  0  0  0  0  0  0  0
    7.2025    0.0412   18.4976 C   0  0  0  0  0  0  0  0  0  0  0  0
    8.1489   -0.4399   18.2572 H   0  0  0  0  0  0  0  0  0  0  0  0
    6.6899   -0.0839   19.8049 C   0  0  0  0  0  0  0  0  0  0  0  0
    7.4092   -0.8068   20.7942 N   0  0  0  0  0  0  0  0  0  0  0  0
    8.7717   -0.6231   21.0376 C   0  0  0  0  0  0  0  0  0  0  0  0
    9.3852   -0.0156   20.3975 H   0  0  0  0  0  0  0  0  0  0  0  0
    9.0689   -1.3743   22.1175 C   0  0  0  0  0  0  0  0  0  0  0  0
   10.1928   -1.7180   22.7562 O   0  0  0  0  0  0  0  0  0  0  0  0
   11.3478   -1.0158   22.4664 C   0  0  0  0  0  0  0  0  0  0  0  0
   12.5205   -1.7481   22.2971 C   0  0  0  0  0  0  0  0  0  0  0  0
   12.4607   -2.8275   22.3047 H   0  0  0  0  0  0  0  0  0  0  0  0
   13.7461   -1.0836   22.2023 C   0  0  0  0  0  0  0  0  0  0  0  0
   14.6586   -1.6712   22.1093 H   0  0  0  0  0  0  0  0  0  0  0  0
   13.7973    0.3152   22.2533 C   0  0  0  0  0  0  0  0  0  0  0  0
   14.7454    0.8428   22.2095 H   0  0  0  0  0  0  0  0  0  0  0  0
   12.5960    1.0281   22.3288 C   0  0  0  0  0  0  0  0  0  0  0  0
   12.6166    2.7661   22.2490 Cl  0  0  0  0  0  0  0  0  0  0  0  0
   11.3648    0.3797   22.4349 C   0  0  0  0  0  0  0  0  0  0  0  0
   10.4423    0.9401   22.5153 H   0  0  0  0  0  0  0  0  0  0  0  0
    7.9266   -1.9718   22.5706 N   0  0  0  0  0  0  0  0  0  0  0  0
    7.8641   -2.6446   23.3129 H   0  0  0  0  0  0  0  0  0  0  0  0
    6.8746   -1.7210   21.7202 C   0  0  0  0  0  0  0  0  0  0  0  0
    5.7719   -2.2193   21.7494 O   0  0  0  0  0  0  0  0  0  0  0  0
    5.4897    0.5702   20.1084 C   0  0  0  0  0  0  0  0  0  0  0  0
    5.0990    0.5403   21.1248 H   0  0  0  0  0  0  0  0  0  0  0  0
    4.8548    1.2833   19.0865 C   0  0  0  0  0  0  0  0  0  0  0  0
    3.9231    1.8065   19.2654 H   0  0  0  0  0  0  0  0  0  0  0  0
  1  2  1  0
  2  3  2  0
  3  4  1  0
  4  5  1  0
  4  6  2  0
  6  7  1  0
  7  8  1  0
  8  9  1  0
  8 10  2  0
 10 11  1  0
 11 12  1  0
 12 13  2  0
 13 14  1  0
 13 15  1  0
 15 16  1  0
 15 17  2  0
 17 18  1  0
 17 19  1  0
 19 20  1  0
 19 21  2  0
 21 22  1  0
 10 23  1  0
 23 24  1  0
 23 25  1  0
 25 26  2  0
  6 27  1  0
 27 28  1  0
 27 29  2  0
 29 30  1  0
 29  2  1  0
 25  7  1  0
 21 12  1  0
M  END
>  <cnnaffinity>  (1) 
-5.45673

>  <filename>  (1) 
O=c1[nH]c(Oc2cccc(Cl)c2)cn1-c1cccnc1

$$$$
