
     RDKit          3D

 40 43  0  0  0  0  0  0  0  0999 V2000
    4.8940    1.8344   16.9654 H   0  0  0  0  0  0  0  0  0  0  0  0
    5.3904    1.3195   17.7848 C   0  0  0  0  0  0  0  0  0  0  0  0
    6.5375    0.6910   17.4831 N   0  0  0  0  0  0  0  0  0  0  0  0
    7.1808    0.0606   18.4749 C   0  0  0  0  0  0  0  0  0  0  0  0
    8.1096   -0.4365   18.2083 H   0  0  0  0  0  0  0  0  0  0  0  0
    6.7110    0.0104   19.8053 C   0  0  0  0  0  0  0  0  0  0  0  0
    7.4228   -0.6878   20.8561 N   0  0  0  0  0  0  0  0  0  0  0  0
    6.7574   -1.7053   21.5507 C   0  0  0  0  0  0  0  0  0  0  0  0
    5.7281   -1.8894   21.2518 H   0  0  0  0  0  0  0  0  0  0  0  0
    7.3081   -2.4328   22.5575 C   0  0  0  0  0  0  0  0  0  0  0  0
    6.5163   -3.4127   23.2313 N   0  0  0  0  0  0  0  0  0  0  0  0
    6.2253   -4.7200   22.6063 C   0  0  0  0  0  0  0  0  0  0  0  0
    7.1343   -5.3456   22.5466 H   0  0  0  0  0  0  0  0  0  0  0  0
    5.9052   -4.5571   21.5687 H   0  0  0  0  0  0  0  0  0  0  0  0
    5.1445   -5.5324   23.3402 C   0  0  0  0  0  0  0  0  0  0  0  0
    4.6141   -6.7052   22.7677 C   0  0  0  0  0  0  0  0  0  0  0  0
    4.9657   -7.0497   21.7945 H   0  0  0  0  0  0  0  0  0  0  0  0
    3.6385   -7.4546   23.4398 C   0  0  0  0  0  0  0  0  0  0  0  0
    3.1898   -8.3360   22.9852 H   0  0  0  0  0  0  0  0  0  0  0  0
    3.2156   -7.0682   24.7154 C   0  0  0  0  0  0  0  0  0  0  0  0
    2.4735   -7.6571   25.2544 H   0  0  0  0  0  0  0  0  0  0  0  0
    3.7518   -5.9208   25.3062 C   0  0  0  0  0  0  0  0  0  0  0  0
    3.4270   -5.6244   26.3065 H   0  0  0  0  0  0  0  0  0  0  0  0
    4.6973   -5.1412   24.6212 C   0  0  0  0  0  0  0  0  0  0  0  0
    5.2068   -3.8435   25.2150 C   0  0  0  0  0  0  0  0  0  0  0  0
    5.2152   -3.8924   26.3084 H   0  0  0  0  0  0  0  0  0  0  0  0
    4.5248   -3.0375   24.9107 H   0  0  0  0  0  0  0  0  0  0  0  0
    6.5928   -3.4957   24.6895 C   0  0  0  0  0  0  0  0  0  0  0  0
    7.3389   -4.2449   24.9980 H   0  0  0  0  0  0  0  0  0  0  0  0
    6.9277   -2.5396   25.0962 H   0  0  0  0  0  0  0  0  0  0  0  0
    8.7063   -2.0359   22.9778 C   0  0  0  0  0  0  0  0  0  0  0  0
    9.3864   -2.4944   23.8712 O   0  0  0  0  0  0  0  0  0  0  0  0
    9.2612   -1.0185   22.2358 N   0  0  0  0  0  0  0  0  0  0  0  0
   10.1826   -0.7392   22.5113 H   0  0  0  0  0  0  0  0  0  0  0  0
    8.7361   -0.2929   21.2190 C   0  0  0  0  0  0  0  0  0  0  0  0
    9.3830    0.5896   20.6980 O   0  0  0  0  0  0  0  0  0  0  0  0
    5.4963    0.6437   20.0938 C   0  0  0  0  0  0  0  0  0  0  0  0
    5.0900    0.6082   21.1065 H   0  0  0  0  0  0  0  0  0  0  0  0
    4.8292    1.3196   19.0664 C   0  0  0  0  0  0  0  0  0  0  0  0
    3.8933    1.8375   19.2477 H   0  0  0  0  0  0  0  0  0  0  0  0
  1  2  1  0
  2  3  2  0
  3  4  1  0
  4  5  1  0
  4  6  2  0
  6  7  1  0
  7  8  1  0
  8  9  1  0
  8 10  2  0
 10 11  1  0
 11 12  1  0
 12 13  1  0
 12 14  1  0
 12 15  1  0
 15 16  2  0
 16 17  1  0
 16 18  1  0
 18 19  1  0
 18 20  2  0
 20 21  1  0
 20 22  1  0
 22 23  1  0
 22 24  2  0
 24 25  1  0
 25 26  1  0
 25 27  1  0
 25 28  1  0
 28 29  1  0
 28 30  1  0
 10 31  1  0
 31 32  2  0
 31 33  1  0
 33 34  1  0
 33 35  1  0
 35 36  2  0
  6 37  1  0
 37 38  1  0
 37 39  2  0
 39 40  1  0
 39  2  1  0
 35  7  1  0
 28 11  1  0
 24 15  1  0
M  END
>  <cnnaffinity>  (1) 
-5.49803

>  <filename>  (1) 
O=c1[nH]c(=O)n(-c2cccnc2)cc1N1CCc2ccccc2C1

$$$$
