
     RDKit          3D

 29 31  0  0  0  0  0  0  0  0999 V2000
    4.9952    1.9417   16.9779 H   0  0  0  0  0  0  0  0  0  0  0  0
    5.5131    1.3670   17.7402 C   0  0  0  0  0  0  0  0  0  0  0  0
    6.7262    0.8469   17.4613 N   0  0  0  0  0  0  0  0  0  0  0  0
    7.3491    0.1405   18.4290 C   0  0  0  0  0  0  0  0  0  0  0  0
    8.3293   -0.2827   18.2206 H   0  0  0  0  0  0  0  0  0  0  0  0
    6.7710   -0.1050   19.6921 C   0  0  0  0  0  0  0  0  0  0  0  0
    7.4316   -0.8846   20.6550 N   0  0  0  0  0  0  0  0  0  0  0  0
    6.8481   -1.7548   21.5712 C   0  0  0  0  0  0  0  0  0  0  0  0
    5.6987   -2.1999   21.5329 O   0  0  0  0  0  0  0  0  0  0  0  0
    7.8902   -2.0985   22.5435 C   0  0  0  0  0  0  0  0  0  0  0  0
    7.6714   -3.0091   23.6868 C   0  0  0  0  0  0  0  0  0  0  0  0
    6.4516   -3.6932   23.7671 C   0  0  0  0  0  0  0  0  0  0  0  0
    5.6999   -3.5464   23.0036 H   0  0  0  0  0  0  0  0  0  0  0  0
    6.1835   -4.5888   24.8057 C   0  0  0  0  0  0  0  0  0  0  0  0
    5.2309   -5.1029   24.8569 H   0  0  0  0  0  0  0  0  0  0  0  0
    7.1466   -4.8289   25.7822 C   0  0  0  0  0  0  0  0  0  0  0  0
    6.9502   -5.5281   26.5900 H   0  0  0  0  0  0  0  0  0  0  0  0
    8.3666   -4.1572   25.7336 C   0  0  0  0  0  0  0  0  0  0  0  0
    9.6567   -4.4543   27.1124 Br  0  0  0  0  0  0  0  0  0  0  0  0
    8.6252   -3.2514   24.6926 C   0  0  0  0  0  0  0  0  0  0  0  0
    9.5765   -2.7362   24.6959 H   0  0  0  0  0  0  0  0  0  0  0  0
    9.0396   -1.4168   22.1858 C   0  0  0  0  0  0  0  0  0  0  0  0
    9.9676   -1.3970   22.7590 H   0  0  0  0  0  0  0  0  0  0  0  0
    8.8118   -0.7378   20.9814 N   0  0  0  0  0  0  0  0  0  0  0  0
    9.3138    0.1301   20.7724 H   0  0  0  0  0  0  0  0  0  0  0  0
    5.5162    0.4391   19.9760 C   0  0  0  0  0  0  0  0  0  0  0  0
    5.0642    0.2779   20.9554 H   0  0  0  0  0  0  0  0  0  0  0  0
    4.8889    1.1976   18.9839 C   0  0  0  0  0  0  0  0  0  0  0  0
    3.9275    1.6665   19.1660 H   0  0  0  0  0  0  0  0  0  0  0  0
  1  2  1  0
  2  3  2  0
  3  4  1  0
  4  5  1  0
  4  6  2  0
  6  7  1  0
  7  8  1  0
  8  9  2  0
  8 10  1  0
 10 11  1  0
 11 12  2  0
 12 13  1  0
 12 14  1  0
 14 15  1  0
 14 16  2  0
 16 17  1  0
 16 18  1  0
 18 19  1  0
 18 20  2  0
 20 21  1  0
 10 22  2  0
 22 23  1  0
 22 24  1  0
 24 25  1  0
  6 26  1  0
 26 27  1  0
 26 28  2  0
 28 29  1  0
 28  2  1  0
 24  7  1  0
 20 11  1  0
M  END
>  <cnnaffinity>  (1) 
-5.11218

>  <filename>  (1) 
O=c1c(-c2cccc(Br)c2)c[nH]n1-c1cccnc1

$$$$
