
     RDKit          3D

 31 33  0  0  0  0  0  0  0  0999 V2000
    4.9560    1.8003   16.9975 H   0  0  0  0  0  0  0  0  0  0  0  0
    5.4193    1.3090   17.8518 C   0  0  0  0  0  0  0  0  0  0  0  0
    6.5966    0.7023   17.6321 N   0  0  0  0  0  0  0  0  0  0  0  0
    7.1786    0.0585   18.6523 C   0  0  0  0  0  0  0  0  0  0  0  0
    8.1407   -0.4092   18.4469 H   0  0  0  0  0  0  0  0  0  0  0  0
    6.6147   -0.0116   19.9479 C   0  0  0  0  0  0  0  0  0  0  0  0
    7.2153   -0.7091   21.0501 N   0  0  0  0  0  0  0  0  0  0  0  0
    7.7340   -0.2156   22.2562 C   0  0  0  0  0  0  0  0  0  0  0  0
    7.4592    1.1391   22.8061 C   0  0  0  0  0  0  0  0  0  0  0  0
    7.6424    2.3053   22.0426 C   0  0  0  0  0  0  0  0  0  0  0  0
    7.9668    2.2284   21.0069 H   0  0  0  0  0  0  0  0  0  0  0  0
    7.3855    3.5565   22.6006 C   0  0  0  0  0  0  0  0  0  0  0  0
    7.5383    4.4514   22.0104 H   0  0  0  0  0  0  0  0  0  0  0  0
    6.9304    3.6716   23.9152 C   0  0  0  0  0  0  0  0  0  0  0  0
    6.7237    4.6551   24.3294 H   0  0  0  0  0  0  0  0  0  0  0  0
    6.7214    2.5153   24.6827 C   0  0  0  0  0  0  0  0  0  0  0  0
    6.2811    2.6204   26.1323 C   0  0  0  0  0  0  0  0  0  0  0  0
    5.5121    1.5784   26.5058 F   0  0  0  0  0  0  0  0  0  0  0  0
    5.5688    3.7383   26.3719 F   0  0  0  0  0  0  0  0  0  0  0  0
    7.3335    2.6447   26.9748 F   0  0  0  0  0  0  0  0  0  0  0  0
    6.9807    1.2543   24.1269 C   0  0  0  0  0  0  0  0  0  0  0  0
    6.8021    0.3470   24.7057 H   0  0  0  0  0  0  0  0  0  0  0  0
    8.3760   -1.1375   22.9088 N   0  0  0  0  0  0  0  0  0  0  0  0
    8.2382   -2.2649   22.1340 N   0  0  0  0  0  0  0  0  0  0  0  0
    8.3763   -3.1888   22.5115 H   0  0  0  0  0  0  0  0  0  0  0  0
    7.3368   -2.1119   21.1180 C   0  0  0  0  0  0  0  0  0  0  0  0
    6.7749   -2.9677   20.4754 O   0  0  0  0  0  0  0  0  0  0  0  0
    5.4053    0.6455   20.1624 C   0  0  0  0  0  0  0  0  0  0  0  0
    5.0208    0.6636   21.1804 H   0  0  0  0  0  0  0  0  0  0  0  0
    4.7921    1.3114   19.0989 C   0  0  0  0  0  0  0  0  0  0  0  0
    3.8534    1.8322   19.2344 H   0  0  0  0  0  0  0  0  0  0  0  0
  1  2  1  0
  2  3  2  0
  3  4  1  0
  4  5  1  0
  4  6  2  0
  6  7  1  0
  7  8  1  0
  8  9  1  0
  9 10  2  0
 10 11  1  0
 10 12  1  0
 12 13  1  0
 12 14  2  0
 14 15  1  0
 14 16  1  0
 16 17  1  0
 17 18  1  0
 17 19  1  0
 17 20  1  0
 16 21  2  0
 21 22  1  0
  8 23  2  0
 23 24  1  0
 24 25  1  0
 24 26  1  0
 26 27  2  0
  6 28  1  0
 28 29  1  0
 28 30  2  0
 30 31  1  0
 30  2  1  0
 26  7  1  0
 21  9  1  0
M  END
>  <cnnaffinity>  (1) 
-5.04851

>  <filename>  (1) 
O=c1[nH]nc(-c2cccc(C(F)(F)F)c2)n1-c1cccnc1

$$$$
