
     RDKit          3D

 29 31  0  0  0  0  0  0  0  0999 V2000
    4.9196    1.7958   16.9752 H   0  0  0  0  0  0  0  0  0  0  0  0
    5.3938    1.3009   17.8203 C   0  0  0  0  0  0  0  0  0  0  0  0
    6.5585    0.6839   17.5634 N   0  0  0  0  0  0  0  0  0  0  0  0
    7.1718    0.0727   18.5851 C   0  0  0  0  0  0  0  0  0  0  0  0
    8.1093   -0.4237   18.3366 H   0  0  0  0  0  0  0  0  0  0  0  0
    6.6641    0.0217   19.8974 C   0  0  0  0  0  0  0  0  0  0  0  0
    7.3371   -0.7008   20.9844 C   0  0  0  0  0  0  0  0  0  0  0  0
    6.8197   -1.2317   22.1068 C   0  0  0  0  0  0  0  0  0  0  0  0
    5.7928   -1.2916   22.3869 H   0  0  0  0  0  0  0  0  0  0  0  0
    7.8302   -1.8070   22.8642 N   0  0  0  0  0  0  0  0  0  0  0  0
    7.6582   -2.4684   24.1090 C   0  0  0  0  0  0  0  0  0  0  0  0
    8.4445   -3.5834   24.4181 C   0  0  0  0  0  0  0  0  0  0  0  0
    9.1879   -3.9128   23.7015 H   0  0  0  0  0  0  0  0  0  0  0  0
    8.2856   -4.2268   25.6447 C   0  0  0  0  0  0  0  0  0  0  0  0
    8.8978   -5.0803   25.9115 H   0  0  0  0  0  0  0  0  0  0  0  0
    7.3358   -3.7592   26.5542 C   0  0  0  0  0  0  0  0  0  0  0  0
    7.1448   -4.5967   28.0674 Cl  0  0  0  0  0  0  0  0  0  0  0  0
    6.5391   -2.6517   26.2551 C   0  0  0  0  0  0  0  0  0  0  0  0
    5.8015   -2.3104   26.9746 H   0  0  0  0  0  0  0  0  0  0  0  0
    6.6987   -2.0094   25.0239 C   0  0  0  0  0  0  0  0  0  0  0  0
    6.0843   -1.1467   24.7794 H   0  0  0  0  0  0  0  0  0  0  0  0
    9.0407   -1.6374   22.1823 C   0  0  0  0  0  0  0  0  0  0  0  0
   10.1713   -1.9631   22.4745 O   0  0  0  0  0  0  0  0  0  0  0  0
    8.6900   -0.9820   21.0273 N   0  0  0  0  0  0  0  0  0  0  0  0
    9.4251   -0.6850   20.4174 H   0  0  0  0  0  0  0  0  0  0  0  0
    5.4351    0.6636   20.1374 C   0  0  0  0  0  0  0  0  0  0  0  0
    5.0046    0.6559   21.1419 H   0  0  0  0  0  0  0  0  0  0  0  0
    4.7983    1.3199   19.0859 C   0  0  0  0  0  0  0  0  0  0  0  0
    3.8655    1.8500   19.2382 H   0  0  0  0  0  0  0  0  0  0  0  0
  1  2  1  0
  2  3  2  0
  3  4  1  0
  4  5  1  0
  4  6  2  0
  6  7  1  0
  7  8  2  0
  8  9  1  0
  8 10  1  0
 10 11  1  0
 11 12  2  0
 12 13  1  0
 12 14  1  0
 14 15  1  0
 14 16  2  0
 16 17  1  0
 16 18  1  0
 18 19  1  0
 18 20  2  0
 20 21  1  0
 10 22  1  0
 22 23  2  0
 22 24  1  0
 24 25  1  0
  6 26  1  0
 26 27  1  0
 26 28  2  0
 28 29  1  0
 28  2  1  0
 24  7  1  0
 20 11  1  0
M  END
>  <cnnaffinity>  (1) 
-5.32643

>  <filename>  (1) 
O=c1[nH]c(-c2cccnc2)cn1-c1ccc(Cl)cc1

$$$$
