
     RDKit          3D

 31 33  0  0  0  0  0  0  0  0999 V2000
    4.9361    1.8363   17.0007 H   0  0  0  0  0  0  0  0  0  0  0  0
    5.4417    1.3012   17.8016 C   0  0  0  0  0  0  0  0  0  0  0  0
    6.6251    0.7111   17.5535 N   0  0  0  0  0  0  0  0  0  0  0  0
    7.2502    0.0808   18.5697 C   0  0  0  0  0  0  0  0  0  0  0  0
    8.2030   -0.3898   18.3506 H   0  0  0  0  0  0  0  0  0  0  0  0
    6.7257   -0.0072   19.8759 C   0  0  0  0  0  0  0  0  0  0  0  0
    7.4363   -0.6850   20.9841 C   0  0  0  0  0  0  0  0  0  0  0  0
    6.6842   -1.5348   21.9161 C   0  0  0  0  0  0  0  0  0  0  0  0
    5.6229   -1.6976   21.7538 H   0  0  0  0  0  0  0  0  0  0  0  0
    7.3382   -2.1769   22.9485 C   0  0  0  0  0  0  0  0  0  0  0  0
    6.8307   -2.8627   23.6148 H   0  0  0  0  0  0  0  0  0  0  0  0
    8.7611   -1.9622   23.1580 C   0  0  0  0  0  0  0  0  0  0  0  0
    9.3255   -2.6104   24.0353 O   0  0  0  0  0  0  0  0  0  0  0  0
    9.4474   -1.0827   22.3247 N   0  0  0  0  0  0  0  0  0  0  0  0
   10.8180   -0.8729   22.5218 C   0  0  0  0  0  0  0  0  0  0  0  0
   11.3454   -0.1892   23.6364 C   0  0  0  0  0  0  0  0  0  0  0  0
   10.6994    0.1482   24.4455 H   0  0  0  0  0  0  0  0  0  0  0  0
   12.7325    0.0363   23.7273 C   0  0  0  0  0  0  0  0  0  0  0  0
   13.1472    0.5493   24.5900 H   0  0  0  0  0  0  0  0  0  0  0  0
   13.6006   -0.4777   22.7508 C   0  0  0  0  0  0  0  0  0  0  0  0
   14.6737   -0.3205   22.8266 H   0  0  0  0  0  0  0  0  0  0  0  0
   13.0817   -1.2423   21.7005 C   0  0  0  0  0  0  0  0  0  0  0  0
   14.2122   -2.0528   20.3915 Br  0  0  0  0  0  0  0  0  0  0  0  0
   11.7042   -1.4218   21.5958 C   0  0  0  0  0  0  0  0  0  0  0  0
   11.3188   -2.0206   20.7845 H   0  0  0  0  0  0  0  0  0  0  0  0
    8.8011   -0.5292   21.1896 C   0  0  0  0  0  0  0  0  0  0  0  0
    9.3742    0.0712   20.4835 H   0  0  0  0  0  0  0  0  0  0  0  0
    5.4863    0.5940   20.1171 C   0  0  0  0  0  0  0  0  0  0  0  0
    5.0411    0.5714   21.1103 H   0  0  0  0  0  0  0  0  0  0  0  0
    4.8510    1.2571   19.0664 C   0  0  0  0  0  0  0  0  0  0  0  0
    3.9093    1.7675   19.2203 H   0  0  0  0  0  0  0  0  0  0  0  0
  1  2  1  0
  2  3  2  0
  3  4  1  0
  4  5  1  0
  4  6  2  0
  6  7  1  0
  7  8  1  0
  8  9  1  0
  8 10  2  0
 10 11  1  0
 10 12  1  0
 12 13  2  0
 12 14  1  0
 14 15  1  0
 15 16  2  0
 16 17  1  0
 16 18  1  0
 18 19  1  0
 18 20  2  0
 20 21  1  0
 20 22  1  0
 22 23  1  0
 22 24  2  0
 24 25  1  0
 14 26  1  0
 26 27  1  0
  6 28  1  0
 28 29  1  0
 28 30  2  0
 30 31  1  0
 30  2  1  0
 26  7  2  0
 24 15  1  0
M  END
>  <cnnaffinity>  (1) 
-5.62994

>  <filename>  (1) 
O=c1ccc(-c2cccnc2)cn1-c1cccc(Br)c1

$$$$
