
     RDKit          3D

 32 34  0  0  0  0  0  0  0  0999 V2000
    4.9399    1.7700   17.0101 H   0  0  0  0  0  0  0  0  0  0  0  0
    5.4129    1.2761   17.8570 C   0  0  0  0  0  0  0  0  0  0  0  0
    6.5730    0.6537   17.6092 N   0  0  0  0  0  0  0  0  0  0  0  0
    7.1885    0.0496   18.6297 C   0  0  0  0  0  0  0  0  0  0  0  0
    8.1367   -0.4256   18.3847 H   0  0  0  0  0  0  0  0  0  0  0  0
    6.6683    0.0001   19.9305 C   0  0  0  0  0  0  0  0  0  0  0  0
    7.4278   -0.7169   20.9830 C   0  0  0  0  0  0  0  0  0  0  0  0
    8.7326   -0.7008   20.8898 N   0  0  0  0  0  0  0  0  0  0  0  0
    9.4571   -1.3213   21.8670 C   0  0  0  0  0  0  0  0  0  0  0  0
   10.6650   -1.3625   21.9463 O   0  0  0  0  0  0  0  0  0  0  0  0
    8.7719   -1.9948   22.8733 N   0  0  0  0  0  0  0  0  0  0  0  0
    9.3699   -2.3913   23.5666 H   0  0  0  0  0  0  0  0  0  0  0  0
    7.4438   -2.0350   22.9578 C   0  0  0  0  0  0  0  0  0  0  0  0
    6.9056   -2.7043   24.0103 N   0  0  0  0  0  0  0  0  0  0  0  0
    5.9771   -2.3864   24.2218 H   0  0  0  0  0  0  0  0  0  0  0  0
    7.3282   -3.8976   24.6457 C   0  0  0  0  0  0  0  0  0  0  0  0
    6.9415   -4.1509   25.9735 C   0  0  0  0  0  0  0  0  0  0  0  0
    6.3104   -3.4351   26.4945 H   0  0  0  0  0  0  0  0  0  0  0  0
    7.4056   -5.2980   26.6297 C   0  0  0  0  0  0  0  0  0  0  0  0
    7.1308   -5.4833   27.6658 H   0  0  0  0  0  0  0  0  0  0  0  0
    8.2296   -6.2088   25.9606 C   0  0  0  0  0  0  0  0  0  0  0  0
    8.6118   -7.0842   26.4709 H   0  0  0  0  0  0  0  0  0  0  0  0
    8.5700   -5.9823   24.6254 C   0  0  0  0  0  0  0  0  0  0  0  0
    9.2036   -6.6825   24.0891 H   0  0  0  0  0  0  0  0  0  0  0  0
    8.1153   -4.8404   23.9661 C   0  0  0  0  0  0  0  0  0  0  0  0
    8.3558   -4.6600   22.9239 H   0  0  0  0  0  0  0  0  0  0  0  0
    6.7194   -1.3811   22.0074 C   0  0  0  0  0  0  0  0  0  0  0  0
    5.6512   -1.4583   21.9775 H   0  0  0  0  0  0  0  0  0  0  0  0
    5.4443    0.6441   20.1737 C   0  0  0  0  0  0  0  0  0  0  0  0
    4.9988    0.6499   21.1706 H   0  0  0  0  0  0  0  0  0  0  0  0
    4.8174    1.3016   19.1198 C   0  0  0  0  0  0  0  0  0  0  0  0
    3.8873    1.8330   19.2609 H   0  0  0  0  0  0  0  0  0  0  0  0
  1  2  1  0
  2  3  2  0
  3  4  1  0
  4  5  1  0
  4  6  2  0
  6  7  1  0
  7  8  2  0
  8  9  1  0
  9 10  2  0
  9 11  1  0
 11 12  1  0
 11 13  1  0
 13 14  1  0
 14 15  1  0
 14 16  1  0
 16 17  2  0
 17 18  1  0
 17 19  1  0
 19 20  1  0
 19 21  2  0
 21 22  1  0
 21 23  1  0
 23 24  1  0
 23 25  2  0
 25 26  1  0
 13 27  2  0
 27 28  1  0
  6 29  1  0
 29 30  1  0
 29 31  2  0
 31 32  1  0
 31  2  1  0
 27  7  1  0
 25 16  1  0
M  END
>  <cnnaffinity>  (1) 
-5.10596

>  <filename>  (1) 
O=c1nc(-c2cccnc2)cc(Nc2ccccc2)[nH]1

$$$$
