
     RDKit          3D

 32 34  0  0  0  0  0  0  0  0999 V2000
    4.9021    1.7845   16.9557 H   0  0  0  0  0  0  0  0  0  0  0  0
    5.3606    1.3331   17.8328 C   0  0  0  0  0  0  0  0  0  0  0  0
    6.5355    0.7204   17.6234 N   0  0  0  0  0  0  0  0  0  0  0  0
    7.1247    0.1718   18.6854 C   0  0  0  0  0  0  0  0  0  0  0  0
    8.0765   -0.3166   18.4892 H   0  0  0  0  0  0  0  0  0  0  0  0
    6.6101    0.2124   19.9934 C   0  0  0  0  0  0  0  0  0  0  0  0
    7.3767   -0.4705   21.0535 C   0  0  0  0  0  0  0  0  0  0  0  0
    7.1027   -0.0544   22.3272 O   0  0  0  0  0  0  0  0  0  0  0  0
    7.7628   -0.6406   23.3874 C   0  0  0  0  0  0  0  0  0  0  0  0
    7.5304    0.0298   24.7175 C   0  0  0  0  0  0  0  0  0  0  0  0
    6.4760    0.8453   24.8137 N   0  0  0  0  0  0  0  0  0  0  0  0
    6.2016    1.4136   25.9883 C   0  0  0  0  0  0  0  0  0  0  0  0
    4.9682    2.3359   26.0429 C   0  0  0  0  0  0  0  0  0  0  0  0
    5.3220    3.5898   26.3923 F   0  0  0  0  0  0  0  0  0  0  0  0
    4.0935    1.9218   26.9828 F   0  0  0  0  0  0  0  0  0  0  0  0
    4.3068    2.4098   24.8858 F   0  0  0  0  0  0  0  0  0  0  0  0
    6.9881    1.2049   27.1345 C   0  0  0  0  0  0  0  0  0  0  0  0
    6.7467    1.6809   28.0750 H   0  0  0  0  0  0  0  0  0  0  0  0
    8.1000    0.3646   27.0360 C   0  0  0  0  0  0  0  0  0  0  0  0
    8.7437    0.1755   27.8972 H   0  0  0  0  0  0  0  0  0  0  0  0
    8.3806   -0.2361   25.8123 C   0  0  0  0  0  0  0  0  0  0  0  0
    9.2429   -0.8838   25.6976 H   0  0  0  0  0  0  0  0  0  0  0  0
    8.4756   -1.7760   23.2175 C   0  0  0  0  0  0  0  0  0  0  0  0
    8.9274   -2.3185   24.0354 H   0  0  0  0  0  0  0  0  0  0  0  0
    8.6022   -2.3831   21.8943 C   0  0  0  0  0  0  0  0  0  0  0  0
    8.9672   -3.5365   21.7291 O   0  0  0  0  0  0  0  0  0  0  0  0
    8.2009   -1.5042   20.8146 C   0  0  0  0  0  0  0  0  0  0  0  0
    8.4915   -1.7870   19.8245 H   0  0  0  0  0  0  0  0  0  0  0  0
    5.3646    0.8316   20.1966 C   0  0  0  0  0  0  0  0  0  0  0  0
    4.9144    0.8542   21.1915 H   0  0  0  0  0  0  0  0  0  0  0  0
    4.7363    1.3958   19.0849 C   0  0  0  0  0  0  0  0  0  0  0  0
    3.7736    1.8857   19.1658 H   0  0  0  0  0  0  0  0  0  0  0  0
  1  2  1  0
  2  3  2  0
  3  4  1  0
  4  5  1  0
  4  6  2  0
  6  7  1  0
  7  8  1  0
  8  9  1  0
  9 10  1  0
 10 11  2  0
 11 12  1  0
 12 13  1  0
 13 14  1  0
 13 15  1  0
 13 16  1  0
 12 17  2  0
 17 18  1  0
 17 19  1  0
 19 20  1  0
 19 21  2  0
 21 22  1  0
  9 23  2  0
 23 24  1  0
 23 25  1  0
 25 26  2  0
 25 27  1  0
 27 28  1  0
  6 29  1  0
 29 30  1  0
 29 31  2  0
 31 32  1  0
 31  2  1  0
 27  7  2  0
 21 10  1  0
M  END
>  <cnnaffinity>  (1) 
-5.53517

>  <filename>  (1) 
O=c1cc(-c2cccnc2)oc(-c2cccc(C(F)(F)F)n2)c1

$$$$
