
     RDKit          3D

 31 33  0  0  0  0  0  0  0  0999 V2000
    4.9412    1.7944   16.9951 H   0  0  0  0  0  0  0  0  0  0  0  0
    5.4163    1.3114   17.8515 C   0  0  0  0  0  0  0  0  0  0  0  0
    6.5942    0.7035   17.6249 N   0  0  0  0  0  0  0  0  0  0  0  0
    7.1849    0.0605   18.6418 C   0  0  0  0  0  0  0  0  0  0  0  0
    8.1453   -0.4126   18.4321 H   0  0  0  0  0  0  0  0  0  0  0  0
    6.6274   -0.0086   19.9413 C   0  0  0  0  0  0  0  0  0  0  0  0
    7.2301   -0.7056   21.0439 N   0  0  0  0  0  0  0  0  0  0  0  0
    7.7516   -0.2275   22.2574 C   0  0  0  0  0  0  0  0  0  0  0  0
    7.4596    1.1141   22.8242 C   0  0  0  0  0  0  0  0  0  0  0  0
    6.9908    1.2451   24.1481 C   0  0  0  0  0  0  0  0  0  0  0  0
    6.8271    0.3620   24.7624 H   0  0  0  0  0  0  0  0  0  0  0  0
    6.7201    2.5031   24.6824 C   0  0  0  0  0  0  0  0  0  0  0  0
    6.3429    2.5775   25.6996 H   0  0  0  0  0  0  0  0  0  0  0  0
    6.9143    3.6623   23.9133 C   0  0  0  0  0  0  0  0  0  0  0  0
    6.7094    5.0345   24.5245 C   0  0  0  0  0  0  0  0  0  0  0  0
    6.3355    5.9507   23.6108 F   0  0  0  0  0  0  0  0  0  0  0  0
    5.7674    5.0369   25.4893 F   0  0  0  0  0  0  0  0  0  0  0  0
    7.8422    5.4952   25.0947 F   0  0  0  0  0  0  0  0  0  0  0  0
    7.3637    3.5353   22.5887 C   0  0  0  0  0  0  0  0  0  0  0  0
    7.4958    4.4156   21.9654 H   0  0  0  0  0  0  0  0  0  0  0  0
    7.6263    2.2776   22.0524 C   0  0  0  0  0  0  0  0  0  0  0  0
    7.9428    2.1921   21.0163 H   0  0  0  0  0  0  0  0  0  0  0  0
    8.4011   -1.1541   22.8943 N   0  0  0  0  0  0  0  0  0  0  0  0
    8.2419   -2.2754   22.1153 N   0  0  0  0  0  0  0  0  0  0  0  0
    8.3838   -3.1994   22.4878 H   0  0  0  0  0  0  0  0  0  0  0  0
    7.3400   -2.1065   21.1038 C   0  0  0  0  0  0  0  0  0  0  0  0
    6.7616   -2.9550   20.4622 O   0  0  0  0  0  0  0  0  0  0  0  0
    5.4205    0.6497   20.1637 C   0  0  0  0  0  0  0  0  0  0  0  0
    5.0346    0.6595   21.1803 H   0  0  0  0  0  0  0  0  0  0  0  0
    4.7989    1.3162   19.1054 C   0  0  0  0  0  0  0  0  0  0  0  0
    3.8511    1.8249   19.2408 H   0  0  0  0  0  0  0  0  0  0  0  0
  1  2  1  0
  2  3  2  0
  3  4  1  0
  4  5  1  0
  4  6  2  0
  6  7  1  0
  7  8  1  0
  8  9  1  0
  9 10  2  0
 10 11  1  0
 10 12  1  0
 12 13  1  0
 12 14  2  0
 14 15  1  0
 15 16  1  0
 15 17  1  0
 15 18  1  0
 14 19  1  0
 19 20  1  0
 19 21  2  0
 21 22  1  0
  8 23  2  0
 23 24  1  0
 24 25  1  0
 24 26  1  0
 26 27  2  0
  6 28  1  0
 28 29  1  0
 28 30  2  0
 30 31  1  0
 30  2  1  0
 26  7  1  0
 21  9  1  0
M  END
>  <cnnaffinity>  (1) 
-4.94096

>  <filename>  (1) 
O=c1[nH]nc(-c2ccc(C(F)(F)F)cc2)n1-c1cccnc1

$$$$
