
     RDKit          3D

 30 32  0  0  0  0  0  0  0  0999 V2000
    4.9745    1.7923   16.9631 H   0  0  0  0  0  0  0  0  0  0  0  0
    5.4270    1.2932   17.8167 C   0  0  0  0  0  0  0  0  0  0  0  0
    6.5980    0.6700   17.5893 N   0  0  0  0  0  0  0  0  0  0  0  0
    7.1772    0.0497   18.6234 C   0  0  0  0  0  0  0  0  0  0  0  0
    8.1439   -0.4226   18.4628 H   0  0  0  0  0  0  0  0  0  0  0  0
    6.6041   -0.0226   19.9043 C   0  0  0  0  0  0  0  0  0  0  0  0
    7.2798   -0.7460   20.9292 N   0  0  0  0  0  0  0  0  0  0  0  0
    8.6454   -0.6229   20.9166 N   0  0  0  0  0  0  0  0  0  0  0  0
    9.3249   -1.1691   21.8855 C   0  0  0  0  0  0  0  0  0  0  0  0
   10.7958   -0.9245   21.8864 C   0  0  0  0  0  0  0  0  0  0  0  0
   11.7051   -1.9881   22.0138 C   0  0  0  0  0  0  0  0  0  0  0  0
   11.3241   -2.9987   22.1274 H   0  0  0  0  0  0  0  0  0  0  0  0
   13.0709   -1.7643   22.1241 C   0  0  0  0  0  0  0  0  0  0  0  0
   13.7912   -2.5741   22.1474 H   0  0  0  0  0  0  0  0  0  0  0  0
   13.5075   -0.4540   22.2555 C   0  0  0  0  0  0  0  0  0  0  0  0
   14.7902   -0.2326   22.5553 F   0  0  0  0  0  0  0  0  0  0  0  0
   12.6632    0.6375   22.1097 C   0  0  0  0  0  0  0  0  0  0  0  0
   13.0379    1.6500   22.1948 H   0  0  0  0  0  0  0  0  0  0  0  0
   11.3228    0.3751   21.8412 C   0  0  0  0  0  0  0  0  0  0  0  0
   10.5300    1.4140   21.5741 F   0  0  0  0  0  0  0  0  0  0  0  0
    8.7021   -2.0471   22.9501 C   0  0  0  0  0  0  0  0  0  0  0  0
    9.3283   -2.6221   23.8324 O   0  0  0  0  0  0  0  0  0  0  0  0
    7.2537   -2.1650   22.8383 C   0  0  0  0  0  0  0  0  0  0  0  0
    6.7485   -2.7615   23.5825 H   0  0  0  0  0  0  0  0  0  0  0  0
    6.6109   -1.5166   21.8559 C   0  0  0  0  0  0  0  0  0  0  0  0
    5.5323   -1.5778   21.7260 H   0  0  0  0  0  0  0  0  0  0  0  0
    5.4029    0.6566   20.1430 C   0  0  0  0  0  0  0  0  0  0  0  0
    4.9902    0.6900   21.1520 H   0  0  0  0  0  0  0  0  0  0  0  0
    4.8034    1.3225   19.0694 C   0  0  0  0  0  0  0  0  0  0  0  0
    3.8711    1.8634   19.1970 H   0  0  0  0  0  0  0  0  0  0  0  0
  1  2  1  0
  2  3  2  0
  3  4  1  0
  4  5  1  0
  4  6  2  0
  6  7  1  0
  7  8  1  0
  8  9  2  0
  9 10  1  0
 10 11  2  0
 11 12  1  0
 11 13  1  0
 13 14  1  0
 13 15  2  0
 15 16  1  0
 15 17  1  0
 17 18  1  0
 17 19  2  0
 19 20  1  0
  9 21  1  0
 21 22  2  0
 21 23  1  0
 23 24  1  0
 23 25  2  0
 25 26  1  0
  6 27  1  0
 27 28  1  0
 27 29  2  0
 29 30  1  0
 29  2  1  0
 25  7  1  0
 19 10  1  0
M  END
>  <cnnaffinity>  (1) 
-5.85845

>  <filename>  (1) 
O=c1ccn(-c2cccnc2)nc1-c1ccc(F)cc1F

$$$$
