
     RDKit          3D

 31 33  0  0  0  0  0  0  0  0999 V2000
    4.9083    1.7786   16.9980 H   0  0  0  0  0  0  0  0  0  0  0  0
    5.3973    1.2964   17.8386 C   0  0  0  0  0  0  0  0  0  0  0  0
    6.5612    0.6793   17.5740 N   0  0  0  0  0  0  0  0  0  0  0  0
    7.1736    0.0592   18.5880 C   0  0  0  0  0  0  0  0  0  0  0  0
    8.1245   -0.4283   18.3810 H   0  0  0  0  0  0  0  0  0  0  0  0
    6.6434   -0.0026   19.8906 C   0  0  0  0  0  0  0  0  0  0  0  0
    7.3398   -0.6922   20.9406 N   0  0  0  0  0  0  0  0  0  0  0  0
    6.7162   -1.7473   21.5801 C   0  0  0  0  0  0  0  0  0  0  0  0
    5.7038   -1.9698   21.2432 H   0  0  0  0  0  0  0  0  0  0  0  0
    7.3269   -2.4541   22.5793 C   0  0  0  0  0  0  0  0  0  0  0  0
    6.6433   -3.5836   23.2517 C   0  0  0  0  0  0  0  0  0  0  0  0
    5.8776   -4.4868   22.4980 C   0  0  0  0  0  0  0  0  0  0  0  0
    5.7956   -4.3922   21.4215 H   0  0  0  0  0  0  0  0  0  0  0  0
    5.2509   -5.5402   23.1517 C   0  0  0  0  0  0  0  0  0  0  0  0
    4.5207   -6.4030   22.4325 F   0  0  0  0  0  0  0  0  0  0  0  0
    5.3418   -5.7304   24.5264 C   0  0  0  0  0  0  0  0  0  0  0  0
    4.8408   -6.5535   25.0170 H   0  0  0  0  0  0  0  0  0  0  0  0
    6.1045   -4.8152   25.2447 C   0  0  0  0  0  0  0  0  0  0  0  0
    6.2111   -4.9750   26.5707 F   0  0  0  0  0  0  0  0  0  0  0  0
    6.7616   -3.7515   24.6408 C   0  0  0  0  0  0  0  0  0  0  0  0
    7.3307   -3.0551   25.2472 H   0  0  0  0  0  0  0  0  0  0  0  0
    8.6494   -2.0676   22.9598 C   0  0  0  0  0  0  0  0  0  0  0  0
    9.1668   -2.6231   23.7415 H   0  0  0  0  0  0  0  0  0  0  0  0
    9.2840   -1.0334   22.3444 C   0  0  0  0  0  0  0  0  0  0  0  0
   10.2777   -0.7052   22.5990 H   0  0  0  0  0  0  0  0  0  0  0  0
    8.6654   -0.2565   21.2885 C   0  0  0  0  0  0  0  0  0  0  0  0
    9.2079    0.6773   20.7230 O   0  0  0  0  0  0  0  0  0  0  0  0
    5.4344    0.6460   20.1553 C   0  0  0  0  0  0  0  0  0  0  0  0
    5.0206    0.6243   21.1662 H   0  0  0  0  0  0  0  0  0  0  0  0
    4.8018    1.3187   19.1057 C   0  0  0  0  0  0  0  0  0  0  0  0
    3.8679    1.8487   19.2640 H   0  0  0  0  0  0  0  0  0  0  0  0
  1  2  1  0
  2  3  2  0
  3  4  1  0
  4  5  1  0
  4  6  2  0
  6  7  1  0
  7  8  1  0
  8  9  1  0
  8 10  2  0
 10 11  1  0
 11 12  2  0
 12 13  1  0
 12 14  1  0
 14 15  1  0
 14 16  2  0
 16 17  1  0
 16 18  1  0
 18 19  1  0
 18 20  2  0
 20 21  1  0
 10 22  1  0
 22 23  1  0
 22 24  2  0
 24 25  1  0
 24 26  1  0
 26 27  2  0
  6 28  1  0
 28 29  1  0
 28 30  2  0
 30 31  1  0
 30  2  1  0
 26  7  1  0
 20 11  1  0
M  END
>  <cnnaffinity>  (1) 
-5.52458

>  <filename>  (1) 
O=c1ccc(-c2cc(F)cc(F)c2)cn1-c1cccnc1

$$$$
