
     RDKit          3D

 32 34  0  0  0  0  0  0  0  0999 V2000
    5.0712    1.7720   16.9385 H   0  0  0  0  0  0  0  0  0  0  0  0
    5.4779    1.2905   17.8244 C   0  0  0  0  0  0  0  0  0  0  0  0
    6.6294    0.6229   17.6482 N   0  0  0  0  0  0  0  0  0  0  0  0
    7.1530    0.0259   18.7197 C   0  0  0  0  0  0  0  0  0  0  0  0
    8.0753   -0.5329   18.5631 H   0  0  0  0  0  0  0  0  0  0  0  0
    6.6045    0.0691   20.0170 C   0  0  0  0  0  0  0  0  0  0  0  0
    7.2934   -0.6028   21.1200 C   0  0  0  0  0  0  0  0  0  0  0  0
    7.4262   -0.2286   22.4115 C   0  0  0  0  0  0  0  0  0  0  0  0
    7.1978    1.0598   23.1725 C   0  0  0  0  0  0  0  0  0  0  0  0
    6.5894    0.8344   24.0565 H   0  0  0  0  0  0  0  0  0  0  0  0
    6.6493    1.8040   22.5807 H   0  0  0  0  0  0  0  0  0  0  0  0
    8.5161    1.6604   23.6485 C   0  0  0  0  0  0  0  0  0  0  0  0
    8.9352    1.5051   24.9791 C   0  0  0  0  0  0  0  0  0  0  0  0
    8.2625    1.0558   25.7059 H   0  0  0  0  0  0  0  0  0  0  0  0
   10.2205    1.8709   25.3790 C   0  0  0  0  0  0  0  0  0  0  0  0
   10.5348    1.6883   26.3973 H   0  0  0  0  0  0  0  0  0  0  0  0
   11.1067    2.4472   24.4688 C   0  0  0  0  0  0  0  0  0  0  0  0
   12.1035    2.7362   24.7864 H   0  0  0  0  0  0  0  0  0  0  0  0
   10.7013    2.6637   23.1517 C   0  0  0  0  0  0  0  0  0  0  0  0
   11.3649    3.1265   22.4305 H   0  0  0  0  0  0  0  0  0  0  0  0
    9.4223    2.2573   22.7527 C   0  0  0  0  0  0  0  0  0  0  0  0
    8.9884    2.4680   21.0750 Cl  0  0  0  0  0  0  0  0  0  0  0  0
    8.0691   -1.3513   23.1357 C   0  0  0  0  0  0  0  0  0  0  0  0
    8.3077   -1.4540   24.3090 O   0  0  0  0  0  0  0  0  0  0  0  0
    8.3694   -2.3361   22.2382 O   0  0  0  0  0  0  0  0  0  0  0  0
    7.9866   -1.9320   20.9356 C   0  0  0  0  0  0  0  0  0  0  0  0
    7.3250   -2.6931   20.4973 H   0  0  0  0  0  0  0  0  0  0  0  0
    8.8867   -1.8558   20.3062 H   0  0  0  0  0  0  0  0  0  0  0  0
    5.3809    0.7480   20.1700 C   0  0  0  0  0  0  0  0  0  0  0  0
    4.8786    0.7776   21.1404 H   0  0  0  0  0  0  0  0  0  0  0  0
    4.8112    1.3633   19.0541 C   0  0  0  0  0  0  0  0  0  0  0  0
    3.8728    1.9050   19.1189 H   0  0  0  0  0  0  0  0  0  0  0  0
  1  2  1  0
  2  3  2  0
  3  4  1  0
  4  5  1  0
  4  6  2  0
  6  7  1  0
  7  8  2  0
  8  9  1  0
  9 10  1  0
  9 11  1  0
  9 12  1  0
 12 13  2  0
 13 14  1  0
 13 15  1  0
 15 16  1  0
 15 17  2  0
 17 18  1  0
 17 19  1  0
 19 20  1  0
 19 21  2  0
 21 22  1  0
  8 23  1  0
 23 24  2  0
 23 25  1  0
 25 26  1  0
 26 27  1  0
 26 28  1  0
  6 29  1  0
 29 30  1  0
 29 31  2  0
 31 32  1  0
 31  2  1  0
 26  7  1  0
 21 12  1  0
M  END
>  <cnnaffinity>  (1) 
-5.21536

>  <filename>  (1) 
O=C1OCC(c2cccnc2)=C1Cc1ccccc1Cl

$$$$
