
     RDKit          3D

 41 44  0  0  0  0  0  0  0  0999 V2000
    7.8079    4.5853   28.7077 H   0  0  0  0  0  0  0  0  0  0  0  0
    7.6599    4.9047   27.6757 C   0  0  0  0  0  0  0  0  0  0  0  0
    7.3986    3.9280   26.8072 N   0  0  0  0  0  0  0  0  0  0  0  0
    7.2103    4.2757   25.5258 C   0  0  0  0  0  0  0  0  0  0  0  0
    6.9818    3.2532   24.6374 N   0  0  0  0  0  0  0  0  0  0  0  0
    6.8021    1.8627   25.1045 C   0  0  0  0  0  0  0  0  0  0  0  0
    7.7722    1.3841   25.2957 H   0  0  0  0  0  0  0  0  0  0  0  0
    6.2417    1.8414   26.0422 H   0  0  0  0  0  0  0  0  0  0  0  0
    6.0445    1.0274   24.0605 C   0  0  0  0  0  0  0  0  0  0  0  0
    5.9630   -0.0100   24.4025 H   0  0  0  0  0  0  0  0  0  0  0  0
    5.0314    1.4337   23.9426 H   0  0  0  0  0  0  0  0  0  0  0  0
    6.6953    1.0344   22.7322 N   0  0  0  0  0  0  0  0  0  0  0  0
    7.3087   -0.1681   22.3746 N   0  0  0  0  0  0  0  0  0  0  0  0
    7.3600   -0.6431   21.0421 C   0  0  0  0  0  0  0  0  0  0  0  0
    6.6510    0.0244   19.9347 C   0  0  0  0  0  0  0  0  0  0  0  0
    7.1800    0.0283   18.6310 C   0  0  0  0  0  0  0  0  0  0  0  0
    8.1335   -0.4595   18.4235 H   0  0  0  0  0  0  0  0  0  0  0  0
    6.6020    0.6338   17.5844 N   0  0  0  0  0  0  0  0  0  0  0  0
    5.4396    1.2720   17.7963 C   0  0  0  0  0  0  0  0  0  0  0  0
    4.9866    1.7565   16.9303 H   0  0  0  0  0  0  0  0  0  0  0  0
    4.8212    1.3308   19.0506 C   0  0  0  0  0  0  0  0  0  0  0  0
    3.8924    1.8785   19.1782 H   0  0  0  0  0  0  0  0  0  0  0  0
    5.4359    0.7117   20.1351 C   0  0  0  0  0  0  0  0  0  0  0  0
    5.0229    0.7745   21.1410 H   0  0  0  0  0  0  0  0  0  0  0  0
    8.1773   -1.7047   21.0818 C   0  0  0  0  0  0  0  0  0  0  0  0
    8.5442   -2.3863   20.3350 H   0  0  0  0  0  0  0  0  0  0  0  0
    8.6272   -1.9255   22.3597 O   0  0  0  0  0  0  0  0  0  0  0  0
    8.1040   -0.9811   23.1909 C   0  0  0  0  0  0  0  0  0  0  0  0
    8.3307   -0.9170   24.3754 O   0  0  0  0  0  0  0  0  0  0  0  0
    7.6050    2.1736   22.4887 C   0  0  0  0  0  0  0  0  0  0  0  0
    7.6622    2.3308   21.4041 H   0  0  0  0  0  0  0  0  0  0  0  0
    8.6150    1.9263   22.8530 H   0  0  0  0  0  0  0  0  0  0  0  0
    7.1043    3.4453   23.1810 C   0  0  0  0  0  0  0  0  0  0  0  0
    7.8292    4.2337   22.9594 H   0  0  0  0  0  0  0  0  0  0  0  0
    6.1443    3.7435   22.7339 H   0  0  0  0  0  0  0  0  0  0  0  0
    7.2299    5.6257   25.0991 C   0  0  0  0  0  0  0  0  0  0  0  0
    6.9911    5.8389   24.0682 H   0  0  0  0  0  0  0  0  0  0  0  0
    7.5077    6.6276   26.0200 C   0  0  0  0  0  0  0  0  0  0  0  0
    7.5466    7.6725   25.7084 H   0  0  0  0  0  0  0  0  0  0  0  0
    7.7304    6.2556   27.3517 C   0  0  0  0  0  0  0  0  0  0  0  0
    7.9531    6.9794   28.1273 H   0  0  0  0  0  0  0  0  0  0  0  0
  1  2  1  0
  2  3  2  0
  3  4  1  0
  4  5  1  0
  5  6  1  0
  6  7  1  0
  6  8  1  0
  6  9  1  0
  9 10  1  0
  9 11  1  0
  9 12  1  0
 12 13  1  0
 13 14  1  0
 14 15  1  0
 15 16  2  0
 16 17  1  0
 16 18  1  0
 18 19  2  0
 19 20  1  0
 19 21  1  0
 21 22  1  0
 21 23  2  0
 23 24  1  0
 14 25  2  0
 25 26  1  0
 25 27  1  0
 27 28  1  0
 28 29  2  0
 12 30  1  0
 30 31  1  0
 30 32  1  0
 30 33  1  0
 33 34  1  0
 33 35  1  0
  4 36  2  0
 36 37  1  0
 36 38  1  0
 38 39  1  0
 38 40  2  0
 40 41  1  0
 40  2  1  0
 33  5  1  0
 28 13  1  0
 23 15  1  0
M  END
>  <cnnaffinity>  (1) 
-5.16811

>  <filename>  (1) 
O=c1occ(-c2cccnc2)n1N1CCN(c2ccccn2)CC1

$$$$
