
     RDKit          3D

 33 35  0  0  0  0  0  0  0  0999 V2000
    4.9386    1.9770   16.8796 H   0  0  0  0  0  0  0  0  0  0  0  0
    5.3649    1.3935   17.6935 C   0  0  0  0  0  0  0  0  0  0  0  0
    6.5106    0.7450   17.4244 N   0  0  0  0  0  0  0  0  0  0  0  0
    7.0753    0.0560   18.4252 C   0  0  0  0  0  0  0  0  0  0  0  0
    8.0233   -0.4342   18.2082 H   0  0  0  0  0  0  0  0  0  0  0  0
    6.5149   -0.0567   19.7108 C   0  0  0  0  0  0  0  0  0  0  0  0
    7.2256   -0.7178   20.7775 N   0  0  0  0  0  0  0  0  0  0  0  0
    8.4147   -0.1216   21.1794 C   0  0  0  0  0  0  0  0  0  0  0  0
    8.7345    0.7194   20.5737 H   0  0  0  0  0  0  0  0  0  0  0  0
    9.1458   -0.5611   22.2583 C   0  0  0  0  0  0  0  0  0  0  0  0
   10.2956    0.0932   22.7020 N   0  0  0  0  0  0  0  0  0  0  0  0
   11.1978   -0.5807   23.6283 C   0  0  0  0  0  0  0  0  0  0  0  0
   11.5264   -1.5278   23.1573 H   0  0  0  0  0  0  0  0  0  0  0  0
   10.7227   -0.8176   24.5862 H   0  0  0  0  0  0  0  0  0  0  0  0
   12.3641    0.3934   23.7535 C   0  0  0  0  0  0  0  0  0  0  0  0
   12.0839    1.2311   24.4042 H   0  0  0  0  0  0  0  0  0  0  0  0
   13.2647   -0.0766   24.1560 H   0  0  0  0  0  0  0  0  0  0  0  0
   12.5416    0.8507   22.3071 C   0  0  0  0  0  0  0  0  0  0  0  0
   12.9971    1.8361   22.2096 H   0  0  0  0  0  0  0  0  0  0  0  0
   13.2025    0.1464   21.7921 H   0  0  0  0  0  0  0  0  0  0  0  0
   11.1215    0.8111   21.7227 C   0  0  0  0  0  0  0  0  0  0  0  0
   10.7105    1.8073   21.5515 H   0  0  0  0  0  0  0  0  0  0  0  0
   11.1217    0.2719   20.7769 H   0  0  0  0  0  0  0  0  0  0  0  0
    8.6571   -1.7414   22.9235 C   0  0  0  0  0  0  0  0  0  0  0  0
    9.2656   -2.1608   23.7202 H   0  0  0  0  0  0  0  0  0  0  0  0
    7.4811   -2.3262   22.5668 C   0  0  0  0  0  0  0  0  0  0  0  0
    7.0912   -3.1941   23.0756 H   0  0  0  0  0  0  0  0  0  0  0  0
    6.6428   -1.8370   21.4790 C   0  0  0  0  0  0  0  0  0  0  0  0
    5.5817   -2.3451   21.1660 O   0  0  0  0  0  0  0  0  0  0  0  0
    5.3153    0.6135   19.9751 C   0  0  0  0  0  0  0  0  0  0  0  0
    4.8834    0.5644   20.9733 H   0  0  0  0  0  0  0  0  0  0  0  0
    4.7367    1.3608   18.9426 C   0  0  0  0  0  0  0  0  0  0  0  0
    3.8317    1.9358   19.1091 H   0  0  0  0  0  0  0  0  0  0  0  0
  1  2  1  0
  2  3  2  0
  3  4  1  0
  4  5  1  0
  4  6  2  0
  6  7  1  0
  7  8  1  0
  8  9  1  0
  8 10  2  0
 10 11  1  0
 11 12  1  0
 12 13  1  0
 12 14  1  0
 12 15  1  0
 15 16  1  0
 15 17  1  0
 15 18  1  0
 18 19  1  0
 18 20  1  0
 18 21  1  0
 21 22  1  0
 21 23  1  0
 10 24  1  0
 24 25  1  0
 24 26  2  0
 26 27  1  0
 26 28  1  0
 28 29  2  0
  6 30  1  0
 30 31  1  0
 30 32  2  0
 32 33  1  0
 32  2  1  0
 28  7  1  0
 21 11  1  0
M  END
>  <cnnaffinity>  (1) 
-5.08516

>  <filename>  (1) 
O=c1ccc(N2CCCC2)cn1-c1cccnc1

$$$$
