
     RDKit          3D

 37 40  0  0  0  0  0  0  0  0999 V2000
    5.0137    1.9443   16.1723 H   0  0  0  0  0  0  0  0  0  0  0  0
    5.2874    1.3615   17.0482 C   0  0  0  0  0  0  0  0  0  0  0  0
    6.2738    0.4680   16.8932 N   0  0  0  0  0  0  0  0  0  0  0  0
    6.6196   -0.2515   17.9687 C   0  0  0  0  0  0  0  0  0  0  0  0
    7.4119   -0.9853   17.8306 H   0  0  0  0  0  0  0  0  0  0  0  0
    6.0423   -0.1037   19.2476 C   0  0  0  0  0  0  0  0  0  0  0  0
    6.5309   -0.8737   20.4207 C   0  0  0  0  0  0  0  0  0  0  0  0
    7.0567   -0.2208   21.5168 C   0  0  0  0  0  0  0  0  0  0  0  0
    7.1132    0.8693   21.5086 H   0  0  0  0  0  0  0  0  0  0  0  0
    7.5818   -0.9270   22.6431 C   0  0  0  0  0  0  0  0  0  0  0  0
    7.9148   -0.2352   23.9273 C   0  0  0  0  0  0  0  0  0  0  0  0
    6.8358    0.2117   24.7030 C   0  0  0  0  0  0  0  0  0  0  0  0
    5.8378    0.1578   24.2856 H   0  0  0  0  0  0  0  0  0  0  0  0
    7.0346    0.7032   26.0208 C   0  0  0  0  0  0  0  0  0  0  0  0
    6.1788    1.0611   26.5857 H   0  0  0  0  0  0  0  0  0  0  0  0
    8.2858    0.6974   26.5856 C   0  0  0  0  0  0  0  0  0  0  0  0
    8.4241    1.0923   27.5943 H   0  0  0  0  0  0  0  0  0  0  0  0
    9.4289    0.2079   25.8166 C   0  0  0  0  0  0  0  0  0  0  0  0
   10.6951    0.0644   26.4164 C   0  0  0  0  0  0  0  0  0  0  0  0
   10.8227    0.0071   27.4841 H   0  0  0  0  0  0  0  0  0  0  0  0
   11.7449    0.2700   24.1606 C   0  0  0  0  0  0  0  0  0  0  0  0
   11.7612    0.0903   25.4551 H   0  0  0  0  0  0  0  0  0  0  0  0
   11.5781    0.3331   23.8257 C   0  0  0  0  0  0  0  0  0  0  0  0
   11.9253    1.4473   23.8881 H   0  0  0  0  0  0  0  0  0  0  0  0
   10.4877   -0.3560   23.6032 C   0  0  0  0  0  0  0  0  0  0  0  0
   10.4265   -0.0648   22.5855 H   0  0  0  0  0  0  0  0  0  0  0  0
    9.2307   -0.0965   24.4240 C   0  0  0  0  0  0  0  0  0  0  0  0
    7.5485   -2.2970   22.6334 C   0  0  0  0  0  0  0  0  0  0  0  0
    7.8813   -2.8897   23.4839 H   0  0  0  0  0  0  0  0  0  0  0  0
    7.0484   -2.9448   21.5473 N   0  0  0  0  0  0  0  0  0  0  0  0
    6.9242   -3.9445   21.4796 H   0  0  0  0  0  0  0  0  0  0  0  0
    6.4365   -2.3504   20.4409 C   0  0  0  0  0  0  0  0  0  0  0  0
    5.9086   -3.1108   19.6464 O   0  0  0  0  0  0  0  0  0  0  0  0
    5.0150    0.8446   19.3786 C   0  0  0  0  0  0  0  0  0  0  0  0
    4.5414    1.0030   20.3472 H   0  0  0  0  0  0  0  0  0  0  0  0
    4.6152    1.5688   18.2549 C   0  0  0  0  0  0  0  0  0  0  0  0
    3.8104    2.2953   18.2920 H   0  0  0  0  0  0  0  0  0  0  0  0
  1  2  1  0
  2  3  2  0
  3  4  1  0
  4  5  1  0
  4  6  2  0
  6  7  1  0
  7  8  2  0
  8  9  1  0
  8 10  1  0
 10 11  1  0
 11 12  2  0
 12 13  1  0
 12 14  1  0
 14 15  1  0
 14 16  2  0
 16 17  1  0
 16 18  1  0
 18 19  2  0
 19 20  1  0
 19 21  1  0
 21 22  1  0
 21 23  2  0
 23 24  1  0
 23 25  1  0
 25 26  1  0
 25 27  2  0
 10 28  2  0
 28 29  1  0
 28 30  1  0
 30 31  1  0
 30 32  1  0
 32 33  2  0
  6 34  1  0
 34 35  1  0
 34 36  2  0
 36 37  1  0
 36  2  1  0
 32  7  1  0
 27 11  1  0
 27 18  1  0
M  END
>  <cnnaffinity>  (1) 
-5.28724

>  <filename>  (1) 
O=c1[nH]cc(-c2cccc3ccccc23)cc1-c1cccnc1

$$$$
