
     RDKit          3D

 30 32  0  0  0  0  0  0  0  0999 V2000
    4.9073    1.7888   16.9324 H   0  0  0  0  0  0  0  0  0  0  0  0
    5.3659    1.3403   17.8129 C   0  0  0  0  0  0  0  0  0  0  0  0
    6.5444    0.7298   17.6137 N   0  0  0  0  0  0  0  0  0  0  0  0
    7.1242    0.1709   18.6792 C   0  0  0  0  0  0  0  0  0  0  0  0
    8.0808   -0.3104   18.4865 H   0  0  0  0  0  0  0  0  0  0  0  0
    6.5984    0.2013   19.9842 C   0  0  0  0  0  0  0  0  0  0  0  0
    7.3630   -0.4676   21.0548 C   0  0  0  0  0  0  0  0  0  0  0  0
    7.1008   -0.0435   22.3308 O   0  0  0  0  0  0  0  0  0  0  0  0
    7.7714   -0.6277   23.3864 C   0  0  0  0  0  0  0  0  0  0  0  0
    7.5298    0.0172   24.6979 C   0  0  0  0  0  0  0  0  0  0  0  0
    8.4675   -0.1425   25.7401 C   0  0  0  0  0  0  0  0  0  0  0  0
    9.3949   -0.6881   25.5762 H   0  0  0  0  0  0  0  0  0  0  0  0
    8.2397    0.4097   26.9979 C   0  0  0  0  0  0  0  0  0  0  0  0
    8.9389    0.2815   27.8156 H   0  0  0  0  0  0  0  0  0  0  0  0
    7.0682    1.1288   27.2070 C   0  0  0  0  0  0  0  0  0  0  0  0
    6.8498    1.6738   28.4125 F   0  0  0  0  0  0  0  0  0  0  0  0
    6.1122    1.2930   26.2078 C   0  0  0  0  0  0  0  0  0  0  0  0
    5.2103    1.8473   26.4306 H   0  0  0  0  0  0  0  0  0  0  0  0
    6.3442    0.7316   24.9532 C   0  0  0  0  0  0  0  0  0  0  0  0
    5.6023    0.8269   24.1644 H   0  0  0  0  0  0  0  0  0  0  0  0
    8.4814   -1.7635   23.2297 C   0  0  0  0  0  0  0  0  0  0  0  0
    8.9173   -2.2946   24.0631 H   0  0  0  0  0  0  0  0  0  0  0  0
    8.5979   -2.3738   21.9122 C   0  0  0  0  0  0  0  0  0  0  0  0
    8.9662   -3.5239   21.7406 O   0  0  0  0  0  0  0  0  0  0  0  0
    8.1880   -1.5036   20.8272 C   0  0  0  0  0  0  0  0  0  0  0  0
    8.4903   -1.7905   19.8385 H   0  0  0  0  0  0  0  0  0  0  0  0
    5.3501    0.8174   20.1682 C   0  0  0  0  0  0  0  0  0  0  0  0
    4.8794    0.8348   21.1537 H   0  0  0  0  0  0  0  0  0  0  0  0
    4.7347    1.3938   19.0599 C   0  0  0  0  0  0  0  0  0  0  0  0
    3.7726    1.8849   19.1415 H   0  0  0  0  0  0  0  0  0  0  0  0
  1  2  1  0
  2  3  2  0
  3  4  1  0
  4  5  1  0
  4  6  2  0
  6  7  1  0
  7  8  1  0
  8  9  1  0
  9 10  1  0
 10 11  2  0
 11 12  1  0
 11 13  1  0
 13 14  1  0
 13 15  2  0
 15 16  1  0
 15 17  1  0
 17 18  1  0
 17 19  2  0
 19 20  1  0
  9 21  2  0
 21 22  1  0
 21 23  1  0
 23 24  2  0
 23 25  1  0
 25 26  1  0
  6 27  1  0
 27 28  1  0
 27 29  2  0
 29 30  1  0
 29  2  1  0
 25  7  2  0
 19 10  1  0
M  END
>  <cnnaffinity>  (1) 
-5.05627

>  <filename>  (1) 
O=c1cc(-c2ccc(F)cc2)oc(-c2cccnc2)c1

$$$$
