
     RDKit          3D

 33 35  0  0  0  0  0  0  0  0999 V2000
    4.9213    1.7593   16.9977 H   0  0  0  0  0  0  0  0  0  0  0  0
    5.4113    1.3078   17.8559 C   0  0  0  0  0  0  0  0  0  0  0  0
    6.5903    0.7098   17.6167 N   0  0  0  0  0  0  0  0  0  0  0  0
    7.2050    0.1136   18.6474 C   0  0  0  0  0  0  0  0  0  0  0  0
    8.1444   -0.3947   18.4307 H   0  0  0  0  0  0  0  0  0  0  0  0
    6.6794    0.1111   19.9538 C   0  0  0  0  0  0  0  0  0  0  0  0
    7.3110   -0.5845   21.0300 N   0  0  0  0  0  0  0  0  0  0  0  0
    7.5985    0.1611   22.1499 N   0  0  0  0  0  0  0  0  0  0  0  0
    8.2177   -0.4322   23.1339 C   0  0  0  0  0  0  0  0  0  0  0  0
    8.4734    0.3675   24.3936 C   0  0  0  0  0  0  0  0  0  0  0  0
    7.6444    1.0699   24.5291 H   0  0  0  0  0  0  0  0  0  0  0  0
    8.4637   -0.2805   25.2786 H   0  0  0  0  0  0  0  0  0  0  0  0
    9.7956    1.0980   24.2869 C   0  0  0  0  0  0  0  0  0  0  0  0
   10.9884    0.5141   24.7334 C   0  0  0  0  0  0  0  0  0  0  0  0
   10.9626   -0.4651   25.2090 H   0  0  0  0  0  0  0  0  0  0  0  0
   12.2119    1.1603   24.5343 C   0  0  0  0  0  0  0  0  0  0  0  0
   13.1312    0.6966   24.8810 H   0  0  0  0  0  0  0  0  0  0  0  0
   12.2497    2.3950   23.8775 C   0  0  0  0  0  0  0  0  0  0  0  0
   13.1999    2.8989   23.7157 H   0  0  0  0  0  0  0  0  0  0  0  0
   11.0641    2.9764   23.4154 C   0  0  0  0  0  0  0  0  0  0  0  0
   11.0889    3.9275   22.8901 H   0  0  0  0  0  0  0  0  0  0  0  0
    9.8450    2.3224   23.6098 C   0  0  0  0  0  0  0  0  0  0  0  0
    8.9246    2.7354   23.1991 H   0  0  0  0  0  0  0  0  0  0  0  0
    8.7029   -1.7947   23.0146 C   0  0  0  0  0  0  0  0  0  0  0  0
    9.3217   -2.2093   23.8094 H   0  0  0  0  0  0  0  0  0  0  0  0
    8.3445   -2.5427   21.9402 C   0  0  0  0  0  0  0  0  0  0  0  0
    8.6728   -3.5571   21.7438 H   0  0  0  0  0  0  0  0  0  0  0  0
    7.3531   -2.0260   21.0027 C   0  0  0  0  0  0  0  0  0  0  0  0
    6.6553   -2.6968   20.2670 O   0  0  0  0  0  0  0  0  0  0  0  0
    5.4626    0.7505   20.1935 C   0  0  0  0  0  0  0  0  0  0  0  0
    5.0512    0.7348   21.2018 H   0  0  0  0  0  0  0  0  0  0  0  0
    4.8047    1.3513   19.1166 C   0  0  0  0  0  0  0  0  0  0  0  0
    3.8344    1.8207   19.2399 H   0  0  0  0  0  0  0  0  0  0  0  0
  1  2  1  0
  2  3  2  0
  3  4  1  0
  4  5  1  0
  4  6  2  0
  6  7  1  0
  7  8  1  0
  8  9  2  0
  9 10  1  0
 10 11  1  0
 10 12  1  0
 10 13  1  0
 13 14  2  0
 14 15  1  0
 14 16  1  0
 16 17  1  0
 16 18  2  0
 18 19  1  0
 18 20  1  0
 20 21  1  0
 20 22  2  0
 22 23  1  0
  9 24  1  0
 24 25  1  0
 24 26  2  0
 26 27  1  0
 26 28  1  0
 28 29  2  0
  6 30  1  0
 30 31  1  0
 30 32  2  0
 32 33  1  0
 32  2  1  0
 28  7  1  0
 22 13  1  0
M  END
>  <cnnaffinity>  (1) 
-5.23917

>  <filename>  (1) 
O=c1ccc(Cc2ccccc2)nn1-c1cccnc1

$$$$
