
     RDKit          3D

 40 43  0  0  0  0  0  0  0  0999 V2000
    5.3981    1.9277   16.6522 H   0  0  0  0  0  0  0  0  0  0  0  0
    5.6203    1.3584   17.5546 C   0  0  0  0  0  0  0  0  0  0  0  0
    6.4816    0.3420   17.4129 N   0  0  0  0  0  0  0  0  0  0  0  0
    6.7901   -0.3510   18.5148 C   0  0  0  0  0  0  0  0  0  0  0  0
    7.4530   -1.2012   18.3605 H   0  0  0  0  0  0  0  0  0  0  0  0
    6.3201   -0.0542   19.8190 C   0  0  0  0  0  0  0  0  0  0  0  0
    6.9017   -0.7618   20.9780 C   0  0  0  0  0  0  0  0  0  0  0  0
    7.0376   -0.0747   22.1075 N   0  0  0  0  0  0  0  0  0  0  0  0
    7.8642   -0.6633   23.0638 N   0  0  0  0  0  0  0  0  0  0  0  0
    7.9606   -0.0370   24.3275 C   0  0  0  0  0  0  0  0  0  0  0  0
    9.0619   -0.2633   25.1791 C   0  0  0  0  0  0  0  0  0  0  0  0
    9.8914   -0.8867   24.8680 H   0  0  0  0  0  0  0  0  0  0  0  0
    9.1137    0.3424   26.4355 C   0  0  0  0  0  0  0  0  0  0  0  0
    9.9586    0.1328   27.0914 H   0  0  0  0  0  0  0  0  0  0  0  0
    8.0830    1.1896   26.8494 C   0  0  0  0  0  0  0  0  0  0  0  0
    8.1173    1.6543   27.8309 H   0  0  0  0  0  0  0  0  0  0  0  0
    6.9746    1.4291   26.0150 C   0  0  0  0  0  0  0  0  0  0  0  0
    5.8528    2.3149   26.4655 C   0  0  0  0  0  0  0  0  0  0  0  0
    6.1101    3.5996   26.9769 C   0  0  0  0  0  0  0  0  0  0  0  0
    7.1398    3.9451   27.0383 H   0  0  0  0  0  0  0  0  0  0  0  0
    5.0623    4.4313   27.3843 C   0  0  0  0  0  0  0  0  0  0  0  0
    5.2792    5.4264   27.7656 H   0  0  0  0  0  0  0  0  0  0  0  0
    3.7392    3.9817   27.3017 C   0  0  0  0  0  0  0  0  0  0  0  0
    2.9238    4.6265   27.6191 H   0  0  0  0  0  0  0  0  0  0  0  0
    3.4670    2.7008   26.8061 C   0  0  0  0  0  0  0  0  0  0  0  0
    2.4416    2.3451   26.7370 H   0  0  0  0  0  0  0  0  0  0  0  0
    4.5158    1.8800   26.3835 C   0  0  0  0  0  0  0  0  0  0  0  0
    4.3126    0.8845   25.9939 H   0  0  0  0  0  0  0  0  0  0  0  0
    6.9252    0.8108   24.7559 C   0  0  0  0  0  0  0  0  0  0  0  0
    6.0808    0.9913   24.0973 H   0  0  0  0  0  0  0  0  0  0  0  0
    8.6394   -1.7545   22.6799 C   0  0  0  0  0  0  0  0  0  0  0  0
    9.4407   -2.0768   23.3201 H   0  0  0  0  0  0  0  0  0  0  0  0
    8.4627   -2.4254   21.4982 C   0  0  0  0  0  0  0  0  0  0  0  0
    9.0067   -3.3251   21.2188 H   0  0  0  0  0  0  0  0  0  0  0  0
    7.1087   -2.2799   20.7163 C   0  0  0  0  0  0  0  0  0  0  0  0
    7.1316   -2.2498   20.7201 O   0  0  0  0  0  0  0  0  0  0  0  0
    5.3830    0.9914   19.9296 C   0  0  0  0  0  0  0  0  0  0  0  0
    4.9476    1.2378   20.8991 H   0  0  0  0  0  0  0  0  0  0  0  0
    5.0282    1.6936   18.7767 C   0  0  0  0  0  0  0  0  0  0  0  0
    4.3225    2.5153   18.8092 H   0  0  0  0  0  0  0  0  0  0  0  0
  1  2  1  0
  2  3  2  0
  3  4  1  0
  4  5  1  0
  4  6  2  0
  6  7  1  0
  7  8  2  0
  8  9  1  0
  9 10  1  0
 10 11  2  0
 11 12  1  0
 11 13  1  0
 13 14  1  0
 13 15  2  0
 15 16  1  0
 15 17  1  0
 17 18  1  0
 18 19  2  0
 19 20  1  0
 19 21  1  0
 21 22  1  0
 21 23  2  0
 23 24  1  0
 23 25  1  0
 25 26  1  0
 25 27  2  0
 27 28  1  0
 17 29  2  0
 29 30  1  0
  9 31  1  0
 31 32  1  0
 31 33  2  0
 33 34  1  0
 33 35  1  0
 35 36  2  0
  6 37  1  0
 37 38  1  0
 37 39  2  0
 39 40  1  0
 39  2  1  0
 35  7  1  0
 29 10  1  0
 27 18  1  0
M  END
>  <cnnaffinity>  (1) 
-5.05649

>  <filename>  (1) 
O=c1ccn(-c2cccc(-c3ccccc3)c2)nc1-c1cccnc1

$$$$
