
     RDKit          3D

 33 36  0  0  0  0  0  0  0  0999 V2000
    4.9232    1.8002   16.9906 H   0  0  0  0  0  0  0  0  0  0  0  0
    5.3887    1.2934   17.8284 C   0  0  0  0  0  0  0  0  0  0  0  0
    6.5429    0.6678   17.5520 N   0  0  0  0  0  0  0  0  0  0  0  0
    7.1687    0.0589   18.5615 C   0  0  0  0  0  0  0  0  0  0  0  0
    8.1273   -0.4130   18.3539 H   0  0  0  0  0  0  0  0  0  0  0  0
    6.6663    0.0235   19.8771 C   0  0  0  0  0  0  0  0  0  0  0  0
    7.3755   -0.6389   20.9103 N   0  0  0  0  0  0  0  0  0  0  0  0
    6.7845   -1.4137   21.8907 C   0  0  0  0  0  0  0  0  0  0  0  0
    5.7197   -1.5701   21.9232 H   0  0  0  0  0  0  0  0  0  0  0  0
    7.7424   -1.9144   22.7101 C   0  0  0  0  0  0  0  0  0  0  0  0
    7.5710   -2.7529   23.8731 C   0  0  0  0  0  0  0  0  0  0  0  0
    6.3879   -3.2150   24.3961 C   0  0  0  0  0  0  0  0  0  0  0  0
    5.4067   -2.9955   23.9989 H   0  0  0  0  0  0  0  0  0  0  0  0
    6.6856   -4.0039   25.5415 C   0  0  0  0  0  0  0  0  0  0  0  0
    5.8915   -4.7200   26.4621 C   0  0  0  0  0  0  0  0  0  0  0  0
    4.8104   -4.7149   26.3341 H   0  0  0  0  0  0  0  0  0  0  0  0
    6.5217   -5.4027   27.4940 C   0  0  0  0  0  0  0  0  0  0  0  0
    5.9193   -5.9594   28.2035 H   0  0  0  0  0  0  0  0  0  0  0  0
    7.9367   -5.3839   27.6266 C   0  0  0  0  0  0  0  0  0  0  0  0
    8.3986   -5.9367   28.4408 H   0  0  0  0  0  0  0  0  0  0  0  0
    8.7429   -4.6825   26.7328 C   0  0  0  0  0  0  0  0  0  0  0  0
    9.8275   -4.6744   26.8372 H   0  0  0  0  0  0  0  0  0  0  0  0
    8.0985   -3.9943   25.6885 C   0  0  0  0  0  0  0  0  0  0  0  0
    8.6074   -3.2291   24.6637 N   0  0  0  0  0  0  0  0  0  0  0  0
    9.5831   -3.0491   24.5256 H   0  0  0  0  0  0  0  0  0  0  0  0
    8.9515   -1.4373   22.2017 N   0  0  0  0  0  0  0  0  0  0  0  0
    9.9038   -1.5438   22.4926 H   0  0  0  0  0  0  0  0  0  0  0  0
    8.7690   -0.6495   21.1050 C   0  0  0  0  0  0  0  0  0  0  0  0
    9.6570   -0.1067   20.4786 O   0  0  0  0  0  0  0  0  0  0  0  0
    5.4460    0.6498   20.1515 C   0  0  0  0  0  0  0  0  0  0  0  0
    5.0399    0.6389   21.1664 H   0  0  0  0  0  0  0  0  0  0  0  0
    4.8071    1.3086   19.1003 C   0  0  0  0  0  0  0  0  0  0  0  0
    3.8786    1.8388   19.2568 H   0  0  0  0  0  0  0  0  0  0  0  0
  1  2  1  0
  2  3  2  0
  3  4  1  0
  4  5  1  0
  4  6  2  0
  6  7  1  0
  7  8  1  0
  8  9  1  0
  8 10  2  0
 10 11  1  0
 11 12  2  0
 12 13  1  0
 12 14  1  0
 14 15  2  0
 15 16  1  0
 15 17  1  0
 17 18  1  0
 17 19  2  0
 19 20  1  0
 19 21  1  0
 21 22  1  0
 21 23  2  0
 23 24  1  0
 24 25  1  0
 10 26  1  0
 26 27  1  0
 26 28  1  0
 28 29  2  0
  6 30  1  0
 30 31  1  0
 30 32  2  0
 32 33  1  0
 32  2  1  0
 28  7  1  0
 24 11  1  0
 23 14  1  0
M  END
>  <cnnaffinity>  (1) 
-5.5186

>  <filename>  (1) 
O=c1[nH]c(-c2cc3ccccc3[nH]2)cn1-c1cccnc1

$$$$
