
     RDKit          3D

 31 33  0  0  0  0  0  0  0  0999 V2000
    4.9625    1.8694   16.9509 H   0  0  0  0  0  0  0  0  0  0  0  0
    5.4173    1.3397   17.7843 C   0  0  0  0  0  0  0  0  0  0  0  0
    6.5774    0.7152   17.5240 N   0  0  0  0  0  0  0  0  0  0  0  0
    7.1652    0.0612   18.5333 C   0  0  0  0  0  0  0  0  0  0  0  0
    8.1128   -0.4291   18.3127 H   0  0  0  0  0  0  0  0  0  0  0  0
    6.6158   -0.0325   19.8280 C   0  0  0  0  0  0  0  0  0  0  0  0
    7.3104   -0.7245   20.8867 N   0  0  0  0  0  0  0  0  0  0  0  0
    8.5696   -0.2683   21.2224 C   0  0  0  0  0  0  0  0  0  0  0  0
    8.9154    0.5915   20.6515 H   0  0  0  0  0  0  0  0  0  0  0  0
    9.3339   -0.8471   22.1924 C   0  0  0  0  0  0  0  0  0  0  0  0
   10.7077   -0.3463   22.4596 C   0  0  0  0  0  0  0  0  0  0  0  0
   10.9275    1.0179   22.7265 C   0  0  0  0  0  0  0  0  0  0  0  0
   10.0821    1.7042   22.7398 H   0  0  0  0  0  0  0  0  0  0  0  0
   12.2202    1.4990   22.9725 C   0  0  0  0  0  0  0  0  0  0  0  0
   12.4168    2.5439   23.1778 H   0  0  0  0  0  0  0  0  0  0  0  0
   13.2896    0.6094   22.9065 C   0  0  0  0  0  0  0  0  0  0  0  0
   14.5436    1.0624   23.0719 F   0  0  0  0  0  0  0  0  0  0  0  0
   13.1092   -0.7373   22.6261 C   0  0  0  0  0  0  0  0  0  0  0  0
   13.9780   -1.3834   22.6540 H   0  0  0  0  0  0  0  0  0  0  0  0
   11.8129   -1.2103   22.3993 C   0  0  0  0  0  0  0  0  0  0  0  0
   11.6433   -2.2562   22.1534 H   0  0  0  0  0  0  0  0  0  0  0  0
    8.7686   -1.9303   22.9374 C   0  0  0  0  0  0  0  0  0  0  0  0
    9.3563   -2.3733   23.7424 H   0  0  0  0  0  0  0  0  0  0  0  0
    7.5143   -2.3784   22.6595 C   0  0  0  0  0  0  0  0  0  0  0  0
    7.0432   -3.1933   23.1879 H   0  0  0  0  0  0  0  0  0  0  0  0
    6.6946   -1.8252   21.5894 C   0  0  0  0  0  0  0  0  0  0  0  0
    5.5993   -2.2699   21.2875 O   0  0  0  0  0  0  0  0  0  0  0  0
    5.4131    0.6305   20.0877 C   0  0  0  0  0  0  0  0  0  0  0  0
    4.9907    0.5911   21.0911 H   0  0  0  0  0  0  0  0  0  0  0  0
    4.8030    1.3305   19.0413 C   0  0  0  0  0  0  0  0  0  0  0  0
    3.8753    1.8714   19.1926 H   0  0  0  0  0  0  0  0  0  0  0  0
  1  2  1  0
  2  3  2  0
  3  4  1  0
  4  5  1  0
  4  6  2  0
  6  7  1  0
  7  8  1  0
  8  9  1  0
  8 10  2  0
 10 11  1  0
 11 12  2  0
 12 13  1  0
 12 14  1  0
 14 15  1  0
 14 16  2  0
 16 17  1  0
 16 18  1  0
 18 19  1  0
 18 20  2  0
 20 21  1  0
 10 22  1  0
 22 23  1  0
 22 24  2  0
 24 25  1  0
 24 26  1  0
 26 27  2  0
  6 28  1  0
 28 29  1  0
 28 30  2  0
 30 31  1  0
 30  2  1  0
 26  7  1  0
 20 11  1  0
M  END
>  <cnnaffinity>  (1) 
-4.8783

>  <filename>  (1) 
O=c1ccc(-c2ccc(F)cc2)cn1-c1cccnc1

$$$$
