
     RDKit          3D

 36 38  0  0  0  0  0  0  0  0999 V2000
    4.9627    1.8183   16.9707 H   0  0  0  0  0  0  0  0  0  0  0  0
    5.4156    1.3011   17.8182 C   0  0  0  0  0  0  0  0  0  0  0  0
    6.5688    0.6609   17.5740 N   0  0  0  0  0  0  0  0  0  0  0  0
    7.1445    0.0333   18.6105 C   0  0  0  0  0  0  0  0  0  0  0  0
    8.0772   -0.4742   18.3819 H   0  0  0  0  0  0  0  0  0  0  0  0
    6.6263   -0.0262   19.9259 C   0  0  0  0  0  0  0  0  0  0  0  0
    7.3656   -0.7411   21.0188 C   0  0  0  0  0  0  0  0  0  0  0  0
    8.7786   -0.5985   21.1410 C   0  0  0  0  0  0  0  0  0  0  0  0
    9.3046    0.0670   20.4593 H   0  0  0  0  0  0  0  0  0  0  0  0
    9.4655   -1.2535   22.1202 C   0  0  0  0  0  0  0  0  0  0  0  0
   10.5302   -1.1706   22.2526 H   0  0  0  0  0  0  0  0  0  0  0  0
    8.8346   -2.1268   23.0924 C   0  0  0  0  0  0  0  0  0  0  0  0
    9.4728   -2.6824   23.9764 O   0  0  0  0  0  0  0  0  0  0  0  0
    7.4123   -2.2449   22.9225 N   0  0  0  0  0  0  0  0  0  0  0  0
    6.6360   -3.1421   23.7050 N   0  0  0  0  0  0  0  0  0  0  0  0
    5.6563   -3.0347   23.4372 H   0  0  0  0  0  0  0  0  0  0  0  0
    6.6852   -2.8881   25.1513 C   0  0  0  0  0  0  0  0  0  0  0  0
    7.6324   -3.2785   25.5468 H   0  0  0  0  0  0  0  0  0  0  0  0
    5.4997   -3.5765   25.8294 C   0  0  0  0  0  0  0  0  0  0  0  0
    5.6267   -4.6641   25.8884 H   0  0  0  0  0  0  0  0  0  0  0  0
    4.5922   -3.3763   25.2350 H   0  0  0  0  0  0  0  0  0  0  0  0
    5.3858   -2.9007   27.2061 C   0  0  0  0  0  0  0  0  0  0  0  0
    4.3491   -2.8755   27.5566 H   0  0  0  0  0  0  0  0  0  0  0  0
    5.9583   -3.4530   27.9618 H   0  0  0  0  0  0  0  0  0  0  0  0
    5.9766   -1.4775   27.0162 C   0  0  0  0  0  0  0  0  0  0  0  0
    6.7690   -1.2955   27.7515 H   0  0  0  0  0  0  0  0  0  0  0  0
    5.2219   -0.6994   27.1697 H   0  0  0  0  0  0  0  0  0  0  0  0
    6.5412   -1.4199   25.5784 C   0  0  0  0  0  0  0  0  0  0  0  0
    7.4993   -0.8929   25.5188 H   0  0  0  0  0  0  0  0  0  0  0  0
    5.8455   -0.9096   24.8965 H   0  0  0  0  0  0  0  0  0  0  0  0
    6.7425   -1.5641   21.9219 C   0  0  0  0  0  0  0  0  0  0  0  0
    5.6701   -1.7374   21.8841 H   0  0  0  0  0  0  0  0  0  0  0  0
    5.4076    0.6392   20.1435 C   0  0  0  0  0  0  0  0  0  0  0  0
    4.9564    0.6568   21.1383 H   0  0  0  0  0  0  0  0  0  0  0  0
    4.8010    1.3141   19.0754 C   0  0  0  0  0  0  0  0  0  0  0  0
    3.8710    1.8547   19.2038 H   0  0  0  0  0  0  0  0  0  0  0  0
  1  2  1  0
  2  3  2  0
  3  4  1  0
  4  5  1  0
  4  6  2  0
  6  7  1  0
  7  8  1  0
  8  9  1  0
  8 10  2  0
 10 11  1  0
 10 12  1  0
 12 13  2  0
 12 14  1  0
 14 15  1  0
 15 16  1  0
 15 17  1  0
 17 18  1  0
 17 19  1  0
 19 20  1  0
 19 21  1  0
 19 22  1  0
 22 23  1  0
 22 24  1  0
 22 25  1  0
 25 26  1  0
 25 27  1  0
 25 28  1  0
 28 29  1  0
 28 30  1  0
 14 31  1  0
 31 32  1  0
  6 33  1  0
 33 34  1  0
 33 35  2  0
 35 36  1  0
 35  2  1  0
 31  7  2  0
 28 17  1  0
M  END
>  <cnnaffinity>  (1) 
-5.15593

>  <filename>  (1) 
O=c1ccc(-c2cccnc2)cn1NC1CCCC1

$$$$
