
     RDKit          3D

 34 36  0  0  0  0  0  0  0  0999 V2000
    4.9286    1.8097   16.9534 H   0  0  0  0  0  0  0  0  0  0  0  0
    5.4020    1.2976   17.7875 C   0  0  0  0  0  0  0  0  0  0  0  0
    6.5662    0.6908   17.5093 N   0  0  0  0  0  0  0  0  0  0  0  0
    7.1899    0.0824   18.5250 C   0  0  0  0  0  0  0  0  0  0  0  0
    8.1450   -0.3933   18.3064 H   0  0  0  0  0  0  0  0  0  0  0  0
    6.6989    0.0211   19.8490 C   0  0  0  0  0  0  0  0  0  0  0  0
    7.4421   -0.6589   20.9382 C   0  0  0  0  0  0  0  0  0  0  0  0
    6.8065   -1.5154   21.8132 C   0  0  0  0  0  0  0  0  0  0  0  0
    5.7326   -1.6650   21.6991 H   0  0  0  0  0  0  0  0  0  0  0  0
    7.4891   -2.2147   22.8546 C   0  0  0  0  0  0  0  0  0  0  0  0
    6.7353   -3.1635   23.7760 C   0  0  0  0  0  0  0  0  0  0  0  0
    5.8702   -2.6446   24.2042 H   0  0  0  0  0  0  0  0  0  0  0  0
    7.3747   -3.4431   24.6222 H   0  0  0  0  0  0  0  0  0  0  0  0
    6.2480   -4.4170   23.0727 C   0  0  0  0  0  0  0  0  0  0  0  0
    4.9341   -4.5228   22.5790 C   0  0  0  0  0  0  0  0  0  0  0  0
    4.2237   -3.7318   22.8135 H   0  0  0  0  0  0  0  0  0  0  0  0
    4.5225   -5.6299   21.8382 C   0  0  0  0  0  0  0  0  0  0  0  0
    3.4846   -5.7081   21.5281 H   0  0  0  0  0  0  0  0  0  0  0  0
    5.4356   -6.6457   21.5460 C   0  0  0  0  0  0  0  0  0  0  0  0
    5.1451   -7.4479   20.8820 H   0  0  0  0  0  0  0  0  0  0  0  0
    6.7197   -6.6123   22.0914 C   0  0  0  0  0  0  0  0  0  0  0  0
    7.4177   -7.4305   21.9381 H   0  0  0  0  0  0  0  0  0  0  0  0
    7.1050   -5.5092   22.8545 C   0  0  0  0  0  0  0  0  0  0  0  0
    8.6996   -5.5546   23.5550 Cl  0  0  0  0  0  0  0  0  0  0  0  0
    8.8303   -1.9924   23.0145 C   0  0  0  0  0  0  0  0  0  0  0  0
    9.4269   -2.4859   23.7841 H   0  0  0  0  0  0  0  0  0  0  0  0
    9.4625   -1.1151   22.1818 N   0  0  0  0  0  0  0  0  0  0  0  0
   10.4256   -0.8128   22.2121 H   0  0  0  0  0  0  0  0  0  0  0  0
    8.8810   -0.3949   21.1418 C   0  0  0  0  0  0  0  0  0  0  0  0
    9.6304    0.3675   20.5481 O   0  0  0  0  0  0  0  0  0  0  0  0
    5.4591    0.6316   20.0994 C   0  0  0  0  0  0  0  0  0  0  0  0
    5.0433    0.6143   21.1094 H   0  0  0  0  0  0  0  0  0  0  0  0
    4.8089    1.2923   19.0555 C   0  0  0  0  0  0  0  0  0  0  0  0
    3.8672    1.8064   19.2101 H   0  0  0  0  0  0  0  0  0  0  0  0
  1  2  1  0
  2  3  2  0
  3  4  1  0
  4  5  1  0
  4  6  2  0
  6  7  1  0
  7  8  2  0
  8  9  1  0
  8 10  1  0
 10 11  1  0
 11 12  1  0
 11 13  1  0
 11 14  1  0
 14 15  2  0
 15 16  1  0
 15 17  1  0
 17 18  1  0
 17 19  2  0
 19 20  1  0
 19 21  1  0
 21 22  1  0
 21 23  2  0
 23 24  1  0
 10 25  2  0
 25 26  1  0
 25 27  1  0
 27 28  1  0
 27 29  1  0
 29 30  2  0
  6 31  1  0
 31 32  1  0
 31 33  2  0
 33 34  1  0
 33  2  1  0
 29  7  1  0
 23 14  1  0
M  END
>  <cnnaffinity>  (1) 
-5.52056

>  <filename>  (1) 
O=c1[nH]cc(Cc2ccccc2Cl)cc1-c1cccnc1

$$$$
