
     RDKit          3D

 36 38  0  0  0  0  0  0  0  0999 V2000
    4.8786    1.7646   16.9312 H   0  0  0  0  0  0  0  0  0  0  0  0
    5.3421    1.3633   17.8307 C   0  0  0  0  0  0  0  0  0  0  0  0
    6.5407    0.7875   17.6592 N   0  0  0  0  0  0  0  0  0  0  0  0
    7.1307    0.2671   18.7366 C   0  0  0  0  0  0  0  0  0  0  0  0
    8.0993   -0.1931   18.5515 H   0  0  0  0  0  0  0  0  0  0  0  0
    6.5864    0.2924   20.0329 C   0  0  0  0  0  0  0  0  0  0  0  0
    7.2978   -0.4313   21.1047 C   0  0  0  0  0  0  0  0  0  0  0  0
    6.9397   -0.0660   22.3864 O   0  0  0  0  0  0  0  0  0  0  0  0
    7.4933   -0.7123   23.4577 C   0  0  0  0  0  0  0  0  0  0  0  0
    7.3045    0.1590   25.0420 S   0  0  0  0  0  0  0  0  0  0  0  0
    6.1375    1.0155   25.0245 O   0  0  0  0  0  0  0  0  0  0  0  0
    7.5421   -0.8084   26.0927 O   0  0  0  0  0  0  0  0  0  0  0  0
    8.6528    1.1610   25.0046 N   0  0  0  0  0  0  0  0  0  0  0  0
    8.5756    2.3036   24.0718 C   0  0  0  0  0  0  0  0  0  0  0  0
    8.6904    1.9693   23.0292 H   0  0  0  0  0  0  0  0  0  0  0  0
    7.6039    2.7970   24.1750 H   0  0  0  0  0  0  0  0  0  0  0  0
    9.6935    3.2831   24.4467 C   0  0  0  0  0  0  0  0  0  0  0  0
    9.4790    3.6752   25.4523 H   0  0  0  0  0  0  0  0  0  0  0  0
    9.7279    4.1085   23.7355 H   0  0  0  0  0  0  0  0  0  0  0  0
   10.9819    2.6833   24.4311 O   0  0  0  0  0  0  0  0  0  0  0  0
   11.0407    1.5519   25.2860 C   0  0  0  0  0  0  0  0  0  0  0  0
   12.0437    1.1373   25.1845 H   0  0  0  0  0  0  0  0  0  0  0  0
   10.8755    1.8362   26.3285 H   0  0  0  0  0  0  0  0  0  0  0  0
    9.9831    0.5053   24.9485 C   0  0  0  0  0  0  0  0  0  0  0  0
   10.0434   -0.3126   25.6723 H   0  0  0  0  0  0  0  0  0  0  0  0
   10.1988    0.1159   23.9424 H   0  0  0  0  0  0  0  0  0  0  0  0
    8.2199   -1.8463   23.3161 C   0  0  0  0  0  0  0  0  0  0  0  0
    8.6753   -2.4020   24.1304 H   0  0  0  0  0  0  0  0  0  0  0  0
    8.5129   -2.3569   21.9742 C   0  0  0  0  0  0  0  0  0  0  0  0
    9.0157   -3.4534   21.7917 O   0  0  0  0  0  0  0  0  0  0  0  0
    8.1567   -1.4513   20.8952 C   0  0  0  0  0  0  0  0  0  0  0  0
    8.5770   -1.6972   19.9355 H   0  0  0  0  0  0  0  0  0  0  0  0
    5.3387    0.9276   20.2013 C   0  0  0  0  0  0  0  0  0  0  0  0
    4.8778    0.9937   21.1874 H   0  0  0  0  0  0  0  0  0  0  0  0
    4.7069    1.4540   19.0749 C   0  0  0  0  0  0  0  0  0  0  0  0
    3.7353    1.9339   19.1340 H   0  0  0  0  0  0  0  0  0  0  0  0
  1  2  1  0
  2  3  2  0
  3  4  1  0
  4  5  1  0
  4  6  2  0
  6  7  1  0
  7  8  1  0
  8  9  1  0
  9 10  1  0
 10 11  2  0
 10 12  2  0
 10 13  1  0
 13 14  1  0
 14 15  1  0
 14 16  1  0
 14 17  1  0
 17 18  1  0
 17 19  1  0
 17 20  1  0
 20 21  1  0
 21 22  1  0
 21 23  1  0
 21 24  1  0
 24 25  1  0
 24 26  1  0
  9 27  2  0
 27 28  1  0
 27 29  1  0
 29 30  2  0
 29 31  1  0
 31 32  1  0
  6 33  1  0
 33 34  1  0
 33 35  2  0
 35 36  1  0
 35  2  1  0
 31  7  2  0
 24 13  1  0
M  END
>  <cnnaffinity>  (1) 
-4.89959

>  <filename>  (1) 
O=c1cc(-c2cccnc2)oc(S(=O)(=O)N2CCOCC2)c1

$$$$
