
     RDKit          3D

 28 30  0  0  0  0  0  0  0  0999 V2000
   14.5193    0.0574   22.3124 H   0  0  0  0  0  0  0  0  0  0  0  0
   13.4634   -0.1996   22.2049 C   0  0  0  0  0  0  0  0  0  0  0  0
   12.5984    0.7974   21.9895 N   0  0  0  0  0  0  0  0  0  0  0  0
   11.3120    0.4646   21.8571 C   0  0  0  0  0  0  0  0  0  0  0  0
   10.5900    1.2601   21.6657 H   0  0  0  0  0  0  0  0  0  0  0  0
   10.8552   -0.8492   21.9850 C   0  0  0  0  0  0  0  0  0  0  0  0
    9.4639   -1.1479   21.9520 N   0  0  0  0  0  0  0  0  0  0  0  0
    8.7440   -0.5014   20.9844 N   0  0  0  0  0  0  0  0  0  0  0  0
    7.4685   -0.7772   20.8750 C   0  0  0  0  0  0  0  0  0  0  0  0
    6.7292    0.0254   19.8503 C   0  0  0  0  0  0  0  0  0  0  0  0
    7.2802    0.1584   18.5623 C   0  0  0  0  0  0  0  0  0  0  0  0
    8.2529   -0.2785   18.3455 H   0  0  0  0  0  0  0  0  0  0  0  0
    6.6596    0.7642   17.5433 N   0  0  0  0  0  0  0  0  0  0  0  0
    5.4664    1.3261   17.7940 C   0  0  0  0  0  0  0  0  0  0  0  0
    4.9685    1.7950   16.9445 H   0  0  0  0  0  0  0  0  0  0  0  0
    4.8611    1.3151   19.0543 C   0  0  0  0  0  0  0  0  0  0  0  0
    3.9119    1.8196   19.1914 H   0  0  0  0  0  0  0  0  0  0  0  0
    5.4994    0.6558   20.1063 C   0  0  0  0  0  0  0  0  0  0  0  0
    5.0544    0.6259   21.1035 H   0  0  0  0  0  0  0  0  0  0  0  0
    6.7774   -1.8435   21.7278 C   0  0  0  0  0  0  0  0  0  0  0  0
    5.6844   -2.3324   21.4827 O   0  0  0  0  0  0  0  0  0  0  0  0
    7.5707   -2.2485   22.8817 C   0  0  0  0  0  0  0  0  0  0  0  0
    7.0928   -2.8531   23.6384 H   0  0  0  0  0  0  0  0  0  0  0  0
    8.8712   -1.9173   22.9333 C   0  0  0  0  0  0  0  0  0  0  0  0
    9.5359   -2.2452   23.7336 H   0  0  0  0  0  0  0  0  0  0  0  0
   11.8500   -1.8118   22.1677 C   0  0  0  0  0  0  0  0  0  0  0  0
   11.5867   -2.8677   22.2783 H   0  0  0  0  0  0  0  0  0  0  0  0
   13.1423   -1.4909   22.2804 N   0  0  0  0  0  0  0  0  0  0  0  0
  1  2  1  0
  2  3  2  0
  3  4  1  0
  4  5  1  0
  4  6  2  0
  6  7  1  0
  7  8  1  0
  8  9  2  0
  9 10  1  0
 10 11  2  0
 11 12  1  0
 11 13  1  0
 13 14  2  0
 14 15  1  0
 14 16  1  0
 16 17  1  0
 16 18  2  0
 18 19  1  0
  9 20  1  0
 20 21  2  0
 20 22  1  0
 22 23  1  0
 22 24  2  0
 24 25  1  0
  6 26  1  0
 26 27  1  0
 26 28  2  0
 28  2  1  0
 24  7  1  0
 18 10  1  0
M  END
>  <cnnaffinity>  (1) 
-5.35497

>  <filename>  (1) 
O=c1ccn(-c2cncnc2)nc1-c1cccnc1

$$$$
