
     RDKit          3D

 32 33  0  0  0  0  0  0  0  0999 V2000
   14.3005    0.8325   23.5591 H   0  0  0  0  0  0  0  0  0  0  0  0
   13.7267    1.3378   24.1453 O   0  0  0  0  0  0  0  0  0  0  0  0
   12.4123    1.1458   23.6692 C   0  0  0  0  0  0  0  0  0  0  0  0
   11.8694    0.4578   24.3332 H   0  0  0  0  0  0  0  0  0  0  0  0
   11.9005    2.1143   23.7225 H   0  0  0  0  0  0  0  0  0  0  0  0
   12.4657    0.6428   22.2309 C   0  0  0  0  0  0  0  0  0  0  0  0
   12.8731    1.4475   21.6077 H   0  0  0  0  0  0  0  0  0  0  0  0
   13.1734   -0.2015   22.1622 H   0  0  0  0  0  0  0  0  0  0  0  0
   11.1484    0.1980   21.6251 C   0  0  0  0  0  0  0  0  0  0  0  0
   11.3366   -0.3446   20.6868 H   0  0  0  0  0  0  0  0  0  0  0  0
   10.5017    1.0467   21.3692 H   0  0  0  0  0  0  0  0  0  0  0  0
   10.4235   -0.6470   22.5624 N   0  0  0  0  0  0  0  0  0  0  0  0
   10.9638   -1.3268   23.0685 H   0  0  0  0  0  0  0  0  0  0  0  0
    9.1540   -1.0522   22.2594 C   0  0  0  0  0  0  0  0  0  0  0  0
    8.5705   -0.5418   21.2064 N   0  0  0  0  0  0  0  0  0  0  0  0
    7.2470   -0.8497   20.9885 N   0  0  0  0  0  0  0  0  0  0  0  0
    6.6522   -0.0856   19.9444 C   0  0  0  0  0  0  0  0  0  0  0  0
    7.3590    0.1022   18.7430 C   0  0  0  0  0  0  0  0  0  0  0  0
    8.3659   -0.2985   18.6504 H   0  0  0  0  0  0  0  0  0  0  0  0
    6.8541    0.7503   17.6886 N   0  0  0  0  0  0  0  0  0  0  0  0
    5.6396    1.3094   17.8329 C   0  0  0  0  0  0  0  0  0  0  0  0
    5.2563    1.8418   16.9657 H   0  0  0  0  0  0  0  0  0  0  0  0
    4.8937    1.2384   19.0147 C   0  0  0  0  0  0  0  0  0  0  0  0
    3.9391    1.7496   19.0780 H   0  0  0  0  0  0  0  0  0  0  0  0
    5.3948    0.5077   20.0973 C   0  0  0  0  0  0  0  0  0  0  0  0
    4.8407    0.3936   21.0291 H   0  0  0  0  0  0  0  0  0  0  0  0
    6.5497   -1.9415   21.6054 C   0  0  0  0  0  0  0  0  0  0  0  0
    5.4922   -2.3874   21.1965 O   0  0  0  0  0  0  0  0  0  0  0  0
    7.2688   -2.4740   22.7728 C   0  0  0  0  0  0  0  0  0  0  0  0
    6.7294   -3.2603   23.2888 H   0  0  0  0  0  0  0  0  0  0  0  0
    8.4969   -2.0210   23.1175 C   0  0  0  0  0  0  0  0  0  0  0  0
    9.0254   -2.3442   24.0118 H   0  0  0  0  0  0  0  0  0  0  0  0
  1  2  1  0
  2  3  1  0
  3  4  1  0
  3  5  1  0
  3  6  1  0
  6  7  1  0
  6  8  1  0
  6  9  1  0
  9 10  1  0
  9 11  1  0
  9 12  1  0
 12 13  1  0
 12 14  1  0
 14 15  2  0
 15 16  1  0
 16 17  1  0
 17 18  2  0
 18 19  1  0
 18 20  1  0
 20 21  2  0
 21 22  1  0
 21 23  1  0
 23 24  1  0
 23 25  2  0
 25 26  1  0
 16 27  1  0
 27 28  2  0
 27 29  1  0
 29 30  1  0
 29 31  2  0
 31 32  1  0
 31 14  1  0
 25 17  1  0
M  END
>  <cnnaffinity>  (1) 
-4.75349

>  <filename>  (1) 
O=c1ccc(NCCCO)nn1-c1cccnc1

$$$$
