
     RDKit          3D

 36 38  0  0  0  0  0  0  0  0999 V2000
    4.9759    1.7876   16.9790 H   0  0  0  0  0  0  0  0  0  0  0  0
    5.4484    1.3051   17.8317 C   0  0  0  0  0  0  0  0  0  0  0  0
    6.6271    0.7063   17.5826 N   0  0  0  0  0  0  0  0  0  0  0  0
    7.2384    0.0960   18.6027 C   0  0  0  0  0  0  0  0  0  0  0  0
    8.2075   -0.3609   18.4080 H   0  0  0  0  0  0  0  0  0  0  0  0
    6.6786    0.0032   19.8876 C   0  0  0  0  0  0  0  0  0  0  0  0
    7.3661   -0.7277   20.9051 N   0  0  0  0  0  0  0  0  0  0  0  0
    8.6982   -0.4323   21.0183 N   0  0  0  0  0  0  0  0  0  0  0  0
    9.3727   -0.9312   22.0244 C   0  0  0  0  0  0  0  0  0  0  0  0
   10.8301   -0.4849   22.1836 C   0  0  0  0  0  0  0  0  0  0  0  0
   11.0853    0.0486   21.2511 H   0  0  0  0  0  0  0  0  0  0  0  0
   11.4510   -1.3908   22.2271 H   0  0  0  0  0  0  0  0  0  0  0  0
   11.1031    0.2970   23.4114 N   0  0  0  0  0  0  0  0  0  0  0  0
   12.5108    0.3629   23.8421 C   0  0  0  0  0  0  0  0  0  0  0  0
   12.9985   -0.5945   23.6633 H   0  0  0  0  0  0  0  0  0  0  0  0
   12.5245    0.5326   24.9280 H   0  0  0  0  0  0  0  0  0  0  0  0
   13.3373    1.4440   23.1218 C   0  0  0  0  0  0  0  0  0  0  0  0
   13.4819    1.1258   22.0738 H   0  0  0  0  0  0  0  0  0  0  0  0
   14.3227    1.5523   23.5747 H   0  0  0  0  0  0  0  0  0  0  0  0
   12.7304    2.7258   23.1894 O   0  0  0  0  0  0  0  0  0  0  0  0
   11.4027    2.6941   22.6858 C   0  0  0  0  0  0  0  0  0  0  0  0
   11.3938    2.4596   21.6086 H   0  0  0  0  0  0  0  0  0  0  0  0
   11.0123    3.7078   22.7935 H   0  0  0  0  0  0  0  0  0  0  0  0
   10.5302    1.6578   23.4222 C   0  0  0  0  0  0  0  0  0  0  0  0
   10.4074    1.9630   24.4709 H   0  0  0  0  0  0  0  0  0  0  0  0
    9.5368    1.6313   22.9646 H   0  0  0  0  0  0  0  0  0  0  0  0
    8.7879   -1.8957   22.9256 C   0  0  0  0  0  0  0  0  0  0  0  0
    9.4095   -2.3041   23.7216 H   0  0  0  0  0  0  0  0  0  0  0  0
    7.4940   -2.2759   22.7459 C   0  0  0  0  0  0  0  0  0  0  0  0
    6.9666   -2.9973   23.3611 H   0  0  0  0  0  0  0  0  0  0  0  0
    6.6831   -1.7493   21.6528 C   0  0  0  0  0  0  0  0  0  0  0  0
    5.5607   -2.1346   21.3727 O   0  0  0  0  0  0  0  0  0  0  0  0
    5.4519    0.6286   20.1459 C   0  0  0  0  0  0  0  0  0  0  0  0
    5.0085    0.5929   21.1404 H   0  0  0  0  0  0  0  0  0  0  0  0
    4.8349    1.3056   19.0874 C   0  0  0  0  0  0  0  0  0  0  0  0
    3.8899    1.8231   19.2205 H   0  0  0  0  0  0  0  0  0  0  0  0
  1  2  1  0
  2  3  2  0
  3  4  1  0
  4  5  1  0
  4  6  2  0
  6  7  1  0
  7  8  1  0
  8  9  2  0
  9 10  1  0
 10 11  1  0
 10 12  1  0
 10 13  1  0
 13 14  1  0
 14 15  1  0
 14 16  1  0
 14 17  1  0
 17 18  1  0
 17 19  1  0
 17 20  1  0
 20 21  1  0
 21 22  1  0
 21 23  1  0
 21 24  1  0
 24 25  1  0
 24 26  1  0
  9 27  1  0
 27 28  1  0
 27 29  2  0
 29 30  1  0
 29 31  1  0
 31 32  2  0
  6 33  1  0
 33 34  1  0
 33 35  2  0
 35 36  1  0
 35  2  1  0
 31  7  1  0
 24 13  1  0
M  END
>  <cnnaffinity>  (1) 
-4.80738

>  <filename>  (1) 
O=c1ccc(CN2CCOCC2)nn1-c1cccnc1

$$$$
