
     RDKit          3D

 35 37  0  0  0  0  0  0  0  0999 V2000
    4.8567    1.6398   16.8781 H   0  0  0  0  0  0  0  0  0  0  0  0
    5.4563    1.4324   17.7588 C   0  0  0  0  0  0  0  0  0  0  0  0
    6.6957    0.9729   17.5234 N   0  0  0  0  0  0  0  0  0  0  0  0
    7.4342    0.6652   18.5949 C   0  0  0  0  0  0  0  0  0  0  0  0
    8.4457    0.3092   18.3916 H   0  0  0  0  0  0  0  0  0  0  0  0
    6.9932    0.7555   19.9212 C   0  0  0  0  0  0  0  0  0  0  0  0
    7.8147    0.1147   21.0157 C   0  0  2  0  0  0  0  0  0  0  0  0
    8.6772   -0.3686   20.5380 H   0  0  0  0  0  0  0  0  0  0  0  0
    7.0587   -0.9091   21.7590 N   0  0  0  0  0  0  0  0  0  0  0  0
    6.3815   -1.9348   21.0948 C   0  0  0  0  0  0  0  0  0  0  0  0
    6.2511   -1.9003   19.8904 O   0  0  0  0  0  0  0  0  0  0  0  0
    5.9586   -2.9580   21.8755 N   0  0  0  0  0  0  0  0  0  0  0  0
    5.9818   -2.7483   22.8647 H   0  0  0  0  0  0  0  0  0  0  0  0
    5.6367   -4.2298   21.4433 C   0  0  0  0  0  0  0  0  0  0  0  0
    5.8796   -4.6797   20.1416 C   0  0  0  0  0  0  0  0  0  0  0  0
    6.1939   -3.9914   19.3758 H   0  0  0  0  0  0  0  0  0  0  0  0
    5.6410   -6.0197   19.8667 C   0  0  0  0  0  0  0  0  0  0  0  0
    5.8801   -6.4272   18.8834 H   0  0  0  0  0  0  0  0  0  0  0  0
    5.1296   -6.8786   20.7553 N   0  0  0  0  0  0  0  0  0  0  0  0
    4.8209   -6.4058   21.9665 C   0  0  0  0  0  0  0  0  0  0  0  0
    4.3347   -7.1055   22.6440 H   0  0  0  0  0  0  0  0  0  0  0  0
    5.0753   -5.1037   22.3731 C   0  0  0  0  0  0  0  0  0  0  0  0
    4.8313   -4.7739   23.3771 H   0  0  0  0  0  0  0  0  0  0  0  0
    6.9575   -0.6647   23.0929 C   0  0  0  0  0  0  0  0  0  0  0  0
    6.4430   -1.4179   23.9040 O   0  0  0  0  0  0  0  0  0  0  0  0
    7.5869    0.6639   23.4076 C   0  0  0  0  0  0  0  0  0  0  0  0
    6.7815    1.3430   23.7095 H   0  0  0  0  0  0  0  0  0  0  0  0
    8.2608    0.5331   24.2577 H   0  0  0  0  0  0  0  0  0  0  0  0
    8.2939    1.0931   22.1128 C   0  0  0  0  0  0  0  0  0  0  0  0
    8.0889    2.1347   21.8429 H   0  0  0  0  0  0  0  0  0  0  0  0
    9.3781    1.0033   22.2092 H   0  0  0  0  0  0  0  0  0  0  0  0
    5.7442    1.3410   20.1468 C   0  0  0  0  0  0  0  0  0  0  0  0
    5.3921    1.5448   21.1607 H   0  0  0  0  0  0  0  0  0  0  0  0
    4.9452    1.6528   19.0431 C   0  0  0  0  0  0  0  0  0  0  0  0
    3.9417    2.0451   19.1649 H   0  0  0  0  0  0  0  0  0  0  0  0
  1  2  1  0
  2  3  2  0
  3  4  1  0
  4  5  1  0
  4  6  2  0
  6  7  1  0
  7  8  1  6
  7  9  1  0
  9 10  1  0
 10 11  2  0
 10 12  1  0
 12 13  1  0
 12 14  1  0
 14 15  2  0
 15 16  1  0
 15 17  1  0
 17 18  1  0
 17 19  2  0
 19 20  1  0
 20 21  1  0
 20 22  2  0
 22 23  1  0
  9 24  1  0
 24 25  2  0
 24 26  1  0
 26 27  1  0
 26 28  1  0
 26 29  1  0
 29 30  1  0
 29 31  1  0
  6 32  1  0
 32 33  1  0
 32 34  2  0
 34 35  1  0
 34  2  1  0
 29  7  1  0
 22 14  1  0
M  END
>  <cnnaffinity>  (1) 
-5.24706

>  <filename>  (1) 
O=C1CC[C@H](c2cccnc2)N1C(=O)Nc1ccncc1

$$$$
