
     RDKit          3D

 34 36  0  0  0  0  0  0  0  0999 V2000
    4.9207    1.7847   16.9923 H   0  0  0  0  0  0  0  0  0  0  0  0
    5.4012    1.2958   17.8368 C   0  0  0  0  0  0  0  0  0  0  0  0
    6.5631    0.6747   17.5782 N   0  0  0  0  0  0  0  0  0  0  0  0
    7.1738    0.0609   18.5983 C   0  0  0  0  0  0  0  0  0  0  0  0
    8.1125   -0.4381   18.3706 H   0  0  0  0  0  0  0  0  0  0  0  0
    6.6601    0.0040   19.9079 C   0  0  0  0  0  0  0  0  0  0  0  0
    7.3455   -0.6973   20.9536 N   0  0  0  0  0  0  0  0  0  0  0  0
    6.5631   -1.4342   21.8060 N   0  0  0  0  0  0  0  0  0  0  0  0
    7.1255   -2.0807   22.7992 C   0  0  0  0  0  0  0  0  0  0  0  0
    6.2195   -2.8577   23.7146 C   0  0  0  0  0  0  0  0  0  0  0  0
    5.1593   -3.6005   23.1766 C   0  0  0  0  0  0  0  0  0  0  0  0
    5.0143   -3.5691   22.1030 H   0  0  0  0  0  0  0  0  0  0  0  0
    4.3062   -4.3520   23.9879 C   0  0  0  0  0  0  0  0  0  0  0  0
    3.4760   -4.8945   23.5535 H   0  0  0  0  0  0  0  0  0  0  0  0
    4.5230   -4.3609   25.3679 C   0  0  0  0  0  0  0  0  0  0  0  0
    3.7246   -5.0597   26.2714 O   0  0  0  0  0  0  0  0  0  0  0  0
    2.6537   -5.7930   25.8837 C   0  0  0  0  0  0  0  0  0  0  0  0
    2.1251   -6.3187   26.9813 F   0  0  0  0  0  0  0  0  0  0  0  0
    1.7068   -5.0646   25.2634 F   0  0  0  0  0  0  0  0  0  0  0  0
    2.9705   -6.7940   25.0418 F   0  0  0  0  0  0  0  0  0  0  0  0
    5.5820   -3.6440   25.9359 C   0  0  0  0  0  0  0  0  0  0  0  0
    5.7379   -3.6713   27.0103 H   0  0  0  0  0  0  0  0  0  0  0  0
    6.4249   -2.9026   25.1120 C   0  0  0  0  0  0  0  0  0  0  0  0
    7.2738   -2.3738   25.5339 H   0  0  0  0  0  0  0  0  0  0  0  0
    8.6236   -2.0907   23.0284 C   0  0  0  0  0  0  0  0  0  0  0  0
    9.1919   -2.7230   23.9091 O   0  0  0  0  0  0  0  0  0  0  0  0
    9.3707   -1.2601   22.0873 C   0  0  0  0  0  0  0  0  0  0  0  0
   10.4469   -1.2174   22.2153 H   0  0  0  0  0  0  0  0  0  0  0  0
    8.7144   -0.6117   21.1095 C   0  0  0  0  0  0  0  0  0  0  0  0
    9.2200    0.0346   20.3925 H   0  0  0  0  0  0  0  0  0  0  0  0
    5.4405    0.6446   20.1666 C   0  0  0  0  0  0  0  0  0  0  0  0
    5.0316    0.5972   21.1770 H   0  0  0  0  0  0  0  0  0  0  0  0
    4.8131    1.3118   19.1090 C   0  0  0  0  0  0  0  0  0  0  0  0
    3.8792    1.8411   19.2597 H   0  0  0  0  0  0  0  0  0  0  0  0
  1  2  1  0
  2  3  2  0
  3  4  1  0
  4  5  1  0
  4  6  2  0
  6  7  1  0
  7  8  1  0
  8  9  2  0
  9 10  1  0
 10 11  2  0
 11 12  1  0
 11 13  1  0
 13 14  1  0
 13 15  2  0
 15 16  1  0
 16 17  1  0
 17 18  1  0
 17 19  1  0
 17 20  1  0
 15 21  1  0
 21 22  1  0
 21 23  2  0
 23 24  1  0
  9 25  1  0
 25 26  2  0
 25 27  1  0
 27 28  1  0
 27 29  2  0
 29 30  1  0
  6 31  1  0
 31 32  1  0
 31 33  2  0
 33 34  1  0
 33  2  1  0
 29  7  1  0
 23 10  1  0
M  END
>  <cnnaffinity>  (1) 
-5.45665

>  <filename>  (1) 
O=c1ccn(-c2cccnc2)nc1-c1ccc(OC(F)(F)F)cc1

$$$$
