
     RDKit          3D

 28 29  0  0  0  0  0  0  0  0999 V2000
    4.9472    2.0296   16.8564 H   0  0  0  0  0  0  0  0  0  0  0  0
    5.3495    1.4308   17.6717 C   0  0  0  0  0  0  0  0  0  0  0  0
    6.4880    0.7687   17.4061 N   0  0  0  0  0  0  0  0  0  0  0  0
    7.0277    0.0548   18.4006 C   0  0  0  0  0  0  0  0  0  0  0  0
    7.9912   -0.4188   18.2083 H   0  0  0  0  0  0  0  0  0  0  0  0
    6.4412   -0.0876   19.6769 C   0  0  0  0  0  0  0  0  0  0  0  0
    7.1371   -0.8038   20.7211 N   0  0  0  0  0  0  0  0  0  0  0  0
    8.3709   -0.2879   21.0654 C   0  0  0  0  0  0  0  0  0  0  0  0
    8.7301    0.5705   20.5121 H   0  0  0  0  0  0  0  0  0  0  0  0
    9.1267   -0.7830   22.0877 C   0  0  0  0  0  0  0  0  0  0  0  0
   10.3422   -0.1638   22.2367 O   0  0  0  0  0  0  0  0  0  0  0  0
   11.2051   -0.5559   23.2768 C   0  0  0  0  0  0  0  0  0  0  0  0
   12.2168   -0.2661   22.9823 H   0  0  0  0  0  0  0  0  0  0  0  0
   11.1693   -1.6395   23.4311 H   0  0  0  0  0  0  0  0  0  0  0  0
   10.9070    0.1628   24.5869 C   0  0  0  0  0  0  0  0  0  0  0  0
   11.9043   -0.1161   25.4451 F   0  0  0  0  0  0  0  0  0  0  0  0
   10.8541    1.4907   24.4298 F   0  0  0  0  0  0  0  0  0  0  0  0
    9.7534   -0.2306   25.1522 F   0  0  0  0  0  0  0  0  0  0  0  0
    8.6070   -1.8654   22.8670 C   0  0  0  0  0  0  0  0  0  0  0  0
    9.1507   -2.2647   23.7255 H   0  0  0  0  0  0  0  0  0  0  0  0
    7.3834   -2.3856   22.5474 C   0  0  0  0  0  0  0  0  0  0  0  0
    6.9192   -3.1925   23.0987 H   0  0  0  0  0  0  0  0  0  0  0  0
    6.5495   -1.9075   21.4498 C   0  0  0  0  0  0  0  0  0  0  0  0
    5.4790   -2.4106   21.1587 O   0  0  0  0  0  0  0  0  0  0  0  0
    5.2539    0.6058   19.9393 C   0  0  0  0  0  0  0  0  0  0  0  0
    4.8092    0.5719   20.9332 H   0  0  0  0  0  0  0  0  0  0  0  0
    4.7028    1.3812   18.9104 C   0  0  0  0  0  0  0  0  0  0  0  0
    3.8066    1.9723   19.0646 H   0  0  0  0  0  0  0  0  0  0  0  0
  1  2  1  0
  2  3  2  0
  3  4  1  0
  4  5  1  0
  4  6  2  0
  6  7  1  0
  7  8  1  0
  8  9  1  0
  8 10  2  0
 10 11  1  0
 11 12  1  0
 12 13  1  0
 12 14  1  0
 12 15  1  0
 15 16  1  0
 15 17  1  0
 15 18  1  0
 10 19  1  0
 19 20  1  0
 19 21  2  0
 21 22  1  0
 21 23  1  0
 23 24  2  0
  6 25  1  0
 25 26  1  0
 25 27  2  0
 27 28  1  0
 27  2  1  0
 23  7  1  0
M  END
>  <cnnaffinity>  (1) 
-5.4257

>  <filename>  (1) 
O=c1ccc(OCC(F)(F)F)cn1-c1cccnc1

$$$$
