
     RDKit          3D

 30 32  0  0  0  0  0  0  0  0999 V2000
    4.8777    2.1288   16.9366 H   0  0  0  0  0  0  0  0  0  0  0  0
    5.3413    1.4700   17.6622 C   0  0  0  0  0  0  0  0  0  0  0  0
    6.5246    0.9074   17.3551 N   0  0  0  0  0  0  0  0  0  0  0  0
    7.1060    0.1339   18.2826 C   0  0  0  0  0  0  0  0  0  0  0  0
    8.0762   -0.2977   18.0536 H   0  0  0  0  0  0  0  0  0  0  0  0
    6.5282   -0.1385   19.5345 C   0  0  0  0  0  0  0  0  0  0  0  0
    7.2745   -0.9218   20.5286 C   0  0  0  0  0  0  0  0  0  0  0  0
    8.5791   -0.7227   20.5585 N   0  0  0  0  0  0  0  0  0  0  0  0
    9.3639   -1.3365   21.5067 N   0  0  0  0  0  0  0  0  0  0  0  0
   10.6155   -0.7745   21.7479 C   0  0  0  0  0  0  0  0  0  0  0  0
   11.7398   -1.5850   21.9311 C   0  0  0  0  0  0  0  0  0  0  0  0
   11.6237   -2.6610   21.9068 H   0  0  0  0  0  0  0  0  0  0  0  0
   12.9851   -1.0088   22.1799 C   0  0  0  0  0  0  0  0  0  0  0  0
   13.8581   -1.6363   22.3116 H   0  0  0  0  0  0  0  0  0  0  0  0
   13.0880    0.3745   22.3050 C   0  0  0  0  0  0  0  0  0  0  0  0
   14.7215    1.1576   22.7908 Br  0  0  0  0  0  0  0  0  0  0  0  0
   11.9785    1.1892   22.1206 C   0  0  0  0  0  0  0  0  0  0  0  0
   12.0887    2.2635   22.2137 H   0  0  0  0  0  0  0  0  0  0  0  0
   10.7412    0.6168   21.8501 C   0  0  0  0  0  0  0  0  0  0  0  0
    9.8660    1.2481   21.7557 H   0  0  0  0  0  0  0  0  0  0  0  0
    8.8389   -2.1598   22.5130 C   0  0  0  0  0  0  0  0  0  0  0  0
    9.5173   -2.5740   23.2546 H   0  0  0  0  0  0  0  0  0  0  0  0
    7.4878   -2.3943   22.5795 C   0  0  0  0  0  0  0  0  0  0  0  0
    7.0524   -2.9697   23.3895 H   0  0  0  0  0  0  0  0  0  0  0  0
    6.6443   -1.8326   21.5308 C   0  0  0  0  0  0  0  0  0  0  0  0
    5.4885   -2.2462   21.4485 O   0  0  0  0  0  0  0  0  0  0  0  0
    5.2828    0.4178   19.8391 C   0  0  0  0  0  0  0  0  0  0  0  0
    4.8109    0.2652   20.8099 H   0  0  0  0  0  0  0  0  0  0  0  0
    4.6944    1.2382   18.8808 C   0  0  0  0  0  0  0  0  0  0  0  0
    3.7471    1.7277   19.0749 H   0  0  0  0  0  0  0  0  0  0  0  0
  1  2  1  0
  2  3  2  0
  3  4  1  0
  4  5  1  0
  4  6  2  0
  6  7  1  0
  7  8  2  0
  8  9  1  0
  9 10  1  0
 10 11  2  0
 11 12  1  0
 11 13  1  0
 13 14  1  0
 13 15  2  0
 15 16  1  0
 15 17  1  0
 17 18  1  0
 17 19  2  0
 19 20  1  0
  9 21  1  0
 21 22  1  0
 21 23  2  0
 23 24  1  0
 23 25  1  0
 25 26  2  0
  6 27  1  0
 27 28  1  0
 27 29  2  0
 29 30  1  0
 29  2  1  0
 25  7  1  0
 19 10  1  0
M  END
>  <cnnaffinity>  (1) 
-5.59237

>  <filename>  (1) 
O=c1ccn(-c2ccc(Br)cc2)nc1-c1cccnc1

$$$$
