
     RDKit          3D

 37 40  0  0  0  0  0  0  0  0999 V2000
    4.9283    1.8040   16.9924 H   0  0  0  0  0  0  0  0  0  0  0  0
    5.3922    1.2974   17.8332 C   0  0  0  0  0  0  0  0  0  0  0  0
    6.5551    0.6759   17.5766 N   0  0  0  0  0  0  0  0  0  0  0  0
    7.1734    0.0681   18.5955 C   0  0  0  0  0  0  0  0  0  0  0  0
    8.1261   -0.4124   18.3661 H   0  0  0  0  0  0  0  0  0  0  0  0
    6.6617    0.0422   19.9144 C   0  0  0  0  0  0  0  0  0  0  0  0
    7.3402   -0.6466   20.9772 N   0  0  0  0  0  0  0  0  0  0  0  0
    7.7216   -1.9651   20.9914 C   0  0  0  0  0  0  0  0  0  0  0  0
    7.4172   -2.6554   20.2260 H   0  0  0  0  0  0  0  0  0  0  0  0
    8.3874   -2.2639   22.0671 N   0  0  0  0  0  0  0  0  0  0  0  0
    8.4386   -1.1274   22.8350 N   0  0  0  0  0  0  0  0  0  0  0  0
    7.7938   -0.1824   22.2006 C   0  0  0  0  0  0  0  0  0  0  0  0
    7.4896    1.1493   22.7867 C   0  0  0  0  0  0  0  0  0  0  0  0
    7.1633    1.8377   22.0039 H   0  0  0  0  0  0  0  0  0  0  0  0
    8.4004    1.5647   23.2232 H   0  0  0  0  0  0  0  0  0  0  0  0
    6.4153    1.1071   23.8865 C   0  0  0  0  0  0  0  0  0  0  0  0
    6.7409    0.5386   24.7620 H   0  0  0  0  0  0  0  0  0  0  0  0
    5.4756    0.6792   23.5273 H   0  0  0  0  0  0  0  0  0  0  0  0
    6.1262    2.4529   24.3240 N   0  0  0  0  0  0  0  0  0  0  0  0
    6.9502    3.1564   25.1892 C   0  0  0  0  0  0  0  0  0  0  0  0
    7.8404    2.6554   25.8396 O   0  0  0  0  0  0  0  0  0  0  0  0
    6.5199    4.5778   25.1146 C   0  0  0  0  0  0  0  0  0  0  0  0
    6.9927    5.6987   25.7929 C   0  0  0  0  0  0  0  0  0  0  0  0
    7.7894    5.6170   26.5273 H   0  0  0  0  0  0  0  0  0  0  0  0
    6.4101    6.9309   25.4876 C   0  0  0  0  0  0  0  0  0  0  0  0
    6.7598    7.8279   25.9894 H   0  0  0  0  0  0  0  0  0  0  0  0
    5.3810    7.0266   24.5297 C   0  0  0  0  0  0  0  0  0  0  0  0
    4.9516    7.9989   24.3077 H   0  0  0  0  0  0  0  0  0  0  0  0
    4.9116    5.8935   23.8569 C   0  0  0  0  0  0  0  0  0  0  0  0
    4.1231    5.9738   23.1133 H   0  0  0  0  0  0  0  0  0  0  0  0
    5.4990    4.6675   24.1659 C   0  0  0  0  0  0  0  0  0  0  0  0
    5.2658    3.2926   23.6304 C   0  0  0  0  0  0  0  0  0  0  0  0
    4.5055    2.8999   22.7724 O   0  0  0  0  0  0  0  0  0  0  0  0
    5.4459    0.6902   20.1616 C   0  0  0  0  0  0  0  0  0  0  0  0
    5.0253    0.7049   21.1682 H   0  0  0  0  0  0  0  0  0  0  0  0
    4.7954    1.3220   19.0960 C   0  0  0  0  0  0  0  0  0  0  0  0
    3.8600    1.8488   19.2513 H   0  0  0  0  0  0  0  0  0  0  0  0
  1  2  1  0
  2  3  2  0
  3  4  1  0
  4  5  1  0
  4  6  2  0
  6  7  1  0
  7  8  1  0
  8  9  1  0
  8 10  2  0
 10 11  1  0
 11 12  2  0
 12 13  1  0
 13 14  1  0
 13 15  1  0
 13 16  1  0
 16 17  1  0
 16 18  1  0
 16 19  1  0
 19 20  1  0
 20 21  2  0
 20 22  1  0
 22 23  2  0
 23 24  1  0
 23 25  1  0
 25 26  1  0
 25 27  2  0
 27 28  1  0
 27 29  1  0
 29 30  1  0
 29 31  2  0
 31 32  1  0
 32 33  2  0
  6 34  1  0
 34 35  1  0
 34 36  2  0
 36 37  1  0
 36  2  1  0
 12  7  1  0
 32 19  1  0
 31 22  1  0
M  END
>  <cnnaffinity>  (1) 
-5.25612

>  <filename>  (1) 
O=C1c2ccccc2C(=O)N1CCc1nncn1-c1cccnc1

$$$$
