
     RDKit          3D

 33 36  0  0  0  0  0  0  0  0999 V2000
    4.9233    1.7935   16.9939 H   0  0  0  0  0  0  0  0  0  0  0  0
    5.3932    1.2912   17.8345 C   0  0  0  0  0  0  0  0  0  0  0  0
    6.5490    0.6663   17.5653 N   0  0  0  0  0  0  0  0  0  0  0  0
    7.1714    0.0542   18.5761 C   0  0  0  0  0  0  0  0  0  0  0  0
    8.1279   -0.4177   18.3614 H   0  0  0  0  0  0  0  0  0  0  0  0
    6.6651    0.0119   19.8917 C   0  0  0  0  0  0  0  0  0  0  0  0
    7.3642   -0.6615   20.9295 N   0  0  0  0  0  0  0  0  0  0  0  0
    6.7702   -1.4350   21.9167 C   0  0  0  0  0  0  0  0  0  0  0  0
    5.7057   -1.5996   21.9362 H   0  0  0  0  0  0  0  0  0  0  0  0
    7.7329   -1.9317   22.7278 C   0  0  0  0  0  0  0  0  0  0  0  0
    7.6138   -2.7790   23.9194 C   0  0  0  0  0  0  0  0  0  0  0  0
    8.7133   -3.5359   24.4221 C   0  0  0  0  0  0  0  0  0  0  0  0
    9.6740   -3.4884   23.9147 H   0  0  0  0  0  0  0  0  0  0  0  0
    8.5783   -4.3491   25.5390 C   0  0  0  0  0  0  0  0  0  0  0  0
    9.4239   -4.9210   25.9186 H   0  0  0  0  0  0  0  0  0  0  0  0
    7.3225   -4.4290   26.1888 C   0  0  0  0  0  0  0  0  0  0  0  0
    6.8214   -5.1413   27.3318 C   0  0  0  0  0  0  0  0  0  0  0  0
    7.4010   -5.8132   27.9497 H   0  0  0  0  0  0  0  0  0  0  0  0
    5.5024   -4.8125   27.4709 C   0  0  0  0  0  0  0  0  0  0  0  0
    4.7706   -5.1332   28.2046 H   0  0  0  0  0  0  0  0  0  0  0  0
    5.1485   -3.9287   26.4707 N   0  0  0  0  0  0  0  0  0  0  0  0
    4.2459   -3.5109   26.3248 H   0  0  0  0  0  0  0  0  0  0  0  0
    6.2395   -3.6751   25.6761 C   0  0  0  0  0  0  0  0  0  0  0  0
    6.3680   -2.8502   24.5541 C   0  0  0  0  0  0  0  0  0  0  0  0
    5.5323   -2.2659   24.1846 H   0  0  0  0  0  0  0  0  0  0  0  0
    8.9385   -1.4710   22.2111 N   0  0  0  0  0  0  0  0  0  0  0  0
    9.8746   -1.5532   22.5576 H   0  0  0  0  0  0  0  0  0  0  0  0
    8.7568   -0.6684   21.1212 C   0  0  0  0  0  0  0  0  0  0  0  0
    9.6405   -0.1153   20.4997 O   0  0  0  0  0  0  0  0  0  0  0  0
    5.4465    0.6462   20.1581 C   0  0  0  0  0  0  0  0  0  0  0  0
    5.0342    0.6369   21.1687 H   0  0  0  0  0  0  0  0  0  0  0  0
    4.8103    1.3071   19.1057 C   0  0  0  0  0  0  0  0  0  0  0  0
    3.8809    1.8376   19.2595 H   0  0  0  0  0  0  0  0  0  0  0  0
  1  2  1  0
  2  3  2  0
  3  4  1  0
  4  5  1  0
  4  6  2  0
  6  7  1  0
  7  8  1  0
  8  9  1  0
  8 10  2  0
 10 11  1  0
 11 12  2  0
 12 13  1  0
 12 14  1  0
 14 15  1  0
 14 16  2  0
 16 17  1  0
 17 18  1  0
 17 19  2  0
 19 20  1  0
 19 21  1  0
 21 22  1  0
 21 23  1  0
 23 24  2  0
 24 25  1  0
 10 26  1  0
 26 27  1  0
 26 28  1  0
 28 29  2  0
  6 30  1  0
 30 31  1  0
 30 32  2  0
 32 33  1  0
 32  2  1  0
 28  7  1  0
 24 11  1  0
 23 16  1  0
M  END
>  <cnnaffinity>  (1) 
-5.45932

>  <filename>  (1) 
O=c1[nH]c(-c2ccc3cc[nH]c3c2)cn1-c1cccnc1

$$$$
