
     RDKit          3D

 33 35  0  0  0  0  0  0  0  0999 V2000
   11.3997   -2.6095   20.8459 H   0  0  0  0  0  0  0  0  0  0  0  0
   11.5055   -1.9314   21.5220 O   0  0  0  0  0  0  0  0  0  0  0  0
   10.4064   -2.0605   22.4154 C   0  0  1  0  0  0  0  0  0  0  0  0
   10.4108   -3.0556   22.8960 H   0  0  0  0  0  0  0  0  0  0  0  0
   10.5937   -1.0223   23.5208 C   0  0  0  0  0  0  0  0  0  0  0  0
   10.1184   -1.2899   24.8097 C   0  0  0  0  0  0  0  0  0  0  0  0
    9.7876   -2.2943   25.0682 H   0  0  0  0  0  0  0  0  0  0  0  0
   10.0989   -0.2879   25.7848 C   0  0  0  0  0  0  0  0  0  0  0  0
    9.6998   -0.4976   26.7726 H   0  0  0  0  0  0  0  0  0  0  0  0
   10.5922    0.9833   25.4809 C   0  0  0  0  0  0  0  0  0  0  0  0
   10.5845    1.7549   26.2405 H   0  0  0  0  0  0  0  0  0  0  0  0
   11.1289    1.2458   24.2175 C   0  0  0  0  0  0  0  0  0  0  0  0
   11.5362    2.2242   23.9746 H   0  0  0  0  0  0  0  0  0  0  0  0
   11.1426    0.2426   23.2487 C   0  0  0  0  0  0  0  0  0  0  0  0
   11.6013    0.4136   22.2787 H   0  0  0  0  0  0  0  0  0  0  0  0
    9.0776   -1.8836   21.6916 C   0  0  0  0  0  0  0  0  0  0  0  0
    8.7550   -0.9664   20.7454 C   0  0  0  0  0  0  0  0  0  0  0  0
    9.3807   -0.2477   20.2405 H   0  0  0  0  0  0  0  0  0  0  0  0
    7.3862   -1.0320   20.4884 N   0  0  0  0  0  0  0  0  0  0  0  0
    6.6825   -0.2094   19.5592 C   0  0  0  0  0  0  0  0  0  0  0  0
    7.1899    0.0026   18.2601 C   0  0  0  0  0  0  0  0  0  0  0  0
    8.1015   -0.5142   17.9554 H   0  0  0  0  0  0  0  0  0  0  0  0
    6.6008    0.7888   17.3521 N   0  0  0  0  0  0  0  0  0  0  0  0
    5.4703    1.4193   17.7119 C   0  0  0  0  0  0  0  0  0  0  0  0
    5.0175    2.0602   16.9567 H   0  0  0  0  0  0  0  0  0  0  0  0
    4.8808    1.2637   18.9703 C   0  0  0  0  0  0  0  0  0  0  0  0
    3.9774    1.8147   19.2011 H   0  0  0  0  0  0  0  0  0  0  0  0
    5.4742    0.4116   19.9079 C   0  0  0  0  0  0  0  0  0  0  0  0
    5.0228    0.2226   20.8806 H   0  0  0  0  0  0  0  0  0  0  0  0
    6.8040   -2.0105   21.3092 C   0  0  0  0  0  0  0  0  0  0  0  0
    5.6474   -2.3691   21.4029 O   0  0  0  0  0  0  0  0  0  0  0  0
    7.8710   -2.5221   22.0099 N   0  0  0  0  0  0  0  0  0  0  0  0
    7.6382   -3.2081   22.7041 H   0  0  0  0  0  0  0  0  0  0  0  0
  1  2  1  0
  2  3  1  0
  3  4  1  1
  3  5  1  0
  5  6  2  0
  6  7  1  0
  6  8  1  0
  8  9  1  0
  8 10  2  0
 10 11  1  0
 10 12  1  0
 12 13  1  0
 12 14  2  0
 14 15  1  0
  3 16  1  0
 16 17  2  0
 17 18  1  0
 17 19  1  0
 19 20  1  0
 20 21  2  0
 21 22  1  0
 21 23  1  0
 23 24  2  0
 24 25  1  0
 24 26  1  0
 26 27  1  0
 26 28  2  0
 28 29  1  0
 19 30  1  0
 30 31  2  0
 30 32  1  0
 32 33  1  0
 14  5  1  0
 32 16  1  0
 28 20  1  0
M  END
>  <cnnaffinity>  (1) 
-5.41534

>  <filename>  (1) 
O=c1[nH]c([C@@H](O)c2ccccc2)cn1-c1cccnc1

$$$$
