
     RDKit          3D

 32 34  0  0  0  0  0  0  0  0999 V2000
    6.6588   -0.9854   24.7302 H   0  0  0  0  0  0  0  0  0  0  0  0
    7.0121   -1.1662   25.6167 O   0  0  0  0  0  0  0  0  0  0  0  0
    6.9806   -2.5063   25.8067 C   0  0  0  0  0  0  0  0  0  0  0  0
    7.2723   -3.0243   27.0677 C   0  0  0  0  0  0  0  0  0  0  0  0
    7.5931   -2.3134   27.8167 H   0  0  0  0  0  0  0  0  0  0  0  0
    7.1434   -4.4010   27.2945 C   0  0  0  0  0  0  0  0  0  0  0  0
    7.2828   -5.0409   28.8960 Cl  0  0  0  0  0  0  0  0  0  0  0  0
    6.8196   -5.2853   26.2644 C   0  0  0  0  0  0  0  0  0  0  0  0
    6.7598   -6.3540   26.4573 H   0  0  0  0  0  0  0  0  0  0  0  0
    6.5827   -4.7707   24.9881 C   0  0  0  0  0  0  0  0  0  0  0  0
    6.3012   -5.4071   24.1560 H   0  0  0  0  0  0  0  0  0  0  0  0
    6.6790   -3.3996   24.7504 C   0  0  0  0  0  0  0  0  0  0  0  0
    6.3687   -2.9443   23.4545 O   0  0  0  0  0  0  0  0  0  0  0  0
    7.1952   -2.0107   22.8694 N   0  0  0  0  0  0  0  0  0  0  0  0
    6.5883   -1.3871   21.8505 N   0  0  0  0  0  0  0  0  0  0  0  0
    7.3282   -0.6858   21.0230 C   0  0  0  0  0  0  0  0  0  0  0  0
    6.5961   -0.0119   19.9112 C   0  0  0  0  0  0  0  0  0  0  0  0
    7.1282    0.0233   18.6079 C   0  0  0  0  0  0  0  0  0  0  0  0
    8.0885   -0.4519   18.4064 H   0  0  0  0  0  0  0  0  0  0  0  0
    6.5415    0.6408   17.5793 N   0  0  0  0  0  0  0  0  0  0  0  0
    5.3918    1.2855   17.8213 C   0  0  0  0  0  0  0  0  0  0  0  0
    4.9566    1.8281   16.9842 H   0  0  0  0  0  0  0  0  0  0  0  0
    4.7696    1.3092   19.0731 C   0  0  0  0  0  0  0  0  0  0  0  0
    3.8580    1.8779   19.2106 H   0  0  0  0  0  0  0  0  0  0  0  0
    5.3674    0.6301   20.1339 C   0  0  0  0  0  0  0  0  0  0  0  0
    4.9136    0.6074   21.1250 H   0  0  0  0  0  0  0  0  0  0  0  0
    8.8374   -0.5636   21.2034 C   0  0  0  0  0  0  0  0  0  0  0  0
    9.5619    0.1548   20.5171 O   0  0  0  0  0  0  0  0  0  0  0  0
    9.3923   -1.3917   22.2708 C   0  0  0  0  0  0  0  0  0  0  0  0
   10.4636   -1.3536   22.4103 H   0  0  0  0  0  0  0  0  0  0  0  0
    8.5571   -2.1257   23.0253 C   0  0  0  0  0  0  0  0  0  0  0  0
    8.8643   -2.7987   23.8224 H   0  0  0  0  0  0  0  0  0  0  0  0
  1  2  1  0
  2  3  1  0
  3  4  2  0
  4  5  1  0
  4  6  1  0
  6  7  1  0
  6  8  2  0
  8  9  1  0
  8 10  1  0
 10 11  1  0
 10 12  2  0
 12 13  1  0
 13 14  1  0
 14 15  1  0
 15 16  2  0
 16 17  1  0
 17 18  2  0
 18 19  1  0
 18 20  1  0
 20 21  2  0
 21 22  1  0
 21 23  1  0
 23 24  1  0
 23 25  2  0
 25 26  1  0
 16 27  1  0
 27 28  2  0
 27 29  1  0
 29 30  1  0
 29 31  2  0
 31 32  1  0
 12  3  1  0
 31 14  1  0
 25 17  1  0
M  END
>  <cnnaffinity>  (1) 
-5.37037

>  <filename>  (1) 
O=c1ccn(Oc2ccc(Cl)cc2O)nc1-c1cccnc1

$$$$
