
     RDKit          3D

 34 36  0  0  0  0  0  0  0  0999 V2000
   12.1160   -2.1838   22.2781 H   0  0  0  0  0  0  0  0  0  0  0  0
   12.6359   -1.3781   22.1658 O   0  0  0  0  0  0  0  0  0  0  0  0
   11.7536   -0.3622   22.0264 C   0  0  0  0  0  0  0  0  0  0  0  0
   12.2647    0.9083   21.7968 C   0  0  0  0  0  0  0  0  0  0  0  0
   13.3380    1.0481   21.7977 H   0  0  0  0  0  0  0  0  0  0  0  0
   11.3874    1.9444   21.5107 C   0  0  0  0  0  0  0  0  0  0  0  0
   11.8621    3.1560   21.1443 O   0  0  0  0  0  0  0  0  0  0  0  0
   12.8204    3.0713   21.0891 H   0  0  0  0  0  0  0  0  0  0  0  0
   10.0049    1.7577   21.5852 C   0  0  0  0  0  0  0  0  0  0  0  0
    9.3544    2.6041   21.3925 H   0  0  0  0  0  0  0  0  0  0  0  0
    9.4960    0.4935   21.9130 C   0  0  0  0  0  0  0  0  0  0  0  0
    7.9998    0.2862   22.0629 C   0  0  2  0  0  0  0  0  0  0  0  0
    7.5355    1.2714   21.9350 H   0  0  0  0  0  0  0  0  0  0  0  0
    7.5768   -0.2639   23.4552 C   0  0  0  0  0  0  0  0  0  0  0  0
    7.0755    0.5070   24.0585 H   0  0  0  0  0  0  0  0  0  0  0  0
    8.4372   -0.6169   24.0448 H   0  0  0  0  0  0  0  0  0  0  0  0
    6.6880   -1.3606   23.1432 N   0  0  0  0  0  0  0  0  0  0  0  0
    6.0900   -1.8736   23.7710 H   0  0  0  0  0  0  0  0  0  0  0  0
    6.5246   -1.6689   21.8353 C   0  0  0  0  0  0  0  0  0  0  0  0
    5.8164   -2.5727   21.4401 O   0  0  0  0  0  0  0  0  0  0  0  0
    7.3974   -0.7011   21.0142 C   0  0  1  0  0  0  0  0  0  0  0  0
    8.1796   -1.3296   20.5694 H   0  0  0  0  0  0  0  0  0  0  0  0
    6.6593   -0.0044   19.8696 C   0  0  0  0  0  0  0  0  0  0  0  0
    7.1737    0.0686   18.5577 C   0  0  0  0  0  0  0  0  0  0  0  0
    8.1302   -0.4025   18.3223 H   0  0  0  0  0  0  0  0  0  0  0  0
    6.5657    0.6960   17.5428 N   0  0  0  0  0  0  0  0  0  0  0  0
    5.4006    1.3079   17.8072 C   0  0  0  0  0  0  0  0  0  0  0  0
    4.9256    1.8155   16.9708 H   0  0  0  0  0  0  0  0  0  0  0  0
    4.8021    1.3141   19.0718 C   0  0  0  0  0  0  0  0  0  0  0  0
    3.8674    1.8476   19.2238 H   0  0  0  0  0  0  0  0  0  0  0  0
    5.4450    0.6469   20.1184 C   0  0  0  0  0  0  0  0  0  0  0  0
    5.0167    0.6382   21.1224 H   0  0  0  0  0  0  0  0  0  0  0  0
   10.3778   -0.5785   22.0997 C   0  0  0  0  0  0  0  0  0  0  0  0
   10.0232   -1.5829   22.3227 H   0  0  0  0  0  0  0  0  0  0  0  0
  1  2  1  0
  2  3  1  0
  3  4  2  0
  4  5  1  0
  4  6  1  0
  6  7  1  0
  7  8  1  0
  6  9  2  0
  9 10  1  0
  9 11  1  0
 11 12  1  0
 12 13  1  6
 12 14  1  0
 14 15  1  0
 14 16  1  0
 14 17  1  0
 17 18  1  0
 17 19  1  0
 19 20  2  0
 19 21  1  0
 21 22  1  6
 21 23  1  0
 23 24  2  0
 24 25  1  0
 24 26  1  0
 26 27  2  0
 27 28  1  0
 27 29  1  0
 29 30  1  0
 29 31  2  0
 31 32  1  0
 11 33  2  0
 33 34  1  0
 33  3  1  0
 21 12  1  0
 31 23  1  0
M  END
>  <cnnaffinity>  (1) 
-5.46566

>  <filename>  (1) 
O=C1NC[C@@H](c2cc(O)cc(O)c2)[C@@H]1c1cccnc1

$$$$
