
     RDKit          3D

 29 31  0  0  0  0  0  0  0  0999 V2000
    5.0139    1.8599   16.9398 H   0  0  0  0  0  0  0  0  0  0  0  0
    5.4883    1.3309   17.7646 C   0  0  0  0  0  0  0  0  0  0  0  0
    6.6663    0.7430   17.5005 N   0  0  0  0  0  0  0  0  0  0  0  0
    7.2670    0.0741   18.4907 C   0  0  0  0  0  0  0  0  0  0  0  0
    8.2249   -0.3790   18.2527 H   0  0  0  0  0  0  0  0  0  0  0  0
    6.7187   -0.0765   19.7810 C   0  0  0  0  0  0  0  0  0  0  0  0
    7.3754   -0.8469   20.7772 N   0  0  0  0  0  0  0  0  0  0  0  0
    6.8385   -1.7990   21.6711 C   0  0  0  0  0  0  0  0  0  0  0  0
    5.7059   -2.2337   21.6096 O   0  0  0  0  0  0  0  0  0  0  0  0
    7.9621   -2.1076   22.5870 C   0  0  0  0  0  0  0  0  0  0  0  0
    7.8647   -2.9216   23.8072 C   0  0  0  0  0  0  0  0  0  0  0  0
    6.6784   -2.9182   24.5662 C   0  0  0  0  0  0  0  0  0  0  0  0
    5.8442   -2.3089   24.2328 H   0  0  0  0  0  0  0  0  0  0  0  0
    6.5661   -3.6970   25.7195 C   0  0  0  0  0  0  0  0  0  0  0  0
    5.6654   -3.7056   26.3222 H   0  0  0  0  0  0  0  0  0  0  0  0
    7.6310   -4.5022   26.1073 C   0  0  0  0  0  0  0  0  0  0  0  0
    7.5281   -5.2780   27.1931 F   0  0  0  0  0  0  0  0  0  0  0  0
    8.8198   -4.5051   25.3653 C   0  0  0  0  0  0  0  0  0  0  0  0
    9.8371   -5.2839   25.7533 F   0  0  0  0  0  0  0  0  0  0  0  0
    8.9508   -3.7072   24.2366 C   0  0  0  0  0  0  0  0  0  0  0  0
    9.8985   -3.7231   23.7033 H   0  0  0  0  0  0  0  0  0  0  0  0
    9.0384   -1.4327   22.1117 C   0  0  0  0  0  0  0  0  0  0  0  0
   10.0362   -1.4019   22.5240 H   0  0  0  0  0  0  0  0  0  0  0  0
    8.7625   -0.7655   20.9238 N   0  0  0  0  0  0  0  0  0  0  0  0
    9.1251    0.1769   20.7718 H   0  0  0  0  0  0  0  0  0  0  0  0
    5.5062    0.5755   20.0519 C   0  0  0  0  0  0  0  0  0  0  0  0
    5.0848    0.5411   21.0529 H   0  0  0  0  0  0  0  0  0  0  0  0
    4.8789    1.2852   19.0215 C   0  0  0  0  0  0  0  0  0  0  0  0
    3.9475    1.8171   19.1846 H   0  0  0  0  0  0  0  0  0  0  0  0
  1  2  1  0
  2  3  2  0
  3  4  1  0
  4  5  1  0
  4  6  2  0
  6  7  1  0
  7  8  1  0
  8  9  2  0
  8 10  1  0
 10 11  1  0
 11 12  2  0
 12 13  1  0
 12 14  1  0
 14 15  1  0
 14 16  2  0
 16 17  1  0
 16 18  1  0
 18 19  1  0
 18 20  2  0
 20 21  1  0
 10 22  2  0
 22 23  1  0
 22 24  1  0
 24 25  1  0
  6 26  1  0
 26 27  1  0
 26 28  2  0
 28 29  1  0
 28  2  1  0
 24  7  1  0
 20 11  1  0
M  END
>  <cnnaffinity>  (1) 
-5.32533

>  <filename>  (1) 
O=c1c(-c2ccc(F)c(F)c2)c[nH]n1-c1cccnc1

$$$$
