
     RDKit          3D

 36 38  0  0  0  0  0  0  0  0999 V2000
    4.9289    1.8200   16.9456 H   0  0  0  0  0  0  0  0  0  0  0  0
    5.3819    1.3280   17.8023 C   0  0  0  0  0  0  0  0  0  0  0  0
    6.5460    0.7018   17.5741 N   0  0  0  0  0  0  0  0  0  0  0  0
    7.1352    0.1052   18.6119 C   0  0  0  0  0  0  0  0  0  0  0  0
    8.0638   -0.4328   18.4191 H   0  0  0  0  0  0  0  0  0  0  0  0
    6.6207    0.1354   19.9141 C   0  0  0  0  0  0  0  0  0  0  0  0
    7.3751   -0.5657   20.9678 C   0  0  0  0  0  0  0  0  0  0  0  0
    8.0050   -1.6436   20.5792 N   0  0  0  0  0  0  0  0  0  0  0  0
    8.5142   -2.4533   21.5442 C   0  0  0  0  0  0  0  0  0  0  0  0
    8.7757   -3.6263   21.4141 O   0  0  0  0  0  0  0  0  0  0  0  0
    8.7464   -1.8835   22.8027 N   0  0  0  0  0  0  0  0  0  0  0  0
    9.1025   -2.6029   23.4020 H   0  0  0  0  0  0  0  0  0  0  0  0
    8.0628   -0.7967   23.2575 C   0  0  0  0  0  0  0  0  0  0  0  0
    8.0495   -0.5182   24.7369 C   0  0  0  0  0  0  0  0  0  0  0  0
    9.0057   -0.8483   25.1551 H   0  0  0  0  0  0  0  0  0  0  0  0
    8.0002    0.5667   24.8978 H   0  0  0  0  0  0  0  0  0  0  0  0
    6.8743   -1.1897   25.4379 C   0  0  0  0  0  0  0  0  0  0  0  0
    5.6179   -0.5645   25.4420 C   0  0  0  0  0  0  0  0  0  0  0  0
    5.5056    0.4071   24.9636 H   0  0  0  0  0  0  0  0  0  0  0  0
    4.5087   -1.1761   26.0229 C   0  0  0  0  0  0  0  0  0  0  0  0
    3.5451   -0.6746   25.9836 H   0  0  0  0  0  0  0  0  0  0  0  0
    4.6357   -2.4432   26.6155 C   0  0  0  0  0  0  0  0  0  0  0  0
    3.4466   -3.0831   27.3030 C   0  0  0  0  0  0  0  0  0  0  0  0
    3.4948   -4.4297   27.2661 F   0  0  0  0  0  0  0  0  0  0  0  0
    2.2754   -2.7162   26.7431 F   0  0  0  0  0  0  0  0  0  0  0  0
    3.3785   -2.7325   28.6032 F   0  0  0  0  0  0  0  0  0  0  0  0
    5.8840   -3.0863   26.6007 C   0  0  0  0  0  0  0  0  0  0  0  0
    5.9975   -4.0840   27.0181 H   0  0  0  0  0  0  0  0  0  0  0  0
    6.9879   -2.4626   26.0137 C   0  0  0  0  0  0  0  0  0  0  0  0
    7.9455   -2.9811   26.0065 H   0  0  0  0  0  0  0  0  0  0  0  0
    7.3698   -0.0992   22.3116 C   0  0  0  0  0  0  0  0  0  0  0  0
    6.8041    0.7828   22.5607 H   0  0  0  0  0  0  0  0  0  0  0  0
    5.3834    0.7500   20.1332 C   0  0  0  0  0  0  0  0  0  0  0  0
    4.9164    0.7159   21.1195 H   0  0  0  0  0  0  0  0  0  0  0  0
    4.7550    1.3615   19.0517 C   0  0  0  0  0  0  0  0  0  0  0  0
    3.8084    1.8739   19.1704 H   0  0  0  0  0  0  0  0  0  0  0  0
  1  2  1  0
  2  3  2  0
  3  4  1  0
  4  5  1  0
  4  6  2  0
  6  7  1  0
  7  8  2  0
  8  9  1  0
  9 10  2  0
  9 11  1  0
 11 12  1  0
 11 13  1  0
 13 14  1  0
 14 15  1  0
 14 16  1  0
 14 17  1  0
 17 18  2  0
 18 19  1  0
 18 20  1  0
 20 21  1  0
 20 22  2  0
 22 23  1  0
 23 24  1  0
 23 25  1  0
 23 26  1  0
 22 27  1  0
 27 28  1  0
 27 29  2  0
 29 30  1  0
 13 31  2  0
 31 32  1  0
  6 33  1  0
 33 34  1  0
 33 35  2  0
 35 36  1  0
 35  2  1  0
 31  7  1  0
 29 17  1  0
M  END
>  <cnnaffinity>  (1) 
-5.44602

>  <filename>  (1) 
O=c1nc(-c2cccnc2)cc(Cc2ccc(C(F)(F)F)cc2)[nH]1

$$$$
