
     RDKit          3D

 34 36  0  0  0  0  0  0  0  0999 V2000
    4.9257    1.6413   16.9263 H   0  0  0  0  0  0  0  0  0  0  0  0
    5.4346    1.2519   17.8047 C   0  0  0  0  0  0  0  0  0  0  0  0
    6.6297    0.6776   17.5923 N   0  0  0  0  0  0  0  0  0  0  0  0
    7.2754    0.1948   18.6617 C   0  0  0  0  0  0  0  0  0  0  0  0
    8.2401   -0.2719   18.4695 H   0  0  0  0  0  0  0  0  0  0  0  0
    6.7847    0.2487   19.9921 C   0  0  0  0  0  0  0  0  0  0  0  0
    7.5148   -0.3586   21.0658 N   0  0  0  0  0  0  0  0  0  0  0  0
    7.2645   -0.1418   22.4215 C   0  0  0  0  0  0  0  0  0  0  0  0
    6.5254    0.6582   22.9236 O   0  0  0  0  0  0  0  0  0  0  0  0
    8.0381   -0.9744   23.1617 O   0  0  0  0  0  0  0  0  0  0  0  0
    8.6304   -1.9598   22.3268 C   0  0  0  0  0  0  0  0  0  0  0  0
    8.3544   -2.9540   22.6856 H   0  0  0  0  0  0  0  0  0  0  0  0
    9.7180   -1.8551   22.3480 H   0  0  0  0  0  0  0  0  0  0  0  0
    8.0338   -1.7119   20.9387 C   0  0  1  0  0  0  0  0  0  0  0  0
    8.8071   -1.7647   20.1598 H   0  0  0  0  0  0  0  0  0  0  0  0
    6.9737   -2.6445   20.5929 N   0  0  0  0  0  0  0  0  0  0  0  0
    6.7089   -2.3796   19.6501 H   0  0  0  0  0  0  0  0  0  0  0  0
    5.7552   -2.6317   21.4192 C   0  0  0  0  0  0  0  0  0  0  0  0
    5.3853   -1.6180   21.6293 H   0  0  0  0  0  0  0  0  0  0  0  0
    4.9942   -3.1277   20.8084 H   0  0  0  0  0  0  0  0  0  0  0  0
    5.9000   -3.4484   22.6974 C   0  0  0  0  0  0  0  0  0  0  0  0
    5.8217   -2.9400   24.0025 C   0  0  0  0  0  0  0  0  0  0  0  0
    5.6803   -1.8835   24.2083 H   0  0  0  0  0  0  0  0  0  0  0  0
    5.9657   -3.8133   25.0879 C   0  0  0  0  0  0  0  0  0  0  0  0
    5.9532   -3.4262   26.1018 H   0  0  0  0  0  0  0  0  0  0  0  0
    6.1336   -5.1368   24.9636 N   0  0  0  0  0  0  0  0  0  0  0  0
    6.1949   -5.6184   23.7184 C   0  0  0  0  0  0  0  0  0  0  0  0
    6.2931   -6.6921   23.6154 H   0  0  0  0  0  0  0  0  0  0  0  0
    6.1129   -4.8289   22.5751 C   0  0  0  0  0  0  0  0  0  0  0  0
    6.2341   -5.2767   21.5958 H   0  0  0  0  0  0  0  0  0  0  0  0
    5.5308    0.8468   20.1895 C   0  0  0  0  0  0  0  0  0  0  0  0
    5.1196    0.9191   21.1939 H   0  0  0  0  0  0  0  0  0  0  0  0
    4.8536    1.3533   19.0717 C   0  0  0  0  0  0  0  0  0  0  0  0
    3.8870    1.8325   19.1814 H   0  0  0  0  0  0  0  0  0  0  0  0
  1  2  1  0
  2  3  2  0
  3  4  1  0
  4  5  1  0
  4  6  2  0
  6  7  1  0
  7  8  1  0
  8  9  2  0
  8 10  1  0
 10 11  1  0
 11 12  1  0
 11 13  1  0
 11 14  1  0
 14 15  1  6
 14 16  1  0
 16 17  1  0
 16 18  1  0
 18 19  1  0
 18 20  1  0
 18 21  1  0
 21 22  2  0
 22 23  1  0
 22 24  1  0
 24 25  1  0
 24 26  2  0
 26 27  1  0
 27 28  1  0
 27 29  2  0
 29 30  1  0
  6 31  1  0
 31 32  1  0
 31 33  2  0
 33 34  1  0
 33  2  1  0
 14  7  1  0
 29 21  1  0
M  END
>  <cnnaffinity>  (1) 
-4.33137

>  <filename>  (1) 
O=C1OC[C@@H](NCc2ccncc2)N1c1cccnc1

$$$$
