
     RDKit          3D

 32 34  0  0  0  0  0  0  0  0999 V2000
    4.9041    1.8260   16.8980 H   0  0  0  0  0  0  0  0  0  0  0  0
    5.3618    1.3812   17.7808 C   0  0  0  0  0  0  0  0  0  0  0  0
    6.5569    0.7991   17.5966 N   0  0  0  0  0  0  0  0  0  0  0  0
    7.1453    0.2510   18.6604 C   0  0  0  0  0  0  0  0  0  0  0  0
    8.1384   -0.1448   18.4516 H   0  0  0  0  0  0  0  0  0  0  0  0
    6.5834    0.1967   19.9507 C   0  0  0  0  0  0  0  0  0  0  0  0
    7.3115   -0.5002   21.0561 C   0  0  0  0  0  0  0  0  0  0  0  0
    7.0059   -0.1934   22.3005 N   0  0  0  0  0  0  0  0  0  0  0  0
    7.7166   -0.7804   23.3224 N   0  0  0  0  0  0  0  0  0  0  0  0
    7.5468   -0.2020   24.6248 C   0  0  0  0  0  0  0  0  0  0  0  0
    6.3188    0.3811   25.0055 C   0  0  0  0  0  0  0  0  0  0  0  0
    5.4935    0.4009   24.3084 H   0  0  0  0  0  0  0  0  0  0  0  0
    6.1053    0.9251   26.2035 N   0  0  0  0  0  0  0  0  0  0  0  0
    7.1148    0.9357   27.0977 C   0  0  0  0  0  0  0  0  0  0  0  0
    6.9155    1.6427   28.4579 C   0  0  0  0  0  0  0  0  0  0  0  0
    5.6381    1.7763   28.8231 F   0  0  0  0  0  0  0  0  0  0  0  0
    7.4549    2.8798   28.4492 F   0  0  0  0  0  0  0  0  0  0  0  0
    7.5357    0.9740   29.4548 F   0  0  0  0  0  0  0  0  0  0  0  0
    8.3748    0.3837   26.8025 C   0  0  0  0  0  0  0  0  0  0  0  0
    9.1557    0.3631   27.5529 H   0  0  0  0  0  0  0  0  0  0  0  0
    8.6026   -0.1797   25.5508 C   0  0  0  0  0  0  0  0  0  0  0  0
    9.5711   -0.6017   25.2999 H   0  0  0  0  0  0  0  0  0  0  0  0
    8.5894   -1.9241   23.1505 C   0  0  0  0  0  0  0  0  0  0  0  0
    9.0273   -2.5795   24.0772 O   0  0  0  0  0  0  0  0  0  0  0  0
    8.9124   -2.1848   21.7554 C   0  0  0  0  0  0  0  0  0  0  0  0
    9.6492   -2.9668   21.6102 H   0  0  0  0  0  0  0  0  0  0  0  0
    8.3259   -1.4883   20.7485 C   0  0  0  0  0  0  0  0  0  0  0  0
    8.6084   -1.6699   19.7201 H   0  0  0  0  0  0  0  0  0  0  0  0
    5.3372    0.8281   20.1277 C   0  0  0  0  0  0  0  0  0  0  0  0
    4.8706    0.8637   21.1129 H   0  0  0  0  0  0  0  0  0  0  0  0
    4.7244    1.4240   19.0233 C   0  0  0  0  0  0  0  0  0  0  0  0
    3.7757    1.9445   19.1115 H   0  0  0  0  0  0  0  0  0  0  0  0
  1  2  1  0
  2  3  2  0
  3  4  1  0
  4  5  1  0
  4  6  2  0
  6  7  1  0
  7  8  2  0
  8  9  1  0
  9 10  1  0
 10 11  2  0
 11 12  1  0
 11 13  1  0
 13 14  2  0
 14 15  1  0
 15 16  1  0
 15 17  1  0
 15 18  1  0
 14 19  1  0
 19 20  1  0
 19 21  2  0
 21 22  1  0
  9 23  1  0
 23 24  2  0
 23 25  1  0
 25 26  1  0
 25 27  2  0
 27 28  1  0
  6 29  1  0
 29 30  1  0
 29 31  2  0
 31 32  1  0
 31  2  1  0
 27  7  1  0
 21 10  1  0
M  END
>  <cnnaffinity>  (1) 
-5.1406

>  <filename>  (1) 
O=c1ccc(-c2cccnc2)nn1-c1ccc(C(F)(F)F)nc1

$$$$
