
     RDKit          3D

 40 43  0  0  0  0  0  0  0  0999 V2000
    4.9164    1.8061   16.9125 H   0  0  0  0  0  0  0  0  0  0  0  0
    5.3807    1.3455   17.7870 C   0  0  0  0  0  0  0  0  0  0  0  0
    6.5564    0.7249   17.5921 N   0  0  0  0  0  0  0  0  0  0  0  0
    7.1291    0.1467   18.6584 C   0  0  0  0  0  0  0  0  0  0  0  0
    8.0727   -0.3604   18.4595 H   0  0  0  0  0  0  0  0  0  0  0  0
    6.6030    0.1612   19.9714 C   0  0  0  0  0  0  0  0  0  0  0  0
    7.3065   -0.5271   21.1010 C   0  0  0  0  0  0  0  0  0  0  0  0
    7.6941   -1.8891   20.9245 C   0  0  0  0  0  0  0  0  0  0  0  0
    7.3239   -2.4017   20.0389 H   0  0  0  0  0  0  0  0  0  0  0  0
    8.4340   -2.5435   21.8521 C   0  0  0  0  0  0  0  0  0  0  0  0
    8.7988   -3.5481   21.7135 H   0  0  0  0  0  0  0  0  0  0  0  0
    8.7757   -1.9360   23.1269 C   0  0  0  0  0  0  0  0  0  0  0  0
    9.4141   -2.5182   23.9942 O   0  0  0  0  0  0  0  0  0  0  0  0
    8.2862   -0.6058   23.3018 N   0  0  0  0  0  0  0  0  0  0  0  0
    8.2692   -0.0855   24.6840 C   0  0  0  0  0  0  0  0  0  0  0  0
    9.1817   -0.4332   25.1725 H   0  0  0  0  0  0  0  0  0  0  0  0
    8.3202    1.0126   24.6522 H   0  0  0  0  0  0  0  0  0  0  0  0
    7.0381   -0.5414   25.4638 C   0  0  0  0  0  0  0  0  0  0  0  0
    7.1188   -1.6590   26.3557 C   0  0  0  0  0  0  0  0  0  0  0  0
    8.0638   -2.1883   26.4635 H   0  0  0  0  0  0  0  0  0  0  0  0
    6.0212   -2.0781   27.0697 C   0  0  0  0  0  0  0  0  0  0  0  0
    6.0932   -2.9240   27.7489 H   0  0  0  0  0  0  0  0  0  0  0  0
    4.7617   -1.4233   26.9304 C   0  0  0  0  0  0  0  0  0  0  0  0
    3.6024   -1.8271   27.6635 C   0  0  0  0  0  0  0  0  0  0  0  0
    3.6837   -2.6578   28.3626 H   0  0  0  0  0  0  0  0  0  0  0  0
    2.4043   -1.1739   27.4903 C   0  0  0  0  0  0  0  0  0  0  0  0
    1.5239   -1.4813   28.0474 H   0  0  0  0  0  0  0  0  0  0  0  0
    2.3006   -0.0885   26.5729 C   0  0  0  0  0  0  0  0  0  0  0  0
    1.3453    0.4118   26.4458 H   0  0  0  0  0  0  0  0  0  0  0  0
    3.3974    0.3256   25.8559 C   0  0  0  0  0  0  0  0  0  0  0  0
    3.3270    1.1563   25.1562 H   0  0  0  0  0  0  0  0  0  0  0  0
    4.6581   -0.3229   26.0169 C   0  0  0  0  0  0  0  0  0  0  0  0
    5.8208    0.0889   25.2965 C   0  0  0  0  0  0  0  0  0  0  0  0
    5.7178    0.9142   24.5923 H   0  0  0  0  0  0  0  0  0  0  0  0
    7.5926    0.0621   22.3051 C   0  0  0  0  0  0  0  0  0  0  0  0
    7.2701    1.0804   22.5314 H   0  0  0  0  0  0  0  0  0  0  0  0
    5.3699    0.8078   20.1378 C   0  0  0  0  0  0  0  0  0  0  0  0
    4.8994    0.8288   21.1205 H   0  0  0  0  0  0  0  0  0  0  0  0
    4.7458    1.3954   19.0323 C   0  0  0  0  0  0  0  0  0  0  0  0
    3.7852    1.8903   19.1218 H   0  0  0  0  0  0  0  0  0  0  0  0
  1  2  1  0
  2  3  2  0
  3  4  1  0
  4  5  1  0
  4  6  2  0
  6  7  1  0
  7  8  1  0
  8  9  1  0
  8 10  2  0
 10 11  1  0
 10 12  1  0
 12 13  2  0
 12 14  1  0
 14 15  1  0
 15 16  1  0
 15 17  1  0
 15 18  1  0
 18 19  2  0
 19 20  1  0
 19 21  1  0
 21 22  1  0
 21 23  2  0
 23 24  1  0
 24 25  1  0
 24 26  2  0
 26 27  1  0
 26 28  1  0
 28 29  1  0
 28 30  2  0
 30 31  1  0
 30 32  1  0
 32 33  2  0
 33 34  1  0
 14 35  1  0
 35 36  1  0
  6 37  1  0
 37 38  1  0
 37 39  2  0
 39 40  1  0
 39  2  1  0
 35  7  2  0
 33 18  1  0
 32 23  1  0
M  END
>  <cnnaffinity>  (1) 
-5.25123

>  <filename>  (1) 
O=c1ccc(-c2cccnc2)cn1Cc1ccc2ccccc2c1

$$$$
