
     RDKit          3D

 41 44  0  0  0  0  0  0  0  0999 V2000
    8.6395   -3.1739   26.6390 O   0  0  0  0  0  0  0  0  0  0  0  0
    7.9553   -2.4170   25.9794 C   0  0  0  0  0  0  0  0  0  0  0  0
    8.5660   -1.6862   24.9905 N   0  0  0  0  0  0  0  0  0  0  0  0
    7.8909   -0.8693   24.1329 C   0  0  0  0  0  0  0  0  0  0  0  0
    8.6625   -0.3839   23.1360 N   0  0  0  0  0  0  0  0  0  0  0  0
   10.1056   -0.1687   23.2627 C   0  0  0  0  0  0  0  0  0  0  0  0
   10.3905    0.9902   22.3086 C   0  0  0  0  0  0  0  0  0  0  0  0
    9.2520    0.9533   21.2831 C   0  0  0  0  0  0  0  0  0  0  0  0
    8.0557    0.2704   21.9700 C   0  0  0  0  0  0  0  0  0  0  0  0
    7.3299   -0.7258   21.0244 C   0  0  0  0  0  0  0  0  0  0  0  0
    6.6254   -0.0373   19.8696 C   0  0  0  0  0  0  0  0  0  0  0  0
    5.4198    0.6408   20.1060 C   0  0  0  0  0  0  0  0  0  0  0  0
    4.7972    1.3147   19.0555 C   0  0  0  0  0  0  0  0  0  0  0  0
    5.4056    1.3102   17.7975 C   0  0  0  0  0  0  0  0  0  0  0  0
    6.5573    0.6744   17.5425 N   0  0  0  0  0  0  0  0  0  0  0  0
    7.1452    0.0282   18.5618 C   0  0  0  0  0  0  0  0  0  0  0  0
    8.0880   -0.4654   18.3142 H   0  0  0  0  0  0  0  0  0  0  0  0
    4.9475    1.8422   16.9631 H   0  0  0  0  0  0  0  0  0  0  0  0
    3.8714    1.8561   19.2033 H   0  0  0  0  0  0  0  0  0  0  0  0
    4.9921    0.6474   21.1128 H   0  0  0  0  0  0  0  0  0  0  0  0
    6.5987   -1.2820   21.6219 H   0  0  0  0  0  0  0  0  0  0  0  0
    8.0690   -1.4534   20.6656 H   0  0  0  0  0  0  0  0  0  0  0  0
    7.3175    1.0111   22.3167 H   0  0  0  0  0  0  0  0  0  0  0  0
    8.9848    1.9479   20.9170 H   0  0  0  0  0  0  0  0  0  0  0  0
    9.5518    0.3571   20.4128 H   0  0  0  0  0  0  0  0  0  0  0  0
   11.3719    0.8747   21.8396 H   0  0  0  0  0  0  0  0  0  0  0  0
   10.3935    1.9368   22.8594 H   0  0  0  0  0  0  0  0  0  0  0  0
   10.3897    0.0990   24.2921 H   0  0  0  0  0  0  0  0  0  0  0  0
   10.6560   -1.0788   22.9769 H   0  0  0  0  0  0  0  0  0  0  0  0
    6.6346   -0.5916   24.2551 N   0  0  0  0  0  0  0  0  0  0  0  0
    5.9305   -1.2249   25.2663 C   0  0  0  0  0  0  0  0  0  0  0  0
    4.5637   -0.9177   25.4133 C   0  0  0  0  0  0  0  0  0  0  0  0
    3.7784   -1.6225   26.3065 C   0  0  0  0  0  0  0  0  0  0  0  0
    4.3527   -2.6174   27.1262 C   0  0  0  0  0  0  0  0  0  0  0  0
    5.7122   -2.8738   27.0557 C   0  0  0  0  0  0  0  0  0  0  0  0
    6.5104   -2.1805   26.1251 C   0  0  0  0  0  0  0  0  0  0  0  0
    6.1731   -3.6197   27.6955 H   0  0  0  0  0  0  0  0  0  0  0  0
    3.7275   -3.1849   27.8093 H   0  0  0  0  0  0  0  0  0  0  0  0
    2.7144   -1.4193   26.3829 H   0  0  0  0  0  0  0  0  0  0  0  0
    4.1840   -0.1125   24.7930 H   0  0  0  0  0  0  0  0  0  0  0  0
    9.5164   -1.9289   24.7917 H   0  0  0  0  0  0  0  0  0  0  0  0
  1  2  2  0
  2  3  1  0
  3  4  1  0
  4  5  1  0
  5  6  1  0
  6  7  1  0
  7  8  1  0
  8  9  1  0
  9 10  1  0
 10 11  1  0
 11 12  2  0
 12 13  1  0
 13 14  2  0
 14 15  1  0
 15 16  2  0
 16 17  1  0
 14 18  1  0
 13 19  1  0
 12 20  1  0
 10 21  1  0
 10 22  1  0
  9 23  1  0
  8 24  1  0
  8 25  1  0
  7 26  1  0
  7 27  1  0
  6 28  1  0
  6 29  1  0
  4 30  2  0
 30 31  1  0
 31 32  2  0
 32 33  1  0
 33 34  2  0
 34 35  1  0
 35 36  2  0
 35 37  1  0
 34 38  1  0
 33 39  1  0
 32 40  1  0
  3 41  1  0
 36  2  1  0
  9  5  1  0
 16 11  1  0
 36 31  1  0
M  END
>  <cnnaffinity>  (1) 
-5.65307

>  <filename>  (1) 
O=c1[nH]c(N2CCCC2Cc2cccnc2)nc2ccccc12

$$$$
