
     RDKit          3D

 34 37  0  0  0  0  0  0  0  0999 V2000
    4.9388    1.7627   16.9714 H   0  0  0  0  0  0  0  0  0  0  0  0
    5.3973    1.3080   17.8484 C   0  0  0  0  0  0  0  0  0  0  0  0
    6.5779    0.7015   17.6510 N   0  0  0  0  0  0  0  0  0  0  0  0
    7.1549    0.1391   18.7136 C   0  0  0  0  0  0  0  0  0  0  0  0
    8.1163   -0.3335   18.5292 H   0  0  0  0  0  0  0  0  0  0  0  0
    6.6192    0.1420   20.0091 C   0  0  0  0  0  0  0  0  0  0  0  0
    7.3781   -0.5321   21.0943 C   0  0  0  0  0  0  0  0  0  0  0  0
    7.1408   -0.1342   22.3231 N   0  0  0  0  0  0  0  0  0  0  0  0
    7.7856   -0.7713   23.3567 N   0  0  0  0  0  0  0  0  0  0  0  0
    7.5764   -0.2203   24.6358 C   0  0  0  0  0  0  0  0  0  0  0  0
    7.5009   -0.9040   25.8174 C   0  0  0  0  0  0  0  0  0  0  0  0
    7.6639   -1.9610   25.9888 H   0  0  0  0  0  0  0  0  0  0  0  0
    7.2324   -0.0021   26.8164 N   0  0  0  0  0  0  0  0  0  0  0  0
    7.1119   -0.2216   27.7897 H   0  0  0  0  0  0  0  0  0  0  0  0
    7.1824    1.2773   26.3072 C   0  0  0  0  0  0  0  0  0  0  0  0
    6.9782    2.5130   26.9527 C   0  0  0  0  0  0  0  0  0  0  0  0
    6.7977    2.5716   28.0241 H   0  0  0  0  0  0  0  0  0  0  0  0
    7.0291    3.6594   26.1635 C   0  0  0  0  0  0  0  0  0  0  0  0
    6.8816    4.6342   26.6186 H   0  0  0  0  0  0  0  0  0  0  0  0
    7.2824    3.5895   24.7708 C   0  0  0  0  0  0  0  0  0  0  0  0
    7.3295    4.4986   24.1762 H   0  0  0  0  0  0  0  0  0  0  0  0
    7.4685    2.3658   24.1411 C   0  0  0  0  0  0  0  0  0  0  0  0
    7.6416    2.2862   23.0706 H   0  0  0  0  0  0  0  0  0  0  0  0
    7.4049    1.1872   24.9135 C   0  0  0  0  0  0  0  0  0  0  0  0
    8.6036   -1.9454   23.2205 C   0  0  0  0  0  0  0  0  0  0  0  0
    9.0602   -2.5602   24.1714 O   0  0  0  0  0  0  0  0  0  0  0  0
    8.8472   -2.3025   21.8366 C   0  0  0  0  0  0  0  0  0  0  0  0
    9.4670   -3.1777   21.7091 H   0  0  0  0  0  0  0  0  0  0  0  0
    8.3196   -1.5815   20.8187 C   0  0  0  0  0  0  0  0  0  0  0  0
    8.6168   -1.7936   19.8039 H   0  0  0  0  0  0  0  0  0  0  0  0
    5.3856    0.7895   20.2061 C   0  0  0  0  0  0  0  0  0  0  0  0
    4.9437    0.8499   21.2033 H   0  0  0  0  0  0  0  0  0  0  0  0
    4.7621    1.3644   19.0952 C   0  0  0  0  0  0  0  0  0  0  0  0
    3.7987    1.8574   19.1758 H   0  0  0  0  0  0  0  0  0  0  0  0
  1  2  1  0
  2  3  2  0
  3  4  1  0
  4  5  1  0
  4  6  2  0
  6  7  1  0
  7  8  2  0
  8  9  1  0
  9 10  1  0
 10 11  2  0
 11 12  1  0
 11 13  1  0
 13 14  1  0
 13 15  1  0
 15 16  2  0
 16 17  1  0
 16 18  1  0
 18 19  1  0
 18 20  2  0
 20 21  1  0
 20 22  1  0
 22 23  1  0
 22 24  2  0
  9 25  1  0
 25 26  2  0
 25 27  1  0
 27 28  1  0
 27 29  2  0
 29 30  1  0
  6 31  1  0
 31 32  1  0
 31 33  2  0
 33 34  1  0
 33  2  1  0
 29  7  1  0
 24 10  1  0
 24 15  1  0
M  END
>  <cnnaffinity>  (1) 
-5.09567

>  <filename>  (1) 
O=c1ccc(-c2cccnc2)nn1-c1c[nH]c2ccccc12

$$$$
