
     RDKit          3D

 32 34  0  0  0  0  0  0  0  0999 V2000
    5.0089    1.8188   16.9843 H   0  0  0  0  0  0  0  0  0  0  0  0
    5.4432    1.2947   17.8340 C   0  0  0  0  0  0  0  0  0  0  0  0
    6.5972    0.6457   17.6103 N   0  0  0  0  0  0  0  0  0  0  0  0
    7.1482    0.0151   18.6534 C   0  0  0  0  0  0  0  0  0  0  0  0
    8.0759   -0.5102   18.4355 H   0  0  0  0  0  0  0  0  0  0  0  0
    6.6026   -0.0187   19.9449 C   0  0  0  0  0  0  0  0  0  0  0  0
    7.3139   -0.7415   21.0426 C   0  0  0  0  0  0  0  0  0  0  0  0
    6.5510   -1.3037   21.9508 N   0  0  0  0  0  0  0  0  0  0  0  0
    7.1495   -1.9786   23.0022 N   0  0  0  0  0  0  0  0  0  0  0  0
    6.3522   -2.5663   24.0056 C   0  0  0  0  0  0  0  0  0  0  0  0
    6.6395   -2.1667   25.2383 N   0  0  0  0  0  0  0  0  0  0  0  0
    5.8391   -2.5775   26.2219 C   0  0  0  0  0  0  0  0  0  0  0  0
    6.0697   -2.1922   27.2116 H   0  0  0  0  0  0  0  0  0  0  0  0
    4.7582   -3.4373   26.0198 C   0  0  0  0  0  0  0  0  0  0  0  0
    4.1282   -3.7024   26.8600 H   0  0  0  0  0  0  0  0  0  0  0  0
    4.5223   -3.9520   24.7454 C   0  0  0  0  0  0  0  0  0  0  0  0
    3.7050   -4.6637   24.5866 H   0  0  0  0  0  0  0  0  0  0  0  0
    5.3704   -3.5356   23.7085 C   0  0  0  0  0  0  0  0  0  0  0  0
    5.2886   -4.1103   22.3184 C   0  0  0  0  0  0  0  0  0  0  0  0
    4.6413   -5.2944   22.3041 F   0  0  0  0  0  0  0  0  0  0  0  0
    6.5075   -4.3365   21.7934 F   0  0  0  0  0  0  0  0  0  0  0  0
    4.6306   -3.3121   21.4711 F   0  0  0  0  0  0  0  0  0  0  0  0
    8.5501   -2.2161   23.1579 C   0  0  0  0  0  0  0  0  0  0  0  0
    9.0203   -2.9309   24.0174 O   0  0  0  0  0  0  0  0  0  0  0  0
    9.3260   -1.5119   22.1511 C   0  0  0  0  0  0  0  0  0  0  0  0
   10.3911   -1.6080   22.2949 H   0  0  0  0  0  0  0  0  0  0  0  0
    8.7483   -0.8278   21.1244 C   0  0  0  0  0  0  0  0  0  0  0  0
    9.3623   -0.3265   20.3835 H   0  0  0  0  0  0  0  0  0  0  0  0
    5.3719    0.6287   20.1549 C   0  0  0  0  0  0  0  0  0  0  0  0
    4.8904    0.5933   21.1354 H   0  0  0  0  0  0  0  0  0  0  0  0
    4.8020    1.3082   19.0779 C   0  0  0  0  0  0  0  0  0  0  0  0
    3.8729    1.8529   19.1920 H   0  0  0  0  0  0  0  0  0  0  0  0
  1  2  1  0
  2  3  2  0
  3  4  1  0
  4  5  1  0
  4  6  2  0
  6  7  1  0
  7  8  2  0
  8  9  1  0
  9 10  1  0
 10 11  2  0
 11 12  1  0
 12 13  1  0
 12 14  2  0
 14 15  1  0
 14 16  1  0
 16 17  1  0
 16 18  2  0
 18 19  1  0
 19 20  1  0
 19 21  1  0
 19 22  1  0
  9 23  1  0
 23 24  2  0
 23 25  1  0
 25 26  1  0
 25 27  2  0
 27 28  1  0
  6 29  1  0
 29 30  1  0
 29 31  2  0
 31 32  1  0
 31  2  1  0
 27  7  1  0
 18 10  1  0
M  END
>  <cnnaffinity>  (1) 
-5.34453

>  <filename>  (1) 
O=c1ccc(-c2cccnc2)nn1-c1ncccc1C(F)(F)F

$$$$
