
     RDKit          3D

 33 34  0  0  0  0  0  0  0  0999 V2000
    5.8790   -6.1457   22.0444 H   0  0  0  0  0  0  0  0  0  0  0  0
    6.0155   -7.0504   22.3615 O   0  0  0  0  0  0  0  0  0  0  0  0
    7.4108   -7.1918   22.4337 C   0  0  0  0  0  0  0  0  0  0  0  0
    7.8757   -6.9111   23.3919 H   0  0  0  0  0  0  0  0  0  0  0  0
    7.7389   -8.1828   22.1146 H   0  0  0  0  0  0  0  0  0  0  0  0
    7.5061   -5.0943   20.9256 C   0  0  0  0  0  0  0  0  0  0  0  0
    7.8863   -6.1959   21.4933 H   0  0  0  0  0  0  0  0  0  0  0  0
    7.0898   -6.0768   20.2463 H   0  0  0  0  0  0  0  0  0  0  0  0
    7.7191   -5.0684   20.8048 C   0  0  0  0  0  0  0  0  0  0  0  0
    9.0395   -5.1413   19.8728 H   0  0  0  0  0  0  0  0  0  0  0  0
    6.9429   -4.3060   20.1349 H   0  0  0  0  0  0  0  0  0  0  0  0
    8.0361   -4.1225   21.8490 N   0  0  0  0  0  0  0  0  0  0  0  0
    7.9720   -4.5454   22.7402 H   0  0  0  0  0  0  0  0  0  0  0  0
    7.9992   -2.6951   21.8422 C   0  0  0  0  0  0  0  0  0  0  0  0
    7.4419   -1.9202   20.8722 C   0  0  0  0  0  0  0  0  0  0  0  0
    7.0069   -2.3403   19.9690 H   0  0  0  0  0  0  0  0  0  0  0  0
    7.3340   -0.5342   20.9661 N   0  0  0  0  0  0  0  0  0  0  0  0
    6.6838    0.1444   19.8724 C   0  0  0  0  0  0  0  0  0  0  0  0
    7.1547   -0.0092   18.5529 C   0  0  0  0  0  0  0  0  0  0  0  0
    8.0479   -0.6038   18.3632 H   0  0  0  0  0  0  0  0  0  0  0  0
    6.5729    0.5543   17.4897 N   0  0  0  0  0  0  0  0  0  0  0  0
    5.4662    1.2836   17.7026 C   0  0  0  0  0  0  0  0  0  0  0  0
    5.0125    1.7297   16.8214 H   0  0  0  0  0  0  0  0  0  0  0  0
    4.9083    1.4769   18.9706 C   0  0  0  0  0  0  0  0  0  0  0  0
    4.0174    2.0846   19.0792 H   0  0  0  0  0  0  0  0  0  0  0  0
    5.5310    0.9038   20.0841 C   0  0  0  0  0  0  0  0  0  0  0  0
    5.1488    1.0348   21.0957 H   0  0  0  0  0  0  0  0  0  0  0  0
    7.7501    0.1548   22.1305 C   0  0  0  0  0  0  0  0  0  0  0  0
    7.4914    1.2970   22.4186 O   0  0  0  0  0  0  0  0  0  0  0  0
    8.5430   -0.5955   22.9494 N   0  0  0  0  0  0  0  0  0  0  0  0
    8.7710   -0.1280   23.8059 H   0  0  0  0  0  0  0  0  0  0  0  0
    8.5493   -1.9800   23.0372 C   0  0  0  0  0  0  0  0  0  0  0  0
    8.9763   -2.4542   24.0720 O   0  0  0  0  0  0  0  0  0  0  0  0
  1  2  1  0
  2  3  1  0
  3  4  1  0
  3  5  1  0
  3  6  1  0
  6  7  1  0
  6  8  1  0
  6  9  1  0
  9 10  1  0
  9 11  1  0
  9 12  1  0
 12 13  1  0
 12 14  1  0
 14 15  2  0
 15 16  1  0
 15 17  1  0
 17 18  1  0
 18 19  2  0
 19 20  1  0
 19 21  1  0
 21 22  2  0
 22 23  1  0
 22 24  1  0
 24 25  1  0
 24 26  2  0
 26 27  1  0
 17 28  1  0
 28 29  2  0
 28 30  1  0
 30 31  1  0
 30 32  1  0
 32 33  2  0
 32 14  1  0
 26 18  1  0
M  END
>  <cnnaffinity>  (1) 
-4.70053

>  <filename>  (1) 
O=c1[nH]c(=O)n(-c2cccnc2)cc1NCCCO

$$$$
