
     RDKit          3D

 33 35  0  0  0  0  0  0  0  0999 V2000
    4.9138    1.7765   17.0009 H   0  0  0  0  0  0  0  0  0  0  0  0
    5.4020    1.2926   17.8450 C   0  0  0  0  0  0  0  0  0  0  0  0
    6.5649    0.6726   17.5864 N   0  0  0  0  0  0  0  0  0  0  0  0
    7.1735    0.0501   18.6021 C   0  0  0  0  0  0  0  0  0  0  0  0
    8.1250   -0.4268   18.3810 H   0  0  0  0  0  0  0  0  0  0  0  0
    6.6443   -0.0161   19.9050 C   0  0  0  0  0  0  0  0  0  0  0  0
    7.3287   -0.7193   20.9466 N   0  0  0  0  0  0  0  0  0  0  0  0
    6.5569   -1.6321   21.6508 N   0  0  0  0  0  0  0  0  0  0  0  0
    7.1185   -2.3041   22.6377 C   0  0  0  0  0  0  0  0  0  0  0  0
    6.3352   -3.2016   23.3527 N   0  0  0  0  0  0  0  0  0  0  0  0
    6.7245   -3.7168   24.6765 C   0  0  0  0  0  0  0  0  0  0  0  0
    7.2221   -2.9319   25.2585 H   0  0  0  0  0  0  0  0  0  0  0  0
    7.4163   -4.5713   24.6021 H   0  0  0  0  0  0  0  0  0  0  0  0
    5.4973   -4.1739   25.4820 C   0  0  0  0  0  0  0  0  0  0  0  0
    5.8122   -4.6955   26.3909 H   0  0  0  0  0  0  0  0  0  0  0  0
    4.9001   -3.3019   25.7912 H   0  0  0  0  0  0  0  0  0  0  0  0
    4.6804   -5.0695   24.7433 O   0  0  0  0  0  0  0  0  0  0  0  0
    4.1832   -4.4136   23.5868 C   0  0  0  0  0  0  0  0  0  0  0  0
    3.5130   -5.1135   23.0789 H   0  0  0  0  0  0  0  0  0  0  0  0
    3.5896   -3.5375   23.8893 H   0  0  0  0  0  0  0  0  0  0  0  0
    5.3099   -3.9826   22.6418 C   0  0  0  0  0  0  0  0  0  0  0  0
    4.8851   -3.3751   21.8373 H   0  0  0  0  0  0  0  0  0  0  0  0
    5.7434   -4.8906   22.1886 H   0  0  0  0  0  0  0  0  0  0  0  0
    8.5244   -2.1180   22.9695 C   0  0  0  0  0  0  0  0  0  0  0  0
    8.9748   -2.7155   23.7598 H   0  0  0  0  0  0  0  0  0  0  0  0
    9.2682   -1.2165   22.2823 C   0  0  0  0  0  0  0  0  0  0  0  0
   10.3157   -1.0120   22.4762 H   0  0  0  0  0  0  0  0  0  0  0  0
    8.7096   -0.4050   21.2038 C   0  0  0  0  0  0  0  0  0  0  0  0
    9.3300    0.4334   20.5707 O   0  0  0  0  0  0  0  0  0  0  0  0
    5.4372    0.6410   20.1669 C   0  0  0  0  0  0  0  0  0  0  0  0
    5.0171    0.6082   21.1717 H   0  0  0  0  0  0  0  0  0  0  0  0
    4.8095    1.3146   19.1136 C   0  0  0  0  0  0  0  0  0  0  0  0
    3.8744    1.8454   19.2650 H   0  0  0  0  0  0  0  0  0  0  0  0
  1  2  1  0
  2  3  2  0
  3  4  1  0
  4  5  1  0
  4  6  2  0
  6  7  1  0
  7  8  1  0
  8  9  2  0
  9 10  1  0
 10 11  1  0
 11 12  1  0
 11 13  1  0
 11 14  1  0
 14 15  1  0
 14 16  1  0
 14 17  1  0
 17 18  1  0
 18 19  1  0
 18 20  1  0
 18 21  1  0
 21 22  1  0
 21 23  1  0
  9 24  1  0
 24 25  1  0
 24 26  2  0
 26 27  1  0
 26 28  1  0
 28 29  2  0
  6 30  1  0
 30 31  1  0
 30 32  2  0
 32 33  1  0
 32  2  1  0
 28  7  1  0
 21 10  1  0
M  END
>  <cnnaffinity>  (1) 
-4.81235

>  <filename>  (1) 
O=c1ccc(N2CCOCC2)nn1-c1cccnc1

$$$$
