
     RDKit          3D

 31 33  0  0  0  0  0  0  0  0999 V2000
    5.0957    1.8336   16.9706 H   0  0  0  0  0  0  0  0  0  0  0  0
    5.5580    1.3080   17.8048 C   0  0  0  0  0  0  0  0  0  0  0  0
    6.7444    0.7319   17.5537 N   0  0  0  0  0  0  0  0  0  0  0  0
    7.3432    0.1023   18.5736 C   0  0  0  0  0  0  0  0  0  0  0  0
    8.2985   -0.3708   18.3474 H   0  0  0  0  0  0  0  0  0  0  0  0
    6.7998   -0.0151   19.8731 C   0  0  0  0  0  0  0  0  0  0  0  0
    7.5276   -0.6845   20.9808 C   0  0  0  0  0  0  0  0  0  0  0  0
    8.7857   -0.2755   21.3785 C   0  0  0  0  0  0  0  0  0  0  0  0
    9.2886    0.5167   20.8280 H   0  0  0  0  0  0  0  0  0  0  0  0
    9.4377   -0.8315   22.5207 C   0  0  0  0  0  0  0  0  0  0  0  0
   10.8379   -0.4553   22.8975 C   0  0  0  0  0  0  0  0  0  0  0  0
   11.2022    0.0047   24.1752 C   0  0  0  0  0  0  0  0  0  0  0  0
   10.2435    0.2123   25.0957 F   0  0  0  0  0  0  0  0  0  0  0  0
   12.5183    0.2541   24.5593 C   0  0  0  0  0  0  0  0  0  0  0  0
   12.7131    0.5617   25.5758 H   0  0  0  0  0  0  0  0  0  0  0  0
   13.5447    0.0737   23.6286 C   0  0  0  0  0  0  0  0  0  0  0  0
   14.5797    0.2431   23.9096 H   0  0  0  0  0  0  0  0  0  0  0  0
   13.2469   -0.3745   22.3454 C   0  0  0  0  0  0  0  0  0  0  0  0
   14.0056   -0.5511   21.5891 H   0  0  0  0  0  0  0  0  0  0  0  0
   11.9198   -0.6214   22.0150 C   0  0  0  0  0  0  0  0  0  0  0  0
   11.6817   -1.0637   20.7738 F   0  0  0  0  0  0  0  0  0  0  0  0
    8.7939   -1.8046   23.2400 C   0  0  0  0  0  0  0  0  0  0  0  0
    9.2053   -2.2218   24.1590 H   0  0  0  0  0  0  0  0  0  0  0  0
    7.5945   -2.2691   22.8018 N   0  0  0  0  0  0  0  0  0  0  0  0
    7.0826   -3.0517   23.1802 H   0  0  0  0  0  0  0  0  0  0  0  0
    6.8830   -1.8075   21.6926 C   0  0  0  0  0  0  0  0  0  0  0  0
    5.8428   -2.3965   21.4419 O   0  0  0  0  0  0  0  0  0  0  0  0
    5.5341    0.5545   20.0919 C   0  0  0  0  0  0  0  0  0  0  0  0
    5.0599    0.4421   21.0700 H   0  0  0  0  0  0  0  0  0  0  0  0
    4.9160    1.2441   19.0468 C   0  0  0  0  0  0  0  0  0  0  0  0
    3.9566    1.7310   19.1800 H   0  0  0  0  0  0  0  0  0  0  0  0
  1  2  1  0
  2  3  2  0
  3  4  1  0
  4  5  1  0
  4  6  2  0
  6  7  1  0
  7  8  2  0
  8  9  1  0
  8 10  1  0
 10 11  1  0
 11 12  2  0
 12 13  1  0
 12 14  1  0
 14 15  1  0
 14 16  2  0
 16 17  1  0
 16 18  1  0
 18 19  1  0
 18 20  2  0
 20 21  1  0
 10 22  2  0
 22 23  1  0
 22 24  1  0
 24 25  1  0
 24 26  1  0
 26 27  2  0
  6 28  1  0
 28 29  1  0
 28 30  2  0
 30 31  1  0
 30  2  1  0
 26  7  1  0
 20 11  1  0
M  END
>  <cnnaffinity>  (1) 
-5.44304

>  <filename>  (1) 
O=c1[nH]cc(-c2c(F)cccc2F)cc1-c1cccnc1

$$$$
