
     RDKit          3D

 35 37  0  0  0  0  0  0  0  0999 V2000
    5.0013    1.8599   16.9263 H   0  0  0  0  0  0  0  0  0  0  0  0
    5.4520    1.3288   17.7613 C   0  0  0  0  0  0  0  0  0  0  0  0
    6.6060    0.6943   17.5006 N   0  0  0  0  0  0  0  0  0  0  0  0
    7.1877    0.0414   18.5127 C   0  0  0  0  0  0  0  0  0  0  0  0
    8.1232   -0.4697   18.2748 H   0  0  0  0  0  0  0  0  0  0  0  0
    6.6720   -0.0258   19.8207 C   0  0  0  0  0  0  0  0  0  0  0  0
    7.3940   -0.7694   20.9264 C   0  0  2  0  0  0  0  0  0  0  0  0
    8.2262   -1.3217   20.4740 H   0  0  0  0  0  0  0  0  0  0  0  0
    6.4995   -1.7841   21.6990 C   0  0  0  0  0  0  0  0  0  0  0  0
    6.8331   -2.8075   21.4947 H   0  0  0  0  0  0  0  0  0  0  0  0
    5.4360   -1.7338   21.4207 H   0  0  0  0  0  0  0  0  0  0  0  0
    6.6875   -1.4378   23.0887 N   0  0  0  0  0  0  0  0  0  0  0  0
    6.3866   -1.9813   23.8799 H   0  0  0  0  0  0  0  0  0  0  0  0
    7.5452   -0.4312   23.3659 C   0  0  0  0  0  0  0  0  0  0  0  0
    7.8627   -0.0654   24.4723 O   0  0  0  0  0  0  0  0  0  0  0  0
    7.9556    0.1748   22.0317 C   0  0  1  0  0  0  0  0  0  0  0  0
    7.4150    1.1311   22.0106 H   0  0  0  0  0  0  0  0  0  0  0  0
    9.4366    0.5042   21.9477 C   0  0  0  0  0  0  0  0  0  0  0  0
    9.7832    1.7397   21.3761 C   0  0  0  0  0  0  0  0  0  0  0  0
    8.9896    2.3938   21.0098 H   0  0  0  0  0  0  0  0  0  0  0  0
   11.1114    2.1700   21.3230 C   0  0  0  0  0  0  0  0  0  0  0  0
   11.3645    3.1116   20.8491 H   0  0  0  0  0  0  0  0  0  0  0  0
   12.1122    1.3874   21.9065 C   0  0  0  0  0  0  0  0  0  0  0  0
   13.1423    1.7364   21.9498 H   0  0  0  0  0  0  0  0  0  0  0  0
   11.7895    0.1414   22.4370 C   0  0  0  0  0  0  0  0  0  0  0  0
   12.5794   -0.4691   22.8666 H   0  0  0  0  0  0  0  0  0  0  0  0
   10.4678   -0.3485   22.4010 C   0  0  0  0  0  0  0  0  0  0  0  0
   10.2402   -1.7915   22.8569 C   0  0  0  0  0  0  0  0  0  0  0  0
    9.2760   -2.4161   22.1432 F   0  0  0  0  0  0  0  0  0  0  0  0
    9.8763   -1.8821   24.1428 F   0  0  0  0  0  0  0  0  0  0  0  0
   11.3464   -2.5494   22.7060 F   0  0  0  0  0  0  0  0  0  0  0  0
    5.4631    0.6420   20.0626 C   0  0  0  0  0  0  0  0  0  0  0  0
    5.0265    0.6279   21.0636 H   0  0  0  0  0  0  0  0  0  0  0  0
    4.8392    1.3248   19.0183 C   0  0  0  0  0  0  0  0  0  0  0  0
    3.9067    1.8576   19.1658 H   0  0  0  0  0  0  0  0  0  0  0  0
  1  2  1  0
  2  3  2  0
  3  4  1  0
  4  5  1  0
  4  6  2  0
  6  7  1  0
  7  8  1  6
  7  9  1  0
  9 10  1  0
  9 11  1  0
  9 12  1  0
 12 13  1  0
 12 14  1  0
 14 15  2  0
 14 16  1  0
 16 17  1  6
 16 18  1  0
 18 19  2  0
 19 20  1  0
 19 21  1  0
 21 22  1  0
 21 23  2  0
 23 24  1  0
 23 25  1  0
 25 26  1  0
 25 27  2  0
 27 28  1  0
 28 29  1  0
 28 30  1  0
 28 31  1  0
  6 32  1  0
 32 33  1  0
 32 34  2  0
 34 35  1  0
 34  2  1  0
 16  7  1  0
 27 18  1  0
M  END
>  <cnnaffinity>  (1) 
-5.04213

>  <filename>  (1) 
O=C1NC[C@@H](c2cccnc2)[C@@H]1c1ccccc1C(F)(F)F

$$$$
