
     RDKit          3D

 31 33  0  0  0  0  0  0  0  0999 V2000
    4.9240    1.8611   16.8903 H   0  0  0  0  0  0  0  0  0  0  0  0
    5.3760    1.3492   17.7370 C   0  0  0  0  0  0  0  0  0  0  0  0
    6.5396    0.7253   17.4960 N   0  0  0  0  0  0  0  0  0  0  0  0
    7.1361    0.1252   18.5315 C   0  0  0  0  0  0  0  0  0  0  0  0
    8.0764   -0.3746   18.3059 H   0  0  0  0  0  0  0  0  0  0  0  0
    6.6324    0.1031   19.8439 C   0  0  0  0  0  0  0  0  0  0  0  0
    7.4240   -0.5218   20.8982 C   0  0  0  0  0  0  0  0  0  0  0  0
    8.4763   -1.3798   20.8459 C   0  0  0  0  0  0  0  0  0  0  0  0
    9.0304   -1.7777   20.0133 H   0  0  0  0  0  0  0  0  0  0  0  0
    8.8752   -1.6553   22.1418 N   0  0  0  0  0  0  0  0  0  0  0  0
    9.9104   -2.5445   22.4582 N   0  0  0  0  0  0  0  0  0  0  0  0
   10.4457   -2.8787   21.6634 H   0  0  0  0  0  0  0  0  0  0  0  0
    9.6683   -3.5559   23.4130 C   0  0  0  0  0  0  0  0  0  0  0  0
   10.7488   -4.0070   24.1790 C   0  0  0  0  0  0  0  0  0  0  0  0
   11.7579   -3.7598   23.8656 H   0  0  0  0  0  0  0  0  0  0  0  0
   10.5194   -4.7650   25.3296 C   0  0  0  0  0  0  0  0  0  0  0  0
   11.3328   -5.0863   25.9685 H   0  0  0  0  0  0  0  0  0  0  0  0
    9.2044   -5.0935   25.6779 C   0  0  0  0  0  0  0  0  0  0  0  0
    8.8672   -5.8087   27.2251 Cl  0  0  0  0  0  0  0  0  0  0  0  0
    8.1446   -4.7944   24.8231 C   0  0  0  0  0  0  0  0  0  0  0  0
    7.1387   -5.1016   25.0877 H   0  0  0  0  0  0  0  0  0  0  0  0
    8.3841   -4.0556   23.6676 C   0  0  0  0  0  0  0  0  0  0  0  0
    7.5881   -3.8510   22.9629 H   0  0  0  0  0  0  0  0  0  0  0  0
    8.0913   -0.9029   23.0537 C   0  0  0  0  0  0  0  0  0  0  0  0
    8.1392   -0.8276   24.2634 O   0  0  0  0  0  0  0  0  0  0  0  0
    7.1987   -0.2571   22.2415 N   0  0  0  0  0  0  0  0  0  0  0  0
    6.5763    0.3999   22.6802 H   0  0  0  0  0  0  0  0  0  0  0  0
    5.3796    0.7156   20.0595 C   0  0  0  0  0  0  0  0  0  0  0  0
    4.8893    0.6761   21.0345 H   0  0  0  0  0  0  0  0  0  0  0  0
    4.7522    1.3555   18.9912 C   0  0  0  0  0  0  0  0  0  0  0  0
    3.8047    1.8709   19.1176 H   0  0  0  0  0  0  0  0  0  0  0  0
  1  2  1  0
  2  3  2  0
  3  4  1  0
  4  5  1  0
  4  6  2  0
  6  7  1  0
  7  8  2  0
  8  9  1  0
  8 10  1  0
 10 11  1  0
 11 12  1  0
 11 13  1  0
 13 14  2  0
 14 15  1  0
 14 16  1  0
 16 17  1  0
 16 18  2  0
 18 19  1  0
 18 20  1  0
 20 21  1  0
 20 22  2  0
 22 23  1  0
 10 24  1  0
 24 25  2  0
 24 26  1  0
 26 27  1  0
  6 28  1  0
 28 29  1  0
 28 30  2  0
 30 31  1  0
 30  2  1  0
 26  7  1  0
 22 13  1  0
M  END
>  <cnnaffinity>  (1) 
-5.20795

>  <filename>  (1) 
O=c1[nH]c(-c2cccnc2)cn1Nc1ccc(Cl)cc1

$$$$
