
     RDKit          3D

 38 40  0  0  0  0  0  0  0  0999 V2000
    4.9192    1.7960   17.0178 H   0  0  0  0  0  0  0  0  0  0  0  0
    5.4124    1.2861   17.8409 C   0  0  0  0  0  0  0  0  0  0  0  0
    6.5729    0.6766   17.5455 N   0  0  0  0  0  0  0  0  0  0  0  0
    7.2290    0.0640   18.5409 C   0  0  0  0  0  0  0  0  0  0  0  0
    8.1752   -0.4187   18.3085 H   0  0  0  0  0  0  0  0  0  0  0  0
    6.7390    0.0047   19.8658 C   0  0  0  0  0  0  0  0  0  0  0  0
    7.4301   -0.6898   20.9193 N   0  0  0  0  0  0  0  0  0  0  0  0
    6.8249   -1.6541   21.7453 C   0  0  0  0  0  0  0  0  0  0  0  0
    5.7544   -2.1668   21.5236 O   0  0  0  0  0  0  0  0  0  0  0  0
    7.7219   -1.8973   22.7819 N   0  0  0  0  0  0  0  0  0  0  0  0
    7.5726   -2.5282   24.0196 N   0  0  0  0  0  0  0  0  0  0  0  0
    7.0024   -1.9639   24.6511 H   0  0  0  0  0  0  0  0  0  0  0  0
    7.0837   -3.9216   23.9727 C   0  0  0  0  0  0  0  0  0  0  0  0
    6.3153   -3.9783   23.1877 H   0  0  0  0  0  0  0  0  0  0  0  0
    8.2374   -4.8941   23.6153 C   0  0  0  0  0  0  0  0  0  0  0  0
    7.8498   -5.6883   22.9660 H   0  0  0  0  0  0  0  0  0  0  0  0
    8.9609   -4.3298   23.0158 H   0  0  0  0  0  0  0  0  0  0  0  0
    8.9488   -5.5354   24.8355 C   0  0  0  0  0  0  0  0  0  0  0  0
    8.4699   -6.4930   25.0812 H   0  0  0  0  0  0  0  0  0  0  0  0
    9.9852   -5.7767   24.5737 H   0  0  0  0  0  0  0  0  0  0  0  0
    8.9124   -4.6318   26.0748 C   0  0  0  0  0  0  0  0  0  0  0  0
    9.4257   -3.6912   25.8383 H   0  0  0  0  0  0  0  0  0  0  0  0
    9.4730   -5.0917   26.8980 H   0  0  0  0  0  0  0  0  0  0  0  0
    7.4635   -4.3177   26.5187 C   0  0  0  0  0  0  0  0  0  0  0  0
    7.1147   -5.0684   27.2412 H   0  0  0  0  0  0  0  0  0  0  0  0
    7.4558   -3.3602   27.0564 H   0  0  0  0  0  0  0  0  0  0  0  0
    6.4602   -4.2920   25.3290 C   0  0  0  0  0  0  0  0  0  0  0  0
    6.0352   -5.2991   25.2161 H   0  0  0  0  0  0  0  0  0  0  0  0
    5.6123   -3.6289   25.5432 H   0  0  0  0  0  0  0  0  0  0  0  0
    9.0377   -1.4061   22.4536 C   0  0  0  0  0  0  0  0  0  0  0  0
    9.7448   -2.2016   22.1974 H   0  0  0  0  0  0  0  0  0  0  0  0
    9.4713   -0.7914   23.2421 H   0  0  0  0  0  0  0  0  0  0  0  0
    8.7806   -0.5894   21.2230 C   0  0  0  0  0  0  0  0  0  0  0  0
    9.6043    0.0144   20.5833 O   0  0  0  0  0  0  0  0  0  0  0  0
    5.5145    0.6152   20.1510 C   0  0  0  0  0  0  0  0  0  0  0  0
    5.0998    0.5455   21.1549 H   0  0  0  0  0  0  0  0  0  0  0  0
    4.8443    1.2866   19.1210 C   0  0  0  0  0  0  0  0  0  0  0  0
    3.9037    1.8041   19.2943 H   0  0  0  0  0  0  0  0  0  0  0  0
  1  2  1  0
  2  3  2  0
  3  4  1  0
  4  5  1  0
  4  6  2  0
  6  7  1  0
  7  8  1  0
  8  9  2  0
  8 10  1  0
 10 11  1  0
 11 12  1  0
 11 13  1  0
 13 14  1  0
 13 15  1  0
 15 16  1  0
 15 17  1  0
 15 18  1  0
 18 19  1  0
 18 20  1  0
 18 21  1  0
 21 22  1  0
 21 23  1  0
 21 24  1  0
 24 25  1  0
 24 26  1  0
 24 27  1  0
 27 28  1  0
 27 29  1  0
 10 30  1  0
 30 31  1  0
 30 32  1  0
 30 33  1  0
 33 34  2  0
  6 35  1  0
 35 36  1  0
 35 37  2  0
 37 38  1  0
 37  2  1  0
 33  7  1  0
 27 13  1  0
M  END
>  <cnnaffinity>  (1) 
-5.39831

>  <filename>  (1) 
O=C1CN(NC2CCCCC2)C(=O)N1c1cccnc1

$$$$
