
     RDKit          3D

 33 36  0  0  0  0  0  0  0  0999 V2000
    4.9683    1.9776   16.8030 H   0  0  0  0  0  0  0  0  0  0  0  0
    5.4520    1.4304   17.6105 C   0  0  0  0  0  0  0  0  0  0  0  0
    6.6265    0.8428   17.3181 N   0  0  0  0  0  0  0  0  0  0  0  0
    7.2469    0.1729   18.2969 C   0  0  0  0  0  0  0  0  0  0  0  0
    8.2066   -0.2716   18.0492 H   0  0  0  0  0  0  0  0  0  0  0  0
    6.7142    0.0141   19.5929 C   0  0  0  0  0  0  0  0  0  0  0  0
    7.3750   -0.7295   20.6018 N   0  0  0  0  0  0  0  0  0  0  0  0
    6.8027   -1.6413   21.5098 C   0  0  0  0  0  0  0  0  0  0  0  0
    5.6369   -2.0006   21.4696 O   0  0  0  0  0  0  0  0  0  0  0  0
    7.9150   -2.0132   22.4170 C   0  0  0  0  0  0  0  0  0  0  0  0
    7.7669   -2.8153   23.6472 C   0  0  0  0  0  0  0  0  0  0  0  0
    6.5167   -2.7772   24.3316 C   0  0  0  0  0  0  0  0  0  0  0  0
    5.7292   -2.1648   23.9079 H   0  0  0  0  0  0  0  0  0  0  0  0
    6.2987   -3.4946   25.4953 C   0  0  0  0  0  0  0  0  0  0  0  0
    5.3299   -3.4726   25.9894 H   0  0  0  0  0  0  0  0  0  0  0  0
    7.3567   -4.2519   26.0389 C   0  0  0  0  0  0  0  0  0  0  0  0
    7.5136   -5.0437   27.2265 C   0  0  0  0  0  0  0  0  0  0  0  0
    6.7661   -5.2579   27.9768 H   0  0  0  0  0  0  0  0  0  0  0  0
    8.7989   -5.4841   27.2518 C   0  0  0  0  0  0  0  0  0  0  0  0
    9.2834   -6.0191   28.0555 H   0  0  0  0  0  0  0  0  0  0  0  0
    9.4691   -5.0286   26.1305 N   0  0  0  0  0  0  0  0  0  0  0  0
   10.3784   -5.3212   25.8167 H   0  0  0  0  0  0  0  0  0  0  0  0
    8.6059   -4.2782   25.3620 C   0  0  0  0  0  0  0  0  0  0  0  0
    8.8180   -3.5892   24.1542 C   0  0  0  0  0  0  0  0  0  0  0  0
    9.7535   -3.6736   23.6060 H   0  0  0  0  0  0  0  0  0  0  0  0
    9.0068   -1.3596   21.9506 C   0  0  0  0  0  0  0  0  0  0  0  0
    9.9999   -1.3225   22.3698 H   0  0  0  0  0  0  0  0  0  0  0  0
    8.7582   -0.6307   20.7868 N   0  0  0  0  0  0  0  0  0  0  0  0
    9.0756    0.3406   20.7982 H   0  0  0  0  0  0  0  0  0  0  0  0
    5.4899    0.6307   19.8843 C   0  0  0  0  0  0  0  0  0  0  0  0
    5.0676    0.5258   20.8813 H   0  0  0  0  0  0  0  0  0  0  0  0
    4.8568    1.3602   18.8754 C   0  0  0  0  0  0  0  0  0  0  0  0
    3.9167    1.8696   19.0651 H   0  0  0  0  0  0  0  0  0  0  0  0
  1  2  1  0
  2  3  2  0
  3  4  1  0
  4  5  1  0
  4  6  2  0
  6  7  1  0
  7  8  1  0
  8  9  2  0
  8 10  1  0
 10 11  1  0
 11 12  2  0
 12 13  1  0
 12 14  1  0
 14 15  1  0
 14 16  2  0
 16 17  1  0
 17 18  1  0
 17 19  2  0
 19 20  1  0
 19 21  1  0
 21 22  1  0
 21 23  1  0
 23 24  2  0
 24 25  1  0
 10 26  2  0
 26 27  1  0
 26 28  1  0
 28 29  1  0
  6 30  1  0
 30 31  1  0
 30 32  2  0
 32 33  1  0
 32  2  1  0
 28  7  1  0
 24 11  1  0
 23 16  1  0
M  END
>  <cnnaffinity>  (1) 
-5.12881

>  <filename>  (1) 
O=c1c(-c2ccc3cc[nH]c3c2)c[nH]n1-c1cccnc1

$$$$
