
     RDKit          3D

 34 37  0  0  0  0  0  0  0  0999 V2000
    4.9764    1.8320   17.0344 H   0  0  0  0  0  0  0  0  0  0  0  0
    5.4351    1.2926   17.8611 C   0  0  0  0  0  0  0  0  0  0  0  0
    6.5816    0.6475   17.5906 N   0  0  0  0  0  0  0  0  0  0  0  0
    7.1697   -0.0131   18.5951 C   0  0  0  0  0  0  0  0  0  0  0  0
    8.0963   -0.5273   18.3477 H   0  0  0  0  0  0  0  0  0  0  0  0
    6.6513   -0.0841   19.9043 C   0  0  0  0  0  0  0  0  0  0  0  0
    7.3387   -0.7757   20.9471 N   0  0  0  0  0  0  0  0  0  0  0  0
    6.5742   -1.5230   21.8053 N   0  0  0  0  0  0  0  0  0  0  0  0
    7.1635   -2.1540   22.8047 C   0  0  0  0  0  0  0  0  0  0  0  0
    6.3067   -2.9232   23.7511 C   0  0  0  0  0  0  0  0  0  0  0  0
    6.5608   -3.0552   25.1007 C   0  0  0  0  0  0  0  0  0  0  0  0
    7.4374   -2.7194   25.6519 H   0  0  0  0  0  0  0  0  0  0  0  0
    5.5263   -3.7106   25.7083 N   0  0  0  0  0  0  0  0  0  0  0  0
    5.4965   -3.9990   26.6691 H   0  0  0  0  0  0  0  0  0  0  0  0
    4.5835   -4.0694   24.7743 C   0  0  0  0  0  0  0  0  0  0  0  0
    3.3731   -4.7641   24.9528 C   0  0  0  0  0  0  0  0  0  0  0  0
    3.0126   -5.0380   25.9415 H   0  0  0  0  0  0  0  0  0  0  0  0
    2.6862   -5.1388   23.8028 C   0  0  0  0  0  0  0  0  0  0  0  0
    1.7616   -5.7046   23.8879 H   0  0  0  0  0  0  0  0  0  0  0  0
    3.1815   -4.8011   22.5228 C   0  0  0  0  0  0  0  0  0  0  0  0
    2.6194   -5.1591   21.6697 H   0  0  0  0  0  0  0  0  0  0  0  0
    4.3352   -4.0304   22.3623 C   0  0  0  0  0  0  0  0  0  0  0  0
    4.6860   -3.7064   21.3881 H   0  0  0  0  0  0  0  0  0  0  0  0
    5.0489   -3.6217   23.5121 C   0  0  0  0  0  0  0  0  0  0  0  0
    8.6728   -2.0695   23.0409 C   0  0  0  0  0  0  0  0  0  0  0  0
    9.2838   -2.6129   23.9566 O   0  0  0  0  0  0  0  0  0  0  0  0
    9.3877   -1.2574   22.0621 C   0  0  0  0  0  0  0  0  0  0  0  0
   10.4619   -1.1860   22.1600 H   0  0  0  0  0  0  0  0  0  0  0  0
    8.7044   -0.6427   21.0887 C   0  0  0  0  0  0  0  0  0  0  0  0
    9.1953    0.0059   20.3656 H   0  0  0  0  0  0  0  0  0  0  0  0
    5.4437    0.5732   20.1683 C   0  0  0  0  0  0  0  0  0  0  0  0
    5.0271    0.5203   21.1741 H   0  0  0  0  0  0  0  0  0  0  0  0
    4.8350    1.2795   19.1266 C   0  0  0  0  0  0  0  0  0  0  0  0
    3.9104    1.8228   19.2858 H   0  0  0  0  0  0  0  0  0  0  0  0
  1  2  1  0
  2  3  2  0
  3  4  1  0
  4  5  1  0
  4  6  2  0
  6  7  1  0
  7  8  1  0
  8  9  2  0
  9 10  1  0
 10 11  2  0
 11 12  1  0
 11 13  1  0
 13 14  1  0
 13 15  1  0
 15 16  2  0
 16 17  1  0
 16 18  1  0
 18 19  1  0
 18 20  2  0
 20 21  1  0
 20 22  1  0
 22 23  1  0
 22 24  2  0
  9 25  1  0
 25 26  2  0
 25 27  1  0
 27 28  1  0
 27 29  2  0
 29 30  1  0
  6 31  1  0
 31 32  1  0
 31 33  2  0
 33 34  1  0
 33  2  1  0
 29  7  1  0
 24 10  1  0
 24 15  1  0
M  END
>  <cnnaffinity>  (1) 
-5.48329

>  <filename>  (1) 
O=c1ccn(-c2cccnc2)nc1-c1c[nH]c2ccccc12

$$$$
