
     RDKit          3D

 35 38  0  0  0  0  0  0  0  0999 V2000
    5.0031    1.7751   16.9668 H   0  0  0  0  0  0  0  0  0  0  0  0
    5.4663    1.2807   17.8201 C   0  0  0  0  0  0  0  0  0  0  0  0
    6.6392    0.6622   17.5924 N   0  0  0  0  0  0  0  0  0  0  0  0
    7.2293    0.0488   18.6284 C   0  0  0  0  0  0  0  0  0  0  0  0
    8.1921   -0.4263   18.4608 H   0  0  0  0  0  0  0  0  0  0  0  0
    6.6675   -0.0218   19.9145 C   0  0  0  0  0  0  0  0  0  0  0  0
    7.3438   -0.7449   20.9435 N   0  0  0  0  0  0  0  0  0  0  0  0
    8.7118   -0.6180   20.9584 N   0  0  0  0  0  0  0  0  0  0  0  0
    9.3710   -1.1479   21.9615 C   0  0  0  0  0  0  0  0  0  0  0  0
   10.8348   -0.9019   22.0242 C   0  0  0  0  0  0  0  0  0  0  0  0
   11.6579   -2.0062   21.9828 C   0  0  0  0  0  0  0  0  0  0  0  0
   11.1953   -2.9873   21.9806 H   0  0  0  0  0  0  0  0  0  0  0  0
   13.0129   -1.9696   21.9960 N   0  0  0  0  0  0  0  0  0  0  0  0
   13.5827   -0.7973   22.1557 C   0  0  0  0  0  0  0  0  0  0  0  0
   14.6734   -0.7843   22.1189 H   0  0  0  0  0  0  0  0  0  0  0  0
   12.8593    0.4271   22.3236 C   0  0  0  0  0  0  0  0  0  0  0  0
   13.4994    1.6761   22.5794 C   0  0  0  0  0  0  0  0  0  0  0  0
   14.5763    1.6836   22.7318 H   0  0  0  0  0  0  0  0  0  0  0  0
   12.7778    2.8488   22.5590 C   0  0  0  0  0  0  0  0  0  0  0  0
   13.2744    3.7995   22.7474 H   0  0  0  0  0  0  0  0  0  0  0  0
   11.3841    2.8270   22.2776 C   0  0  0  0  0  0  0  0  0  0  0  0
   10.8334    3.7629   22.1984 H   0  0  0  0  0  0  0  0  0  0  0  0
   10.7256    1.6233   22.1205 C   0  0  0  0  0  0  0  0  0  0  0  0
    9.6520    1.5826   21.9686 H   0  0  0  0  0  0  0  0  0  0  0  0
   11.4385    0.3873   22.1631 C   0  0  0  0  0  0  0  0  0  0  0  0
    8.7211   -2.0626   22.9770 C   0  0  0  0  0  0  0  0  0  0  0  0
    9.3356   -2.6836   23.8367 O   0  0  0  0  0  0  0  0  0  0  0  0
    7.2765   -2.1669   22.8536 C   0  0  0  0  0  0  0  0  0  0  0  0
    6.7586   -2.7724   23.5876 H   0  0  0  0  0  0  0  0  0  0  0  0
    6.6600   -1.5060   21.8642 C   0  0  0  0  0  0  0  0  0  0  0  0
    5.5803   -1.5406   21.7283 H   0  0  0  0  0  0  0  0  0  0  0  0
    5.4567    0.6471   20.1510 C   0  0  0  0  0  0  0  0  0  0  0  0
    5.0441    0.6883   21.1606 H   0  0  0  0  0  0  0  0  0  0  0  0
    4.8495    1.3050   19.0766 C   0  0  0  0  0  0  0  0  0  0  0  0
    3.9096    1.8305   19.2042 H   0  0  0  0  0  0  0  0  0  0  0  0
  1  2  1  0
  2  3  2  0
  3  4  1  0
  4  5  1  0
  4  6  2  0
  6  7  1  0
  7  8  1  0
  8  9  2  0
  9 10  1  0
 10 11  2  0
 11 12  1  0
 11 13  1  0
 13 14  2  0
 14 15  1  0
 14 16  1  0
 16 17  2  0
 17 18  1  0
 17 19  1  0
 19 20  1  0
 19 21  2  0
 21 22  1  0
 21 23  1  0
 23 24  1  0
 23 25  2  0
  9 26  1  0
 26 27  2  0
 26 28  1  0
 28 29  1  0
 28 30  2  0
 30 31  1  0
  6 32  1  0
 32 33  1  0
 32 34  2  0
 34 35  1  0
 34  2  1  0
 30  7  1  0
 25 10  1  0
 25 16  1  0
M  END
>  <cnnaffinity>  (1) 
-6.28586

>  <filename>  (1) 
O=c1ccn(-c2cccnc2)nc1-c1cncc2ccccc12

$$$$
