
     RDKit          3D

 29 31  0  0  0  0  0  0  0  0999 V2000
    4.9173    1.7942   16.9873 H   0  0  0  0  0  0  0  0  0  0  0  0
    5.3981    1.2968   17.8266 C   0  0  0  0  0  0  0  0  0  0  0  0
    6.5633    0.6861   17.5587 N   0  0  0  0  0  0  0  0  0  0  0  0
    7.1739    0.0688   18.5773 C   0  0  0  0  0  0  0  0  0  0  0  0
    8.1263   -0.4121   18.3444 H   0  0  0  0  0  0  0  0  0  0  0  0
    6.6616    0.0068   19.8847 C   0  0  0  0  0  0  0  0  0  0  0  0
    7.3948   -0.6876   21.0125 C   0  0  2  0  0  0  0  0  0  0  0  0
    8.1894   -1.3120   20.5882 H   0  0  0  0  0  0  0  0  0  0  0  0
    6.5193   -1.6474   21.8287 C   0  0  0  0  0  0  0  0  0  0  0  0
    5.8142   -2.5575   21.4405 O   0  0  0  0  0  0  0  0  0  0  0  0
    6.6971   -1.3384   23.1309 N   0  0  0  0  0  0  0  0  0  0  0  0
    6.1799   -1.9082   23.7783 H   0  0  0  0  0  0  0  0  0  0  0  0
    7.6412   -0.2921   23.4448 C   0  0  0  0  0  0  0  0  0  0  0  0
    7.2064    0.4626   24.1129 H   0  0  0  0  0  0  0  0  0  0  0  0
    8.5278   -0.6943   23.9577 H   0  0  0  0  0  0  0  0  0  0  0  0
    7.9834    0.3063   22.0563 C   0  0  1  0  0  0  0  0  0  0  0  0
    7.4613    1.2687   21.9648 H   0  0  0  0  0  0  0  0  0  0  0  0
    9.4527    0.5513   21.8557 C   0  0  0  0  0  0  0  0  0  0  0  0
   10.0091    1.7510   21.5321 C   0  0  0  0  0  0  0  0  0  0  0  0
    9.4969    2.6884   21.3714 H   0  0  0  0  0  0  0  0  0  0  0  0
   11.7170    1.6620   21.3860 S   0  0  0  0  0  0  0  0  0  0  0  0
   11.7027   -0.0177   21.7499 C   0  0  0  0  0  0  0  0  0  0  0  0
   12.6305   -0.5690   21.7730 H   0  0  0  0  0  0  0  0  0  0  0  0
   10.4416   -0.4762   21.9759 C   0  0  0  0  0  0  0  0  0  0  0  0
   10.2043   -1.5100   22.2189 H   0  0  0  0  0  0  0  0  0  0  0  0
    5.4468    0.6513   20.1414 C   0  0  0  0  0  0  0  0  0  0  0  0
    5.0202    0.6285   21.1490 H   0  0  0  0  0  0  0  0  0  0  0  0
    4.8069    1.3105   19.0931 C   0  0  0  0  0  0  0  0  0  0  0  0
    3.8778    1.8414   19.2486 H   0  0  0  0  0  0  0  0  0  0  0  0
  1  2  1  0
  2  3  2  0
  3  4  1  0
  4  5  1  0
  4  6  2  0
  6  7  1  0
  7  8  1  6
  7  9  1  0
  9 10  2  0
  9 11  1  0
 11 12  1  0
 11 13  1  0
 13 14  1  0
 13 15  1  0
 13 16  1  0
 16 17  1  1
 16 18  1  0
 18 19  2  0
 19 20  1  0
 19 21  1  0
 21 22  1  0
 22 23  1  0
 22 24  2  0
 24 25  1  0
  6 26  1  0
 26 27  1  0
 26 28  2  0
 28 29  1  0
 28  2  1  0
 16  7  1  0
 24 18  1  0
M  END
>  <cnnaffinity>  (1) 
-4.73506

>  <filename>  (1) 
O=C1NC[C@@H](c2ccsc2)[C@@H]1c1cccnc1

$$$$
