
     RDKit          3D

 33 35  0  0  0  0  0  0  0  0999 V2000
    4.9196    1.8288   16.9503 H   0  0  0  0  0  0  0  0  0  0  0  0
    5.3991    1.3344   17.7905 C   0  0  0  0  0  0  0  0  0  0  0  0
    6.5684    0.7276   17.5251 N   0  0  0  0  0  0  0  0  0  0  0  0
    7.1779    0.1020   18.5390 C   0  0  0  0  0  0  0  0  0  0  0  0
    8.1304   -0.3746   18.3005 H   0  0  0  0  0  0  0  0  0  0  0  0
    6.6556    0.0050   19.8517 C   0  0  0  0  0  0  0  0  0  0  0  0
    7.3931   -0.7079   20.9305 C   0  0  0  0  0  0  0  0  0  0  0  0
    8.7169   -0.4046   21.1843 C   0  0  0  0  0  0  0  0  0  0  0  0
    9.2108    0.3323   20.5506 H   0  0  0  0  0  0  0  0  0  0  0  0
    9.4426   -1.0124   22.2474 C   0  0  0  0  0  0  0  0  0  0  0  0
   10.8908   -0.7117   22.4594 C   0  0  0  0  0  0  0  0  0  0  0  0
   11.7139   -1.7299   22.1847 N   0  0  0  0  0  0  0  0  0  0  0  0
   13.0302   -1.5237   22.2637 C   0  0  0  0  0  0  0  0  0  0  0  0
   13.6555   -2.3698   21.9962 H   0  0  0  0  0  0  0  0  0  0  0  0
   13.5994   -0.3270   22.7052 C   0  0  0  0  0  0  0  0  0  0  0  0
   14.6754   -0.2407   22.7939 H   0  0  0  0  0  0  0  0  0  0  0  0
   12.7559    0.7321   23.0187 C   0  0  0  0  0  0  0  0  0  0  0  0
   13.1539    1.6925   23.3477 H   0  0  0  0  0  0  0  0  0  0  0  0
   11.3756    0.5360   22.8963 C   0  0  0  0  0  0  0  0  0  0  0  0
   10.3918    1.6458   23.1419 C   0  0  0  0  0  0  0  0  0  0  0  0
   10.0179    2.1895   21.9593 F   0  0  0  0  0  0  0  0  0  0  0  0
    9.2713    1.2269   23.7552 F   0  0  0  0  0  0  0  0  0  0  0  0
   10.8884    2.6434   23.8937 F   0  0  0  0  0  0  0  0  0  0  0  0
    8.8327   -1.9614   23.0268 C   0  0  0  0  0  0  0  0  0  0  0  0
    9.3533   -2.5330   23.8001 H   0  0  0  0  0  0  0  0  0  0  0  0
    7.5206   -2.2487   22.7918 N   0  0  0  0  0  0  0  0  0  0  0  0
    6.9668   -2.9551   23.2612 H   0  0  0  0  0  0  0  0  0  0  0  0
    6.7362   -1.7588   21.7394 C   0  0  0  0  0  0  0  0  0  0  0  0
    5.6436   -2.2832   21.5917 O   0  0  0  0  0  0  0  0  0  0  0  0
    5.4302    0.6510   20.0924 C   0  0  0  0  0  0  0  0  0  0  0  0
    5.0001    0.6175   21.0956 H   0  0  0  0  0  0  0  0  0  0  0  0
    4.7951    1.3336   19.0532 C   0  0  0  0  0  0  0  0  0  0  0  0
    3.8521    1.8579   19.1942 H   0  0  0  0  0  0  0  0  0  0  0  0
  1  2  1  0
  2  3  2  0
  3  4  1  0
  4  5  1  0
  4  6  2  0
  6  7  1  0
  7  8  2  0
  8  9  1  0
  8 10  1  0
 10 11  1  0
 11 12  2  0
 12 13  1  0
 13 14  1  0
 13 15  2  0
 15 16  1  0
 15 17  1  0
 17 18  1  0
 17 19  2  0
 19 20  1  0
 20 21  1  0
 20 22  1  0
 20 23  1  0
 10 24  2  0
 24 25  1  0
 24 26  1  0
 26 27  1  0
 26 28  1  0
 28 29  2  0
  6 30  1  0
 30 31  1  0
 30 32  2  0
 32 33  1  0
 32  2  1  0
 28  7  1  0
 19 11  1  0
M  END
>  <cnnaffinity>  (1) 
-5.9273

>  <filename>  (1) 
O=c1[nH]cc(-c2ncccc2C(F)(F)F)cc1-c1cccnc1

$$$$
