
     RDKit          3D

 40 42  0  0  0  0  0  0  0  0999 V2000
    4.9362    1.8144   16.8780 H   0  0  0  0  0  0  0  0  0  0  0  0
    5.4104    1.3269   17.7264 C   0  0  0  0  0  0  0  0  0  0  0  0
    6.5571    0.6764   17.4738 N   0  0  0  0  0  0  0  0  0  0  0  0
    7.1927    0.0937   18.5002 C   0  0  0  0  0  0  0  0  0  0  0  0
    8.1265   -0.4148   18.2677 H   0  0  0  0  0  0  0  0  0  0  0  0
    6.7042    0.1228   19.8237 C   0  0  0  0  0  0  0  0  0  0  0  0
    7.3745   -0.4986   20.9432 N   0  0  0  0  0  0  0  0  0  0  0  0
    6.6137   -1.2821   21.8046 C   0  0  0  0  0  0  0  0  0  0  0  0
    5.5632   -1.3785   21.5312 H   0  0  0  0  0  0  0  0  0  0  0  0
    7.1273   -1.9326   22.8775 C   0  0  0  0  0  0  0  0  0  0  0  0
    6.3362   -2.9351   23.6859 C   0  0  0  0  0  0  0  0  0  0  0  0
    6.7791   -3.0065   24.6840 H   0  0  0  0  0  0  0  0  0  0  0  0
    5.3057   -2.5859   23.8272 H   0  0  0  0  0  0  0  0  0  0  0  0
    6.2690   -4.3540   23.0566 C   0  0  0  0  0  0  0  0  0  0  0  0
    5.6186   -4.9731   23.6980 H   0  0  0  0  0  0  0  0  0  0  0  0
    5.5998   -4.3093   21.6604 C   0  0  0  0  0  0  0  0  0  0  0  0
    4.5267   -4.0984   21.7686 H   0  0  0  0  0  0  0  0  0  0  0  0
    6.0268   -3.4838   21.0781 H   0  0  0  0  0  0  0  0  0  0  0  0
    5.8140   -5.5661   20.8058 C   0  0  0  0  0  0  0  0  0  0  0  0
    5.2469   -6.4251   21.1954 H   0  0  0  0  0  0  0  0  0  0  0  0
    5.4447   -5.3666   19.7887 H   0  0  0  0  0  0  0  0  0  0  0  0
    7.3053   -5.9146   20.7725 C   0  0  0  0  0  0  0  0  0  0  0  0
    7.5040   -6.7178   20.0698 H   0  0  0  0  0  0  0  0  0  0  0  0
    7.8594   -5.0535   20.3767 H   0  0  0  0  0  0  0  0  0  0  0  0
    7.8454   -6.2223   22.1753 C   0  0  0  0  0  0  0  0  0  0  0  0
    8.9090   -6.4930   22.1358 H   0  0  0  0  0  0  0  0  0  0  0  0
    7.3225   -7.0840   22.6138 H   0  0  0  0  0  0  0  0  0  0  0  0
    7.6869   -4.9690   23.0357 C   0  0  0  0  0  0  0  0  0  0  0  0
    8.0056   -5.1479   24.0667 H   0  0  0  0  0  0  0  0  0  0  0  0
    8.3854   -4.2237   22.6340 H   0  0  0  0  0  0  0  0  0  0  0  0
    8.5546   -1.7136   23.1865 C   0  0  0  0  0  0  0  0  0  0  0  0
    9.1951   -2.2246   24.0817 O   0  0  0  0  0  0  0  0  0  0  0  0
    9.2009   -0.8441   22.3486 N   0  0  0  0  0  0  0  0  0  0  0  0
   10.1811   -0.7156   22.5162 H   0  0  0  0  0  0  0  0  0  0  0  0
    8.7334   -0.2349   21.2320 C   0  0  0  0  0  0  0  0  0  0  0  0
    9.4637    0.4662   20.5649 O   0  0  0  0  0  0  0  0  0  0  0  0
    5.4849    0.7654   20.0591 C   0  0  0  0  0  0  0  0  0  0  0  0
    5.0860    0.7729   21.0743 H   0  0  0  0  0  0  0  0  0  0  0  0
    4.8315    1.3917   18.9976 C   0  0  0  0  0  0  0  0  0  0  0  0
    3.8949    1.9156   19.1484 H   0  0  0  0  0  0  0  0  0  0  0  0
  1  2  1  0
  2  3  2  0
  3  4  1  0
  4  5  1  0
  4  6  2  0
  6  7  1  0
  7  8  1  0
  8  9  1  0
  8 10  2  0
 10 11  1  0
 11 12  1  0
 11 13  1  0
 11 14  1  0
 14 15  1  0
 14 16  1  0
 16 17  1  0
 16 18  1  0
 16 19  1  0
 19 20  1  0
 19 21  1  0
 19 22  1  0
 22 23  1  0
 22 24  1  0
 22 25  1  0
 25 26  1  0
 25 27  1  0
 25 28  1  0
 28 29  1  0
 28 30  1  0
 10 31  1  0
 31 32  2  0
 31 33  1  0
 33 34  1  0
 33 35  1  0
 35 36  2  0
  6 37  1  0
 37 38  1  0
 37 39  2  0
 39 40  1  0
 39  2  1  0
 35  7  1  0
 28 14  1  0
M  END
>  <cnnaffinity>  (1) 
-5.38443

>  <filename>  (1) 
O=c1[nH]c(=O)n(-c2cccnc2)cc1CC1CCCCC1

$$$$
