
     RDKit          3D

 32 34  0  0  0  0  0  0  0  0999 V2000
    5.0478    1.8680   16.9582 H   0  0  0  0  0  0  0  0  0  0  0  0
    5.4862    1.3245   17.7910 C   0  0  0  0  0  0  0  0  0  0  0  0
    6.6738    0.7494   17.5454 N   0  0  0  0  0  0  0  0  0  0  0  0
    7.2652    0.1174   18.5601 C   0  0  0  0  0  0  0  0  0  0  0  0
    8.2602   -0.2859   18.3731 H   0  0  0  0  0  0  0  0  0  0  0  0
    6.6727   -0.0493   19.8273 C   0  0  0  0  0  0  0  0  0  0  0  0
    7.4217   -0.8067   20.8402 C   0  0  0  0  0  0  0  0  0  0  0  0
    8.7202   -0.5548   20.9175 N   0  0  0  0  0  0  0  0  0  0  0  0
    9.4616   -1.0827   21.9465 C   0  0  0  0  0  0  0  0  0  0  0  0
   10.9639   -0.8661   21.9899 C   0  0  0  0  0  0  0  0  0  0  0  0
   11.6829   -1.9983   21.9531 N   0  0  0  0  0  0  0  0  0  0  0  0
   13.0111   -1.9281   22.0223 C   0  0  0  0  0  0  0  0  0  0  0  0
   13.5586   -2.8607   21.9187 H   0  0  0  0  0  0  0  0  0  0  0  0
   13.6977   -0.7423   22.2749 C   0  0  0  0  0  0  0  0  0  0  0  0
   14.7660   -0.7648   22.4320 H   0  0  0  0  0  0  0  0  0  0  0  0
   12.9721    0.4380   22.3559 C   0  0  0  0  0  0  0  0  0  0  0  0
   13.4633    1.3907   22.5503 H   0  0  0  0  0  0  0  0  0  0  0  0
   11.5923    0.3831   22.1378 C   0  0  0  0  0  0  0  0  0  0  0  0
   10.7649    1.6291   22.1131 C   0  0  0  0  0  0  0  0  0  0  0  0
    9.7269    1.5391   22.9656 F   0  0  0  0  0  0  0  0  0  0  0  0
   10.2591    1.8592   20.8920 F   0  0  0  0  0  0  0  0  0  0  0  0
   11.4712    2.7202   22.4634 F   0  0  0  0  0  0  0  0  0  0  0  0
    8.8963   -1.8906   22.9065 C   0  0  0  0  0  0  0  0  0  0  0  0
    9.4386   -2.2810   23.7668 H   0  0  0  0  0  0  0  0  0  0  0  0
    7.5811   -2.2505   22.7713 N   0  0  0  0  0  0  0  0  0  0  0  0
    7.0854   -2.9134   23.3593 H   0  0  0  0  0  0  0  0  0  0  0  0
    6.7524   -1.8403   21.7256 C   0  0  0  0  0  0  0  0  0  0  0  0
    5.6469   -2.3515   21.6521 O   0  0  0  0  0  0  0  0  0  0  0  0
    5.4256    0.5513   20.0686 C   0  0  0  0  0  0  0  0  0  0  0  0
    4.9433    0.4774   21.0466 H   0  0  0  0  0  0  0  0  0  0  0  0
    4.8347    1.2678   19.0268 C   0  0  0  0  0  0  0  0  0  0  0  0
    3.9016    1.8029   19.1631 H   0  0  0  0  0  0  0  0  0  0  0  0
  1  2  1  0
  2  3  2  0
  3  4  1  0
  4  5  1  0
  4  6  2  0
  6  7  1  0
  7  8  2  0
  8  9  1  0
  9 10  1  0
 10 11  2  0
 11 12  1  0
 12 13  1  0
 12 14  2  0
 14 15  1  0
 14 16  1  0
 16 17  1  0
 16 18  2  0
 18 19  1  0
 19 20  1  0
 19 21  1  0
 19 22  1  0
  9 23  2  0
 23 24  1  0
 23 25  1  0
 25 26  1  0
 25 27  1  0
 27 28  2  0
  6 29  1  0
 29 30  1  0
 29 31  2  0
 31 32  1  0
 31  2  1  0
 27  7  1  0
 18 10  1  0
M  END
>  <cnnaffinity>  (1) 
-6.33565

>  <filename>  (1) 
O=c1[nH]cc(-c2ncccc2C(F)(F)F)nc1-c1cccnc1

$$$$
