
     RDKit          3D

 29 31  0  0  0  0  0  0  0  0999 V2000
   14.2044    1.0162   23.1187 H   0  0  0  0  0  0  0  0  0  0  0  0
   13.2026    0.6428   22.9091 C   0  0  0  0  0  0  0  0  0  0  0  0
   12.2036    1.5255   22.9224 N   0  0  0  0  0  0  0  0  0  0  0  0
   10.9764    1.0515   22.6900 C   0  0  0  0  0  0  0  0  0  0  0  0
   10.1630    1.7839   22.6747 H   0  0  0  0  0  0  0  0  0  0  0  0
   10.7047   -0.3026   22.4560 C   0  0  0  0  0  0  0  0  0  0  0  0
    9.3262   -0.8209   22.1991 C   0  0  0  0  0  0  0  0  0  0  0  0
    8.7702   -1.9132   22.9396 C   0  0  0  0  0  0  0  0  0  0  0  0
    9.3583   -2.3571   23.7427 H   0  0  0  0  0  0  0  0  0  0  0  0
    7.5200   -2.3727   22.6589 C   0  0  0  0  0  0  0  0  0  0  0  0
    7.0531   -3.1927   23.1849 H   0  0  0  0  0  0  0  0  0  0  0  0
    6.6955   -1.8245   21.5897 C   0  0  0  0  0  0  0  0  0  0  0  0
    5.6035   -2.2748   21.2917 O   0  0  0  0  0  0  0  0  0  0  0  0
    7.3047   -0.7229   20.8809 N   0  0  0  0  0  0  0  0  0  0  0  0
    6.6113   -0.0249   19.8246 C   0  0  0  0  0  0  0  0  0  0  0  0
    7.1564    0.0720   18.5278 C   0  0  0  0  0  0  0  0  0  0  0  0
    8.1011   -0.4182   18.3033 H   0  0  0  0  0  0  0  0  0  0  0  0
    6.5694    0.7223   17.5162 N   0  0  0  0  0  0  0  0  0  0  0  0
    5.4076    1.3448   17.7728 C   0  0  0  0  0  0  0  0  0  0  0  0
    4.9524    1.8801   16.9403 H   0  0  0  0  0  0  0  0  0  0  0  0
    4.7984    1.3309   19.0321 C   0  0  0  0  0  0  0  0  0  0  0  0
    3.8749    1.8755   19.1835 H   0  0  0  0  0  0  0  0  0  0  0  0
    5.4067    0.6347   20.0830 C   0  0  0  0  0  0  0  0  0  0  0  0
    4.9836    0.6078   21.0881 H   0  0  0  0  0  0  0  0  0  0  0  0
    8.5582   -0.2593   21.2216 C   0  0  0  0  0  0  0  0  0  0  0  0
    8.9134    0.5915   20.6504 H   0  0  0  0  0  0  0  0  0  0  0  0
   11.8458   -1.1078   22.4285 C   0  0  0  0  0  0  0  0  0  0  0  0
   11.7652   -2.1564   22.1584 H   0  0  0  0  0  0  0  0  0  0  0  0
   13.0849   -0.6590   22.6643 N   0  0  0  0  0  0  0  0  0  0  0  0
  1  2  1  0
  2  3  2  0
  3  4  1  0
  4  5  1  0
  4  6  2  0
  6  7  1  0
  7  8  1  0
  8  9  1  0
  8 10  2  0
 10 11  1  0
 10 12  1  0
 12 13  2  0
 12 14  1  0
 14 15  1  0
 15 16  2  0
 16 17  1  0
 16 18  1  0
 18 19  2  0
 19 20  1  0
 19 21  1  0
 21 22  1  0
 21 23  2  0
 23 24  1  0
 14 25  1  0
 25 26  1  0
  6 27  1  0
 27 28  1  0
 27 29  2  0
 29  2  1  0
 25  7  2  0
 23 15  1  0
M  END
>  <cnnaffinity>  (1) 
-4.89516

>  <filename>  (1) 
O=c1ccc(-c2cncnc2)cn1-c1cccnc1

$$$$
