
     RDKit          3D

 29 31  0  0  0  0  0  0  0  0999 V2000
    4.9331    1.7937   16.9882 H   0  0  0  0  0  0  0  0  0  0  0  0
    5.3936    1.2967   17.8399 C   0  0  0  0  0  0  0  0  0  0  0  0
    6.5503    0.6662   17.5860 N   0  0  0  0  0  0  0  0  0  0  0  0
    7.1350    0.0323   18.6028 C   0  0  0  0  0  0  0  0  0  0  0  0
    8.1091   -0.4104   18.3979 H   0  0  0  0  0  0  0  0  0  0  0  0
    6.5944   -0.0412   19.9003 C   0  0  0  0  0  0  0  0  0  0  0  0
    7.3108   -0.7556   20.9923 C   0  0  0  0  0  0  0  0  0  0  0  0
    6.5754   -1.5236   21.7566 N   0  0  0  0  0  0  0  0  0  0  0  0
    7.1659   -2.1875   22.8009 N   0  0  0  0  0  0  0  0  0  0  0  0
    6.3054   -2.9788   23.6307 C   0  0  0  0  0  0  0  0  0  0  0  0
    5.1955   -3.6459   23.0856 C   0  0  0  0  0  0  0  0  0  0  0  0
    4.9705   -3.5663   22.0264 H   0  0  0  0  0  0  0  0  0  0  0  0
    4.3691   -4.4254   23.8000 N   0  0  0  0  0  0  0  0  0  0  0  0
    4.6066   -4.5419   25.0980 C   0  0  0  0  0  0  0  0  0  0  0  0
    3.5145   -5.5358   26.0134 Cl  0  0  0  0  0  0  0  0  0  0  0  0
    5.6667   -3.9154   25.7616 C   0  0  0  0  0  0  0  0  0  0  0  0
    5.7890   -4.0672   26.8258 H   0  0  0  0  0  0  0  0  0  0  0  0
    6.5366   -3.1212   25.0129 C   0  0  0  0  0  0  0  0  0  0  0  0
    7.3645   -2.5951   25.4859 H   0  0  0  0  0  0  0  0  0  0  0  0
    8.5255   -2.1186   23.0209 C   0  0  0  0  0  0  0  0  0  0  0  0
    8.8792   -2.7418   23.8369 H   0  0  0  0  0  0  0  0  0  0  0  0
    9.3494   -1.3628   22.2791 C   0  0  0  0  0  0  0  0  0  0  0  0
   10.4165   -1.2885   22.4506 H   0  0  0  0  0  0  0  0  0  0  0  0
    8.8009   -0.5659   21.1882 C   0  0  0  0  0  0  0  0  0  0  0  0
    9.5035    0.1693   20.5019 O   0  0  0  0  0  0  0  0  0  0  0  0
    5.3931    0.6324   20.1554 C   0  0  0  0  0  0  0  0  0  0  0  0
    4.9865    0.6184   21.1691 H   0  0  0  0  0  0  0  0  0  0  0  0
    4.7918    1.3208   19.1025 C   0  0  0  0  0  0  0  0  0  0  0  0
    3.8655    1.8627   19.2396 H   0  0  0  0  0  0  0  0  0  0  0  0
  1  2  1  0
  2  3  2  0
  3  4  1  0
  4  5  1  0
  4  6  2  0
  6  7  1  0
  7  8  2  0
  8  9  1  0
  9 10  1  0
 10 11  2  0
 11 12  1  0
 11 13  1  0
 13 14  2  0
 14 15  1  0
 14 16  1  0
 16 17  1  0
 16 18  2  0
 18 19  1  0
  9 20  1  0
 20 21  1  0
 20 22  2  0
 22 23  1  0
 22 24  1  0
 24 25  2  0
  6 26  1  0
 26 27  1  0
 26 28  2  0
 28 29  1  0
 28  2  1  0
 24  7  1  0
 18 10  1  0
M  END
>  <cnnaffinity>  (1) 
-5.24545

>  <filename>  (1) 
O=c1ccn(-c2ccc(Cl)nc2)nc1-c1cccnc1

$$$$
