
     RDKit          3D

 38 40  0  0  0  0  0  0  0  0999 V2000
    4.9384    1.7776   16.9971 H   0  0  0  0  0  0  0  0  0  0  0  0
    5.4153    1.2841   17.8412 C   0  0  0  0  0  0  0  0  0  0  0  0
    6.5854    0.6726   17.5867 N   0  0  0  0  0  0  0  0  0  0  0  0
    7.2165    0.0858   18.6099 C   0  0  0  0  0  0  0  0  0  0  0  0
    8.1610   -0.4033   18.3819 H   0  0  0  0  0  0  0  0  0  0  0  0
    6.6923    0.0426   19.9146 C   0  0  0  0  0  0  0  0  0  0  0  0
    7.3868   -0.6540   20.9518 N   0  0  0  0  0  0  0  0  0  0  0  0
    8.7303   -0.3798   21.0420 N   0  0  0  0  0  0  0  0  0  0  0  0
    9.4015   -0.9006   22.0326 C   0  0  0  0  0  0  0  0  0  0  0  0
   10.8386   -0.4748   22.2240 C   0  0  0  0  0  0  0  0  0  0  0  0
   11.4423   -1.3323   22.5399 H   0  0  0  0  0  0  0  0  0  0  0  0
   11.2333   -0.1270   21.2623 H   0  0  0  0  0  0  0  0  0  0  0  0
   10.9950    0.6226   23.2905 C   0  0  0  0  0  0  0  0  0  0  0  0
   12.0719    0.8533   23.4473 H   0  0  0  0  0  0  0  0  0  0  0  0
   10.6142    0.2393   24.2473 H   0  0  0  0  0  0  0  0  0  0  0  0
   10.2094    1.7945   22.9332 N   0  0  0  0  0  0  0  0  0  0  0  0
   10.8199    2.6472   21.9007 C   0  0  0  0  0  0  0  0  0  0  0  0
   11.5275    2.0750   21.2847 H   0  0  0  0  0  0  0  0  0  0  0  0
   10.0118    2.9589   21.2268 H   0  0  0  0  0  0  0  0  0  0  0  0
   11.5124    3.8338   22.6316 C   0  0  0  0  0  0  0  0  0  0  0  0
   11.2765    4.7918   22.1584 H   0  0  0  0  0  0  0  0  0  0  0  0
   12.6040    3.7345   22.5899 H   0  0  0  0  0  0  0  0  0  0  0  0
   10.9990    3.7503   24.0903 C   0  0  0  0  0  0  0  0  0  0  0  0
   10.6516    4.7101   24.4900 H   0  0  0  0  0  0  0  0  0  0  0  0
   11.7968    3.3942   24.7498 H   0  0  0  0  0  0  0  0  0  0  0  0
    9.8697    2.7045   24.0300 C   0  0  0  0  0  0  0  0  0  0  0  0
    8.9018    3.1828   23.8123 H   0  0  0  0  0  0  0  0  0  0  0  0
    9.7305    2.1482   24.9671 H   0  0  0  0  0  0  0  0  0  0  0  0
    8.8132   -1.8653   22.9337 C   0  0  0  0  0  0  0  0  0  0  0  0
    9.4542   -2.2942   23.6995 H   0  0  0  0  0  0  0  0  0  0  0  0
    7.5141   -2.2325   22.7750 C   0  0  0  0  0  0  0  0  0  0  0  0
    7.0002   -2.9668   23.3795 H   0  0  0  0  0  0  0  0  0  0  0  0
    6.6985   -1.6638   21.7100 C   0  0  0  0  0  0  0  0  0  0  0  0
    5.5627   -2.0212   21.4525 O   0  0  0  0  0  0  0  0  0  0  0  0
    5.4621    0.6576   20.1677 C   0  0  0  0  0  0  0  0  0  0  0  0
    5.0194    0.6001   21.1597 H   0  0  0  0  0  0  0  0  0  0  0  0
    4.8254    1.3086   19.1075 C   0  0  0  0  0  0  0  0  0  0  0  0
    3.8858    1.8283   19.2528 H   0  0  0  0  0  0  0  0  0  0  0  0
  1  2  1  0
  2  3  2  0
  3  4  1  0
  4  5  1  0
  4  6  2  0
  6  7  1  0
  7  8  1  0
  8  9  2  0
  9 10  1  0
 10 11  1  0
 10 12  1  0
 10 13  1  0
 13 14  1  0
 13 15  1  0
 13 16  1  0
 16 17  1  0
 17 18  1  0
 17 19  1  0
 17 20  1  0
 20 21  1  0
 20 22  1  0
 20 23  1  0
 23 24  1  0
 23 25  1  0
 23 26  1  0
 26 27  1  0
 26 28  1  0
  9 29  1  0
 29 30  1  0
 29 31  2  0
 31 32  1  0
 31 33  1  0
 33 34  2  0
  6 35  1  0
 35 36  1  0
 35 37  2  0
 37 38  1  0
 37  2  1  0
 33  7  1  0
 26 16  1  0
M  END
>  <cnnaffinity>  (1) 
-5.09787

>  <filename>  (1) 
O=c1ccc(CCN2CCCC2)nn1-c1cccnc1

$$$$
