
     RDKit          3D

 31 33  0  0  0  0  0  0  0  0999 V2000
    4.9167    1.8177   16.9562 H   0  0  0  0  0  0  0  0  0  0  0  0
    5.3817    1.3143   17.8037 C   0  0  0  0  0  0  0  0  0  0  0  0
    6.5407    0.6843   17.5452 N   0  0  0  0  0  0  0  0  0  0  0  0
    7.1480    0.0797   18.5737 C   0  0  0  0  0  0  0  0  0  0  0  0
    8.0902   -0.4198   18.3484 H   0  0  0  0  0  0  0  0  0  0  0  0
    6.6405    0.0351   19.8883 C   0  0  0  0  0  0  0  0  0  0  0  0
    7.2847   -0.7121   20.9697 C   0  0  0  0  0  0  0  0  0  0  0  0
    6.7504   -1.6291   21.7868 C   0  0  0  0  0  0  0  0  0  0  0  0
    5.7546   -2.0362   21.8456 H   0  0  0  0  0  0  0  0  0  0  0  0
    7.7037   -2.1533   22.6146 O   0  0  0  0  0  0  0  0  0  0  0  0
    8.8967   -1.5433   22.3332 C   0  0  0  0  0  0  0  0  0  0  0  0
    9.9386   -1.7857   22.8842 O   0  0  0  0  0  0  0  0  0  0  0  0
    8.6370   -0.6448   21.3147 N   0  0  0  0  0  0  0  0  0  0  0  0
    9.6560    0.2614   20.8146 C   0  0  0  0  0  0  0  0  0  0  0  0
    9.1863    0.8840   20.0489 H   0  0  0  0  0  0  0  0  0  0  0  0
   10.4337   -0.3596   20.3611 H   0  0  0  0  0  0  0  0  0  0  0  0
   10.2810    1.1517   21.8768 C   0  0  0  0  0  0  0  0  0  0  0  0
   11.5911    0.9055   22.3135 C   0  0  0  0  0  0  0  0  0  0  0  0
   12.1353    0.0774   21.8624 H   0  0  0  0  0  0  0  0  0  0  0  0
   12.1659    1.6473   23.3472 C   0  0  0  0  0  0  0  0  0  0  0  0
   13.1670    1.4045   23.6921 H   0  0  0  0  0  0  0  0  0  0  0  0
   11.4362    2.6794   23.9453 C   0  0  0  0  0  0  0  0  0  0  0  0
   11.8741    3.2700   24.7434 H   0  0  0  0  0  0  0  0  0  0  0  0
   10.1398    2.9680   23.5085 C   0  0  0  0  0  0  0  0  0  0  0  0
    9.5486    3.7684   23.9433 H   0  0  0  0  0  0  0  0  0  0  0  0
    9.5793    2.2067   22.4772 C   0  0  0  0  0  0  0  0  0  0  0  0
    7.9680    2.5968   21.9504 Cl  0  0  0  0  0  0  0  0  0  0  0  0
    5.4118    0.6700   20.1265 C   0  0  0  0  0  0  0  0  0  0  0  0
    4.9895    0.6456   21.1333 H   0  0  0  0  0  0  0  0  0  0  0  0
    4.7867    1.3332   19.0707 C   0  0  0  0  0  0  0  0  0  0  0  0
    3.8550    1.8652   19.2154 H   0  0  0  0  0  0  0  0  0  0  0  0
  1  2  1  0
  2  3  2  0
  3  4  1  0
  4  5  1  0
  4  6  2  0
  6  7  1  0
  7  8  2  0
  8  9  1  0
  8 10  1  0
 10 11  1  0
 11 12  2  0
 11 13  1  0
 13 14  1  0
 14 15  1  0
 14 16  1  0
 14 17  1  0
 17 18  2  0
 18 19  1  0
 18 20  1  0
 20 21  1  0
 20 22  2  0
 22 23  1  0
 22 24  1  0
 24 25  1  0
 24 26  2  0
 26 27  1  0
  6 28  1  0
 28 29  1  0
 28 30  2  0
 30 31  1  0
 30  2  1  0
 13  7  1  0
 26 17  1  0
M  END
>  <cnnaffinity>  (1) 
-5.35937

>  <filename>  (1) 
O=c1occ(-c2cccnc2)n1Cc1ccccc1Cl

$$$$
