
     RDKit          3D

 36 39  0  0  0  0  0  0  0  0999 V2000
    4.9704    1.8346   17.0151 H   0  0  0  0  0  0  0  0  0  0  0  0
    5.4412    1.2936   17.8308 C   0  0  0  0  0  0  0  0  0  0  0  0
    6.5999    0.6807   17.5417 N   0  0  0  0  0  0  0  0  0  0  0  0
    7.2103    0.0260   18.5338 C   0  0  0  0  0  0  0  0  0  0  0  0
    8.1496   -0.4681   18.2908 H   0  0  0  0  0  0  0  0  0  0  0  0
    6.6917   -0.0749   19.8385 C   0  0  0  0  0  0  0  0  0  0  0  0
    7.4210   -0.7949   20.8345 N   0  0  0  0  0  0  0  0  0  0  0  0
    8.7365   -0.4967   21.1836 C   0  0  0  0  0  0  0  0  0  0  0  0
    9.2640    0.3222   20.7194 H   0  0  0  0  0  0  0  0  0  0  0  0
    9.1022   -1.3125   22.1988 C   0  0  0  0  0  0  0  0  0  0  0  0
   10.3933   -1.4308   22.9669 C   0  0  0  0  0  0  0  0  0  0  0  0
   10.4746   -2.4376   23.3961 H   0  0  0  0  0  0  0  0  0  0  0  0
   11.2471   -1.2640   22.3018 H   0  0  0  0  0  0  0  0  0  0  0  0
   10.4607   -0.4505   24.0645 N   0  0  0  0  0  0  0  0  0  0  0  0
    9.6186   -0.6213   25.1738 C   0  0  0  0  0  0  0  0  0  0  0  0
    9.2196   -1.7047   25.5410 O   0  0  0  0  0  0  0  0  0  0  0  0
    9.2783    0.7341   25.6833 C   0  0  0  0  0  0  0  0  0  0  0  0
    8.4620    1.1364   26.7448 C   0  0  0  0  0  0  0  0  0  0  0  0
    7.9697    0.4094   27.3918 H   0  0  0  0  0  0  0  0  0  0  0  0
    8.2795    2.5110   26.9332 C   0  0  0  0  0  0  0  0  0  0  0  0
    7.6963    2.8534   27.7864 H   0  0  0  0  0  0  0  0  0  0  0  0
    8.8454    3.4507   26.0424 C   0  0  0  0  0  0  0  0  0  0  0  0
    8.6437    4.5101   26.1814 H   0  0  0  0  0  0  0  0  0  0  0  0
    9.6425    3.0336   24.9713 C   0  0  0  0  0  0  0  0  0  0  0  0
   10.0569    3.7468   24.2629 H   0  0  0  0  0  0  0  0  0  0  0  0
    9.8496    1.6623   24.8145 C   0  0  0  0  0  0  0  0  0  0  0  0
   10.5846    0.9137   23.7606 C   0  0  0  0  0  0  0  0  0  0  0  0
   11.1667    1.3249   22.7826 O   0  0  0  0  0  0  0  0  0  0  0  0
    7.9858   -2.0854   22.4694 N   0  0  0  0  0  0  0  0  0  0  0  0
    7.8141   -2.6222   23.3052 H   0  0  0  0  0  0  0  0  0  0  0  0
    6.9572   -1.8449   21.6045 C   0  0  0  0  0  0  0  0  0  0  0  0
    5.5649   -2.7482   21.4878 S   0  0  0  0  0  0  0  0  0  0  0  0
    5.4747    0.5545   20.1323 C   0  0  0  0  0  0  0  0  0  0  0  0
    5.0515    0.5029   21.1389 H   0  0  0  0  0  0  0  0  0  0  0  0
    4.8477    1.2603   19.0987 C   0  0  0  0  0  0  0  0  0  0  0  0
    3.9207    1.7962   19.2681 H   0  0  0  0  0  0  0  0  0  0  0  0
  1  2  1  0
  2  3  2  0
  3  4  1  0
  4  5  1  0
  4  6  2  0
  6  7  1  0
  7  8  1  0
  8  9  1  0
  8 10  2  0
 10 11  1  0
 11 12  1  0
 11 13  1  0
 11 14  1  0
 14 15  1  0
 15 16  2  0
 15 17  1  0
 17 18  2  0
 18 19  1  0
 18 20  1  0
 20 21  1  0
 20 22  2  0
 22 23  1  0
 22 24  1  0
 24 25  1  0
 24 26  2  0
 26 27  1  0
 27 28  2  0
 10 29  1  0
 29 30  1  0
 29 31  1  0
 31 32  2  0
  6 33  1  0
 33 34  1  0
 33 35  2  0
 35 36  1  0
 35  2  1  0
 31  7  1  0
 27 14  1  0
 26 17  1  0
M  END
>  <cnnaffinity>  (1) 
-5.42144

>  <filename>  (1) 
O=C1c2ccccc2C(=O)N1Cc1cn(-c2cccnc2)c(=S)[nH]1

$$$$
