
     RDKit          3D

 38 41  0  0  0  0  0  0  0  0999 V2000
    4.9909    1.8020   17.1210 H   0  0  0  0  0  0  0  0  0  0  0  0
    5.4742    1.2405   17.9184 C   0  0  0  0  0  0  0  0  0  0  0  0
    6.6329    0.6418   17.5938 N   0  0  0  0  0  0  0  0  0  0  0  0
    7.2680   -0.0439   18.5537 C   0  0  0  0  0  0  0  0  0  0  0  0
    8.2125   -0.5034   18.2723 H   0  0  0  0  0  0  0  0  0  0  0  0
    6.7829   -0.1839   19.8828 C   0  0  0  0  0  0  0  0  0  0  0  0
    7.5135   -0.8757   20.8834 N   0  0  0  0  0  0  0  0  0  0  0  0
    8.8910   -0.8501   21.1241 C   0  0  0  0  0  0  0  0  0  0  0  0
    9.8204   -0.5538   20.4268 O   0  0  0  0  0  0  0  0  0  0  0  0
    8.7068   -1.2422   22.5785 C   0  0  0  0  0  0  0  0  0  0  0  0
    9.1229   -0.5315   23.2912 H   0  0  0  0  0  0  0  0  0  0  0  0
    9.0786   -2.2464   22.7873 H   0  0  0  0  0  0  0  0  0  0  0  0
    7.1929   -1.1309   22.3125 C   0  0  2  0  0  0  0  0  0  0  0  0
    6.7556   -0.2442   22.7983 H   0  0  0  0  0  0  0  0  0  0  0  0
    6.3554   -2.3799   22.5768 C   0  0  0  0  0  0  0  0  0  0  0  0
    6.8201   -3.2311   22.0669 H   0  0  0  0  0  0  0  0  0  0  0  0
    5.3834   -2.2497   22.0845 H   0  0  0  0  0  0  0  0  0  0  0  0
    6.1762   -2.7189   24.0533 C   0  0  0  0  0  0  0  0  0  0  0  0
    5.6607   -1.7592   24.9816 C   0  0  0  0  0  0  0  0  0  0  0  0
    5.4980   -0.7380   24.6462 H   0  0  0  0  0  0  0  0  0  0  0  0
    5.3266   -2.1108   26.2693 C   0  0  0  0  0  0  0  0  0  0  0  0
    4.9103   -1.3624   26.9406 H   0  0  0  0  0  0  0  0  0  0  0  0
    5.5454   -3.4401   26.7409 C   0  0  0  0  0  0  0  0  0  0  0  0
    5.1741   -3.8562   28.0550 C   0  0  0  0  0  0  0  0  0  0  0  0
    4.6645   -3.1448   28.7012 H   0  0  0  0  0  0  0  0  0  0  0  0
    5.4423   -5.1349   28.4867 C   0  0  0  0  0  0  0  0  0  0  0  0
    5.1489   -5.4449   29.4852 H   0  0  0  0  0  0  0  0  0  0  0  0
    6.1220   -6.0559   27.6386 C   0  0  0  0  0  0  0  0  0  0  0  0
    6.3849   -7.0421   28.0226 H   0  0  0  0  0  0  0  0  0  0  0  0
    6.4684   -5.6904   26.3594 C   0  0  0  0  0  0  0  0  0  0  0  0
    6.9892   -6.3895   25.7126 H   0  0  0  0  0  0  0  0  0  0  0  0
    6.1653   -4.3857   25.8604 C   0  0  0  0  0  0  0  0  0  0  0  0
    6.4429   -3.9925   24.5142 C   0  0  0  0  0  0  0  0  0  0  0  0
    6.8423   -4.7420   23.8373 H   0  0  0  0  0  0  0  0  0  0  0  0
    5.5495    0.4119   20.1855 C   0  0  0  0  0  0  0  0  0  0  0  0
    5.1352    0.3110   21.1876 H   0  0  0  0  0  0  0  0  0  0  0  0
    4.8975    1.1497   19.1894 C   0  0  0  0  0  0  0  0  0  0  0  0
    3.9652    1.6673   19.3888 H   0  0  0  0  0  0  0  0  0  0  0  0
  1  2  1  0
  2  3  2  0
  3  4  1  0
  4  5  1  0
  4  6  2  0
  6  7  1  0
  7  8  1  0
  8  9  2  0
  8 10  1  0
 10 11  1  0
 10 12  1  0
 10 13  1  0
 13 14  1  1
 13 15  1  0
 15 16  1  0
 15 17  1  0
 15 18  1  0
 18 19  2  0
 19 20  1  0
 19 21  1  0
 21 22  1  0
 21 23  2  0
 23 24  1  0
 24 25  1  0
 24 26  2  0
 26 27  1  0
 26 28  1  0
 28 29  1  0
 28 30  2  0
 30 31  1  0
 30 32  1  0
 32 33  2  0
 33 34  1  0
  6 35  1  0
 35 36  1  0
 35 37  2  0
 37 38  1  0
 37  2  1  0
 13  7  1  0
 33 18  1  0
 32 23  1  0
M  END
>  <cnnaffinity>  (1) 
-4.83974

>  <filename>  (1) 
O=C1C[C@H](Cc2ccc3ccccc3c2)N1c1cccnc1

$$$$
