
     RDKit          3D

 34 36  0  0  0  0  0  0  0  0999 V2000
    4.9075    1.7791   16.9972 H   0  0  0  0  0  0  0  0  0  0  0  0
    5.3986    1.2956   17.8359 C   0  0  0  0  0  0  0  0  0  0  0  0
    6.5635    0.6833   17.5658 N   0  0  0  0  0  0  0  0  0  0  0  0
    7.1850    0.0780   18.5843 C   0  0  0  0  0  0  0  0  0  0  0  0
    8.1239   -0.4343   18.3787 H   0  0  0  0  0  0  0  0  0  0  0  0
    6.6720    0.0336   19.8919 C   0  0  0  0  0  0  0  0  0  0  0  0
    7.3645   -0.6677   20.9353 N   0  0  0  0  0  0  0  0  0  0  0  0
    8.6427   -0.2619   21.2714 C   0  0  0  0  0  0  0  0  0  0  0  0
    9.0554    0.5737   20.7052 H   0  0  0  0  0  0  0  0  0  0  0  0
    9.3392   -0.8603   22.2822 C   0  0  0  0  0  0  0  0  0  0  0  0
   10.7106   -0.4182   22.6336 C   0  0  0  0  0  0  0  0  0  0  0  0
   11.7759   -1.2847   22.3473 C   0  0  0  0  0  0  0  0  0  0  0  0
   11.5633   -2.2575   21.9137 H   0  0  0  0  0  0  0  0  0  0  0  0
   13.0910   -0.8979   22.5943 C   0  0  0  0  0  0  0  0  0  0  0  0
   13.9059   -1.5831   22.3822 H   0  0  0  0  0  0  0  0  0  0  0  0
   13.3522    0.3487   23.1633 C   0  0  0  0  0  0  0  0  0  0  0  0
   14.3726    0.6525   23.3670 H   0  0  0  0  0  0  0  0  0  0  0  0
   12.3052    1.2136   23.4722 C   0  0  0  0  0  0  0  0  0  0  0  0
   12.5229    2.1887   23.9007 H   0  0  0  0  0  0  0  0  0  0  0  0
   10.9785    0.8318   23.2310 C   0  0  0  0  0  0  0  0  0  0  0  0
    9.8501    1.7864   23.5909 C   0  0  0  0  0  0  0  0  0  0  0  0
    8.7807    1.1661   24.1236 F   0  0  0  0  0  0  0  0  0  0  0  0
   10.2302    2.7225   24.4830 F   0  0  0  0  0  0  0  0  0  0  0  0
    9.4079    2.4570   22.5026 F   0  0  0  0  0  0  0  0  0  0  0  0
    8.7488   -1.9626   22.9613 C   0  0  0  0  0  0  0  0  0  0  0  0
    9.3065   -2.4590   23.7579 H   0  0  0  0  0  0  0  0  0  0  0  0
    7.4919   -2.3842   22.6441 C   0  0  0  0  0  0  0  0  0  0  0  0
    6.9938   -3.2053   23.1295 H   0  0  0  0  0  0  0  0  0  0  0  0
    6.7048   -1.7599   21.5988 C   0  0  0  0  0  0  0  0  0  0  0  0
    5.5938   -2.1407   21.2715 O   0  0  0  0  0  0  0  0  0  0  0  0
    5.4469    0.6542   20.1589 C   0  0  0  0  0  0  0  0  0  0  0  0
    5.0175    0.6156   21.1622 H   0  0  0  0  0  0  0  0  0  0  0  0
    4.8084    1.3138   19.1060 C   0  0  0  0  0  0  0  0  0  0  0  0
    3.8731    1.8434   19.2640 H   0  0  0  0  0  0  0  0  0  0  0  0
  1  2  1  0
  2  3  2  0
  3  4  1  0
  4  5  1  0
  4  6  2  0
  6  7  1  0
  7  8  1  0
  8  9  1  0
  8 10  2  0
 10 11  1  0
 11 12  2  0
 12 13  1  0
 12 14  1  0
 14 15  1  0
 14 16  2  0
 16 17  1  0
 16 18  1  0
 18 19  1  0
 18 20  2  0
 20 21  1  0
 21 22  1  0
 21 23  1  0
 21 24  1  0
 10 25  1  0
 25 26  1  0
 25 27  2  0
 27 28  1  0
 27 29  1  0
 29 30  2  0
  6 31  1  0
 31 32  1  0
 31 33  2  0
 33 34  1  0
 33  2  1  0
 29  7  1  0
 20 11  1  0
M  END
>  <cnnaffinity>  (1) 
-5.655

>  <filename>  (1) 
O=c1ccc(-c2ccccc2C(F)(F)F)cn1-c1cccnc1

$$$$
