
     RDKit          3D

 35 38  0  0  0  0  0  0  0  0999 V2000
    4.9044    1.8288   16.9541 H   0  0  0  0  0  0  0  0  0  0  0  0
    5.3874    1.3304   17.7926 C   0  0  0  0  0  0  0  0  0  0  0  0
    6.5524    0.7222   17.5184 N   0  0  0  0  0  0  0  0  0  0  0  0
    7.1770    0.1093   18.5319 C   0  0  0  0  0  0  0  0  0  0  0  0
    8.1151   -0.3824   18.2763 H   0  0  0  0  0  0  0  0  0  0  0  0
    6.6785    0.0282   19.8547 C   0  0  0  0  0  0  0  0  0  0  0  0
    7.4146   -0.6964   20.9390 C   0  0  0  0  0  0  0  0  0  0  0  0
    8.7235   -0.4505   21.1809 C   0  0  0  0  0  0  0  0  0  0  0  0
    9.3077    0.2764   20.6115 H   0  0  0  0  0  0  0  0  0  0  0  0
    9.4413   -1.0910   22.1864 N   0  0  0  0  0  0  0  0  0  0  0  0
   10.8198   -0.7523   22.3875 C   0  0  0  0  0  0  0  0  0  0  0  0
   11.7961   -1.7237   22.2101 C   0  0  0  0  0  0  0  0  0  0  0  0
   11.4912   -2.7473   22.0330 H   0  0  0  0  0  0  0  0  0  0  0  0
   13.1651   -1.3956   22.3034 C   0  0  0  0  0  0  0  0  0  0  0  0
   13.9157   -2.1622   22.1217 H   0  0  0  0  0  0  0  0  0  0  0  0
   13.5744   -0.1246   22.6860 C   0  0  0  0  0  0  0  0  0  0  0  0
   14.6212    0.1047   22.8605 H   0  0  0  0  0  0  0  0  0  0  0  0
   12.5768    0.8498   22.8825 C   0  0  0  0  0  0  0  0  0  0  0  0
   11.1978    0.5713   22.7153 C   0  0  0  0  0  0  0  0  0  0  0  0
   10.4988    1.8070   22.9613 C   0  0  0  0  0  0  0  0  0  0  0  0
    9.4252    1.9579   22.9167 H   0  0  0  0  0  0  0  0  0  0  0  0
   11.4389    2.7462   23.2599 C   0  0  0  0  0  0  0  0  0  0  0  0
   11.3173    3.8004   23.4778 H   0  0  0  0  0  0  0  0  0  0  0  0
   12.6908    2.1718   23.2259 N   0  0  0  0  0  0  0  0  0  0  0  0
   13.5619    2.6535   23.3749 H   0  0  0  0  0  0  0  0  0  0  0  0
    8.8309   -2.0281   23.0415 C   0  0  0  0  0  0  0  0  0  0  0  0
    9.3860   -2.6434   23.9188 O   0  0  0  0  0  0  0  0  0  0  0  0
    7.5051   -2.2092   22.8100 N   0  0  0  0  0  0  0  0  0  0  0  0
    7.0744   -2.9263   23.3584 H   0  0  0  0  0  0  0  0  0  0  0  0
    6.7367   -1.7409   21.7638 C   0  0  0  0  0  0  0  0  0  0  0  0
    5.6450   -2.2417   21.6072 O   0  0  0  0  0  0  0  0  0  0  0  0
    5.4463    0.6609   20.1019 C   0  0  0  0  0  0  0  0  0  0  0  0
    5.0144    0.6102   21.1003 H   0  0  0  0  0  0  0  0  0  0  0  0
    4.7968    1.3327   19.0594 C   0  0  0  0  0  0  0  0  0  0  0  0
    3.8536    1.8518   19.2101 H   0  0  0  0  0  0  0  0  0  0  0  0
  1  2  1  0
  2  3  2  0
  3  4  1  0
  4  5  1  0
  4  6  2  0
  6  7  1  0
  7  8  2  0
  8  9  1  0
  8 10  1  0
 10 11  1  0
 11 12  2  0
 12 13  1  0
 12 14  1  0
 14 15  1  0
 14 16  2  0
 16 17  1  0
 16 18  1  0
 18 19  2  0
 19 20  1  0
 20 21  1  0
 20 22  2  0
 22 23  1  0
 22 24  1  0
 24 25  1  0
 10 26  1  0
 26 27  2  0
 26 28  1  0
 28 29  1  0
 28 30  1  0
 30 31  2  0
  6 32  1  0
 32 33  1  0
 32 34  2  0
 34 35  1  0
 34  2  1  0
 30  7  1  0
 19 11  1  0
 24 18  1  0
M  END
>  <cnnaffinity>  (1) 
-5.50845

>  <filename>  (1) 
O=c1[nH]c(=O)n(-c2cccc3[nH]ccc23)cc1-c1cccnc1

$$$$
