
     RDKit          3D

 35 38  0  0  0  0  0  0  0  0999 V2000
    4.9981    2.0204   16.9160 H   0  0  0  0  0  0  0  0  0  0  0  0
    5.3625    1.3889   17.7260 C   0  0  0  0  0  0  0  0  0  0  0  0
    6.4798    0.6892   17.4675 N   0  0  0  0  0  0  0  0  0  0  0  0
    6.9776   -0.0642   18.4514 C   0  0  0  0  0  0  0  0  0  0  0  0
    7.9136   -0.5840   18.2483 H   0  0  0  0  0  0  0  0  0  0  0  0
    6.3774   -0.1982   19.7199 C   0  0  0  0  0  0  0  0  0  0  0  0
    7.0580   -0.9302   20.7648 N   0  0  0  0  0  0  0  0  0  0  0  0
    8.3364   -0.5094   21.0863 C   0  0  0  0  0  0  0  0  0  0  0  0
    8.7173    0.3168   20.4874 H   0  0  0  0  0  0  0  0  0  0  0  0
    9.0797   -1.0682   22.0664 C   0  0  0  0  0  0  0  0  0  0  0  0
   10.4034   -0.4903   22.3625 C   0  0  0  0  0  0  0  0  0  0  0  0
   11.5867   -1.2727   22.2829 C   0  0  0  0  0  0  0  0  0  0  0  0
   11.4801   -2.3371   22.0862 H   0  0  0  0  0  0  0  0  0  0  0  0
   12.8366   -0.6873   22.4545 C   0  0  0  0  0  0  0  0  0  0  0  0
   13.7383   -1.2917   22.3959 H   0  0  0  0  0  0  0  0  0  0  0  0
   12.9185    0.6962   22.7176 C   0  0  0  0  0  0  0  0  0  0  0  0
   14.0012    1.6189   22.9271 C   0  0  0  0  0  0  0  0  0  0  0  0
   15.0522    1.3767   22.8532 H   0  0  0  0  0  0  0  0  0  0  0  0
   13.4468    2.8427   23.1627 C   0  0  0  0  0  0  0  0  0  0  0  0
   13.9265    3.7913   23.3664 H   0  0  0  0  0  0  0  0  0  0  0  0
   12.0674    2.7452   23.1275 N   0  0  0  0  0  0  0  0  0  0  0  0
   11.4250    3.5080   22.9933 H   0  0  0  0  0  0  0  0  0  0  0  0
   11.7242    1.4511   22.8282 C   0  0  0  0  0  0  0  0  0  0  0  0
   10.4685    0.8809   22.6232 C   0  0  0  0  0  0  0  0  0  0  0  0
    9.5625    1.4802   22.6625 H   0  0  0  0  0  0  0  0  0  0  0  0
    8.5098   -2.1986   22.8227 C   0  0  0  0  0  0  0  0  0  0  0  0
    9.0457   -2.9014   23.6514 O   0  0  0  0  0  0  0  0  0  0  0  0
    7.1846   -2.4458   22.5302 N   0  0  0  0  0  0  0  0  0  0  0  0
    6.7696   -3.2182   23.0114 H   0  0  0  0  0  0  0  0  0  0  0  0
    6.4410   -1.9759   21.4951 C   0  0  0  0  0  0  0  0  0  0  0  0
    5.3688   -2.4735   21.2509 O   0  0  0  0  0  0  0  0  0  0  0  0
    5.1991    0.5089   19.9733 C   0  0  0  0  0  0  0  0  0  0  0  0
    4.7169    0.4275   20.9484 H   0  0  0  0  0  0  0  0  0  0  0  0
    4.6954    1.3323   18.9554 C   0  0  0  0  0  0  0  0  0  0  0  0
    3.8171    1.9497   19.1070 H   0  0  0  0  0  0  0  0  0  0  0  0
  1  2  1  0
  2  3  2  0
  3  4  1  0
  4  5  1  0
  4  6  2  0
  6  7  1  0
  7  8  1  0
  8  9  1  0
  8 10  2  0
 10 11  1  0
 11 12  2  0
 12 13  1  0
 12 14  1  0
 14 15  1  0
 14 16  2  0
 16 17  1  0
 17 18  1  0
 17 19  2  0
 19 20  1  0
 19 21  1  0
 21 22  1  0
 21 23  1  0
 23 24  2  0
 24 25  1  0
 10 26  1  0
 26 27  2  0
 26 28  1  0
 28 29  1  0
 28 30  1  0
 30 31  2  0
  6 32  1  0
 32 33  1  0
 32 34  2  0
 34 35  1  0
 34  2  1  0
 30  7  1  0
 24 11  1  0
 23 16  1  0
M  END
>  <cnnaffinity>  (1) 
-5.9435

>  <filename>  (1) 
O=c1[nH]c(=O)n(-c2cccnc2)cc1-c1ccc2cc[nH]c2c1

$$$$
