
     RDKit          3D

 29 31  0  0  0  0  0  0  0  0999 V2000
    4.9977    1.7804   16.9781 H   0  0  0  0  0  0  0  0  0  0  0  0
    5.4732    1.2972   17.8300 C   0  0  0  0  0  0  0  0  0  0  0  0
    6.6656    0.7194   17.5913 N   0  0  0  0  0  0  0  0  0  0  0  0
    7.2744    0.1187   18.6160 C   0  0  0  0  0  0  0  0  0  0  0  0
    8.2539   -0.3217   18.4417 H   0  0  0  0  0  0  0  0  0  0  0  0
    6.7036    0.0118   19.8946 C   0  0  0  0  0  0  0  0  0  0  0  0
    7.4038   -0.7037   20.9098 N   0  0  0  0  0  0  0  0  0  0  0  0
    8.7237   -0.3597   21.0024 N   0  0  0  0  0  0  0  0  0  0  0  0
    9.4472   -0.9244   21.9396 C   0  0  0  0  0  0  0  0  0  0  0  0
   10.8673   -0.4926   22.0088 C   0  0  0  0  0  0  0  0  0  0  0  0
   11.1255    0.8733   21.8058 C   0  0  0  0  0  0  0  0  0  0  0  0
   10.3143    1.5437   21.5402 H   0  0  0  0  0  0  0  0  0  0  0  0
   12.3425    1.4126   21.9130 N   0  0  0  0  0  0  0  0  0  0  0  0
   13.3688    0.5980   22.1829 C   0  0  0  0  0  0  0  0  0  0  0  0
   14.3599    1.0396   22.2605 H   0  0  0  0  0  0  0  0  0  0  0  0
   13.2149   -0.7852   22.3225 C   0  0  0  0  0  0  0  0  0  0  0  0
   14.3235   -1.5178   22.5070 F   0  0  0  0  0  0  0  0  0  0  0  0
   11.9480   -1.3626   22.2560 C   0  0  0  0  0  0  0  0  0  0  0  0
   11.8256   -2.4459   22.3435 H   0  0  0  0  0  0  0  0  0  0  0  0
    8.8932   -1.8678   22.8706 C   0  0  0  0  0  0  0  0  0  0  0  0
    9.5345   -2.2435   23.6649 H   0  0  0  0  0  0  0  0  0  0  0  0
    7.5874   -2.2410   22.7526 C   0  0  0  0  0  0  0  0  0  0  0  0
    7.0922   -2.9499   23.4047 H   0  0  0  0  0  0  0  0  0  0  0  0
    6.7426   -1.7313   21.6771 C   0  0  0  0  0  0  0  0  0  0  0  0
    5.6205   -2.1265   21.4187 O   0  0  0  0  0  0  0  0  0  0  0  0
    5.4737    0.6201   20.1469 C   0  0  0  0  0  0  0  0  0  0  0  0
    5.0327    0.5765   21.1409 H   0  0  0  0  0  0  0  0  0  0  0  0
    4.8557    1.2863   19.0845 C   0  0  0  0  0  0  0  0  0  0  0  0
    3.9115    1.8023   19.2184 H   0  0  0  0  0  0  0  0  0  0  0  0
  1  2  1  0
  2  3  2  0
  3  4  1  0
  4  5  1  0
  4  6  2  0
  6  7  1  0
  7  8  1  0
  8  9  2  0
  9 10  1  0
 10 11  2  0
 11 12  1  0
 11 13  1  0
 13 14  2  0
 14 15  1  0
 14 16  1  0
 16 17  1  0
 16 18  2  0
 18 19  1  0
  9 20  1  0
 20 21  1  0
 20 22  2  0
 22 23  1  0
 22 24  1  0
 24 25  2  0
  6 26  1  0
 26 27  1  0
 26 28  2  0
 28 29  1  0
 28  2  1  0
 24  7  1  0
 18 10  1  0
M  END
>  <cnnaffinity>  (1) 
-5.30078

>  <filename>  (1) 
O=c1ccc(-c2cncc(F)c2)nn1-c1cccnc1

$$$$
