
     RDKit          3D

 28 30  0  0  0  0  0  0  0  0999 V2000
    4.9910    1.8601   16.9509 H   0  0  0  0  0  0  0  0  0  0  0  0
    5.4464    1.3340   17.7864 C   0  0  0  0  0  0  0  0  0  0  0  0
    6.6303    0.7571   17.5307 N   0  0  0  0  0  0  0  0  0  0  0  0
    7.2362    0.1195   18.5334 C   0  0  0  0  0  0  0  0  0  0  0  0
    8.2215   -0.2960   18.3185 H   0  0  0  0  0  0  0  0  0  0  0  0
    6.6609   -0.0478   19.8081 C   0  0  0  0  0  0  0  0  0  0  0  0
    7.4018   -0.8427   20.8066 C   0  0  0  0  0  0  0  0  0  0  0  0
    8.6938   -0.6038   20.9019 N   0  0  0  0  0  0  0  0  0  0  0  0
    9.4104   -1.1554   21.9405 C   0  0  0  0  0  0  0  0  0  0  0  0
   10.8597   -0.7772   22.0149 C   0  0  0  0  0  0  0  0  0  0  0  0
   11.8812   -1.7451   22.1649 C   0  0  0  0  0  0  0  0  0  0  0  0
   11.6864   -2.8113   22.1494 H   0  0  0  0  0  0  0  0  0  0  0  0
   13.1717   -1.4227   22.3155 N   0  0  0  0  0  0  0  0  0  0  0  0
   13.5444   -0.1425   22.3548 N   0  0  0  0  0  0  0  0  0  0  0  0
   12.6335    0.8231   22.1668 C   0  0  0  0  0  0  0  0  0  0  0  0
   13.0208    1.8380   22.1692 H   0  0  0  0  0  0  0  0  0  0  0  0
   11.2773    0.5512   21.9534 C   0  0  0  0  0  0  0  0  0  0  0  0
   10.5968    1.3660   21.7073 H   0  0  0  0  0  0  0  0  0  0  0  0
    8.8210   -1.9285   22.9098 C   0  0  0  0  0  0  0  0  0  0  0  0
    9.3491   -2.2751   23.7973 H   0  0  0  0  0  0  0  0  0  0  0  0
    7.4954   -2.2776   22.7585 N   0  0  0  0  0  0  0  0  0  0  0  0
    6.9757   -2.9047   23.3645 H   0  0  0  0  0  0  0  0  0  0  0  0
    6.6970   -1.8832   21.6836 C   0  0  0  0  0  0  0  0  0  0  0  0
    5.6003   -2.4001   21.5774 O   0  0  0  0  0  0  0  0  0  0  0  0
    5.4339    0.5844   20.0696 C   0  0  0  0  0  0  0  0  0  0  0  0
    4.9741    0.5425   21.0581 H   0  0  0  0  0  0  0  0  0  0  0  0
    4.8233    1.2934   19.0349 C   0  0  0  0  0  0  0  0  0  0  0  0
    3.8916    1.8269   19.1773 H   0  0  0  0  0  0  0  0  0  0  0  0
  1  2  1  0
  2  3  2  0
  3  4  1  0
  4  5  1  0
  4  6  2  0
  6  7  1  0
  7  8  2  0
  8  9  1  0
  9 10  1  0
 10 11  2  0
 11 12  1  0
 11 13  1  0
 13 14  2  0
 14 15  1  0
 15 16  1  0
 15 17  2  0
 17 18  1  0
  9 19  2  0
 19 20  1  0
 19 21  1  0
 21 22  1  0
 21 23  1  0
 23 24  2  0
  6 25  1  0
 25 26  1  0
 25 27  2  0
 27 28  1  0
 27  2  1  0
 23  7  1  0
 17 10  1  0
M  END
>  <cnnaffinity>  (1) 
-5.5161

>  <filename>  (1) 
O=c1[nH]cc(-c2ccnnc2)nc1-c1cccnc1

$$$$
