
     RDKit          3D

 27 29  0  0  0  0  0  0  0  0999 V2000
    4.9232    1.8041   16.9669 H   0  0  0  0  0  0  0  0  0  0  0  0
    5.3916    1.3005   17.8140 C   0  0  0  0  0  0  0  0  0  0  0  0
    6.5555    0.6771   17.5588 N   0  0  0  0  0  0  0  0  0  0  0  0
    7.1594    0.0554   18.5819 C   0  0  0  0  0  0  0  0  0  0  0  0
    8.1187   -0.3988   18.3348 H   0  0  0  0  0  0  0  0  0  0  0  0
    6.6483   -0.0006   19.8944 C   0  0  0  0  0  0  0  0  0  0  0  0
    7.3430   -0.6634   21.0007 C   0  0  0  0  0  0  0  0  0  0  0  0
    7.2427   -0.4456   22.3274 C   0  0  0  0  0  0  0  0  0  0  0  0
    6.6612    0.2893   22.8538 H   0  0  0  0  0  0  0  0  0  0  0  0
    8.0834   -1.3297   22.9937 N   0  0  0  0  0  0  0  0  0  0  0  0
    8.2375   -1.3535   24.3820 C   0  0  0  0  0  0  0  0  0  0  0  0
    7.8184   -0.4335   25.3078 C   0  0  0  0  0  0  0  0  0  0  0  0
    7.3038    0.4926   25.0808 H   0  0  0  0  0  0  0  0  0  0  0  0
    8.2137   -0.9338   26.5744 C   0  0  0  0  0  0  0  0  0  0  0  0
    8.0450   -0.4516   27.5265 H   0  0  0  0  0  0  0  0  0  0  0  0
    8.8516   -2.1335   26.3694 C   0  0  0  0  0  0  0  0  0  0  0  0
    9.2948   -2.8199   27.0734 H   0  0  0  0  0  0  0  0  0  0  0  0
    8.8596   -2.3832   25.0183 N   0  0  0  0  0  0  0  0  0  0  0  0
    9.2706   -3.1471   24.5009 H   0  0  0  0  0  0  0  0  0  0  0  0
    8.7336   -2.1373   22.0573 C   0  0  0  0  0  0  0  0  0  0  0  0
    9.5064   -3.0596   22.2326 O   0  0  0  0  0  0  0  0  0  0  0  0
    8.2835   -1.6750   20.8486 N   0  0  0  0  0  0  0  0  0  0  0  0
    8.5515   -2.1755   20.0233 H   0  0  0  0  0  0  0  0  0  0  0  0
    5.4291    0.6581   20.1314 C   0  0  0  0  0  0  0  0  0  0  0  0
    4.9889    0.6456   21.1284 H   0  0  0  0  0  0  0  0  0  0  0  0
    4.7948    1.3180   19.0805 C   0  0  0  0  0  0  0  0  0  0  0  0
    3.8622    1.8534   19.2293 H   0  0  0  0  0  0  0  0  0  0  0  0
  1  2  1  0
  2  3  2  0
  3  4  1  0
  4  5  1  0
  4  6  2  0
  6  7  1  0
  7  8  2  0
  8  9  1  0
  8 10  1  0
 10 11  1  0
 11 12  2  0
 12 13  1  0
 12 14  1  0
 14 15  1  0
 14 16  2  0
 16 17  1  0
 16 18  1  0
 18 19  1  0
 10 20  1  0
 20 21  2  0
 20 22  1  0
 22 23  1  0
  6 24  1  0
 24 25  1  0
 24 26  2  0
 26 27  1  0
 26  2  1  0
 22  7  1  0
 18 11  1  0
M  END
>  <cnnaffinity>  (1) 
-5.0321

>  <filename>  (1) 
O=c1[nH]c(-c2cccnc2)cn1-c1ccc[nH]1

$$$$
