
     RDKit          3D

 31 33  0  0  0  0  0  0  0  0999 V2000
    4.9071    1.8351   16.9492 H   0  0  0  0  0  0  0  0  0  0  0  0
    5.3906    1.3379   17.7870 C   0  0  0  0  0  0  0  0  0  0  0  0
    6.5563    0.7320   17.5145 N   0  0  0  0  0  0  0  0  0  0  0  0
    7.1809    0.1119   18.5239 C   0  0  0  0  0  0  0  0  0  0  0  0
    8.1224   -0.3724   18.2626 H   0  0  0  0  0  0  0  0  0  0  0  0
    6.6769    0.0236   19.8461 C   0  0  0  0  0  0  0  0  0  0  0  0
    7.4173   -0.6911   20.9382 C   0  0  0  0  0  0  0  0  0  0  0  0
    8.7169   -0.4189   21.1982 C   0  0  0  0  0  0  0  0  0  0  0  0
    9.2849    0.3081   20.6164 H   0  0  0  0  0  0  0  0  0  0  0  0
    9.4340   -1.0424   22.2125 N   0  0  0  0  0  0  0  0  0  0  0  0
   10.8241   -0.7339   22.3642 C   0  0  0  0  0  0  0  0  0  0  0  0
   11.7840   -1.7284   22.1865 C   0  0  0  0  0  0  0  0  0  0  0  0
   11.5155   -2.7689   22.0691 H   0  0  0  0  0  0  0  0  0  0  0  0
   13.1216   -1.3549   22.2195 C   0  0  0  0  0  0  0  0  0  0  0  0
   14.0411   -2.2938   21.9619 F   0  0  0  0  0  0  0  0  0  0  0  0
   13.5404   -0.0731   22.5694 C   0  0  0  0  0  0  0  0  0  0  0  0
   14.5857    0.1667   22.7309 H   0  0  0  0  0  0  0  0  0  0  0  0
   12.5424    0.8758   22.7785 C   0  0  0  0  0  0  0  0  0  0  0  0
   12.8961    2.1189   23.1340 F   0  0  0  0  0  0  0  0  0  0  0  0
   11.1905    0.5878   22.6264 C   0  0  0  0  0  0  0  0  0  0  0  0
   10.4419    1.3662   22.7344 H   0  0  0  0  0  0  0  0  0  0  0  0
    8.8482   -2.0060   23.0479 C   0  0  0  0  0  0  0  0  0  0  0  0
    9.4311   -2.6287   23.9053 O   0  0  0  0  0  0  0  0  0  0  0  0
    7.5217   -2.2048   22.8238 N   0  0  0  0  0  0  0  0  0  0  0  0
    7.1094   -2.9422   23.3647 H   0  0  0  0  0  0  0  0  0  0  0  0
    6.7552   -1.7472   21.7678 C   0  0  0  0  0  0  0  0  0  0  0  0
    5.6711   -2.2590   21.5935 O   0  0  0  0  0  0  0  0  0  0  0  0
    5.4451    0.6571   20.0910 C   0  0  0  0  0  0  0  0  0  0  0  0
    5.0151    0.6119   21.0929 H   0  0  0  0  0  0  0  0  0  0  0  0
    4.7999    1.3341   19.0523 C   0  0  0  0  0  0  0  0  0  0  0  0
    3.8584    1.8509   19.1999 H   0  0  0  0  0  0  0  0  0  0  0  0
  1  2  1  0
  2  3  2  0
  3  4  1  0
  4  5  1  0
  4  6  2  0
  6  7  1  0
  7  8  2  0
  8  9  1  0
  8 10  1  0
 10 11  1  0
 11 12  2  0
 12 13  1  0
 12 14  1  0
 14 15  1  0
 14 16  2  0
 16 17  1  0
 16 18  1  0
 18 19  1  0
 18 20  2  0
 20 21  1  0
 10 22  1  0
 22 23  2  0
 22 24  1  0
 24 25  1  0
 24 26  1  0
 26 27  2  0
  6 28  1  0
 28 29  1  0
 28 30  2  0
 30 31  1  0
 30  2  1  0
 26  7  1  0
 20 11  1  0
M  END
>  <cnnaffinity>  (1) 
-5.5895

>  <filename>  (1) 
O=c1[nH]c(=O)n(-c2cc(F)cc(F)c2)cc1-c1cccnc1

$$$$
