
     RDKit          3D

 29 31  0  0  0  0  0  0  0  0999 V2000
    4.9212    1.7972   16.9751 H   0  0  0  0  0  0  0  0  0  0  0  0
    5.3928    1.2984   17.8202 C   0  0  0  0  0  0  0  0  0  0  0  0
    6.5568    0.6778   17.5676 N   0  0  0  0  0  0  0  0  0  0  0  0
    7.1625    0.0550   18.5870 C   0  0  0  0  0  0  0  0  0  0  0  0
    8.1210   -0.4042   18.3433 H   0  0  0  0  0  0  0  0  0  0  0  0
    6.6476    0.0048   19.8966 C   0  0  0  0  0  0  0  0  0  0  0  0
    7.3358   -0.6544   21.0105 C   0  0  0  0  0  0  0  0  0  0  0  0
    7.2389   -0.4369   22.3383 C   0  0  0  0  0  0  0  0  0  0  0  0
    6.6462    0.2937   22.8644 H   0  0  0  0  0  0  0  0  0  0  0  0
    8.0891   -1.3172   22.9989 N   0  0  0  0  0  0  0  0  0  0  0  0
    8.2721   -1.4047   24.3976 C   0  0  0  0  0  0  0  0  0  0  0  0
    8.2393   -0.2314   25.1631 C   0  0  0  0  0  0  0  0  0  0  0  0
    8.0872    0.7289   24.6840 H   0  0  0  0  0  0  0  0  0  0  0  0
    8.4238   -0.3041   26.5428 C   0  0  0  0  0  0  0  0  0  0  0  0
    8.4029    0.5964   27.1505 H   0  0  0  0  0  0  0  0  0  0  0  0
    8.6358   -1.5367   27.1566 C   0  0  0  0  0  0  0  0  0  0  0  0
    8.8139   -1.6087   28.2160 H   0  0  0  0  0  0  0  0  0  0  0  0
    8.6446   -2.6846   26.3710 C   0  0  0  0  0  0  0  0  0  0  0  0
    8.8469   -3.8712   26.9605 F   0  0  0  0  0  0  0  0  0  0  0  0
    8.4690   -2.6520   24.9955 C   0  0  0  0  0  0  0  0  0  0  0  0
    8.5072   -3.5648   24.4137 H   0  0  0  0  0  0  0  0  0  0  0  0
    8.7300   -2.1203   22.0564 C   0  0  0  0  0  0  0  0  0  0  0  0
    9.5170   -3.0310   22.1952 O   0  0  0  0  0  0  0  0  0  0  0  0
    8.2658   -1.6638   20.8498 N   0  0  0  0  0  0  0  0  0  0  0  0
    8.5463   -2.1542   20.0239 H   0  0  0  0  0  0  0  0  0  0  0  0
    5.4283    0.6593   20.1349 C   0  0  0  0  0  0  0  0  0  0  0  0
    4.9911    0.6406   21.1354 H   0  0  0  0  0  0  0  0  0  0  0  0
    4.7960    1.3184   19.0842 C   0  0  0  0  0  0  0  0  0  0  0  0
    3.8653    1.8507   19.2370 H   0  0  0  0  0  0  0  0  0  0  0  0
  1  2  1  0
  2  3  2  0
  3  4  1  0
  4  5  1  0
  4  6  2  0
  6  7  1  0
  7  8  2  0
  8  9  1  0
  8 10  1  0
 10 11  1  0
 11 12  2  0
 12 13  1  0
 12 14  1  0
 14 15  1  0
 14 16  2  0
 16 17  1  0
 16 18  1  0
 18 19  1  0
 18 20  2  0
 20 21  1  0
 10 22  1  0
 22 23  2  0
 22 24  1  0
 24 25  1  0
  6 26  1  0
 26 27  1  0
 26 28  2  0
 28 29  1  0
 28  2  1  0
 24  7  1  0
 20 11  1  0
M  END
>  <cnnaffinity>  (1) 
-5.35921

>  <filename>  (1) 
O=c1[nH]c(-c2cccnc2)cn1-c1cccc(F)c1

$$$$
