
     RDKit          3D

 31 33  0  0  0  0  0  0  0  0999 V2000
    4.9239    1.8039   16.9675 H   0  0  0  0  0  0  0  0  0  0  0  0
    5.3908    1.3003   17.8147 C   0  0  0  0  0  0  0  0  0  0  0  0
    6.5548    0.6761   17.5650 N   0  0  0  0  0  0  0  0  0  0  0  0
    7.1599    0.0548   18.5862 C   0  0  0  0  0  0  0  0  0  0  0  0
    8.1193   -0.4006   18.3374 H   0  0  0  0  0  0  0  0  0  0  0  0
    6.6448    0.0044   19.8973 C   0  0  0  0  0  0  0  0  0  0  0  0
    7.3322   -0.6487   21.0063 C   0  0  0  0  0  0  0  0  0  0  0  0
    7.2374   -0.4335   22.3372 C   0  0  0  0  0  0  0  0  0  0  0  0
    6.6519    0.2873   22.8806 H   0  0  0  0  0  0  0  0  0  0  0  0
    8.0919   -1.3119   22.9921 N   0  0  0  0  0  0  0  0  0  0  0  0
    8.2768   -1.4006   24.3953 C   0  0  0  0  0  0  0  0  0  0  0  0
    8.4569   -2.6527   25.0030 C   0  0  0  0  0  0  0  0  0  0  0  0
    8.4818   -3.5355   24.3756 H   0  0  0  0  0  0  0  0  0  0  0  0
    8.6406   -2.7164   26.3862 C   0  0  0  0  0  0  0  0  0  0  0  0
    8.7956   -3.6698   26.8783 H   0  0  0  0  0  0  0  0  0  0  0  0
    8.6416   -1.5512   27.1496 C   0  0  0  0  0  0  0  0  0  0  0  0
    8.8113   -1.5413   28.2134 H   0  0  0  0  0  0  0  0  0  0  0  0
    8.4169   -0.3219   26.5324 C   0  0  0  0  0  0  0  0  0  0  0  0
    8.2972    0.8885   27.3758 N   0  0  0  0  0  4  0  0  0  0  0  0
    8.2415    0.7445   28.5866 O   0  0  0  0  0  0  0  0  0  0  0  0
    8.2555    1.9712   26.8116 O   0  0  0  0  0  1  0  0  0  0  0  0
    8.2529   -0.2250   25.1523 C   0  0  0  0  0  0  0  0  0  0  0  0
    8.1107    0.7421   24.6797 H   0  0  0  0  0  0  0  0  0  0  0  0
    8.7314   -2.1132   22.0460 C   0  0  0  0  0  0  0  0  0  0  0  0
    9.5109   -3.0317   22.1853 O   0  0  0  0  0  0  0  0  0  0  0  0
    8.2706   -1.6531   20.8417 N   0  0  0  0  0  0  0  0  0  0  0  0
    8.5486   -2.1635   20.0269 H   0  0  0  0  0  0  0  0  0  0  0  0
    5.4253    0.6596   20.1302 C   0  0  0  0  0  0  0  0  0  0  0  0
    4.9868    0.6453   21.1269 H   0  0  0  0  0  0  0  0  0  0  0  0
    4.7931    1.3192   19.0793 C   0  0  0  0  0  0  0  0  0  0  0  0
    3.8622    1.8539   19.2280 H   0  0  0  0  0  0  0  0  0  0  0  0
  1  2  1  0
  2  3  2  0
  3  4  1  0
  4  5  1  0
  4  6  2  0
  6  7  1  0
  7  8  2  0
  8  9  1  0
  8 10  1  0
 10 11  1  0
 11 12  2  0
 12 13  1  0
 12 14  1  0
 14 15  1  0
 14 16  2  0
 16 17  1  0
 16 18  1  0
 18 19  1  0
 19 20  2  0
 19 21  1  0
 18 22  2  0
 22 23  1  0
 10 24  1  0
 24 25  2  0
 24 26  1  0
 26 27  1  0
  6 28  1  0
 28 29  1  0
 28 30  2  0
 30 31  1  0
 30  2  1  0
 26  7  1  0
 22 11  1  0
M  CHG  2  19   1  21  -1
M  END
>  <cnnaffinity>  (1) 
-5.28962

>  <filename>  (1) 
O=c1[nH]c(-c2cccnc2)cn1-c1cccc([N+](=O)[O-])c1

$$$$
