
     RDKit          3D

 34 36  0  0  0  0  0  0  0  0999 V2000
    4.9957    1.7936   16.9722 H   0  0  0  0  0  0  0  0  0  0  0  0
    5.4709    1.3125   17.8258 C   0  0  0  0  0  0  0  0  0  0  0  0
    6.6621    0.7338   17.5875 N   0  0  0  0  0  0  0  0  0  0  0  0
    7.2615    0.1179   18.6112 C   0  0  0  0  0  0  0  0  0  0  0  0
    8.2401   -0.3252   18.4349 H   0  0  0  0  0  0  0  0  0  0  0  0
    6.6742   -0.0126   19.8824 C   0  0  0  0  0  0  0  0  0  0  0  0
    7.3461   -0.7716   20.8836 N   0  0  0  0  0  0  0  0  0  0  0  0
    8.6772   -0.4838   20.9978 N   0  0  0  0  0  0  0  0  0  0  0  0
    9.3517   -1.0284   21.9681 C   0  0  0  0  0  0  0  0  0  0  0  0
   10.7698   -0.5804   22.1210 C   0  0  0  0  0  0  0  0  0  0  0  0
   11.1245   -0.1941   21.1552 H   0  0  0  0  0  0  0  0  0  0  0  0
   11.4197   -1.4030   22.4351 H   0  0  0  0  0  0  0  0  0  0  0  0
   10.9127    0.5157   23.1777 C   0  0  1  0  0  0  0  0  0  0  0  0
   10.6195    0.1443   24.1852 H   0  0  0  0  0  0  0  0  0  0  0  0
   12.2960    0.8252   23.1771 O   0  0  0  0  0  0  0  0  0  0  0  0
   12.4992    2.1529   23.6260 C   0  0  0  0  0  0  0  0  0  0  0  0
   13.1907    2.6596   22.9365 H   0  0  0  0  0  0  0  0  0  0  0  0
   12.9522    2.0966   24.6204 H   0  0  0  0  0  0  0  0  0  0  0  0
   11.1160    2.8322   23.6623 C   0  0  0  0  0  0  0  0  0  0  0  0
   10.7706    2.9552   24.6960 H   0  0  0  0  0  0  0  0  0  0  0  0
   11.1403    3.8148   23.1862 H   0  0  0  0  0  0  0  0  0  0  0  0
   10.1974    1.8505   22.9164 C   0  0  0  0  0  0  0  0  0  0  0  0
   10.1613    2.0647   21.8390 H   0  0  0  0  0  0  0  0  0  0  0  0
    9.1619    1.8892   23.2789 H   0  0  0  0  0  0  0  0  0  0  0  0
    8.7576   -1.9518   22.8997 C   0  0  0  0  0  0  0  0  0  0  0  0
    9.3719   -2.3473   23.7061 H   0  0  0  0  0  0  0  0  0  0  0  0
    7.4580   -2.3092   22.7361 C   0  0  0  0  0  0  0  0  0  0  0  0
    6.9287   -2.9933   23.3853 H   0  0  0  0  0  0  0  0  0  0  0  0
    6.6589   -1.7835   21.6360 C   0  0  0  0  0  0  0  0  0  0  0  0
    5.5317   -2.1604   21.3633 O   0  0  0  0  0  0  0  0  0  0  0  0
    5.4520    0.6135   20.1393 C   0  0  0  0  0  0  0  0  0  0  0  0
    5.0107    0.5857   21.1370 H   0  0  0  0  0  0  0  0  0  0  0  0
    4.8478    1.2962   19.0781 C   0  0  0  0  0  0  0  0  0  0  0  0
    3.9056    1.8133   19.2098 H   0  0  0  0  0  0  0  0  0  0  0  0
  1  2  1  0
  2  3  2  0
  3  4  1  0
  4  5  1  0
  4  6  2  0
  6  7  1  0
  7  8  1  0
  8  9  2  0
  9 10  1  0
 10 11  1  0
 10 12  1  0
 10 13  1  0
 13 14  1  1
 13 15  1  0
 15 16  1  0
 16 17  1  0
 16 18  1  0
 16 19  1  0
 19 20  1  0
 19 21  1  0
 19 22  1  0
 22 23  1  0
 22 24  1  0
  9 25  1  0
 25 26  1  0
 25 27  2  0
 27 28  1  0
 27 29  1  0
 29 30  2  0
  6 31  1  0
 31 32  1  0
 31 33  2  0
 33 34  1  0
 33  2  1  0
 29  7  1  0
 22 13  1  0
M  END
>  <cnnaffinity>  (1) 
-5.3061

>  <filename>  (1) 
O=c1ccc(C[C@@H]2CCCO2)nn1-c1cccnc1

$$$$
