
     RDKit          3D

 39 41  0  0  0  0  0  0  0  0999 V2000
    4.9127    1.7750   17.0012 H   0  0  0  0  0  0  0  0  0  0  0  0
    5.4030    1.2900   17.8437 C   0  0  0  0  0  0  0  0  0  0  0  0
    6.5701    0.6737   17.5811 N   0  0  0  0  0  0  0  0  0  0  0  0
    7.1998    0.0754   18.6001 C   0  0  0  0  0  0  0  0  0  0  0  0
    8.1374   -0.4287   18.3792 H   0  0  0  0  0  0  0  0  0  0  0  0
    6.6834    0.0328   19.9072 C   0  0  0  0  0  0  0  0  0  0  0  0
    7.3864   -0.6492   20.9477 N   0  0  0  0  0  0  0  0  0  0  0  0
    8.7198   -0.3258   21.0706 N   0  0  0  0  0  0  0  0  0  0  0  0
    9.4133   -0.9006   22.0248 C   0  0  0  0  0  0  0  0  0  0  0  0
   10.8513   -0.4867   22.2300 C   0  0  0  0  0  0  0  0  0  0  0  0
   11.4535   -1.3854   22.4211 H   0  0  0  0  0  0  0  0  0  0  0  0
   11.2191   -0.0450   21.2996 H   0  0  0  0  0  0  0  0  0  0  0  0
   11.0380    0.4953   23.4189 C   0  0  0  0  0  0  0  0  0  0  0  0
   10.6585   -0.0084   24.3198 H   0  0  0  0  0  0  0  0  0  0  0  0
   10.2213    1.7934   23.2334 C   0  0  0  0  0  0  0  0  0  0  0  0
    9.1588    1.5671   23.0876 H   0  0  0  0  0  0  0  0  0  0  0  0
   10.2824    2.3744   24.1632 H   0  0  0  0  0  0  0  0  0  0  0  0
   10.7304    2.6626   22.0625 C   0  0  0  0  0  0  0  0  0  0  0  0
   10.3852    3.6892   22.2265 H   0  0  0  0  0  0  0  0  0  0  0  0
   10.2691    2.3226   21.1249 H   0  0  0  0  0  0  0  0  0  0  0  0
   12.2714    2.6502   21.9149 C   0  0  0  0  0  0  0  0  0  0  0  0
   12.5440    1.9510   21.1169 H   0  0  0  0  0  0  0  0  0  0  0  0
   12.6306    3.6374   21.6017 H   0  0  0  0  0  0  0  0  0  0  0  0
   12.9796    2.2236   23.2049 C   0  0  0  0  0  0  0  0  0  0  0  0
   14.0659    2.2530   23.0731 H   0  0  0  0  0  0  0  0  0  0  0  0
   12.7353    2.9478   23.9899 H   0  0  0  0  0  0  0  0  0  0  0  0
   12.5440    0.8142   23.6633 C   0  0  0  0  0  0  0  0  0  0  0  0
   12.7719    0.7075   24.7319 H   0  0  0  0  0  0  0  0  0  0  0  0
   13.1648    0.0684   23.1479 H   0  0  0  0  0  0  0  0  0  0  0  0
    8.8320   -1.8773   22.9145 C   0  0  0  0  0  0  0  0  0  0  0  0
    9.4448   -2.3214   23.7006 H   0  0  0  0  0  0  0  0  0  0  0  0
    7.5300   -2.2279   22.7656 C   0  0  0  0  0  0  0  0  0  0  0  0
    7.0192   -2.9630   23.3744 H   0  0  0  0  0  0  0  0  0  0  0  0
    6.6980   -1.6399   21.7283 C   0  0  0  0  0  0  0  0  0  0  0  0
    5.5441   -1.9694   21.4991 O   0  0  0  0  0  0  0  0  0  0  0  0
    5.4512    0.6483   20.1661 C   0  0  0  0  0  0  0  0  0  0  0  0
    5.0126    0.6154   21.1631 H   0  0  0  0  0  0  0  0  0  0  0  0
    4.8132    1.3098   19.1122 C   0  0  0  0  0  0  0  0  0  0  0  0
    3.8768    1.8406   19.2650 H   0  0  0  0  0  0  0  0  0  0  0  0
  1  2  1  0
  2  3  2  0
  3  4  1  0
  4  5  1  0
  4  6  2  0
  6  7  1  0
  7  8  1  0
  8  9  2  0
  9 10  1  0
 10 11  1  0
 10 12  1  0
 10 13  1  0
 13 14  1  0
 13 15  1  0
 15 16  1  0
 15 17  1  0
 15 18  1  0
 18 19  1  0
 18 20  1  0
 18 21  1  0
 21 22  1  0
 21 23  1  0
 21 24  1  0
 24 25  1  0
 24 26  1  0
 24 27  1  0
 27 28  1  0
 27 29  1  0
  9 30  1  0
 30 31  1  0
 30 32  2  0
 32 33  1  0
 32 34  1  0
 34 35  2  0
  6 36  1  0
 36 37  1  0
 36 38  2  0
 38 39  1  0
 38  2  1  0
 34  7  1  0
 27 13  1  0
M  END
>  <cnnaffinity>  (1) 
-5.74598

>  <filename>  (1) 
O=c1ccc(CC2CCCCC2)nn1-c1cccnc1

$$$$
