
     RDKit          3D

 30 32  0  0  0  0  0  0  0  0999 V2000
    4.9451    1.7935   16.9897 H   0  0  0  0  0  0  0  0  0  0  0  0
    5.3956    1.3055   17.8488 C   0  0  0  0  0  0  0  0  0  0  0  0
    6.5606    0.6825   17.6164 N   0  0  0  0  0  0  0  0  0  0  0  0
    7.1482    0.0930   18.6617 C   0  0  0  0  0  0  0  0  0  0  0  0
    8.0925   -0.4040   18.4415 H   0  0  0  0  0  0  0  0  0  0  0  0
    6.6415    0.0925   19.9788 C   0  0  0  0  0  0  0  0  0  0  0  0
    7.4099   -0.6111   21.0317 C   0  0  0  0  0  0  0  0  0  0  0  0
    8.1754   -1.7057   20.9524 C   0  0  0  0  0  0  0  0  0  0  0  0
    8.5030   -2.3003   20.1326 H   0  0  0  0  0  0  0  0  0  0  0  0
    8.6824   -2.0717   22.1646 O   0  0  0  0  0  0  0  0  0  0  0  0
    8.2960   -1.1571   23.0971 C   0  0  0  0  0  0  0  0  0  0  0  0
    8.6092   -1.2054   24.2575 O   0  0  0  0  0  0  0  0  0  0  0  0
    7.5026   -0.2302   22.3904 N   0  0  0  0  0  0  0  0  0  0  0  0
    7.0343    0.9606   22.9090 N   0  0  0  0  0  0  0  0  0  0  0  0
    7.1280    1.7961   22.3484 H   0  0  0  0  0  0  0  0  0  0  0  0
    6.3973    1.0555   24.1357 C   0  0  0  0  0  0  0  0  0  0  0  0
    5.7843   -0.0414   24.7553 C   0  0  0  0  0  0  0  0  0  0  0  0
    5.8484   -1.0055   24.2571 H   0  0  0  0  0  0  0  0  0  0  0  0
    5.1825    0.1138   26.0019 C   0  0  0  0  0  0  0  0  0  0  0  0
    4.7097   -0.7452   26.4677 H   0  0  0  0  0  0  0  0  0  0  0  0
    5.2106    1.3506   26.6553 C   0  0  0  0  0  0  0  0  0  0  0  0
    4.7755    1.4504   27.6458 H   0  0  0  0  0  0  0  0  0  0  0  0
    5.8334    2.4412   26.0361 C   0  0  0  0  0  0  0  0  0  0  0  0
    5.8972    3.3926   26.5551 H   0  0  0  0  0  0  0  0  0  0  0  0
    6.4041    2.3029   24.7712 C   0  0  0  0  0  0  0  0  0  0  0  0
    6.9121    3.1290   24.2774 H   0  0  0  0  0  0  0  0  0  0  0  0
    5.4031    0.7415   20.1927 C   0  0  0  0  0  0  0  0  0  0  0  0
    4.9360    0.7480   21.1803 H   0  0  0  0  0  0  0  0  0  0  0  0
    4.7765    1.3490   19.1013 C   0  0  0  0  0  0  0  0  0  0  0  0
    3.8221    1.8604   19.1945 H   0  0  0  0  0  0  0  0  0  0  0  0
  1  2  1  0
  2  3  2  0
  3  4  1  0
  4  5  1  0
  4  6  2  0
  6  7  1  0
  7  8  2  0
  8  9  1  0
  8 10  1  0
 10 11  1  0
 11 12  2  0
 11 13  1  0
 13 14  1  0
 14 15  1  0
 14 16  1  0
 16 17  2  0
 17 18  1  0
 17 19  1  0
 19 20  1  0
 19 21  2  0
 21 22  1  0
 21 23  1  0
 23 24  1  0
 23 25  2  0
 25 26  1  0
  6 27  1  0
 27 28  1  0
 27 29  2  0
 29 30  1  0
 29  2  1  0
 13  7  1  0
 25 16  1  0
M  END
>  <cnnaffinity>  (1) 
-4.61571

>  <filename>  (1) 
O=c1occ(-c2cccnc2)n1Nc1ccccc1

$$$$
