
     RDKit          3D

 31 33  0  0  0  0  0  0  0  0999 V2000
    4.9929    1.8777   16.9834 H   0  0  0  0  0  0  0  0  0  0  0  0
    5.4720    1.3218   17.7842 C   0  0  0  0  0  0  0  0  0  0  0  0
    6.6571    0.7242   17.5500 N   0  0  0  0  0  0  0  0  0  0  0  0
    7.2418    0.0666   18.5737 C   0  0  0  0  0  0  0  0  0  0  0  0
    8.2020   -0.4037   18.3888 H   0  0  0  0  0  0  0  0  0  0  0  0
    6.6734   -0.0474   19.8593 C   0  0  0  0  0  0  0  0  0  0  0  0
    7.3815   -0.7112   20.9758 C   0  0  0  0  0  0  0  0  0  0  0  0
    8.8167   -0.4461   21.2069 C   0  0  0  0  0  0  0  0  0  0  0  0
    9.3708    0.1355   20.4732 H   0  0  0  0  0  0  0  0  0  0  0  0
    9.4444   -0.8909   22.3628 C   0  0  0  0  0  0  0  0  0  0  0  0
   10.8647   -0.6076   22.5991 C   0  0  0  0  0  0  0  0  0  0  0  0
   11.3479    0.0935   23.7230 C   0  0  0  0  0  0  0  0  0  0  0  0
   10.6574    0.5175   24.4502 H   0  0  0  0  0  0  0  0  0  0  0  0
   12.7343    0.2659   23.9031 C   0  0  0  0  0  0  0  0  0  0  0  0
   13.1076    0.8002   24.7728 H   0  0  0  0  0  0  0  0  0  0  0  0
   13.6331   -0.2712   22.9691 C   0  0  0  0  0  0  0  0  0  0  0  0
   14.7066   -0.1701   23.1139 H   0  0  0  0  0  0  0  0  0  0  0  0
   13.1382   -0.9641   21.8579 C   0  0  0  0  0  0  0  0  0  0  0  0
   14.2887   -1.7653   20.5866 Br  0  0  0  0  0  0  0  0  0  0  0  0
   11.7689   -1.1253   21.6809 C   0  0  0  0  0  0  0  0  0  0  0  0
   11.3855   -1.7079   20.8520 H   0  0  0  0  0  0  0  0  0  0  0  0
    8.6762   -1.7721   23.2565 C   0  0  0  0  0  0  0  0  0  0  0  0
    9.1694   -2.3996   24.1842 O   0  0  0  0  0  0  0  0  0  0  0  0
    7.3642   -2.0695   22.9657 N   0  0  0  0  0  0  0  0  0  0  0  0
    6.9036   -2.7211   23.5911 H   0  0  0  0  0  0  0  0  0  0  0  0
    6.6867   -1.5011   21.8754 C   0  0  0  0  0  0  0  0  0  0  0  0
    5.6184   -1.6596   21.7202 H   0  0  0  0  0  0  0  0  0  0  0  0
    5.4194    0.5386   20.0726 C   0  0  0  0  0  0  0  0  0  0  0  0
    4.9438    0.4878   21.0513 H   0  0  0  0  0  0  0  0  0  0  0  0
    4.8230    1.2448   19.0237 C   0  0  0  0  0  0  0  0  0  0  0  0
    3.8727    1.7549   19.1625 H   0  0  0  0  0  0  0  0  0  0  0  0
  1  2  1  0
  2  3  2  0
  3  4  1  0
  4  5  1  0
  4  6  2  0
  6  7  1  0
  7  8  1  0
  8  9  1  0
  8 10  2  0
 10 11  1  0
 11 12  2  0
 12 13  1  0
 12 14  1  0
 14 15  1  0
 14 16  2  0
 16 17  1  0
 16 18  1  0
 18 19  1  0
 18 20  2  0
 20 21  1  0
 10 22  1  0
 22 23  2  0
 22 24  1  0
 24 25  1  0
 24 26  1  0
 26 27  1  0
  6 28  1  0
 28 29  1  0
 28 30  2  0
 30 31  1  0
 30  2  1  0
 26  7  2  0
 20 11  1  0
M  END
>  <cnnaffinity>  (1) 
-5.66445

>  <filename>  (1) 
O=c1[nH]cc(-c2cccnc2)cc1-c1cccc(Br)c1

$$$$
