
     RDKit          3D

 33 35  0  0  0  0  0  0  0  0999 V2000
    4.9130    1.7834   16.9915 H   0  0  0  0  0  0  0  0  0  0  0  0
    5.4000    1.2974   17.8308 C   0  0  0  0  0  0  0  0  0  0  0  0
    6.5624    0.6799   17.5593 N   0  0  0  0  0  0  0  0  0  0  0  0
    7.1676    0.0763   18.5885 C   0  0  0  0  0  0  0  0  0  0  0  0
    8.1087   -0.4242   18.3701 H   0  0  0  0  0  0  0  0  0  0  0  0
    6.6496    0.0133   19.8961 C   0  0  0  0  0  0  0  0  0  0  0  0
    7.3660   -0.7066   20.9721 C   0  0  0  0  0  0  0  0  0  0  0  0
    8.7800   -0.5533   21.1218 C   0  0  0  0  0  0  0  0  0  0  0  0
    9.3133    0.1187   20.4409 H   0  0  0  0  0  0  0  0  0  0  0  0
    9.4268   -1.2056   22.1232 C   0  0  0  0  0  0  0  0  0  0  0  0
   10.4910   -1.1308   22.2852 H   0  0  0  0  0  0  0  0  0  0  0  0
    8.7463   -2.0905   23.0620 C   0  0  0  0  0  0  0  0  0  0  0  0
    9.3260   -2.6937   23.9480 O   0  0  0  0  0  0  0  0  0  0  0  0
    7.3301   -2.2026   22.8570 N   0  0  0  0  0  0  0  0  0  0  0  0
    6.5560   -3.0345   23.7417 C   0  0  0  0  0  0  0  0  0  0  0  0
    6.5841   -2.7976   25.1232 C   0  0  0  0  0  0  0  0  0  0  0  0
    7.1943   -1.9849   25.5098 H   0  0  0  0  0  0  0  0  0  0  0  0
    5.8374   -3.6216   25.9708 C   0  0  0  0  0  0  0  0  0  0  0  0
    5.8593   -3.4420   27.0411 H   0  0  0  0  0  0  0  0  0  0  0  0
    5.0735   -4.6777   25.4659 C   0  0  0  0  0  0  0  0  0  0  0  0
    4.4974   -5.3106   26.1334 H   0  0  0  0  0  0  0  0  0  0  0  0
    5.0639   -4.9050   24.0844 C   0  0  0  0  0  0  0  0  0  0  0  0
    4.2465   -6.0159   23.5242 N   0  0  0  0  0  4  0  0  0  0  0  0
    3.6074   -6.7145   24.2895 O   0  0  0  0  0  0  0  0  0  0  0  0
    4.2599   -6.1655   22.3117 O   0  0  0  0  0  1  0  0  0  0  0  0
    5.7981   -4.0843   23.2143 C   0  0  0  0  0  0  0  0  0  0  0  0
    5.7978   -4.2604   22.1421 H   0  0  0  0  0  0  0  0  0  0  0  0
    6.6932   -1.5231   21.8399 C   0  0  0  0  0  0  0  0  0  0  0  0
    5.6184   -1.6857   21.7527 H   0  0  0  0  0  0  0  0  0  0  0  0
    5.4272    0.6505   20.1499 C   0  0  0  0  0  0  0  0  0  0  0  0
    5.0091    0.6382   21.1612 H   0  0  0  0  0  0  0  0  0  0  0  0
    4.8007    1.3189   19.0987 C   0  0  0  0  0  0  0  0  0  0  0  0
    3.8665    1.8492   19.2564 H   0  0  0  0  0  0  0  0  0  0  0  0
  1  2  1  0
  2  3  2  0
  3  4  1  0
  4  5  1  0
  4  6  2  0
  6  7  1  0
  7  8  1  0
  8  9  1  0
  8 10  2  0
 10 11  1  0
 10 12  1  0
 12 13  2  0
 12 14  1  0
 14 15  1  0
 15 16  2  0
 16 17  1  0
 16 18  1  0
 18 19  1  0
 18 20  2  0
 20 21  1  0
 20 22  1  0
 22 23  1  0
 23 24  2  0
 23 25  1  0
 22 26  2  0
 26 27  1  0
 14 28  1  0
 28 29  1  0
  6 30  1  0
 30 31  1  0
 30 32  2  0
 32 33  1  0
 32  2  1  0
 28  7  2  0
 26 15  1  0
M  CHG  2  23   1  25  -1
M  END
>  <cnnaffinity>  (1) 
-5.82046

>  <filename>  (1) 
O=c1ccc(-c2cccnc2)cn1-c1cccc([N+](=O)[O-])c1

$$$$
