
     RDKit          3D

 29 31  0  0  0  0  0  0  0  0999 V2000
    6.0378    0.5883   25.6110 H   0  0  0  0  0  0  0  0  0  0  0  0
    6.4872    0.2593   24.8244 O   0  0  0  0  0  0  0  0  0  0  0  0
    6.8276    1.3436   24.0764 C   0  0  0  0  0  0  0  0  0  0  0  0
    6.5536    2.6282   24.5615 C   0  0  0  0  0  0  0  0  0  0  0  0
    6.0931    2.7294   25.5410 H   0  0  0  0  0  0  0  0  0  0  0  0
    6.8664    3.7596   23.8095 C   0  0  0  0  0  0  0  0  0  0  0  0
    6.6652    4.7529   24.2100 H   0  0  0  0  0  0  0  0  0  0  0  0
    7.4363    3.6086   22.5439 C   0  0  0  0  0  0  0  0  0  0  0  0
    7.6774    4.4850   21.9484 H   0  0  0  0  0  0  0  0  0  0  0  0
    7.6965    2.3293   22.0499 C   0  0  0  0  0  0  0  0  0  0  0  0
    8.0985    2.2057   21.0482 H   0  0  0  0  0  0  0  0  0  0  0  0
    7.4221    1.1675   22.8012 C   0  0  0  0  0  0  0  0  0  0  0  0
    7.7228   -0.1830   22.2693 C   0  0  0  0  0  0  0  0  0  0  0  0
    8.2892   -1.2202   22.9092 C   0  0  0  0  0  0  0  0  0  0  0  0
    8.7478   -1.2787   23.8908 H   0  0  0  0  0  0  0  0  0  0  0  0
    8.1266   -2.3762   22.1895 O   0  0  0  0  0  0  0  0  0  0  0  0
    7.3374   -2.0967   21.0934 C   0  0  0  0  0  0  0  0  0  0  0  0
    6.7727   -2.9202   20.4277 O   0  0  0  0  0  0  0  0  0  0  0  0
    7.3029   -0.6999   21.0072 N   0  0  0  0  0  0  0  0  0  0  0  0
    6.6579   -0.0085   19.9262 C   0  0  0  0  0  0  0  0  0  0  0  0
    7.2022    0.0709   18.6216 C   0  0  0  0  0  0  0  0  0  0  0  0
    8.1612   -0.3949   18.3981 H   0  0  0  0  0  0  0  0  0  0  0  0
    6.6017    0.7088   17.6056 N   0  0  0  0  0  0  0  0  0  0  0  0
    5.4212    1.3072   17.8454 C   0  0  0  0  0  0  0  0  0  0  0  0
    4.9312    1.7903   16.9983 H   0  0  0  0  0  0  0  0  0  0  0  0
    4.8083    1.3055   19.1037 C   0  0  0  0  0  0  0  0  0  0  0  0
    3.8543    1.8066   19.2487 H   0  0  0  0  0  0  0  0  0  0  0  0
    5.4418    0.6410   20.1594 C   0  0  0  0  0  0  0  0  0  0  0  0
    5.0449    0.6410   21.1741 H   0  0  0  0  0  0  0  0  0  0  0  0
  1  2  1  0
  2  3  1  0
  3  4  2  0
  4  5  1  0
  4  6  1  0
  6  7  1  0
  6  8  2  0
  8  9  1  0
  8 10  1  0
 10 11  1  0
 10 12  2  0
 12 13  1  0
 13 14  2  0
 14 15  1  0
 14 16  1  0
 16 17  1  0
 17 18  2  0
 17 19  1  0
 19 20  1  0
 20 21  2  0
 21 22  1  0
 21 23  1  0
 23 24  2  0
 24 25  1  0
 24 26  1  0
 26 27  1  0
 26 28  2  0
 28 29  1  0
 12  3  1  0
 19 13  1  0
 28 20  1  0
M  END
>  <cnnaffinity>  (1) 
-4.83314

>  <filename>  (1) 
O=c1occ(-c2ccccc2O)n1-c1cccnc1

$$$$
