
     RDKit          3D

 39 41  0  0  0  0  0  0  0  0999 V2000
    4.9548    1.9576   16.7501 H   0  0  0  0  0  0  0  0  0  0  0  0
    5.3518    1.4635   17.6363 C   0  0  0  0  0  0  0  0  0  0  0  0
    6.5212    0.8227   17.4815 N   0  0  0  0  0  0  0  0  0  0  0  0
    7.0288    0.1947   18.5469 C   0  0  0  0  0  0  0  0  0  0  0  0
    7.9869   -0.3043   18.4016 H   0  0  0  0  0  0  0  0  0  0  0  0
    6.4038    0.1495   19.8021 C   0  0  0  0  0  0  0  0  0  0  0  0
    6.9890   -0.6948   20.8730 C   0  0  0  0  0  0  0  0  0  0  0  0
    7.5552   -1.8178   20.5040 N   0  0  0  0  0  0  0  0  0  0  0  0
    8.0961   -2.6245   21.4637 C   0  0  0  0  0  0  0  0  0  0  0  0
    8.5637   -3.7319   21.2873 O   0  0  0  0  0  0  0  0  0  0  0  0
    8.1305   -2.1472   22.7727 N   0  0  0  0  0  0  0  0  0  0  0  0
    8.5036   -2.8678   23.3603 H   0  0  0  0  0  0  0  0  0  0  0  0
    7.5583   -0.9882   23.1950 C   0  0  0  0  0  0  0  0  0  0  0  0
    7.7638   -0.5716   24.6219 C   0  0  0  0  0  0  0  0  0  0  0  0
    6.8569   -0.0652   24.9785 H   0  0  0  0  0  0  0  0  0  0  0  0
    7.8721   -1.4734   25.2360 H   0  0  0  0  0  0  0  0  0  0  0  0
    8.9880    0.3554   24.8532 C   0  0  0  0  0  0  0  0  0  0  0  0
    8.9971    0.5849   25.9332 H   0  0  0  0  0  0  0  0  0  0  0  0
    8.8985    1.6841   24.0714 C   0  0  0  0  0  0  0  0  0  0  0  0
    7.9247    2.1651   24.2253 H   0  0  0  0  0  0  0  0  0  0  0  0
    8.9658    1.4545   22.9952 H   0  0  0  0  0  0  0  0  0  0  0  0
   10.0435    2.6378   24.4374 C   0  0  0  0  0  0  0  0  0  0  0  0
    9.9243    2.9526   25.4811 H   0  0  0  0  0  0  0  0  0  0  0  0
    9.9814    3.5495   23.8330 H   0  0  0  0  0  0  0  0  0  0  0  0
   11.4169    1.9750   24.2564 C   0  0  0  0  0  0  0  0  0  0  0  0
   12.2074    2.6526   24.5932 H   0  0  0  0  0  0  0  0  0  0  0  0
   11.5928    1.8092   23.1840 H   0  0  0  0  0  0  0  0  0  0  0  0
   11.4908    0.6164   24.9689 C   0  0  0  0  0  0  0  0  0  0  0  0
   11.3795    0.7547   26.0491 H   0  0  0  0  0  0  0  0  0  0  0  0
   12.4731    0.1537   24.8274 H   0  0  0  0  0  0  0  0  0  0  0  0
   10.3454   -0.2974   24.5107 C   0  0  0  0  0  0  0  0  0  0  0  0
   10.4121   -0.4313   23.4227 H   0  0  0  0  0  0  0  0  0  0  0  0
   10.4413   -1.3031   24.9347 H   0  0  0  0  0  0  0  0  0  0  0  0
    6.9283   -0.2562   22.2279 C   0  0  0  0  0  0  0  0  0  0  0  0
    6.4471    0.6781   22.4846 H   0  0  0  0  0  0  0  0  0  0  0  0
    5.2220    0.8907   19.9680 C   0  0  0  0  0  0  0  0  0  0  0  0
    4.7357    0.9653   20.9429 H   0  0  0  0  0  0  0  0  0  0  0  0
    4.6722    1.5287   18.8567 C   0  0  0  0  0  0  0  0  0  0  0  0
    3.7431    2.0840   18.9275 H   0  0  0  0  0  0  0  0  0  0  0  0
  1  2  1  0
  2  3  2  0
  3  4  1  0
  4  5  1  0
  4  6  2  0
  6  7  1  0
  7  8  2  0
  8  9  1  0
  9 10  2  0
  9 11  1  0
 11 12  1  0
 11 13  1  0
 13 14  1  0
 14 15  1  0
 14 16  1  0
 14 17  1  0
 17 18  1  0
 17 19  1  0
 19 20  1  0
 19 21  1  0
 19 22  1  0
 22 23  1  0
 22 24  1  0
 22 25  1  0
 25 26  1  0
 25 27  1  0
 25 28  1  0
 28 29  1  0
 28 30  1  0
 28 31  1  0
 31 32  1  0
 31 33  1  0
 13 34  2  0
 34 35  1  0
  6 36  1  0
 36 37  1  0
 36 38  2  0
 38 39  1  0
 38  2  1  0
 34  7  1  0
 31 17  1  0
M  END
>  <cnnaffinity>  (1) 
-5.53224

>  <filename>  (1) 
O=c1nc(-c2cccnc2)cc(CC2CCCCC2)[nH]1

$$$$
