
     RDKit          3D

 39 41  0  0  0  0  0  0  0  0999 V2000
    4.9271    1.7857   16.9967 H   0  0  0  0  0  0  0  0  0  0  0  0
    5.4005    1.2932   17.8433 C   0  0  0  0  0  0  0  0  0  0  0  0
    6.5567    0.6650   17.5843 N   0  0  0  0  0  0  0  0  0  0  0  0
    7.1630    0.0393   18.5971 C   0  0  0  0  0  0  0  0  0  0  0  0
    8.1209   -0.4209   18.3789 H   0  0  0  0  0  0  0  0  0  0  0  0
    6.6388   -0.0227   19.9021 C   0  0  0  0  0  0  0  0  0  0  0  0
    7.3434   -0.7111   20.9397 N   0  0  0  0  0  0  0  0  0  0  0  0
    6.5903   -1.5947   21.6674 N   0  0  0  0  0  0  0  0  0  0  0  0
    7.1548   -2.2718   22.6256 C   0  0  0  0  0  0  0  0  0  0  0  0
    6.3248   -3.3072   23.3465 C   0  0  0  0  0  0  0  0  0  0  0  0
    5.2794   -2.9764   23.3676 H   0  0  0  0  0  0  0  0  0  0  0  0
    6.6655   -3.3733   24.3889 H   0  0  0  0  0  0  0  0  0  0  0  0
    6.4407   -4.6954   22.6876 C   0  0  0  0  0  0  0  0  0  0  0  0
    7.4984   -4.9882   22.6356 H   0  0  0  0  0  0  0  0  0  0  0  0
    6.0901   -4.6178   21.6490 H   0  0  0  0  0  0  0  0  0  0  0  0
    5.6440   -5.7888   23.4207 C   0  0  0  0  0  0  0  0  0  0  0  0
    5.9792   -5.8450   24.4642 H   0  0  0  0  0  0  0  0  0  0  0  0
    5.8807   -6.7647   22.9730 H   0  0  0  0  0  0  0  0  0  0  0  0
    4.1495   -5.5444   23.3793 C   0  0  0  0  0  0  0  0  0  0  0  0
    3.4408   -5.8526   22.2136 C   0  0  0  0  0  0  0  0  0  0  0  0
    4.0291   -6.2886   21.4134 H   0  0  0  0  0  0  0  0  0  0  0  0
    2.0665   -5.6081   22.1103 C   0  0  0  0  0  0  0  0  0  0  0  0
    1.5227   -5.8569   21.2024 H   0  0  0  0  0  0  0  0  0  0  0  0
    1.3839   -5.0377   23.1904 C   0  0  0  0  0  0  0  0  0  0  0  0
    0.3138   -4.8511   23.1216 H   0  0  0  0  0  0  0  0  0  0  0  0
    2.0821   -4.7144   24.3598 C   0  0  0  0  0  0  0  0  0  0  0  0
    1.5630   -4.2747   25.2065 H   0  0  0  0  0  0  0  0  0  0  0  0
    3.4562   -4.9625   24.4496 C   0  0  0  0  0  0  0  0  0  0  0  0
    4.0087   -4.7008   25.3500 H   0  0  0  0  0  0  0  0  0  0  0  0
    8.5492   -2.1005   22.9600 C   0  0  0  0  0  0  0  0  0  0  0  0
    8.9654   -2.7118   23.7597 H   0  0  0  0  0  0  0  0  0  0  0  0
    9.2963   -1.1990   22.2789 C   0  0  0  0  0  0  0  0  0  0  0  0
   10.3465   -0.9983   22.4672 H   0  0  0  0  0  0  0  0  0  0  0  0
    8.7229   -0.4015   21.2027 C   0  0  0  0  0  0  0  0  0  0  0  0
    9.3338    0.4395   20.5613 O   0  0  0  0  0  0  0  0  0  0  0  0
    5.4315    0.6315   20.1660 C   0  0  0  0  0  0  0  0  0  0  0  0
    5.0154    0.6039   21.1756 H   0  0  0  0  0  0  0  0  0  0  0  0
    4.8111    1.3118   19.1152 C   0  0  0  0  0  0  0  0  0  0  0  0
    3.8801    1.8450   19.2595 H   0  0  0  0  0  0  0  0  0  0  0  0
  1  2  1  0
  2  3  2  0
  3  4  1  0
  4  5  1  0
  4  6  2  0
  6  7  1  0
  7  8  1  0
  8  9  2  0
  9 10  1  0
 10 11  1  0
 10 12  1  0
 10 13  1  0
 13 14  1  0
 13 15  1  0
 13 16  1  0
 16 17  1  0
 16 18  1  0
 16 19  1  0
 19 20  2  0
 20 21  1  0
 20 22  1  0
 22 23  1  0
 22 24  2  0
 24 25  1  0
 24 26  1  0
 26 27  1  0
 26 28  2  0
 28 29  1  0
  9 30  1  0
 30 31  1  0
 30 32  2  0
 32 33  1  0
 32 34  1  0
 34 35  2  0
  6 36  1  0
 36 37  1  0
 36 38  2  0
 38 39  1  0
 38  2  1  0
 34  7  1  0
 28 19  1  0
M  END
>  <cnnaffinity>  (1) 
-5.57821

>  <filename>  (1) 
O=c1ccc(CCCc2ccccc2)nn1-c1cccnc1

$$$$
