
     RDKit          3D

 30 32  0  0  0  0  0  0  0  0999 V2000
    4.9879    1.8591   16.9423 H   0  0  0  0  0  0  0  0  0  0  0  0
    5.4479    1.3342   17.7771 C   0  0  0  0  0  0  0  0  0  0  0  0
    6.6411    0.7691   17.5347 N   0  0  0  0  0  0  0  0  0  0  0  0
    7.2377    0.1251   18.5388 C   0  0  0  0  0  0  0  0  0  0  0  0
    8.2284   -0.2739   18.3209 H   0  0  0  0  0  0  0  0  0  0  0  0
    6.6509   -0.0511   19.8072 C   0  0  0  0  0  0  0  0  0  0  0  0
    7.3839   -0.8344   20.8195 C   0  0  0  0  0  0  0  0  0  0  0  0
    8.6711   -0.5712   20.9302 N   0  0  0  0  0  0  0  0  0  0  0  0
    9.3988   -1.1128   21.9622 C   0  0  0  0  0  0  0  0  0  0  0  0
   10.8345   -0.7193   22.0326 C   0  0  0  0  0  0  0  0  0  0  0  0
   11.2348    0.6287   21.9728 C   0  0  0  0  0  0  0  0  0  0  0  0
   10.4945    1.3964   21.7589 H   0  0  0  0  0  0  0  0  0  0  0  0
   12.5683    0.9907   22.1384 C   0  0  0  0  0  0  0  0  0  0  0  0
   12.8966    2.0195   22.1741 H   0  0  0  0  0  0  0  0  0  0  0  0
   13.5264   -0.0088   22.2321 C   0  0  0  0  0  0  0  0  0  0  0  0
   14.8107    0.3393   22.3284 F   0  0  0  0  0  0  0  0  0  0  0  0
   13.2016   -1.3550   22.2411 C   0  0  0  0  0  0  0  0  0  0  0  0
   13.9806   -2.1015   22.2914 H   0  0  0  0  0  0  0  0  0  0  0  0
   11.8476   -1.6716   22.2192 C   0  0  0  0  0  0  0  0  0  0  0  0
   11.4953   -2.9465   22.4334 F   0  0  0  0  0  0  0  0  0  0  0  0
    8.8261   -1.9377   22.9016 C   0  0  0  0  0  0  0  0  0  0  0  0
    9.3773   -2.3261   23.7548 H   0  0  0  0  0  0  0  0  0  0  0  0
    7.4975   -2.2695   22.7655 N   0  0  0  0  0  0  0  0  0  0  0  0
    7.0036   -2.9074   23.3797 H   0  0  0  0  0  0  0  0  0  0  0  0
    6.6891   -1.8763   21.6949 C   0  0  0  0  0  0  0  0  0  0  0  0
    5.5918   -2.3996   21.5840 O   0  0  0  0  0  0  0  0  0  0  0  0
    5.4307    0.5936   20.0618 C   0  0  0  0  0  0  0  0  0  0  0  0
    4.9797    0.5619   21.0540 H   0  0  0  0  0  0  0  0  0  0  0  0
    4.8194    1.2972   19.0235 C   0  0  0  0  0  0  0  0  0  0  0  0
    3.8892    1.8343   19.1686 H   0  0  0  0  0  0  0  0  0  0  0  0
  1  2  1  0
  2  3  2  0
  3  4  1  0
  4  5  1  0
  4  6  2  0
  6  7  1  0
  7  8  2  0
  8  9  1  0
  9 10  1  0
 10 11  2  0
 11 12  1  0
 11 13  1  0
 13 14  1  0
 13 15  2  0
 15 16  1  0
 15 17  1  0
 17 18  1  0
 17 19  2  0
 19 20  1  0
  9 21  2  0
 21 22  1  0
 21 23  1  0
 23 24  1  0
 23 25  1  0
 25 26  2  0
  6 27  1  0
 27 28  1  0
 27 29  2  0
 29 30  1  0
 29  2  1  0
 25  7  1  0
 19 10  1  0
M  END
>  <cnnaffinity>  (1) 
-5.47348

>  <filename>  (1) 
O=c1[nH]cc(-c2ccc(F)cc2F)nc1-c1cccnc1

$$$$
