
     RDKit          3D

 35 38  0  0  0  0  0  0  0  0999 V2000
    4.9163    1.7769   17.0003 H   0  0  0  0  0  0  0  0  0  0  0  0
    5.4028    1.2929   17.8427 C   0  0  0  0  0  0  0  0  0  0  0  0
    6.5657    0.6740   17.5814 N   0  0  0  0  0  0  0  0  0  0  0  0
    7.1600    0.0503   18.6007 C   0  0  0  0  0  0  0  0  0  0  0  0
    8.1198   -0.4200   18.3892 H   0  0  0  0  0  0  0  0  0  0  0  0
    6.6159   -0.0216   19.9015 C   0  0  0  0  0  0  0  0  0  0  0  0
    7.3022   -0.7486   20.9986 C   0  0  0  0  0  0  0  0  0  0  0  0
    6.5567   -1.5107   21.7675 N   0  0  0  0  0  0  0  0  0  0  0  0
    7.1568   -2.1912   22.7979 N   0  0  0  0  0  0  0  0  0  0  0  0
    6.3012   -2.9865   23.6368 C   0  0  0  0  0  0  0  0  0  0  0  0
    5.1787   -3.6867   23.0742 C   0  0  0  0  0  0  0  0  0  0  0  0
    5.0017   -3.5970   22.0056 H   0  0  0  0  0  0  0  0  0  0  0  0
    4.3552   -4.4543   23.7588 N   0  0  0  0  0  0  0  0  0  0  0  0
    4.5716   -4.5768   25.1178 C   0  0  0  0  0  0  0  0  0  0  0  0
    3.6954   -5.3870   25.9049 C   0  0  0  0  0  0  0  0  0  0  0  0
    2.8771   -5.8837   25.3945 H   0  0  0  0  0  0  0  0  0  0  0  0
    3.8905   -5.5244   27.2658 C   0  0  0  0  0  0  0  0  0  0  0  0
    3.2213   -6.1432   27.8654 H   0  0  0  0  0  0  0  0  0  0  0  0
    4.9734   -4.8588   27.9123 C   0  0  0  0  0  0  0  0  0  0  0  0
    5.1124   -4.9775   28.9866 H   0  0  0  0  0  0  0  0  0  0  0  0
    5.8373   -4.0719   27.1866 C   0  0  0  0  0  0  0  0  0  0  0  0
    6.6698   -3.5579   27.6677 H   0  0  0  0  0  0  0  0  0  0  0  0
    5.6569   -3.9117   25.7783 C   0  0  0  0  0  0  0  0  0  0  0  0
    6.5276   -3.1078   24.9909 C   0  0  0  0  0  0  0  0  0  0  0  0
    7.3416   -2.5736   25.4764 H   0  0  0  0  0  0  0  0  0  0  0  0
    8.5224   -2.1113   23.0197 C   0  0  0  0  0  0  0  0  0  0  0  0
    8.9131   -2.7257   23.8317 H   0  0  0  0  0  0  0  0  0  0  0  0
    9.3376   -1.3532   22.2681 C   0  0  0  0  0  0  0  0  0  0  0  0
   10.4036   -1.2687   22.4334 H   0  0  0  0  0  0  0  0  0  0  0  0
    8.7912   -0.5568   21.1799 C   0  0  0  0  0  0  0  0  0  0  0  0
    9.4888    0.1792   20.4864 O   0  0  0  0  0  0  0  0  0  0  0  0
    5.4180    0.6481   20.1587 C   0  0  0  0  0  0  0  0  0  0  0  0
    5.0049    0.6203   21.1693 H   0  0  0  0  0  0  0  0  0  0  0  0
    4.8015    1.3205   19.1062 C   0  0  0  0  0  0  0  0  0  0  0  0
    3.8683    1.8509   19.2590 H   0  0  0  0  0  0  0  0  0  0  0  0
  1  2  1  0
  2  3  2  0
  3  4  1  0
  4  5  1  0
  4  6  2  0
  6  7  1  0
  7  8  2  0
  8  9  1  0
  9 10  1  0
 10 11  2  0
 11 12  1  0
 11 13  1  0
 13 14  2  0
 14 15  1  0
 15 16  1  0
 15 17  2  0
 17 18  1  0
 17 19  1  0
 19 20  1  0
 19 21  2  0
 21 22  1  0
 21 23  1  0
 23 24  2  0
 24 25  1  0
  9 26  1  0
 26 27  1  0
 26 28  2  0
 28 29  1  0
 28 30  1  0
 30 31  2  0
  6 32  1  0
 32 33  1  0
 32 34  2  0
 34 35  1  0
 34  2  1  0
 30  7  1  0
 24 10  1  0
 23 14  1  0
M  END
>  <cnnaffinity>  (1) 
-5.56319

>  <filename>  (1) 
O=c1ccn(-c2cnc3ccccc3c2)nc1-c1cccnc1

$$$$
