
     RDKit          3D

 40 43  0  0  0  0  0  0  0  0999 V2000
    9.9764   -3.9528   26.6619 O   0  0  0  0  0  0  0  0  0  0  0  0
    8.8150   -3.5984   26.6484 C   0  0  0  0  0  0  0  0  0  0  0  0
    8.0178   -4.2290   27.6067 N   0  0  0  0  0  0  0  0  0  0  0  0
    6.6770   -4.0422   27.7397 C   0  0  0  0  0  0  0  0  0  0  0  0
    5.9970   -3.2224   27.0184 N   0  0  0  0  0  0  0  0  0  0  0  0
    6.6846   -2.4913   26.0321 C   0  0  0  0  0  0  0  0  0  0  0  0
    5.9571   -1.5780   25.2365 C   0  0  0  0  0  0  0  0  0  0  0  0
    6.6002   -0.8565   24.2504 C   0  0  0  0  0  0  0  0  0  0  0  0
    8.0062   -1.0310   24.0643 C   0  0  0  0  0  0  0  0  0  0  0  0
    8.6962   -0.3297   23.1183 N   0  0  0  0  0  0  0  0  0  0  0  0
   10.1402   -0.1519   23.2070 C   0  0  0  0  0  0  0  0  0  0  0  0
   10.4383    0.9943   22.2298 C   0  0  0  0  0  0  0  0  0  0  0  0
    9.2692    0.9917   21.2337 C   0  0  0  0  0  0  0  0  0  0  0  0
    8.0893    0.2985   21.9520 C   0  0  0  0  0  0  0  0  0  0  0  0
    7.3715   -0.7099   21.0181 C   0  0  0  0  0  0  0  0  0  0  0  0
    6.6374   -0.0294   19.8820 C   0  0  0  0  0  0  0  0  0  0  0  0
    5.4296    0.6427   20.1267 C   0  0  0  0  0  0  0  0  0  0  0  0
    4.7912    1.3146   19.0821 C   0  0  0  0  0  0  0  0  0  0  0  0
    5.3920    1.3048   17.8181 C   0  0  0  0  0  0  0  0  0  0  0  0
    6.5519    0.6853   17.5555 N   0  0  0  0  0  0  0  0  0  0  0  0
    7.1529    0.0506   18.5727 C   0  0  0  0  0  0  0  0  0  0  0  0
    8.1067   -0.4242   18.3339 H   0  0  0  0  0  0  0  0  0  0  0  0
    4.9207    1.8131   16.9786 H   0  0  0  0  0  0  0  0  0  0  0  0
    3.8615    1.8560   19.2338 H   0  0  0  0  0  0  0  0  0  0  0  0
    5.0069    0.6435   21.1347 H   0  0  0  0  0  0  0  0  0  0  0  0
    6.6659   -1.3037   21.6067 H   0  0  0  0  0  0  0  0  0  0  0  0
    8.1180   -1.4173   20.6358 H   0  0  0  0  0  0  0  0  0  0  0  0
    7.3569    1.0567   22.2785 H   0  0  0  0  0  0  0  0  0  0  0  0
    9.5347    0.4268   20.3288 H   0  0  0  0  0  0  0  0  0  0  0  0
    8.9927    2.0009   20.9075 H   0  0  0  0  0  0  0  0  0  0  0  0
   11.4051    0.8585   21.7316 H   0  0  0  0  0  0  0  0  0  0  0  0
   10.4777    1.9464   22.7705 H   0  0  0  0  0  0  0  0  0  0  0  0
   10.4407    0.0867   24.2360 H   0  0  0  0  0  0  0  0  0  0  0  0
   10.6611   -1.0824   22.9400 H   0  0  0  0  0  0  0  0  0  0  0  0
    8.7233   -1.8594   24.8265 N   0  0  0  0  0  0  0  0  0  0  0  0
    8.0817   -2.5921   25.7662 C   0  0  0  0  0  0  0  0  0  0  0  0
    6.0605   -0.1584   23.6220 H   0  0  0  0  0  0  0  0  0  0  0  0
    4.8937   -1.4897   25.4450 H   0  0  0  0  0  0  0  0  0  0  0  0
    6.2028   -4.6096   28.5346 H   0  0  0  0  0  0  0  0  0  0  0  0
    8.5935   -4.8577   28.1528 H   0  0  0  0  0  0  0  0  0  0  0  0
  1  2  2  0
  2  3  1  0
  3  4  1  0
  4  5  2  0
  5  6  1  0
  6  7  2  0
  7  8  1  0
  8  9  2  0
  9 10  1  0
 10 11  1  0
 11 12  1  0
 12 13  1  0
 13 14  1  0
 14 15  1  0
 15 16  1  0
 16 17  2  0
 17 18  1  0
 18 19  2  0
 19 20  1  0
 20 21  2  0
 21 22  1  0
 19 23  1  0
 18 24  1  0
 17 25  1  0
 15 26  1  0
 15 27  1  0
 14 28  1  0
 13 29  1  0
 13 30  1  0
 12 31  1  0
 12 32  1  0
 11 33  1  0
 11 34  1  0
  9 35  1  0
 35 36  2  0
  8 37  1  0
  7 38  1  0
  4 39  1  0
  3 40  1  0
 36  2  1  0
 36  6  1  0
 14 10  1  0
 21 16  1  0
M  END
>  <cnnaffinity>  (1) 
-5.28066

>  <filename>  (1) 
O=c1[nH]cnc2ccc(N3CCCC3Cc3cccnc3)nc12

$$$$
