
     RDKit          3D

 29 31  0  0  0  0  0  0  0  0999 V2000
    5.1627    1.6863   16.9400 H   0  0  0  0  0  0  0  0  0  0  0  0
    5.6221    1.2275   17.8118 C   0  0  0  0  0  0  0  0  0  0  0  0
    6.7967    0.6119   17.5989 N   0  0  0  0  0  0  0  0  0  0  0  0
    7.3969    0.0394   18.6498 C   0  0  0  0  0  0  0  0  0  0  0  0
    8.3616   -0.4368   18.4661 H   0  0  0  0  0  0  0  0  0  0  0  0
    6.8407    0.0164   19.9375 C   0  0  0  0  0  0  0  0  0  0  0  0
    7.5100   -0.7074   21.0387 C   0  0  0  0  0  0  0  0  0  0  0  0
    8.8733   -0.5599   21.1328 N   0  0  0  0  0  0  0  0  0  0  0  0
    9.5152   -1.2038   22.0875 C   0  0  0  0  0  0  0  0  0  0  0  0
   10.9573   -0.9369   22.1995 C   0  0  0  0  0  0  0  0  0  0  0  0
   11.3931    0.4021   22.2553 C   0  0  0  0  0  0  0  0  0  0  0  0
   10.6711    1.2182   22.2067 H   0  0  0  0  0  0  0  0  0  0  0  0
   12.6825    0.7365   22.3643 N   0  0  0  0  0  0  0  0  0  0  0  0
   13.6030   -0.2369   22.3127 C   0  0  0  0  0  0  0  0  0  0  0  0
   14.6595    0.0229   22.3726 H   0  0  0  0  0  0  0  0  0  0  0  0
   13.2466   -1.5757   22.1475 C   0  0  0  0  0  0  0  0  0  0  0  0
   14.2062   -2.4889   21.9730 F   0  0  0  0  0  0  0  0  0  0  0  0
   11.9118   -1.9589   22.1617 C   0  0  0  0  0  0  0  0  0  0  0  0
   11.6282   -3.0086   22.1450 H   0  0  0  0  0  0  0  0  0  0  0  0
    8.8415   -2.1956   23.0111 C   0  0  0  0  0  0  0  0  0  0  0  0
    9.3196   -2.9682   23.8247 O   0  0  0  0  0  0  0  0  0  0  0  0
    7.4539   -2.1751   22.8866 N   0  0  0  0  0  0  0  0  0  0  0  0
    7.0283   -2.7889   23.5720 H   0  0  0  0  0  0  0  0  0  0  0  0
    6.7864   -1.4680   21.9183 C   0  0  0  0  0  0  0  0  0  0  0  0
    5.7079   -1.5705   21.8591 H   0  0  0  0  0  0  0  0  0  0  0  0
    5.6138    0.6609   20.1430 C   0  0  0  0  0  0  0  0  0  0  0  0
    5.1733    0.6891   21.1394 H   0  0  0  0  0  0  0  0  0  0  0  0
    4.9992    1.2839   19.0615 C   0  0  0  0  0  0  0  0  0  0  0  0
    4.0603    1.8092   19.1755 H   0  0  0  0  0  0  0  0  0  0  0  0
  1  2  1  0
  2  3  2  0
  3  4  1  0
  4  5  1  0
  4  6  2  0
  6  7  1  0
  7  8  1  0
  8  9  2  0
  9 10  1  0
 10 11  2  0
 11 12  1  0
 11 13  1  0
 13 14  2  0
 14 15  1  0
 14 16  1  0
 16 17  1  0
 16 18  2  0
 18 19  1  0
  9 20  1  0
 20 21  2  0
 20 22  1  0
 22 23  1  0
 22 24  1  0
 24 25  1  0
  6 26  1  0
 26 27  1  0
 26 28  2  0
 28 29  1  0
 28  2  1  0
 24  7  2  0
 18 10  1  0
M  END
>  <cnnaffinity>  (1) 
-5.75844

>  <filename>  (1) 
O=c1[nH]cc(-c2cccnc2)nc1-c1cncc(F)c1

$$$$
