
     RDKit          3D

 32 34  0  0  0  0  0  0  0  0999 V2000
    4.9117    1.8820   16.8411 H   0  0  0  0  0  0  0  0  0  0  0  0
    5.3585    1.4044   17.7103 C   0  0  0  0  0  0  0  0  0  0  0  0
    6.5347    0.7913   17.5110 N   0  0  0  0  0  0  0  0  0  0  0  0
    7.1025    0.1774   18.5540 C   0  0  0  0  0  0  0  0  0  0  0  0
    8.0447   -0.3277   18.3388 H   0  0  0  0  0  0  0  0  0  0  0  0
    6.5470    0.1711   19.8442 C   0  0  0  0  0  0  0  0  0  0  0  0
    7.2250   -0.5733   20.9294 C   0  0  0  0  0  0  0  0  0  0  0  0
    7.7945   -1.6978   20.5896 N   0  0  0  0  0  0  0  0  0  0  0  0
    8.3172   -2.4767   21.5785 C   0  0  0  0  0  0  0  0  0  0  0  0
    8.6862   -3.6263   21.4688 O   0  0  0  0  0  0  0  0  0  0  0  0
    8.4499   -1.9190   22.8502 N   0  0  0  0  0  0  0  0  0  0  0  0
    8.9452   -2.5713   23.4320 H   0  0  0  0  0  0  0  0  0  0  0  0
    7.8528   -0.7641   23.2596 C   0  0  0  0  0  0  0  0  0  0  0  0
    7.8969   -0.3697   24.7335 C   0  0  0  0  0  0  0  0  0  0  0  0
    6.7183   -0.2298   25.3476 N   0  0  0  0  0  0  0  0  0  0  0  0
    6.6985   -0.0083   26.6666 C   0  0  0  0  0  0  0  0  0  0  0  0
    5.7074    0.0921   27.1012 H   0  0  0  0  0  0  0  0  0  0  0  0
    7.8519    0.0880   27.4525 C   0  0  0  0  0  0  0  0  0  0  0  0
    7.7757    0.2840   28.5186 H   0  0  0  0  0  0  0  0  0  0  0  0
    9.0878   -0.0213   26.8207 C   0  0  0  0  0  0  0  0  0  0  0  0
   10.0269    0.0491   27.3692 H   0  0  0  0  0  0  0  0  0  0  0  0
    9.1070   -0.2039   25.4387 C   0  0  0  0  0  0  0  0  0  0  0  0
   10.3863   -0.2594   24.6722 C   0  0  0  0  0  0  0  0  0  0  0  0
   10.3119    0.4411   23.5311 F   0  0  0  0  0  0  0  0  0  0  0  0
   10.6621   -1.5393   24.3276 F   0  0  0  0  0  0  0  0  0  0  0  0
   11.4460    0.1966   25.3578 F   0  0  0  0  0  0  0  0  0  0  0  0
    7.2157   -0.0636   22.2667 C   0  0  0  0  0  0  0  0  0  0  0  0
    6.7218    0.8710   22.4786 H   0  0  0  0  0  0  0  0  0  0  0  0
    5.3259    0.8343   20.0383 C   0  0  0  0  0  0  0  0  0  0  0  0
    4.8525    0.8584   21.0209 H   0  0  0  0  0  0  0  0  0  0  0  0
    4.7114    1.4450   18.9480 C   0  0  0  0  0  0  0  0  0  0  0  0
    3.7588    1.9563   19.0415 H   0  0  0  0  0  0  0  0  0  0  0  0
  1  2  1  0
  2  3  2  0
  3  4  1  0
  4  5  1  0
  4  6  2  0
  6  7  1  0
  7  8  2  0
  8  9  1  0
  9 10  2  0
  9 11  1  0
 11 12  1  0
 11 13  1  0
 13 14  1  0
 14 15  2  0
 15 16  1  0
 16 17  1  0
 16 18  2  0
 18 19  1  0
 18 20  1  0
 20 21  1  0
 20 22  2  0
 22 23  1  0
 23 24  1  0
 23 25  1  0
 23 26  1  0
 13 27  2  0
 27 28  1  0
  6 29  1  0
 29 30  1  0
 29 31  2  0
 31 32  1  0
 31  2  1  0
 27  7  1  0
 22 14  1  0
M  END
>  <cnnaffinity>  (1) 
-5.62756

>  <filename>  (1) 
O=c1nc(-c2cccnc2)cc(-c2ncccc2C(F)(F)F)[nH]1

$$$$
