
     RDKit          3D

 34 37  0  0  0  0  0  0  0  0999 V2000
    4.9133    1.7916   16.9883 H   0  0  0  0  0  0  0  0  0  0  0  0
    5.3912    1.2994   17.8316 C   0  0  0  0  0  0  0  0  0  0  0  0
    6.5491    0.6755   17.5653 N   0  0  0  0  0  0  0  0  0  0  0  0
    7.1681    0.0587   18.5772 C   0  0  0  0  0  0  0  0  0  0  0  0
    8.1210   -0.4196   18.3625 H   0  0  0  0  0  0  0  0  0  0  0  0
    6.6509    0.0089   19.8846 C   0  0  0  0  0  0  0  0  0  0  0  0
    7.3481   -0.6825   20.9401 N   0  0  0  0  0  0  0  0  0  0  0  0
    6.7181   -1.7300   21.5897 C   0  0  0  0  0  0  0  0  0  0  0  0
    5.7019   -1.9445   21.2555 H   0  0  0  0  0  0  0  0  0  0  0  0
    7.3178   -2.4419   22.5834 C   0  0  0  0  0  0  0  0  0  0  0  0
    6.6340   -3.5332   23.2818 C   0  0  0  0  0  0  0  0  0  0  0  0
    5.4322   -4.5133   22.4524 S   0  0  0  0  0  0  0  0  0  0  0  0
    5.1454   -5.4506   23.8899 C   0  0  0  0  0  0  0  0  0  0  0  0
    4.2510   -6.5195   24.0506 C   0  0  0  0  0  0  0  0  0  0  0  0
    3.6361   -6.8563   23.2201 H   0  0  0  0  0  0  0  0  0  0  0  0
    4.1709   -7.1286   25.3002 C   0  0  0  0  0  0  0  0  0  0  0  0
    3.4791   -7.9529   25.4508 H   0  0  0  0  0  0  0  0  0  0  0  0
    4.9693   -6.6902   26.3826 C   0  0  0  0  0  0  0  0  0  0  0  0
    4.8871   -7.1825   27.3503 H   0  0  0  0  0  0  0  0  0  0  0  0
    5.8545   -5.6346   26.2207 C   0  0  0  0  0  0  0  0  0  0  0  0
    6.4769   -5.2824   27.0419 H   0  0  0  0  0  0  0  0  0  0  0  0
    5.9484   -5.0007   24.9637 C   0  0  0  0  0  0  0  0  0  0  0  0
    6.7843   -3.9048   24.5797 C   0  0  0  0  0  0  0  0  0  0  0  0
    7.4815   -3.4106   25.2502 H   0  0  0  0  0  0  0  0  0  0  0  0
    8.6937   -2.0794   22.9817 C   0  0  0  0  0  0  0  0  0  0  0  0
    9.4182   -2.5829   23.8102 O   0  0  0  0  0  0  0  0  0  0  0  0
    9.2154   -1.0186   22.2798 N   0  0  0  0  0  0  0  0  0  0  0  0
   10.1473   -0.7582   22.5208 H   0  0  0  0  0  0  0  0  0  0  0  0
    8.6575   -0.2845   21.2963 C   0  0  0  0  0  0  0  0  0  0  0  0
    9.2805    0.6172   20.7813 O   0  0  0  0  0  0  0  0  0  0  0  0
    5.4363    0.6447   20.1510 C   0  0  0  0  0  0  0  0  0  0  0  0
    5.0281    0.6204   21.1640 H   0  0  0  0  0  0  0  0  0  0  0  0
    4.8030    1.3177   19.1019 C   0  0  0  0  0  0  0  0  0  0  0  0
    3.8717    1.8473   19.2566 H   0  0  0  0  0  0  0  0  0  0  0  0
  1  2  1  0
  2  3  2  0
  3  4  1  0
  4  5  1  0
  4  6  2  0
  6  7  1  0
  7  8  1  0
  8  9  1  0
  8 10  2  0
 10 11  1  0
 11 12  1  0
 12 13  1  0
 13 14  2  0
 14 15  1  0
 14 16  1  0
 16 17  1  0
 16 18  2  0
 18 19  1  0
 18 20  1  0
 20 21  1  0
 20 22  2  0
 22 23  1  0
 23 24  1  0
 10 25  1  0
 25 26  2  0
 25 27  1  0
 27 28  1  0
 27 29  1  0
 29 30  2  0
  6 31  1  0
 31 32  1  0
 31 33  2  0
 33 34  1  0
 33  2  1  0
 29  7  1  0
 23 11  2  0
 22 13  1  0
M  END
>  <cnnaffinity>  (1) 
-5.74648

>  <filename>  (1) 
O=c1[nH]c(=O)n(-c2cccnc2)cc1-c1cc2ccccc2s1

$$$$
