
     RDKit          3D

 34 37  0  0  0  0  0  0  0  0999 V2000
    4.9382    1.9461   16.7484 H   0  0  0  0  0  0  0  0  0  0  0  0
    5.3472    1.4516   17.6262 C   0  0  0  0  0  0  0  0  0  0  0  0
    6.5146    0.8155   17.4529 N   0  0  0  0  0  0  0  0  0  0  0  0
    7.0417    0.1835   18.5062 C   0  0  0  0  0  0  0  0  0  0  0  0
    7.9938   -0.3203   18.3313 H   0  0  0  0  0  0  0  0  0  0  0  0
    6.4412    0.1634   19.7743 C   0  0  0  0  0  0  0  0  0  0  0  0
    7.0654   -0.6296   20.8585 C   0  0  0  0  0  0  0  0  0  0  0  0
    7.6085   -1.7651   20.5113 N   0  0  0  0  0  0  0  0  0  0  0  0
    8.1513   -2.5539   21.4857 C   0  0  0  0  0  0  0  0  0  0  0  0
    8.5109   -3.7076   21.3569 O   0  0  0  0  0  0  0  0  0  0  0  0
    8.3385   -1.9912   22.7469 N   0  0  0  0  0  0  0  0  0  0  0  0
    8.6662   -2.7084   23.3660 H   0  0  0  0  0  0  0  0  0  0  0  0
    7.7161   -0.8494   23.1602 C   0  0  0  0  0  0  0  0  0  0  0  0
    7.8589   -0.4443   24.5801 C   0  0  0  0  0  0  0  0  0  0  0  0
    6.7413   -0.2299   25.4010 C   0  0  0  0  0  0  0  0  0  0  0  0
    5.7444   -0.3165   24.9665 H   0  0  0  0  0  0  0  0  0  0  0  0
    6.8978    0.0765   26.7729 C   0  0  0  0  0  0  0  0  0  0  0  0
    6.0139    0.2338   27.3834 H   0  0  0  0  0  0  0  0  0  0  0  0
    8.1572    0.1884   27.3589 C   0  0  0  0  0  0  0  0  0  0  0  0
    8.2812    0.4269   28.4148 H   0  0  0  0  0  0  0  0  0  0  0  0
    9.2757    0.0292   26.5192 C   0  0  0  0  0  0  0  0  0  0  0  0
    9.1561   -0.2791   25.1428 C   0  0  0  0  0  0  0  0  0  0  0  0
   10.4947   -0.3157   24.6100 C   0  0  0  0  0  0  0  0  0  0  0  0
   10.7451   -0.5066   23.5725 H   0  0  0  0  0  0  0  0  0  0  0  0
   11.3508   -0.0489   25.6384 C   0  0  0  0  0  0  0  0  0  0  0  0
   12.4317    0.0281   25.6246 H   0  0  0  0  0  0  0  0  0  0  0  0
   10.6202    0.1309   26.7970 N   0  0  0  0  0  0  0  0  0  0  0  0
   10.9689    0.5169   27.6633 H   0  0  0  0  0  0  0  0  0  0  0  0
    7.0457   -0.1439   22.2002 C   0  0  0  0  0  0  0  0  0  0  0  0
    6.5519    0.7858   22.4471 H   0  0  0  0  0  0  0  0  0  0  0  0
    5.2419    0.8649   19.9504 C   0  0  0  0  0  0  0  0  0  0  0  0
    4.7616    0.9064   20.9288 H   0  0  0  0  0  0  0  0  0  0  0  0
    4.6767    1.5000   18.8501 C   0  0  0  0  0  0  0  0  0  0  0  0
    3.7441    2.0399   18.9312 H   0  0  0  0  0  0  0  0  0  0  0  0
  1  2  1  0
  2  3  2  0
  3  4  1  0
  4  5  1  0
  4  6  2  0
  6  7  1  0
  7  8  2  0
  8  9  1  0
  9 10  2  0
  9 11  1  0
 11 12  1  0
 11 13  1  0
 13 14  1  0
 14 15  2  0
 15 16  1  0
 15 17  1  0
 17 18  1  0
 17 19  2  0
 19 20  1  0
 19 21  1  0
 21 22  2  0
 22 23  1  0
 23 24  1  0
 23 25  2  0
 25 26  1  0
 25 27  1  0
 27 28  1  0
 13 29  2  0
 29 30  1  0
  6 31  1  0
 31 32  1  0
 31 33  2  0
 33 34  1  0
 33  2  1  0
 29  7  1  0
 22 14  1  0
 27 21  1  0
M  END
>  <cnnaffinity>  (1) 
-5.32598

>  <filename>  (1) 
O=c1nc(-c2cccnc2)cc(-c2cccc3[nH]ccc23)[nH]1

$$$$
