
     RDKit          3D

 35 37  0  0  0  0  0  0  0  0999 V2000
    5.0077    1.8541   16.9876 H   0  0  0  0  0  0  0  0  0  0  0  0
    5.4643    1.3172   17.8155 C   0  0  0  0  0  0  0  0  0  0  0  0
    6.6268    0.6985   17.5509 N   0  0  0  0  0  0  0  0  0  0  0  0
    7.2219    0.0464   18.5567 C   0  0  0  0  0  0  0  0  0  0  0  0
    8.1622   -0.4556   18.3325 H   0  0  0  0  0  0  0  0  0  0  0  0
    6.6849   -0.0376   19.8535 C   0  0  0  0  0  0  0  0  0  0  0  0
    7.3666   -0.7439   20.9063 N   0  0  0  0  0  0  0  0  0  0  0  0
    8.6266   -0.3137   21.2785 C   0  0  0  0  0  0  0  0  0  0  0  0
    9.0183    0.5250   20.7029 H   0  0  0  0  0  0  0  0  0  0  0  0
    9.2899   -0.8902   22.3076 C   0  0  0  0  0  0  0  0  0  0  0  0
   10.2762   -0.5568   22.5990 H   0  0  0  0  0  0  0  0  0  0  0  0
    8.6790   -1.9602   23.0311 C   0  0  0  0  0  0  0  0  0  0  0  0
    9.4098   -2.4411   24.0541 O   0  0  0  0  0  0  0  0  0  0  0  0
    8.9481   -3.5557   24.8222 C   0  0  0  0  0  0  0  0  0  0  0  0
    7.9596   -3.3226   25.2430 H   0  0  0  0  0  0  0  0  0  0  0  0
    8.9165   -4.9090   24.0655 C   0  0  0  0  0  0  0  0  0  0  0  0
    7.8867   -5.2693   23.9734 H   0  0  0  0  0  0  0  0  0  0  0  0
    9.3119   -4.7810   23.0546 H   0  0  0  0  0  0  0  0  0  0  0  0
    9.7666   -5.8731   24.9271 C   0  0  0  0  0  0  0  0  0  0  0  0
    9.4354   -6.9099   24.8967 H   0  0  0  0  0  0  0  0  0  0  0  0
   10.8037   -5.8506   24.5774 H   0  0  0  0  0  0  0  0  0  0  0  0
    9.7616   -5.2428   26.3219 C   0  0  0  0  0  0  0  0  0  0  0  0
   10.5537   -5.6152   26.9786 H   0  0  0  0  0  0  0  0  0  0  0  0
    8.8018   -5.4073   26.8305 H   0  0  0  0  0  0  0  0  0  0  0  0
    9.9357   -3.7763   25.9535 C   0  0  0  0  0  0  0  0  0  0  0  0
    9.8015   -3.0781   26.7819 H   0  0  0  0  0  0  0  0  0  0  0  0
   10.9350   -3.6269   25.5253 H   0  0  0  0  0  0  0  0  0  0  0  0
    7.4452   -2.4146   22.6750 C   0  0  0  0  0  0  0  0  0  0  0  0
    6.9388   -3.2245   23.1691 H   0  0  0  0  0  0  0  0  0  0  0  0
    6.7117   -1.8374   21.5832 C   0  0  0  0  0  0  0  0  0  0  0  0
    5.6208   -2.2475   21.2251 O   0  0  0  0  0  0  0  0  0  0  0  0
    5.4680    0.5977   20.1140 C   0  0  0  0  0  0  0  0  0  0  0  0
    5.0323    0.5349   21.1092 H   0  0  0  0  0  0  0  0  0  0  0  0
    4.8506    1.2955   19.0724 C   0  0  0  0  0  0  0  0  0  0  0  0
    3.9202    1.8288   19.2304 H   0  0  0  0  0  0  0  0  0  0  0  0
  1  2  1  0
  2  3  2  0
  3  4  1  0
  4  5  1  0
  4  6  2  0
  6  7  1  0
  7  8  1  0
  8  9  1  0
  8 10  2  0
 10 11  1  0
 10 12  1  0
 12 13  1  0
 13 14  1  0
 14 15  1  0
 14 16  1  0
 16 17  1  0
 16 18  1  0
 16 19  1  0
 19 20  1  0
 19 21  1  0
 19 22  1  0
 22 23  1  0
 22 24  1  0
 22 25  1  0
 25 26  1  0
 25 27  1  0
 12 28  2  0
 28 29  1  0
 28 30  1  0
 30 31  2  0
  6 32  1  0
 32 33  1  0
 32 34  2  0
 34 35  1  0
 34  2  1  0
 30  7  1  0
 25 14  1  0
M  END
>  <cnnaffinity>  (1) 
-4.85765

>  <filename>  (1) 
O=c1cc(OC2CCCC2)ccn1-c1cccnc1

$$$$
