
     RDKit          3D

 30 32  0  0  0  0  0  0  0  0999 V2000
    4.9143    1.7751   17.0031 H   0  0  0  0  0  0  0  0  0  0  0  0
    5.4034    1.2920   17.8443 C   0  0  0  0  0  0  0  0  0  0  0  0
    6.5703    0.6835   17.5799 N   0  0  0  0  0  0  0  0  0  0  0  0
    7.1747    0.0549   18.5921 C   0  0  0  0  0  0  0  0  0  0  0  0
    8.1228   -0.4350   18.3748 H   0  0  0  0  0  0  0  0  0  0  0  0
    6.6472    0.0041   19.8887 C   0  0  0  0  0  0  0  0  0  0  0  0
    7.3836   -0.7326   20.9061 C   0  0  0  0  0  0  0  0  0  0  0  0
    8.0921   -1.7928   20.6660 N   0  0  0  0  0  0  0  0  0  0  0  0
    8.5825   -2.1405   21.8949 N   0  0  0  0  0  0  0  0  0  0  0  0
    9.2119   -2.9093   22.0315 H   0  0  0  0  0  0  0  0  0  0  0  0
    8.2669   -1.2939   22.9069 C   0  0  0  0  0  0  0  0  0  0  0  0
    8.6166   -1.3415   24.0703 O   0  0  0  0  0  0  0  0  0  0  0  0
    7.4203   -0.3595   22.2541 N   0  0  0  0  0  0  0  0  0  0  0  0
    6.9813    0.8402   22.8327 N   0  0  0  0  0  0  0  0  0  0  0  0
    7.0924    1.6941   22.2962 H   0  0  0  0  0  0  0  0  0  0  0  0
    6.4111    0.9278   24.1091 C   0  0  0  0  0  0  0  0  0  0  0  0
    5.7983   -0.1670   24.7384 C   0  0  0  0  0  0  0  0  0  0  0  0
    5.7825   -1.1193   24.2252 H   0  0  0  0  0  0  0  0  0  0  0  0
    5.2252   -0.0549   26.0059 C   0  0  0  0  0  0  0  0  0  0  0  0
    4.7558   -0.9170   26.4683 H   0  0  0  0  0  0  0  0  0  0  0  0
    5.2582    1.1697   26.6731 C   0  0  0  0  0  0  0  0  0  0  0  0
    4.5430    1.3067   28.2546 Cl  0  0  0  0  0  0  0  0  0  0  0  0
    5.8562    2.2803   26.0722 C   0  0  0  0  0  0  0  0  0  0  0  0
    5.8676    3.2294   26.6014 H   0  0  0  0  0  0  0  0  0  0  0  0
    6.4227    2.1576   24.7949 C   0  0  0  0  0  0  0  0  0  0  0  0
    6.8857    3.0304   24.3415 H   0  0  0  0  0  0  0  0  0  0  0  0
    5.4372    0.6572   20.1607 C   0  0  0  0  0  0  0  0  0  0  0  0
    5.0082    0.6309   21.1653 H   0  0  0  0  0  0  0  0  0  0  0  0
    4.8027    1.3119   19.1102 C   0  0  0  0  0  0  0  0  0  0  0  0
    3.8715    1.8444   19.2635 H   0  0  0  0  0  0  0  0  0  0  0  0
  1  2  1  0
  2  3  2  0
  3  4  1  0
  4  5  1  0
  4  6  2  0
  6  7  1  0
  7  8  2  0
  8  9  1  0
  9 10  1  0
  9 11  1  0
 11 12  2  0
 11 13  1  0
 13 14  1  0
 14 15  1  0
 14 16  1  0
 16 17  2  0
 17 18  1  0
 17 19  1  0
 19 20  1  0
 19 21  2  0
 21 22  1  0
 21 23  1  0
 23 24  1  0
 23 25  2  0
 25 26  1  0
  6 27  1  0
 27 28  1  0
 27 29  2  0
 29 30  1  0
 29  2  1  0
 13  7  1  0
 25 16  1  0
M  END
>  <cnnaffinity>  (1) 
-4.919

>  <filename>  (1) 
O=c1[nH]nc(-c2cccnc2)n1Nc1ccc(Cl)cc1

$$$$
