
     RDKit          3D

 29 31  0  0  0  0  0  0  0  0999 V2000
   12.2260    2.4498   22.9159 H   0  0  0  0  0  0  0  0  0  0  0  0
   12.1041    1.3814   22.7733 C   0  0  0  0  0  0  0  0  0  0  0  0
   13.2121    0.6398   22.7548 N   0  0  0  0  0  0  0  0  0  0  0  0
   13.0229   -0.6776   22.6406 C   0  0  0  0  0  0  0  0  0  0  0  0
   13.9164   -1.2962   22.6635 H   0  0  0  0  0  0  0  0  0  0  0  0
   11.7655   -1.2534   22.5681 C   0  0  0  0  0  0  0  0  0  0  0  0
   11.6042   -2.3194   22.5786 H   0  0  0  0  0  0  0  0  0  0  0  0
   10.6949   -0.3712   22.5143 C   0  0  0  0  0  0  0  0  0  0  0  0
    9.3591   -0.8110   22.2120 C   0  0  0  0  0  0  0  0  0  0  0  0
    8.6208   -0.2235   21.2383 C   0  0  0  0  0  0  0  0  0  0  0  0
    8.9713    0.6451   20.6818 H   0  0  0  0  0  0  0  0  0  0  0  0
    7.3628   -0.6833   20.9073 N   0  0  0  0  0  0  0  0  0  0  0  0
    6.6426   -0.0067   19.8445 C   0  0  0  0  0  0  0  0  0  0  0  0
    7.1667    0.0758   18.5356 C   0  0  0  0  0  0  0  0  0  0  0  0
    8.1146   -0.4069   18.2968 H   0  0  0  0  0  0  0  0  0  0  0  0
    6.5539    0.7091   17.5286 N   0  0  0  0  0  0  0  0  0  0  0  0
    5.3931    1.3275   17.7982 C   0  0  0  0  0  0  0  0  0  0  0  0
    4.9196    1.8427   16.9642 H   0  0  0  0  0  0  0  0  0  0  0  0
    4.8014    1.3176   19.0651 C   0  0  0  0  0  0  0  0  0  0  0  0
    3.8712    1.8477   19.2219 H   0  0  0  0  0  0  0  0  0  0  0  0
    5.4284    0.6302   20.1110 C   0  0  0  0  0  0  0  0  0  0  0  0
    5.0074    0.5980   21.1159 H   0  0  0  0  0  0  0  0  0  0  0  0
    6.7795   -1.7547   21.6345 C   0  0  0  0  0  0  0  0  0  0  0  0
    5.6954   -2.2433   21.4109 O   0  0  0  0  0  0  0  0  0  0  0  0
    7.5604   -2.2576   22.6263 N   0  0  0  0  0  0  0  0  0  0  0  0
    7.1463   -3.0152   23.1315 H   0  0  0  0  0  0  0  0  0  0  0  0
    8.8451   -1.9249   22.9731 C   0  0  0  0  0  0  0  0  0  0  0  0
    9.4012   -2.5611   23.8421 O   0  0  0  0  0  0  0  0  0  0  0  0
   10.8593    0.9517   22.6125 N   0  0  0  0  0  0  0  0  0  0  0  0
  1  2  1  0
  2  3  2  0
  3  4  1  0
  4  5  1  0
  4  6  2  0
  6  7  1  0
  6  8  1  0
  8  9  1  0
  9 10  2  0
 10 11  1  0
 10 12  1  0
 12 13  1  0
 13 14  2  0
 14 15  1  0
 14 16  1  0
 16 17  2  0
 17 18  1  0
 17 19  1  0
 19 20  1  0
 19 21  2  0
 21 22  1  0
 12 23  1  0
 23 24  2  0
 23 25  1  0
 25 26  1  0
 25 27  1  0
 27 28  2  0
  8 29  2  0
 29  2  1  0
 27  9  1  0
 21 13  1  0
M  END
>  <cnnaffinity>  (1) 
-4.96166

>  <filename>  (1) 
O=c1[nH]c(=O)n(-c2cccnc2)cc1-c1ccncn1

$$$$
