
     RDKit          3D

 33 35  0  0  0  0  0  0  0  0999 V2000
    5.0140    1.8013   16.9163 H   0  0  0  0  0  0  0  0  0  0  0  0
    5.4545    1.3107   17.7785 C   0  0  0  0  0  0  0  0  0  0  0  0
    6.6241    0.6862   17.5538 N   0  0  0  0  0  0  0  0  0  0  0  0
    7.1940    0.0629   18.5892 C   0  0  0  0  0  0  0  0  0  0  0  0
    8.1612   -0.4110   18.4290 H   0  0  0  0  0  0  0  0  0  0  0  0
    6.6112   -0.0176   19.8699 C   0  0  0  0  0  0  0  0  0  0  0  0
    7.2958   -0.7583   20.8826 N   0  0  0  0  0  0  0  0  0  0  0  0
    8.6564   -0.7148   20.7942 N   0  0  0  0  0  0  0  0  0  0  0  0
    9.3844   -1.2641   21.7160 C   0  0  0  0  0  0  0  0  0  0  0  0
   10.8670   -0.9373   21.6211 C   0  0  0  0  0  0  0  0  0  0  0  0
   11.0948   -0.6814   20.5796 H   0  0  0  0  0  0  0  0  0  0  0  0
   11.4599   -1.8228   21.8886 H   0  0  0  0  0  0  0  0  0  0  0  0
   11.1900    0.2197   22.5560 C   0  0  0  0  0  0  0  0  0  0  0  0
   11.2580   -0.0434   23.9347 C   0  0  0  0  0  0  0  0  0  0  0  0
   11.0664   -1.0570   24.2713 H   0  0  0  0  0  0  0  0  0  0  0  0
   11.4892    0.9701   24.8576 C   0  0  0  0  0  0  0  0  0  0  0  0
   11.4792    0.7189   25.9112 H   0  0  0  0  0  0  0  0  0  0  0  0
   11.6795    2.2788   24.4081 C   0  0  0  0  0  0  0  0  0  0  0  0
   11.9205    3.0895   25.0658 H   0  0  0  0  0  0  0  0  0  0  0  0
   11.5750    2.5775   23.0612 C   0  0  0  0  0  0  0  0  0  0  0  0
   11.6657    3.5867   22.6790 H   0  0  0  0  0  0  0  0  0  0  0  0
   11.3303    1.5551   22.1508 C   0  0  0  0  0  0  0  0  0  0  0  0
   11.2509    2.0804   20.5098 Cl  0  0  0  0  0  0  0  0  0  0  0  0
    8.8096   -2.0672   22.8505 C   0  0  0  0  0  0  0  0  0  0  0  0
    9.4896   -2.5998   23.7254 O   0  0  0  0  0  0  0  0  0  0  0  0
    7.3597   -2.1513   22.8126 C   0  0  0  0  0  0  0  0  0  0  0  0
    6.8849   -2.7155   23.6033 H   0  0  0  0  0  0  0  0  0  0  0  0
    6.6688   -1.5072   21.8460 C   0  0  0  0  0  0  0  0  0  0  0  0
    5.5874   -1.5406   21.7611 H   0  0  0  0  0  0  0  0  0  0  0  0
    5.4049    0.6583   20.1038 C   0  0  0  0  0  0  0  0  0  0  0  0
    4.9767    0.6855   21.1070 H   0  0  0  0  0  0  0  0  0  0  0  0
    4.8224    1.3374   19.0266 C   0  0  0  0  0  0  0  0  0  0  0  0
    3.8929    1.8847   19.1440 H   0  0  0  0  0  0  0  0  0  0  0  0
  1  2  1  0
  2  3  2  0
  3  4  1  0
  4  5  1  0
  4  6  2  0
  6  7  1  0
  7  8  1  0
  8  9  2  0
  9 10  1  0
 10 11  1  0
 10 12  1  0
 10 13  1  0
 13 14  2  0
 14 15  1  0
 14 16  1  0
 16 17  1  0
 16 18  2  0
 18 19  1  0
 18 20  1  0
 20 21  1  0
 20 22  2  0
 22 23  1  0
  9 24  1  0
 24 25  2  0
 24 26  1  0
 26 27  1  0
 26 28  2  0
 28 29  1  0
  6 30  1  0
 30 31  1  0
 30 32  2  0
 32 33  1  0
 32  2  1  0
 28  7  1  0
 22 13  1  0
M  END
>  <cnnaffinity>  (1) 
-5.49412

>  <filename>  (1) 
O=c1ccn(-c2cccnc2)nc1Cc1ccccc1Cl

$$$$
