
     RDKit          3D

 37 39  0  0  0  0  0  0  0  0999 V2000
    4.9068    1.8274   16.9674 H   0  0  0  0  0  0  0  0  0  0  0  0
    5.3794    1.3116   17.8017 C   0  0  0  0  0  0  0  0  0  0  0  0
    6.5356    0.6883   17.5324 N   0  0  0  0  0  0  0  0  0  0  0  0
    7.1467    0.0688   18.5511 C   0  0  0  0  0  0  0  0  0  0  0  0
    8.1018   -0.4003   18.3228 H   0  0  0  0  0  0  0  0  0  0  0  0
    6.6431   -0.0016   19.8724 C   0  0  0  0  0  0  0  0  0  0  0  0
    7.3534   -0.7201   20.9706 C   0  0  0  0  0  0  0  0  0  0  0  0
    6.7081   -1.6479   21.7633 C   0  0  0  0  0  0  0  0  0  0  0  0
    5.6553   -1.8410   21.5586 H   0  0  0  0  0  0  0  0  0  0  0  0
    7.3585   -2.3815   22.8077 C   0  0  0  0  0  0  0  0  0  0  0  0
    6.6015   -3.3949   23.6705 C   0  0  0  0  0  0  0  0  0  0  0  0
    7.2804   -4.2008   23.9851 H   0  0  0  0  0  0  0  0  0  0  0  0
    5.8465   -3.8909   23.0489 H   0  0  0  0  0  0  0  0  0  0  0  0
    5.9343   -2.7786   24.8989 C   0  0  0  0  0  0  0  0  0  0  0  0
    6.6735   -2.4407   26.0413 C   0  0  0  0  0  0  0  0  0  0  0  0
    7.7174   -2.7506   26.1245 H   0  0  0  0  0  0  0  0  0  0  0  0
    6.0989   -1.6933   27.0702 C   0  0  0  0  0  0  0  0  0  0  0  0
    6.7095   -1.4235   27.9276 H   0  0  0  0  0  0  0  0  0  0  0  0
    4.7657   -1.2598   26.9806 C   0  0  0  0  0  0  0  0  0  0  0  0
    4.1185   -0.4585   28.0897 C   0  0  0  0  0  0  0  0  0  0  0  0
    3.4032   -1.2460   28.9177 F   0  0  0  0  0  0  0  0  0  0  0  0
    5.0210    0.1865   28.8527 F   0  0  0  0  0  0  0  0  0  0  0  0
    3.2602    0.4643   27.6041 F   0  0  0  0  0  0  0  0  0  0  0  0
    4.0040   -1.6202   25.8606 C   0  0  0  0  0  0  0  0  0  0  0  0
    2.9890   -1.2534   25.7352 H   0  0  0  0  0  0  0  0  0  0  0  0
    4.5799   -2.4210   24.8737 C   0  0  0  0  0  0  0  0  0  0  0  0
    3.9709   -2.7377   24.0324 H   0  0  0  0  0  0  0  0  0  0  0  0
    8.6782   -2.1063   23.0523 C   0  0  0  0  0  0  0  0  0  0  0  0
    9.2591   -2.6054   23.8289 H   0  0  0  0  0  0  0  0  0  0  0  0
    9.3218   -1.1691   22.2992 N   0  0  0  0  0  0  0  0  0  0  0  0
   10.2908   -0.8987   22.3988 H   0  0  0  0  0  0  0  0  0  0  0  0
    8.7833   -0.4393   21.2392 C   0  0  0  0  0  0  0  0  0  0  0  0
    9.5439    0.3290   20.6716 O   0  0  0  0  0  0  0  0  0  0  0  0
    5.4182    0.6414   20.1138 C   0  0  0  0  0  0  0  0  0  0  0  0
    4.9916    0.6383   21.1182 H   0  0  0  0  0  0  0  0  0  0  0  0
    4.7866    1.3190   19.0681 C   0  0  0  0  0  0  0  0  0  0  0  0
    3.8577    1.8541   19.2204 H   0  0  0  0  0  0  0  0  0  0  0  0
  1  2  1  0
  2  3  2  0
  3  4  1  0
  4  5  1  0
  4  6  2  0
  6  7  1  0
  7  8  2  0
  8  9  1  0
  8 10  1  0
 10 11  1  0
 11 12  1  0
 11 13  1  0
 11 14  1  0
 14 15  2  0
 15 16  1  0
 15 17  1  0
 17 18  1  0
 17 19  2  0
 19 20  1  0
 20 21  1  0
 20 22  1  0
 20 23  1  0
 19 24  1  0
 24 25  1  0
 24 26  2  0
 26 27  1  0
 10 28  2  0
 28 29  1  0
 28 30  1  0
 30 31  1  0
 30 32  1  0
 32 33  2  0
  6 34  1  0
 34 35  1  0
 34 36  2  0
 36 37  1  0
 36  2  1  0
 32  7  1  0
 26 14  1  0
M  END
>  <cnnaffinity>  (1) 
-5.13609

>  <filename>  (1) 
O=c1[nH]cc(Cc2ccc(C(F)(F)F)cc2)cc1-c1cccnc1

$$$$
