
     RDKit          3D

 33 35  0  0  0  0  0  0  0  0999 V2000
    4.9182    1.8041   16.9806 H   0  0  0  0  0  0  0  0  0  0  0  0
    5.3954    1.3013   17.8194 C   0  0  0  0  0  0  0  0  0  0  0  0
    6.5579    0.6878   17.5528 N   0  0  0  0  0  0  0  0  0  0  0  0
    7.1699    0.0696   18.5725 C   0  0  0  0  0  0  0  0  0  0  0  0
    8.1200   -0.4119   18.3305 H   0  0  0  0  0  0  0  0  0  0  0  0
    6.6704    0.0064   19.8848 C   0  0  0  0  0  0  0  0  0  0  0  0
    7.4173   -0.7207   20.9868 C   0  0  2  0  0  0  0  0  0  0  0  0
    8.3201   -1.1611   20.5335 H   0  0  0  0  0  0  0  0  0  0  0  0
    6.5797   -1.8710   21.6316 C   0  0  0  0  0  0  0  0  0  0  0  0
    7.0563   -2.8546   21.5156 H   0  0  0  0  0  0  0  0  0  0  0  0
    5.5874   -1.9587   21.1642 H   0  0  0  0  0  0  0  0  0  0  0  0
    6.4940   -1.5001   23.0253 N   0  0  0  0  0  0  0  0  0  0  0  0
    5.8440   -1.8506   23.7112 H   0  0  0  0  0  0  0  0  0  0  0  0
    7.0627   -0.3263   23.3747 C   0  0  0  0  0  0  0  0  0  0  0  0
    6.9679    0.1586   24.4852 O   0  0  0  0  0  0  0  0  0  0  0  0
    7.7976    0.2299   22.1604 C   0  0  1  0  0  0  0  0  0  0  0  0
    7.4079    1.2451   21.9953 H   0  0  0  0  0  0  0  0  0  0  0  0
    9.3074    0.3542   22.4454 C   0  0  2  0  0  0  0  0  0  0  0  0
    9.4121    1.0100   23.3193 H   0  0  0  0  0  0  0  0  0  0  0  0
   10.1106    0.9629   21.2737 C   0  0  0  0  0  0  0  0  0  0  0  0
    9.5897    0.8382   20.3074 H   0  0  0  0  0  0  0  0  0  0  0  0
   10.3041    2.0342   21.3926 H   0  0  0  0  0  0  0  0  0  0  0  0
   11.3578    0.3014   21.2699 O   0  0  0  0  0  0  0  0  0  0  0  0
   11.1406   -1.0361   21.6730 C   0  0  0  0  0  0  0  0  0  0  0  0
   12.0935   -1.4243   22.0414 H   0  0  0  0  0  0  0  0  0  0  0  0
   10.8318   -1.6628   20.8234 H   0  0  0  0  0  0  0  0  0  0  0  0
   10.0273   -0.9895   22.7293 C   0  0  0  0  0  0  0  0  0  0  0  0
   10.4340   -1.0024   23.7444 H   0  0  0  0  0  0  0  0  0  0  0  0
    9.3711   -1.8670   22.6462 H   0  0  0  0  0  0  0  0  0  0  0  0
    5.4483    0.6492   20.1351 C   0  0  0  0  0  0  0  0  0  0  0  0
    5.0130    0.6355   21.1364 H   0  0  0  0  0  0  0  0  0  0  0  0
    4.8046    1.3112   19.0881 C   0  0  0  0  0  0  0  0  0  0  0  0
    3.8735    1.8425   19.2432 H   0  0  0  0  0  0  0  0  0  0  0  0
  1  2  1  0
  2  3  2  0
  3  4  1  0
  4  5  1  0
  4  6  2  0
  6  7  1  0
  7  8  1  6
  7  9  1  0
  9 10  1  0
  9 11  1  0
  9 12  1  0
 12 13  1  0
 12 14  1  0
 14 15  2  0
 14 16  1  0
 16 17  1  6
 16 18  1  0
 18 19  1  1
 18 20  1  0
 20 21  1  0
 20 22  1  0
 20 23  1  0
 23 24  1  0
 24 25  1  0
 24 26  1  0
 24 27  1  0
 27 28  1  0
 27 29  1  0
  6 30  1  0
 30 31  1  0
 30 32  2  0
 32 33  1  0
 32  2  1  0
 16  7  1  0
 27 18  1  0
M  END
>  <cnnaffinity>  (1) 
-4.68108

>  <filename>  (1) 
O=C1NC[C@@H](c2cccnc2)[C@@H]1[C@H]1CCOC1

$$$$
