
     RDKit          3D

 29 31  0  0  0  0  0  0  0  0999 V2000
    4.9143    1.7785   16.8705 H   0  0  0  0  0  0  0  0  0  0  0  0
    5.3559    1.3708   17.7756 C   0  0  0  0  0  0  0  0  0  0  0  0
    6.5711    0.8282   17.6208 N   0  0  0  0  0  0  0  0  0  0  0  0
    7.1555    0.3230   18.7109 C   0  0  0  0  0  0  0  0  0  0  0  0
    8.1399   -0.1155   18.5461 H   0  0  0  0  0  0  0  0  0  0  0  0
    6.5850    0.3434   19.9993 C   0  0  0  0  0  0  0  0  0  0  0  0
    7.2771   -0.3843   21.0992 C   0  0  0  0  0  0  0  0  0  0  0  0
    7.6223    0.5011   22.5695 S   0  0  0  0  0  0  0  0  0  0  0  0
    8.2405   -0.7646   23.6245 C   0  0  0  0  0  0  0  0  0  0  0  0
    8.3880   -0.4001   25.0647 C   0  0  0  0  0  0  0  0  0  0  0  0
    9.5603   -0.7755   25.7491 C   0  0  0  0  0  0  0  0  0  0  0  0
   10.3981   -1.2106   25.2144 H   0  0  0  0  0  0  0  0  0  0  0  0
    9.7426   -0.6101   27.0656 N   0  0  0  0  0  0  0  0  0  0  0  0
    8.7539   -0.0438   27.7715 C   0  0  0  0  0  0  0  0  0  0  0  0
    8.8956    0.0814   28.8417 H   0  0  0  0  0  0  0  0  0  0  0  0
    7.5622    0.3817   27.1735 C   0  0  0  0  0  0  0  0  0  0  0  0
    6.6154    0.9657   27.9209 F   0  0  0  0  0  0  0  0  0  0  0  0
    7.3562    0.2035   25.8085 C   0  0  0  0  0  0  0  0  0  0  0  0
    6.4159    0.5005   25.3500 H   0  0  0  0  0  0  0  0  0  0  0  0
    8.5481   -2.0124   23.2164 C   0  0  0  0  0  0  0  0  0  0  0  0
    9.0017   -2.7262   23.8995 H   0  0  0  0  0  0  0  0  0  0  0  0
    8.2294   -2.5679   21.9007 C   0  0  0  0  0  0  0  0  0  0  0  0
    8.4542   -3.7393   21.6334 O   0  0  0  0  0  0  0  0  0  0  0  0
    7.6152   -1.6723   20.9143 C   0  0  0  0  0  0  0  0  0  0  0  0
    7.4238   -2.1421   19.9624 H   0  0  0  0  0  0  0  0  0  0  0  0
    5.3278    0.9491   20.1473 C   0  0  0  0  0  0  0  0  0  0  0  0
    4.8621    1.0162   21.1317 H   0  0  0  0  0  0  0  0  0  0  0  0
    4.6958    1.4527   19.0061 C   0  0  0  0  0  0  0  0  0  0  0  0
    3.7265    1.9295   19.0530 H   0  0  0  0  0  0  0  0  0  0  0  0
  1  2  1  0
  2  3  2  0
  3  4  1  0
  4  5  1  0
  4  6  2  0
  6  7  1  0
  7  8  1  0
  8  9  1  0
  9 10  1  0
 10 11  2  0
 11 12  1  0
 11 13  1  0
 13 14  2  0
 14 15  1  0
 14 16  1  0
 16 17  1  0
 16 18  2  0
 18 19  1  0
  9 20  2  0
 20 21  1  0
 20 22  1  0
 22 23  2  0
 22 24  1  0
 24 25  1  0
  6 26  1  0
 26 27  1  0
 26 28  2  0
 28 29  1  0
 28  2  1  0
 24  7  2  0
 18 10  1  0
M  END
>  <cnnaffinity>  (1) 
-5.26274

>  <filename>  (1) 
O=c1cc(-c2cccnc2)sc(-c2cncc(F)c2)c1

$$$$
