
     RDKit          3D

 33 35  0  0  0  0  0  0  0  0999 V2000
    4.9371    1.8217   16.9678 H   0  0  0  0  0  0  0  0  0  0  0  0
    5.4169    1.3304   17.8120 C   0  0  0  0  0  0  0  0  0  0  0  0
    6.5820    0.7149   17.5505 N   0  0  0  0  0  0  0  0  0  0  0  0
    7.1901    0.0734   18.5573 C   0  0  0  0  0  0  0  0  0  0  0  0
    8.1390   -0.4115   18.3241 H   0  0  0  0  0  0  0  0  0  0  0  0
    6.6593   -0.0084   19.8605 C   0  0  0  0  0  0  0  0  0  0  0  0
    7.3462   -0.7134   20.9180 N   0  0  0  0  0  0  0  0  0  0  0  0
    8.6122   -0.2709   21.2654 C   0  0  0  0  0  0  0  0  0  0  0  0
    9.0008    0.5788   20.7125 H   0  0  0  0  0  0  0  0  0  0  0  0
    9.3609   -0.8586   22.2516 C   0  0  0  0  0  0  0  0  0  0  0  0
   10.6464   -0.4150   22.5782 N   0  0  0  0  0  0  0  0  0  0  0  0
   11.3024   -1.0995   22.9252 H   0  0  0  0  0  0  0  0  0  0  0  0
   11.1076    0.9037   22.5777 C   0  0  0  0  0  0  0  0  0  0  0  0
   12.4863    1.1271   22.4668 C   0  0  0  0  0  0  0  0  0  0  0  0
   13.1300    0.2726   22.2868 H   0  0  0  0  0  0  0  0  0  0  0  0
   13.0063    2.4213   22.4981 C   0  0  0  0  0  0  0  0  0  0  0  0
   14.0789    2.5733   22.4481 H   0  0  0  0  0  0  0  0  0  0  0  0
   12.1311    3.5107   22.5591 C   0  0  0  0  0  0  0  0  0  0  0  0
   12.7384    5.1323   22.3647 Cl  0  0  0  0  0  0  0  0  0  0  0  0
   10.7560    3.3007   22.6912 C   0  0  0  0  0  0  0  0  0  0  0  0
   10.0853    4.1493   22.7446 H   0  0  0  0  0  0  0  0  0  0  0  0
   10.2468    2.0002   22.7268 C   0  0  0  0  0  0  0  0  0  0  0  0
    9.1955    1.8105   22.9194 H   0  0  0  0  0  0  0  0  0  0  0  0
    8.7951   -1.9772   22.9505 C   0  0  0  0  0  0  0  0  0  0  0  0
    9.3879   -2.4552   23.7342 H   0  0  0  0  0  0  0  0  0  0  0  0
    7.5381   -2.4121   22.6535 C   0  0  0  0  0  0  0  0  0  0  0  0
    7.0525   -3.2308   23.1641 H   0  0  0  0  0  0  0  0  0  0  0  0
    6.7138   -1.8168   21.6038 C   0  0  0  0  0  0  0  0  0  0  0  0
    5.6077   -2.2296   21.3045 O   0  0  0  0  0  0  0  0  0  0  0  0
    5.4475    0.6453   20.1192 C   0  0  0  0  0  0  0  0  0  0  0  0
    5.0289    0.6177   21.1246 H   0  0  0  0  0  0  0  0  0  0  0  0
    4.8148    1.3297   19.0752 C   0  0  0  0  0  0  0  0  0  0  0  0
    3.8718    1.8516   19.2194 H   0  0  0  0  0  0  0  0  0  0  0  0
  1  2  1  0
  2  3  2  0
  3  4  1  0
  4  5  1  0
  4  6  2  0
  6  7  1  0
  7  8  1  0
  8  9  1  0
  8 10  2  0
 10 11  1  0
 11 12  1  0
 11 13  1  0
 13 14  2  0
 14 15  1  0
 14 16  1  0
 16 17  1  0
 16 18  2  0
 18 19  1  0
 18 20  1  0
 20 21  1  0
 20 22  2  0
 22 23  1  0
 10 24  1  0
 24 25  1  0
 24 26  2  0
 26 27  1  0
 26 28  1  0
 28 29  2  0
  6 30  1  0
 30 31  1  0
 30 32  2  0
 32 33  1  0
 32  2  1  0
 28  7  1  0
 22 13  1  0
M  END
>  <cnnaffinity>  (1) 
-5.53817

>  <filename>  (1) 
O=c1ccc(Nc2ccc(Cl)cc2)cn1-c1cccnc1

$$$$
