
     RDKit          3D

 32 34  0  0  0  0  0  0  0  0999 V2000
   14.7124   -1.4894   23.2463 H   0  0  0  0  0  0  0  0  0  0  0  0
   14.3269   -1.6028   22.3720 O   0  0  0  0  0  0  0  0  0  0  0  0
   13.2548   -0.7520   22.2686 C   0  0  0  0  0  0  0  0  0  0  0  0
   13.4525    0.6238   22.2836 C   0  0  0  0  0  0  0  0  0  0  0  0
   14.4422    1.0366   22.4230 H   0  0  0  0  0  0  0  0  0  0  0  0
   12.3736    1.4663   22.0088 C   0  0  0  0  0  0  0  0  0  0  0  0
   12.6212    2.7938   21.9087 O   0  0  0  0  0  0  0  0  0  0  0  0
   11.8476    3.2142   21.5111 H   0  0  0  0  0  0  0  0  0  0  0  0
   11.0886    0.9464   21.8363 C   0  0  0  0  0  0  0  0  0  0  0  0
   10.2494    1.6071   21.6381 H   0  0  0  0  0  0  0  0  0  0  0  0
   10.8761   -0.4399   21.9497 C   0  0  0  0  0  0  0  0  0  0  0  0
    9.4657   -0.9598   21.8898 C   0  0  0  0  0  0  0  0  0  0  0  0
    8.7271   -0.4360   20.9427 N   0  0  0  0  0  0  0  0  0  0  0  0
    7.4036   -0.7677   20.8759 N   0  0  0  0  0  0  0  0  0  0  0  0
    6.6980   -0.0420   19.8686 C   0  0  0  0  0  0  0  0  0  0  0  0
    7.2936    0.1103   18.6021 C   0  0  0  0  0  0  0  0  0  0  0  0
    8.2893   -0.3009   18.4478 H   0  0  0  0  0  0  0  0  0  0  0  0
    6.7012    0.7358   17.5828 N   0  0  0  0  0  0  0  0  0  0  0  0
    5.5039    1.3021   17.8262 C   0  0  0  0  0  0  0  0  0  0  0  0
    5.0377    1.8020   16.9819 H   0  0  0  0  0  0  0  0  0  0  0  0
    4.8687    1.2669   19.0738 C   0  0  0  0  0  0  0  0  0  0  0  0
    3.9227    1.7832   19.2089 H   0  0  0  0  0  0  0  0  0  0  0  0
    5.4692    0.5696   20.1282 C   0  0  0  0  0  0  0  0  0  0  0  0
    5.0231    0.5189   21.1226 H   0  0  0  0  0  0  0  0  0  0  0  0
    6.7529   -1.7864   21.6643 C   0  0  0  0  0  0  0  0  0  0  0  0
    5.6295   -2.1927   21.4314 O   0  0  0  0  0  0  0  0  0  0  0  0
    7.6119   -2.2748   22.7380 C   0  0  0  0  0  0  0  0  0  0  0  0
    7.1263   -2.9680   23.4135 H   0  0  0  0  0  0  0  0  0  0  0  0
    8.9181   -1.8926   22.8421 C   0  0  0  0  0  0  0  0  0  0  0  0
    9.5612   -2.2583   23.6383 H   0  0  0  0  0  0  0  0  0  0  0  0
   11.9755   -1.2944   22.1057 C   0  0  0  0  0  0  0  0  0  0  0  0
   11.8693   -2.3735   22.0880 H   0  0  0  0  0  0  0  0  0  0  0  0
  1  2  1  0
  2  3  1  0
  3  4  2  0
  4  5  1  0
  4  6  1  0
  6  7  1  0
  7  8  1  0
  6  9  2  0
  9 10  1  0
  9 11  1  0
 11 12  1  0
 12 13  2  0
 13 14  1  0
 14 15  1  0
 15 16  2  0
 16 17  1  0
 16 18  1  0
 18 19  2  0
 19 20  1  0
 19 21  1  0
 21 22  1  0
 21 23  2  0
 23 24  1  0
 14 25  1  0
 25 26  2  0
 25 27  1  0
 27 28  1  0
 27 29  2  0
 29 30  1  0
 11 31  2  0
 31 32  1  0
 31  3  1  0
 29 12  1  0
 23 15  1  0
M  END
>  <cnnaffinity>  (1) 
-5.87876

>  <filename>  (1) 
O=c1ccc(-c2cc(O)cc(O)c2)nn1-c1cccnc1

$$$$
