
     RDKit          3D

 34 36  0  0  0  0  0  0  0  0999 V2000
   14.0962    0.2839   21.9710 H   0  0  0  0  0  0  0  0  0  0  0  0
   13.5951    1.0807   22.1907 O   0  0  0  0  0  0  0  0  0  0  0  0
   12.2638    0.8238   22.0115 C   0  0  0  0  0  0  0  0  0  0  0  0
   11.4179    1.8877   21.6855 C   0  0  0  0  0  0  0  0  0  0  0  0
   11.8955    2.8401   21.4713 H   0  0  0  0  0  0  0  0  0  0  0  0
   10.0275    1.7085   21.6244 C   0  0  0  0  0  0  0  0  0  0  0  0
    9.3800    2.5322   21.3113 H   0  0  0  0  0  0  0  0  0  0  0  0
    9.4695    0.4566   21.9312 C   0  0  0  0  0  0  0  0  0  0  0  0
    7.9697    0.2656   22.0570 C   0  0  2  0  0  0  0  0  0  0  0  0
    7.5130    1.2553   21.9245 H   0  0  0  0  0  0  0  0  0  0  0  0
    7.5501   -0.2832   23.4512 C   0  0  0  0  0  0  0  0  0  0  0  0
    7.0356    0.4832   24.0476 H   0  0  0  0  0  0  0  0  0  0  0  0
    8.4160   -0.6094   24.0496 H   0  0  0  0  0  0  0  0  0  0  0  0
    6.6943   -1.4026   23.1419 N   0  0  0  0  0  0  0  0  0  0  0  0
    6.0618   -1.8583   23.7775 H   0  0  0  0  0  0  0  0  0  0  0  0
    6.4949   -1.6882   21.8333 C   0  0  0  0  0  0  0  0  0  0  0  0
    5.7845   -2.5965   21.4442 O   0  0  0  0  0  0  0  0  0  0  0  0
    7.3632   -0.7206   21.0056 C   0  0  1  0  0  0  0  0  0  0  0  0
    8.1430   -1.3575   20.5671 H   0  0  0  0  0  0  0  0  0  0  0  0
    6.6364   -0.0193   19.8557 C   0  0  0  0  0  0  0  0  0  0  0  0
    7.1640    0.0648   18.5479 C   0  0  0  0  0  0  0  0  0  0  0  0
    8.1215   -0.3985   18.3058 H   0  0  0  0  0  0  0  0  0  0  0  0
    6.5719    0.7050   17.5307 N   0  0  0  0  0  0  0  0  0  0  0  0
    5.4063    1.3200   17.7846 C   0  0  0  0  0  0  0  0  0  0  0  0
    4.9409    1.8408   16.9485 H   0  0  0  0  0  0  0  0  0  0  0  0
    4.7983    1.3134   19.0419 C   0  0  0  0  0  0  0  0  0  0  0  0
    3.8693    1.8483   19.1905 H   0  0  0  0  0  0  0  0  0  0  0  0
    5.4243    0.6394   20.0931 C   0  0  0  0  0  0  0  0  0  0  0  0
    4.9951    0.6408   21.0966 H   0  0  0  0  0  0  0  0  0  0  0  0
   10.3330   -0.6345   22.1211 C   0  0  0  0  0  0  0  0  0  0  0  0
    9.9292   -1.6364   22.2643 H   0  0  0  0  0  0  0  0  0  0  0  0
   11.7138   -0.4753   22.1288 C   0  0  0  0  0  0  0  0  0  0  0  0
   12.5468   -1.5577   22.2441 O   0  0  0  0  0  0  0  0  0  0  0  0
   11.9784   -2.3396   22.2651 H   0  0  0  0  0  0  0  0  0  0  0  0
  1  2  1  0
  2  3  1  0
  3  4  2  0
  4  5  1  0
  4  6  1  0
  6  7  1  0
  6  8  2  0
  8  9  1  0
  9 10  1  6
  9 11  1  0
 11 12  1  0
 11 13  1  0
 11 14  1  0
 14 15  1  0
 14 16  1  0
 16 17  2  0
 16 18  1  0
 18 19  1  6
 18 20  1  0
 20 21  2  0
 21 22  1  0
 21 23  1  0
 23 24  2  0
 24 25  1  0
 24 26  1  0
 26 27  1  0
 26 28  2  0
 28 29  1  0
  8 30  1  0
 30 31  1  0
 30 32  2  0
 32 33  1  0
 33 34  1  0
 32  3  1  0
 18  9  1  0
 28 20  1  0
M  END
>  <cnnaffinity>  (1) 
-5.51375

>  <filename>  (1) 
O=C1NC[C@@H](c2ccc(O)c(O)c2)[C@@H]1c1cccnc1

$$$$
