
     RDKit          3D

 36 38  0  0  0  0  0  0  0  0999 V2000
    4.9163    1.7969   16.9869 H   0  0  0  0  0  0  0  0  0  0  0  0
    5.3880    1.2994   17.8323 C   0  0  0  0  0  0  0  0  0  0  0  0
    6.5474    0.6727   17.5684 N   0  0  0  0  0  0  0  0  0  0  0  0
    7.1569    0.0490   18.5807 C   0  0  0  0  0  0  0  0  0  0  0  0
    8.1180   -0.4181   18.3685 H   0  0  0  0  0  0  0  0  0  0  0  0
    6.6388   -0.0122   19.8863 C   0  0  0  0  0  0  0  0  0  0  0  0
    7.3451   -0.6925   20.9365 N   0  0  0  0  0  0  0  0  0  0  0  0
    6.7173   -1.7406   21.5863 C   0  0  0  0  0  0  0  0  0  0  0  0
    5.7124   -1.9733   21.2561 H   0  0  0  0  0  0  0  0  0  0  0  0
    7.3062   -2.4542   22.5949 C   0  0  0  0  0  0  0  0  0  0  0  0
    6.6376   -3.5230   23.2412 N   0  0  0  0  0  0  0  0  0  0  0  0
    5.9611   -4.5590   22.4867 C   0  0  0  0  0  0  0  0  0  0  0  0
    6.3120   -5.5587   22.7967 H   0  0  0  0  0  0  0  0  0  0  0  0
    6.2174   -4.4457   21.4272 H   0  0  0  0  0  0  0  0  0  0  0  0
    4.4583   -4.4351   22.6576 C   0  0  0  0  0  0  0  0  0  0  0  0
    4.0720   -3.4924   22.2777 H   0  0  0  0  0  0  0  0  0  0  0  0
    3.9008   -5.2758   22.2457 H   0  0  0  0  0  0  0  0  0  0  0  0
    4.0543   -4.4559   24.3761 S   0  0  0  0  0  0  0  0  0  0  0  0
    4.4016   -5.7909   24.8509 O   0  0  0  0  0  0  0  0  0  0  0  0
    2.7153   -3.8992   24.5062 O   0  0  0  0  0  0  0  0  0  0  0  0
    5.1707   -3.3450   25.1689 C   0  0  0  0  0  0  0  0  0  0  0  0
    4.8253   -2.3436   24.9149 H   0  0  0  0  0  0  0  0  0  0  0  0
    5.0333   -3.5371   26.2322 H   0  0  0  0  0  0  0  0  0  0  0  0
    6.5882   -3.6149   24.6874 C   0  0  0  0  0  0  0  0  0  0  0  0
    6.9468   -4.5991   25.0345 H   0  0  0  0  0  0  0  0  0  0  0  0
    7.2521   -2.8553   25.1140 H   0  0  0  0  0  0  0  0  0  0  0  0
    8.6427   -2.0778   22.9734 C   0  0  0  0  0  0  0  0  0  0  0  0
    9.1249   -2.6641   23.7562 H   0  0  0  0  0  0  0  0  0  0  0  0
    9.2837   -1.0516   22.3504 C   0  0  0  0  0  0  0  0  0  0  0  0
   10.2875   -0.7277   22.5953 H   0  0  0  0  0  0  0  0  0  0  0  0
    8.6740   -0.2700   21.2874 C   0  0  0  0  0  0  0  0  0  0  0  0
    9.2306    0.6558   20.7180 O   0  0  0  0  0  0  0  0  0  0  0  0
    5.4289    0.6350   20.1499 C   0  0  0  0  0  0  0  0  0  0  0  0
    5.0273    0.6226   21.1644 H   0  0  0  0  0  0  0  0  0  0  0  0
    4.8005    1.3145   19.1008 C   0  0  0  0  0  0  0  0  0  0  0  0
    3.8718    1.8494   19.2538 H   0  0  0  0  0  0  0  0  0  0  0  0
  1  2  1  0
  2  3  2  0
  3  4  1  0
  4  5  1  0
  4  6  2  0
  6  7  1  0
  7  8  1  0
  8  9  1  0
  8 10  2  0
 10 11  1  0
 11 12  1  0
 12 13  1  0
 12 14  1  0
 12 15  1  0
 15 16  1  0
 15 17  1  0
 15 18  1  0
 18 19  2  0
 18 20  2  0
 18 21  1  0
 21 22  1  0
 21 23  1  0
 21 24  1  0
 24 25  1  0
 24 26  1  0
 10 27  1  0
 27 28  1  0
 27 29  2  0
 29 30  1  0
 29 31  1  0
 31 32  2  0
  6 33  1  0
 33 34  1  0
 33 35  2  0
 35 36  1  0
 35  2  1  0
 31  7  1  0
 24 11  1  0
M  END
>  <cnnaffinity>  (1) 
-5.18122

>  <filename>  (1) 
O=c1ccc(N2CCS(=O)(=O)CC2)cn1-c1cccnc1

$$$$
