
     RDKit          3D

 32 34  0  0  0  0  0  0  0  0999 V2000
    3.8194   -5.0372   23.0397 H   0  0  0  0  0  0  0  0  0  0  0  0
    4.8029   -4.7941   23.4340 C   0  0  0  0  0  0  0  0  0  0  0  0
    5.4558   -3.8370   22.7887 N   0  0  0  0  0  0  0  0  0  0  0  0
    6.6579   -3.4861   23.2743 C   0  0  0  0  0  0  0  0  0  0  0  0
    7.3168   -2.4279   22.5619 C   0  0  0  0  0  0  0  0  0  0  0  0
    6.7171   -1.7356   21.5573 C   0  0  0  0  0  0  0  0  0  0  0  0
    5.6971   -1.9210   21.2267 H   0  0  0  0  0  0  0  0  0  0  0  0
    7.3775   -0.7407   20.8690 N   0  0  0  0  0  0  0  0  0  0  0  0
    6.6786   -0.0532   19.8082 C   0  0  0  0  0  0  0  0  0  0  0  0
    7.1748   -0.0281   18.4931 C   0  0  0  0  0  0  0  0  0  0  0  0
    8.1025   -0.5491   18.2712 H   0  0  0  0  0  0  0  0  0  0  0  0
    6.5700    0.6169   17.4891 N   0  0  0  0  0  0  0  0  0  0  0  0
    5.4435    1.2903   17.7735 C   0  0  0  0  0  0  0  0  0  0  0  0
    4.9898    1.8256   16.9436 H   0  0  0  0  0  0  0  0  0  0  0  0
    4.8602    1.3145   19.0462 C   0  0  0  0  0  0  0  0  0  0  0  0
    3.9503    1.8796   19.2138 H   0  0  0  0  0  0  0  0  0  0  0  0
    5.4799    0.6102   20.0829 C   0  0  0  0  0  0  0  0  0  0  0  0
    5.0710    0.5757   21.0952 H   0  0  0  0  0  0  0  0  0  0  0  0
    8.6909   -0.3589   21.2333 C   0  0  0  0  0  0  0  0  0  0  0  0
    9.3638    0.4477   20.6352 O   0  0  0  0  0  0  0  0  0  0  0  0
    9.1603   -0.9772   22.3421 N   0  0  0  0  0  0  0  0  0  0  0  0
   10.1286   -0.8123   22.5214 H   0  0  0  0  0  0  0  0  0  0  0  0
    8.6734   -2.1182   22.9510 C   0  0  0  0  0  0  0  0  0  0  0  0
    9.4284   -2.6949   23.6910 O   0  0  0  0  0  0  0  0  0  0  0  0
    7.2356   -4.0507   24.3416 N   0  0  0  0  0  0  0  0  0  0  0  0
    6.5852   -5.0211   24.9758 C   0  0  0  0  0  0  0  0  0  0  0  0
    7.2918   -5.6586   26.2165 C   0  0  0  0  0  0  0  0  0  0  0  0
    6.6352   -6.7655   26.6124 F   0  0  0  0  0  0  0  0  0  0  0  0
    8.5552   -6.0178   25.9518 F   0  0  0  0  0  0  0  0  0  0  0  0
    7.3262   -4.8301   27.2740 F   0  0  0  0  0  0  0  0  0  0  0  0
    5.3206   -5.4432   24.5538 C   0  0  0  0  0  0  0  0  0  0  0  0
    4.7637   -6.2178   25.0623 H   0  0  0  0  0  0  0  0  0  0  0  0
  1  2  1  0
  2  3  2  0
  3  4  1  0
  4  5  1  0
  5  6  2  0
  6  7  1  0
  6  8  1  0
  8  9  1  0
  9 10  2  0
 10 11  1  0
 10 12  1  0
 12 13  2  0
 13 14  1  0
 13 15  1  0
 15 16  1  0
 15 17  2  0
 17 18  1  0
  8 19  1  0
 19 20  2  0
 19 21  1  0
 21 22  1  0
 21 23  1  0
 23 24  2  0
  4 25  2  0
 25 26  1  0
 26 27  1  0
 27 28  1  0
 27 29  1  0
 27 30  1  0
 26 31  2  0
 31 32  1  0
 31  2  1  0
 23  5  1  0
 17  9  1  0
M  END
>  <cnnaffinity>  (1) 
-5.54576

>  <filename>  (1) 
O=c1[nH]c(=O)n(-c2cccnc2)cc1-c1nccc(C(F)(F)F)n1

$$$$
