
     RDKit          3D

 33 35  0  0  0  0  0  0  0  0999 V2000
    4.9771    1.8353   17.0497 H   0  0  0  0  0  0  0  0  0  0  0  0
    5.4770    1.2998   17.8520 C   0  0  0  0  0  0  0  0  0  0  0  0
    6.6424    0.7150   17.5332 N   0  0  0  0  0  0  0  0  0  0  0  0
    7.2732    0.0422   18.5046 C   0  0  0  0  0  0  0  0  0  0  0  0
    8.2149   -0.4277   18.2307 H   0  0  0  0  0  0  0  0  0  0  0  0
    6.7757   -0.1113   19.8219 C   0  0  0  0  0  0  0  0  0  0  0  0
    7.4806   -0.8336   20.8191 N   0  0  0  0  0  0  0  0  0  0  0  0
    6.8580   -1.6502   21.7474 C   0  0  0  0  0  0  0  0  0  0  0  0
    5.7761   -2.1901   21.6555 O   0  0  0  0  0  0  0  0  0  0  0  0
    7.7234   -1.8347   22.8046 N   0  0  0  0  0  0  0  0  0  0  0  0
    7.5039   -2.7042   23.2643 H   0  0  0  0  0  0  0  0  0  0  0  0
    9.0821   -1.5898   22.3572 C   0  0  0  0  0  0  0  0  0  0  0  0
    9.6768   -1.0677   23.1118 H   0  0  0  0  0  0  0  0  0  0  0  0
    9.5949   -2.5212   22.1058 H   0  0  0  0  0  0  0  0  0  0  0  0
    8.8970   -0.6977   21.1093 C   0  0  2  0  0  0  0  0  0  0  0  0
    9.4987   -1.0867   20.2751 H   0  0  0  0  0  0  0  0  0  0  0  0
    9.3176    0.6558   21.3664 N   0  0  0  0  0  0  0  0  0  0  0  0
    9.3453    1.1677   20.4954 H   0  0  0  0  0  0  0  0  0  0  0  0
    8.5682    1.4036   22.3790 C   0  0  0  0  0  0  0  0  0  0  0  0
    8.3751    0.7511   23.2420 H   0  0  0  0  0  0  0  0  0  0  0  0
    7.5755    1.7190   22.0097 H   0  0  0  0  0  0  0  0  0  0  0  0
    9.3556    2.6073   22.8342 C   0  0  0  0  0  0  0  0  0  0  0  0
   10.7689    2.4281   23.8211 S   0  0  0  0  0  0  0  0  0  0  0  0
   11.1510    4.1041   23.6894 C   0  0  0  0  0  0  0  0  0  0  0  0
   12.0473    4.4820   24.1683 H   0  0  0  0  0  0  0  0  0  0  0  0
   10.2363    4.7724   22.9374 C   0  0  0  0  0  0  0  0  0  0  0  0
   10.2777    5.8343   22.7154 H   0  0  0  0  0  0  0  0  0  0  0  0
    9.1943    3.9110   22.4682 C   0  0  0  0  0  0  0  0  0  0  0  0
    8.3761    4.2332   21.8297 H   0  0  0  0  0  0  0  0  0  0  0  0
    5.5546    0.5076   20.1352 C   0  0  0  0  0  0  0  0  0  0  0  0
    5.1405    0.4237   21.1446 H   0  0  0  0  0  0  0  0  0  0  0  0
    4.9035    1.2305   19.1291 C   0  0  0  0  0  0  0  0  0  0  0  0
    3.9695    1.7482   19.3246 H   0  0  0  0  0  0  0  0  0  0  0  0
  1  2  1  0
  2  3  2  0
  3  4  1  0
  4  5  1  0
  4  6  2  0
  6  7  1  0
  7  8  1  0
  8  9  2  0
  8 10  1  0
 10 11  1  0
 10 12  1  0
 12 13  1  0
 12 14  1  0
 12 15  1  0
 15 16  1  6
 15 17  1  0
 17 18  1  0
 17 19  1  0
 19 20  1  0
 19 21  1  0
 19 22  1  0
 22 23  1  0
 23 24  1  0
 24 25  1  0
 24 26  2  0
 26 27  1  0
 26 28  1  0
 28 29  1  0
  6 30  1  0
 30 31  1  0
 30 32  2  0
 32 33  1  0
 32  2  1  0
 15  7  1  0
 28 22  2  0
M  END
>  <cnnaffinity>  (1) 
-4.8083

>  <filename>  (1) 
O=C1NC[C@H](NCc2cccs2)N1c1cccnc1

$$$$
