
     RDKit          3D

 32 34  0  0  0  0  0  0  0  0999 V2000
    4.9761    1.8285   16.9079 H   0  0  0  0  0  0  0  0  0  0  0  0
    5.4254    1.3175   17.7551 C   0  0  0  0  0  0  0  0  0  0  0  0
    6.5984    0.7052   17.5204 N   0  0  0  0  0  0  0  0  0  0  0  0
    7.1755    0.0865   18.5563 C   0  0  0  0  0  0  0  0  0  0  0  0
    8.1273   -0.4049   18.3458 H   0  0  0  0  0  0  0  0  0  0  0  0
    6.6292    0.0357   19.8569 C   0  0  0  0  0  0  0  0  0  0  0  0
    7.3437   -0.6374   21.0138 C   0  0  2  0  0  0  0  0  0  0  0  0
    8.1909   -1.1861   20.5803 H   0  0  0  0  0  0  0  0  0  0  0  0
    6.5154   -1.7104   21.7384 C   0  0  0  0  0  0  0  0  0  0  0  0
    5.9174   -2.6479   21.2568 O   0  0  0  0  0  0  0  0  0  0  0  0
    6.5869   -1.4591   23.0772 N   0  0  0  0  0  0  0  0  0  0  0  0
    5.8783   -1.9421   23.6095 H   0  0  0  0  0  0  0  0  0  0  0  0
    7.0502   -0.1232   23.4116 C   0  0  0  0  0  0  0  0  0  0  0  0
    6.2209    0.5655   23.6458 H   0  0  0  0  0  0  0  0  0  0  0  0
    7.6940   -0.1528   24.3011 H   0  0  0  0  0  0  0  0  0  0  0  0
    7.8154    0.3364   22.1444 C   0  0  1  0  0  0  0  0  0  0  0  0
    7.5545    1.3753   21.9130 H   0  0  0  0  0  0  0  0  0  0  0  0
    9.3229    0.2740   22.3062 C   0  0  0  0  0  0  0  0  0  0  0  0
   10.1429    1.4033   22.1809 C   0  0  0  0  0  0  0  0  0  0  0  0
    9.6999    2.3910   22.0543 H   0  0  0  0  0  0  0  0  0  0  0  0
   11.5385    1.2754   22.2014 C   0  0  0  0  0  0  0  0  0  0  0  0
   12.2010    2.1363   22.1361 H   0  0  0  0  0  0  0  0  0  0  0  0
   12.1090    0.0095   22.3099 C   0  0  0  0  0  0  0  0  0  0  0  0
   13.4398   -0.1376   22.2728 F   0  0  0  0  0  0  0  0  0  0  0  0
   11.2989   -1.1166   22.4938 C   0  0  0  0  0  0  0  0  0  0  0  0
   11.8488   -2.3382   22.5791 F   0  0  0  0  0  0  0  0  0  0  0  0
    9.9182   -0.9810   22.5323 C   0  0  0  0  0  0  0  0  0  0  0  0
    9.3297   -1.8793   22.6894 H   0  0  0  0  0  0  0  0  0  0  0  0
    5.3997    0.6646   20.0705 C   0  0  0  0  0  0  0  0  0  0  0  0
    4.9380    0.6392   21.0623 H   0  0  0  0  0  0  0  0  0  0  0  0
    4.7908    1.3231   19.0029 C   0  0  0  0  0  0  0  0  0  0  0  0
    3.8541    1.8515   19.1304 H   0  0  0  0  0  0  0  0  0  0  0  0
  1  2  1  0
  2  3  2  0
  3  4  1  0
  4  5  1  0
  4  6  2  0
  6  7  1  0
  7  8  1  6
  7  9  1  0
  9 10  2  0
  9 11  1  0
 11 12  1  0
 11 13  1  0
 13 14  1  0
 13 15  1  0
 13 16  1  0
 16 17  1  6
 16 18  1  0
 18 19  2  0
 19 20  1  0
 19 21  1  0
 21 22  1  0
 21 23  2  0
 23 24  1  0
 23 25  1  0
 25 26  1  0
 25 27  2  0
 27 28  1  0
  6 29  1  0
 29 30  1  0
 29 31  2  0
 31 32  1  0
 31  2  1  0
 16  7  1  0
 27 18  1  0
M  END
>  <cnnaffinity>  (1) 
-5.4909

>  <filename>  (1) 
O=C1NC[C@@H](c2ccc(F)c(F)c2)[C@@H]1c1cccnc1

$$$$
