
     RDKit          3D

 34 36  0  0  0  0  0  0  0  0999 V2000
    4.9188    1.8123   16.9577 H   0  0  0  0  0  0  0  0  0  0  0  0
    5.3770    1.3032   17.8006 C   0  0  0  0  0  0  0  0  0  0  0  0
    6.5365    0.6750   17.5406 N   0  0  0  0  0  0  0  0  0  0  0  0
    7.1467    0.0821   18.5722 C   0  0  0  0  0  0  0  0  0  0  0  0
    8.0858   -0.4228   18.3410 H   0  0  0  0  0  0  0  0  0  0  0  0
    6.6580    0.0844   19.9060 C   0  0  0  0  0  0  0  0  0  0  0  0
    7.3404   -0.6404   21.0088 C   0  0  0  0  0  0  0  0  0  0  0  0
    7.6461   -1.9754   20.8466 C   0  0  0  0  0  0  0  0  0  0  0  0
    7.2220   -2.4816   19.9834 H   0  0  0  0  0  0  0  0  0  0  0  0
    8.3900   -2.7066   21.7849 C   0  0  0  0  0  0  0  0  0  0  0  0
    8.6806   -3.7190   21.5617 H   0  0  0  0  0  0  0  0  0  0  0  0
    8.7684   -2.1222   22.9675 C   0  0  0  0  0  0  0  0  0  0  0  0
    9.4467   -2.8390   24.0950 C   0  0  0  0  0  0  0  0  0  0  0  0
   10.2344   -2.1986   24.5011 H   0  0  0  0  0  0  0  0  0  0  0  0
    9.9441   -3.7319   23.7085 H   0  0  0  0  0  0  0  0  0  0  0  0
    8.4589   -3.1867   25.1983 C   0  0  0  0  0  0  0  0  0  0  0  0
    8.2835   -2.2938   26.2665 C   0  0  0  0  0  0  0  0  0  0  0  0
    8.9307   -1.4234   26.3373 H   0  0  0  0  0  0  0  0  0  0  0  0
    7.3160   -2.5066   27.2460 C   0  0  0  0  0  0  0  0  0  0  0  0
    7.1481   -1.7543   28.0103 H   0  0  0  0  0  0  0  0  0  0  0  0
    6.5476   -3.6726   27.2190 C   0  0  0  0  0  0  0  0  0  0  0  0
    5.8377   -3.8791   28.0156 H   0  0  0  0  0  0  0  0  0  0  0  0
    6.6977   -4.5791   26.1680 C   0  0  0  0  0  0  0  0  0  0  0  0
    6.0858   -5.4725   26.1115 H   0  0  0  0  0  0  0  0  0  0  0  0
    7.6297   -4.3207   25.1577 C   0  0  0  0  0  0  0  0  0  0  0  0
    7.7097   -5.4427   23.8230 Cl  0  0  0  0  0  0  0  0  0  0  0  0
    8.4063   -0.8225   23.1692 N   0  0  0  0  0  0  0  0  0  0  0  0
    8.4819   -0.3426   24.0523 H   0  0  0  0  0  0  0  0  0  0  0  0
    7.6638   -0.0148   22.3067 C   0  0  0  0  0  0  0  0  0  0  0  0
    7.3869    1.1008   22.7198 O   0  0  0  0  0  0  0  0  0  0  0  0
    5.4348    0.7313   20.1359 C   0  0  0  0  0  0  0  0  0  0  0  0
    5.0147    0.7210   21.1407 H   0  0  0  0  0  0  0  0  0  0  0  0
    4.7788    1.3416   19.0641 C   0  0  0  0  0  0  0  0  0  0  0  0
    3.8330    1.8621   19.1984 H   0  0  0  0  0  0  0  0  0  0  0  0
  1  2  1  0
  2  3  2  0
  3  4  1  0
  4  5  1  0
  4  6  2  0
  6  7  1  0
  7  8  2  0
  8  9  1  0
  8 10  1  0
 10 11  1  0
 10 12  2  0
 12 13  1  0
 13 14  1  0
 13 15  1  0
 13 16  1  0
 16 17  2  0
 17 18  1  0
 17 19  1  0
 19 20  1  0
 19 21  2  0
 21 22  1  0
 21 23  1  0
 23 24  1  0
 23 25  2  0
 25 26  1  0
 12 27  1  0
 27 28  1  0
 27 29  1  0
 29 30  2  0
  6 31  1  0
 31 32  1  0
 31 33  2  0
 33 34  1  0
 33  2  1  0
 29  7  1  0
 25 16  1  0
M  END
>  <cnnaffinity>  (1) 
-5.27442

>  <filename>  (1) 
O=c1[nH]c(Cc2ccccc2Cl)ccc1-c1cccnc1

$$$$
