
     RDKit          3D

 37 39  0  0  0  0  0  0  0  0999 V2000
    5.1509    1.8096   16.8110 H   0  0  0  0  0  0  0  0  0  0  0  0
    5.4679    1.2601   17.6957 C   0  0  0  0  0  0  0  0  0  0  0  0
    6.6589    0.6464   17.6096 N   0  0  0  0  0  0  0  0  0  0  0  0
    7.1006   -0.0100   18.6902 C   0  0  0  0  0  0  0  0  0  0  0  0
    8.0396   -0.5511   18.6019 H   0  0  0  0  0  0  0  0  0  0  0  0
    6.4019   -0.0571   19.9133 C   0  0  0  0  0  0  0  0  0  0  0  0
    6.9773   -0.6495   21.0876 N   0  0  0  0  0  0  0  0  0  0  0  0
    7.8279   -0.0196   22.0288 C   0  0  0  0  0  0  0  0  0  0  0  0
    7.8428    1.4705   22.1705 C   0  0  0  0  0  0  0  0  0  0  0  0
    6.8516    1.7556   22.5560 H   0  0  0  0  0  0  0  0  0  0  0  0
    7.9063    1.9198   21.1709 H   0  0  0  0  0  0  0  0  0  0  0  0
    8.9342    2.0844   23.0760 C   0  0  0  0  0  0  0  0  0  0  0  0
    9.0023    1.4868   24.0014 H   0  0  0  0  0  0  0  0  0  0  0  0
    8.5019    3.5105   23.5038 C   0  0  0  0  0  0  0  0  0  0  0  0
    8.3175    4.1115   22.5966 H   0  0  0  0  0  0  0  0  0  0  0  0
    7.5497    3.4607   24.0498 H   0  0  0  0  0  0  0  0  0  0  0  0
    9.5569    4.2079   24.3741 C   0  0  0  0  0  0  0  0  0  0  0  0
    9.7031    3.6061   25.2844 H   0  0  0  0  0  0  0  0  0  0  0  0
    9.2204    5.1977   24.7069 H   0  0  0  0  0  0  0  0  0  0  0  0
   10.8821    4.3057   23.6114 C   0  0  0  0  0  0  0  0  0  0  0  0
   11.6391    4.8328   24.2023 H   0  0  0  0  0  0  0  0  0  0  0  0
   10.7362    4.9141   22.7045 H   0  0  0  0  0  0  0  0  0  0  0  0
   11.3760    2.9007   23.2204 C   0  0  0  0  0  0  0  0  0  0  0  0
   12.2964    2.9841   22.6327 H   0  0  0  0  0  0  0  0  0  0  0  0
   11.6257    2.3438   24.1400 H   0  0  0  0  0  0  0  0  0  0  0  0
   10.3266    2.1144   22.4046 C   0  0  0  0  0  0  0  0  0  0  0  0
   10.2224    2.5802   21.4099 H   0  0  0  0  0  0  0  0  0  0  0  0
   10.6792    1.0929   22.2102 H   0  0  0  0  0  0  0  0  0  0  0  0
    8.3426   -1.0159   22.7673 C   0  0  0  0  0  0  0  0  0  0  0  0
    9.0381   -1.0293   23.5935 H   0  0  0  0  0  0  0  0  0  0  0  0
    7.8339   -2.2277   22.3540 O   0  0  0  0  0  0  0  0  0  0  0  0
    6.9461   -2.0195   21.3313 C   0  0  0  0  0  0  0  0  0  0  0  0
    6.2951   -2.8770   20.7971 O   0  0  0  0  0  0  0  0  0  0  0  0
    5.1319    0.5228   19.9664 C   0  0  0  0  0  0  0  0  0  0  0  0
    4.5496    0.4283   20.8811 H   0  0  0  0  0  0  0  0  0  0  0  0
    4.6614    1.2054   18.8375 C   0  0  0  0  0  0  0  0  0  0  0  0
    3.7013    1.7087   18.8340 H   0  0  0  0  0  0  0  0  0  0  0  0
  1  2  1  0
  2  3  2  0
  3  4  1  0
  4  5  1  0
  4  6  2  0
  6  7  1  0
  7  8  1  0
  8  9  1  0
  9 10  1  0
  9 11  1  0
  9 12  1  0
 12 13  1  0
 12 14  1  0
 14 15  1  0
 14 16  1  0
 14 17  1  0
 17 18  1  0
 17 19  1  0
 17 20  1  0
 20 21  1  0
 20 22  1  0
 20 23  1  0
 23 24  1  0
 23 25  1  0
 23 26  1  0
 26 27  1  0
 26 28  1  0
  8 29  2  0
 29 30  1  0
 29 31  1  0
 31 32  1  0
 32 33  2  0
  6 34  1  0
 34 35  1  0
 34 36  2  0
 36 37  1  0
 36  2  1  0
 32  7  1  0
 26 12  1  0
M  END
>  <cnnaffinity>  (1) 
-5.50241

>  <filename>  (1) 
O=c1occ(CC2CCCCC2)n1-c1cccnc1

$$$$
