
     RDKit          3D

 31 33  0  0  0  0  0  0  0  0999 V2000
    4.9209    1.7911   16.9946 H   0  0  0  0  0  0  0  0  0  0  0  0
    5.3941    1.2919   17.8365 C   0  0  0  0  0  0  0  0  0  0  0  0
    6.5515    0.6675   17.5699 N   0  0  0  0  0  0  0  0  0  0  0  0
    7.1724    0.0539   18.5815 C   0  0  0  0  0  0  0  0  0  0  0  0
    8.1275   -0.4191   18.3647 H   0  0  0  0  0  0  0  0  0  0  0  0
    6.6655    0.0072   19.8980 C   0  0  0  0  0  0  0  0  0  0  0  0
    7.3615   -0.6686   20.9370 N   0  0  0  0  0  0  0  0  0  0  0  0
    6.7663   -1.4396   21.9283 C   0  0  0  0  0  0  0  0  0  0  0  0
    5.7020   -1.6021   21.9499 H   0  0  0  0  0  0  0  0  0  0  0  0
    7.7299   -1.9341   22.7374 C   0  0  0  0  0  0  0  0  0  0  0  0
    7.6159   -2.7822   23.9247 C   0  0  0  0  0  0  0  0  0  0  0  0
    6.3823   -2.8493   24.5990 C   0  0  0  0  0  0  0  0  0  0  0  0
    5.5526   -2.2497   24.2421 H   0  0  0  0  0  0  0  0  0  0  0  0
    6.2188   -3.6630   25.7225 C   0  0  0  0  0  0  0  0  0  0  0  0
    5.2589   -3.7051   26.2300 H   0  0  0  0  0  0  0  0  0  0  0  0
    7.2866   -4.4247   26.1968 C   0  0  0  0  0  0  0  0  0  0  0  0
    7.1871   -5.0641   27.0695 H   0  0  0  0  0  0  0  0  0  0  0  0
    8.5141   -4.3530   25.5214 C   0  0  0  0  0  0  0  0  0  0  0  0
    9.6609   -5.1471   26.0161 N   0  0  0  0  0  4  0  0  0  0  0  0
    9.4817   -5.8300   27.0073 O   0  0  0  0  0  0  0  0  0  0  0  0
   10.7195   -5.0746   25.4120 O   0  0  0  0  0  1  0  0  0  0  0  0
    8.6912   -3.5497   24.3970 C   0  0  0  0  0  0  0  0  0  0  0  0
    9.6560   -3.5473   23.8999 H   0  0  0  0  0  0  0  0  0  0  0  0
    8.9356   -1.4765   22.2205 N   0  0  0  0  0  0  0  0  0  0  0  0
    9.8700   -1.5677   22.5693 H   0  0  0  0  0  0  0  0  0  0  0  0
    8.7548   -0.6744   21.1293 C   0  0  0  0  0  0  0  0  0  0  0  0
    9.6342   -0.1204   20.5038 O   0  0  0  0  0  0  0  0  0  0  0  0
    5.4470    0.6446   20.1603 C   0  0  0  0  0  0  0  0  0  0  0  0
    5.0302    0.6363   21.1687 H   0  0  0  0  0  0  0  0  0  0  0  0
    4.8109    1.3071   19.1076 C   0  0  0  0  0  0  0  0  0  0  0  0
    3.8809    1.8382   19.2606 H   0  0  0  0  0  0  0  0  0  0  0  0
  1  2  1  0
  2  3  2  0
  3  4  1  0
  4  5  1  0
  4  6  2  0
  6  7  1  0
  7  8  1  0
  8  9  1  0
  8 10  2  0
 10 11  1  0
 11 12  2  0
 12 13  1  0
 12 14  1  0
 14 15  1  0
 14 16  2  0
 16 17  1  0
 16 18  1  0
 18 19  1  0
 19 20  2  0
 19 21  1  0
 18 22  2  0
 22 23  1  0
 10 24  1  0
 24 25  1  0
 24 26  1  0
 26 27  2  0
  6 28  1  0
 28 29  1  0
 28 30  2  0
 30 31  1  0
 30  2  1  0
 26  7  1  0
 22 11  1  0
M  CHG  2  19   1  21  -1
M  END
>  <cnnaffinity>  (1) 
-5.09117

>  <filename>  (1) 
O=c1[nH]c(-c2cccc([N+](=O)[O-])c2)cn1-c1cccnc1

$$$$
