
     RDKit          3D

 33 36  0  0  0  0  0  0  0  0999 V2000
    4.9205    1.7922   16.9947 H   0  0  0  0  0  0  0  0  0  0  0  0
    5.3933    1.2920   17.8349 C   0  0  0  0  0  0  0  0  0  0  0  0
    6.5509    0.6681   17.5659 N   0  0  0  0  0  0  0  0  0  0  0  0
    7.1714    0.0553   18.5782 C   0  0  0  0  0  0  0  0  0  0  0  0
    8.1282   -0.4193   18.3685 H   0  0  0  0  0  0  0  0  0  0  0  0
    6.6639    0.0109   19.8932 C   0  0  0  0  0  0  0  0  0  0  0  0
    7.3597   -0.6662   20.9303 N   0  0  0  0  0  0  0  0  0  0  0  0
    6.7631   -1.4351   21.9201 C   0  0  0  0  0  0  0  0  0  0  0  0
    5.7001   -1.5993   21.9424 H   0  0  0  0  0  0  0  0  0  0  0  0
    7.7234   -1.9291   22.7356 C   0  0  0  0  0  0  0  0  0  0  0  0
    7.6042   -2.7778   23.9216 C   0  0  0  0  0  0  0  0  0  0  0  0
    6.3379   -2.8642   24.5765 C   0  0  0  0  0  0  0  0  0  0  0  0
    5.5122   -2.2744   24.1898 H   0  0  0  0  0  0  0  0  0  0  0  0
    6.1355   -3.6634   25.6917 C   0  0  0  0  0  0  0  0  0  0  0  0
    5.1617   -3.7190   26.1780 H   0  0  0  0  0  0  0  0  0  0  0  0
    7.2449   -4.3933   26.1593 C   0  0  0  0  0  0  0  0  0  0  0  0
    8.5197   -4.3347   25.5371 C   0  0  0  0  0  0  0  0  0  0  0  0
    8.6863   -3.5188   24.4092 C   0  0  0  0  0  0  0  0  0  0  0  0
    9.6568   -3.4882   23.9204 H   0  0  0  0  0  0  0  0  0  0  0  0
    9.3952   -5.1982   26.2856 C   0  0  0  0  0  0  0  0  0  0  0  0
   10.4411   -5.3783   26.0674 H   0  0  0  0  0  0  0  0  0  0  0  0
    8.6473   -5.7257   27.2973 C   0  0  0  0  0  0  0  0  0  0  0  0
    8.8917   -6.4016   28.1022 H   0  0  0  0  0  0  0  0  0  0  0  0
    7.3588   -5.2461   27.2209 N   0  0  0  0  0  0  0  0  0  0  0  0
    6.6018   -5.4859   27.8352 H   0  0  0  0  0  0  0  0  0  0  0  0
    8.9304   -1.4703   22.2201 N   0  0  0  0  0  0  0  0  0  0  0  0
    9.8665   -1.5621   22.5659 H   0  0  0  0  0  0  0  0  0  0  0  0
    8.7511   -0.6723   21.1269 C   0  0  0  0  0  0  0  0  0  0  0  0
    9.6326   -0.1205   20.5006 O   0  0  0  0  0  0  0  0  0  0  0  0
    5.4459    0.6461   20.1581 C   0  0  0  0  0  0  0  0  0  0  0  0
    5.0273    0.6373   21.1655 H   0  0  0  0  0  0  0  0  0  0  0  0
    4.8104    1.3074   19.1057 C   0  0  0  0  0  0  0  0  0  0  0  0
    3.8806    1.8368   19.2623 H   0  0  0  0  0  0  0  0  0  0  0  0
  1  2  1  0
  2  3  2  0
  3  4  1  0
  4  5  1  0
  4  6  2  0
  6  7  1  0
  7  8  1  0
  8  9  1  0
  8 10  2  0
 10 11  1  0
 11 12  2  0
 12 13  1  0
 12 14  1  0
 14 15  1  0
 14 16  2  0
 16 17  1  0
 17 18  2  0
 18 19  1  0
 17 20  1  0
 20 21  1  0
 20 22  2  0
 22 23  1  0
 22 24  1  0
 24 25  1  0
 10 26  1  0
 26 27  1  0
 26 28  1  0
 28 29  2  0
  6 30  1  0
 30 31  1  0
 30 32  2  0
 32 33  1  0
 32  2  1  0
 28  7  1  0
 18 11  1  0
 24 16  1  0
M  END
>  <cnnaffinity>  (1) 
-5.46155

>  <filename>  (1) 
O=c1[nH]c(-c2ccc3[nH]ccc3c2)cn1-c1cccnc1

$$$$
