
     RDKit          3D

 32 34  0  0  0  0  0  0  0  0999 V2000
   12.2920   -3.4377   22.0688 H   0  0  0  0  0  0  0  0  0  0  0  0
   11.5583   -2.9171   22.4252 O   0  0  0  0  0  0  0  0  0  0  0  0
   11.8967   -1.6037   22.4036 C   0  0  0  0  0  0  0  0  0  0  0  0
   13.2444   -1.2180   22.3583 C   0  0  0  0  0  0  0  0  0  0  0  0
   14.0069   -1.9875   22.2541 H   0  0  0  0  0  0  0  0  0  0  0  0
   13.5943    0.1200   22.5421 C   0  0  0  0  0  0  0  0  0  0  0  0
   14.6417    0.4133   22.5340 H   0  0  0  0  0  0  0  0  0  0  0  0
   12.5903    1.0712   22.7336 C   0  0  0  0  0  0  0  0  0  0  0  0
   12.8485    2.1091   22.9192 H   0  0  0  0  0  0  0  0  0  0  0  0
   11.2463    0.6901   22.6574 C   0  0  0  0  0  0  0  0  0  0  0  0
   10.4602    1.4342   22.7359 H   0  0  0  0  0  0  0  0  0  0  0  0
   10.8592   -0.6488   22.4678 C   0  0  0  0  0  0  0  0  0  0  0  0
    9.4161   -1.0065   22.2202 C   0  0  0  0  0  0  0  0  0  0  0  0
    8.6633   -0.4017   21.1656 C   0  0  0  0  0  0  0  0  0  0  0  0
    9.1346    0.3704   20.5566 H   0  0  0  0  0  0  0  0  0  0  0  0
    7.3486   -0.7276   20.8858 C   0  0  0  0  0  0  0  0  0  0  0  0
    6.6135   -0.0161   19.8037 C   0  0  0  0  0  0  0  0  0  0  0  0
    7.1628    0.1051   18.5058 C   0  0  0  0  0  0  0  0  0  0  0  0
    8.1197   -0.3671   18.2806 H   0  0  0  0  0  0  0  0  0  0  0  0
    6.5806    0.7559   17.4923 N   0  0  0  0  0  0  0  0  0  0  0  0
    5.4117    1.3658   17.7467 C   0  0  0  0  0  0  0  0  0  0  0  0
    4.9644    1.9005   16.9110 H   0  0  0  0  0  0  0  0  0  0  0  0
    4.7778    1.3281   18.9920 C   0  0  0  0  0  0  0  0  0  0  0  0
    3.8445    1.8635   19.1303 H   0  0  0  0  0  0  0  0  0  0  0  0
    5.3787    0.6139   20.0332 C   0  0  0  0  0  0  0  0  0  0  0  0
    4.9260    0.5601   21.0234 H   0  0  0  0  0  0  0  0  0  0  0  0
    6.6948   -1.7956   21.6845 C   0  0  0  0  0  0  0  0  0  0  0  0
    5.6111   -2.3441   21.5421 O   0  0  0  0  0  0  0  0  0  0  0  0
    7.4812   -2.2584   22.7467 N   0  0  0  0  0  0  0  0  0  0  0  0
    6.9510   -2.9549   23.2498 H   0  0  0  0  0  0  0  0  0  0  0  0
    8.7817   -1.9400   23.0007 C   0  0  0  0  0  0  0  0  0  0  0  0
    9.2881   -2.4328   23.8270 H   0  0  0  0  0  0  0  0  0  0  0  0
  1  2  1  0
  2  3  1  0
  3  4  2  0
  4  5  1  0
  4  6  1  0
  6  7  1  0
  6  8  2  0
  8  9  1  0
  8 10  1  0
 10 11  1  0
 10 12  2  0
 12 13  1  0
 13 14  1  0
 14 15  1  0
 14 16  2  0
 16 17  1  0
 17 18  2  0
 18 19  1  0
 18 20  1  0
 20 21  2  0
 21 22  1  0
 21 23  1  0
 23 24  1  0
 23 25  2  0
 25 26  1  0
 16 27  1  0
 27 28  2  0
 27 29  1  0
 29 30  1  0
 29 31  1  0
 31 32  1  0
 12  3  1  0
 31 13  2  0
 25 17  1  0
M  END
>  <cnnaffinity>  (1) 
-5.69807

>  <filename>  (1) 
O=c1[nH]cc(-c2ccccc2O)cc1-c1cccnc1

$$$$
