
     RDKit          3D

 39 41  0  0  0  0  0  0  0  0999 V2000
    4.9073    1.7766   17.0005 H   0  0  0  0  0  0  0  0  0  0  0  0
    5.3979    1.2952   17.8407 C   0  0  0  0  0  0  0  0  0  0  0  0
    6.5632    0.6796   17.5753 N   0  0  0  0  0  0  0  0  0  0  0  0
    7.1746    0.0586   18.5909 C   0  0  0  0  0  0  0  0  0  0  0  0
    8.1259   -0.4298   18.3821 H   0  0  0  0  0  0  0  0  0  0  0  0
    6.6450   -0.0051   19.8960 C   0  0  0  0  0  0  0  0  0  0  0  0
    7.3420   -0.6975   20.9422 N   0  0  0  0  0  0  0  0  0  0  0  0
    6.7067   -1.7579   21.5839 C   0  0  0  0  0  0  0  0  0  0  0  0
    5.7027   -1.9853   21.2370 H   0  0  0  0  0  0  0  0  0  0  0  0
    7.3105   -2.4755   22.5897 C   0  0  0  0  0  0  0  0  0  0  0  0
    6.7003   -3.5319   23.2349 N   0  0  0  0  0  0  0  0  0  0  0  0
    7.2187   -3.9934   23.9634 H   0  0  0  0  0  0  0  0  0  0  0  0
    5.3610   -3.9845   22.9415 C   0  0  0  0  0  0  0  0  0  0  0  0
    4.6427   -3.1652   23.0813 H   0  0  0  0  0  0  0  0  0  0  0  0
    5.2907   -4.2871   21.8872 H   0  0  0  0  0  0  0  0  0  0  0  0
    4.9450   -5.1620   23.8259 C   0  0  0  0  0  0  0  0  0  0  0  0
    5.6495   -5.9915   23.6851 H   0  0  0  0  0  0  0  0  0  0  0  0
    4.9997   -4.8643   24.8809 H   0  0  0  0  0  0  0  0  0  0  0  0
    3.5414   -5.6250   23.5006 C   0  0  0  0  0  0  0  0  0  0  0  0
    3.3198   -6.5866   22.5021 C   0  0  0  0  0  0  0  0  0  0  0  0
    4.1692   -7.0259   21.9832 H   0  0  0  0  0  0  0  0  0  0  0  0
    2.0217   -6.9862   22.1682 C   0  0  0  0  0  0  0  0  0  0  0  0
    1.8666   -7.7405   21.4006 H   0  0  0  0  0  0  0  0  0  0  0  0
    0.9257   -6.4155   22.8234 C   0  0  0  0  0  0  0  0  0  0  0  0
   -0.0840   -6.7249   22.5672 H   0  0  0  0  0  0  0  0  0  0  0  0
    1.1315   -5.4413   23.8060 C   0  0  0  0  0  0  0  0  0  0  0  0
    0.2816   -4.9919   24.3143 H   0  0  0  0  0  0  0  0  0  0  0  0
    2.4317   -5.0455   24.1367 C   0  0  0  0  0  0  0  0  0  0  0  0
    2.5847   -4.2813   24.8972 H   0  0  0  0  0  0  0  0  0  0  0  0
    8.6480   -2.0808   22.9600 C   0  0  0  0  0  0  0  0  0  0  0  0
    9.1578   -2.6261   23.7509 H   0  0  0  0  0  0  0  0  0  0  0  0
    9.2797   -1.0449   22.3434 C   0  0  0  0  0  0  0  0  0  0  0  0
   10.2763   -0.7181   22.5935 H   0  0  0  0  0  0  0  0  0  0  0  0
    8.6678   -0.2579   21.2848 C   0  0  0  0  0  0  0  0  0  0  0  0
    9.2123    0.6748   20.7184 O   0  0  0  0  0  0  0  0  0  0  0  0
    5.4368    0.6458   20.1571 C   0  0  0  0  0  0  0  0  0  0  0  0
    5.0179    0.6248   21.1640 H   0  0  0  0  0  0  0  0  0  0  0  0
    4.8032    1.3171   19.1077 C   0  0  0  0  0  0  0  0  0  0  0  0
    3.8692    1.8472   19.2660 H   0  0  0  0  0  0  0  0  0  0  0  0
  1  2  1  0
  2  3  2  0
  3  4  1  0
  4  5  1  0
  4  6  2  0
  6  7  1  0
  7  8  1  0
  8  9  1  0
  8 10  2  0
 10 11  1  0
 11 12  1  0
 11 13  1  0
 13 14  1  0
 13 15  1  0
 13 16  1  0
 16 17  1  0
 16 18  1  0
 16 19  1  0
 19 20  2  0
 20 21  1  0
 20 22  1  0
 22 23  1  0
 22 24  2  0
 24 25  1  0
 24 26  1  0
 26 27  1  0
 26 28  2  0
 28 29  1  0
 10 30  1  0
 30 31  1  0
 30 32  2  0
 32 33  1  0
 32 34  1  0
 34 35  2  0
  6 36  1  0
 36 37  1  0
 36 38  2  0
 38 39  1  0
 38  2  1  0
 34  7  1  0
 28 19  1  0
M  END
>  <cnnaffinity>  (1) 
-5.63201

>  <filename>  (1) 
O=c1ccc(NCCc2ccccc2)cn1-c1cccnc1

$$$$
