
     RDKit          3D

 36 38  0  0  0  0  0  0  0  0999 V2000
   10.3737   -1.3548   21.6247 H   0  0  0  0  0  0  0  0  0  0  0  0
    9.3048   -1.3554   21.7264 C   0  0  0  0  0  0  0  0  0  0  0  0
    8.6755   -2.3079   22.4444 C   0  0  0  0  0  0  0  0  0  0  0  0
    9.1958   -3.2151   23.3312 N   0  0  0  0  0  0  0  0  0  0  0  0
    8.4655   -3.3777   24.0171 H   0  0  0  0  0  0  0  0  0  0  0  0
   10.4692   -2.8325   23.9745 C   0  0  0  0  0  0  0  0  0  0  0  0
   11.2672   -2.8518   23.2248 H   0  0  0  0  0  0  0  0  0  0  0  0
   10.7267   -3.6041   24.7088 H   0  0  0  0  0  0  0  0  0  0  0  0
   10.4324   -1.4543   24.6449 C   0  0  0  0  0  0  0  0  0  0  0  0
   11.2131   -0.3728   24.2126 C   0  0  0  0  0  0  0  0  0  0  0  0
   11.8221   -0.4457   23.3159 H   0  0  0  0  0  0  0  0  0  0  0  0
   11.1935    0.8224   24.9392 C   0  0  0  0  0  0  0  0  0  0  0  0
   11.8698    1.6298   24.6664 H   0  0  0  0  0  0  0  0  0  0  0  0
   10.3751    1.0414   25.9737 N   0  0  0  0  0  0  0  0  0  0  0  0
    9.5586    0.0457   26.3344 C   0  0  0  0  0  0  0  0  0  0  0  0
    8.8841    0.2460   27.1707 H   0  0  0  0  0  0  0  0  0  0  0  0
    9.5530   -1.2061   25.7122 C   0  0  0  0  0  0  0  0  0  0  0  0
    8.8785   -1.9738   26.0682 H   0  0  0  0  0  0  0  0  0  0  0  0
    7.3120   -2.4244   22.3994 N   0  0  0  0  0  0  0  0  0  0  0  0
    6.9304   -3.3354   22.5779 H   0  0  0  0  0  0  0  0  0  0  0  0
    6.5536   -1.8020   21.4332 C   0  0  0  0  0  0  0  0  0  0  0  0
    5.4584   -2.2606   21.1908 O   0  0  0  0  0  0  0  0  0  0  0  0
    7.1567   -0.7222   20.7912 N   0  0  0  0  0  0  0  0  0  0  0  0
    6.4901   -0.0227   19.7291 C   0  0  0  0  0  0  0  0  0  0  0  0
    7.0657    0.0855   18.4414 C   0  0  0  0  0  0  0  0  0  0  0  0
    8.0046   -0.4274   18.2292 H   0  0  0  0  0  0  0  0  0  0  0  0
    6.5203    0.7732   17.4317 N   0  0  0  0  0  0  0  0  0  0  0  0
    5.3648    1.4145   17.6718 C   0  0  0  0  0  0  0  0  0  0  0  0
    4.9540    1.9862   16.8421 H   0  0  0  0  0  0  0  0  0  0  0  0
    4.7081    1.3643   18.9046 C   0  0  0  0  0  0  0  0  0  0  0  0
    3.7852    1.9147   19.0325 H   0  0  0  0  0  0  0  0  0  0  0  0
    5.2650    0.6179   19.9513 C   0  0  0  0  0  0  0  0  0  0  0  0
    4.7827    0.5343   20.9242 H   0  0  0  0  0  0  0  0  0  0  0  0
    8.4590   -0.2156   21.2841 C   0  0  0  0  0  0  0  0  0  0  0  0
    8.9568    0.3396   20.4779 H   0  0  0  0  0  0  0  0  0  0  0  0
    8.2794    0.5097   22.1102 H   0  0  0  0  0  0  0  0  0  0  0  0
  1  2  1  0
  2  3  2  0
  3  4  1  0
  4  5  1  0
  4  6  1  0
  6  7  1  0
  6  8  1  0
  6  9  1  0
  9 10  2  0
 10 11  1  0
 10 12  1  0
 12 13  1  0
 12 14  2  0
 14 15  1  0
 15 16  1  0
 15 17  2  0
 17 18  1  0
  3 19  1  0
 19 20  1  0
 19 21  1  0
 21 22  2  0
 21 23  1  0
 23 24  1  0
 24 25  2  0
 25 26  1  0
 25 27  1  0
 27 28  2  0
 28 29  1  0
 28 30  1  0
 30 31  1  0
 30 32  2  0
 32 33  1  0
 23 34  1  0
 34 35  1  0
 34 36  1  0
 34  2  1  0
 17  9  1  0
 32 24  1  0
M  END
>  <cnnaffinity>  (1) 
-5.12181

>  <filename>  (1) 
O=C1NC(NCc2ccncc2)=CCN1c1cccnc1

$$$$
