
     RDKit          3D

 30 32  0  0  0  0  0  0  0  0999 V2000
    4.9008    1.8036   16.8554 H   0  0  0  0  0  0  0  0  0  0  0  0
    5.3491    1.3898   17.7551 C   0  0  0  0  0  0  0  0  0  0  0  0
    6.5623    0.8394   17.5961 N   0  0  0  0  0  0  0  0  0  0  0  0
    7.1430    0.3256   18.6852 C   0  0  0  0  0  0  0  0  0  0  0  0
    8.1351   -0.0970   18.5193 H   0  0  0  0  0  0  0  0  0  0  0  0
    6.5664    0.3314   19.9716 C   0  0  0  0  0  0  0  0  0  0  0  0
    7.2363   -0.4102   21.0767 C   0  0  0  0  0  0  0  0  0  0  0  0
    7.5328    0.4628   22.5630 S   0  0  0  0  0  0  0  0  0  0  0  0
    8.2376   -0.7785   23.5885 C   0  0  0  0  0  0  0  0  0  0  0  0
    8.3757   -0.3955   25.0224 C   0  0  0  0  0  0  0  0  0  0  0  0
    7.2440   -0.0607   25.7926 C   0  0  0  0  0  0  0  0  0  0  0  0
    6.2844   -0.0030   25.2825 H   0  0  0  0  0  0  0  0  0  0  0  0
    7.3397    0.1699   27.1693 C   0  0  0  0  0  0  0  0  0  0  0  0
    6.4527    0.4178   27.7443 H   0  0  0  0  0  0  0  0  0  0  0  0
    8.5826    0.0858   27.8037 C   0  0  0  0  0  0  0  0  0  0  0  0
    8.6782    0.2730   28.8733 H   0  0  0  0  0  0  0  0  0  0  0  0
    9.7218   -0.2304   27.0601 C   0  0  0  0  0  0  0  0  0  0  0  0
   10.7030   -0.2721   27.5112 H   0  0  0  0  0  0  0  0  0  0  0  0
    9.6080   -0.4633   25.6930 C   0  0  0  0  0  0  0  0  0  0  0  0
   10.7318   -0.7534   25.0155 F   0  0  0  0  0  0  0  0  0  0  0  0
    8.5830   -2.0111   23.1675 C   0  0  0  0  0  0  0  0  0  0  0  0
    9.1083   -2.6941   23.8297 H   0  0  0  0  0  0  0  0  0  0  0  0
    8.2327   -2.5772   21.8657 C   0  0  0  0  0  0  0  0  0  0  0  0
    8.4761   -3.7470   21.5998 O   0  0  0  0  0  0  0  0  0  0  0  0
    7.5636   -1.7055   20.8980 C   0  0  0  0  0  0  0  0  0  0  0  0
    7.3209   -2.1896   19.9640 H   0  0  0  0  0  0  0  0  0  0  0  0
    5.3134    0.9478   20.1225 C   0  0  0  0  0  0  0  0  0  0  0  0
    4.8566    1.0124   21.1122 H   0  0  0  0  0  0  0  0  0  0  0  0
    4.6873    1.4659   18.9858 C   0  0  0  0  0  0  0  0  0  0  0  0
    3.7177    1.9502   19.0463 H   0  0  0  0  0  0  0  0  0  0  0  0
  1  2  1  0
  2  3  2  0
  3  4  1  0
  4  5  1  0
  4  6  2  0
  6  7  1  0
  7  8  1  0
  8  9  1  0
  9 10  1  0
 10 11  2  0
 11 12  1  0
 11 13  1  0
 13 14  1  0
 13 15  2  0
 15 16  1  0
 15 17  1  0
 17 18  1  0
 17 19  2  0
 19 20  1  0
  9 21  2  0
 21 22  1  0
 21 23  1  0
 23 24  2  0
 23 25  1  0
 25 26  1  0
  6 27  1  0
 27 28  1  0
 27 29  2  0
 29 30  1  0
 29  2  1  0
 25  7  2  0
 19 10  1  0
M  END
>  <cnnaffinity>  (1) 
-5.34713

>  <filename>  (1) 
O=c1cc(-c2cccnc2)sc(-c2ccccc2F)c1

$$$$
