
     RDKit          3D

 32 34  0  0  0  0  0  0  0  0999 V2000
    4.9501    1.8038   16.9251 H   0  0  0  0  0  0  0  0  0  0  0  0
    5.3957    1.3379   17.8029 C   0  0  0  0  0  0  0  0  0  0  0  0
    6.5625    0.7093   17.6135 N   0  0  0  0  0  0  0  0  0  0  0  0
    7.1236    0.1273   18.6744 C   0  0  0  0  0  0  0  0  0  0  0  0
    8.0456   -0.4128   18.4921 H   0  0  0  0  0  0  0  0  0  0  0  0
    6.5856    0.1684   19.9667 C   0  0  0  0  0  0  0  0  0  0  0  0
    7.3375   -0.5252   21.0371 C   0  0  0  0  0  0  0  0  0  0  0  0
    7.9488   -1.6223   20.6651 N   0  0  0  0  0  0  0  0  0  0  0  0
    8.4460   -2.4319   21.6370 C   0  0  0  0  0  0  0  0  0  0  0  0
    8.6766   -3.6108   21.4972 O   0  0  0  0  0  0  0  0  0  0  0  0
    8.7102   -1.8663   22.8822 N   0  0  0  0  0  0  0  0  0  0  0  0
    8.9818   -2.5561   23.5549 H   0  0  0  0  0  0  0  0  0  0  0  0
    8.0310   -0.7803   23.2777 C   0  0  0  0  0  0  0  0  0  0  0  0
    8.0836   -0.4526   24.5753 N   0  0  0  0  0  0  0  0  0  0  0  0
    7.4294    0.2848   24.7707 H   0  0  0  0  0  0  0  0  0  0  0  0
    8.4802   -1.3234   25.6774 C   0  0  0  0  0  0  0  0  0  0  0  0
    9.5352   -1.6098   25.5471 H   0  0  0  0  0  0  0  0  0  0  0  0
    8.4428   -0.7031   26.5821 H   0  0  0  0  0  0  0  0  0  0  0  0
    7.6037   -2.5525   25.8664 C   0  0  0  0  0  0  0  0  0  0  0  0
    6.5706   -2.4020   25.5556 H   0  0  0  0  0  0  0  0  0  0  0  0
    7.8081   -3.4222   27.0723 C   0  0  0  0  0  0  0  0  0  0  0  0
    6.9347   -3.7835   27.6048 H   0  0  0  0  0  0  0  0  0  0  0  0
    8.6604   -3.2079   27.7048 H   0  0  0  0  0  0  0  0  0  0  0  0
    8.1161   -3.9607   25.7076 C   0  0  0  0  0  0  0  0  0  0  0  0
    7.4406   -4.6961   25.2839 H   0  0  0  0  0  0  0  0  0  0  0  0
    9.1657   -4.1335   25.4690 H   0  0  0  0  0  0  0  0  0  0  0  0
    7.3361   -0.0330   22.3534 C   0  0  0  0  0  0  0  0  0  0  0  0
    6.8187    0.8702   22.6455 H   0  0  0  0  0  0  0  0  0  0  0  0
    5.3479    0.8002   20.1524 C   0  0  0  0  0  0  0  0  0  0  0  0
    4.8482    0.8074   21.1278 H   0  0  0  0  0  0  0  0  0  0  0  0
    4.7435    1.3889   19.0419 C   0  0  0  0  0  0  0  0  0  0  0  0
    3.7860    1.8893   19.1152 H   0  0  0  0  0  0  0  0  0  0  0  0
  1  2  1  0
  2  3  2  0
  3  4  1  0
  4  5  1  0
  4  6  2  0
  6  7  1  0
  7  8  2  0
  8  9  1  0
  9 10  2  0
  9 11  1  0
 11 12  1  0
 11 13  1  0
 13 14  1  0
 14 15  1  0
 14 16  1  0
 16 17  1  0
 16 18  1  0
 16 19  1  0
 19 20  1  0
 19 21  1  0
 21 22  1  0
 21 23  1  0
 21 24  1  0
 24 25  1  0
 24 26  1  0
 13 27  2  0
 27 28  1  0
  6 29  1  0
 29 30  1  0
 29 31  2  0
 31 32  1  0
 31  2  1  0
 27  7  1  0
 24 19  1  0
M  END
>  <cnnaffinity>  (1) 
-4.95692

>  <filename>  (1) 
O=c1nc(-c2cccnc2)cc(NCC2CC2)[nH]1

$$$$
