
     RDKit          3D

 30 32  0  0  0  0  0  0  0  0999 V2000
    5.4324    1.8278   16.9012 H   0  0  0  0  0  0  0  0  0  0  0  0
    5.7766    1.3053   17.7924 C   0  0  0  0  0  0  0  0  0  0  0  0
    7.0323    0.8360   17.7470 N   0  0  0  0  0  0  0  0  0  0  0  0
    7.5005    0.2292   18.8376 C   0  0  0  0  0  0  0  0  0  0  0  0
    8.5375   -0.1009   18.8028 H   0  0  0  0  0  0  0  0  0  0  0  0
    6.7366   -0.0121   19.9957 C   0  0  0  0  0  0  0  0  0  0  0  0
    7.3911   -0.7500   21.0945 C   0  0  0  0  0  0  0  0  0  0  0  0
    8.6774   -0.5111   21.3004 N   0  0  0  0  0  0  0  0  0  0  0  0
    9.2923   -1.0102   22.4263 C   0  0  0  0  0  0  0  0  0  0  0  0
   10.7612   -0.7576   22.5851 C   0  0  0  0  0  0  0  0  0  0  0  0
   11.6433   -1.3772   21.6818 C   0  0  0  0  0  0  0  0  0  0  0  0
   11.2250   -2.0161   20.9126 H   0  0  0  0  0  0  0  0  0  0  0  0
   13.0241   -1.1881   21.7477 C   0  0  0  0  0  0  0  0  0  0  0  0
   13.6615   -1.6550   21.0003 H   0  0  0  0  0  0  0  0  0  0  0  0
   13.5623   -0.3922   22.7676 C   0  0  0  0  0  0  0  0  0  0  0  0
   14.6372   -0.2584   22.8475 H   0  0  0  0  0  0  0  0  0  0  0  0
   12.7144    0.2161   23.6994 C   0  0  0  0  0  0  0  0  0  0  0  0
   13.1077    0.8343   24.5029 H   0  0  0  0  0  0  0  0  0  0  0  0
   11.3277    0.0371   23.6037 C   0  0  0  0  0  0  0  0  0  0  0  0
   10.3234    0.8600   24.7671 Cl  0  0  0  0  0  0  0  0  0  0  0  0
    8.6135   -1.7715   23.3445 C   0  0  0  0  0  0  0  0  0  0  0  0
    9.0652   -2.0959   24.2736 H   0  0  0  0  0  0  0  0  0  0  0  0
    7.3245   -2.1532   23.0625 N   0  0  0  0  0  0  0  0  0  0  0  0
    6.7794   -2.8232   23.5954 H   0  0  0  0  0  0  0  0  0  0  0  0
    6.6377   -1.8031   21.9021 C   0  0  0  0  0  0  0  0  0  0  0  0
    5.5802   -2.3704   21.6764 O   0  0  0  0  0  0  0  0  0  0  0  0
    5.4176    0.4795   20.0252 C   0  0  0  0  0  0  0  0  0  0  0  0
    4.7845    0.3552   20.9059 H   0  0  0  0  0  0  0  0  0  0  0  0
    4.9395    1.1545   18.8999 C   0  0  0  0  0  0  0  0  0  0  0  0
    3.9417    1.5772   18.8650 H   0  0  0  0  0  0  0  0  0  0  0  0
  1  2  1  0
  2  3  2  0
  3  4  1  0
  4  5  1  0
  4  6  2  0
  6  7  1  0
  7  8  2  0
  8  9  1  0
  9 10  1  0
 10 11  2  0
 11 12  1  0
 11 13  1  0
 13 14  1  0
 13 15  2  0
 15 16  1  0
 15 17  1  0
 17 18  1  0
 17 19  2  0
 19 20  1  0
  9 21  2  0
 21 22  1  0
 21 23  1  0
 23 24  1  0
 23 25  1  0
 25 26  2  0
  6 27  1  0
 27 28  1  0
 27 29  2  0
 29 30  1  0
 29  2  1  0
 25  7  1  0
 19 10  1  0
M  END
>  <cnnaffinity>  (1) 
-5.35107

>  <filename>  (1) 
O=c1[nH]cc(-c2ccccc2Cl)nc1-c1cccnc1

$$$$
