
     RDKit          3D

 34 37  0  0  0  0  0  0  0  0999 V2000
    4.9057    1.8434   16.9655 H   0  0  0  0  0  0  0  0  0  0  0  0
    5.3717    1.3130   17.7952 C   0  0  0  0  0  0  0  0  0  0  0  0
    6.5229    0.6786   17.5209 N   0  0  0  0  0  0  0  0  0  0  0  0
    7.1636    0.0692   18.5276 C   0  0  0  0  0  0  0  0  0  0  0  0
    8.1085   -0.4095   18.2832 H   0  0  0  0  0  0  0  0  0  0  0  0
    6.6782    0.0336   19.8496 C   0  0  0  0  0  0  0  0  0  0  0  0
    7.3716   -0.6681   20.9243 N   0  0  0  0  0  0  0  0  0  0  0  0
    6.7112   -1.7065   21.5548 C   0  0  0  0  0  0  0  0  0  0  0  0
    5.7012   -1.9259   21.1911 H   0  0  0  0  0  0  0  0  0  0  0  0
    7.2839   -2.4104   22.5665 C   0  0  0  0  0  0  0  0  0  0  0  0
    6.6055   -3.5056   23.2181 C   0  0  0  0  0  0  0  0  0  0  0  0
    5.6411   -4.1911   22.6604 N   0  0  0  0  0  0  0  0  0  0  0  0
    5.2630   -5.1052   23.6202 C   0  0  0  0  0  0  0  0  0  0  0  0
    4.2754   -6.1020   23.5434 C   0  0  0  0  0  0  0  0  0  0  0  0
    3.7393   -6.2330   22.6119 H   0  0  0  0  0  0  0  0  0  0  0  0
    4.0267   -6.8876   24.6622 C   0  0  0  0  0  0  0  0  0  0  0  0
    3.2553   -7.6573   24.6246 H   0  0  0  0  0  0  0  0  0  0  0  0
    4.7665   -6.6826   25.8532 C   0  0  0  0  0  0  0  0  0  0  0  0
    4.5431   -7.3044   26.7162 H   0  0  0  0  0  0  0  0  0  0  0  0
    5.7647   -5.7082   25.9463 C   0  0  0  0  0  0  0  0  0  0  0  0
    6.3107   -5.5632   26.8759 H   0  0  0  0  0  0  0  0  0  0  0  0
    6.0129   -4.9285   24.8061 C   0  0  0  0  0  0  0  0  0  0  0  0
    6.8749   -3.8933   24.4983 N   0  0  0  0  0  0  0  0  0  0  0  0
    7.7191   -3.5534   24.9292 H   0  0  0  0  0  0  0  0  0  0  0  0
    8.6119   -2.0694   23.0307 C   0  0  0  0  0  0  0  0  0  0  0  0
    9.2037   -2.5727   23.9692 O   0  0  0  0  0  0  0  0  0  0  0  0
    9.2239   -1.0783   22.3110 N   0  0  0  0  0  0  0  0  0  0  0  0
   10.1536   -0.8275   22.5833 H   0  0  0  0  0  0  0  0  0  0  0  0
    8.6979   -0.3159   21.3105 C   0  0  0  0  0  0  0  0  0  0  0  0
    9.3508    0.5656   20.8057 O   0  0  0  0  0  0  0  0  0  0  0  0
    5.4528    0.6621   20.1083 C   0  0  0  0  0  0  0  0  0  0  0  0
    5.0421    0.6319   21.1174 H   0  0  0  0  0  0  0  0  0  0  0  0
    4.7906    1.3280   19.0677 C   0  0  0  0  0  0  0  0  0  0  0  0
    3.8564    1.8638   19.2280 H   0  0  0  0  0  0  0  0  0  0  0  0
  1  2  1  0
  2  3  2  0
  3  4  1  0
  4  5  1  0
  4  6  2  0
  6  7  1  0
  7  8  1  0
  8  9  1  0
  8 10  2  0
 10 11  1  0
 11 12  2  0
 12 13  1  0
 13 14  2  0
 14 15  1  0
 14 16  1  0
 16 17  1  0
 16 18  2  0
 18 19  1  0
 18 20  1  0
 20 21  1  0
 20 22  2  0
 22 23  1  0
 23 24  1  0
 10 25  1  0
 25 26  2  0
 25 27  1  0
 27 28  1  0
 27 29  1  0
 29 30  2  0
  6 31  1  0
 31 32  1  0
 31 33  2  0
 33 34  1  0
 33  2  1  0
 29  7  1  0
 23 11  1  0
 22 13  1  0
M  END
>  <cnnaffinity>  (1) 
-5.62506

>  <filename>  (1) 
O=c1[nH]c(=O)n(-c2cccnc2)cc1-c1nc2ccccc2[nH]1

$$$$
