
     RDKit          3D

 33 35  0  0  0  0  0  0  0  0999 V2000
    4.9046    1.8382   16.9442 H   0  0  0  0  0  0  0  0  0  0  0  0
    5.3858    1.3411   17.7828 C   0  0  0  0  0  0  0  0  0  0  0  0
    6.5513    0.7328   17.5113 N   0  0  0  0  0  0  0  0  0  0  0  0
    7.1719    0.1127   18.5226 C   0  0  0  0  0  0  0  0  0  0  0  0
    8.1145   -0.3713   18.2651 H   0  0  0  0  0  0  0  0  0  0  0  0
    6.6626    0.0231   19.8420 C   0  0  0  0  0  0  0  0  0  0  0  0
    7.3893   -0.6994   20.9381 C   0  0  0  0  0  0  0  0  0  0  0  0
    8.6907   -0.4374   21.1993 C   0  0  0  0  0  0  0  0  0  0  0  0
    9.2615    0.3055   20.6363 H   0  0  0  0  0  0  0  0  0  0  0  0
    9.4090   -1.0914   22.1958 N   0  0  0  0  0  0  0  0  0  0  0  0
   10.8039   -0.7802   22.3684 C   0  0  0  0  0  0  0  0  0  0  0  0
   11.7880   -1.7648   22.2255 C   0  0  0  0  0  0  0  0  0  0  0  0
   11.4706   -2.7949   22.1047 H   0  0  0  0  0  0  0  0  0  0  0  0
   13.1380   -1.3919   22.2911 C   0  0  0  0  0  0  0  0  0  0  0  0
   13.9086   -2.1379   22.1071 H   0  0  0  0  0  0  0  0  0  0  0  0
   13.4983   -0.0790   22.6232 C   0  0  0  0  0  0  0  0  0  0  0  0
   14.5295    0.2131   22.7991 H   0  0  0  0  0  0  0  0  0  0  0  0
   12.4927    0.8905   22.7538 C   0  0  0  0  0  0  0  0  0  0  0  0
   12.8378    2.3287   22.9440 N   0  0  0  0  0  4  0  0  0  0  0  0
   14.0103    2.6457   22.8675 O   0  0  0  0  0  0  0  0  0  0  0  0
   11.9270    3.1128   23.1622 O   0  0  0  0  0  1  0  0  0  0  0  0
   11.1469    0.5484   22.6137 C   0  0  0  0  0  0  0  0  0  0  0  0
   10.3713    1.3073   22.6692 H   0  0  0  0  0  0  0  0  0  0  0  0
    8.8051   -2.0270   23.0494 C   0  0  0  0  0  0  0  0  0  0  0  0
    9.3728   -2.6401   23.9235 O   0  0  0  0  0  0  0  0  0  0  0  0
    7.4768   -2.2124   22.8227 N   0  0  0  0  0  0  0  0  0  0  0  0
    7.0655   -2.9461   23.3650 H   0  0  0  0  0  0  0  0  0  0  0  0
    6.7177   -1.7552   21.7621 C   0  0  0  0  0  0  0  0  0  0  0  0
    5.6324   -2.2688   21.5832 O   0  0  0  0  0  0  0  0  0  0  0  0
    5.4336    0.6620   20.0871 C   0  0  0  0  0  0  0  0  0  0  0  0
    5.0073    0.6164   21.0891 H   0  0  0  0  0  0  0  0  0  0  0  0
    4.7911    1.3400   19.0465 C   0  0  0  0  0  0  0  0  0  0  0  0
    3.8494    1.8597   19.1950 H   0  0  0  0  0  0  0  0  0  0  0  0
  1  2  1  0
  2  3  2  0
  3  4  1  0
  4  5  1  0
  4  6  2  0
  6  7  1  0
  7  8  2  0
  8  9  1  0
  8 10  1  0
 10 11  1  0
 11 12  2  0
 12 13  1  0
 12 14  1  0
 14 15  1  0
 14 16  2  0
 16 17  1  0
 16 18  1  0
 18 19  1  0
 19 20  2  0
 19 21  1  0
 18 22  2  0
 22 23  1  0
 10 24  1  0
 24 25  2  0
 24 26  1  0
 26 27  1  0
 26 28  1  0
 28 29  2  0
  6 30  1  0
 30 31  1  0
 30 32  2  0
 32 33  1  0
 32  2  1  0
 28  7  1  0
 22 11  1  0
M  CHG  2  19   1  21  -1
M  END
>  <cnnaffinity>  (1) 
-5.50732

>  <filename>  (1) 
O=c1[nH]c(=O)n(-c2cccc([N+](=O)[O-])c2)cc1-c1cccnc1

$$$$
