
     RDKit          3D

 31 33  0  0  0  0  0  0  0  0999 V2000
    4.9269    1.8004   16.9725 H   0  0  0  0  0  0  0  0  0  0  0  0
    5.3954    1.2966   17.8196 C   0  0  0  0  0  0  0  0  0  0  0  0
    6.5593    0.6717   17.5740 N   0  0  0  0  0  0  0  0  0  0  0  0
    7.1661    0.0515   18.5945 C   0  0  0  0  0  0  0  0  0  0  0  0
    8.1227   -0.4042   18.3413 H   0  0  0  0  0  0  0  0  0  0  0  0
    6.6509    0.0016   19.9058 C   0  0  0  0  0  0  0  0  0  0  0  0
    7.3251   -0.6549   21.0186 C   0  0  0  0  0  0  0  0  0  0  0  0
    7.2006   -0.4275   22.3478 C   0  0  0  0  0  0  0  0  0  0  0  0
    6.6293    0.3078   22.8863 H   0  0  0  0  0  0  0  0  0  0  0  0
    8.0423   -1.3181   23.0102 N   0  0  0  0  0  0  0  0  0  0  0  0
    8.2274   -1.5149   24.3774 C   0  0  0  0  0  0  0  0  0  0  0  0
    7.9839   -2.7482   24.7953 N   0  0  0  0  0  0  0  0  0  0  0  0
    8.0051   -2.9630   26.1094 C   0  0  0  0  0  0  0  0  0  0  0  0
    7.7710   -3.9712   26.4412 H   0  0  0  0  0  0  0  0  0  0  0  0
    8.3034   -1.9687   27.0360 C   0  0  0  0  0  0  0  0  0  0  0  0
    8.3363   -2.2198   28.0717 H   0  0  0  0  0  0  0  0  0  0  0  0
    8.6023   -0.6885   26.6046 C   0  0  0  0  0  0  0  0  0  0  0  0
    8.8528    0.1006   27.3154 H   0  0  0  0  0  0  0  0  0  0  0  0
    8.5938   -0.4598   25.2301 C   0  0  0  0  0  0  0  0  0  0  0  0
    8.9251    0.8968   24.7098 C   0  0  0  0  0  0  0  0  0  0  0  0
    9.6068    0.8675   23.5592 F   0  0  0  0  0  0  0  0  0  0  0  0
    7.7993    1.6196   24.5059 F   0  0  0  0  0  0  0  0  0  0  0  0
    9.6733    1.5884   25.5913 F   0  0  0  0  0  0  0  0  0  0  0  0
    8.6794   -2.1479   22.0985 C   0  0  0  0  0  0  0  0  0  0  0  0
    9.4555   -3.0545   22.2804 O   0  0  0  0  0  0  0  0  0  0  0  0
    8.2478   -1.6794   20.8805 N   0  0  0  0  0  0  0  0  0  0  0  0
    8.5284   -2.1823   20.0636 H   0  0  0  0  0  0  0  0  0  0  0  0
    5.4296    0.6577   20.1343 C   0  0  0  0  0  0  0  0  0  0  0  0
    4.9865    0.6431   21.1282 H   0  0  0  0  0  0  0  0  0  0  0  0
    4.7971    1.3157   19.0836 C   0  0  0  0  0  0  0  0  0  0  0  0
    3.8663    1.8502   19.2307 H   0  0  0  0  0  0  0  0  0  0  0  0
  1  2  1  0
  2  3  2  0
  3  4  1  0
  4  5  1  0
  4  6  2  0
  6  7  1  0
  7  8  2  0
  8  9  1  0
  8 10  1  0
 10 11  1  0
 11 12  2  0
 12 13  1  0
 13 14  1  0
 13 15  2  0
 15 16  1  0
 15 17  1  0
 17 18  1  0
 17 19  2  0
 19 20  1  0
 20 21  1  0
 20 22  1  0
 20 23  1  0
 10 24  1  0
 24 25  2  0
 24 26  1  0
 26 27  1  0
  6 28  1  0
 28 29  1  0
 28 30  2  0
 30 31  1  0
 30  2  1  0
 26  7  1  0
 19 11  1  0
M  END
>  <cnnaffinity>  (1) 
-5.58117

>  <filename>  (1) 
O=c1[nH]c(-c2cccnc2)cn1-c1ncccc1C(F)(F)F

$$$$
