
     RDKit          3D

 33 36  0  0  0  0  0  0  0  0999 V2000
    4.9333    1.8026   16.9869 H   0  0  0  0  0  0  0  0  0  0  0  0
    5.4000    1.3005   17.8324 C   0  0  0  0  0  0  0  0  0  0  0  0
    6.5577    0.6738   17.5718 N   0  0  0  0  0  0  0  0  0  0  0  0
    7.1722    0.0555   18.5870 C   0  0  0  0  0  0  0  0  0  0  0  0
    8.1076   -0.4470   18.3475 H   0  0  0  0  0  0  0  0  0  0  0  0
    6.6677    0.0040   19.8984 C   0  0  0  0  0  0  0  0  0  0  0  0
    7.3631   -0.7003   20.9432 N   0  0  0  0  0  0  0  0  0  0  0  0
    6.5970   -1.4638   21.7727 N   0  0  0  0  0  0  0  0  0  0  0  0
    7.1665   -2.0890   22.7711 C   0  0  0  0  0  0  0  0  0  0  0  0
    6.2428   -2.8648   23.6484 C   0  0  0  0  0  0  0  0  0  0  0  0
    5.3675   -3.7879   23.1778 C   0  0  0  0  0  0  0  0  0  0  0  0
    5.2020   -4.0673   22.1435 H   0  0  0  0  0  0  0  0  0  0  0  0
    4.5354   -4.6460   24.4311 S   0  0  0  0  0  0  0  0  0  0  0  0
    5.3079   -3.6922   25.6605 C   0  0  0  0  0  0  0  0  0  0  0  0
    5.0918   -3.7429   27.0496 C   0  0  0  0  0  0  0  0  0  0  0  0
    4.4065   -4.4555   27.4963 H   0  0  0  0  0  0  0  0  0  0  0  0
    5.7720   -2.8441   27.8534 C   0  0  0  0  0  0  0  0  0  0  0  0
    5.5460   -2.8548   28.9145 H   0  0  0  0  0  0  0  0  0  0  0  0
    6.7192   -1.9478   27.3140 C   0  0  0  0  0  0  0  0  0  0  0  0
    7.2879   -1.2821   27.9553 H   0  0  0  0  0  0  0  0  0  0  0  0
    6.9394   -1.9090   25.9494 C   0  0  0  0  0  0  0  0  0  0  0  0
    7.6800   -1.2385   25.5230 H   0  0  0  0  0  0  0  0  0  0  0  0
    6.2105   -2.7674   25.0983 C   0  0  0  0  0  0  0  0  0  0  0  0
    8.6660   -2.0887   23.0085 C   0  0  0  0  0  0  0  0  0  0  0  0
    9.2478   -2.7171   23.8855 O   0  0  0  0  0  0  0  0  0  0  0  0
    9.3885   -1.2515   22.0650 C   0  0  0  0  0  0  0  0  0  0  0  0
   10.4605   -1.2062   22.1953 H   0  0  0  0  0  0  0  0  0  0  0  0
    8.7233   -0.5981   21.0947 C   0  0  0  0  0  0  0  0  0  0  0  0
    9.2065    0.0582   20.3762 H   0  0  0  0  0  0  0  0  0  0  0  0
    5.4478    0.6426   20.1572 C   0  0  0  0  0  0  0  0  0  0  0  0
    5.0370    0.5819   21.1635 H   0  0  0  0  0  0  0  0  0  0  0  0
    4.8133    1.3133   19.1042 C   0  0  0  0  0  0  0  0  0  0  0  0
    3.8776    1.8430   19.2498 H   0  0  0  0  0  0  0  0  0  0  0  0
  1  2  1  0
  2  3  2  0
  3  4  1  0
  4  5  1  0
  4  6  2  0
  6  7  1  0
  7  8  1  0
  8  9  2  0
  9 10  1  0
 10 11  2  0
 11 12  1  0
 11 13  1  0
 13 14  1  0
 14 15  2  0
 15 16  1  0
 15 17  1  0
 17 18  1  0
 17 19  2  0
 19 20  1  0
 19 21  1  0
 21 22  1  0
 21 23  2  0
  9 24  1  0
 24 25  2  0
 24 26  1  0
 26 27  1  0
 26 28  2  0
 28 29  1  0
  6 30  1  0
 30 31  1  0
 30 32  2  0
 32 33  1  0
 32  2  1  0
 28  7  1  0
 23 10  1  0
 23 14  1  0
M  END
>  <cnnaffinity>  (1) 
-5.5071

>  <filename>  (1) 
O=c1ccn(-c2cccnc2)nc1-c1csc2ccccc12

$$$$
