
     RDKit          3D

 31 33  0  0  0  0  0  0  0  0999 V2000
    4.9135    1.7744   17.0040 H   0  0  0  0  0  0  0  0  0  0  0  0
    5.4040    1.2916   17.8451 C   0  0  0  0  0  0  0  0  0  0  0  0
    6.5717    0.6810   17.5843 N   0  0  0  0  0  0  0  0  0  0  0  0
    7.1753    0.0546   18.5972 C   0  0  0  0  0  0  0  0  0  0  0  0
    8.1230   -0.4365   18.3774 H   0  0  0  0  0  0  0  0  0  0  0  0
    6.6524    0.0122   19.8954 C   0  0  0  0  0  0  0  0  0  0  0  0
    7.3772   -0.7362   20.9085 C   0  0  0  0  0  0  0  0  0  0  0  0
    7.9503   -1.8787   20.6781 N   0  0  0  0  0  0  0  0  0  0  0  0
    8.4345   -2.2461   21.9032 N   0  0  0  0  0  0  0  0  0  0  0  0
    8.9453   -3.0964   22.0641 H   0  0  0  0  0  0  0  0  0  0  0  0
    8.2080   -1.3421   22.8940 C   0  0  0  0  0  0  0  0  0  0  0  0
    8.5564   -1.4013   24.0561 O   0  0  0  0  0  0  0  0  0  0  0  0
    7.4945   -0.3329   22.2310 N   0  0  0  0  0  0  0  0  0  0  0  0
    7.1323    0.9178   22.8456 C   0  0  0  0  0  0  0  0  0  0  0  0
    7.4346    2.1404   22.2240 C   0  0  0  0  0  0  0  0  0  0  0  0
    7.9340    2.1429   21.2612 H   0  0  0  0  0  0  0  0  0  0  0  0
    7.0571    3.3471   22.8196 C   0  0  0  0  0  0  0  0  0  0  0  0
    7.2724    4.2896   22.3225 H   0  0  0  0  0  0  0  0  0  0  0  0
    6.4028    3.3592   24.0525 C   0  0  0  0  0  0  0  0  0  0  0  0
    6.1118    4.3077   24.5023 H   0  0  0  0  0  0  0  0  0  0  0  0
    6.1322    2.1414   24.6957 C   0  0  0  0  0  0  0  0  0  0  0  0
    5.3892    2.1425   26.0180 C   0  0  0  0  0  0  0  0  0  0  0  0
    4.0568    2.0747   25.8234 F   0  0  0  0  0  0  0  0  0  0  0  0
    5.7228    1.0975   26.7971 F   0  0  0  0  0  0  0  0  0  0  0  0
    5.6163    3.2563   26.7416 F   0  0  0  0  0  0  0  0  0  0  0  0
    6.4785    0.9226   24.0828 C   0  0  0  0  0  0  0  0  0  0  0  0
    6.2524   -0.0258   24.5614 H   0  0  0  0  0  0  0  0  0  0  0  0
    5.4314    0.6498   20.1550 C   0  0  0  0  0  0  0  0  0  0  0  0
    5.0095    0.6326   21.1626 H   0  0  0  0  0  0  0  0  0  0  0  0
    4.8015    1.3110   19.1087 C   0  0  0  0  0  0  0  0  0  0  0  0
    3.8716    1.8448   19.2633 H   0  0  0  0  0  0  0  0  0  0  0  0
  1  2  1  0
  2  3  2  0
  3  4  1  0
  4  5  1  0
  4  6  2  0
  6  7  1  0
  7  8  2  0
  8  9  1  0
  9 10  1  0
  9 11  1  0
 11 12  2  0
 11 13  1  0
 13 14  1  0
 14 15  2  0
 15 16  1  0
 15 17  1  0
 17 18  1  0
 17 19  2  0
 19 20  1  0
 19 21  1  0
 21 22  1  0
 22 23  1  0
 22 24  1  0
 22 25  1  0
 21 26  2  0
 26 27  1  0
  6 28  1  0
 28 29  1  0
 28 30  2  0
 30 31  1  0
 30  2  1  0
 13  7  1  0
 26 14  1  0
M  END
>  <cnnaffinity>  (1) 
-5.12354

>  <filename>  (1) 
O=c1[nH]nc(-c2cccnc2)n1-c1cccc(C(F)(F)F)c1

$$$$
