
     RDKit          3D

 30 32  0  0  0  0  0  0  0  0999 V2000
    4.9182    1.7559   16.9166 H   0  0  0  0  0  0  0  0  0  0  0  0
    5.4160    1.2844   17.7611 C   0  0  0  0  0  0  0  0  0  0  0  0
    6.5793    0.6705   17.4902 N   0  0  0  0  0  0  0  0  0  0  0  0
    7.2172    0.0797   18.5081 C   0  0  0  0  0  0  0  0  0  0  0  0
    8.1536   -0.4192   18.2544 H   0  0  0  0  0  0  0  0  0  0  0  0
    6.7529    0.0851   19.8474 C   0  0  0  0  0  0  0  0  0  0  0  0
    7.4852   -0.5660   20.9522 C   0  0  0  0  0  0  0  0  0  0  0  0
    8.4704   -1.5023   20.9142 C   0  0  0  0  0  0  0  0  0  0  0  0
    9.0053   -1.8833   20.0520 H   0  0  0  0  0  0  0  0  0  0  0  0
    8.8914   -1.8899   22.1747 N   0  0  0  0  0  0  0  0  0  0  0  0
    9.0955   -2.8725   22.3576 H   0  0  0  0  0  0  0  0  0  0  0  0
    7.9085   -1.3890   23.0583 N   0  0  0  0  0  0  0  0  0  0  0  0
    8.5044   -1.1032   24.2991 O   0  0  0  0  0  0  0  0  0  0  0  0
    7.6398   -1.0226   25.3796 C   0  0  0  0  0  0  0  0  0  0  0  0
    8.1950   -0.5253   26.5695 C   0  0  0  0  0  0  0  0  0  0  0  0
    9.2683   -0.3561   26.6254 H   0  0  0  0  0  0  0  0  0  0  0  0
    7.3491   -0.2513   27.6456 C   0  0  0  0  0  0  0  0  0  0  0  0
    7.7723    0.1766   28.5502 H   0  0  0  0  0  0  0  0  0  0  0  0
    5.9706   -0.4884   27.5596 C   0  0  0  0  0  0  0  0  0  0  0  0
    5.3019   -0.2375   28.3764 H   0  0  0  0  0  0  0  0  0  0  0  0
    5.4638   -1.0577   26.3904 C   0  0  0  0  0  0  0  0  0  0  0  0
    3.7541   -1.3309   26.2516 Cl  0  0  0  0  0  0  0  0  0  0  0  0
    6.2825   -1.3800   25.3111 C   0  0  0  0  0  0  0  0  0  0  0  0
    5.8672   -1.8769   24.4397 H   0  0  0  0  0  0  0  0  0  0  0  0
    7.2250   -0.3124   22.3920 C   0  0  0  0  0  0  0  0  0  0  0  0
    6.6079    0.5574   22.9660 O   0  0  0  0  0  0  0  0  0  0  0  0
    5.5325    0.7419   20.1004 C   0  0  0  0  0  0  0  0  0  0  0  0
    5.1526    0.7826   21.1221 H   0  0  0  0  0  0  0  0  0  0  0  0
    4.8537    1.3405   19.0399 C   0  0  0  0  0  0  0  0  0  0  0  0
    3.9067    1.8474   19.1891 H   0  0  0  0  0  0  0  0  0  0  0  0
  1  2  1  0
  2  3  2  0
  3  4  1  0
  4  5  1  0
  4  6  2  0
  6  7  1  0
  7  8  2  0
  8  9  1  0
  8 10  1  0
 10 11  1  0
 10 12  1  0
 12 13  1  0
 13 14  1  0
 14 15  2  0
 15 16  1  0
 15 17  1  0
 17 18  1  0
 17 19  2  0
 19 20  1  0
 19 21  1  0
 21 22  1  0
 21 23  2  0
 23 24  1  0
 12 25  1  0
 25 26  2  0
  6 27  1  0
 27 28  1  0
 27 29  2  0
 29 30  1  0
 29  2  1  0
 25  7  1  0
 23 14  1  0
M  END
>  <cnnaffinity>  (1) 
-4.90336

>  <filename>  (1) 
O=c1c(-c2cccnc2)c[nH]n1Oc1cccc(Cl)c1

$$$$
