
     RDKit          3D

 33 35  0  0  0  0  0  0  0  0999 V2000
    4.9059    1.8322   16.9636 H   0  0  0  0  0  0  0  0  0  0  0  0
    5.3689    1.3134   17.8010 C   0  0  0  0  0  0  0  0  0  0  0  0
    6.5259    0.6887   17.5348 N   0  0  0  0  0  0  0  0  0  0  0  0
    7.1389    0.0697   18.5531 C   0  0  0  0  0  0  0  0  0  0  0  0
    8.0972   -0.3993   18.3368 H   0  0  0  0  0  0  0  0  0  0  0  0
    6.6306   -0.0006   19.8703 C   0  0  0  0  0  0  0  0  0  0  0  0
    7.3289   -0.7403   20.9654 C   0  0  0  0  0  0  0  0  0  0  0  0
    6.6609   -1.6392   21.7272 C   0  0  0  0  0  0  0  0  0  0  0  0
    5.6072   -1.8737   21.5590 H   0  0  0  0  0  0  0  0  0  0  0  0
    7.2779   -2.3210   22.7679 N   0  0  0  0  0  0  0  0  0  0  0  0
    6.5746   -3.2564   23.5553 C   0  0  0  0  0  0  0  0  0  0  0  0
    5.8348   -4.1146   22.8708 N   0  0  0  0  0  0  0  0  0  0  0  0
    5.1206   -5.0213   23.5650 C   0  0  0  0  0  0  0  0  0  0  0  0
    4.2574   -6.0480   22.8078 C   0  0  0  0  0  0  0  0  0  0  0  0
    4.5876   -7.3054   23.1692 F   0  0  0  0  0  0  0  0  0  0  0  0
    2.9490   -5.8993   23.1092 F   0  0  0  0  0  0  0  0  0  0  0  0
    4.3716   -5.9723   21.4862 F   0  0  0  0  0  0  0  0  0  0  0  0
    5.1025   -5.0574   24.9605 C   0  0  0  0  0  0  0  0  0  0  0  0
    4.4945   -5.7982   25.4637 H   0  0  0  0  0  0  0  0  0  0  0  0
    5.8766   -4.1299   25.6647 C   0  0  0  0  0  0  0  0  0  0  0  0
    5.8697   -4.1350   26.7522 H   0  0  0  0  0  0  0  0  0  0  0  0
    6.6479   -3.2141   24.9542 C   0  0  0  0  0  0  0  0  0  0  0  0
    7.2838   -2.4818   25.4333 H   0  0  0  0  0  0  0  0  0  0  0  0
    8.6306   -2.1650   23.0597 C   0  0  0  0  0  0  0  0  0  0  0  0
    9.2288   -2.7694   23.9191 O   0  0  0  0  0  0  0  0  0  0  0  0
    9.2668   -1.2589   22.2938 N   0  0  0  0  0  0  0  0  0  0  0  0
   10.2317   -1.1052   22.5001 H   0  0  0  0  0  0  0  0  0  0  0  0
    8.7635   -0.4974   21.2684 C   0  0  0  0  0  0  0  0  0  0  0  0
    9.5263    0.2798   20.7344 O   0  0  0  0  0  0  0  0  0  0  0  0
    5.4083    0.6528   20.1105 C   0  0  0  0  0  0  0  0  0  0  0  0
    4.9927    0.6491   21.1191 H   0  0  0  0  0  0  0  0  0  0  0  0
    4.7700    1.3284   19.0661 C   0  0  0  0  0  0  0  0  0  0  0  0
    3.8436    1.8764   19.2174 H   0  0  0  0  0  0  0  0  0  0  0  0
  1  2  1  0
  2  3  2  0
  3  4  1  0
  4  5  1  0
  4  6  2  0
  6  7  1  0
  7  8  2  0
  8  9  1  0
  8 10  1  0
 10 11  1  0
 11 12  2  0
 12 13  1  0
 13 14  1  0
 14 15  1  0
 14 16  1  0
 14 17  1  0
 13 18  2  0
 18 19  1  0
 18 20  1  0
 20 21  1  0
 20 22  2  0
 22 23  1  0
 10 24  1  0
 24 25  2  0
 24 26  1  0
 26 27  1  0
 26 28  1  0
 28 29  2  0
  6 30  1  0
 30 31  1  0
 30 32  2  0
 32 33  1  0
 32  2  1  0
 28  7  1  0
 22 11  1  0
M  END
>  <cnnaffinity>  (1) 
-5.48059

>  <filename>  (1) 
O=c1[nH]c(=O)n(-c2cccc(C(F)(F)F)n2)cc1-c1cccnc1

$$$$
