
     RDKit          3D

 29 31  0  0  0  0  0  0  0  0999 V2000
    4.9208    1.7968   16.9756 H   0  0  0  0  0  0  0  0  0  0  0  0
    5.3930    1.2983   17.8204 C   0  0  0  0  0  0  0  0  0  0  0  0
    6.5572    0.6781   17.5667 N   0  0  0  0  0  0  0  0  0  0  0  0
    7.1625    0.0554   18.5864 C   0  0  0  0  0  0  0  0  0  0  0  0
    8.1210   -0.4044   18.3438 H   0  0  0  0  0  0  0  0  0  0  0  0
    6.6475    0.0050   19.8963 C   0  0  0  0  0  0  0  0  0  0  0  0
    7.3354   -0.6545   21.0098 C   0  0  0  0  0  0  0  0  0  0  0  0
    7.2394   -0.4381   22.3373 C   0  0  0  0  0  0  0  0  0  0  0  0
    6.6462    0.2933   22.8627 H   0  0  0  0  0  0  0  0  0  0  0  0
    8.0896   -1.3191   22.9985 N   0  0  0  0  0  0  0  0  0  0  0  0
    8.2711   -1.4038   24.3986 C   0  0  0  0  0  0  0  0  0  0  0  0
    8.2415   -0.2308   25.1633 C   0  0  0  0  0  0  0  0  0  0  0  0
    8.0912    0.7306   24.6845 H   0  0  0  0  0  0  0  0  0  0  0  0
    8.4268   -0.3060   26.5420 C   0  0  0  0  0  0  0  0  0  0  0  0
    8.4078    0.5936   27.1496 H   0  0  0  0  0  0  0  0  0  0  0  0
    8.6376   -1.5390   27.1562 C   0  0  0  0  0  0  0  0  0  0  0  0
    8.8138   -1.5929   28.2177 H   0  0  0  0  0  0  0  0  0  0  0  0
    8.6445   -2.6983   26.3803 C   0  0  0  0  0  0  0  0  0  0  0  0
    8.9065   -4.2303   27.1521 Cl  0  0  0  0  0  0  0  0  0  0  0  0
    8.4649   -2.6519   25.0011 C   0  0  0  0  0  0  0  0  0  0  0  0
    8.4964   -3.5536   24.4006 H   0  0  0  0  0  0  0  0  0  0  0  0
    8.7318   -2.1208   22.0531 C   0  0  0  0  0  0  0  0  0  0  0  0
    9.5207   -3.0307   22.1886 O   0  0  0  0  0  0  0  0  0  0  0  0
    8.2652   -1.6639   20.8479 N   0  0  0  0  0  0  0  0  0  0  0  0
    8.5456   -2.1531   20.0212 H   0  0  0  0  0  0  0  0  0  0  0  0
    5.4282    0.6596   20.1353 C   0  0  0  0  0  0  0  0  0  0  0  0
    4.9915    0.6403   21.1360 H   0  0  0  0  0  0  0  0  0  0  0  0
    4.7959    1.3184   19.0845 C   0  0  0  0  0  0  0  0  0  0  0  0
    3.8652    1.8507   19.2376 H   0  0  0  0  0  0  0  0  0  0  0  0
  1  2  1  0
  2  3  2  0
  3  4  1  0
  4  5  1  0
  4  6  2  0
  6  7  1  0
  7  8  2  0
  8  9  1  0
  8 10  1  0
 10 11  1  0
 11 12  2  0
 12 13  1  0
 12 14  1  0
 14 15  1  0
 14 16  2  0
 16 17  1  0
 16 18  1  0
 18 19  1  0
 18 20  2  0
 20 21  1  0
 10 22  1  0
 22 23  2  0
 22 24  1  0
 24 25  1  0
  6 26  1  0
 26 27  1  0
 26 28  2  0
 28 29  1  0
 28  2  1  0
 24  7  1  0
 20 11  1  0
M  END
>  <cnnaffinity>  (1) 
-5.49206

>  <filename>  (1) 
O=c1[nH]c(-c2cccnc2)cn1-c1cccc(Cl)c1

$$$$
