
     RDKit          3D

 35 38  0  0  0  0  0  0  0  0999 V2000
    4.9544    1.7958   16.9825 H   0  0  0  0  0  0  0  0  0  0  0  0
    5.4037    1.2942   17.8415 C   0  0  0  0  0  0  0  0  0  0  0  0
    6.5619    0.6606   17.6055 N   0  0  0  0  0  0  0  0  0  0  0  0
    7.1496    0.0373   18.6338 C   0  0  0  0  0  0  0  0  0  0  0  0
    8.0948   -0.4401   18.3840 H   0  0  0  0  0  0  0  0  0  0  0  0
    6.6158   -0.0218   19.9345 C   0  0  0  0  0  0  0  0  0  0  0  0
    7.3127   -0.7536   21.0379 C   0  0  0  0  0  0  0  0  0  0  0  0
    6.5714   -1.3428   21.9480 N   0  0  0  0  0  0  0  0  0  0  0  0
    7.1800   -1.9825   23.0245 N   0  0  0  0  0  0  0  0  0  0  0  0
    6.3400   -2.6177   23.9966 C   0  0  0  0  0  0  0  0  0  0  0  0
    6.7552   -2.6988   25.2325 N   0  0  0  0  0  0  0  0  0  0  0  0
    5.9159   -3.2572   26.1542 C   0  0  0  0  0  0  0  0  0  0  0  0
    6.4392   -3.4811   27.4550 C   0  0  0  0  0  0  0  0  0  0  0  0
    7.4837   -3.2106   27.5787 H   0  0  0  0  0  0  0  0  0  0  0  0
    5.6392   -4.0229   28.4434 C   0  0  0  0  0  0  0  0  0  0  0  0
    6.0195   -4.1878   29.4496 H   0  0  0  0  0  0  0  0  0  0  0  0
    4.2875   -4.3622   28.1687 C   0  0  0  0  0  0  0  0  0  0  0  0
    3.6817   -4.7870   28.9655 H   0  0  0  0  0  0  0  0  0  0  0  0
    3.7610   -4.1798   26.9106 C   0  0  0  0  0  0  0  0  0  0  0  0
    2.7354   -4.4588   26.6845 H   0  0  0  0  0  0  0  0  0  0  0  0
    4.5754   -3.6562   25.8658 C   0  0  0  0  0  0  0  0  0  0  0  0
    4.1566   -3.5344   24.5063 C   0  0  0  0  0  0  0  0  0  0  0  0
    3.1122   -3.7380   24.2754 H   0  0  0  0  0  0  0  0  0  0  0  0
    5.0590   -3.1064   23.5656 C   0  0  0  0  0  0  0  0  0  0  0  0
    4.8269   -2.9920   22.5150 H   0  0  0  0  0  0  0  0  0  0  0  0
    8.6022   -2.1389   23.1658 C   0  0  0  0  0  0  0  0  0  0  0  0
    9.1366   -2.8090   24.0205 O   0  0  0  0  0  0  0  0  0  0  0  0
    9.3604   -1.4524   22.1180 C   0  0  0  0  0  0  0  0  0  0  0  0
   10.4325   -1.5595   22.2285 H   0  0  0  0  0  0  0  0  0  0  0  0
    8.7534   -0.7976   21.0936 C   0  0  0  0  0  0  0  0  0  0  0  0
    9.3138   -0.2823   20.3219 H   0  0  0  0  0  0  0  0  0  0  0  0
    5.4026    0.6455   20.1626 C   0  0  0  0  0  0  0  0  0  0  0  0
    4.9640    0.6273   21.1617 H   0  0  0  0  0  0  0  0  0  0  0  0
    4.7919    1.3192   19.1002 C   0  0  0  0  0  0  0  0  0  0  0  0
    3.8607    1.8624   19.2235 H   0  0  0  0  0  0  0  0  0  0  0  0
  1  2  1  0
  2  3  2  0
  3  4  1  0
  4  5  1  0
  4  6  2  0
  6  7  1  0
  7  8  2  0
  8  9  1  0
  9 10  1  0
 10 11  2  0
 11 12  1  0
 12 13  2  0
 13 14  1  0
 13 15  1  0
 15 16  1  0
 15 17  2  0
 17 18  1  0
 17 19  1  0
 19 20  1  0
 19 21  2  0
 21 22  1  0
 22 23  1  0
 22 24  2  0
 24 25  1  0
  9 26  1  0
 26 27  2  0
 26 28  1  0
 28 29  1  0
 28 30  2  0
 30 31  1  0
  6 32  1  0
 32 33  1  0
 32 34  2  0
 34 35  1  0
 34  2  1  0
 30  7  1  0
 24 10  1  0
 21 12  1  0
M  END
>  <cnnaffinity>  (1) 
-5.27341

>  <filename>  (1) 
O=c1ccc(-c2cccnc2)nn1-c1ccc2ccccc2n1

$$$$
