
     RDKit          3D

 20 21  0  0  0  0  0  0  0  0999 V2000
   10.4669    0.5771   21.5015 H   0  0  0  0  0  0  0  0  0  0  0  0
    9.4043    0.6916   21.2196 C   0  0  0  0  0  0  0  0  0  0  0  0
    8.9767    1.7255   20.7616 O   0  0  0  0  0  0  0  0  0  0  0  0
    8.5664   -0.5066   21.4958 C   0  0  0  0  0  0  0  0  0  0  0  0
    8.9199   -1.3999   22.3795 N   0  0  0  0  0  0  0  0  0  0  0  0
    7.8645   -2.2429   22.4163 N   0  0  0  0  0  0  0  0  0  0  0  0
    7.7630   -3.0110   23.0581 H   0  0  0  0  0  0  0  0  0  0  0  0
    6.8457   -1.9318   21.5882 C   0  0  0  0  0  0  0  0  0  0  0  0
    5.4396   -2.8016   21.4172 S   0  0  0  0  0  0  0  0  0  0  0  0
    7.3171   -0.7855   20.9591 N   0  0  0  0  0  0  0  0  0  0  0  0
    6.6592   -0.0555   19.9019 C   0  0  0  0  0  0  0  0  0  0  0  0
    7.1938    0.0165   18.5995 C   0  0  0  0  0  0  0  0  0  0  0  0
    8.1377   -0.4710   18.3606 H   0  0  0  0  0  0  0  0  0  0  0  0
    6.5843    0.6584   17.5924 N   0  0  0  0  0  0  0  0  0  0  0  0
    5.4263    1.2829   17.8602 C   0  0  0  0  0  0  0  0  0  0  0  0
    4.9563    1.7947   17.0242 H   0  0  0  0  0  0  0  0  0  0  0  0
    4.8270    1.2922   19.1255 C   0  0  0  0  0  0  0  0  0  0  0  0
    3.8941    1.8281   19.2767 H   0  0  0  0  0  0  0  0  0  0  0  0
    5.4588    0.6048   20.1698 C   0  0  0  0  0  0  0  0  0  0  0  0
    5.0387    0.5672   21.1775 H   0  0  0  0  0  0  0  0  0  0  0  0
  1  2  1  0
  2  3  2  0
  2  4  1  0
  4  5  2  0
  5  6  1  0
  6  7  1  0
  6  8  1  0
  8  9  2  0
  8 10  1  0
 10 11  1  0
 11 12  2  0
 12 13  1  0
 12 14  1  0
 14 15  2  0
 15 16  1  0
 15 17  1  0
 17 18  1  0
 17 19  2  0
 19 20  1  0
 10  4  1  0
 19 11  1  0
M  END
>  <cnnaffinity>  (1) 
-4.21958

>  <filename>  (1) 
O=Cc1n[nH]c(=S)n1-c1cccnc1

$$$$
