
     RDKit          3D

 24 26  0  0  0  0  0  0  0  0999 V2000
    6.7546   -1.4235   25.1636 H   0  0  0  0  0  0  0  0  0  0  0  0
    7.6896   -1.9965   25.2849 C   0  0  0  0  0  0  0  0  0  0  0  0
    8.0657   -2.4713   26.3268 O   0  0  0  0  0  0  0  0  0  0  0  0
    8.3751   -2.1020   24.0893 N   0  0  0  0  0  0  0  0  0  0  0  0
    9.6022   -2.7366   23.8250 C   0  0  0  0  0  0  0  0  0  0  0  0
   10.1341   -3.2407   24.6170 H   0  0  0  0  0  0  0  0  0  0  0  0
    9.8944   -2.5656   22.5150 C   0  0  0  0  0  0  0  0  0  0  0  0
   10.7278   -2.8614   21.9134 H   0  0  0  0  0  0  0  0  0  0  0  0
    8.8506   -1.8303   21.9609 N   0  0  0  0  0  0  0  0  0  0  0  0
    8.5482   -1.3320   20.7454 N   0  0  0  0  0  0  0  0  0  0  0  0
    7.3808   -0.7013   20.9656 C   0  0  0  0  0  0  0  0  0  0  0  0
    6.6643    0.0079   19.8880 C   0  0  0  0  0  0  0  0  0  0  0  0
    7.1794    0.0573   18.5781 C   0  0  0  0  0  0  0  0  0  0  0  0
    8.1284   -0.4238   18.3473 H   0  0  0  0  0  0  0  0  0  0  0  0
    6.5636    0.6766   17.5666 N   0  0  0  0  0  0  0  0  0  0  0  0
    5.4009    1.2928   17.8271 C   0  0  0  0  0  0  0  0  0  0  0  0
    4.9257    1.7912   16.9875 H   0  0  0  0  0  0  0  0  0  0  0  0
    4.8076    1.3110   19.0926 C   0  0  0  0  0  0  0  0  0  0  0  0
    3.8775    1.8395   19.2490 H   0  0  0  0  0  0  0  0  0  0  0  0
    5.4413    0.6554   20.1388 C   0  0  0  0  0  0  0  0  0  0  0  0
    4.9998    0.6482   21.1384 H   0  0  0  0  0  0  0  0  0  0  0  0
    6.9439   -0.7995   22.3108 C   0  0  0  0  0  0  0  0  0  0  0  0
    6.0581   -0.3669   22.7403 H   0  0  0  0  0  0  0  0  0  0  0  0
    7.9300   -1.5402   22.9017 C   0  0  0  0  0  0  0  0  0  0  0  0
  1  2  1  0
  2  3  2  0
  2  4  1  0
  4  5  1  0
  5  6  1  0
  5  7  2  0
  7  8  1  0
  7  9  1  0
  9 10  1  0
 10 11  2  0
 11 12  1  0
 12 13  2  0
 13 14  1  0
 13 15  1  0
 15 16  2  0
 16 17  1  0
 16 18  1  0
 18 19  1  0
 18 20  2  0
 20 21  1  0
 11 22  1  0
 22 23  1  0
 22 24  2  0
 24  4  1  0
 24  9  1  0
 20 12  1  0
M  END
>  <cnnaffinity>  (1) 
-4.6736

>  <filename>  (1) 
O=Cn1ccn2nc(-c3cccnc3)cc12

$$$$
