
     RDKit          3D

 19 20  0  0  0  0  0  0  0  0999 V2000
    8.6739   -2.8928   23.9779 H   0  0  0  0  0  0  0  0  0  0  0  0
    8.3640   -2.4793   23.0052 C   0  0  0  0  0  0  0  0  0  0  0  0
    8.4411   -3.0398   21.9504 O   0  0  0  0  0  0  0  0  0  0  0  0
    7.8478   -1.1778   23.1276 N   0  0  0  0  0  0  0  0  0  0  0  0
    7.7493   -0.5236   24.3241 N   0  0  0  0  0  0  0  0  0  0  0  0
    7.2407    0.6139   24.0611 N   0  0  0  0  0  0  0  0  0  0  0  0
    6.9815    0.7620   22.7378 N   0  0  0  0  0  0  0  0  0  0  0  0
    7.3655   -0.3526   22.1765 C   0  0  0  0  0  0  0  0  0  0  0  0
    7.3740   -0.7055   20.8901 O   0  0  0  0  0  0  0  0  0  0  0  0
    6.6668    0.0290   19.9283 C   0  0  0  0  0  0  0  0  0  0  0  0
    7.1834    0.0549   18.6174 C   0  0  0  0  0  0  0  0  0  0  0  0
    8.1244   -0.4397   18.3924 H   0  0  0  0  0  0  0  0  0  0  0  0
    6.5698    0.6670   17.5955 N   0  0  0  0  0  0  0  0  0  0  0  0
    5.4045    1.2881   17.8417 C   0  0  0  0  0  0  0  0  0  0  0  0
    4.9228    1.7812   16.9958 H   0  0  0  0  0  0  0  0  0  0  0  0
    4.8109    1.2966   19.1075 C   0  0  0  0  0  0  0  0  0  0  0  0
    3.8822    1.8358   19.2579 H   0  0  0  0  0  0  0  0  0  0  0  0
    5.4390    0.6483   20.1812 C   0  0  0  0  0  0  0  0  0  0  0  0
    5.0148    0.6425   21.1880 H   0  0  0  0  0  0  0  0  0  0  0  0
  1  2  1  0
  2  3  2  0
  2  4  1  0
  4  5  1  0
  5  6  2  0
  6  7  1  0
  7  8  2  0
  8  9  1  0
  9 10  1  0
 10 11  2  0
 11 12  1  0
 11 13  1  0
 13 14  2  0
 14 15  1  0
 14 16  1  0
 16 17  1  0
 16 18  2  0
 18 19  1  0
  8  4  1  0
 18 10  1  0
M  END
>  <cnnaffinity>  (1) 
-4.29323

>  <filename>  (1) 
O=Cn1nnnc1Oc1cccnc1

$$$$
