
     RDKit          3D

 30 32  0  0  0  0  0  0  0  0999 V2000
   10.6201    1.4993   26.3539 H   0  0  0  0  0  0  0  0  0  0  0  0
   10.5247    0.5581   26.1660 O   0  0  0  0  0  0  0  0  0  0  0  0
    9.0004    0.5754   25.7301 P   0  0  0  0  0  0  0  0  0  0  0  0
    8.9299    1.4847   24.5643 O   0  0  0  0  0  0  0  0  0  0  0  0
    8.5172    1.3423   27.0331 O   0  0  0  0  0  0  0  0  0  0  0  0
    9.3805    1.6624   27.3528 H   0  0  0  0  0  0  0  0  0  0  0  0
    8.1356   -1.1049   25.3793 C   0  0  0  0  0  0  0  0  0  0  0  0
    6.7716   -1.0013   25.3288 F   0  0  0  0  0  0  0  0  0  0  0  0
    8.4225   -2.0107   26.3687 F   0  0  0  0  0  0  0  0  0  0  0  0
    8.5944   -1.6520   24.0887 N   0  0  0  0  0  0  0  0  0  0  0  0
    9.8785   -2.1665   23.8301 C   0  0  0  0  0  0  0  0  0  0  0  0
   10.5774   -2.5170   24.5861 H   0  0  0  0  0  0  0  0  0  0  0  0
   10.1217   -2.1654   22.4610 C   0  0  0  0  0  0  0  0  0  0  0  0
   11.0127   -2.4982   21.9391 H   0  0  0  0  0  0  0  0  0  0  0  0
    8.9953   -1.6313   21.8651 N   0  0  0  0  0  0  0  0  0  0  0  0
    8.6036   -1.2633   20.6164 N   0  0  0  0  0  0  0  0  0  0  0  0
    7.4483   -0.6533   20.8449 C   0  0  0  0  0  0  0  0  0  0  0  0
    6.6867    0.0026   19.8001 C   0  0  0  0  0  0  0  0  0  0  0  0
    7.1952   -0.0074   18.4988 C   0  0  0  0  0  0  0  0  0  0  0  0
    8.1385   -0.5090   18.3095 H   0  0  0  0  0  0  0  0  0  0  0  0
    6.5874    0.5945   17.4648 N   0  0  0  0  0  0  0  0  0  0  0  0
    5.4365    1.2477   17.7025 C   0  0  0  0  0  0  0  0  0  0  0  0
    4.9432    1.7650   16.8838 H   0  0  0  0  0  0  0  0  0  0  0  0
    4.8679    1.3080   18.9786 C   0  0  0  0  0  0  0  0  0  0  0  0
    3.9413    1.8500   19.1126 H   0  0  0  0  0  0  0  0  0  0  0  0
    5.4952    0.6874   20.0566 C   0  0  0  0  0  0  0  0  0  0  0  0
    5.0691    0.7530   21.0583 H   0  0  0  0  0  0  0  0  0  0  0  0
    7.0814   -0.6473   22.2638 C   0  0  0  0  0  0  0  0  0  0  0  0
    6.2100   -0.2058   22.7316 H   0  0  0  0  0  0  0  0  0  0  0  0
    8.1247   -1.2863   22.8374 C   0  0  0  0  0  0  0  0  0  0  0  0
  1  2  1  0
  2  3  1  0
  3  4  2  0
  3  5  1  0
  5  6  1  0
  3  7  1  0
  7  8  1  0
  7  9  1  0
  7 10  1  0
 10 11  1  0
 11 12  1  0
 11 13  2  0
 13 14  1  0
 13 15  1  0
 15 16  1  0
 16 17  2  0
 17 18  1  0
 18 19  2  0
 19 20  1  0
 19 21  1  0
 21 22  2  0
 22 23  1  0
 22 24  1  0
 24 25  1  0
 24 26  2  0
 26 27  1  0
 17 28  1  0
 28 29  1  0
 28 30  2  0
 30 10  1  0
 30 15  1  0
 26 18  1  0
M  END
>  <cnnaffinity>  (1) 
-5.06046

>  <filename>  (1) 
O=P(O)(O)C(F)(F)n1ccn2nc(-c3cccnc3)cc12

$$$$
