
     RDKit          3D

 34 35  0  0  0  0  0  0  0  0999 V2000
    9.5100   -3.4617   26.5790 H   0  0  0  0  0  0  0  0  0  0  0  0
    9.4678   -2.7040   25.9356 O   0  0  0  0  0  0  0  0  0  0  0  0
    8.7512   -3.7114   25.0357 P   0  0  0  0  0  0  0  0  0  0  0  0
    7.3244   -3.7831   25.2612 O   0  0  0  0  0  0  0  0  0  0  0  0
    9.7408   -4.2369   26.0732 O   0  0  0  0  0  0  0  0  0  0  0  0
   10.1538   -3.3369   26.0677 H   0  0  0  0  0  0  0  0  0  0  0  0
    8.9283   -4.0996   23.2860 C   0  0  0  0  0  0  0  0  0  0  0  0
    9.1395   -5.1568   23.2296 H   0  0  0  0  0  0  0  0  0  0  0  0
    7.9639   -3.6618   22.1456 N   0  0  0  0  0  0  0  0  0  0  0  0
    7.4876   -4.3446   21.5328 H   0  0  0  0  0  0  0  0  0  0  0  0
    7.7647   -2.3300   21.8185 C   0  0  0  0  0  0  0  0  0  0  0  0
    7.2417   -1.8445   20.6509 C   0  0  0  0  0  0  0  0  0  0  0  0
    6.9076   -2.4494   19.8187 H   0  0  0  0  0  0  0  0  0  0  0  0
    7.1447   -0.4554   20.7394 N   0  0  0  0  0  0  0  0  0  0  0  0
    6.5361    0.3310   19.7456 C   0  0  0  0  0  0  0  0  0  0  0  0
    6.9901    0.2461   18.4130 C   0  0  0  0  0  0  0  0  0  0  0  0
    7.8816   -0.3461   18.2229 H   0  0  0  0  0  0  0  0  0  0  0  0
    6.3828    0.8514   17.3740 N   0  0  0  0  0  0  0  0  0  0  0  0
    5.2853    1.5818   17.6390 C   0  0  0  0  0  0  0  0  0  0  0  0
    4.7773    2.0579   16.8092 H   0  0  0  0  0  0  0  0  0  0  0  0
    4.7833    1.7450   18.9365 C   0  0  0  0  0  0  0  0  0  0  0  0
    3.8920    2.3449   19.0792 H   0  0  0  0  0  0  0  0  0  0  0  0
    5.4233    1.1323   20.0198 C   0  0  0  0  0  0  0  0  0  0  0  0
    5.0415    1.2354   21.0353 H   0  0  0  0  0  0  0  0  0  0  0  0
    7.5288   -0.1154   22.0402 C   0  0  0  0  0  0  0  0  0  0  0  0
    7.4866    1.3517   22.8262 S   0  0  0  0  0  0  0  0  0  0  0  0
    8.0117   -1.2591   22.6445 N   0  0  0  0  0  0  0  0  0  0  0  0
    8.0259   -1.3520   23.6523 H   0  0  0  0  0  0  0  0  0  0  0  0
   10.4263   -3.2793   23.6481 P   0  0  0  0  0  0  0  0  0  0  0  0
   11.2415   -2.6046   22.6548 O   0  0  0  0  0  0  0  0  0  0  0  0
   10.4010   -1.8826   24.0867 O   0  0  0  0  0  0  0  0  0  0  0  0
   11.0039   -1.8425   23.2789 H   0  0  0  0  0  0  0  0  0  0  0  0
   11.2993   -4.2249   24.5126 O   0  0  0  0  0  0  0  0  0  0  0  0
   12.0686   -3.6435   24.5995 H   0  0  0  0  0  0  0  0  0  0  0  0
  1  2  1  0
  2  3  1  0
  3  4  2  0
  3  5  1  0
  5  6  1  0
  3  7  1  0
  7  8  1  0
  7  9  1  0
  9 10  1  0
  9 11  1  0
 11 12  2  0
 12 13  1  0
 12 14  1  0
 14 15  1  0
 15 16  2  0
 16 17  1  0
 16 18  1  0
 18 19  2  0
 19 20  1  0
 19 21  1  0
 21 22  1  0
 21 23  2  0
 23 24  1  0
 14 25  1  0
 25 26  2  0
 25 27  1  0
 27 28  1  0
  7 29  1  0
 29 30  2  0
 29 31  1  0
 31 32  1  0
 29 33  1  0
 33 34  1  0
 27 11  1  0
 23 15  1  0
M  END
>  <cnnaffinity>  (1) 
-5.00296

>  <filename>  (1) 
O=P(O)(O)C(Nc1cn(-c2cccnc2)c(=S)[nH]1)P(=O)(O)O

$$$$
