
     RDKit          3D

 33 34  0  0  0  0  0  0  0  0999 V2000
    7.3876   -3.3081   27.9424 H   0  0  0  0  0  0  0  0  0  0  0  0
    7.4629   -2.4593   27.4312 O   0  0  0  0  0  0  0  0  0  0  0  0
    8.3183   -3.2632   26.5040 P   0  0  0  0  0  0  0  0  0  0  0  0
    9.6870   -3.6450   26.8734 O   0  0  0  0  0  0  0  0  0  0  0  0
    7.2212   -3.9881   27.2913 O   0  0  0  0  0  0  0  0  0  0  0  0
    6.7751   -3.1119   27.3990 H   0  0  0  0  0  0  0  0  0  0  0  0
    8.3832   -2.8842   24.7723 C   0  0  0  0  0  0  0  0  0  0  0  0
    9.4191   -2.6373   24.5573 H   0  0  0  0  0  0  0  0  0  0  0  0
    7.4488   -1.9924   23.8897 N   0  0  0  0  0  0  0  0  0  0  0  0
    6.6559   -1.4474   24.2679 H   0  0  0  0  0  0  0  0  0  0  0  0
    7.7894   -1.6524   22.5843 C   0  0  0  0  0  0  0  0  0  0  0  0
    8.9425   -2.0073   21.9450 C   0  0  0  0  0  0  0  0  0  0  0  0
    9.7027   -2.6191   22.4158 H   0  0  0  0  0  0  0  0  0  0  0  0
    9.0388   -1.3278   20.3233 S   0  0  0  0  0  0  0  0  0  0  0  0
    7.4512   -0.5783   20.4992 C   0  0  0  0  0  0  0  0  0  0  0  0
    6.7839    0.1790   19.4255 C   0  0  0  0  0  0  0  0  0  0  0  0
    7.3941    0.2975   18.1643 C   0  0  0  0  0  0  0  0  0  0  0  0
    8.3636   -0.1697   18.0010 H   0  0  0  0  0  0  0  0  0  0  0  0
    6.8351    0.9514   17.1281 N   0  0  0  0  0  0  0  0  0  0  0  0
    5.6339    1.5293   17.3049 C   0  0  0  0  0  0  0  0  0  0  0  0
    5.1682    2.0581   16.4770 H   0  0  0  0  0  0  0  0  0  0  0  0
    4.9643    1.4642   18.5296 C   0  0  0  0  0  0  0  0  0  0  0  0
    4.0030    1.9518   18.6287 H   0  0  0  0  0  0  0  0  0  0  0  0
    5.5346    0.7835   19.6083 C   0  0  0  0  0  0  0  0  0  0  0  0
    5.0274    0.7215   20.5700 H   0  0  0  0  0  0  0  0  0  0  0  0
    6.9304   -0.8281   21.7479 C   0  0  0  0  0  0  0  0  0  0  0  0
    5.9681   -0.4625   22.0820 H   0  0  0  0  0  0  0  0  0  0  0  0
    8.2487   -4.6585   24.9855 P   0  0  0  0  0  0  0  0  0  0  0  0
    6.8220   -4.9666   24.9343 O   0  0  0  0  0  0  0  0  0  0  0  0
    9.4319   -5.4311   24.4321 O   0  0  0  0  0  0  0  0  0  0  0  0
    9.2272   -6.1297   25.1055 H   0  0  0  0  0  0  0  0  0  0  0  0
    9.0105   -5.6532   25.8977 O   0  0  0  0  0  0  0  0  0  0  0  0
    9.7974   -5.5439   25.3059 H   0  0  0  0  0  0  0  0  0  0  0  0
  1  2  1  0
  2  3  1  0
  3  4  2  0
  3  5  1  0
  5  6  1  0
  3  7  1  0
  7  8  1  0
  7  9  1  0
  9 10  1  0
  9 11  1  0
 11 12  2  0
 12 13  1  0
 12 14  1  0
 14 15  1  0
 15 16  1  0
 16 17  2  0
 17 18  1  0
 17 19  1  0
 19 20  2  0
 20 21  1  0
 20 22  1  0
 22 23  1  0
 22 24  2  0
 24 25  1  0
 15 26  2  0
 26 27  1  0
  7 28  1  0
 28 29  2  0
 28 30  1  0
 30 31  1  0
 28 32  1  0
 32 33  1  0
 26 11  1  0
 24 16  1  0
M  END
>  <cnnaffinity>  (1) 
-4.89571

>  <filename>  (1) 
O=P(O)(O)C(Nc1csc(-c2cccnc2)c1)P(=O)(O)O

$$$$
