
     RDKit          3D

 29 31  0  0  0  0  0  0  0  0999 V2000
    5.2788    2.6837   24.7450 H   0  0  0  0  0  0  0  0  0  0  0  0
    6.1079    3.1293   24.4268 O   0  0  0  0  0  0  0  0  0  0  0  0
    6.6214    1.7013   24.0852 P   0  0  0  0  0  0  0  0  0  0  0  0
    7.0945    0.8435   25.1958 O   0  0  0  0  0  0  0  0  0  0  0  0
    5.0832    2.0135   24.0737 O   0  0  0  0  0  0  0  0  0  0  0  0
    5.2892    2.9780   23.9491 H   0  0  0  0  0  0  0  0  0  0  0  0
    7.7609    1.2883   22.5357 C   0  0  0  0  0  0  0  0  0  0  0  0
    9.0550    1.6346   22.7934 F   0  0  0  0  0  0  0  0  0  0  0  0
    7.3895    2.0175   21.4444 F   0  0  0  0  0  0  0  0  0  0  0  0
    7.8216   -0.1658   22.0970 C   0  0  0  0  0  0  0  0  0  0  0  0
    7.4014   -0.7450   20.9129 C   0  0  0  0  0  0  0  0  0  0  0  0
    6.7152   -0.0513   19.8510 C   0  0  0  0  0  0  0  0  0  0  0  0
    7.1492   -0.2406   18.5396 C   0  0  0  0  0  0  0  0  0  0  0  0
    7.9949   -0.8953   18.3454 H   0  0  0  0  0  0  0  0  0  0  0  0
    6.5909    0.3924   17.4958 N   0  0  0  0  0  0  0  0  0  0  0  0
    5.5471    1.2112   17.7291 C   0  0  0  0  0  0  0  0  0  0  0  0
    5.0802    1.7252   16.8952 H   0  0  0  0  0  0  0  0  0  0  0  0
    5.0354    1.4142   19.0122 C   0  0  0  0  0  0  0  0  0  0  0  0
    4.1796    2.0658   19.1466 H   0  0  0  0  0  0  0  0  0  0  0  0
    5.6311    0.7945   20.1026 C   0  0  0  0  0  0  0  0  0  0  0  0
    5.2542    0.9596   21.1119 H   0  0  0  0  0  0  0  0  0  0  0  0
    7.6825   -2.1115   20.8655 N   0  0  0  0  0  0  0  0  0  0  0  0
    8.2693   -2.3258   22.0190 C   0  0  0  0  0  0  0  0  0  0  0  0
    8.9227   -3.7333   22.8350 S   0  0  0  0  0  0  0  0  0  0  0  0
    9.4045   -2.6807   24.1893 C   0  0  0  0  0  0  0  0  0  0  0  0
    9.9187   -3.0426   25.0766 H   0  0  0  0  0  0  0  0  0  0  0  0
    9.0620   -1.3525   23.9871 C   0  0  0  0  0  0  0  0  0  0  0  0
    9.2802   -0.5228   24.6540 H   0  0  0  0  0  0  0  0  0  0  0  0
    8.3961   -1.2057   22.7798 N   0  0  0  0  0  0  0  0  0  0  0  0
  1  2  1  0
  2  3  1  0
  3  4  2  0
  3  5  1  0
  5  6  1  0
  3  7  1  0
  7  8  1  0
  7  9  1  0
  7 10  1  0
 10 11  2  0
 11 12  1  0
 12 13  2  0
 13 14  1  0
 13 15  1  0
 15 16  2  0
 16 17  1  0
 16 18  1  0
 18 19  1  0
 18 20  2  0
 20 21  1  0
 11 22  1  0
 22 23  2  0
 23 24  1  0
 24 25  1  0
 25 26  1  0
 25 27  2  0
 27 28  1  0
 27 29  1  0
 29 10  1  0
 20 12  1  0
 29 23  1  0
M  END
>  <cnnaffinity>  (1) 
-5.12693

>  <filename>  (1) 
O=P(O)(O)C(F)(F)c1c(-c2cccnc2)nc2sccn12

$$$$
