
     RDKit          3D

 27 28  0  0  0  0  0  0  0  0999 V2000
    5.9888   -4.2595   21.3681 H   0  0  0  0  0  0  0  0  0  0  0  0
    6.4507   -3.4100   21.3654 O   0  0  0  0  0  0  0  0  0  0  0  0
    7.8334   -3.8529   22.0059 P   0  0  0  0  0  0  0  0  0  0  0  0
    8.1601   -5.0620   21.2343 O   0  0  0  0  0  0  0  0  0  0  0  0
    7.3314   -4.2844   23.4271 O   0  0  0  0  0  0  0  0  0  0  0  0
    6.6723   -4.9377   23.1575 H   0  0  0  0  0  0  0  0  0  0  0  0
    9.2106   -2.6682   22.0820 C   0  0  0  0  0  0  0  0  0  0  0  0
   10.0924   -2.8820   23.1176 F   0  0  0  0  0  0  0  0  0  0  0  0
    9.9564   -2.4894   20.9444 F   0  0  0  0  0  0  0  0  0  0  0  0
    8.1763   -1.6298   22.2741 C   0  0  0  0  0  0  0  0  0  0  0  0
    7.7834   -1.3151   23.5067 N   0  0  0  0  0  0  0  0  0  0  0  0
    6.8430   -0.3753   23.6484 C   0  0  0  0  0  0  0  0  0  0  0  0
    6.5524   -0.0490   24.6416 H   0  0  0  0  0  0  0  0  0  0  0  0
    6.2447    0.1952   22.5430 C   0  0  0  0  0  0  0  0  0  0  0  0
    5.4795    0.9527   22.6467 H   0  0  0  0  0  0  0  0  0  0  0  0
    6.6323   -0.2316   21.2950 C   0  0  0  0  0  0  0  0  0  0  0  0
    6.1102    0.3561   20.0780 C   0  0  0  0  0  0  0  0  0  0  0  0
    6.7871    0.0528   18.8937 C   0  0  0  0  0  0  0  0  0  0  0  0
    7.6565   -0.5971   18.9355 H   0  0  0  0  0  0  0  0  0  0  0  0
    6.4314    0.5457   17.7004 N   0  0  0  0  0  0  0  0  0  0  0  0
    5.3753    1.3699   17.6458 C   0  0  0  0  0  0  0  0  0  0  0  0
    5.0814    1.7807   16.6856 H   0  0  0  0  0  0  0  0  0  0  0  0
    4.6471    1.7255   18.7795 C   0  0  0  0  0  0  0  0  0  0  0  0
    3.8071    2.3999   18.6600 H   0  0  0  0  0  0  0  0  0  0  0  0
    5.0119    1.2276   20.0264 C   0  0  0  0  0  0  0  0  0  0  0  0
    4.4500    1.5244   20.9110 H   0  0  0  0  0  0  0  0  0  0  0  0
    7.5688   -1.1688   21.1782 N   0  0  0  0  0  0  0  0  0  0  0  0
  1  2  1  0
  2  3  1  0
  3  4  2  0
  3  5  1  0
  5  6  1  0
  3  7  1  0
  7  8  1  0
  7  9  1  0
  7 10  1  0
 10 11  2  0
 11 12  1  0
 12 13  1  0
 12 14  2  0
 14 15  1  0
 14 16  1  0
 16 17  1  0
 17 18  2  0
 18 19  1  0
 18 20  1  0
 20 21  2  0
 21 22  1  0
 21 23  1  0
 23 24  1  0
 23 25  2  0
 25 26  1  0
 16 27  2  0
 27 10  1  0
 25 17  1  0
M  END
>  <cnnaffinity>  (1) 
-4.73326

>  <filename>  (1) 
O=P(O)(O)C(F)(F)c1nccc(-c2cccnc2)n1

$$$$
