
     RDKit          3D

 34 36  0  0  0  0  0  0  0  0999 V2000
    3.8525   -4.2301   28.5202 H   0  0  0  0  0  0  0  0  0  0  0  0
    4.7456   -4.2449   28.1413 O   0  0  0  0  0  0  0  0  0  0  0  0
    4.3334   -3.4652   26.8782 P   0  0  0  0  0  0  0  0  0  0  0  0
    2.9010   -3.8108   26.8480 O   0  0  0  0  0  0  0  0  0  0  0  0
    4.3198   -2.0014   27.3197 O   0  0  0  0  0  0  0  0  0  0  0  0
    3.7726   -2.1236   28.1025 H   0  0  0  0  0  0  0  0  0  0  0  0
    5.4810   -3.7219   25.4287 C   0  0  0  0  0  0  0  0  0  0  0  0
    6.4790   -3.8472   25.8443 H   0  0  0  0  0  0  0  0  0  0  0  0
    5.5997   -2.8786   24.0662 N   0  0  0  0  0  0  0  0  0  0  0  0
    4.8514   -2.2348   23.7528 H   0  0  0  0  0  0  0  0  0  0  0  0
    6.7459   -2.5699   23.3044 C   0  0  0  0  0  0  0  0  0  0  0  0
    6.5102   -1.7961   22.2604 N   0  0  0  0  0  0  0  0  0  0  0  0
    7.7074   -1.5716   21.6343 N   0  0  0  0  0  0  0  0  0  0  0  0
    8.1546   -0.9198   20.4995 C   0  0  0  0  0  0  0  0  0  0  0  0
    7.3383   -0.1618   19.5708 C   0  0  0  0  0  0  0  0  0  0  0  0
    7.8421    0.1600   18.3078 C   0  0  0  0  0  0  0  0  0  0  0  0
    8.8491   -0.1464   18.0358 H   0  0  0  0  0  0  0  0  0  0  0  0
    7.1181    0.8279   17.3962 N   0  0  0  0  0  0  0  0  0  0  0  0
    5.8718    1.2115   17.7206 C   0  0  0  0  0  0  0  0  0  0  0  0
    5.2788    1.7567   16.9920 H   0  0  0  0  0  0  0  0  0  0  0  0
    5.3101    0.9317   18.9683 C   0  0  0  0  0  0  0  0  0  0  0  0
    4.3048    1.2693   19.1860 H   0  0  0  0  0  0  0  0  0  0  0  0
    6.0440    0.2319   19.9184 C   0  0  0  0  0  0  0  0  0  0  0  0
    5.6195    0.0141   20.9003 H   0  0  0  0  0  0  0  0  0  0  0  0
    9.4530   -1.1299   20.3963 N   0  0  0  0  0  0  0  0  0  0  0  0
    9.8736   -1.9206   21.4567 N   0  0  0  0  0  0  0  0  0  0  0  0
    8.7961   -2.1594   22.1595 C   0  0  0  0  0  0  0  0  0  0  0  0
    8.4216   -3.0863   23.5830 S   0  0  0  0  0  0  0  0  0  0  0  0
    4.6186   -5.3169   25.7215 P   0  0  0  0  0  0  0  0  0  0  0  0
    3.4261   -5.2294   24.8904 O   0  0  0  0  0  0  0  0  0  0  0  0
    5.3582   -6.6261   25.9651 O   0  0  0  0  0  0  0  0  0  0  0  0
    5.2339   -6.5077   26.9404 H   0  0  0  0  0  0  0  0  0  0  0  0
    4.4045   -6.0632   27.0460 O   0  0  0  0  0  0  0  0  0  0  0  0
    4.6091   -6.8759   26.5177 H   0  0  0  0  0  0  0  0  0  0  0  0
  1  2  1  0
  2  3  1  0
  3  4  2  0
  3  5  1  0
  5  6  1  0
  3  7  1  0
  7  8  1  0
  7  9  1  0
  9 10  1  0
  9 11  1  0
 11 12  2  0
 12 13  1  0
 13 14  1  0
 14 15  1  0
 15 16  2  0
 16 17  1  0
 16 18  1  0
 18 19  2  0
 19 20  1  0
 19 21  1  0
 21 22  1  0
 21 23  2  0
 23 24  1  0
 14 25  2  0
 25 26  1  0
 26 27  2  0
 27 28  1  0
  7 29  1  0
 29 30  2  0
 29 31  1  0
 31 32  1  0
 29 33  1  0
 33 34  1  0
 28 11  1  0
 27 13  1  0
 23 15  1  0
M  END
>  <cnnaffinity>  (1) 
-5.20198

>  <filename>  (1) 
O=P(O)(O)C(Nc1nn2c(-c3cccnc3)nnc2s1)P(=O)(O)O

$$$$
