
     RDKit          3D

 26 28  0  0  0  0  0  0  0  0999 V2000
    5.9455    0.6771   24.2520 H   0  0  0  0  0  0  0  0  0  0  0  0
    5.6862    1.0951   23.4219 O   0  0  0  0  0  0  0  0  0  0  0  0
    7.1175    1.2578   22.8400 P   0  0  0  0  0  0  0  0  0  0  0  0
    7.9575    1.7358   23.9374 O   0  0  0  0  0  0  0  0  0  0  0  0
    7.1344    2.3643   21.7603 O   0  0  0  0  0  0  0  0  0  0  0  0
    6.9431    3.0840   22.3785 H   0  0  0  0  0  0  0  0  0  0  0  0
    7.6259   -0.2351   22.2679 C   0  0  0  0  0  0  0  0  0  0  0  0
    7.3771   -0.6065   21.0082 C   0  0  0  0  0  0  0  0  0  0  0  0
    6.6510    0.1115   20.0006 C   0  0  0  0  0  0  0  0  0  0  0  0
    7.1809    0.0450   18.7175 C   0  0  0  0  0  0  0  0  0  0  0  0
    8.1108   -0.4946   18.5522 H   0  0  0  0  0  0  0  0  0  0  0  0
    6.5940    0.6381   17.6688 N   0  0  0  0  0  0  0  0  0  0  0  0
    5.4319    1.2862   17.8666 C   0  0  0  0  0  0  0  0  0  0  0  0
    4.9448    1.7539   17.0161 H   0  0  0  0  0  0  0  0  0  0  0  0
    4.8157    1.3559   19.1207 C   0  0  0  0  0  0  0  0  0  0  0  0
    3.8613    1.8646   19.2153 H   0  0  0  0  0  0  0  0  0  0  0  0
    5.4386    0.7775   20.2253 C   0  0  0  0  0  0  0  0  0  0  0  0
    4.9721    0.8253   21.2095 H   0  0  0  0  0  0  0  0  0  0  0  0
    7.8863   -1.8818   20.7802 N   0  0  0  0  0  0  0  0  0  0  0  0
    8.3743   -2.2524   21.9449 C   0  0  0  0  0  0  0  0  0  0  0  0
    9.1187   -3.6777   22.6333 S   0  0  0  0  0  0  0  0  0  0  0  0
    9.3387   -2.7931   24.1590 C   0  0  0  0  0  0  0  0  0  0  0  0
    9.8722   -3.2243   25.0015 H   0  0  0  0  0  0  0  0  0  0  0  0
    8.8057   -1.5133   24.1324 C   0  0  0  0  0  0  0  0  0  0  0  0
    8.8420   -0.7841   24.9441 H   0  0  0  0  0  0  0  0  0  0  0  0
    8.2617   -1.2760   22.8787 N   0  0  0  0  0  0  0  0  0  0  0  0
  1  2  1  0
  2  3  1  0
  3  4  2  0
  3  5  1  0
  5  6  1  0
  3  7  1  0
  7  8  2  0
  8  9  1  0
  9 10  2  0
 10 11  1  0
 10 12  1  0
 12 13  2  0
 13 14  1  0
 13 15  1  0
 15 16  1  0
 15 17  2  0
 17 18  1  0
  8 19  1  0
 19 20  2  0
 20 21  1  0
 21 22  1  0
 22 23  1  0
 22 24  2  0
 24 25  1  0
 24 26  1  0
 26  7  1  0
 17  9  1  0
 26 20  1  0
M  END
>  <cnnaffinity>  (1) 
-4.80317

>  <filename>  (1) 
O=P(O)(O)c1c(-c2cccnc2)nc2sccn12

$$$$
