
     RDKit          3D

 36 38  0  0  0  0  0  0  0  0999 V2000
    6.8911    4.6150   24.3418 H   0  0  0  0  0  0  0  0  0  0  0  0
    6.6774    3.6892   24.6950 O   0  0  0  0  0  0  0  0  0  0  0  0
    6.4305    3.5999   23.2808 P   0  0  0  0  0  0  0  0  0  0  0  0
    6.9063    4.9720   23.4342 O   0  0  0  0  0  0  0  0  0  0  0  0
    5.5369    4.3416   22.4686 O   0  0  0  0  0  0  0  0  0  0  0  0
    6.1185    5.0592   22.8745 H   0  0  0  0  0  0  0  0  0  0  0  0
    6.7516    2.0668   22.5586 C   0  0  0  0  0  0  0  0  0  0  0  0
    6.4516    2.1246   21.5204 H   0  0  0  0  0  0  0  0  0  0  0  0
    6.4451    0.6589   23.1230 N   0  0  0  0  0  0  0  0  0  0  0  0
    6.0944    0.4780   24.0827 H   0  0  0  0  0  0  0  0  0  0  0  0
    7.1214   -0.4023   22.5239 C   0  0  0  0  0  0  0  0  0  0  0  0
    7.2867   -0.7361   21.1817 C   0  0  0  0  0  0  0  0  0  0  0  0
    6.6923   -0.0834   20.0200 C   0  0  0  0  0  0  0  0  0  0  0  0
    7.2163   -0.3833   18.7582 C   0  0  0  0  0  0  0  0  0  0  0  0
    8.0382   -1.0926   18.6938 H   0  0  0  0  0  0  0  0  0  0  0  0
    6.7553    0.1782   17.6269 N   0  0  0  0  0  0  0  0  0  0  0  0
    5.7445    1.0609   17.7174 C   0  0  0  0  0  0  0  0  0  0  0  0
    5.3726    1.5211   16.8065 H   0  0  0  0  0  0  0  0  0  0  0  0
    5.1609    1.4012   18.9404 C   0  0  0  0  0  0  0  0  0  0  0  0
    4.3581    2.1303   18.9524 H   0  0  0  0  0  0  0  0  0  0  0  0
    5.6169    0.8108   20.1161 C   0  0  0  0  0  0  0  0  0  0  0  0
    5.1395    1.0494   21.0678 H   0  0  0  0  0  0  0  0  0  0  0  0
    8.1127   -1.8609   21.0207 N   0  0  0  0  0  0  0  0  0  0  0  0
    8.3982   -2.1766   22.2599 C   0  0  0  0  0  0  0  0  0  0  0  0
    9.3731   -3.4363   22.9912 S   0  0  0  0  0  0  0  0  0  0  0  0
    8.9777   -2.7735   24.5882 C   0  0  0  0  0  0  0  0  0  0  0  0
    9.3563   -3.2016   25.5140 H   0  0  0  0  0  0  0  0  0  0  0  0
    8.1473   -1.6675   24.5190 C   0  0  0  0  0  0  0  0  0  0  0  0
    7.7971   -1.1099   25.3829 H   0  0  0  0  0  0  0  0  0  0  0  0
    7.8318   -1.3672   23.1952 N   0  0  0  0  0  0  0  0  0  0  0  0
    8.2561    2.9774   22.6877 P   0  0  0  0  0  0  0  0  0  0  0  0
    8.8867    3.6604   23.8265 O   0  0  0  0  0  0  0  0  0  0  0  0
    8.2782    4.0211   21.5612 O   0  0  0  0  0  0  0  0  0  0  0  0
    9.0980    4.4414   21.8560 H   0  0  0  0  0  0  0  0  0  0  0  0
    9.4477    2.2183   22.9708 O   0  0  0  0  0  0  0  0  0  0  0  0
    9.5443    2.9823   23.6168 H   0  0  0  0  0  0  0  0  0  0  0  0
  1  2  1  0
  2  3  1  0
  3  4  2  0
  3  5  1  0
  5  6  1  0
  3  7  1  0
  7  8  1  0
  7  9  1  0
  9 10  1  0
  9 11  1  0
 11 12  2  0
 12 13  1  0
 13 14  2  0
 14 15  1  0
 14 16  1  0
 16 17  2  0
 17 18  1  0
 17 19  1  0
 19 20  1  0
 19 21  2  0
 21 22  1  0
 12 23  1  0
 23 24  2  0
 24 25  1  0
 25 26  1  0
 26 27  1  0
 26 28  2  0
 28 29  1  0
 28 30  1  0
  7 31  1  0
 31 32  2  0
 31 33  1  0
 33 34  1  0
 31 35  1  0
 35 36  1  0
 30 11  1  0
 21 13  1  0
 30 24  1  0
M  END
>  <cnnaffinity>  (1) 
-5.08428

>  <filename>  (1) 
O=P(O)(O)C(Nc1c(-c2cccnc2)nc2sccn12)P(=O)(O)O

$$$$
