
     RDKit          3D

 27 28  0  0  0  0  0  0  0  0999 V2000
    7.2943   -3.1454   26.5000 H   0  0  0  0  0  0  0  0  0  0  0  0
    7.5250   -3.2499   25.5399 O   0  0  0  0  0  0  0  0  0  0  0  0
    7.5367   -1.6948   25.4886 P   0  0  0  0  0  0  0  0  0  0  0  0
    6.2589   -0.9587   25.4759 O   0  0  0  0  0  0  0  0  0  0  0  0
    7.8675   -2.4403   26.8256 O   0  0  0  0  0  0  0  0  0  0  0  0
    8.0984   -3.2489   26.3050 H   0  0  0  0  0  0  0  0  0  0  0  0
    8.7184   -0.7063   24.3421 C   0  0  0  0  0  0  0  0  0  0  0  0
    9.9988   -1.1785   24.3934 F   0  0  0  0  0  0  0  0  0  0  0  0
    8.7884    0.6348   24.6106 F   0  0  0  0  0  0  0  0  0  0  0  0
    8.1770   -0.9367   22.9501 C   0  0  0  0  0  0  0  0  0  0  0  0
    7.9463   -0.0309   21.9411 C   0  0  0  0  0  0  0  0  0  0  0  0
    8.1630    1.0341   21.9773 H   0  0  0  0  0  0  0  0  0  0  0  0
    7.3256   -0.6928   20.8785 N   0  0  0  0  0  0  0  0  0  0  0  0
    6.6654   -0.0229   19.8400 C   0  0  0  0  0  0  0  0  0  0  0  0
    7.1622   -0.0461   18.5232 C   0  0  0  0  0  0  0  0  0  0  0  0
    8.0788   -0.5902   18.3208 H   0  0  0  0  0  0  0  0  0  0  0  0
    6.5677    0.5991   17.4984 N   0  0  0  0  0  0  0  0  0  0  0  0
    5.4538    1.3067   17.7600 C   0  0  0  0  0  0  0  0  0  0  0  0
    4.9574    1.8292   16.9470 H   0  0  0  0  0  0  0  0  0  0  0  0
    4.9080    1.3964   19.0466 C   0  0  0  0  0  0  0  0  0  0  0  0
    4.0219    1.9983   19.2108 H   0  0  0  0  0  0  0  0  0  0  0  0
    5.5152    0.7181   20.1067 C   0  0  0  0  0  0  0  0  0  0  0  0
    5.1199    0.7632   21.1204 H   0  0  0  0  0  0  0  0  0  0  0  0
    7.0752   -2.0042   21.2872 C   0  0  0  0  0  0  0  0  0  0  0  0
    6.1255   -3.1868   20.5878 S   0  0  0  0  0  0  0  0  0  0  0  0
    7.6860   -2.1658   22.5134 N   0  0  0  0  0  0  0  0  0  0  0  0
    7.4732   -2.9617   23.1079 H   0  0  0  0  0  0  0  0  0  0  0  0
  1  2  1  0
  2  3  1  0
  3  4  2  0
  3  5  1  0
  5  6  1  0
  3  7  1  0
  7  8  1  0
  7  9  1  0
  7 10  1  0
 10 11  2  0
 11 12  1  0
 11 13  1  0
 13 14  1  0
 14 15  2  0
 15 16  1  0
 15 17  1  0
 17 18  2  0
 18 19  1  0
 18 20  1  0
 20 21  1  0
 20 22  2  0
 22 23  1  0
 13 24  1  0
 24 25  2  0
 24 26  1  0
 26 27  1  0
 26 10  1  0
 22 14  1  0
M  END
>  <cnnaffinity>  (1) 
-5.0795

>  <filename>  (1) 
O=P(O)(O)C(F)(F)c1cn(-c2cccnc2)c(=S)[nH]1

$$$$
