
     RDKit          3D

 32 34  0  0  0  0  0  0  0  0999 V2000
    5.0431    1.7603   17.0003 H   0  0  0  0  0  0  0  0  0  0  0  0
    5.4871    1.2815   17.8702 C   0  0  0  0  0  0  0  0  0  0  0  0
    6.6586    0.6557   17.6645 N   0  0  0  0  0  0  0  0  0  0  0  0
    7.2350    0.0618   18.7085 C   0  0  0  0  0  0  0  0  0  0  0  0
    8.1541   -0.4919   18.5200 H   0  0  0  0  0  0  0  0  0  0  0  0
    6.6982    0.0946   20.0089 C   0  0  0  0  0  0  0  0  0  0  0  0
    7.3947   -0.6272   21.0183 N   0  0  0  0  0  0  0  0  0  0  0  0
    7.7675   -1.9069   20.7737 N   0  0  0  0  0  0  0  0  0  0  0  0
    8.3331   -2.3462   21.8313 N   0  0  0  0  0  0  0  0  0  0  0  0
    8.3752   -1.3997   22.7858 N   0  0  0  0  0  0  0  0  0  0  0  0
    7.7890   -0.3409   22.2713 C   0  0  0  0  0  0  0  0  0  0  0  0
    7.8556    1.2932   22.9963 S   0  0  0  0  0  0  0  0  0  0  0  0
    7.7356    1.1312   24.4285 O   0  0  0  0  0  0  0  0  0  0  0  0
    7.0222    2.1938   22.2270 O   0  0  0  0  0  0  0  0  0  0  0  0
    9.4223    1.7355   22.6875 N   0  0  0  0  0  0  0  0  0  0  0  0
   10.5286    0.9569   23.3075 C   0  0  0  0  0  0  0  0  0  0  0  0
   11.0761    1.6104   24.0042 H   0  0  0  0  0  0  0  0  0  0  0  0
   10.1373    0.1072   23.8773 H   0  0  0  0  0  0  0  0  0  0  0  0
   11.4573    0.4312   22.1966 C   0  0  0  0  0  0  0  0  0  0  0  0
   12.3066   -0.1134   22.6105 H   0  0  0  0  0  0  0  0  0  0  0  0
   10.8670   -0.2673   21.5775 H   0  0  0  0  0  0  0  0  0  0  0  0
   12.0100    1.4609   21.3811 O   0  0  0  0  0  0  0  0  0  0  0  0
   11.2040    2.6286   21.2516 C   0  0  0  0  0  0  0  0  0  0  0  0
   11.4479    3.3511   22.0467 H   0  0  0  0  0  0  0  0  0  0  0  0
   11.4839    3.0825   20.2963 H   0  0  0  0  0  0  0  0  0  0  0  0
    9.7020    2.2997   21.3397 C   0  0  0  0  0  0  0  0  0  0  0  0
    9.4549    1.5591   20.5649 H   0  0  0  0  0  0  0  0  0  0  0  0
    9.0660    3.1741   21.1715 H   0  0  0  0  0  0  0  0  0  0  0  0
    5.4706    0.7275   20.2258 C   0  0  0  0  0  0  0  0  0  0  0  0
    5.0279    0.7939   21.2228 H   0  0  0  0  0  0  0  0  0  0  0  0
    4.8546    1.3259   19.1164 C   0  0  0  0  0  0  0  0  0  0  0  0
    3.9116    1.8522   19.2186 H   0  0  0  0  0  0  0  0  0  0  0  0
  1  2  1  0
  2  3  2  0
  3  4  1  0
  4  5  1  0
  4  6  2  0
  6  7  1  0
  7  8  1  0
  8  9  2  0
  9 10  1  0
 10 11  2  0
 11 12  1  0
 12 13  2  0
 12 14  2  0
 12 15  1  0
 15 16  1  0
 16 17  1  0
 16 18  1  0
 16 19  1  0
 19 20  1  0
 19 21  1  0
 19 22  1  0
 22 23  1  0
 23 24  1  0
 23 25  1  0
 23 26  1  0
 26 27  1  0
 26 28  1  0
  6 29  1  0
 29 30  1  0
 29 31  2  0
 31 32  1  0
 31  2  1  0
 11  7  1  0
 26 15  1  0
M  END
>  <cnnaffinity>  (1) 
-4.94802

>  <filename>  (1) 
O=S(=O)(c1nnnn1-c1cccnc1)N1CCOCC1

$$$$
