
     RDKit          3D

 33 35  0  0  0  0  0  0  0  0999 V2000
    4.9676    1.8269   16.9797 H   0  0  0  0  0  0  0  0  0  0  0  0
    5.4135    1.3441   17.8468 C   0  0  0  0  0  0  0  0  0  0  0  0
    6.5924    0.7374   17.6376 N   0  0  0  0  0  0  0  0  0  0  0  0
    7.1632    0.1202   18.6809 C   0  0  0  0  0  0  0  0  0  0  0  0
    8.1342   -0.3374   18.4828 H   0  0  0  0  0  0  0  0  0  0  0  0
    6.5904    0.0541   19.9737 C   0  0  0  0  0  0  0  0  0  0  0  0
    7.2042   -0.7279   21.0696 C   0  0  0  0  0  0  0  0  0  0  0  0
    7.5948   -2.0334   21.1199 C   0  0  0  0  0  0  0  0  0  0  0  0
    7.4018   -2.7768   20.3633 H   0  0  0  0  0  0  0  0  0  0  0  0
    8.2358   -2.3513   22.2912 N   0  0  0  0  0  0  0  0  0  0  0  0
    8.2089   -1.2419   22.9838 C   0  0  0  0  0  0  0  0  0  0  0  0
    8.6434   -1.0630   23.9682 H   0  0  0  0  0  0  0  0  0  0  0  0
    7.5301   -0.2345   22.3232 N   0  0  0  0  0  0  0  0  0  0  0  0
    7.4009    1.1348   22.7333 N   0  0  0  0  0  0  0  0  0  0  0  0
    6.5030    1.5247   22.4754 H   0  0  0  0  0  0  0  0  0  0  0  0
    7.3293    1.6186   24.3732 S   0  0  0  0  0  0  0  0  0  0  0  0
    6.8145    2.9618   24.2370 O   0  0  0  0  0  0  0  0  0  0  0  0
    6.6352    0.6089   25.1397 O   0  0  0  0  0  0  0  0  0  0  0  0
    9.0694    1.5198   24.7187 C   0  0  0  0  0  0  0  0  0  0  0  0
    9.9845    1.9391   23.7372 C   0  0  0  0  0  0  0  0  0  0  0  0
    9.6594    2.4745   22.8451 H   0  0  0  0  0  0  0  0  0  0  0  0
   11.3350    1.6197   23.8901 C   0  0  0  0  0  0  0  0  0  0  0  0
   12.0316    1.8751   23.0990 H   0  0  0  0  0  0  0  0  0  0  0  0
   11.7804    0.9257   25.0175 C   0  0  0  0  0  0  0  0  0  0  0  0
   12.8337    0.6662   25.1153 H   0  0  0  0  0  0  0  0  0  0  0  0
   10.8593    0.5691   26.0089 C   0  0  0  0  0  0  0  0  0  0  0  0
   11.1734    0.0678   26.9142 H   0  0  0  0  0  0  0  0  0  0  0  0
    9.5013    0.8533   25.8700 C   0  0  0  0  0  0  0  0  0  0  0  0
    8.8093    0.5273   26.6487 H   0  0  0  0  0  0  0  0  0  0  0  0
    5.3792    0.7355   20.1706 C   0  0  0  0  0  0  0  0  0  0  0  0
    4.9226    0.7425   21.1621 H   0  0  0  0  0  0  0  0  0  0  0  0
    4.7725    1.3715   19.0873 C   0  0  0  0  0  0  0  0  0  0  0  0
    3.8322    1.8963   19.2017 H   0  0  0  0  0  0  0  0  0  0  0  0
  1  2  1  0
  2  3  2  0
  3  4  1  0
  4  5  1  0
  4  6  2  0
  6  7  1  0
  7  8  2  0
  8  9  1  0
  8 10  1  0
 10 11  2  0
 11 12  1  0
 11 13  1  0
 13 14  1  0
 14 15  1  0
 14 16  1  0
 16 17  2  0
 16 18  2  0
 16 19  1  0
 19 20  2  0
 20 21  1  0
 20 22  1  0
 22 23  1  0
 22 24  2  0
 24 25  1  0
 24 26  1  0
 26 27  1  0
 26 28  2  0
 28 29  1  0
  6 30  1  0
 30 31  1  0
 30 32  2  0
 32 33  1  0
 32  2  1  0
 13  7  1  0
 28 19  1  0
M  END
>  <cnnaffinity>  (1) 
-5.10839

>  <filename>  (1) 
O=S(=O)(Nn1cncc1-c1cccnc1)c1ccccc1

$$$$
