
     RDKit          3D

 41 44  0  0  0  0  0  0  0  0999 V2000
    5.1340    1.6215   17.0797 H   0  0  0  0  0  0  0  0  0  0  0  0
    5.5154    1.0988   17.9536 C   0  0  0  0  0  0  0  0  0  0  0  0
    6.5779    0.3070   17.7520 N   0  0  0  0  0  0  0  0  0  0  0  0
    7.0897   -0.3405   18.8068 C   0  0  0  0  0  0  0  0  0  0  0  0
    7.9709   -0.9447   18.6045 H   0  0  0  0  0  0  0  0  0  0  0  0
    6.5748   -0.2287   20.1093 C   0  0  0  0  0  0  0  0  0  0  0  0
    7.2391   -0.9034   21.2323 C   0  0  0  0  0  0  0  0  0  0  0  0
    6.5610   -1.6690   22.0891 N   0  0  0  0  0  0  0  0  0  0  0  0
    7.4882   -2.1163   22.9419 N   0  0  0  0  0  0  0  0  0  0  0  0
    8.7282   -1.6815   22.6972 C   0  0  0  0  0  0  0  0  0  0  0  0
    8.6102   -0.9037   21.5729 C   0  0  0  0  0  0  0  0  0  0  0  0
    9.6209    0.4040   21.1493 S   0  0  0  0  0  0  0  0  0  0  0  0
   10.9542    0.1664   21.6651 O   0  0  0  0  0  0  0  0  0  0  0  0
    9.3501    0.6902   19.7614 O   0  0  0  0  0  0  0  0  0  0  0  0
    8.9790    1.6449   22.0235 N   0  0  0  0  0  0  0  0  0  0  0  0
    7.8542    2.4429   21.5398 C   0  0  0  0  0  0  0  0  0  0  0  0
    7.7398    2.3344   20.4566 H   0  0  0  0  0  0  0  0  0  0  0  0
    6.9317    2.0629   22.0026 H   0  0  0  0  0  0  0  0  0  0  0  0
    7.9912    3.9488   21.9194 C   0  0  0  0  0  0  0  0  0  0  0  0
    6.9808    4.3418   22.1127 H   0  0  0  0  0  0  0  0  0  0  0  0
    8.4075    4.5354   21.1037 H   0  0  0  0  0  0  0  0  0  0  0  0
    8.8497    4.2427   23.0135 O   0  0  0  0  0  0  0  0  0  0  0  0
    8.9556    3.2188   23.9736 C   0  0  0  0  0  0  0  0  0  0  0  0
    7.9873    3.0629   24.4788 H   0  0  0  0  0  0  0  0  0  0  0  0
    9.6671    3.5937   24.7135 H   0  0  0  0  0  0  0  0  0  0  0  0
    9.4797    1.8894   23.3790 C   0  0  0  0  0  0  0  0  0  0  0  0
    9.1851    1.0791   24.0581 H   0  0  0  0  0  0  0  0  0  0  0  0
   10.5736    1.9084   23.3321 H   0  0  0  0  0  0  0  0  0  0  0  0
    9.6597   -2.0303   23.8062 C   0  0  0  0  0  0  0  0  0  0  0  0
   10.5902   -2.4724   23.4413 H   0  0  0  0  0  0  0  0  0  0  0  0
    9.9390   -1.1063   24.3289 H   0  0  0  0  0  0  0  0  0  0  0  0
    8.7968   -2.9967   24.6865 C   0  0  0  0  0  0  0  0  0  0  0  0
    9.2284   -3.9991   24.7157 H   0  0  0  0  0  0  0  0  0  0  0  0
    8.7337   -2.6382   25.7161 H   0  0  0  0  0  0  0  0  0  0  0  0
    7.3741   -3.0608   24.0366 C   0  0  0  0  0  0  0  0  0  0  0  0
    7.1448   -4.0536   23.6345 H   0  0  0  0  0  0  0  0  0  0  0  0
    6.5640   -2.7854   24.7189 H   0  0  0  0  0  0  0  0  0  0  0  0
    5.4236    0.5504   20.2908 C   0  0  0  0  0  0  0  0  0  0  0  0
    4.9567    0.6209   21.2765 H   0  0  0  0  0  0  0  0  0  0  0  0
    4.9019    1.2461   19.2023 C   0  0  0  0  0  0  0  0  0  0  0  0
    4.0373    1.8893   19.3043 H   0  0  0  0  0  0  0  0  0  0  0  0
  1  2  1  0
  2  3  2  0
  3  4  1  0
  4  5  1  0
  4  6  2  0
  6  7  1  0
  7  8  2  0
  8  9  1  0
  9 10  1  0
 10 11  2  0
 11 12  1  0
 12 13  2  0
 12 14  2  0
 12 15  1  0
 15 16  1  0
 16 17  1  0
 16 18  1  0
 16 19  1  0
 19 20  1  0
 19 21  1  0
 19 22  1  0
 22 23  1  0
 23 24  1  0
 23 25  1  0
 23 26  1  0
 26 27  1  0
 26 28  1  0
 10 29  1  0
 29 30  1  0
 29 31  1  0
 29 32  1  0
 32 33  1  0
 32 34  1  0
 32 35  1  0
 35 36  1  0
 35 37  1  0
  6 38  1  0
 38 39  1  0
 38 40  2  0
 40 41  1  0
 40  2  1  0
 11  7  1  0
 26 15  1  0
 35  9  1  0
M  END
>  <cnnaffinity>  (1) 
-5.77517

>  <filename>  (1) 
O=S(=O)(c1c(-c2cccnc2)nn2c1CCC2)N1CCOCC1

$$$$
