
     RDKit          3D

 35 36  0  0  0  0  0  0  0  0999 V2000
    4.9432    1.6408   16.3701 H   0  0  0  0  0  0  0  0  0  0  0  0
    5.4907    1.2554   17.2262 C   0  0  0  0  0  0  0  0  0  0  0  0
    6.4105    0.3203   16.9598 N   0  0  0  0  0  0  0  0  0  0  0  0
    7.1220   -0.1666   17.9826 C   0  0  0  0  0  0  0  0  0  0  0  0
    7.8700   -0.9195   17.7254 H   0  0  0  0  0  0  0  0  0  0  0  0
    6.9613    0.2541   19.3192 C   0  0  0  0  0  0  0  0  0  0  0  0
    7.7375   -0.3472   20.4769 C   0  0  0  0  0  0  0  0  0  0  0  0
    7.0535   -0.8388   21.1775 H   0  0  0  0  0  0  0  0  0  0  0  0
    8.4946   -1.0657   20.1517 H   0  0  0  0  0  0  0  0  0  0  0  0
    8.6535    0.7682   21.5612 S   0  0  0  0  0  0  0  0  0  0  0  0
    7.7155    1.6205   22.2609 O   0  0  0  0  0  0  0  0  0  0  0  0
    9.8327    1.2440   20.8664 O   0  0  0  0  0  0  0  0  0  0  0  0
    9.3478   -0.2542   22.6413 N   0  0  0  0  0  0  0  0  0  0  0  0
   10.2585   -0.3617   22.2189 H   0  0  0  0  0  0  0  0  0  0  0  0
    8.6439   -1.3433   23.2985 C   0  0  0  0  0  0  0  0  0  0  0  0
    8.6357   -2.2651   22.6904 H   0  0  0  0  0  0  0  0  0  0  0  0
    7.5967   -1.0508   23.4498 H   0  0  0  0  0  0  0  0  0  0  0  0
    9.2635   -1.6462   24.6679 C   0  0  0  0  0  0  0  0  0  0  0  0
    9.2836   -0.7230   25.2501 H   0  0  0  0  0  0  0  0  0  0  0  0
   10.3134   -1.9627   24.5394 H   0  0  0  0  0  0  0  0  0  0  0  0
    8.4324   -2.7246   25.3024 C   0  0  0  0  0  0  0  0  0  0  0  0
    7.4555   -2.4100   26.9360 C   0  0  0  0  0  0  0  0  0  0  0  0
    8.0593   -1.8057   27.8496 H   0  0  0  0  0  0  0  0  0  0  0  0
    7.7379   -2.6299   26.9233 C   0  0  0  0  0  0  0  0  0  0  0  0
    6.4412   -1.9198   26.6537 H   0  0  0  0  0  0  0  0  0  0  0  0
    7.3817   -4.2051   27.1558 C   0  0  0  0  0  0  0  0  0  0  0  0
    7.6894   -4.5800   28.1451 H   0  0  0  0  0  0  0  0  0  0  0  0
    7.8237   -4.9027   26.0106 C   0  0  0  0  0  0  0  0  0  0  0  0
    7.7617   -5.9832   25.9048 H   0  0  0  0  0  0  0  0  0  0  0  0
    8.4117   -4.0607   24.9777 C   0  0  0  0  0  0  0  0  0  0  0  0
    8.8120   -4.4617   24.0420 H   0  0  0  0  0  0  0  0  0  0  0  0
    5.9749    1.2160   19.5800 C   0  0  0  0  0  0  0  0  0  0  0  0
    5.8140    1.5599   20.6012 H   0  0  0  0  0  0  0  0  0  0  0  0
    5.2339    1.7275   18.5140 C   0  0  0  0  0  0  0  0  0  0  0  0
    4.4727    2.4819   18.6689 H   0  0  0  0  0  0  0  0  0  0  0  0
  1  2  1  0
  2  3  2  0
  3  4  1  0
  4  5  1  0
  4  6  2  0
  6  7  1  0
  7  8  1  0
  7  9  1  0
  7 10  1  0
 10 11  2  0
 10 12  2  0
 10 13  1  0
 13 14  1  0
 13 15  1  0
 15 16  1  0
 15 17  1  0
 15 18  1  0
 18 19  1  0
 18 20  1  0
 18 21  1  0
 21 22  2  0
 22 23  1  0
 22 24  1  0
 24 25  1  0
 24 26  2  0
 26 27  1  0
 26 28  1  0
 28 29  1  0
 28 30  2  0
 30 31  1  0
  6 32  1  0
 32 33  1  0
 32 34  2  0
 34 35  1  0
 34  2  1  0
 30 21  1  0
M  END
>  <cnnaffinity>  (1) 
-4.47508

>  <filename>  (1) 
O=S(=O)(Cc1cccnc1)NCCc1ccccc1

$$$$
