
     RDKit          3D

 38 40  0  0  0  0  0  0  0  0999 V2000
    7.3817    0.8960   22.3263 H   0  0  0  0  0  0  0  0  0  0  0  0
    7.6403   -0.1418   22.1769 C   0  0  0  0  0  0  0  0  0  0  0  0
    7.2877   -0.7011   20.9895 C   0  0  0  0  0  0  0  0  0  0  0  0
    6.6537    0.0127   19.8859 C   0  0  0  0  0  0  0  0  0  0  0  0
    7.1886    0.0141   18.5830 C   0  0  0  0  0  0  0  0  0  0  0  0
    8.1247   -0.5063   18.3716 H   0  0  0  0  0  0  0  0  0  0  0  0
    6.6157    0.6360   17.5448 N   0  0  0  0  0  0  0  0  0  0  0  0
    5.4513    1.2690   17.7720 C   0  0  0  0  0  0  0  0  0  0  0  0
    4.9962    1.7568   16.9124 H   0  0  0  0  0  0  0  0  0  0  0  0
    4.8291    1.3182   19.0245 C   0  0  0  0  0  0  0  0  0  0  0  0
    3.8893    1.8483   19.1381 H   0  0  0  0  0  0  0  0  0  0  0  0
    5.4522    0.6994   20.1058 C   0  0  0  0  0  0  0  0  0  0  0  0
    5.0157    0.7183   21.1078 H   0  0  0  0  0  0  0  0  0  0  0  0
    7.5033   -2.0473   20.7808 N   0  0  0  0  0  0  0  0  0  0  0  0
    7.1442   -2.5022   19.9570 H   0  0  0  0  0  0  0  0  0  0  0  0
    7.7496   -2.9145   21.7947 C   0  0  0  0  0  0  0  0  0  0  0  0
    7.5538   -4.5480   21.6350 S   0  0  0  0  0  0  0  0  0  0  0  0
    8.1688   -2.3557   22.9486 N   0  0  0  0  0  0  0  0  0  0  0  0
    8.2091   -3.0653   23.6657 H   0  0  0  0  0  0  0  0  0  0  0  0
    8.4078   -0.9009   23.1861 C   0  0  1  0  0  0  0  0  0  0  0  0
    8.1644   -0.6698   24.2314 H   0  0  0  0  0  0  0  0  0  0  0  0
   10.3540    0.1484   23.5220 S   0  0  0  0  0  0  0  0  0  0  0  0
   11.1620    0.0839   22.3102 O   0  0  0  0  0  0  0  0  0  0  0  0
   10.8579   -0.3724   24.7898 O   0  0  0  0  0  0  0  0  0  0  0  0
    9.9948    1.7861   23.7608 N   0  0  0  0  0  0  0  0  0  0  0  0
    9.0323    2.0903   24.8313 C   0  0  0  0  0  0  0  0  0  0  0  0
    9.2602    1.5329   25.7511 H   0  0  0  0  0  0  0  0  0  0  0  0
    8.0388    1.7738   24.4870 H   0  0  0  0  0  0  0  0  0  0  0  0
    8.9601    3.6058   25.1825 C   0  0  0  0  0  0  0  0  0  0  0  0
    9.4722    3.7922   26.1384 H   0  0  0  0  0  0  0  0  0  0  0  0
    7.9161    3.8977   25.3216 H   0  0  0  0  0  0  0  0  0  0  0  0
    9.4465    4.4613   24.1736 O   0  0  0  0  0  0  0  0  0  0  0  0
   10.7710    4.1890   23.7525 C   0  0  0  0  0  0  0  0  0  0  0  0
   10.8510    4.6752   22.7773 H   0  0  0  0  0  0  0  0  0  0  0  0
   11.4936    4.6756   24.4274 H   0  0  0  0  0  0  0  0  0  0  0  0
   11.1599    2.6821   23.6378 C   0  0  0  0  0  0  0  0  0  0  0  0
   11.9194    2.4586   24.4035 H   0  0  0  0  0  0  0  0  0  0  0  0
   11.6237    2.4994   22.6626 H   0  0  0  0  0  0  0  0  0  0  0  0
  1  2  1  0
  2  3  2  0
  3  4  1  0
  4  5  2  0
  5  6  1  0
  5  7  1  0
  7  8  2  0
  8  9  1  0
  8 10  1  0
 10 11  1  0
 10 12  2  0
 12 13  1  0
  3 14  1  0
 14 15  1  0
 14 16  1  0
 16 17  2  0
 16 18  1  0
 18 19  1  0
 18 20  1  0
 20 21  1  1
 20 22  1  0
 22 23  2  0
 22 24  2  0
 22 25  1  0
 25 26  1  0
 26 27  1  0
 26 28  1  0
 26 29  1  0
 29 30  1  0
 29 31  1  0
 29 32  1  0
 32 33  1  0
 33 34  1  0
 33 35  1  0
 33 36  1  0
 36 37  1  0
 36 38  1  0
 20  2  1  0
 36 25  1  0
 12  4  1  0
M  END
>  <cnnaffinity>  (1) 
-5.38079

>  <filename>  (1) 
O=S(=O)([C@H]1C=C(c2cccnc2)NC(=S)N1)N1CCOCC1

$$$$
