
     RDKit          3D

 36 38  0  0  0  0  0  0  0  0999 V2000
    5.0989    1.8405   16.9359 H   0  0  0  0  0  0  0  0  0  0  0  0
    5.4984    1.3188   17.8061 C   0  0  0  0  0  0  0  0  0  0  0  0
    6.6448    0.6510   17.6237 N   0  0  0  0  0  0  0  0  0  0  0  0
    7.1658   -0.0060   18.6530 C   0  0  0  0  0  0  0  0  0  0  0  0
    8.0920   -0.5470   18.4652 H   0  0  0  0  0  0  0  0  0  0  0  0
    6.5657   -0.0035   19.9083 C   0  0  0  0  0  0  0  0  0  0  0  0
    7.4021   -0.9616   21.1300 S   0  0  0  0  0  0  0  0  0  0  0  0
    8.3521   -1.8215   20.4306 O   0  0  0  0  0  0  0  0  0  0  0  0
    6.3732   -1.5280   21.9872 O   0  0  0  0  0  0  0  0  0  0  0  0
    8.4524    0.2701   22.0297 C   0  0  0  0  0  0  0  0  0  0  0  0
    7.7779    1.1065   22.2163 H   0  0  0  0  0  0  0  0  0  0  0  0
    9.1636    0.5156   21.2281 H   0  0  0  0  0  0  0  0  0  0  0  0
    9.1435   -0.1228   23.2461 N   0  0  0  0  0  0  0  0  0  0  0  0
   10.2849   -1.0218   23.0590 C   0  0  0  0  0  0  0  0  0  0  0  0
   10.3687   -1.6487   23.9597 H   0  0  0  0  0  0  0  0  0  0  0  0
   10.0671   -1.7021   22.2271 H   0  0  0  0  0  0  0  0  0  0  0  0
   11.6194   -0.3217   22.8348 C   0  0  0  0  0  0  0  0  0  0  0  0
   12.6727   -1.0153   22.2316 C   0  0  0  0  0  0  0  0  0  0  0  0
   12.4945   -2.0066   21.8175 H   0  0  0  0  0  0  0  0  0  0  0  0
   13.9487   -0.4581   22.1754 C   0  0  0  0  0  0  0  0  0  0  0  0
   14.7507   -1.0570   21.7698 H   0  0  0  0  0  0  0  0  0  0  0  0
   14.1741    0.8222   22.6870 C   0  0  0  0  0  0  0  0  0  0  0  0
   15.1542    1.2838   22.6123 H   0  0  0  0  0  0  0  0  0  0  0  0
   13.1142    1.5347   23.2572 C   0  0  0  0  0  0  0  0  0  0  0  0
   13.2947    2.5225   23.6675 H   0  0  0  0  0  0  0  0  0  0  0  0
   11.8239    0.9879   23.3145 C   0  0  0  0  0  0  0  0  0  0  0  0
   10.6408    1.8080   23.8145 C   0  0  0  0  0  0  0  0  0  0  0  0
   10.3240    2.4930   23.0159 H   0  0  0  0  0  0  0  0  0  0  0  0
   10.9374    2.4482   24.6501 H   0  0  0  0  0  0  0  0  0  0  0  0
    9.4462    0.9288   24.2266 C   0  0  0  0  0  0  0  0  0  0  0  0
    8.5511    1.5369   24.4118 H   0  0  0  0  0  0  0  0  0  0  0  0
    9.6871    0.4165   25.1692 H   0  0  0  0  0  0  0  0  0  0  0  0
    5.3755    0.7027   20.1311 C   0  0  0  0  0  0  0  0  0  0  0  0
    4.8771    0.7541   21.1037 H   0  0  0  0  0  0  0  0  0  0  0  0
    4.8373    1.3727   19.0362 C   0  0  0  0  0  0  0  0  0  0  0  0
    3.9246    1.9504   19.1116 H   0  0  0  0  0  0  0  0  0  0  0  0
  1  2  1  0
  2  3  2  0
  3  4  1  0
  4  5  1  0
  4  6  2  0
  6  7  1  0
  7  8  2  0
  7  9  2  0
  7 10  1  0
 10 11  1  0
 10 12  1  0
 10 13  1  0
 13 14  1  0
 14 15  1  0
 14 16  1  0
 14 17  1  0
 17 18  2  0
 18 19  1  0
 18 20  1  0
 20 21  1  0
 20 22  2  0
 22 23  1  0
 22 24  1  0
 24 25  1  0
 24 26  2  0
 26 27  1  0
 27 28  1  0
 27 29  1  0
 27 30  1  0
 30 31  1  0
 30 32  1  0
  6 33  1  0
 33 34  1  0
 33 35  2  0
 35 36  1  0
 35  2  1  0
 30 13  1  0
 26 17  1  0
M  END
>  <cnnaffinity>  (1) 
-5.21357

>  <filename>  (1) 
O=S(=O)(CN1CCc2ccccc2C1)c1cccnc1

$$$$
