
     RDKit          3D

 29 30  0  0  0  0  0  0  0  0999 V2000
    4.8721    1.5516   17.1114 H   0  0  0  0  0  0  0  0  0  0  0  0
    5.5653    1.1683   17.8579 C   0  0  0  0  0  0  0  0  0  0  0  0
    6.6941    0.6009   17.3993 N   0  0  0  0  0  0  0  0  0  0  0  0
    7.5407    0.0806   18.3013 C   0  0  0  0  0  0  0  0  0  0  0  0
    8.4468   -0.3782   17.9079 H   0  0  0  0  0  0  0  0  0  0  0  0
    7.3129    0.0634   19.7056 C   0  0  0  0  0  0  0  0  0  0  0  0
    8.1433   -0.7229   20.5530 N   0  0  0  0  0  0  0  0  0  0  0  0
    9.1418   -0.8440   20.4501 H   0  0  0  0  0  0  0  0  0  0  0  0
    8.0242   -1.0671   22.1633 S   0  0  0  0  0  0  0  0  0  0  0  0
    7.7343    0.1292   22.9303 O   0  0  0  0  0  0  0  0  0  0  0  0
    9.2488   -1.8194   22.3377 O   0  0  0  0  0  0  0  0  0  0  0  0
    6.5783   -2.0868   22.2911 C   0  0  0  0  0  0  0  0  0  0  0  0
    5.8116   -1.3427   22.0794 H   0  0  0  0  0  0  0  0  0  0  0  0
    6.5557   -2.3069   23.3586 H   0  0  0  0  0  0  0  0  0  0  0  0
    6.3812   -3.2763   21.3835 C   0  0  0  0  0  0  0  0  0  0  0  0
    5.9537   -3.0352   20.0689 C   0  0  0  0  0  0  0  0  0  0  0  0
    5.8807   -2.0118   19.7293 H   0  0  0  0  0  0  0  0  0  0  0  0
    5.6299   -4.0678   19.1900 C   0  0  0  0  0  0  0  0  0  0  0  0
    5.2831   -3.8057   18.1985 H   0  0  0  0  0  0  0  0  0  0  0  0
    5.7274   -5.3991   19.6023 C   0  0  0  0  0  0  0  0  0  0  0  0
    5.5000   -6.2137   18.9140 H   0  0  0  0  0  0  0  0  0  0  0  0
    6.1469   -5.6734   20.9038 C   0  0  0  0  0  0  0  0  0  0  0  0
    6.1987   -6.6907   21.2790 H   0  0  0  0  0  0  0  0  0  0  0  0
    6.4888   -4.6246   21.7706 C   0  0  0  0  0  0  0  0  0  0  0  0
    7.0879   -5.0799   23.3444 Cl  0  0  0  0  0  0  0  0  0  0  0  0
    6.1712    0.7328   20.1626 C   0  0  0  0  0  0  0  0  0  0  0  0
    5.9773    0.8571   21.2248 H   0  0  0  0  0  0  0  0  0  0  0  0
    5.2787    1.2710   19.2207 C   0  0  0  0  0  0  0  0  0  0  0  0
    4.3704    1.7685   19.5371 H   0  0  0  0  0  0  0  0  0  0  0  0
  1  2  1  0
  2  3  2  0
  3  4  1  0
  4  5  1  0
  4  6  2  0
  6  7  1  0
  7  8  1  0
  7  9  1  0
  9 10  2  0
  9 11  2  0
  9 12  1  0
 12 13  1  0
 12 14  1  0
 12 15  1  0
 15 16  2  0
 16 17  1  0
 16 18  1  0
 18 19  1  0
 18 20  2  0
 20 21  1  0
 20 22  1  0
 22 23  1  0
 22 24  2  0
 24 25  1  0
  6 26  1  0
 26 27  1  0
 26 28  2  0
 28 29  1  0
 28  2  1  0
 24 15  1  0
M  END
>  <cnnaffinity>  (1) 
-4.43074

>  <filename>  (1) 
O=S(=O)(Cc1ccccc1Cl)Nc1cccnc1

$$$$
