
     RDKit          3D

 35 36  0  0  0  0  0  0  0  0999 V2000
    4.9740    1.8386   17.0398 H   0  0  0  0  0  0  0  0  0  0  0  0
    5.4619    1.2701   17.8317 C   0  0  0  0  0  0  0  0  0  0  0  0
    6.5554    0.5688   17.4863 N   0  0  0  0  0  0  0  0  0  0  0  0
    7.1909   -0.1224   18.4454 C   0  0  0  0  0  0  0  0  0  0  0  0
    8.0639   -0.6876   18.1236 H   0  0  0  0  0  0  0  0  0  0  0  0
    6.7844   -0.1640   19.8080 C   0  0  0  0  0  0  0  0  0  0  0  0
    7.3772   -0.8895   20.8843 N   0  0  0  0  0  0  0  0  0  0  0  0
    6.9131   -0.8578   21.7862 H   0  0  0  0  0  0  0  0  0  0  0  0
    8.8733   -1.3893   21.4037 S   0  0  0  0  0  0  0  0  0  0  0  0
    9.3909   -2.5070   20.6533 O   0  0  0  0  0  0  0  0  0  0  0  0
    8.5560   -1.5032   22.8138 O   0  0  0  0  0  0  0  0  0  0  0  0
    9.9476   -0.0310   21.0264 C   0  0  0  0  0  0  0  0  0  0  0  0
    9.7726    0.0677   19.9515 H   0  0  0  0  0  0  0  0  0  0  0  0
   10.9468   -0.4511   21.1771 H   0  0  0  0  0  0  0  0  0  0  0  0
    9.7799    1.3243   21.7317 C   0  0  0  0  0  0  0  0  0  0  0  0
    8.8235    1.7570   21.3928 H   0  0  0  0  0  0  0  0  0  0  0  0
    9.7554    1.2698   23.2739 C   0  0  0  0  0  0  0  0  0  0  0  0
    9.0129    0.5439   23.6072 H   0  0  0  0  0  0  0  0  0  0  0  0
    9.4311    2.2588   23.6338 H   0  0  0  0  0  0  0  0  0  0  0  0
   11.1345    0.9948   23.9009 C   0  0  0  0  0  0  0  0  0  0  0  0
   11.0419    0.9661   24.9913 H   0  0  0  0  0  0  0  0  0  0  0  0
   11.5016   -0.0036   23.6155 H   0  0  0  0  0  0  0  0  0  0  0  0
   12.1218    2.0916   23.4759 C   0  0  0  0  0  0  0  0  0  0  0  0
   11.7153    3.0549   23.8248 H   0  0  0  0  0  0  0  0  0  0  0  0
   13.0987    1.9719   23.9571 H   0  0  0  0  0  0  0  0  0  0  0  0
   12.2710    2.1356   21.9525 C   0  0  0  0  0  0  0  0  0  0  0  0
   12.7944    1.2362   21.6023 H   0  0  0  0  0  0  0  0  0  0  0  0
   12.8927    2.9963   21.6674 H   0  0  0  0  0  0  0  0  0  0  0  0
   10.9011    2.2871   21.2695 C   0  0  0  0  0  0  0  0  0  0  0  0
   11.0379    2.2336   20.1869 H   0  0  0  0  0  0  0  0  0  0  0  0
   10.5767    3.2956   21.5327 H   0  0  0  0  0  0  0  0  0  0  0  0
    5.6197    0.5428   20.1289 C   0  0  0  0  0  0  0  0  0  0  0  0
    5.2501    0.4849   21.1509 H   0  0  0  0  0  0  0  0  0  0  0  0
    4.9655    1.2821   19.1382 C   0  0  0  0  0  0  0  0  0  0  0  0
    4.0890    1.8786   19.3690 H   0  0  0  0  0  0  0  0  0  0  0  0
  1  2  1  0
  2  3  2  0
  3  4  1  0
  4  5  1  0
  4  6  2  0
  6  7  1  0
  7  8  1  0
  7  9  1  0
  9 10  2  0
  9 11  2  0
  9 12  1  0
 12 13  1  0
 12 14  1  0
 12 15  1  0
 15 16  1  0
 15 17  1  0
 17 18  1  0
 17 19  1  0
 17 20  1  0
 20 21  1  0
 20 22  1  0
 20 23  1  0
 23 24  1  0
 23 25  1  0
 23 26  1  0
 26 27  1  0
 26 28  1  0
 26 29  1  0
 29 30  1  0
 29 31  1  0
  6 32  1  0
 32 33  1  0
 32 34  2  0
 34 35  1  0
 34  2  1  0
 29 15  1  0
M  END
>  <cnnaffinity>  (1) 
-5.22487

>  <filename>  (1) 
O=S(=O)(CC1CCCCC1)Nc1cccnc1

$$$$
