
     RDKit          3D

 38 41  0  0  0  0  0  0  0  0999 V2000
    4.9965    1.7986   16.8906 H   0  0  0  0  0  0  0  0  0  0  0  0
    5.4290    1.2866   17.7452 C   0  0  0  0  0  0  0  0  0  0  0  0
    6.5705    0.6230   17.5111 N   0  0  0  0  0  0  0  0  0  0  0  0
    7.1433    0.0025   18.5454 C   0  0  0  0  0  0  0  0  0  0  0  0
    8.0618   -0.5426   18.3388 H   0  0  0  0  0  0  0  0  0  0  0  0
    6.6286    0.0270   19.8540 C   0  0  0  0  0  0  0  0  0  0  0  0
    7.4071   -0.5772   20.9459 C   0  0  0  0  0  0  0  0  0  0  0  0
    8.5831   -1.1826   20.6972 N   0  0  0  0  0  0  0  0  0  0  0  0
    8.9691   -1.5979   21.9299 N   0  0  0  0  0  0  0  0  0  0  0  0
   10.1435   -2.0905   22.4936 C   0  0  0  0  0  0  0  0  0  0  0  0
   10.9497   -2.4275   21.8642 H   0  0  0  0  0  0  0  0  0  0  0  0
    9.9814   -2.0489   23.8391 C   0  0  0  0  0  0  0  0  0  0  0  0
   10.6607   -2.3320   24.6326 H   0  0  0  0  0  0  0  0  0  0  0  0
    8.6663   -1.5703   24.1252 N   0  0  0  0  0  0  0  0  0  0  0  0
    8.0796   -0.7853   25.5068 S   0  0  0  0  0  0  0  0  0  0  0  0
    9.1726   -0.7733   26.4647 O   0  0  0  0  0  0  0  0  0  0  0  0
    6.7831   -1.3118   25.8662 O   0  0  0  0  0  0  0  0  0  0  0  0
    7.7979    0.7916   24.9118 N   0  0  0  0  0  0  0  0  0  0  0  0
    8.9523    1.4764   24.2864 C   0  0  0  0  0  0  0  0  0  0  0  0
    9.5093    0.7970   23.6237 H   0  0  0  0  0  0  0  0  0  0  0  0
    8.5369    2.2534   23.6282 H   0  0  0  0  0  0  0  0  0  0  0  0
    9.8726    2.1275   25.3398 C   0  0  0  0  0  0  0  0  0  0  0  0
   10.6230    2.7430   24.8397 H   0  0  0  0  0  0  0  0  0  0  0  0
   10.3634    1.3329   25.9183 H   0  0  0  0  0  0  0  0  0  0  0  0
    9.1560    2.9930   26.2238 O   0  0  0  0  0  0  0  0  0  0  0  0
    8.0836    2.3100   26.8763 C   0  0  0  0  0  0  0  0  0  0  0  0
    7.5666    3.0564   27.4813 H   0  0  0  0  0  0  0  0  0  0  0  0
    8.4659    1.5010   27.5181 H   0  0  0  0  0  0  0  0  0  0  0  0
    7.1130    1.7031   25.8484 C   0  0  0  0  0  0  0  0  0  0  0  0
    6.7049    2.5242   25.2398 H   0  0  0  0  0  0  0  0  0  0  0  0
    6.2685    1.1907   26.3202 H   0  0  0  0  0  0  0  0  0  0  0  0
    8.0907   -1.2906   22.8870 C   0  0  0  0  0  0  0  0  0  0  0  0
    7.0548   -0.5859   22.3188 C   0  0  0  0  0  0  0  0  0  0  0  0
    6.2735   -0.0709   22.8478 H   0  0  0  0  0  0  0  0  0  0  0  0
    5.3914    0.6632   20.0627 C   0  0  0  0  0  0  0  0  0  0  0  0
    4.8983    0.6417   21.0363 H   0  0  0  0  0  0  0  0  0  0  0  0
    4.7916    1.3181   18.9895 C   0  0  0  0  0  0  0  0  0  0  0  0
    3.8532    1.8524   19.0968 H   0  0  0  0  0  0  0  0  0  0  0  0
  1  2  1  0
  2  3  2  0
  3  4  1  0
  4  5  1  0
  4  6  2  0
  6  7  1  0
  7  8  2  0
  8  9  1  0
  9 10  1  0
 10 11  1  0
 10 12  2  0
 12 13  1  0
 12 14  1  0
 14 15  1  0
 15 16  2  0
 15 17  2  0
 15 18  1  0
 18 19  1  0
 19 20  1  0
 19 21  1  0
 19 22  1  0
 22 23  1  0
 22 24  1  0
 22 25  1  0
 25 26  1  0
 26 27  1  0
 26 28  1  0
 26 29  1  0
 29 30  1  0
 29 31  1  0
 14 32  1  0
 32 33  2  0
 33 34  1  0
  6 35  1  0
 35 36  1  0
 35 37  2  0
 37 38  1  0
 37  2  1  0
 33  7  1  0
 32  9  1  0
 29 18  1  0
M  END
>  <cnnaffinity>  (1) 
-5.39668

>  <filename>  (1) 
O=S(=O)(N1CCOCC1)n1ccn2nc(-c3cccnc3)cc12

$$$$
