
     RDKit          3D

 29 31  0  0  0  0  0  0  0  0999 V2000
    4.8901    1.7241   17.0292 H   0  0  0  0  0  0  0  0  0  0  0  0
    5.4126    1.2422   17.8521 C   0  0  0  0  0  0  0  0  0  0  0  0
    6.5873    0.6659   17.5428 N   0  0  0  0  0  0  0  0  0  0  0  0
    7.2653    0.0556   18.5236 C   0  0  0  0  0  0  0  0  0  0  0  0
    8.2056   -0.4092   18.2242 H   0  0  0  0  0  0  0  0  0  0  0  0
    6.8239   -0.0093   19.8792 C   0  0  0  0  0  0  0  0  0  0  0  0
    7.5201   -0.7099   20.9084 N   0  0  0  0  0  0  0  0  0  0  0  0
    8.4566   -1.0799   20.8060 H   0  0  0  0  0  0  0  0  0  0  0  0
    7.5683   -0.5584   22.5717 S   0  0  0  0  0  0  0  0  0  0  0  0
    8.9768   -0.8863   22.7286 O   0  0  0  0  0  0  0  0  0  0  0  0
    6.5391   -1.3350   23.2139 O   0  0  0  0  0  0  0  0  0  0  0  0
    7.3396    1.1713   22.8966 C   0  0  0  0  0  0  0  0  0  0  0  0
    6.4254    1.5981   23.8291 O   0  0  0  0  0  0  0  0  0  0  0  0
    6.5575    2.9572   23.8858 C   0  0  0  0  0  0  0  0  0  0  0  0
    5.8308    3.8494   24.6879 C   0  0  0  0  0  0  0  0  0  0  0  0
    5.0284    3.5134   25.3323 H   0  0  0  0  0  0  0  0  0  0  0  0
    6.1889    5.1963   24.6148 C   0  0  0  0  0  0  0  0  0  0  0  0
    5.6584    5.9320   25.2185 H   0  0  0  0  0  0  0  0  0  0  0  0
    7.2207    5.6352   23.7568 C   0  0  0  0  0  0  0  0  0  0  0  0
    7.4783    6.6891   23.7273 H   0  0  0  0  0  0  0  0  0  0  0  0
    7.9054    4.7371   22.9454 C   0  0  0  0  0  0  0  0  0  0  0  0
    8.6963    5.0543   22.2743 H   0  0  0  0  0  0  0  0  0  0  0  0
    7.5687    3.3733   23.0123 C   0  0  0  0  0  0  0  0  0  0  0  0
    8.0590    2.1859   22.3729 C   0  0  0  0  0  0  0  0  0  0  0  0
    8.8410    2.1708   21.6200 H   0  0  0  0  0  0  0  0  0  0  0  0
    5.5978    0.5999   20.1699 C   0  0  0  0  0  0  0  0  0  0  0  0
    5.2310    0.5592   21.1942 H   0  0  0  0  0  0  0  0  0  0  0  0
    4.8780    1.2305   19.1446 C   0  0  0  0  0  0  0  0  0  0  0  0
    3.9208    1.7117   19.3284 H   0  0  0  0  0  0  0  0  0  0  0  0
  1  2  1  0
  2  3  2  0
  3  4  1  0
  4  5  1  0
  4  6  2  0
  6  7  1  0
  7  8  1  0
  7  9  1  0
  9 10  2  0
  9 11  2  0
  9 12  1  0
 12 13  1  0
 13 14  1  0
 14 15  2  0
 15 16  1  0
 15 17  1  0
 17 18  1  0
 17 19  2  0
 19 20  1  0
 19 21  1  0
 21 22  1  0
 21 23  2  0
 23 24  1  0
 24 25  1  0
  6 26  1  0
 26 27  1  0
 26 28  2  0
 28 29  1  0
 28  2  1  0
 24 12  2  0
 23 14  1  0
M  END
>  <cnnaffinity>  (1) 
-4.55612

>  <filename>  (1) 
O=S(=O)(Nc1cccnc1)c1cc2ccccc2o1

$$$$
