
     RDKit          3D

 35 37  0  0  0  0  0  0  0  0999 V2000
    4.9501    1.8609   16.8980 H   0  0  0  0  0  0  0  0  0  0  0  0
    5.3844    1.3404   17.7490 C   0  0  0  0  0  0  0  0  0  0  0  0
    6.5384    0.6939   17.5187 N   0  0  0  0  0  0  0  0  0  0  0  0
    7.1144    0.0523   18.5496 C   0  0  0  0  0  0  0  0  0  0  0  0
    8.0361   -0.4847   18.3265 H   0  0  0  0  0  0  0  0  0  0  0  0
    6.5888    0.0192   19.8681 C   0  0  0  0  0  0  0  0  0  0  0  0
    7.2301   -0.6284   20.9510 N   0  0  0  0  0  0  0  0  0  0  0  0
    6.6139   -1.0132   21.6565 H   0  0  0  0  0  0  0  0  0  0  0  0
    8.6009   -0.5394   21.3138 C   0  0  0  0  0  0  0  0  0  0  0  0
    9.5670    0.3189   20.7296 C   0  0  0  0  0  0  0  0  0  0  0  0
    9.3974    1.0255   19.9307 H   0  0  0  0  0  0  0  0  0  0  0  0
   10.7741    0.1947   21.2636 N   0  0  0  0  0  0  0  0  0  0  0  0
   10.5991   -0.7529   22.1989 N   0  0  0  0  0  0  0  0  0  0  0  0
   11.3599   -1.0681   22.7801 H   0  0  0  0  0  0  0  0  0  0  0  0
    9.3268   -1.2311   22.2925 C   0  0  0  0  0  0  0  0  0  0  0  0
    9.0671   -2.1866   23.2896 N   0  0  0  0  0  0  0  0  0  0  0  0
    7.9015   -1.9992   24.1409 C   0  0  0  0  0  0  0  0  0  0  0  0
    7.0377   -2.6152   23.8481 H   0  0  0  0  0  0  0  0  0  0  0  0
    7.5973   -0.9485   24.0722 H   0  0  0  0  0  0  0  0  0  0  0  0
    8.3287   -2.2914   25.5688 C   0  0  0  0  0  0  0  0  0  0  0  0
    7.5507   -2.2121   26.3245 H   0  0  0  0  0  0  0  0  0  0  0  0
    9.1898   -1.6956   25.8635 H   0  0  0  0  0  0  0  0  0  0  0  0
    8.8734   -3.9565   25.6641 S   0  0  0  0  0  0  0  0  0  0  0  0
    7.8263   -4.8005   25.1000 O   0  0  0  0  0  0  0  0  0  0  0  0
    9.4073   -4.1860   26.9952 O   0  0  0  0  0  0  0  0  0  0  0  0
   10.2063   -3.9463   24.5300 C   0  0  0  0  0  0  0  0  0  0  0  0
   10.9403   -3.2681   24.9564 H   0  0  0  0  0  0  0  0  0  0  0  0
   10.6079   -4.9549   24.5619 H   0  0  0  0  0  0  0  0  0  0  0  0
    9.7253   -3.4843   23.1713 C   0  0  0  0  0  0  0  0  0  0  0  0
    9.0926   -4.2277   22.6659 H   0  0  0  0  0  0  0  0  0  0  0  0
   10.6142   -3.3614   22.5476 H   0  0  0  0  0  0  0  0  0  0  0  0
    5.3502    0.6555   20.0615 C   0  0  0  0  0  0  0  0  0  0  0  0
    4.8846    0.6394   21.0455 H   0  0  0  0  0  0  0  0  0  0  0  0
    4.7468    1.3367   18.9944 C   0  0  0  0  0  0  0  0  0  0  0  0
    3.8027    1.8638   19.1110 H   0  0  0  0  0  0  0  0  0  0  0  0
  1  2  1  0
  2  3  2  0
  3  4  1  0
  4  5  1  0
  4  6  2  0
  6  7  1  0
  7  8  1  0
  7  9  1  0
  9 10  1  0
 10 11  1  0
 10 12  2  0
 12 13  1  0
 13 14  1  0
 13 15  1  0
 15 16  1  0
 16 17  1  0
 17 18  1  0
 17 19  1  0
 17 20  1  0
 20 21  1  0
 20 22  1  0
 20 23  1  0
 23 24  2  0
 23 25  2  0
 23 26  1  0
 26 27  1  0
 26 28  1  0
 26 29  1  0
 29 30  1  0
 29 31  1  0
  6 32  1  0
 32 33  1  0
 32 34  2  0
 34 35  1  0
 34  2  1  0
 15  9  2  0
 29 16  1  0
M  END
>  <cnnaffinity>  (1) 
-5.29761

>  <filename>  (1) 
O=S1(=O)CCN(c2[nH]ncc2Nc2cccnc2)CC1

$$$$
