
     RDKit          3D

 34 37  0  0  0  0  0  0  0  0999 V2000
    4.9333    1.7915   16.9920 H   0  0  0  0  0  0  0  0  0  0  0  0
    5.3998    1.2893   17.8364 C   0  0  0  0  0  0  0  0  0  0  0  0
    6.5630    0.6646   17.5862 N   0  0  0  0  0  0  0  0  0  0  0  0
    7.1667    0.0479   18.6010 C   0  0  0  0  0  0  0  0  0  0  0  0
    8.1130   -0.4389   18.3646 H   0  0  0  0  0  0  0  0  0  0  0  0
    6.6481    0.0201   19.9090 C   0  0  0  0  0  0  0  0  0  0  0  0
    7.4018   -0.6721   20.9535 C   0  0  0  0  0  0  0  0  0  0  0  0
    8.3147   -1.5911   20.7442 N   0  0  0  0  0  0  0  0  0  0  0  0
    8.8113   -2.0193   21.9539 N   0  0  0  0  0  0  0  0  0  0  0  0
    8.1800   -1.3257   22.8602 C   0  0  0  0  0  0  0  0  0  0  0  0
    8.2161   -1.1326   24.5869 S   0  0  0  0  0  0  0  0  0  0  0  0
    6.9564    0.1225   24.3840 C   0  0  0  0  0  0  0  0  0  0  0  0
    6.4836    0.8436   25.4458 N   0  0  0  0  0  0  0  0  0  0  0  0
    5.3886    1.7837   25.2490 C   0  0  0  0  0  0  0  0  0  0  0  0
    5.3886    2.1614   24.2225 H   0  0  0  0  0  0  0  0  0  0  0  0
    5.5240    2.6441   25.9248 H   0  0  0  0  0  0  0  0  0  0  0  0
    4.0987    1.0425   25.5375 C   0  0  0  0  0  0  0  0  0  0  0  0
    3.2126    1.6756   25.6036 H   0  0  0  0  0  0  0  0  0  0  0  0
    3.9429    0.2023   24.8616 H   0  0  0  0  0  0  0  0  0  0  0  0
    4.1730    0.3319   27.1532 S   0  0  0  0  0  0  0  0  0  0  0  0
    4.1526    1.4596   28.0808 O   0  0  0  0  0  0  0  0  0  0  0  0
    3.1842   -0.7346   27.1959 O   0  0  0  0  0  0  0  0  0  0  0  0
    5.7594   -0.4186   27.3454 C   0  0  0  0  0  0  0  0  0  0  0  0
    5.8105   -0.6014   28.4200 H   0  0  0  0  0  0  0  0  0  0  0  0
    5.7025   -1.3546   26.7895 H   0  0  0  0  0  0  0  0  0  0  0  0
    6.8263    0.5204   26.8203 C   0  0  0  0  0  0  0  0  0  0  0  0
    6.8783    1.4533   27.4022 H   0  0  0  0  0  0  0  0  0  0  0  0
    7.8124    0.0449   26.8796 H   0  0  0  0  0  0  0  0  0  0  0  0
    6.5702    0.3517   23.1599 N   0  0  0  0  0  0  0  0  0  0  0  0
    7.2748   -0.4736   22.3167 N   0  0  0  0  0  0  0  0  0  0  0  0
    5.4259    0.6617   20.1589 C   0  0  0  0  0  0  0  0  0  0  0  0
    5.0067    0.6535   21.1660 H   0  0  0  0  0  0  0  0  0  0  0  0
    4.7989    1.3071   19.0999 C   0  0  0  0  0  0  0  0  0  0  0  0
    3.8680    1.8450   19.2404 H   0  0  0  0  0  0  0  0  0  0  0  0
  1  2  1  0
  2  3  2  0
  3  4  1  0
  4  5  1  0
  4  6  2  0
  6  7  1  0
  7  8  2  0
  8  9  1  0
  9 10  2  0
 10 11  1  0
 11 12  1  0
 12 13  1  0
 13 14  1  0
 14 15  1  0
 14 16  1  0
 14 17  1  0
 17 18  1  0
 17 19  1  0
 17 20  1  0
 20 21  2  0
 20 22  2  0
 20 23  1  0
 23 24  1  0
 23 25  1  0
 23 26  1  0
 26 27  1  0
 26 28  1  0
 12 29  2  0
 29 30  1  0
  6 31  1  0
 31 32  1  0
 31 33  2  0
 33 34  1  0
 33  2  1  0
 30  7  1  0
 30 10  1  0
 26 13  1  0
M  END
>  <cnnaffinity>  (1) 
-5.00572

>  <filename>  (1) 
O=S1(=O)CCN(c2nn3c(-c4cccnc4)nnc3s2)CC1

$$$$
