
     RDKit          3D

 36 39  0  0  0  0  0  0  0  0999 V2000
    4.9364    1.7961   16.9879 H   0  0  0  0  0  0  0  0  0  0  0  0
    5.4028    1.2954   17.8343 C   0  0  0  0  0  0  0  0  0  0  0  0
    6.5631    0.6677   17.5830 N   0  0  0  0  0  0  0  0  0  0  0  0
    7.1644    0.0390   18.5964 C   0  0  0  0  0  0  0  0  0  0  0  0
    8.1117   -0.4470   18.3658 H   0  0  0  0  0  0  0  0  0  0  0  0
    6.6495    0.0131   19.9016 C   0  0  0  0  0  0  0  0  0  0  0  0
    7.3790   -0.6578   20.9642 C   0  0  0  0  0  0  0  0  0  0  0  0
    8.0512   -1.8343   20.7433 N   0  0  0  0  0  0  0  0  0  0  0  0
    8.4604   -2.1699   21.9335 C   0  0  0  0  0  0  0  0  0  0  0  0
    9.3951   -3.4732   22.5890 S   0  0  0  0  0  0  0  0  0  0  0  0
    9.4048   -2.7190   24.1633 C   0  0  0  0  0  0  0  0  0  0  0  0
    9.9610   -3.1982   24.9587 H   0  0  0  0  0  0  0  0  0  0  0  0
    8.6914   -1.5837   24.1804 C   0  0  0  0  0  0  0  0  0  0  0  0
    8.5052   -0.9048   25.0047 H   0  0  0  0  0  0  0  0  0  0  0  0
    8.1380   -1.2927   22.9319 N   0  0  0  0  0  0  0  0  0  0  0  0
    7.4510   -0.2654   22.3136 C   0  0  0  0  0  0  0  0  0  0  0  0
    7.1219    0.8920   22.9919 N   0  0  0  0  0  0  0  0  0  0  0  0
    7.3605    2.1713   22.3269 C   0  0  0  0  0  0  0  0  0  0  0  0
    6.4268    2.6506   21.9879 H   0  0  0  0  0  0  0  0  0  0  0  0
    7.9728    1.9810   21.4383 H   0  0  0  0  0  0  0  0  0  0  0  0
    8.1257    3.0469   23.2973 C   0  0  0  0  0  0  0  0  0  0  0  0
    8.2574    4.0789   22.9676 H   0  0  0  0  0  0  0  0  0  0  0  0
    9.0704    2.5975   23.6041 H   0  0  0  0  0  0  0  0  0  0  0  0
    7.1867    3.2050   24.7790 S   0  0  0  0  0  0  0  0  0  0  0  0
    5.9509    3.8863   24.4111 O   0  0  0  0  0  0  0  0  0  0  0  0
    8.0862    3.7115   25.8033 O   0  0  0  0  0  0  0  0  0  0  0  0
    6.7162    1.5781   25.2669 C   0  0  0  0  0  0  0  0  0  0  0  0
    7.6332    1.1272   25.6452 H   0  0  0  0  0  0  0  0  0  0  0  0
    6.0012    1.7583   26.0712 H   0  0  0  0  0  0  0  0  0  0  0  0
    6.1445    0.8369   24.0753 C   0  0  0  0  0  0  0  0  0  0  0  0
    5.9580   -0.2097   24.3396 H   0  0  0  0  0  0  0  0  0  0  0  0
    5.1780    1.2710   23.7643 H   0  0  0  0  0  0  0  0  0  0  0  0
    5.4280    0.6592   20.1463 C   0  0  0  0  0  0  0  0  0  0  0  0
    4.9920    0.6450   21.1463 H   0  0  0  0  0  0  0  0  0  0  0  0
    4.7975    1.3157   19.0947 C   0  0  0  0  0  0  0  0  0  0  0  0
    3.8658    1.8479   19.2420 H   0  0  0  0  0  0  0  0  0  0  0  0
  1  2  1  0
  2  3  2  0
  3  4  1  0
  4  5  1  0
  4  6  2  0
  6  7  1  0
  7  8  1  0
  8  9  2  0
  9 10  1  0
 10 11  1  0
 11 12  1  0
 11 13  2  0
 13 14  1  0
 13 15  1  0
 15 16  1  0
 16 17  1  0
 17 18  1  0
 18 19  1  0
 18 20  1  0
 18 21  1  0
 21 22  1  0
 21 23  1  0
 21 24  1  0
 24 25  2  0
 24 26  2  0
 24 27  1  0
 27 28  1  0
 27 29  1  0
 27 30  1  0
 30 31  1  0
 30 32  1  0
  6 33  1  0
 33 34  1  0
 33 35  2  0
 35 36  1  0
 35  2  1  0
 16  7  2  0
 30 17  1  0
 15  9  1  0
M  END
>  <cnnaffinity>  (1) 
-5.44496

>  <filename>  (1) 
O=S1(=O)CCN(c2c(-c3cccnc3)nc3sccn23)CC1

$$$$
