
     RDKit          3D

 36 38  0  0  0  0  0  0  0  0999 V2000
    7.5448    3.3523   21.4269 H   0  0  0  0  0  0  0  0  0  0  0  0
    7.8223    2.4740   21.1437 O   0  0  0  0  0  0  0  0  0  0  0  0
    8.6595    1.9362   22.1507 C   0  0  1  0  0  0  0  0  0  0  0  0
    9.4290    2.6713   22.4553 H   0  0  0  0  0  0  0  0  0  0  0  0
    7.8940    1.5452   23.4353 C   0  0  0  0  0  0  0  0  0  0  0  0
    6.5130    1.7368   23.6238 C   0  0  0  0  0  0  0  0  0  0  0  0
    5.9130    2.1878   22.8338 H   0  0  0  0  0  0  0  0  0  0  0  0
    5.8975    1.3524   24.8213 C   0  0  0  0  0  0  0  0  0  0  0  0
    4.8281    1.5022   24.9552 H   0  0  0  0  0  0  0  0  0  0  0  0
    6.6544    0.7802   25.8517 C   0  0  0  0  0  0  0  0  0  0  0  0
    6.1753    0.4775   26.7783 H   0  0  0  0  0  0  0  0  0  0  0  0
    8.0267    0.5814   25.6732 C   0  0  0  0  0  0  0  0  0  0  0  0
    8.6220    0.1420   26.4713 H   0  0  0  0  0  0  0  0  0  0  0  0
    8.6371    0.9540   24.4732 C   0  0  0  0  0  0  0  0  0  0  0  0
    9.7047    0.7830   24.3438 H   0  0  0  0  0  0  0  0  0  0  0  0
    9.4362    0.7953   21.5574 C   0  0  0  0  0  0  0  0  0  0  0  0
   10.8039    0.6427   21.4488 C   0  0  0  0  0  0  0  0  0  0  0  0
   11.5456    1.4094   21.6679 H   0  0  0  0  0  0  0  0  0  0  0  0
   11.0505   -0.6640   20.9651 C   0  0  0  0  0  0  0  0  0  0  0  0
   12.0090   -1.1185   20.7425 H   0  0  0  0  0  0  0  0  0  0  0  0
    9.8268   -1.2481   20.7567 C   0  0  0  0  0  0  0  0  0  0  0  0
    9.5706   -2.2293   20.3799 H   0  0  0  0  0  0  0  0  0  0  0  0
    8.8403   -0.3645   21.1079 N   0  0  0  0  0  0  0  0  0  0  0  0
    7.4119   -0.6664   21.0189 C   0  0  0  0  0  0  0  0  0  0  0  0
    6.9606   -0.4274   21.9854 H   0  0  0  0  0  0  0  0  0  0  0  0
    7.3514   -1.7567   20.9225 H   0  0  0  0  0  0  0  0  0  0  0  0
    6.6424    0.0194   19.8899 C   0  0  0  0  0  0  0  0  0  0  0  0
    7.1561    0.0805   18.5818 C   0  0  0  0  0  0  0  0  0  0  0  0
    8.1121   -0.3826   18.3398 H   0  0  0  0  0  0  0  0  0  0  0  0
    6.5503    0.6925   17.5547 N   0  0  0  0  0  0  0  0  0  0  0  0
    5.3884    1.3100   17.8119 C   0  0  0  0  0  0  0  0  0  0  0  0
    4.9285    1.8367   16.9796 H   0  0  0  0  0  0  0  0  0  0  0  0
    4.7694    1.3032   19.0634 C   0  0  0  0  0  0  0  0  0  0  0  0
    3.8320    1.8306   19.2026 H   0  0  0  0  0  0  0  0  0  0  0  0
    5.4030    0.6368   20.1168 C   0  0  0  0  0  0  0  0  0  0  0  0
    4.9546    0.6425   21.1157 H   0  0  0  0  0  0  0  0  0  0  0  0
  1  2  1  0
  2  3  1  0
  3  4  1  1
  3  5  1  0
  5  6  2  0
  6  7  1  0
  6  8  1  0
  8  9  1  0
  8 10  2  0
 10 11  1  0
 10 12  1  0
 12 13  1  0
 12 14  2  0
 14 15  1  0
  3 16  1  0
 16 17  2  0
 17 18  1  0
 17 19  1  0
 19 20  1  0
 19 21  2  0
 21 22  1  0
 21 23  1  0
 23 24  1  0
 24 25  1  0
 24 26  1  0
 24 27  1  0
 27 28  2  0
 28 29  1  0
 28 30  1  0
 30 31  2  0
 31 32  1  0
 31 33  1  0
 33 34  1  0
 33 35  2  0
 35 36  1  0
 14  5  1  0
 23 16  1  0
 35 27  1  0
M  END
>  <cnnaffinity>  (1) 
-4.86134

>  <filename>  (1) 
O[C@@H](c1ccccc1)c1cccn1Cc1cccnc1

$$$$
