
     RDKit          3D

 35 37  0  0  0  0  0  0  0  0999 V2000
    8.3006   -2.3396   21.3051 H   0  0  0  0  0  0  0  0  0  0  0  0
    7.9422   -1.8918   20.5287 O   0  0  0  0  0  0  0  0  0  0  0  0
    7.4004   -0.6820   21.0185 C   0  0  2  0  0  0  0  0  0  0  0  0
    6.6757   -0.8869   21.8288 H   0  0  0  0  0  0  0  0  0  0  0  0
    6.6290   -0.0264   19.8980 C   0  0  0  0  0  0  0  0  0  0  0  0
    7.1588    0.0417   18.6009 C   0  0  0  0  0  0  0  0  0  0  0  0
    8.1086   -0.4365   18.3740 H   0  0  0  0  0  0  0  0  0  0  0  0
    6.5682    0.6727   17.5784 N   0  0  0  0  0  0  0  0  0  0  0  0
    5.4075    1.2911   17.8371 C   0  0  0  0  0  0  0  0  0  0  0  0
    4.9277    1.7833   16.9926 H   0  0  0  0  0  0  0  0  0  0  0  0
    4.8027    1.3125   19.1012 C   0  0  0  0  0  0  0  0  0  0  0  0
    3.8678    1.8491   19.2509 H   0  0  0  0  0  0  0  0  0  0  0  0
    5.4289    0.6444   20.1538 C   0  0  0  0  0  0  0  0  0  0  0  0
    4.9906    0.6408   21.1570 H   0  0  0  0  0  0  0  0  0  0  0  0
    8.4746    0.2588   21.5700 C   0  0  0  0  0  0  0  0  0  0  0  0
    9.7407    0.3491   20.9685 C   0  0  0  0  0  0  0  0  0  0  0  0
    9.9666   -0.3145   20.1381 H   0  0  0  0  0  0  0  0  0  0  0  0
   10.6895    1.2522   21.4539 C   0  0  0  0  0  0  0  0  0  0  0  0
   11.6758    1.3086   21.0002 H   0  0  0  0  0  0  0  0  0  0  0  0
   10.3699    2.0844   22.5297 C   0  0  0  0  0  0  0  0  0  0  0  0
   11.1116    2.7722   22.9255 H   0  0  0  0  0  0  0  0  0  0  0  0
    9.0976    2.0373   23.1299 C   0  0  0  0  0  0  0  0  0  0  0  0
    8.7520    2.9283   24.2757 C   0  0  0  0  0  0  0  0  0  0  0  0
    9.1675    4.2724   24.2861 C   0  0  0  0  0  0  0  0  0  0  0  0
    9.7270    4.6524   23.4338 H   0  0  0  0  0  0  0  0  0  0  0  0
    8.8452    5.1135   25.3543 C   0  0  0  0  0  0  0  0  0  0  0  0
    9.1792    6.1480   25.3373 H   0  0  0  0  0  0  0  0  0  0  0  0
    8.1066    4.6189   26.4366 C   0  0  0  0  0  0  0  0  0  0  0  0
    7.8535    5.2719   27.2675 H   0  0  0  0  0  0  0  0  0  0  0  0
    7.6887    3.2816   26.4427 C   0  0  0  0  0  0  0  0  0  0  0  0
    7.1052    2.8886   27.2723 H   0  0  0  0  0  0  0  0  0  0  0  0
    8.0050    2.4460   25.3671 C   0  0  0  0  0  0  0  0  0  0  0  0
    7.6902    1.4042   25.3689 H   0  0  0  0  0  0  0  0  0  0  0  0
    8.1599    1.1204   22.6279 C   0  0  0  0  0  0  0  0  0  0  0  0
    7.1649    1.1025   23.0682 H   0  0  0  0  0  0  0  0  0  0  0  0
  1  2  1  0
  2  3  1  0
  3  4  1  1
  3  5  1  0
  5  6  2  0
  6  7  1  0
  6  8  1  0
  8  9  2  0
  9 10  1  0
  9 11  1  0
 11 12  1  0
 11 13  2  0
 13 14  1  0
  3 15  1  0
 15 16  2  0
 16 17  1  0
 16 18  1  0
 18 19  1  0
 18 20  2  0
 20 21  1  0
 20 22  1  0
 22 23  1  0
 23 24  2  0
 24 25  1  0
 24 26  1  0
 26 27  1  0
 26 28  2  0
 28 29  1  0
 28 30  1  0
 30 31  1  0
 30 32  2  0
 32 33  1  0
 22 34  2  0
 34 35  1  0
 13  5  1  0
 34 15  1  0
 32 23  1  0
M  END
>  <cnnaffinity>  (1) 
-4.38463

>  <filename>  (1) 
O[C@H](c1cccnc1)c1cccc(-c2ccccc2)c1

$$$$
