
     RDKit          3D

 30 31  0  0  0  0  0  0  0  0999 V2000
    9.0698   -0.5839   20.7025 H   0  0  0  0  0  0  0  0  0  0  0  0
    8.5898    0.1003   21.2059 O   0  0  0  0  0  0  0  0  0  0  0  0
    7.3698   -0.5748   21.0534 C   0  0  1  0  0  0  0  0  0  0  0  0
    6.7926   -0.5775   21.9947 H   0  0  0  0  0  0  0  0  0  0  0  0
    6.5771    0.0274   19.9454 C   0  0  0  0  0  0  0  0  0  0  0  0
    7.1396    0.0283   18.6645 C   0  0  0  0  0  0  0  0  0  0  0  0
    8.0800   -0.4927   18.4652 H   0  0  0  0  0  0  0  0  0  0  0  0
    6.5860    0.6371   17.6095 N   0  0  0  0  0  0  0  0  0  0  0  0
    5.4261    1.2796   17.8224 C   0  0  0  0  0  0  0  0  0  0  0  0
    5.0071    1.7948   16.9635 H   0  0  0  0  0  0  0  0  0  0  0  0
    4.7760    1.3243   19.0590 C   0  0  0  0  0  0  0  0  0  0  0  0
    3.8428    1.8629   19.1647 H   0  0  0  0  0  0  0  0  0  0  0  0
    5.3618    0.6842   20.1494 C   0  0  0  0  0  0  0  0  0  0  0  0
    4.8962    0.6989   21.1404 H   0  0  0  0  0  0  0  0  0  0  0  0
    7.8502   -1.8802   20.6278 N   0  0  0  0  0  0  0  0  0  0  0  0
    7.1228   -2.3703   20.1223 H   0  0  0  0  0  0  0  0  0  0  0  0
    8.3944   -2.7777   21.6554 C   0  0  0  0  0  0  0  0  0  0  0  0
    8.8037   -3.6388   21.1165 H   0  0  0  0  0  0  0  0  0  0  0  0
    9.2572   -2.3077   22.1414 H   0  0  0  0  0  0  0  0  0  0  0  0
    7.3927   -3.2429   22.7101 C   0  0  0  0  0  0  0  0  0  0  0  0
    6.4908   -4.2906   22.4324 C   0  0  0  0  0  0  0  0  0  0  0  0
    6.5402   -4.8026   21.4747 H   0  0  0  0  0  0  0  0  0  0  0  0
    5.5295   -4.6960   23.3574 C   0  0  0  0  0  0  0  0  0  0  0  0
    4.8423   -5.4982   23.1122 H   0  0  0  0  0  0  0  0  0  0  0  0
    5.4560   -4.0666   24.6005 C   0  0  0  0  0  0  0  0  0  0  0  0
    4.7091   -4.3733   25.3249 H   0  0  0  0  0  0  0  0  0  0  0  0
    6.3396   -3.0381   24.9163 C   0  0  0  0  0  0  0  0  0  0  0  0
    6.3006   -2.5350   25.8762 H   0  0  0  0  0  0  0  0  0  0  0  0
    7.2979   -2.6391   23.9818 C   0  0  0  0  0  0  0  0  0  0  0  0
    8.3759   -1.3497   24.4668 Cl  0  0  0  0  0  0  0  0  0  0  0  0
  1  2  1  0
  2  3  1  0
  3  4  1  1
  3  5  1  0
  5  6  2  0
  6  7  1  0
  6  8  1  0
  8  9  2  0
  9 10  1  0
  9 11  1  0
 11 12  1  0
 11 13  2  0
 13 14  1  0
  3 15  1  0
 15 16  1  0
 15 17  1  0
 17 18  1  0
 17 19  1  0
 17 20  1  0
 20 21  2  0
 21 22  1  0
 21 23  1  0
 23 24  1  0
 23 25  2  0
 25 26  1  0
 25 27  1  0
 27 28  1  0
 27 29  2  0
 29 30  1  0
 13  5  1  0
 29 20  1  0
M  END
>  <cnnaffinity>  (1) 
-4.2852

>  <filename>  (1) 
O[C@H](NCc1ccccc1Cl)c1cccnc1

$$$$
