
     RDKit          3D

 41 43  0  0  0  0  0  0  0  0999 V2000
    6.0334   -1.9665   21.1676 H   0  0  0  0  0  0  0  0  0  0  0  0
    6.6681   -1.5547   21.7627 O   0  0  0  0  0  0  0  0  0  0  0  0
    7.4792   -0.7124   20.9599 C   0  0  1  0  0  0  0  0  0  0  0  0
    8.2387   -1.3285   20.4461 H   0  0  0  0  0  0  0  0  0  0  0  0
    6.6486   -0.0257   19.8832 C   0  0  0  0  0  0  0  0  0  0  0  0
    7.1365   -0.0005   18.5638 C   0  0  0  0  0  0  0  0  0  0  0  0
    8.0598   -0.5217   18.3114 H   0  0  0  0  0  0  0  0  0  0  0  0
    6.5472    0.6343   17.5392 N   0  0  0  0  0  0  0  0  0  0  0  0
    5.4094    1.2891   17.7977 C   0  0  0  0  0  0  0  0  0  0  0  0
    4.9604    1.8296   16.9648 H   0  0  0  0  0  0  0  0  0  0  0  0
    4.8055    1.3022   19.0607 C   0  0  0  0  0  0  0  0  0  0  0  0
    3.8824    1.8507   19.2024 H   0  0  0  0  0  0  0  0  0  0  0  0
    5.4236    0.6242   20.1155 C   0  0  0  0  0  0  0  0  0  0  0  0
    4.9490    0.6020   21.0998 H   0  0  0  0  0  0  0  0  0  0  0  0
    8.2921    0.2362   21.8916 C   0  0  0  0  0  0  0  0  0  0  0  0
    9.2355    1.1109   21.0285 C   0  0  0  0  0  0  0  0  0  0  0  0
    8.5879    1.7795   20.4430 H   0  0  0  0  0  0  0  0  0  0  0  0
    9.7443    0.4481   20.3169 H   0  0  0  0  0  0  0  0  0  0  0  0
   10.2616    1.9670   21.7483 C   0  0  0  0  0  0  0  0  0  0  0  0
   11.5910    1.5603   21.9754 C   0  0  0  0  0  0  0  0  0  0  0  0
   11.9058    0.5604   21.6809 H   0  0  0  0  0  0  0  0  0  0  0  0
   12.5328    2.4217   22.5587 C   0  0  0  0  0  0  0  0  0  0  0  0
   13.5383    2.0482   22.7510 H   0  0  0  0  0  0  0  0  0  0  0  0
   12.1555    3.7354   22.8950 C   0  0  0  0  0  0  0  0  0  0  0  0
   13.1137    4.8071   23.3708 C   0  0  0  0  0  0  0  0  0  0  0  0
   13.3466    5.7134   22.3959 F   0  0  0  0  0  0  0  0  0  0  0  0
   12.6023    5.4826   24.4267 F   0  0  0  0  0  0  0  0  0  0  0  0
   14.3131    4.3478   23.7461 F   0  0  0  0  0  0  0  0  0  0  0  0
   10.8141    4.1179   22.7463 C   0  0  0  0  0  0  0  0  0  0  0  0
   10.4949    5.1161   23.0309 H   0  0  0  0  0  0  0  0  0  0  0  0
    9.8862    3.2354   22.2104 C   0  0  0  0  0  0  0  0  0  0  0  0
    8.8593    3.5730   22.0897 H   0  0  0  0  0  0  0  0  0  0  0  0
    9.0052   -0.5097   23.0620 C   0  0  0  0  0  0  0  0  0  0  0  0
   10.0932   -0.4049   23.0790 H   0  0  0  0  0  0  0  0  0  0  0  0
    8.7554   -1.5702   23.1303 H   0  0  0  0  0  0  0  0  0  0  0  0
    8.2487    0.3675   24.0849 C   0  0  0  0  0  0  0  0  0  0  0  0
    7.6232   -0.1963   24.7833 H   0  0  0  0  0  0  0  0  0  0  0  0
    8.8893    1.0487   24.6525 H   0  0  0  0  0  0  0  0  0  0  0  0
    7.4629    1.0405   22.9378 C   0  0  0  0  0  0  0  0  0  0  0  0
    7.5775    2.1254   22.8799 H   0  0  0  0  0  0  0  0  0  0  0  0
    6.3945    0.8146   22.9451 H   0  0  0  0  0  0  0  0  0  0  0  0
  1  2  1  0
  2  3  1  0
  3  4  1  6
  3  5  1  0
  5  6  2  0
  6  7  1  0
  6  8  1  0
  8  9  2  0
  9 10  1  0
  9 11  1  0
 11 12  1  0
 11 13  2  0
 13 14  1  0
  3 15  1  0
 15 16  1  0
 16 17  1  0
 16 18  1  0
 16 19  1  0
 19 20  2  0
 20 21  1  0
 20 22  1  0
 22 23  1  0
 22 24  2  0
 24 25  1  0
 25 26  1  0
 25 27  1  0
 25 28  1  0
 24 29  1  0
 29 30  1  0
 29 31  2  0
 31 32  1  0
 15 33  1  0
 33 34  1  0
 33 35  1  0
 33 36  1  0
 36 37  1  0
 36 38  1  0
 36 39  1  0
 39 40  1  0
 39 41  1  0
 13  5  1  0
 39 15  1  0
 31 19  1  0
M  END
>  <cnnaffinity>  (1) 
-5.04437

>  <filename>  (1) 
O[C@@H](c1cccnc1)C1(Cc2ccc(C(F)(F)F)cc2)CCC1

$$$$
