
     RDKit          3D

 44 47  0  0  0  0  0  0  0  0999 V2000
    5.7331   -1.0941   22.2665 H   0  0  0  0  0  0  0  0  0  0  0  0
    6.2934   -1.7099   21.7782 O   0  0  0  0  0  0  0  0  0  0  0  0
    7.2053   -0.9349   21.0143 C   0  0  1  0  0  0  0  0  0  0  0  0
    7.8500   -1.6882   20.5423 H   0  0  0  0  0  0  0  0  0  0  0  0
    6.4878   -0.1716   19.9081 C   0  0  0  0  0  0  0  0  0  0  0  0
    7.0574   -0.1490   18.6215 C   0  0  0  0  0  0  0  0  0  0  0  0
    7.9784   -0.7049   18.4325 H   0  0  0  0  0  0  0  0  0  0  0  0
    6.5874    0.5475   17.5769 N   0  0  0  0  0  0  0  0  0  0  0  0
    5.4735    1.2659   17.7815 C   0  0  0  0  0  0  0  0  0  0  0  0
    5.1031    1.8284   16.9273 H   0  0  0  0  0  0  0  0  0  0  0  0
    4.7985    1.2990   19.0059 C   0  0  0  0  0  0  0  0  0  0  0  0
    3.9007    1.8976   19.1054 H   0  0  0  0  0  0  0  0  0  0  0  0
    5.3029    0.5660   20.0848 C   0  0  0  0  0  0  0  0  0  0  0  0
    4.7670    0.5785   21.0378 H   0  0  0  0  0  0  0  0  0  0  0  0
    8.1510   -0.0109   21.8741 C   0  0  0  0  0  0  0  0  0  0  0  0
    9.2516    0.5922   20.9420 C   0  0  0  0  0  0  0  0  0  0  0  0
    9.7332   -0.2591   20.4358 H   0  0  0  0  0  0  0  0  0  0  0  0
    8.7582    1.1964   20.1693 H   0  0  0  0  0  0  0  0  0  0  0  0
   10.3148    1.4847   21.5691 C   0  0  0  0  0  0  0  0  0  0  0  0
   11.6525    1.0299   21.8037 C   0  0  0  0  0  0  0  0  0  0  0  0
   11.9304    0.0203   21.4953 H   0  0  0  0  0  0  0  0  0  0  0  0
   12.6058    1.8467   22.3762 C   0  0  0  0  0  0  0  0  0  0  0  0
   13.6215    1.4791   22.5241 H   0  0  0  0  0  0  0  0  0  0  0  0
   12.2751    3.1806   22.7865 C   0  0  0  0  0  0  0  0  0  0  0  0
   13.1927    4.0817   23.4233 C   0  0  0  0  0  0  0  0  0  0  0  0
   14.2163    3.7746   23.6011 H   0  0  0  0  0  0  0  0  0  0  0  0
   12.7918    5.3390   23.8220 C   0  0  0  0  0  0  0  0  0  0  0  0
   13.4875    6.0067   24.3263 H   0  0  0  0  0  0  0  0  0  0  0  0
   11.4612    5.7851   23.5802 C   0  0  0  0  0  0  0  0  0  0  0  0
   11.1536    6.7781   23.8965 H   0  0  0  0  0  0  0  0  0  0  0  0
   10.5663    4.9709   22.9352 C   0  0  0  0  0  0  0  0  0  0  0  0
    9.5537    5.2980   22.6913 H   0  0  0  0  0  0  0  0  0  0  0  0
   10.9444    3.6506   22.5440 C   0  0  0  0  0  0  0  0  0  0  0  0
   10.0139    2.7914   21.8908 C   0  0  0  0  0  0  0  0  0  0  0  0
    9.0610    3.2221   21.5845 H   0  0  0  0  0  0  0  0  0  0  0  0
    8.7584   -0.6738   23.1529 C   0  0  0  0  0  0  0  0  0  0  0  0
    9.8519   -0.7246   23.1570 H   0  0  0  0  0  0  0  0  0  0  0  0
    8.3809   -1.6770   23.3667 H   0  0  0  0  0  0  0  0  0  0  0  0
    8.1665    0.4611   24.0231 C   0  0  0  0  0  0  0  0  0  0  0  0
    7.5445    0.1402   24.8636 H   0  0  0  0  0  0  0  0  0  0  0  0
    8.9250    1.1523   24.3974 H   0  0  0  0  0  0  0  0  0  0  0  0
    7.4046    1.0098   22.7962 C   0  0  0  0  0  0  0  0  0  0  0  0
    7.5435    2.0690   22.5622 H   0  0  0  0  0  0  0  0  0  0  0  0
    6.3203    0.8594   22.8534 H   0  0  0  0  0  0  0  0  0  0  0  0
  1  2  1  0
  2  3  1  0
  3  4  1  6
  3  5  1  0
  5  6  2  0
  6  7  1  0
  6  8  1  0
  8  9  2  0
  9 10  1  0
  9 11  1  0
 11 12  1  0
 11 13  2  0
 13 14  1  0
  3 15  1  0
 15 16  1  0
 16 17  1  0
 16 18  1  0
 16 19  1  0
 19 20  2  0
 20 21  1  0
 20 22  1  0
 22 23  1  0
 22 24  2  0
 24 25  1  0
 25 26  1  0
 25 27  2  0
 27 28  1  0
 27 29  1  0
 29 30  1  0
 29 31  2  0
 31 32  1  0
 31 33  1  0
 33 34  2  0
 34 35  1  0
 15 36  1  0
 36 37  1  0
 36 38  1  0
 36 39  1  0
 39 40  1  0
 39 41  1  0
 39 42  1  0
 42 43  1  0
 42 44  1  0
 13  5  1  0
 42 15  1  0
 34 19  1  0
 33 24  1  0
M  END
>  <cnnaffinity>  (1) 
-5.24606

>  <filename>  (1) 
O[C@@H](c1cccnc1)C1(Cc2ccc3ccccc3c2)CCC1

$$$$
