
     RDKit          3D

 35 38  0  0  0  0  0  0  0  0999 V2000
    7.5919    1.8829   21.0091 H   0  0  0  0  0  0  0  0  0  0  0  0
    7.4247    2.2091   21.9066 O   0  0  0  0  0  0  0  0  0  0  0  0
    7.9986    1.2440   22.7646 C   0  0  1  0  0  0  0  0  0  0  0  0
    9.0637    1.4865   22.9596 H   0  0  0  0  0  0  0  0  0  0  0  0
    7.2953    1.3074   24.1248 C   0  0  0  0  0  0  0  0  0  0  0  0
    7.9258    1.9004   25.2321 C   0  0  0  0  0  0  0  0  0  0  0  0
    8.9212    2.3352   25.1278 H   0  0  0  0  0  0  0  0  0  0  0  0
    7.2751    1.9683   26.4687 C   0  0  0  0  0  0  0  0  0  0  0  0
    7.7743    2.4325   27.3143 H   0  0  0  0  0  0  0  0  0  0  0  0
    5.9850    1.4476   26.6156 C   0  0  0  0  0  0  0  0  0  0  0  0
    5.4815    1.4963   27.5763 H   0  0  0  0  0  0  0  0  0  0  0  0
    5.3426    0.8673   25.5168 C   0  0  0  0  0  0  0  0  0  0  0  0
    4.3398    0.4629   25.6188 H   0  0  0  0  0  0  0  0  0  0  0  0
    5.9901    0.8122   24.2812 C   0  0  0  0  0  0  0  0  0  0  0  0
    5.4636    0.4041   23.4203 H   0  0  0  0  0  0  0  0  0  0  0  0
    7.9468   -0.0957   22.1170 C   0  0  0  0  0  0  0  0  0  0  0  0
    7.4060   -0.6129   20.9393 C   0  0  0  0  0  0  0  0  0  0  0  0
    6.6378    0.0526   19.8848 C   0  0  0  0  0  0  0  0  0  0  0  0
    7.1242   -0.0052   18.5704 C   0  0  0  0  0  0  0  0  0  0  0  0
    8.0374   -0.5554   18.3446 H   0  0  0  0  0  0  0  0  0  0  0  0
    6.5509    0.6210   17.5383 N   0  0  0  0  0  0  0  0  0  0  0  0
    5.4128    1.2930   17.7721 C   0  0  0  0  0  0  0  0  0  0  0  0
    4.9715    1.8167   16.9250 H   0  0  0  0  0  0  0  0  0  0  0  0
    4.7962    1.3335   19.0261 C   0  0  0  0  0  0  0  0  0  0  0  0
    3.8579    1.8557   19.1470 H   0  0  0  0  0  0  0  0  0  0  0  0
    5.4151    0.7070   20.1038 C   0  0  0  0  0  0  0  0  0  0  0  0
    4.9788    0.7538   21.1056 H   0  0  0  0  0  0  0  0  0  0  0  0
    7.6610   -1.9547   20.8169 N   0  0  0  0  0  0  0  0  0  0  0  0
    8.2719   -2.2647   21.9304 C   0  0  0  0  0  0  0  0  0  0  0  0
    8.8713   -3.7192   22.6825 S   0  0  0  0  0  0  0  0  0  0  0  0
    9.4649   -2.7867   24.0491 C   0  0  0  0  0  0  0  0  0  0  0  0
   10.0528   -3.2707   24.8241 H   0  0  0  0  0  0  0  0  0  0  0  0
    9.1520   -1.4872   23.9407 C   0  0  0  0  0  0  0  0  0  0  0  0
    9.3347   -0.6887   24.6492 H   0  0  0  0  0  0  0  0  0  0  0  0
    8.4966   -1.1947   22.7500 N   0  0  0  0  0  0  0  0  0  0  0  0
  1  2  1  0
  2  3  1  0
  3  4  1  1
  3  5  1  0
  5  6  2  0
  6  7  1  0
  6  8  1  0
  8  9  1  0
  8 10  2  0
 10 11  1  0
 10 12  1  0
 12 13  1  0
 12 14  2  0
 14 15  1  0
  3 16  1  0
 16 17  2  0
 17 18  1  0
 18 19  2  0
 19 20  1  0
 19 21  1  0
 21 22  2  0
 22 23  1  0
 22 24  1  0
 24 25  1  0
 24 26  2  0
 26 27  1  0
 17 28  1  0
 28 29  2  0
 29 30  1  0
 30 31  1  0
 31 32  1  0
 31 33  2  0
 33 34  1  0
 33 35  1  0
 14  5  1  0
 35 16  1  0
 26 18  1  0
 35 29  1  0
M  END
>  <cnnaffinity>  (1) 
-5.27411

>  <filename>  (1) 
O[C@@H](c1ccccc1)c1c(-c2cccnc2)nc2sccn12

$$$$
