
     RDKit          3D

 42 44  0  0  0  0  0  0  0  0999 V2000
    9.0024   -1.0160   20.5070 H   0  0  0  0  0  0  0  0  0  0  0  0
    8.7509   -0.4843   21.2710 O   0  0  0  0  0  0  0  0  0  0  0  0
    7.3467   -0.6311   21.4164 C   0  0  1  0  0  0  0  0  0  0  0  0
    7.0884   -0.0132   22.2895 H   0  0  0  0  0  0  0  0  0  0  0  0
    6.6585   -0.0084   20.2028 C   0  0  0  0  0  0  0  0  0  0  0  0
    7.2362   -0.0560   18.9171 C   0  0  0  0  0  0  0  0  0  0  0  0
    8.1652   -0.5995   18.7277 H   0  0  0  0  0  0  0  0  0  0  0  0
    6.7274    0.5333   17.8270 N   0  0  0  0  0  0  0  0  0  0  0  0
    5.5941    1.2318   17.9748 C   0  0  0  0  0  0  0  0  0  0  0  0
    5.2037    1.7084   17.0776 H   0  0  0  0  0  0  0  0  0  0  0  0
    4.9291    1.3573   19.1963 C   0  0  0  0  0  0  0  0  0  0  0  0
    4.0222    1.9483   19.2541 H   0  0  0  0  0  0  0  0  0  0  0  0
    5.4652    0.7289   20.3232 C   0  0  0  0  0  0  0  0  0  0  0  0
    4.9702    0.8311   21.2925 H   0  0  0  0  0  0  0  0  0  0  0  0
    6.9610   -2.1196   21.7845 C   0  0  0  0  0  0  0  0  0  0  0  0
    7.7889   -2.5911   23.0050 C   0  0  0  0  0  0  0  0  0  0  0  0
    8.8490   -2.5166   22.7321 H   0  0  0  0  0  0  0  0  0  0  0  0
    7.6286   -1.9058   23.8480 H   0  0  0  0  0  0  0  0  0  0  0  0
    7.5065   -4.0181   23.4810 C   0  0  0  0  0  0  0  0  0  0  0  0
    7.2522   -4.6404   22.6112 H   0  0  0  0  0  0  0  0  0  0  0  0
    8.3882   -4.4613   23.9561 H   0  0  0  0  0  0  0  0  0  0  0  0
    6.4595   -3.9516   24.4365 O   0  0  0  0  0  0  0  0  0  0  0  0
    5.5304   -4.9336   24.6167 C   0  0  0  0  0  0  0  0  0  0  0  0
    4.5718   -4.5486   25.6274 C   0  0  0  0  0  0  0  0  0  0  0  0
    4.5854   -3.5562   26.0734 H   0  0  0  0  0  0  0  0  0  0  0  0
    3.5944   -5.4937   25.8728 C   0  0  0  0  0  0  0  0  0  0  0  0
    3.1438   -5.6659   26.8036 H   0  0  0  0  0  0  0  0  0  0  0  0
    3.7334   -6.8876   25.4596 C   0  0  0  0  0  0  0  0  0  0  0  0
    4.2926   -7.9319   25.7923 H   0  0  0  0  0  0  0  0  0  0  0  0
    3.7488   -6.9371   25.2632 C   0  0  0  0  0  0  0  0  0  0  0  0
    4.4971   -6.7029   23.6703 H   0  0  0  0  0  0  0  0  0  0  0  0
    5.4640   -6.1270   23.9203 C   0  0  0  0  0  0  0  0  0  0  0  0
    6.3828   -6.4610   23.4430 H   0  0  0  0  0  0  0  0  0  0  0  0
    5.4424   -2.4403   21.8544 C   0  0  0  0  0  0  0  0  0  0  0  0
    5.0694   -2.7674   22.8290 H   0  0  0  0  0  0  0  0  0  0  0  0
    4.8795   -1.5996   21.4541 H   0  0  0  0  0  0  0  0  0  0  0  0
    5.5731   -3.5573   20.8022 C   0  0  0  0  0  0  0  0  0  0  0  0
    4.9713   -3.4071   19.9034 H   0  0  0  0  0  0  0  0  0  0  0  0
    5.4360   -4.5761   21.1758 H   0  0  0  0  0  0  0  0  0  0  0  0
    7.0197   -3.0998   20.5976 C   0  0  0  0  0  0  0  0  0  0  0  0
    7.0201   -2.5001   19.6916 H   0  0  0  0  0  0  0  0  0  0  0  0
    7.8074   -3.8595   20.6340 H   0  0  0  0  0  0  0  0  0  0  0  0
  1  2  1  0
  2  3  1  0
  3  4  1  1
  3  5  1  0
  5  6  2  0
  6  7  1  0
  6  8  1  0
  8  9  2  0
  9 10  1  0
  9 11  1  0
 11 12  1  0
 11 13  2  0
 13 14  1  0
  3 15  1  0
 15 16  1  0
 16 17  1  0
 16 18  1  0
 16 19  1  0
 19 20  1  0
 19 21  1  0
 19 22  1  0
 22 23  1  0
 23 24  2  0
 24 25  1  0
 24 26  1  0
 26 27  1  0
 26 28  2  0
 28 29  1  0
 28 30  1  0
 30 31  1  0
 30 32  2  0
 32 33  1  0
 15 34  1  0
 34 35  1  0
 34 36  1  0
 34 37  1  0
 37 38  1  0
 37 39  1  0
 37 40  1  0
 40 41  1  0
 40 42  1  0
 13  5  1  0
 40 15  1  0
 32 23  1  0
M  END
>  <cnnaffinity>  (1) 
-4.90662

>  <filename>  (1) 
O[C@@H](c1cccnc1)C1(CCOc2ccccc2)CCC1

$$$$
