
     RDKit          3D

 29 30  0  0  0  0  0  0  0  0999 V2000
    6.1461   -0.8488   22.4288 H   0  0  0  0  0  0  0  0  0  0  0  0
    6.5553   -1.4931   21.8319 O   0  0  0  0  0  0  0  0  0  0  0  0
    7.4263   -0.7570   20.9903 C   0  0  1  0  0  0  0  0  0  0  0  0
    8.0150   -1.5205   20.4634 H   0  0  0  0  0  0  0  0  0  0  0  0
    6.6603    0.0058   19.9232 C   0  0  0  0  0  0  0  0  0  0  0  0
    7.1584    0.0557   18.6066 C   0  0  0  0  0  0  0  0  0  0  0  0
    8.1063   -0.4299   18.3616 H   0  0  0  0  0  0  0  0  0  0  0  0
    6.5584    0.6703   17.5791 N   0  0  0  0  0  0  0  0  0  0  0  0
    5.3992    1.2948   17.8352 C   0  0  0  0  0  0  0  0  0  0  0  0
    4.9235    1.7866   16.9905 H   0  0  0  0  0  0  0  0  0  0  0  0
    4.8066    1.3120   19.1002 C   0  0  0  0  0  0  0  0  0  0  0  0
    3.8762    1.8413   19.2523 H   0  0  0  0  0  0  0  0  0  0  0  0
    5.4377    0.6558   20.1575 C   0  0  0  0  0  0  0  0  0  0  0  0
    4.9771    0.6395   21.1497 H   0  0  0  0  0  0  0  0  0  0  0  0
    8.4150    0.1005   21.8386 C   0  0  0  0  0  0  0  0  0  0  0  0
    9.1022   -0.7566   22.9176 C   0  0  0  0  0  0  0  0  0  0  0  0
    8.3768   -1.1663   23.6257 H   0  0  0  0  0  0  0  0  0  0  0  0
    9.7822   -0.1249   23.4979 H   0  0  0  0  0  0  0  0  0  0  0  0
   10.1223   -2.1207   22.2735 S   0  0  0  0  0  0  0  0  0  0  0  0
    9.0944   -2.9572   22.0854 H   0  0  0  0  0  0  0  0  0  0  0  0
    7.8445    1.4291   22.4440 C   0  0  0  0  0  0  0  0  0  0  0  0
    6.7920    1.6357   22.2307 H   0  0  0  0  0  0  0  0  0  0  0  0
    7.9679    1.5170   23.5277 H   0  0  0  0  0  0  0  0  0  0  0  0
    8.8458    2.2515   21.5996 C   0  0  0  0  0  0  0  0  0  0  0  0
    8.3758    2.8897   20.8545 H   0  0  0  0  0  0  0  0  0  0  0  0
    9.5434    2.8734   22.1686 H   0  0  0  0  0  0  0  0  0  0  0  0
    9.4397    0.9458   21.0241 C   0  0  0  0  0  0  0  0  0  0  0  0
   10.4856    0.7637   21.2851 H   0  0  0  0  0  0  0  0  0  0  0  0
    9.3746    0.8337   19.9407 H   0  0  0  0  0  0  0  0  0  0  0  0
  1  2  1  0
  2  3  1  0
  3  4  1  6
  3  5  1  0
  5  6  2  0
  6  7  1  0
  6  8  1  0
  8  9  2  0
  9 10  1  0
  9 11  1  0
 11 12  1  0
 11 13  2  0
 13 14  1  0
  3 15  1  0
 15 16  1  0
 16 17  1  0
 16 18  1  0
 16 19  1  0
 19 20  1  0
 15 21  1  0
 21 22  1  0
 21 23  1  0
 21 24  1  0
 24 25  1  0
 24 26  1  0
 24 27  1  0
 27 28  1  0
 27 29  1  0
 13  5  1  0
 27 15  1  0
M  END
>  <cnnaffinity>  (1) 
-4.41838

>  <filename>  (1) 
O[C@@H](c1cccnc1)C1(CS)CCC1

$$$$
