
     RDKit          3D

 32 34  0  0  0  0  0  0  0  0999 V2000
    9.8815   -1.8769   24.5981 H   0  0  0  0  0  0  0  0  0  0  0  0
    9.3416   -2.6775   24.5632 O   0  0  0  0  0  0  0  0  0  0  0  0
    8.0382   -2.1996   24.2630 C   0  0  1  0  0  0  0  0  0  0  0  0
    7.3792   -3.0743   24.2949 H   0  0  0  0  0  0  0  0  0  0  0  0
    7.5206   -1.1783   25.2803 C   0  0  0  0  0  0  0  0  0  0  0  0
    8.0925    0.1053   25.3701 C   0  0  0  0  0  0  0  0  0  0  0  0
    8.9025    0.3848   24.6969 H   0  0  0  0  0  0  0  0  0  0  0  0
    7.6249    1.0262   26.3101 C   0  0  0  0  0  0  0  0  0  0  0  0
    8.0869    2.0087   26.3740 H   0  0  0  0  0  0  0  0  0  0  0  0
    6.5715    0.6830   27.1665 C   0  0  0  0  0  0  0  0  0  0  0  0
    6.2113    1.4000   27.8995 H   0  0  0  0  0  0  0  0  0  0  0  0
    5.9843   -0.5842   27.0758 C   0  0  0  0  0  0  0  0  0  0  0  0
    5.1693   -0.8618   27.7406 H   0  0  0  0  0  0  0  0  0  0  0  0
    6.4515   -1.5048   26.1314 C   0  0  0  0  0  0  0  0  0  0  0  0
    5.9954   -2.4934   26.0648 H   0  0  0  0  0  0  0  0  0  0  0  0
    7.9766   -1.6433   22.8638 C   0  0  0  0  0  0  0  0  0  0  0  0
    6.9781   -0.9323   22.2470 C   0  0  0  0  0  0  0  0  0  0  0  0
    6.0714   -0.5930   22.7085 H   0  0  0  0  0  0  0  0  0  0  0  0
    7.4103   -0.7099   20.9279 C   0  0  0  0  0  0  0  0  0  0  0  0
    6.6720    0.0093   19.8883 C   0  0  0  0  0  0  0  0  0  0  0  0
    7.1814    0.0620   18.5837 C   0  0  0  0  0  0  0  0  0  0  0  0
    8.1258   -0.4236   18.3614 H   0  0  0  0  0  0  0  0  0  0  0  0
    6.5655    0.6759   17.5723 N   0  0  0  0  0  0  0  0  0  0  0  0
    5.4046    1.2896   17.8394 C   0  0  0  0  0  0  0  0  0  0  0  0
    4.9217    1.7802   16.9990 H   0  0  0  0  0  0  0  0  0  0  0  0
    4.8126    1.3052   19.1075 C   0  0  0  0  0  0  0  0  0  0  0  0
    3.8807    1.8369   19.2608 H   0  0  0  0  0  0  0  0  0  0  0  0
    5.4482    0.6490   20.1554 C   0  0  0  0  0  0  0  0  0  0  0  0
    5.0046    0.6401   21.1559 H   0  0  0  0  0  0  0  0  0  0  0  0
    8.6111   -1.2612   20.7357 N   0  0  0  0  0  0  0  0  0  0  0  0
    8.9313   -1.8024   21.9160 N   0  0  0  0  0  0  0  0  0  0  0  0
    9.7900   -2.3183   22.0051 H   0  0  0  0  0  0  0  0  0  0  0  0
  1  2  1  0
  2  3  1  0
  3  4  1  6
  3  5  1  0
  5  6  2  0
  6  7  1  0
  6  8  1  0
  8  9  1  0
  8 10  2  0
 10 11  1  0
 10 12  1  0
 12 13  1  0
 12 14  2  0
 14 15  1  0
  3 16  1  0
 16 17  2  0
 17 18  1  0
 17 19  1  0
 19 20  1  0
 20 21  2  0
 21 22  1  0
 21 23  1  0
 23 24  2  0
 24 25  1  0
 24 26  1  0
 26 27  1  0
 26 28  2  0
 28 29  1  0
 19 30  2  0
 30 31  1  0
 31 32  1  0
 14  5  1  0
 31 16  1  0
 28 20  1  0
M  END
>  <cnnaffinity>  (1) 
-4.57421

>  <filename>  (1) 
O[C@@H](c1ccccc1)c1cc(-c2cccnc2)n[nH]1

$$$$
