
     RDKit          3D

 32 35  0  0  0  0  0  0  0  0999 V2000
    5.3961    1.1684   26.3544 H   0  0  0  0  0  0  0  0  0  0  0  0
    5.4592    2.0875   26.0699 O   0  0  0  0  0  0  0  0  0  0  0  0
    6.0611    2.0710   24.8578 C   0  0  0  0  0  0  0  0  0  0  0  0
    6.2829    3.3082   24.2487 C   0  0  0  0  0  0  0  0  0  0  0  0
    5.9529    4.1886   24.7927 H   0  0  0  0  0  0  0  0  0  0  0  0
    6.9010    3.3501   23.0011 C   0  0  0  0  0  0  0  0  0  0  0  0
    7.0687    4.3081   22.5137 H   0  0  0  0  0  0  0  0  0  0  0  0
    7.2921    2.1635   22.3799 C   0  0  0  0  0  0  0  0  0  0  0  0
    7.7484    2.1920   21.3993 H   0  0  0  0  0  0  0  0  0  0  0  0
    7.0739    0.9211   22.9987 C   0  0  0  0  0  0  0  0  0  0  0  0
    7.4757   -0.2945   22.3072 C   0  0  0  0  0  0  0  0  0  0  0  0
    7.3833   -0.6738   20.9680 C   0  0  0  0  0  0  0  0  0  0  0  0
    6.6446    0.0023   19.9070 C   0  0  0  0  0  0  0  0  0  0  0  0
    7.1595    0.0312   18.6010 C   0  0  0  0  0  0  0  0  0  0  0  0
    8.1069   -0.4528   18.3684 H   0  0  0  0  0  0  0  0  0  0  0  0
    6.5632    0.6597   17.5841 N   0  0  0  0  0  0  0  0  0  0  0  0
    5.4029    1.2878   17.8312 C   0  0  0  0  0  0  0  0  0  0  0  0
    4.9445    1.7972   16.9841 H   0  0  0  0  0  0  0  0  0  0  0  0
    4.7942    1.3056   19.0906 C   0  0  0  0  0  0  0  0  0  0  0  0
    3.8649    1.8464   19.2305 H   0  0  0  0  0  0  0  0  0  0  0  0
    5.4202    0.6510   20.1464 C   0  0  0  0  0  0  0  0  0  0  0  0
    4.9912    0.6644   21.1492 H   0  0  0  0  0  0  0  0  0  0  0  0
    8.0456   -1.8531   20.7358 N   0  0  0  0  0  0  0  0  0  0  0  0
    8.4634   -2.2078   21.9187 C   0  0  0  0  0  0  0  0  0  0  0  0
    9.3598   -3.5338   22.5874 S   0  0  0  0  0  0  0  0  0  0  0  0
    9.4341   -2.7444   24.1406 C   0  0  0  0  0  0  0  0  0  0  0  0
   10.0051   -3.2117   24.9329 H   0  0  0  0  0  0  0  0  0  0  0  0
    8.7459   -1.5923   24.1497 C   0  0  0  0  0  0  0  0  0  0  0  0
    8.5965   -0.8741   24.9486 H   0  0  0  0  0  0  0  0  0  0  0  0
    8.1677   -1.3213   22.9133 N   0  0  0  0  0  0  0  0  0  0  0  0
    6.4463    0.8772   24.2509 C   0  0  0  0  0  0  0  0  0  0  0  0
    6.2496   -0.0850   24.7183 H   0  0  0  0  0  0  0  0  0  0  0  0
  1  2  1  0
  2  3  1  0
  3  4  2  0
  4  5  1  0
  4  6  1  0
  6  7  1  0
  6  8  2  0
  8  9  1  0
  8 10  1  0
 10 11  1  0
 11 12  2  0
 12 13  1  0
 13 14  2  0
 14 15  1  0
 14 16  1  0
 16 17  2  0
 17 18  1  0
 17 19  1  0
 19 20  1  0
 19 21  2  0
 21 22  1  0
 12 23  1  0
 23 24  2  0
 24 25  1  0
 25 26  1  0
 26 27  1  0
 26 28  2  0
 28 29  1  0
 28 30  1  0
 10 31  2  0
 31 32  1  0
 31  3  1  0
 30 11  1  0
 21 13  1  0
 30 24  1  0
M  END
>  <cnnaffinity>  (1) 
-5.52576

>  <filename>  (1) 
Oc1cccc(-c2c(-c3cccnc3)nc3sccn23)c1

$$$$
