
     RDKit          3D

 28 30  0  0  0  0  0  0  0  0999 V2000
    6.9271    0.2383   24.0159 H   0  0  0  0  0  0  0  0  0  0  0  0
    6.9936    0.1527   24.9921 O   0  0  0  0  0  0  0  0  0  0  0  0
    7.3673   -1.1137   25.2478 C   0  0  0  0  0  0  0  0  0  0  0  0
    7.2565   -1.6016   26.5602 C   0  0  0  0  0  0  0  0  0  0  0  0
    6.8356   -0.9396   27.3103 H   0  0  0  0  0  0  0  0  0  0  0  0
    7.6820   -2.8978   26.8563 C   0  0  0  0  0  0  0  0  0  0  0  0
    7.6111   -3.3254   27.8462 H   0  0  0  0  0  0  0  0  0  0  0  0
    8.2243   -3.7179   25.8604 C   0  0  0  0  0  0  0  0  0  0  0  0
    8.5677   -4.7232   26.0908 H   0  0  0  0  0  0  0  0  0  0  0  0
    8.3174   -3.2450   24.5615 C   0  0  0  0  0  0  0  0  0  0  0  0
    8.7121   -3.8866   23.7756 H   0  0  0  0  0  0  0  0  0  0  0  0
    7.8839   -1.9445   24.2325 C   0  0  0  0  0  0  0  0  0  0  0  0
    7.9024   -1.4380   22.8600 C   0  0  0  0  0  0  0  0  0  0  0  0
    7.0548   -0.6030   22.2768 N   0  0  0  0  0  0  0  0  0  0  0  0
    7.4232   -0.6243   20.9657 C   0  0  0  0  0  0  0  0  0  0  0  0
    6.6658    0.0470   19.9084 C   0  0  0  0  0  0  0  0  0  0  0  0
    7.1836    0.0554   18.6054 C   0  0  0  0  0  0  0  0  0  0  0  0
    8.1253   -0.4437   18.3773 H   0  0  0  0  0  0  0  0  0  0  0  0
    6.5747    0.6593   17.5808 N   0  0  0  0  0  0  0  0  0  0  0  0
    5.4150    1.2876   17.8266 C   0  0  0  0  0  0  0  0  0  0  0  0
    4.9513    1.7986   16.9830 H   0  0  0  0  0  0  0  0  0  0  0  0
    4.8030    1.3086   19.0855 C   0  0  0  0  0  0  0  0  0  0  0  0
    3.8658    1.8376   19.2241 H   0  0  0  0  0  0  0  0  0  0  0  0
    5.4358    0.6712   20.1485 C   0  0  0  0  0  0  0  0  0  0  0  0
    5.0035    0.6522   21.1525 H   0  0  0  0  0  0  0  0  0  0  0  0
    8.5135   -1.3326   20.7238 N   0  0  0  0  0  0  0  0  0  0  0  0
    8.7932   -1.8425   21.9435 N   0  0  0  0  0  0  0  0  0  0  0  0
    9.6689   -2.2974   22.1394 H   0  0  0  0  0  0  0  0  0  0  0  0
  1  2  1  0
  2  3  1  0
  3  4  2  0
  4  5  1  0
  4  6  1  0
  6  7  1  0
  6  8  2  0
  8  9  1  0
  8 10  1  0
 10 11  1  0
 10 12  2  0
 12 13  1  0
 13 14  2  0
 14 15  1  0
 15 16  1  0
 16 17  2  0
 17 18  1  0
 17 19  1  0
 19 20  2  0
 20 21  1  0
 20 22  1  0
 22 23  1  0
 22 24  2  0
 24 25  1  0
 15 26  2  0
 26 27  1  0
 27 28  1  0
 12  3  1  0
 27 13  1  0
 24 16  1  0
M  END
>  <cnnaffinity>  (1) 
-4.77034

>  <filename>  (1) 
Oc1ccccc1-c1nc(-c2cccnc2)n[nH]1

$$$$
