
     RDKit          3D

 31 34  0  0  0  0  0  0  0  0999 V2000
    5.0278   -1.9406   23.5343 H   0  0  0  0  0  0  0  0  0  0  0  0
    5.3930   -2.5937   24.1642 O   0  0  0  0  0  0  0  0  0  0  0  0
    5.8651   -1.8671   25.2250 C   0  0  0  0  0  0  0  0  0  0  0  0
    4.9738   -1.4723   26.2246 C   0  0  0  0  0  0  0  0  0  0  0  0
    3.9182   -1.7152   26.1051 H   0  0  0  0  0  0  0  0  0  0  0  0
    5.4442   -0.7967   27.3501 C   0  0  0  0  0  0  0  0  0  0  0  0
    4.7385   -0.4553   28.1095 H   0  0  0  0  0  0  0  0  0  0  0  0
    6.8133   -0.5444   27.4905 C   0  0  0  0  0  0  0  0  0  0  0  0
    7.1785   -0.0243   28.3687 H   0  0  0  0  0  0  0  0  0  0  0  0
    7.7113   -0.9538   26.5021 C   0  0  0  0  0  0  0  0  0  0  0  0
    8.7743   -0.7426   26.6203 H   0  0  0  0  0  0  0  0  0  0  0  0
    7.2437   -1.5796   25.3258 C   0  0  0  0  0  0  0  0  0  0  0  0
    8.1620   -1.8912   24.2141 C   0  0  0  0  0  0  0  0  0  0  0  0
    9.3655   -2.5088   24.2714 C   0  0  0  0  0  0  0  0  0  0  0  0
    9.8427   -2.9376   25.1432 H   0  0  0  0  0  0  0  0  0  0  0  0
   10.1484   -2.6324   22.7223 S   0  0  0  0  0  0  0  0  0  0  0  0
    8.8073   -1.8094   21.9827 C   0  0  0  0  0  0  0  0  0  0  0  0
    8.4944   -1.3315   20.8019 N   0  0  0  0  0  0  0  0  0  0  0  0
    7.2901   -0.7396   21.0475 C   0  0  0  0  0  0  0  0  0  0  0  0
    6.5792   -0.0225   19.9842 C   0  0  0  0  0  0  0  0  0  0  0  0
    7.1588   -0.0096   18.7036 C   0  0  0  0  0  0  0  0  0  0  0  0
    8.0953   -0.5273   18.5176 H   0  0  0  0  0  0  0  0  0  0  0  0
    6.6219    0.6134   17.6515 N   0  0  0  0  0  0  0  0  0  0  0  0
    5.4664    1.2658   17.8423 C   0  0  0  0  0  0  0  0  0  0  0  0
    5.0525    1.7688   16.9705 H   0  0  0  0  0  0  0  0  0  0  0  0
    4.8062    1.3124   19.0753 C   0  0  0  0  0  0  0  0  0  0  0  0
    3.8786    1.8661   19.1556 H   0  0  0  0  0  0  0  0  0  0  0  0
    5.3674    0.6645   20.1756 C   0  0  0  0  0  0  0  0  0  0  0  0
    4.8864    0.6977   21.1540 H   0  0  0  0  0  0  0  0  0  0  0  0
    6.8377   -0.8436   22.2942 N   0  0  0  0  0  0  0  0  0  0  0  0
    7.8486   -1.5451   22.8927 N   0  0  0  0  0  0  0  0  0  0  0  0
  1  2  1  0
  2  3  1  0
  3  4  2  0
  4  5  1  0
  4  6  1  0
  6  7  1  0
  6  8  2  0
  8  9  1  0
  8 10  1  0
 10 11  1  0
 10 12  2  0
 12 13  1  0
 13 14  2  0
 14 15  1  0
 14 16  1  0
 16 17  1  0
 17 18  2  0
 18 19  1  0
 19 20  1  0
 20 21  2  0
 21 22  1  0
 21 23  1  0
 23 24  2  0
 24 25  1  0
 24 26  1  0
 26 27  1  0
 26 28  2  0
 28 29  1  0
 19 30  2  0
 30 31  1  0
 12  3  1  0
 31 13  1  0
 31 17  1  0
 28 20  1  0
M  END
>  <cnnaffinity>  (1) 
-5.62568

>  <filename>  (1) 
Oc1ccccc1-c1csc2nc(-c3cccnc3)nn12

$$$$
