
     RDKit          3D

 29 31  0  0  0  0  0  0  0  0999 V2000
    5.0553    1.3788   26.0338 H   0  0  0  0  0  0  0  0  0  0  0  0
    5.2406    2.2658   25.7104 O   0  0  0  0  0  0  0  0  0  0  0  0
    5.9710    2.1606   24.5724 C   0  0  0  0  0  0  0  0  0  0  0  0
    6.3523    3.3689   23.9811 C   0  0  0  0  0  0  0  0  0  0  0  0
    6.0377    4.2901   24.4600 H   0  0  0  0  0  0  0  0  0  0  0  0
    7.1142    3.3412   22.8181 C   0  0  0  0  0  0  0  0  0  0  0  0
    7.3964    4.2801   22.3539 H   0  0  0  0  0  0  0  0  0  0  0  0
    7.5041    2.1297   22.2429 C   0  0  0  0  0  0  0  0  0  0  0  0
    8.0768    2.1212   21.3219 H   0  0  0  0  0  0  0  0  0  0  0  0
    7.1032    0.9293   22.8376 C   0  0  0  0  0  0  0  0  0  0  0  0
    7.4999   -0.3174   22.2480 N   0  0  0  0  0  0  0  0  0  0  0  0
    7.3754   -0.7087   20.9229 C   0  0  0  0  0  0  0  0  0  0  0  0
    6.6413    0.0142   19.8929 C   0  0  0  0  0  0  0  0  0  0  0  0
    7.1632    0.0526   18.5901 C   0  0  0  0  0  0  0  0  0  0  0  0
    8.1123   -0.4348   18.3667 H   0  0  0  0  0  0  0  0  0  0  0  0
    6.5647    0.6802   17.5750 N   0  0  0  0  0  0  0  0  0  0  0  0
    5.3993    1.2958   17.8360 C   0  0  0  0  0  0  0  0  0  0  0  0
    4.9243    1.7878   16.9922 H   0  0  0  0  0  0  0  0  0  0  0  0
    4.7960    1.3106   19.0986 C   0  0  0  0  0  0  0  0  0  0  0  0
    3.8686    1.8459   19.2489 H   0  0  0  0  0  0  0  0  0  0  0  0
    5.4206    0.6529   20.1509 C   0  0  0  0  0  0  0  0  0  0  0  0
    5.0096    0.6404   21.1629 H   0  0  0  0  0  0  0  0  0  0  0  0
    7.9752   -1.8406   20.7039 N   0  0  0  0  0  0  0  0  0  0  0  0
    8.4743   -2.1874   21.9191 N   0  0  0  0  0  0  0  0  0  0  0  0
    9.0185   -3.0203   22.0664 H   0  0  0  0  0  0  0  0  0  0  0  0
    8.2481   -1.2861   22.8936 C   0  0  0  0  0  0  0  0  0  0  0  0
    8.8031   -1.3868   24.4498 S   0  0  0  0  0  0  0  0  0  0  0  0
    6.3373    0.9324   24.0070 C   0  0  0  0  0  0  0  0  0  0  0  0
    6.0657   -0.0112   24.4725 H   0  0  0  0  0  0  0  0  0  0  0  0
  1  2  1  0
  2  3  1  0
  3  4  2  0
  4  5  1  0
  4  6  1  0
  6  7  1  0
  6  8  2  0
  8  9  1  0
  8 10  1  0
 10 11  1  0
 11 12  1  0
 12 13  1  0
 13 14  2  0
 14 15  1  0
 14 16  1  0
 16 17  2  0
 17 18  1  0
 17 19  1  0
 19 20  1  0
 19 21  2  0
 21 22  1  0
 12 23  2  0
 23 24  1  0
 24 25  1  0
 24 26  1  0
 26 27  2  0
 10 28  2  0
 28 29  1  0
 28  3  1  0
 26 11  1  0
 21 13  1  0
M  END
>  <cnnaffinity>  (1) 
-5.04821

>  <filename>  (1) 
Oc1cccc(-n2c(-c3cccnc3)n[nH]c2=S)c1

$$$$
