
     RDKit          3D

 30 32  0  0  0  0  0  0  0  0999 V2000
    9.3760   -5.7945   26.5391 H   0  0  0  0  0  0  0  0  0  0  0  0
    9.6317   -5.1955   25.8303 O   0  0  0  0  0  0  0  0  0  0  0  0
    8.5040   -4.5961   25.3687 C   0  0  0  0  0  0  0  0  0  0  0  0
    7.2284   -4.8597   25.8883 C   0  0  0  0  0  0  0  0  0  0  0  0
    7.0906   -5.5704   26.7009 H   0  0  0  0  0  0  0  0  0  0  0  0
    6.1218   -4.1902   25.3473 C   0  0  0  0  0  0  0  0  0  0  0  0
    5.1182   -4.3719   25.7271 H   0  0  0  0  0  0  0  0  0  0  0  0
    6.2913   -3.2770   24.3091 C   0  0  0  0  0  0  0  0  0  0  0  0
    5.4416   -2.7441   23.8928 H   0  0  0  0  0  0  0  0  0  0  0  0
    7.5710   -3.0150   23.7861 C   0  0  0  0  0  0  0  0  0  0  0  0
    7.6918   -2.0671   22.6726 C   0  0  0  0  0  0  0  0  0  0  0  0
    6.7485   -1.6080   21.8114 C   0  0  0  0  0  0  0  0  0  0  0  0
    5.7033   -1.8456   21.7235 H   0  0  0  0  0  0  0  0  0  0  0  0
    7.3415   -0.6982   20.9486 N   0  0  0  0  0  0  0  0  0  0  0  0
    6.6557   -0.0058   19.9049 C   0  0  0  0  0  0  0  0  0  0  0  0
    7.1726    0.0461   18.5957 C   0  0  0  0  0  0  0  0  0  0  0  0
    8.1252   -0.4301   18.3717 H   0  0  0  0  0  0  0  0  0  0  0  0
    6.5575    0.6671   17.5835 N   0  0  0  0  0  0  0  0  0  0  0  0
    5.3976    1.2919   17.8414 C   0  0  0  0  0  0  0  0  0  0  0  0
    4.9222    1.7866   16.9966 H   0  0  0  0  0  0  0  0  0  0  0  0
    4.8129    1.3080   19.1107 C   0  0  0  0  0  0  0  0  0  0  0  0
    3.8825    1.8379   19.2632 H   0  0  0  0  0  0  0  0  0  0  0  0
    5.4452    0.6419   20.1637 C   0  0  0  0  0  0  0  0  0  0  0  0
    5.0231    0.6298   21.1692 H   0  0  0  0  0  0  0  0  0  0  0  0
    8.6653   -0.5366   21.2960 C   0  0  0  0  0  0  0  0  0  0  0  0
    9.8096    0.5026   20.7164 S   0  0  0  0  0  0  0  0  0  0  0  0
    8.8662   -1.4185   22.3067 N   0  0  0  0  0  0  0  0  0  0  0  0
    9.7642   -1.4302   22.7520 H   0  0  0  0  0  0  0  0  0  0  0  0
    8.6769   -3.6850   24.3272 C   0  0  0  0  0  0  0  0  0  0  0  0
    9.6871   -3.5403   23.9597 H   0  0  0  0  0  0  0  0  0  0  0  0
  1  2  1  0
  2  3  1  0
  3  4  2  0
  4  5  1  0
  4  6  1  0
  6  7  1  0
  6  8  2  0
  8  9  1  0
  8 10  1  0
 10 11  1  0
 11 12  2  0
 12 13  1  0
 12 14  1  0
 14 15  1  0
 15 16  2  0
 16 17  1  0
 16 18  1  0
 18 19  2  0
 19 20  1  0
 19 21  1  0
 21 22  1  0
 21 23  2  0
 23 24  1  0
 14 25  1  0
 25 26  2  0
 25 27  1  0
 27 28  1  0
 10 29  2  0
 29 30  1  0
 29  3  1  0
 27 11  1  0
 23 15  1  0
M  END
>  <cnnaffinity>  (1) 
-5.30088

>  <filename>  (1) 
Oc1cccc(-c2cn(-c3cccnc3)c(=S)[nH]2)c1

$$$$
