
     RDKit          3D

 30 32  0  0  0  0  0  0  0  0999 V2000
   11.1629   -0.5819   25.4086 H   0  0  0  0  0  0  0  0  0  0  0  0
   10.4437   -0.7218   24.7869 O   0  0  0  0  0  0  0  0  0  0  0  0
    9.2744   -0.4372   25.4228 C   0  0  0  0  0  0  0  0  0  0  0  0
    9.2327   -0.0413   26.7637 C   0  0  0  0  0  0  0  0  0  0  0  0
   10.1586    0.0206   27.3354 H   0  0  0  0  0  0  0  0  0  0  0  0
    8.0040    0.2589   27.3643 C   0  0  0  0  0  0  0  0  0  0  0  0
    7.9696    0.5732   28.4043 H   0  0  0  0  0  0  0  0  0  0  0  0
    6.8132    0.1616   26.6392 C   0  0  0  0  0  0  0  0  0  0  0  0
    5.8535    0.3986   27.0930 H   0  0  0  0  0  0  0  0  0  0  0  0
    6.8669   -0.2346   25.3054 C   0  0  0  0  0  0  0  0  0  0  0  0
    5.9601   -0.3272   24.7145 H   0  0  0  0  0  0  0  0  0  0  0  0
    8.0818   -0.5460   24.6796 C   0  0  0  0  0  0  0  0  0  0  0  0
    8.0807   -0.9720   23.2572 C   0  0  0  0  0  0  0  0  0  0  0  0
    8.7642   -2.1242   22.8152 C   0  0  0  0  0  0  0  0  0  0  0  0
    9.3183   -2.7416   23.5095 H   0  0  0  0  0  0  0  0  0  0  0  0
    8.7576   -2.5312   21.5427 N   0  0  0  0  0  0  0  0  0  0  0  0
    8.1073   -1.8101   20.6203 N   0  0  0  0  0  0  0  0  0  0  0  0
    7.4046   -0.7177   20.9686 C   0  0  0  0  0  0  0  0  0  0  0  0
    6.6601   -0.0036   19.9018 C   0  0  0  0  0  0  0  0  0  0  0  0
    7.1754    0.0482   18.5974 C   0  0  0  0  0  0  0  0  0  0  0  0
    8.1233   -0.4346   18.3705 H   0  0  0  0  0  0  0  0  0  0  0  0
    6.5700    0.6774   17.5856 N   0  0  0  0  0  0  0  0  0  0  0  0
    5.4050    1.2886   17.8441 C   0  0  0  0  0  0  0  0  0  0  0  0
    4.9246    1.7802   17.0008 H   0  0  0  0  0  0  0  0  0  0  0  0
    4.8081    1.3032   19.1082 C   0  0  0  0  0  0  0  0  0  0  0  0
    3.8795    1.8387   19.2580 H   0  0  0  0  0  0  0  0  0  0  0  0
    5.4436    0.6472   20.1603 C   0  0  0  0  0  0  0  0  0  0  0  0
    4.9998    0.6309   21.1586 H   0  0  0  0  0  0  0  0  0  0  0  0
    7.3684   -0.2693   22.2970 C   0  0  0  0  0  0  0  0  0  0  0  0
    6.8308    0.6415   22.5520 H   0  0  0  0  0  0  0  0  0  0  0  0
  1  2  1  0
  2  3  1  0
  3  4  2  0
  4  5  1  0
  4  6  1  0
  6  7  1  0
  6  8  2  0
  8  9  1  0
  8 10  1  0
 10 11  1  0
 10 12  2  0
 12 13  1  0
 13 14  2  0
 14 15  1  0
 14 16  1  0
 16 17  2  0
 17 18  1  0
 18 19  1  0
 19 20  2  0
 20 21  1  0
 20 22  1  0
 22 23  2  0
 23 24  1  0
 23 25  1  0
 25 26  1  0
 25 27  2  0
 27 28  1  0
 18 29  2  0
 29 30  1  0
 12  3  1  0
 29 13  1  0
 27 19  1  0
M  END
>  <cnnaffinity>  (1) 
-4.77687

>  <filename>  (1) 
Oc1ccccc1-c1cnnc(-c2cccnc2)c1

$$$$
