
     RDKit          3D

 29 31  0  0  0  0  0  0  0  0999 V2000
    6.0789   -0.8556   28.1527 H   0  0  0  0  0  0  0  0  0  0  0  0
    6.1811   -1.1707   27.2480 O   0  0  0  0  0  0  0  0  0  0  0  0
    6.3128   -0.0752   26.4653 C   0  0  0  0  0  0  0  0  0  0  0  0
    6.2730    1.2081   27.0000 C   0  0  0  0  0  0  0  0  0  0  0  0
    6.1467    1.4201   28.0540 H   0  0  0  0  0  0  0  0  0  0  0  0
    6.4154    2.2889   26.1297 C   0  0  0  0  0  0  0  0  0  0  0  0
    6.3503    3.5199   26.6852 O   0  0  0  0  0  0  0  0  0  0  0  0
    6.4514    4.1663   25.9786 H   0  0  0  0  0  0  0  0  0  0  0  0
    6.6062    2.1000   24.7566 C   0  0  0  0  0  0  0  0  0  0  0  0
    6.6877    2.9317   24.0713 H   0  0  0  0  0  0  0  0  0  0  0  0
    6.6625    0.7961   24.2639 C   0  0  0  0  0  0  0  0  0  0  0  0
    6.7904    0.6639   22.8767 O   0  0  0  0  0  0  0  0  0  0  0  0
    7.4128   -0.3917   22.3326 C   0  0  0  0  0  0  0  0  0  0  0  0
    8.1749   -1.2978   22.8896 N   0  0  0  0  0  0  0  0  0  0  0  0
    8.6005   -2.0877   21.8728 N   0  0  0  0  0  0  0  0  0  0  0  0
    8.1326   -1.7009   20.7478 N   0  0  0  0  0  0  0  0  0  0  0  0
    7.3591   -0.6087   20.9921 N   0  0  0  0  0  0  0  0  0  0  0  0
    6.6570    0.0404   19.9276 C   0  0  0  0  0  0  0  0  0  0  0  0
    7.1789    0.0529   18.6182 C   0  0  0  0  0  0  0  0  0  0  0  0
    8.1192   -0.4429   18.3858 H   0  0  0  0  0  0  0  0  0  0  0  0
    6.5682    0.6630   17.5987 N   0  0  0  0  0  0  0  0  0  0  0  0
    5.4015    1.2858   17.8403 C   0  0  0  0  0  0  0  0  0  0  0  0
    4.9392    1.7872   16.9925 H   0  0  0  0  0  0  0  0  0  0  0  0
    4.7986    1.3049   19.0992 C   0  0  0  0  0  0  0  0  0  0  0  0
    3.8660    1.8392   19.2423 H   0  0  0  0  0  0  0  0  0  0  0  0
    5.4316    0.6648   20.1691 C   0  0  0  0  0  0  0  0  0  0  0  0
    5.0004    0.6551   21.1656 H   0  0  0  0  0  0  0  0  0  0  0  0
    6.5010   -0.3013   25.1005 C   0  0  0  0  0  0  0  0  0  0  0  0
    6.5268   -1.3192   24.7486 H   0  0  0  0  0  0  0  0  0  0  0  0
  1  2  1  0
  2  3  1  0
  3  4  2  0
  4  5  1  0
  4  6  1  0
  6  7  1  0
  7  8  1  0
  6  9  2  0
  9 10  1  0
  9 11  1  0
 11 12  1  0
 12 13  1  0
 13 14  2  0
 14 15  1  0
 15 16  2  0
 16 17  1  0
 17 18  1  0
 18 19  2  0
 19 20  1  0
 19 21  1  0
 21 22  2  0
 22 23  1  0
 22 24  1  0
 24 25  1  0
 24 26  2  0
 26 27  1  0
 11 28  2  0
 28 29  1  0
 28  3  1  0
 17 13  1  0
 26 18  1  0
M  END
>  <cnnaffinity>  (1) 
-5.02514

>  <filename>  (1) 
Oc1cc(O)cc(Oc2nnnn2-c2cccnc2)c1

$$$$
