
     RDKit          3D

 29 31  0  0  0  0  0  0  0  0999 V2000
    5.2760   -2.3474   24.4937 H   0  0  0  0  0  0  0  0  0  0  0  0
    5.6114   -3.1906   24.8268 O   0  0  0  0  0  0  0  0  0  0  0  0
    6.8315   -3.3582   24.2721 C   0  0  0  0  0  0  0  0  0  0  0  0
    7.5366   -4.5144   24.5851 C   0  0  0  0  0  0  0  0  0  0  0  0
    7.0874   -5.2308   25.2625 H   0  0  0  0  0  0  0  0  0  0  0  0
    8.8095   -4.6784   24.0431 C   0  0  0  0  0  0  0  0  0  0  0  0
    9.5392   -5.7752   24.3437 O   0  0  0  0  0  0  0  0  0  0  0  0
    9.0040   -6.3055   24.9421 H   0  0  0  0  0  0  0  0  0  0  0  0
    9.3710   -3.7138   23.2086 C   0  0  0  0  0  0  0  0  0  0  0  0
   10.4010   -3.8085   22.8984 H   0  0  0  0  0  0  0  0  0  0  0  0
    8.6132   -2.5931   22.8652 C   0  0  0  0  0  0  0  0  0  0  0  0
    9.1722   -1.6411   21.9605 N   0  0  0  0  0  0  0  0  0  0  0  0
   10.5204   -1.4888   21.8390 N   0  0  0  0  0  0  0  0  0  0  0  0
   10.7140   -0.5760   20.9746 N   0  0  0  0  0  0  0  0  0  0  0  0
    9.5473   -0.1020   20.4731 N   0  0  0  0  0  0  0  0  0  0  0  0
    8.6124   -0.7780   21.0918 C   0  0  0  0  0  0  0  0  0  0  0  0
    7.2820   -0.6799   20.9569 O   0  0  0  0  0  0  0  0  0  0  0  0
    6.6930    0.0141   19.8898 C   0  0  0  0  0  0  0  0  0  0  0  0
    7.2019    0.0492   18.5762 C   0  0  0  0  0  0  0  0  0  0  0  0
    8.1557   -0.4175   18.3382 H   0  0  0  0  0  0  0  0  0  0  0  0
    6.5607    0.6630   17.5753 N   0  0  0  0  0  0  0  0  0  0  0  0
    5.4029    1.2818   17.8447 C   0  0  0  0  0  0  0  0  0  0  0  0
    4.9238    1.7882   17.0126 H   0  0  0  0  0  0  0  0  0  0  0  0
    4.8238    1.3018   19.1184 C   0  0  0  0  0  0  0  0  0  0  0  0
    3.8867    1.8241   19.2774 H   0  0  0  0  0  0  0  0  0  0  0  0
    5.4792    0.6432   20.1610 C   0  0  0  0  0  0  0  0  0  0  0  0
    5.0720    0.6047   21.1696 H   0  0  0  0  0  0  0  0  0  0  0  0
    7.3432   -2.3924   23.4078 C   0  0  0  0  0  0  0  0  0  0  0  0
    6.7615   -1.5077   23.1938 H   0  0  0  0  0  0  0  0  0  0  0  0
  1  2  1  0
  2  3  1  0
  3  4  2  0
  4  5  1  0
  4  6  1  0
  6  7  1  0
  7  8  1  0
  6  9  2  0
  9 10  1  0
  9 11  1  0
 11 12  1  0
 12 13  1  0
 13 14  2  0
 14 15  1  0
 15 16  2  0
 16 17  1  0
 17 18  1  0
 18 19  2  0
 19 20  1  0
 19 21  1  0
 21 22  2  0
 22 23  1  0
 22 24  1  0
 24 25  1  0
 24 26  2  0
 26 27  1  0
 11 28  2  0
 28 29  1  0
 28  3  1  0
 16 12  1  0
 26 18  1  0
M  END
>  <cnnaffinity>  (1) 
-5.09959

>  <filename>  (1) 
Oc1cc(O)cc(-n2nnnc2Oc2cccnc2)c1

$$$$
