
     RDKit          3D

 33 35  0  0  0  0  0  0  0  0999 V2000
    7.5679   -2.8942   23.8331 H   0  0  0  0  0  0  0  0  0  0  0  0
    7.7901   -2.0691   24.2772 O   0  0  0  0  0  0  0  0  0  0  0  0
    8.9569   -1.6019   23.7579 C   0  0  0  0  0  0  0  0  0  0  0  0
    9.4686   -0.4666   24.3933 C   0  0  0  0  0  0  0  0  0  0  0  0
    8.9147   -0.0495   25.2237 H   0  0  0  0  0  0  0  0  0  0  0  0
   10.6614    0.0964   23.9558 C   0  0  0  0  0  0  0  0  0  0  0  0
   11.2858    1.4961   24.7676 Cl  0  0  0  0  0  0  0  0  0  0  0  0
   11.3673   -0.4489   22.8853 C   0  0  0  0  0  0  0  0  0  0  0  0
   12.3071    0.0016   22.5826 H   0  0  0  0  0  0  0  0  0  0  0  0
   10.8450   -1.5737   22.2350 C   0  0  0  0  0  0  0  0  0  0  0  0
   11.3846   -2.0126   21.4015 H   0  0  0  0  0  0  0  0  0  0  0  0
    9.6334   -2.1467   22.6354 C   0  0  0  0  0  0  0  0  0  0  0  0
    9.1649   -3.2684   21.9366 O   0  0  0  0  0  0  0  0  0  0  0  0
    7.9311   -3.2282   21.3722 C   0  0  0  0  0  0  0  0  0  0  0  0
    7.1266   -2.2027   20.9310 C   0  0  0  0  0  0  0  0  0  0  0  0
    7.3872   -0.7201   20.9826 C   0  0  0  0  0  0  0  0  0  0  0  0
    8.4659   -0.5324   20.9028 H   0  0  0  0  0  0  0  0  0  0  0  0
    7.0881   -0.3449   21.9725 H   0  0  0  0  0  0  0  0  0  0  0  0
    6.6638    0.0357   19.9069 C   0  0  0  0  0  0  0  0  0  0  0  0
    7.1656    0.0718   18.5969 C   0  0  0  0  0  0  0  0  0  0  0  0
    8.1103   -0.4247   18.3718 H   0  0  0  0  0  0  0  0  0  0  0  0
    6.5564    0.6782   17.5708 N   0  0  0  0  0  0  0  0  0  0  0  0
    5.3931    1.2939   17.8320 C   0  0  0  0  0  0  0  0  0  0  0  0
    4.9159    1.7854   16.9883 H   0  0  0  0  0  0  0  0  0  0  0  0
    4.7966    1.3151   19.0960 C   0  0  0  0  0  0  0  0  0  0  0  0
    3.8667    1.8465   19.2503 H   0  0  0  0  0  0  0  0  0  0  0  0
    5.4387    0.6662   20.1521 C   0  0  0  0  0  0  0  0  0  0  0  0
    5.0049    0.6432   21.1555 H   0  0  0  0  0  0  0  0  0  0  0  0
    5.9976   -2.8777   20.4137 C   0  0  0  0  0  0  0  0  0  0  0  0
    5.1419   -2.4205   19.9416 H   0  0  0  0  0  0  0  0  0  0  0  0
    6.0860   -4.1917   20.5058 N   0  0  0  0  0  0  0  0  0  0  0  0
    7.2930   -4.3845   21.0889 N   0  0  0  0  0  0  0  0  0  0  0  0
    7.6144   -5.3220   21.2672 H   0  0  0  0  0  0  0  0  0  0  0  0
  1  2  1  0
  2  3  1  0
  3  4  2  0
  4  5  1  0
  4  6  1  0
  6  7  1  0
  6  8  2  0
  8  9  1  0
  8 10  1  0
 10 11  1  0
 10 12  2  0
 12 13  1  0
 13 14  1  0
 14 15  2  0
 15 16  1  0
 16 17  1  0
 16 18  1  0
 16 19  1  0
 19 20  2  0
 20 21  1  0
 20 22  1  0
 22 23  2  0
 23 24  1  0
 23 25  1  0
 25 26  1  0
 25 27  2  0
 27 28  1  0
 15 29  1  0
 29 30  1  0
 29 31  2  0
 31 32  1  0
 32 33  1  0
 12  3  1  0
 32 14  1  0
 27 19  1  0
M  END
>  <cnnaffinity>  (1) 
-5.51823

>  <filename>  (1) 
Oc1cc(Cl)ccc1Oc1[nH]ncc1Cc1cccnc1

$$$$
