
     RDKit          3D

 31 34  0  0  0  0  0  0  0  0999 V2000
    4.1657   -1.8241   28.8782 H   0  0  0  0  0  0  0  0  0  0  0  0
    4.2079   -1.0781   28.2707 O   0  0  0  0  0  0  0  0  0  0  0  0
    5.1181   -1.3569   27.3030 C   0  0  0  0  0  0  0  0  0  0  0  0
    5.8384   -2.5563   27.2344 C   0  0  0  0  0  0  0  0  0  0  0  0
    5.6961   -3.3346   27.9826 H   0  0  0  0  0  0  0  0  0  0  0  0
    6.7530   -2.7491   26.1930 C   0  0  0  0  0  0  0  0  0  0  0  0
    7.3027   -3.6870   26.1369 H   0  0  0  0  0  0  0  0  0  0  0  0
    6.9657   -1.7674   25.2044 C   0  0  0  0  0  0  0  0  0  0  0  0
    7.9527   -2.0169   24.1246 C   0  0  0  0  0  0  0  0  0  0  0  0
    9.0769   -2.7643   24.2038 C   0  0  0  0  0  0  0  0  0  0  0  0
    9.4593   -3.2847   25.0702 H   0  0  0  0  0  0  0  0  0  0  0  0
    9.9946   -2.8147   22.7258 S   0  0  0  0  0  0  0  0  0  0  0  0
    8.8003   -1.8161   21.9507 C   0  0  0  0  0  0  0  0  0  0  0  0
    8.5488   -1.3278   20.7561 N   0  0  0  0  0  0  0  0  0  0  0  0
    7.3651   -0.6891   20.9665 C   0  0  0  0  0  0  0  0  0  0  0  0
    6.6457    0.0162   19.9120 C   0  0  0  0  0  0  0  0  0  0  0  0
    7.1796    0.0533   18.6160 C   0  0  0  0  0  0  0  0  0  0  0  0
    8.1263   -0.4328   18.3854 H   0  0  0  0  0  0  0  0  0  0  0  0
    6.5739    0.6676   17.5948 N   0  0  0  0  0  0  0  0  0  0  0  0
    5.4091    1.2856   17.8467 C   0  0  0  0  0  0  0  0  0  0  0  0
    4.9275    1.7727   17.0027 H   0  0  0  0  0  0  0  0  0  0  0  0
    4.8043    1.3102   19.1090 C   0  0  0  0  0  0  0  0  0  0  0  0
    3.8737    1.8434   19.2575 H   0  0  0  0  0  0  0  0  0  0  0  0
    5.4253    0.6590   20.1680 C   0  0  0  0  0  0  0  0  0  0  0  0
    4.9984    0.6351   21.1758 H   0  0  0  0  0  0  0  0  0  0  0  0
    6.8847   -0.7509   22.2041 N   0  0  0  0  0  0  0  0  0  0  0  0
    7.8344   -1.4831   22.8334 N   0  0  0  0  0  0  0  0  0  0  0  0
    6.2330   -0.5664   25.3027 C   0  0  0  0  0  0  0  0  0  0  0  0
    6.3813    0.2000   24.5491 H   0  0  0  0  0  0  0  0  0  0  0  0
    5.3237   -0.3678   26.3337 C   0  0  0  0  0  0  0  0  0  0  0  0
    4.7558    0.5506   26.4022 H   0  0  0  0  0  0  0  0  0  0  0  0
  1  2  1  0
  2  3  1  0
  3  4  2  0
  4  5  1  0
  4  6  1  0
  6  7  1  0
  6  8  2  0
  8  9  1  0
  9 10  2  0
 10 11  1  0
 10 12  1  0
 12 13  1  0
 13 14  2  0
 14 15  1  0
 15 16  1  0
 16 17  2  0
 17 18  1  0
 17 19  1  0
 19 20  2  0
 20 21  1  0
 20 22  1  0
 22 23  1  0
 22 24  2  0
 24 25  1  0
 15 26  2  0
 26 27  1  0
  8 28  1  0
 28 29  1  0
 28 30  2  0
 30 31  1  0
 30  3  1  0
 27  9  1  0
 27 13  1  0
 24 16  1  0
M  END
>  <cnnaffinity>  (1) 
-5.43602

>  <filename>  (1) 
Oc1ccc(-c2csc3nc(-c4cccnc4)nn23)cc1

$$$$
