
     RDKit          3D

 34 36  0  0  0  0  0  0  0  0999 V2000
   12.0094   -0.5230   21.5783 H   0  0  0  0  0  0  0  0  0  0  0  0
   11.1844   -0.0134   21.5588 O   0  0  0  0  0  0  0  0  0  0  0  0
   10.7825    0.2273   22.7917 C   0  0  0  0  0  0  0  0  0  0  0  0
   11.6680    1.2780   24.6312 C   0  0  0  0  0  0  0  0  0  0  0  0
   12.0820    1.9226   23.6656 H   0  0  0  0  0  0  0  0  0  0  0  0
   11.3754    1.3699   24.4657 C   0  0  0  0  0  0  0  0  0  0  0  0
   13.2962    0.4008   25.2429 Cl  0  0  0  0  0  0  0  0  0  0  0  0
   10.3471    1.0429   25.2977 C   0  0  0  0  0  0  0  0  0  0  0  0
   10.0147    1.7295   26.0672 H   0  0  0  0  0  0  0  0  0  0  0  0
    9.3888    0.1242   24.7334 C   0  0  0  0  0  0  0  0  0  0  0  0
    8.5094   -0.1519   25.3075 H   0  0  0  0  0  0  0  0  0  0  0  0
    9.7100   -0.3867   23.4464 C   0  0  0  0  0  0  0  0  0  0  0  0
    9.1225   -1.5041   22.8779 O   0  0  0  0  0  0  0  0  0  0  0  0
    7.7452   -1.4243   22.5127 C   0  0  1  0  0  0  0  0  0  0  0  0
    7.1959   -1.0991   23.4150 H   0  0  0  0  0  0  0  0  0  0  0  0
    7.4271   -0.5333   21.3673 C   0  0  0  0  0  0  0  0  0  0  0  0
    7.6780    0.5075   21.4309 H   0  0  0  0  0  0  0  0  0  0  0  0
    6.7765   -0.9932   20.2857 C   0  0  0  0  0  0  0  0  0  0  0  0
    6.2862   -0.1297   19.2023 C   0  0  0  0  0  0  0  0  0  0  0  0
    6.6537   -0.3618   17.8681 C   0  0  0  0  0  0  0  0  0  0  0  0
    7.3406   -1.1725   17.6168 H   0  0  0  0  0  0  0  0  0  0  0  0
    6.2468    0.3962   16.8444 N   0  0  0  0  0  0  0  0  0  0  0  0
    5.4257    1.4204   17.1159 C   0  0  0  0  0  0  0  0  0  0  0  0
    5.0912    2.0086   16.2657 H   0  0  0  0  0  0  0  0  0  0  0  0
    5.0075    1.7497   18.4071 C   0  0  0  0  0  0  0  0  0  0  0  0
    4.3567    2.6041   18.5507 H   0  0  0  0  0  0  0  0  0  0  0  0
    5.4627    0.9784   19.4739 C   0  0  0  0  0  0  0  0  0  0  0  0
    5.1876    1.2179   20.5036 H   0  0  0  0  0  0  0  0  0  0  0  0
    6.5150   -2.3495   20.1743 N   0  0  0  0  0  0  0  0  0  0  0  0
    6.1923   -2.7556   19.3143 H   0  0  0  0  0  0  0  0  0  0  0  0
    6.9116   -3.2833   21.0803 C   0  0  0  0  0  0  0  0  0  0  0  0
    6.7787   -4.8985   20.7566 S   0  0  0  0  0  0  0  0  0  0  0  0
    7.4374   -2.7982   22.2136 N   0  0  0  0  0  0  0  0  0  0  0  0
    7.9758   -3.4640   22.7371 H   0  0  0  0  0  0  0  0  0  0  0  0
  1  2  1  0
  2  3  1  0
  3  4  2  0
  4  5  1  0
  4  6  1  0
  6  7  1  0
  6  8  2  0
  8  9  1  0
  8 10  1  0
 10 11  1  0
 10 12  2  0
 12 13  1  0
 13 14  1  0
 14 15  1  1
 14 16  1  0
 16 17  1  0
 16 18  2  0
 18 19  1  0
 19 20  2  0
 20 21  1  0
 20 22  1  0
 22 23  2  0
 23 24  1  0
 23 25  1  0
 25 26  1  0
 25 27  2  0
 27 28  1  0
 18 29  1  0
 29 30  1  0
 29 31  1  0
 31 32  2  0
 31 33  1  0
 33 34  1  0
 12  3  1  0
 33 14  1  0
 27 19  1  0
M  END
>  <cnnaffinity>  (1) 
-4.78301

>  <filename>  (1) 
Oc1cc(Cl)ccc1O[C@H]1C=C(c2cccnc2)NC(=S)N1

$$$$
