
     RDKit          3D

 30 32  0  0  0  0  0  0  0  0999 V2000
    5.8323    1.6604   26.2831 H   0  0  0  0  0  0  0  0  0  0  0  0
    5.9433    2.5356   25.8999 O   0  0  0  0  0  0  0  0  0  0  0  0
    6.4482    2.3790   24.6524 C   0  0  0  0  0  0  0  0  0  0  0  0
    6.6947    3.5523   23.9360 C   0  0  0  0  0  0  0  0  0  0  0  0
    6.4641    4.4999   24.4087 H   0  0  0  0  0  0  0  0  0  0  0  0
    7.2307    3.4531   22.6557 C   0  0  0  0  0  0  0  0  0  0  0  0
    7.5092    4.5261   21.8863 O   0  0  0  0  0  0  0  0  0  0  0  0
    7.2629    5.3223   22.3626 H   0  0  0  0  0  0  0  0  0  0  0  0
    7.5155    2.2164   22.0827 C   0  0  0  0  0  0  0  0  0  0  0  0
    7.9218    2.1907   21.0807 H   0  0  0  0  0  0  0  0  0  0  0  0
    7.2443    1.0488   22.7973 C   0  0  0  0  0  0  0  0  0  0  0  0
    7.5626   -0.2828   22.2443 C   0  0  0  0  0  0  0  0  0  0  0  0
    8.1781   -1.3389   22.8794 C   0  0  0  0  0  0  0  0  0  0  0  0
    8.5107   -1.3655   23.9076 H   0  0  0  0  0  0  0  0  0  0  0  0
    8.3428   -2.3139   21.8837 C   0  0  0  0  0  0  0  0  0  0  0  0
    8.7987   -3.2930   21.9711 H   0  0  0  0  0  0  0  0  0  0  0  0
    7.8582   -1.9160   20.7178 N   0  0  0  0  0  0  0  0  0  0  0  0
    7.3611   -0.6822   20.9395 N   0  0  0  0  0  0  0  0  0  0  0  0
    6.6486   -0.0111   19.9097 C   0  0  0  0  0  0  0  0  0  0  0  0
    7.1766    0.0379   18.6080 C   0  0  0  0  0  0  0  0  0  0  0  0
    8.1246   -0.4414   18.3798 H   0  0  0  0  0  0  0  0  0  0  0  0
    6.5757    0.6704   17.5978 N   0  0  0  0  0  0  0  0  0  0  0  0
    5.4086    1.2901   17.8440 C   0  0  0  0  0  0  0  0  0  0  0  0
    4.9291    1.7813   16.9982 H   0  0  0  0  0  0  0  0  0  0  0  0
    4.8086    1.2983   19.1070 C   0  0  0  0  0  0  0  0  0  0  0  0
    3.8803    1.8375   19.2581 H   0  0  0  0  0  0  0  0  0  0  0  0
    5.4273    0.6290   20.1635 C   0  0  0  0  0  0  0  0  0  0  0  0
    5.0089    0.6361   21.1718 H   0  0  0  0  0  0  0  0  0  0  0  0
    6.7196    1.1257   24.0973 C   0  0  0  0  0  0  0  0  0  0  0  0
    6.5394    0.2034   24.6460 H   0  0  0  0  0  0  0  0  0  0  0  0
  1  2  1  0
  2  3  1  0
  3  4  2  0
  4  5  1  0
  4  6  1  0
  6  7  1  0
  7  8  1  0
  6  9  2  0
  9 10  1  0
  9 11  1  0
 11 12  1  0
 12 13  2  0
 13 14  1  0
 13 15  1  0
 15 16  1  0
 15 17  2  0
 17 18  1  0
 18 19  1  0
 19 20  2  0
 20 21  1  0
 20 22  1  0
 22 23  2  0
 23 24  1  0
 23 25  1  0
 25 26  1  0
 25 27  2  0
 27 28  1  0
 11 29  2  0
 29 30  1  0
 29  3  1  0
 18 12  1  0
 27 19  1  0
M  END
>  <cnnaffinity>  (1) 
-4.95801

>  <filename>  (1) 
Oc1cc(O)cc(-c2ccnn2-c2cccnc2)c1

$$$$
