
     RDKit          3D

 29 31  0  0  0  0  0  0  0  0999 V2000
    7.6044   -3.7757   25.6193 H   0  0  0  0  0  0  0  0  0  0  0  0
    7.0304   -3.5328   26.3587 O   0  0  0  0  0  0  0  0  0  0  0  0
    6.6517   -2.2403   26.1975 C   0  0  0  0  0  0  0  0  0  0  0  0
    5.8168   -1.7450   27.2005 C   0  0  0  0  0  0  0  0  0  0  0  0
    5.5245   -2.3972   28.0121 H   0  0  0  0  0  0  0  0  0  0  0  0
    5.3681   -0.4286   27.1589 C   0  0  0  0  0  0  0  0  0  0  0  0
    4.3235    0.1717   28.4063 Cl  0  0  0  0  0  0  0  0  0  0  0  0
    5.7523    0.4288   26.1317 C   0  0  0  0  0  0  0  0  0  0  0  0
    5.3937    1.4540   26.1133 H   0  0  0  0  0  0  0  0  0  0  0  0
    6.5908   -0.0552   25.1233 C   0  0  0  0  0  0  0  0  0  0  0  0
    6.8949    0.6063   24.3203 H   0  0  0  0  0  0  0  0  0  0  0  0
    7.0242   -1.3875   25.1225 C   0  0  0  0  0  0  0  0  0  0  0  0
    7.9005   -1.9019   24.1370 O   0  0  0  0  0  0  0  0  0  0  0  0
    7.8396   -1.4859   22.8511 C   0  0  0  0  0  0  0  0  0  0  0  0
    6.9310   -0.7862   22.2260 N   0  0  0  0  0  0  0  0  0  0  0  0
    7.4051   -0.7138   20.9515 C   0  0  0  0  0  0  0  0  0  0  0  0
    6.6637    0.0024   19.9124 C   0  0  0  0  0  0  0  0  0  0  0  0
    7.1825    0.0519   18.6132 C   0  0  0  0  0  0  0  0  0  0  0  0
    8.1277   -0.4312   18.3772 H   0  0  0  0  0  0  0  0  0  0  0  0
    6.5735    0.6672   17.5969 N   0  0  0  0  0  0  0  0  0  0  0  0
    5.4104    1.2843   17.8494 C   0  0  0  0  0  0  0  0  0  0  0  0
    4.9263    1.7729   17.0042 H   0  0  0  0  0  0  0  0  0  0  0  0
    4.8130    1.3032   19.1162 C   0  0  0  0  0  0  0  0  0  0  0  0
    3.8789    1.8394   19.2612 H   0  0  0  0  0  0  0  0  0  0  0  0
    5.4425    0.6476   20.1714 C   0  0  0  0  0  0  0  0  0  0  0  0
    5.0037    0.6327   21.1748 H   0  0  0  0  0  0  0  0  0  0  0  0
    8.5598   -1.3255   20.7557 N   0  0  0  0  0  0  0  0  0  0  0  0
    8.8202   -1.8221   22.0026 N   0  0  0  0  0  0  0  0  0  0  0  0
    9.6525   -2.3483   22.1889 H   0  0  0  0  0  0  0  0  0  0  0  0
  1  2  1  0
  2  3  1  0
  3  4  2  0
  4  5  1  0
  4  6  1  0
  6  7  1  0
  6  8  2  0
  8  9  1  0
  8 10  1  0
 10 11  1  0
 10 12  2  0
 12 13  1  0
 13 14  1  0
 14 15  2  0
 15 16  1  0
 16 17  1  0
 17 18  2  0
 18 19  1  0
 18 20  1  0
 20 21  2  0
 21 22  1  0
 21 23  1  0
 23 24  1  0
 23 25  2  0
 25 26  1  0
 16 27  2  0
 27 28  1  0
 28 29  1  0
 12  3  1  0
 28 14  1  0
 25 17  1  0
M  END
>  <cnnaffinity>  (1) 
-5.12705

>  <filename>  (1) 
Oc1cc(Cl)ccc1Oc1nc(-c2cccnc2)n[nH]1

$$$$
