
     RDKit          3D

 29 31  0  0  0  0  0  0  0  0999 V2000
   10.3467    1.4127   24.2211 H   0  0  0  0  0  0  0  0  0  0  0  0
    9.5370    1.3052   23.7079 O   0  0  0  0  0  0  0  0  0  0  0  0
    8.4882    1.5271   24.5333 C   0  0  0  0  0  0  0  0  0  0  0  0
    8.6867    2.0486   25.8190 C   0  0  0  0  0  0  0  0  0  0  0  0
    9.6994    2.1866   26.1857 H   0  0  0  0  0  0  0  0  0  0  0  0
    7.5725    2.3721   26.6010 C   0  0  0  0  0  0  0  0  0  0  0  0
    7.7033    2.9797   28.2180 Cl  0  0  0  0  0  0  0  0  0  0  0  0
    6.2804    2.1996   26.1134 C   0  0  0  0  0  0  0  0  0  0  0  0
    5.4476    2.4968   26.7358 H   0  0  0  0  0  0  0  0  0  0  0  0
    6.0810    1.6471   24.8484 C   0  0  0  0  0  0  0  0  0  0  0  0
    5.0917    1.5043   24.4188 H   0  0  0  0  0  0  0  0  0  0  0  0
    7.1694    1.2663   24.0788 C   0  0  0  0  0  0  0  0  0  0  0  0
    6.8270    0.7292   22.8411 O   0  0  0  0  0  0  0  0  0  0  0  0
    7.4380   -0.3672   22.3657 C   0  0  0  0  0  0  0  0  0  0  0  0
    8.1255   -1.2119   23.1783 N   0  0  0  0  0  0  0  0  0  0  0  0
    8.6557   -2.1515   22.4495 C   0  0  0  0  0  0  0  0  0  0  0  0
    9.2788   -2.9579   22.8282 H   0  0  0  0  0  0  0  0  0  0  0  0
    8.3440   -2.0676   20.7714 S   0  0  0  0  0  0  0  0  0  0  0  0
    7.3769   -0.6641   21.0134 C   0  0  0  0  0  0  0  0  0  0  0  0
    6.6698    0.0219   19.9197 C   0  0  0  0  0  0  0  0  0  0  0  0
    7.1701    0.0558   18.5901 C   0  0  0  0  0  0  0  0  0  0  0  0
    8.1187   -0.4184   18.3461 H   0  0  0  0  0  0  0  0  0  0  0  0
    6.5552    0.6675   17.5721 N   0  0  0  0  0  0  0  0  0  0  0  0
    5.3945    1.2904   17.8324 C   0  0  0  0  0  0  0  0  0  0  0  0
    4.9293    1.7976   16.9880 H   0  0  0  0  0  0  0  0  0  0  0  0
    4.7970    1.3116   19.0962 C   0  0  0  0  0  0  0  0  0  0  0  0
    3.8598    1.8447   19.2364 H   0  0  0  0  0  0  0  0  0  0  0  0
    5.4462    0.6707   20.1539 C   0  0  0  0  0  0  0  0  0  0  0  0
    5.0341    0.6604   21.1620 H   0  0  0  0  0  0  0  0  0  0  0  0
  1  2  1  0
  2  3  1  0
  3  4  2  0
  4  5  1  0
  4  6  1  0
  6  7  1  0
  6  8  2  0
  8  9  1  0
  8 10  1  0
 10 11  1  0
 10 12  2  0
 12 13  1  0
 13 14  1  0
 14 15  1  0
 15 16  2  0
 16 17  1  0
 16 18  1  0
 18 19  1  0
 19 20  1  0
 20 21  2  0
 21 22  1  0
 21 23  1  0
 23 24  2  0
 24 25  1  0
 24 26  1  0
 26 27  1  0
 26 28  2  0
 28 29  1  0
 12  3  1  0
 19 14  2  0
 28 20  1  0
M  END
>  <cnnaffinity>  (1) 
-5.30563

>  <filename>  (1) 
Oc1cc(Cl)ccc1Oc1ncsc1-c1cccnc1

$$$$
