
     RDKit          3D

 30 32  0  0  0  0  0  0  0  0999 V2000
    5.3052   -1.9076   25.1826 H   0  0  0  0  0  0  0  0  0  0  0  0
    5.8697   -1.4352   24.5682 O   0  0  0  0  0  0  0  0  0  0  0  0
    6.1383   -0.2164   25.1001 C   0  0  0  0  0  0  0  0  0  0  0  0
    5.9387    0.0042   26.4627 C   0  0  0  0  0  0  0  0  0  0  0  0
    5.5319   -0.7937   27.0760 H   0  0  0  0  0  0  0  0  0  0  0  0
    6.3079    1.2174   27.0342 C   0  0  0  0  0  0  0  0  0  0  0  0
    6.1340    1.4405   28.7471 Cl  0  0  0  0  0  0  0  0  0  0  0  0
    6.8401    2.2413   26.2485 C   0  0  0  0  0  0  0  0  0  0  0  0
    7.1191    3.1809   26.7085 H   0  0  0  0  0  0  0  0  0  0  0  0
    7.0003    2.0359   24.8710 C   0  0  0  0  0  0  0  0  0  0  0  0
    7.3896    2.8191   24.2207 H   0  0  0  0  0  0  0  0  0  0  0  0
    6.6727    0.8127   24.2891 C   0  0  0  0  0  0  0  0  0  0  0  0
    6.8074    0.7171   22.9096 O   0  0  0  0  0  0  0  0  0  0  0  0
    7.4398   -0.3613   22.3444 C   0  0  0  0  0  0  0  0  0  0  0  0
    8.2734   -1.3553   22.9095 C   0  0  0  0  0  0  0  0  0  0  0  0
    8.5871   -1.5073   23.9381 H   0  0  0  0  0  0  0  0  0  0  0  0
    8.6837   -2.2055   21.9699 N   0  0  0  0  0  0  0  0  0  0  0  0
    8.1397   -1.7581   20.8314 N   0  0  0  0  0  0  0  0  0  0  0  0
    8.2634   -2.2830   19.9760 H   0  0  0  0  0  0  0  0  0  0  0  0
    7.3713   -0.6422   20.9877 C   0  0  0  0  0  0  0  0  0  0  0  0
    6.6545    0.0176   19.8862 C   0  0  0  0  0  0  0  0  0  0  0  0
    7.1576    0.0647   18.5692 C   0  0  0  0  0  0  0  0  0  0  0  0
    8.1136   -0.3951   18.3170 H   0  0  0  0  0  0  0  0  0  0  0  0
    6.5429    0.6824   17.5561 N   0  0  0  0  0  0  0  0  0  0  0  0
    5.3802    1.3023   17.8155 C   0  0  0  0  0  0  0  0  0  0  0  0
    4.9131    1.8097   16.9724 H   0  0  0  0  0  0  0  0  0  0  0  0
    4.7884    1.3161   19.0827 C   0  0  0  0  0  0  0  0  0  0  0  0
    3.8577    1.8528   19.2292 H   0  0  0  0  0  0  0  0  0  0  0  0
    5.4356    0.6674   20.1348 C   0  0  0  0  0  0  0  0  0  0  0  0
    5.0344    0.6580   21.1457 H   0  0  0  0  0  0  0  0  0  0  0  0
  1  2  1  0
  2  3  1  0
  3  4  2  0
  4  5  1  0
  4  6  1  0
  6  7  1  0
  6  8  2  0
  8  9  1  0
  8 10  1  0
 10 11  1  0
 10 12  2  0
 12 13  1  0
 13 14  1  0
 14 15  1  0
 15 16  1  0
 15 17  2  0
 17 18  1  0
 18 19  1  0
 18 20  1  0
 20 21  1  0
 21 22  2  0
 22 23  1  0
 22 24  1  0
 24 25  2  0
 25 26  1  0
 25 27  1  0
 27 28  1  0
 27 29  2  0
 29 30  1  0
 12  3  1  0
 20 14  2  0
 29 21  1  0
M  END
>  <cnnaffinity>  (1) 
-5.53137

>  <filename>  (1) 
Oc1cc(Cl)ccc1Oc1cn[nH]c1-c1cccnc1

$$$$
