
     RDKit          3D

 37 39  0  0  0  0  0  0  0  0999 V2000
   12.6066   -0.7623   21.1695 H   0  0  0  0  0  0  0  0  0  0  0  0
   11.6837   -0.5312   21.3010 O   0  0  0  0  0  0  0  0  0  0  0  0
   11.5985    0.7804   21.6641 C   0  0  0  0  0  0  0  0  0  0  0  0
   12.7108    1.4713   22.1518 C   0  0  0  0  0  0  0  0  0  0  0  0
   13.6621    0.9529   22.2381 H   0  0  0  0  0  0  0  0  0  0  0  0
   12.5756    2.8090   22.5398 C   0  0  0  0  0  0  0  0  0  0  0  0
   13.9340    3.7027   23.1334 Cl  0  0  0  0  0  0  0  0  0  0  0  0
   11.3523    3.4648   22.4659 C   0  0  0  0  0  0  0  0  0  0  0  0
   11.2896    4.5005   22.7825 H   0  0  0  0  0  0  0  0  0  0  0  0
   10.2520    2.7776   21.9428 C   0  0  0  0  0  0  0  0  0  0  0  0
    9.3118    3.2928   21.7952 H   0  0  0  0  0  0  0  0  0  0  0  0
   10.3498    1.4423   21.5498 C   0  0  0  0  0  0  0  0  0  0  0  0
    9.2677    0.7987   20.9941 O   0  0  0  0  0  0  0  0  0  0  0  0
    8.3300    0.1582   21.8759 C   0  0  0  0  0  0  0  0  0  0  0  0
    7.4763   -0.7536   20.9612 C   0  0  1  0  0  0  0  0  0  0  0  0
    8.2123   -1.4065   20.4584 H   0  0  0  0  0  0  0  0  0  0  0  0
    6.5936   -1.5558   21.7402 O   0  0  0  0  0  0  0  0  0  0  0  0
    5.8163   -1.6902   21.1872 H   0  0  0  0  0  0  0  0  0  0  0  0
    6.6726   -0.0283   19.8852 C   0  0  0  0  0  0  0  0  0  0  0  0
    7.1801    0.0256   18.5804 C   0  0  0  0  0  0  0  0  0  0  0  0
    8.1123   -0.4875   18.3464 H   0  0  0  0  0  0  0  0  0  0  0  0
    6.5933    0.6569   17.5522 N   0  0  0  0  0  0  0  0  0  0  0  0
    5.4378    1.2851   17.8006 C   0  0  0  0  0  0  0  0  0  0  0  0
    4.9862    1.8104   16.9582 H   0  0  0  0  0  0  0  0  0  0  0  0
    4.8191    1.2842   19.0571 C   0  0  0  0  0  0  0  0  0  0  0  0
    3.8778    1.8042   19.1878 H   0  0  0  0  0  0  0  0  0  0  0  0
    5.4365    0.6046   20.1118 C   0  0  0  0  0  0  0  0  0  0  0  0
    4.9539    0.5631   21.0926 H   0  0  0  0  0  0  0  0  0  0  0  0
    7.5714    1.1271   22.8226 C   0  0  0  0  0  0  0  0  0  0  0  0
    7.6544    2.1953   22.6052 H   0  0  0  0  0  0  0  0  0  0  0  0
    6.5087    0.8783   22.8692 H   0  0  0  0  0  0  0  0  0  0  0  0
    8.3837    0.5716   24.0173 C   0  0  0  0  0  0  0  0  0  0  0  0
    7.7918    0.2244   24.8707 H   0  0  0  0  0  0  0  0  0  0  0  0
    9.1401    1.2763   24.3807 H   0  0  0  0  0  0  0  0  0  0  0  0
    8.9546   -0.5487   23.1118 C   0  0  0  0  0  0  0  0  0  0  0  0
   10.0412   -0.6567   23.0883 H   0  0  0  0  0  0  0  0  0  0  0  0
    8.4913   -1.5257   23.2675 H   0  0  0  0  0  0  0  0  0  0  0  0
  1  2  1  0
  2  3  1  0
  3  4  2  0
  4  5  1  0
  4  6  1  0
  6  7  1  0
  6  8  2  0
  8  9  1  0
  8 10  1  0
 10 11  1  0
 10 12  2  0
 12 13  1  0
 13 14  1  0
 14 15  1  0
 15 16  1  6
 15 17  1  0
 17 18  1  0
 15 19  1  0
 19 20  2  0
 20 21  1  0
 20 22  1  0
 22 23  2  0
 23 24  1  0
 23 25  1  0
 25 26  1  0
 25 27  2  0
 27 28  1  0
 14 29  1  0
 29 30  1  0
 29 31  1  0
 29 32  1  0
 32 33  1  0
 32 34  1  0
 32 35  1  0
 35 36  1  0
 35 37  1  0
 12  3  1  0
 35 14  1  0
 27 19  1  0
M  END
>  <cnnaffinity>  (1) 
-5.48244

>  <filename>  (1) 
Oc1cc(Cl)ccc1OC1([C@@H](O)c2cccnc2)CCC1

$$$$
