
     RDKit          3D

 31 33  0  0  0  0  0  0  0  0999 V2000
    7.0812   -4.5420   22.6231 H   0  0  0  0  0  0  0  0  0  0  0  0
    7.6084   -5.1337   23.1764 O   0  0  0  0  0  0  0  0  0  0  0  0
    7.4519   -4.7240   24.4615 C   0  0  0  0  0  0  0  0  0  0  0  0
    7.8878   -5.6060   25.4505 C   0  0  0  0  0  0  0  0  0  0  0  0
    8.3304   -6.5393   25.1198 H   0  0  0  0  0  0  0  0  0  0  0  0
    7.6933   -5.2620   26.7875 C   0  0  0  0  0  0  0  0  0  0  0  0
    8.2152   -6.3251   28.0528 Cl  0  0  0  0  0  0  0  0  0  0  0  0
    7.0733   -4.0683   27.1466 C   0  0  0  0  0  0  0  0  0  0  0  0
    6.8488   -3.9251   28.1923 H   0  0  0  0  0  0  0  0  0  0  0  0
    6.6894   -3.1556   26.1570 C   0  0  0  0  0  0  0  0  0  0  0  0
    6.2094   -2.2069   26.3825 H   0  0  0  0  0  0  0  0  0  0  0  0
    6.8911   -3.4731   24.8159 C   0  0  0  0  0  0  0  0  0  0  0  0
    6.4031   -2.5694   23.8700 O   0  0  0  0  0  0  0  0  0  0  0  0
    7.2162   -1.9787   22.9555 C   0  0  0  0  0  0  0  0  0  0  0  0
    6.5843   -1.3448   21.9755 N   0  0  0  0  0  0  0  0  0  0  0  0
    7.3465   -0.7505   21.0281 C   0  0  0  0  0  0  0  0  0  0  0  0
    6.6274   -0.0289   19.9470 C   0  0  0  0  0  0  0  0  0  0  0  0
    7.1590    0.0205   18.6465 C   0  0  0  0  0  0  0  0  0  0  0  0
    8.1068   -0.4636   18.4076 H   0  0  0  0  0  0  0  0  0  0  0  0
    6.5762    0.6428   17.6187 N   0  0  0  0  0  0  0  0  0  0  0  0
    5.4207    1.2790   17.8608 C   0  0  0  0  0  0  0  0  0  0  0  0
    4.9759    1.7824   17.0066 H   0  0  0  0  0  0  0  0  0  0  0  0
    4.8034    1.3056   19.1156 C   0  0  0  0  0  0  0  0  0  0  0  0
    3.8735    1.8521   19.2406 H   0  0  0  0  0  0  0  0  0  0  0  0
    5.4090    0.6368   20.1776 C   0  0  0  0  0  0  0  0  0  0  0  0
    4.9567    0.6311   21.1723 H   0  0  0  0  0  0  0  0  0  0  0  0
    8.7622   -0.8015   21.0976 C   0  0  0  0  0  0  0  0  0  0  0  0
    9.3885   -0.2970   20.3622 H   0  0  0  0  0  0  0  0  0  0  0  0
    9.3990   -1.4392   22.1007 N   0  0  0  0  0  0  0  0  0  0  0  0
    8.6360   -2.0306   23.0343 C   0  0  0  0  0  0  0  0  0  0  0  0
    9.1360   -2.5478   23.8513 H   0  0  0  0  0  0  0  0  0  0  0  0
  1  2  1  0
  2  3  1  0
  3  4  2  0
  4  5  1  0
  4  6  1  0
  6  7  1  0
  6  8  2  0
  8  9  1  0
  8 10  1  0
 10 11  1  0
 10 12  2  0
 12 13  1  0
 13 14  1  0
 14 15  2  0
 15 16  1  0
 16 17  1  0
 17 18  2  0
 18 19  1  0
 18 20  1  0
 20 21  2  0
 21 22  1  0
 21 23  1  0
 23 24  1  0
 23 25  2  0
 25 26  1  0
 16 27  2  0
 27 28  1  0
 27 29  1  0
 29 30  2  0
 30 31  1  0
 12  3  1  0
 30 14  1  0
 25 17  1  0
M  END
>  <cnnaffinity>  (1) 
-5.42067

>  <filename>  (1) 
Oc1cc(Cl)ccc1Oc1cncc(-c2cccnc2)n1

$$$$
