
     RDKit          3D

 29 31  0  0  0  0  0  0  0  0999 V2000
    7.6379    4.4272   21.4209 H   0  0  0  0  0  0  0  0  0  0  0  0
    7.2559    4.5574   22.2931 O   0  0  0  0  0  0  0  0  0  0  0  0
    7.0629    3.3392   22.8508 C   0  0  0  0  0  0  0  0  0  0  0  0
    6.4845    3.3395   24.1089 C   0  0  0  0  0  0  0  0  0  0  0  0
    6.2261    4.2713   24.5873 H   0  0  0  0  0  0  0  0  0  0  0  0
    6.2515    2.1339   24.7508 C   0  0  0  0  0  0  0  0  0  0  0  0
    5.7007    2.2251   25.9845 O   0  0  0  0  0  0  0  0  0  0  0  0
    5.5972    1.3358   26.3304 H   0  0  0  0  0  0  0  0  0  0  0  0
    6.5786    0.9135   24.1469 C   0  0  0  0  0  0  0  0  0  0  0  0
    6.3941   -0.0324   24.6479 H   0  0  0  0  0  0  0  0  0  0  0  0
    7.1588    0.9352   22.8708 C   0  0  0  0  0  0  0  0  0  0  0  0
    7.4996   -0.3099   22.2531 N   0  0  0  0  0  0  0  0  0  0  0  0
    8.1705   -1.3619   22.8285 C   0  0  0  0  0  0  0  0  0  0  0  0
    8.4622   -1.3889   23.8690 H   0  0  0  0  0  0  0  0  0  0  0  0
    8.4364   -2.2898   21.9563 N   0  0  0  0  0  0  0  0  0  0  0  0
    7.9407   -1.8648   20.7508 N   0  0  0  0  0  0  0  0  0  0  0  0
    7.3737   -0.7038   20.9337 C   0  0  0  0  0  0  0  0  0  0  0  0
    6.6460    0.0274   19.8993 C   0  0  0  0  0  0  0  0  0  0  0  0
    7.1680    0.0579   18.5969 C   0  0  0  0  0  0  0  0  0  0  0  0
    8.1131   -0.4371   18.3783 H   0  0  0  0  0  0  0  0  0  0  0  0
    6.5684    0.6793   17.5777 N   0  0  0  0  0  0  0  0  0  0  0  0
    5.4033    1.2954   17.8365 C   0  0  0  0  0  0  0  0  0  0  0  0
    4.9226    1.7836   16.9935 H   0  0  0  0  0  0  0  0  0  0  0  0
    4.7944    1.3120   19.0974 C   0  0  0  0  0  0  0  0  0  0  0  0
    3.8659    1.8463   19.2514 H   0  0  0  0  0  0  0  0  0  0  0  0
    5.4172    0.6528   20.1508 C   0  0  0  0  0  0  0  0  0  0  0  0
    4.9959    0.6373   21.1601 H   0  0  0  0  0  0  0  0  0  0  0  0
    7.4208    2.1446   22.2122 C   0  0  0  0  0  0  0  0  0  0  0  0
    7.8452    2.1467   21.2126 H   0  0  0  0  0  0  0  0  0  0  0  0
  1  2  1  0
  2  3  1  0
  3  4  2  0
  4  5  1  0
  4  6  1  0
  6  7  1  0
  7  8  1  0
  6  9  2  0
  9 10  1  0
  9 11  1  0
 11 12  1  0
 12 13  1  0
 13 14  1  0
 13 15  2  0
 15 16  1  0
 16 17  2  0
 17 18  1  0
 18 19  2  0
 19 20  1  0
 19 21  1  0
 21 22  2  0
 22 23  1  0
 22 24  1  0
 24 25  1  0
 24 26  2  0
 26 27  1  0
 11 28  2  0
 28 29  1  0
 28  3  1  0
 17 12  1  0
 26 18  1  0
M  END
>  <cnnaffinity>  (1) 
-5.04176

>  <filename>  (1) 
Oc1cc(O)cc(-n2cnnc2-c2cccnc2)c1

$$$$
