
     RDKit          3D

 31 34  0  0  0  0  0  0  0  0999 V2000
    4.0626    0.8671   27.0745 H   0  0  0  0  0  0  0  0  0  0  0  0
    4.6576    0.8411   26.3183 O   0  0  0  0  0  0  0  0  0  0  0  0
    5.3185   -0.3476   26.3240 C   0  0  0  0  0  0  0  0  0  0  0  0
    5.1112   -1.3396   27.2929 C   0  0  0  0  0  0  0  0  0  0  0  0
    4.3982   -1.1890   28.1018 H   0  0  0  0  0  0  0  0  0  0  0  0
    5.8368   -2.5371   27.2134 C   0  0  0  0  0  0  0  0  0  0  0  0
    5.6936   -3.3165   27.9597 H   0  0  0  0  0  0  0  0  0  0  0  0
    6.7525   -2.7450   26.1829 C   0  0  0  0  0  0  0  0  0  0  0  0
    7.3021   -3.6835   26.1263 H   0  0  0  0  0  0  0  0  0  0  0  0
    6.9556   -1.7505   25.2023 C   0  0  0  0  0  0  0  0  0  0  0  0
    7.9482   -2.0067   24.1258 C   0  0  0  0  0  0  0  0  0  0  0  0
    9.0693   -2.7583   24.2083 C   0  0  0  0  0  0  0  0  0  0  0  0
    9.4580   -3.2829   25.0692 H   0  0  0  0  0  0  0  0  0  0  0  0
    9.9903   -2.8122   22.7314 S   0  0  0  0  0  0  0  0  0  0  0  0
    8.8002   -1.8159   21.9505 C   0  0  0  0  0  0  0  0  0  0  0  0
    8.5495   -1.3278   20.7564 N   0  0  0  0  0  0  0  0  0  0  0  0
    7.3657   -0.6893   20.9666 C   0  0  0  0  0  0  0  0  0  0  0  0
    6.6451    0.0164   19.9126 C   0  0  0  0  0  0  0  0  0  0  0  0
    7.1791    0.0531   18.6168 C   0  0  0  0  0  0  0  0  0  0  0  0
    8.1262   -0.4328   18.3859 H   0  0  0  0  0  0  0  0  0  0  0  0
    6.5739    0.6671   17.5952 N   0  0  0  0  0  0  0  0  0  0  0  0
    5.4090    1.2854   17.8467 C   0  0  0  0  0  0  0  0  0  0  0  0
    4.9289    1.7728   17.0026 H   0  0  0  0  0  0  0  0  0  0  0  0
    4.8044    1.3100   19.1088 C   0  0  0  0  0  0  0  0  0  0  0  0
    3.8738    1.8432   19.2569 H   0  0  0  0  0  0  0  0  0  0  0  0
    5.4244    0.6592   20.1685 C   0  0  0  0  0  0  0  0  0  0  0  0
    4.9982    0.6356   21.1767 H   0  0  0  0  0  0  0  0  0  0  0  0
    6.8849   -0.7524   22.2037 N   0  0  0  0  0  0  0  0  0  0  0  0
    7.8333   -1.4829   22.8329 N   0  0  0  0  0  0  0  0  0  0  0  0
    6.2356   -0.5468   25.2891 C   0  0  0  0  0  0  0  0  0  0  0  0
    6.3689    0.2317   24.5484 H   0  0  0  0  0  0  0  0  0  0  0  0
  1  2  1  0
  2  3  1  0
  3  4  2  0
  4  5  1  0
  4  6  1  0
  6  7  1  0
  6  8  2  0
  8  9  1  0
  8 10  1  0
 10 11  1  0
 11 12  2  0
 12 13  1  0
 12 14  1  0
 14 15  1  0
 15 16  2  0
 16 17  1  0
 17 18  1  0
 18 19  2  0
 19 20  1  0
 19 21  1  0
 21 22  2  0
 22 23  1  0
 22 24  1  0
 24 25  1  0
 24 26  2  0
 26 27  1  0
 17 28  2  0
 28 29  1  0
 10 30  2  0
 30 31  1  0
 30  3  1  0
 29 11  1  0
 29 15  1  0
 26 18  1  0
M  END
>  <cnnaffinity>  (1) 
-5.45644

>  <filename>  (1) 
Oc1cccc(-c2csc3nc(-c4cccnc4)nn23)c1

$$$$
