
     RDKit          3D

 37 40  0  0  0  0  0  0  0  0999 V2000
    9.9964    0.1221   29.1151 H   0  0  0  0  0  0  0  0  0  0  0  0
    9.0439    0.1995   29.2789 O   0  0  0  0  0  0  0  0  0  0  0  0
    8.4541    0.3545   28.0642 C   0  0  0  0  0  0  0  0  0  0  0  0
    7.2140    0.9782   28.0505 C   0  0  0  0  0  0  0  0  0  0  0  0
    6.8184    1.3643   28.9823 H   0  0  0  0  0  0  0  0  0  0  0  0
    6.5745    1.1649   26.8303 C   0  0  0  0  0  0  0  0  0  0  0  0
    5.3746    1.7865   26.7962 O   0  0  0  0  0  0  0  0  0  0  0  0
    5.1610    1.9733   27.7176 H   0  0  0  0  0  0  0  0  0  0  0  0
    7.1451    0.7253   25.6395 C   0  0  0  0  0  0  0  0  0  0  0  0
    6.5760    0.8704   24.7273 H   0  0  0  0  0  0  0  0  0  0  0  0
    8.4265    0.1452   25.6486 C   0  0  0  0  0  0  0  0  0  0  0  0
    9.0049   -0.2734   24.3515 C   0  0  0  0  0  0  0  0  0  0  0  0
    8.4010   -0.4562   23.1200 C   0  0  0  0  0  0  0  0  0  0  0  0
    9.4146   -0.8031   22.2360 C   0  0  0  0  0  0  0  0  0  0  0  0
   10.5968   -0.8647   22.8160 N   0  0  0  0  0  0  0  0  0  0  0  0
   10.3238   -0.5507   24.1063 N   0  0  0  0  0  0  0  0  0  0  0  0
   11.1117   -0.3536   24.7047 H   0  0  0  0  0  0  0  0  0  0  0  0
    8.9213   -0.8920   20.8215 C   0  0  0  0  0  0  0  0  0  0  0  0
    9.2870   -0.0294   20.2574 H   0  0  0  0  0  0  0  0  0  0  0  0
    9.2644   -1.7955   20.3157 H   0  0  0  0  0  0  0  0  0  0  0  0
    7.3619   -0.8244   20.9713 C   0  0  2  0  0  0  0  0  0  0  0  0
    7.0003   -1.8617   20.9553 H   0  0  0  0  0  0  0  0  0  0  0  0
    6.6364   -0.0454   19.8728 C   0  0  0  0  0  0  0  0  0  0  0  0
    7.1451    0.0368   18.5596 C   0  0  0  0  0  0  0  0  0  0  0  0
    8.0984   -0.4304   18.3118 H   0  0  0  0  0  0  0  0  0  0  0  0
    6.5566    0.6805   17.5424 N   0  0  0  0  0  0  0  0  0  0  0  0
    5.4014    1.3099   17.7990 C   0  0  0  0  0  0  0  0  0  0  0  0
    4.9415    1.8318   16.9641 H   0  0  0  0  0  0  0  0  0  0  0  0
    4.7964    1.3088   19.0570 C   0  0  0  0  0  0  0  0  0  0  0  0
    3.8724    1.8548   19.2164 H   0  0  0  0  0  0  0  0  0  0  0  0
    5.4188    0.6256   20.1019 C   0  0  0  0  0  0  0  0  0  0  0  0
    4.9704    0.6478   21.0968 H   0  0  0  0  0  0  0  0  0  0  0  0
    7.0992   -0.2756   22.4091 C   0  0  0  0  0  0  0  0  0  0  0  0
    6.2609   -0.7961   22.8816 H   0  0  0  0  0  0  0  0  0  0  0  0
    6.8368    0.7892   22.3637 H   0  0  0  0  0  0  0  0  0  0  0  0
    9.0914   -0.0227   26.8807 C   0  0  0  0  0  0  0  0  0  0  0  0
   10.1053   -0.4119   26.9567 H   0  0  0  0  0  0  0  0  0  0  0  0
  1  2  1  0
  2  3  1  0
  3  4  2  0
  4  5  1  0
  4  6  1  0
  6  7  1  0
  7  8  1  0
  6  9  2  0
  9 10  1  0
  9 11  1  0
 11 12  1  0
 12 13  2  0
 13 14  1  0
 14 15  2  0
 15 16  1  0
 16 17  1  0
 14 18  1  0
 18 19  1  0
 18 20  1  0
 18 21  1  0
 21 22  1  1
 21 23  1  0
 23 24  2  0
 24 25  1  0
 24 26  1  0
 26 27  2  0
 27 28  1  0
 27 29  1  0
 29 30  1  0
 29 31  2  0
 31 32  1  0
 21 33  1  0
 33 34  1  0
 33 35  1  0
 11 36  2  0
 36 37  1  0
 36  3  1  0
 16 12  1  0
 31 23  1  0
 33 13  1  0
M  END
>  <cnnaffinity>  (1) 
-5.43892

>  <filename>  (1) 
Oc1cc(O)cc(-c2[nH]nc3c2C[C@@H](c2cccnc2)C3)c1

$$$$
