
     RDKit          3D

 31 33  0  0  0  0  0  0  0  0999 V2000
    9.3986    0.4171   28.5597 H   0  0  0  0  0  0  0  0  0  0  0  0
    9.3881   -0.2923   27.9054 O   0  0  0  0  0  0  0  0  0  0  0  0
    8.4716    0.0495   26.9617 C   0  0  0  0  0  0  0  0  0  0  0  0
    7.3737    0.8448   27.2850 C   0  0  0  0  0  0  0  0  0  0  0  0
    7.2505    1.2859   28.2630 H   0  0  0  0  0  0  0  0  0  0  0  0
    6.4031    1.0648   26.3094 C   0  0  0  0  0  0  0  0  0  0  0  0
    5.3038    1.7845   26.6303 O   0  0  0  0  0  0  0  0  0  0  0  0
    4.7509    1.7864   25.8385 H   0  0  0  0  0  0  0  0  0  0  0  0
    6.5394    0.5423   25.0261 C   0  0  0  0  0  0  0  0  0  0  0  0
    5.7410    0.7072   24.3064 H   0  0  0  0  0  0  0  0  0  0  0  0
    7.6754   -0.2009   24.6904 C   0  0  0  0  0  0  0  0  0  0  0  0
    7.8132   -0.7493   23.3125 C   0  0  0  0  0  0  0  0  0  0  0  0
    7.1632   -0.1150   22.3089 N   0  0  0  0  0  0  0  0  0  0  0  0
    7.3627   -0.5817   21.0663 C   0  0  0  0  0  0  0  0  0  0  0  0
    6.6379    0.0886   19.9609 C   0  0  0  0  0  0  0  0  0  0  0  0
    7.1720    0.0867   18.6622 C   0  0  0  0  0  0  0  0  0  0  0  0
    8.1268   -0.3985   18.4494 H   0  0  0  0  0  0  0  0  0  0  0  0
    6.5787    0.6622   17.6173 N   0  0  0  0  0  0  0  0  0  0  0  0
    5.4101    1.2803   17.8412 C   0  0  0  0  0  0  0  0  0  0  0  0
    4.9727    1.7734   16.9832 H   0  0  0  0  0  0  0  0  0  0  0  0
    4.7765    1.3215   19.0887 C   0  0  0  0  0  0  0  0  0  0  0  0
    3.8325    1.8465   19.2010 H   0  0  0  0  0  0  0  0  0  0  0  0
    5.3993    0.7146   20.1735 C   0  0  0  0  0  0  0  0  0  0  0  0
    4.9480    0.7141   21.1700 H   0  0  0  0  0  0  0  0  0  0  0  0
    8.2004   -1.7023   20.8500 C   0  0  0  0  0  0  0  0  0  0  0  0
    8.3962   -2.0045   19.8423 H   0  0  0  0  0  0  0  0  0  0  0  0
    8.7869   -2.4013   21.8352 N   0  0  0  0  0  0  0  0  0  0  0  0
    8.5858   -1.9119   23.0722 C   0  0  0  0  0  0  0  0  0  0  0  0
    9.0550   -2.4520   23.8888 H   0  0  0  0  0  0  0  0  0  0  0  0
    8.6558   -0.4409   25.6687 C   0  0  0  0  0  0  0  0  0  0  0  0
    9.5899   -0.9467   25.4520 H   0  0  0  0  0  0  0  0  0  0  0  0
  1  2  1  0
  2  3  1  0
  3  4  2  0
  4  5  1  0
  4  6  1  0
  6  7  1  0
  7  8  1  0
  6  9  2  0
  9 10  1  0
  9 11  1  0
 11 12  1  0
 12 13  2  0
 13 14  1  0
 14 15  1  0
 15 16  2  0
 16 17  1  0
 16 18  1  0
 18 19  2  0
 19 20  1  0
 19 21  1  0
 21 22  1  0
 21 23  2  0
 23 24  1  0
 14 25  2  0
 25 26  1  0
 25 27  1  0
 27 28  2  0
 28 29  1  0
 11 30  2  0
 30 31  1  0
 30  3  1  0
 28 12  1  0
 23 15  1  0
M  END
>  <cnnaffinity>  (1) 
-5.10151

>  <filename>  (1) 
Oc1cc(O)cc(-c2cncc(-c3cccnc3)n2)c1

$$$$
