
     RDKit          3D

 32 35  0  0  0  0  0  0  0  0999 V2000
    7.8731    1.7827   24.5396 H   0  0  0  0  0  0  0  0  0  0  0  0
    7.7718    0.8402   24.7064 O   0  0  0  0  0  0  0  0  0  0  0  0
    6.4651    0.5792   24.9465 C   0  0  0  0  0  0  0  0  0  0  0  0
    5.4815    1.5753   24.9865 C   0  0  0  0  0  0  0  0  0  0  0  0
    5.7357    2.6152   24.7905 H   0  0  0  0  0  0  0  0  0  0  0  0
    4.1561    1.2270   25.2784 C   0  0  0  0  0  0  0  0  0  0  0  0
    2.9365    2.4643   25.3235 Cl  0  0  0  0  0  0  0  0  0  0  0  0
    3.7975   -0.0929   25.5444 C   0  0  0  0  0  0  0  0  0  0  0  0
    2.7667   -0.3429   25.7799 H   0  0  0  0  0  0  0  0  0  0  0  0
    4.7897   -1.0800   25.4894 C   0  0  0  0  0  0  0  0  0  0  0  0
    4.5364   -2.1134   25.6863 H   0  0  0  0  0  0  0  0  0  0  0  0
    6.1022   -0.7696   25.1511 C   0  0  0  0  0  0  0  0  0  0  0  0
    7.0222   -1.8189   25.1145 O   0  0  0  0  0  0  0  0  0  0  0  0
    7.9382   -1.9764   24.1254 C   0  0  0  0  0  0  0  0  0  0  0  0
    9.0602   -2.7121   24.2461 C   0  0  0  0  0  0  0  0  0  0  0  0
    9.4122   -3.2521   25.1104 H   0  0  0  0  0  0  0  0  0  0  0  0
   10.0016   -2.7695   22.7751 S   0  0  0  0  0  0  0  0  0  0  0  0
    8.7961   -1.7928   21.9761 C   0  0  0  0  0  0  0  0  0  0  0  0
    8.5679   -1.3059   20.7815 N   0  0  0  0  0  0  0  0  0  0  0  0
    7.3664   -0.6888   20.9593 C   0  0  0  0  0  0  0  0  0  0  0  0
    6.6476    0.0161   19.9052 C   0  0  0  0  0  0  0  0  0  0  0  0
    7.1803    0.0537   18.6120 C   0  0  0  0  0  0  0  0  0  0  0  0
    8.1275   -0.4324   18.3836 H   0  0  0  0  0  0  0  0  0  0  0  0
    6.5736    0.6678   17.5917 N   0  0  0  0  0  0  0  0  0  0  0  0
    5.4093    1.2855   17.8461 C   0  0  0  0  0  0  0  0  0  0  0  0
    4.9293    1.7732   17.0024 H   0  0  0  0  0  0  0  0  0  0  0  0
    4.8048    1.3099   19.1089 C   0  0  0  0  0  0  0  0  0  0  0  0
    3.8735    1.8434   19.2565 H   0  0  0  0  0  0  0  0  0  0  0  0
    5.4263    0.6585   20.1670 C   0  0  0  0  0  0  0  0  0  0  0  0
    4.9969    0.6359   21.1755 H   0  0  0  0  0  0  0  0  0  0  0  0
    6.8491   -0.7597   22.1774 N   0  0  0  0  0  0  0  0  0  0  0  0
    7.7987   -1.4782   22.8363 N   0  0  0  0  0  0  0  0  0  0  0  0
  1  2  1  0
  2  3  1  0
  3  4  2  0
  4  5  1  0
  4  6  1  0
  6  7  1  0
  6  8  2  0
  8  9  1  0
  8 10  1  0
 10 11  1  0
 10 12  2  0
 12 13  1  0
 13 14  1  0
 14 15  2  0
 15 16  1  0
 15 17  1  0
 17 18  1  0
 18 19  2  0
 19 20  1  0
 20 21  1  0
 21 22  2  0
 22 23  1  0
 22 24  1  0
 24 25  2  0
 25 26  1  0
 25 27  1  0
 27 28  1  0
 27 29  2  0
 29 30  1  0
 20 31  2  0
 31 32  1  0
 12  3  1  0
 32 14  1  0
 32 18  1  0
 29 21  1  0
M  END
>  <cnnaffinity>  (1) 
-5.39451

>  <filename>  (1) 
Oc1cc(Cl)ccc1Oc1csc2nc(-c3cccnc3)nn12

$$$$
