
     RDKit          3D

 36 39  0  0  0  0  0  0  0  0999 V2000
   13.9330    4.7047   23.5163 H   0  0  0  0  0  0  0  0  0  0  0  0
   12.9980    4.6756   23.7462 O   0  0  0  0  0  0  0  0  0  0  0  0
   12.5313    3.4858   23.2820 C   0  0  0  0  0  0  0  0  0  0  0  0
   13.3967    2.5230   22.7636 C   0  0  0  0  0  0  0  0  0  0  0  0
   14.4587    2.7384   22.6866 H   0  0  0  0  0  0  0  0  0  0  0  0
   12.8952    1.3015   22.3110 C   0  0  0  0  0  0  0  0  0  0  0  0
   13.5756    0.5447   21.9278 H   0  0  0  0  0  0  0  0  0  0  0  0
   11.5229    1.0297   22.3344 C   0  0  0  0  0  0  0  0  0  0  0  0
   10.9414   -0.2760   21.8266 C   0  0  1  0  0  0  0  0  0  0  0  0
   11.7492   -0.8836   21.4102 H   0  0  0  0  0  0  0  0  0  0  0  0
   10.2504   -1.1106   22.9658 C   0  0  0  0  0  0  0  0  0  0  0  0
   10.6691   -2.1200   23.0416 H   0  0  0  0  0  0  0  0  0  0  0  0
   10.3831   -0.6358   23.9445 H   0  0  0  0  0  0  0  0  0  0  0  0
    8.8155   -1.1496   22.5351 C   0  0  0  0  0  0  0  0  0  0  0  0
    7.7032   -1.6157   23.0726 N   0  0  0  0  0  0  0  0  0  0  0  0
    6.7512   -1.2771   22.1625 N   0  0  0  0  0  0  0  0  0  0  0  0
    5.7921   -1.5222   22.3720 H   0  0  0  0  0  0  0  0  0  0  0  0
    7.2431   -0.6128   21.0667 C   0  0  0  0  0  0  0  0  0  0  0  0
    6.4897   -0.0079   19.9470 C   0  0  0  0  0  0  0  0  0  0  0  0
    7.0707    0.0244   18.6605 C   0  0  0  0  0  0  0  0  0  0  0  0
    8.0095   -0.4932   18.4720 H   0  0  0  0  0  0  0  0  0  0  0  0
    6.5412    0.6474   17.5951 N   0  0  0  0  0  0  0  0  0  0  0  0
    5.3882    1.3087   17.7826 C   0  0  0  0  0  0  0  0  0  0  0  0
    4.9940    1.8440   16.9170 H   0  0  0  0  0  0  0  0  0  0  0  0
    4.7163    1.3352   19.0084 C   0  0  0  0  0  0  0  0  0  0  0  0
    3.8014    1.9084   19.0942 H   0  0  0  0  0  0  0  0  0  0  0  0
    5.2637    0.6657   20.1072 C   0  0  0  0  0  0  0  0  0  0  0  0
    4.7665    0.7040   21.0769 H   0  0  0  0  0  0  0  0  0  0  0  0
    8.5982   -0.5461   21.3046 C   0  0  0  0  0  0  0  0  0  0  0  0
    9.8671   -0.0541   20.7045 C   0  0  0  0  0  0  0  0  0  0  0  0
   10.1108   -0.6457   19.8198 H   0  0  0  0  0  0  0  0  0  0  0  0
    9.7976    0.9930   20.3860 H   0  0  0  0  0  0  0  0  0  0  0  0
   10.6698    2.0132   22.8601 C   0  0  0  0  0  0  0  0  0  0  0  0
    9.6006    1.8117   22.8895 H   0  0  0  0  0  0  0  0  0  0  0  0
   11.1553    3.2306   23.3391 C   0  0  0  0  0  0  0  0  0  0  0  0
   10.4865    3.9818   23.7378 H   0  0  0  0  0  0  0  0  0  0  0  0
  1  2  1  0
  2  3  1  0
  3  4  2  0
  4  5  1  0
  4  6  1  0
  6  7  1  0
  6  8  2  0
  8  9  1  0
  9 10  1  6
  9 11  1  0
 11 12  1  0
 11 13  1  0
 11 14  1  0
 14 15  2  0
 15 16  1  0
 16 17  1  0
 16 18  1  0
 18 19  1  0
 19 20  2  0
 20 21  1  0
 20 22  1  0
 22 23  2  0
 23 24  1  0
 23 25  1  0
 25 26  1  0
 25 27  2  0
 27 28  1  0
 18 29  2  0
 29 30  1  0
 30 31  1  0
 30 32  1  0
  8 33  1  0
 33 34  1  0
 33 35  2  0
 35 36  1  0
 35  3  1  0
 30  9  1  0
 29 14  1  0
 27 19  1  0
M  END
>  <cnnaffinity>  (1) 
-5.72729

>  <filename>  (1) 
Oc1ccc([C@H]2Cc3n[nH]c(-c4cccnc4)c3C2)cc1

$$$$
