
     RDKit          3D

 28 30  0  0  0  0  0  0  0  0999 V2000
    6.7506   -0.8387   24.8416 H   0  0  0  0  0  0  0  0  0  0  0  0
    7.2271   -0.2697   24.2269 O   0  0  0  0  0  0  0  0  0  0  0  0
    6.4563    0.8237   24.0020 C   0  0  0  0  0  0  0  0  0  0  0  0
    5.2234    1.0240   24.6458 C   0  0  0  0  0  0  0  0  0  0  0  0
    4.8374    0.2688   25.3318 H   0  0  0  0  0  0  0  0  0  0  0  0
    4.4858    2.1951   24.4150 C   0  0  0  0  0  0  0  0  0  0  0  0
    3.5362    2.3588   24.9240 H   0  0  0  0  0  0  0  0  0  0  0  0
    4.9714    3.1692   23.5395 C   0  0  0  0  0  0  0  0  0  0  0  0
    4.4173    4.0903   23.3651 H   0  0  0  0  0  0  0  0  0  0  0  0
    6.1901    2.9711   22.8868 C   0  0  0  0  0  0  0  0  0  0  0  0
    6.5921    3.7193   22.2098 H   0  0  0  0  0  0  0  0  0  0  0  0
    6.9279    1.8035   23.1029 C   0  0  0  0  0  0  0  0  0  0  0  0
    8.1521    1.5965   22.3907 N   0  0  0  0  0  0  0  0  0  0  0  0
    9.1166    2.5385   22.3146 N   0  0  0  0  0  0  0  0  0  0  0  0
   10.0289    2.0711   21.5513 N   0  0  0  0  0  0  0  0  0  0  0  0
    9.7092    0.8427   21.0872 N   0  0  0  0  0  0  0  0  0  0  0  0
    8.5434    0.5584   21.6220 C   0  0  0  0  0  0  0  0  0  0  0  0
    7.5596   -0.8424   21.1782 S   0  0  0  0  0  0  0  0  0  0  0  0
    6.6294   -0.0251   19.8795 C   0  0  0  0  0  0  0  0  0  0  0  0
    7.1573    0.0446   18.5769 C   0  0  0  0  0  0  0  0  0  0  0  0
    8.1197   -0.4221   18.3669 H   0  0  0  0  0  0  0  0  0  0  0  0
    6.5542    0.6783   17.5670 N   0  0  0  0  0  0  0  0  0  0  0  0
    5.3933    1.2969   17.8322 C   0  0  0  0  0  0  0  0  0  0  0  0
    4.9152    1.7905   16.9898 H   0  0  0  0  0  0  0  0  0  0  0  0
    4.7987    1.3122   19.0993 C   0  0  0  0  0  0  0  0  0  0  0  0
    3.8681    1.8479   19.2508 H   0  0  0  0  0  0  0  0  0  0  0  0
    5.4280    0.6387   20.1501 C   0  0  0  0  0  0  0  0  0  0  0  0
    5.0126    0.6346   21.1616 H   0  0  0  0  0  0  0  0  0  0  0  0
  1  2  1  0
  2  3  1  0
  3  4  2  0
  4  5  1  0
  4  6  1  0
  6  7  1  0
  6  8  2  0
  8  9  1  0
  8 10  1  0
 10 11  1  0
 10 12  2  0
 12 13  1  0
 13 14  1  0
 14 15  2  0
 15 16  1  0
 16 17  2  0
 17 18  1  0
 18 19  1  0
 19 20  2  0
 20 21  1  0
 20 22  1  0
 22 23  2  0
 23 24  1  0
 23 25  1  0
 25 26  1  0
 25 27  2  0
 27 28  1  0
 12  3  1  0
 17 13  1  0
 27 19  1  0
M  END
>  <cnnaffinity>  (1) 
-4.76315

>  <filename>  (1) 
Oc1ccccc1-n1nnnc1Sc1cccnc1

$$$$
