
     RDKit          3D

 37 40  0  0  0  0  0  0  0  0999 V2000
   14.9308    2.5025   22.0787 H   0  0  0  0  0  0  0  0  0  0  0  0
   14.4449    3.1895   22.5509 O   0  0  0  0  0  0  0  0  0  0  0  0
   13.1849    2.7274   22.7143 C   0  0  0  0  0  0  0  0  0  0  0  0
   12.2921    3.6237   23.2771 C   0  0  0  0  0  0  0  0  0  0  0  0
   12.6276    4.6024   23.5870 H   0  0  0  0  0  0  0  0  0  0  0  0
   10.9644    3.2451   23.3821 C   0  0  0  0  0  0  0  0  0  0  0  0
   10.1017    4.1346   23.9218 O   0  0  0  0  0  0  0  0  0  0  0  0
    9.2273    3.7491   23.8046 H   0  0  0  0  0  0  0  0  0  0  0  0
   10.5234    1.9931   22.9366 C   0  0  0  0  0  0  0  0  0  0  0  0
    9.4637    1.7568   22.9747 H   0  0  0  0  0  0  0  0  0  0  0  0
   11.4325    1.0773   22.3997 C   0  0  0  0  0  0  0  0  0  0  0  0
   10.9222   -0.2540   21.8652 C   0  0  1  0  0  0  0  0  0  0  0  0
   11.7851   -0.7990   21.4616 H   0  0  0  0  0  0  0  0  0  0  0  0
   10.2218   -1.1318   22.9703 C   0  0  0  0  0  0  0  0  0  0  0  0
   10.3686   -0.7493   23.9850 H   0  0  0  0  0  0  0  0  0  0  0  0
   10.6104   -2.1540   22.9483 H   0  0  0  0  0  0  0  0  0  0  0  0
    8.7730   -1.1077   22.5786 C   0  0  0  0  0  0  0  0  0  0  0  0
    7.6602   -1.5865   23.1032 N   0  0  0  0  0  0  0  0  0  0  0  0
    6.7092   -1.2054   22.2063 N   0  0  0  0  0  0  0  0  0  0  0  0
    5.7668   -1.5543   22.3273 H   0  0  0  0  0  0  0  0  0  0  0  0
    7.2071   -0.5437   21.1171 C   0  0  0  0  0  0  0  0  0  0  0  0
    6.4429    0.0270   19.9904 C   0  0  0  0  0  0  0  0  0  0  0  0
    7.0464    0.0103   18.7166 C   0  0  0  0  0  0  0  0  0  0  0  0
    7.9663   -0.5517   18.5654 H   0  0  0  0  0  0  0  0  0  0  0  0
    6.5541    0.6192   17.6310 N   0  0  0  0  0  0  0  0  0  0  0  0
    5.4063    1.2974   17.7832 C   0  0  0  0  0  0  0  0  0  0  0  0
    5.0328    1.8184   16.9056 H   0  0  0  0  0  0  0  0  0  0  0  0
    4.6909    1.3482   18.9867 C   0  0  0  0  0  0  0  0  0  0  0  0
    3.7655    1.9149   19.0398 H   0  0  0  0  0  0  0  0  0  0  0  0
    5.2028    0.6846   20.1039 C   0  0  0  0  0  0  0  0  0  0  0  0
    4.6684    0.6962   21.0548 H   0  0  0  0  0  0  0  0  0  0  0  0
    8.5665   -0.4869   21.3558 C   0  0  0  0  0  0  0  0  0  0  0  0
    9.8483   -0.0507   20.7318 C   0  0  0  0  0  0  0  0  0  0  0  0
    9.8101    0.9795   20.3540 H   0  0  0  0  0  0  0  0  0  0  0  0
   10.0898   -0.6860   19.8767 H   0  0  0  0  0  0  0  0  0  0  0  0
   12.7866    1.4457   22.3115 C   0  0  0  0  0  0  0  0  0  0  0  0
   13.5281    0.7468   21.9329 H   0  0  0  0  0  0  0  0  0  0  0  0
  1  2  1  0
  2  3  1  0
  3  4  2  0
  4  5  1  0
  4  6  1  0
  6  7  1  0
  7  8  1  0
  6  9  2  0
  9 10  1  0
  9 11  1  0
 11 12  1  0
 12 13  1  6
 12 14  1  0
 14 15  1  0
 14 16  1  0
 14 17  1  0
 17 18  2  0
 18 19  1  0
 19 20  1  0
 19 21  1  0
 21 22  1  0
 22 23  2  0
 23 24  1  0
 23 25  1  0
 25 26  2  0
 26 27  1  0
 26 28  1  0
 28 29  1  0
 28 30  2  0
 30 31  1  0
 21 32  2  0
 32 33  1  0
 33 34  1  0
 33 35  1  0
 11 36  2  0
 36 37  1  0
 36  3  1  0
 33 12  1  0
 32 17  1  0
 30 22  1  0
M  END
>  <cnnaffinity>  (1) 
-5.69385

>  <filename>  (1) 
Oc1cc(O)cc([C@H]2Cc3n[nH]c(-c4cccnc4)c3C2)c1

$$$$
