
     RDKit          3D

 36 38  0  0  0  0  0  0  0  0999 V2000
   10.3646   -2.5729   22.6829 H   0  0  0  0  0  0  0  0  0  0  0  0
   10.8371   -3.2025   23.2510 O   0  0  0  0  0  0  0  0  0  0  0  0
    9.9714   -3.4226   24.2760 C   0  0  0  0  0  0  0  0  0  0  0  0
   10.4385   -4.1780   25.3482 C   0  0  0  0  0  0  0  0  0  0  0  0
   11.4619   -4.5367   25.2655 H   0  0  0  0  0  0  0  0  0  0  0  0
    9.6026   -4.4225   26.4416 C   0  0  0  0  0  0  0  0  0  0  0  0
    9.9766   -5.0052   27.2823 H   0  0  0  0  0  0  0  0  0  0  0  0
    8.2923   -3.9194   26.4447 C   0  0  0  0  0  0  0  0  0  0  0  0
    7.6358   -4.1034   27.2881 H   0  0  0  0  0  0  0  0  0  0  0  0
    7.8239   -3.1630   25.3581 C   0  0  0  0  0  0  0  0  0  0  0  0
    6.8167   -2.7530   25.3253 H   0  0  0  0  0  0  0  0  0  0  0  0
    8.6541   -2.8997   24.2642 C   0  0  0  0  0  0  0  0  0  0  0  0
    8.2464   -2.1171   23.1447 N   0  0  0  0  0  0  0  0  0  0  0  0
    7.5445   -0.8515   23.3879 C   0  0  0  0  0  0  0  0  0  0  0  0
    6.4613   -0.9968   23.5595 H   0  0  0  0  0  0  0  0  0  0  0  0
    7.9754   -0.3891   24.2824 H   0  0  0  0  0  0  0  0  0  0  0  0
    7.7429    0.0565   22.1654 C   0  0  0  0  0  0  0  0  0  0  0  0
    8.8191    0.2902   22.0855 H   0  0  0  0  0  0  0  0  0  0  0  0
    7.1962    1.0017   22.2847 H   0  0  0  0  0  0  0  0  0  0  0  0
    7.2695   -0.6327   20.9649 N   0  0  0  0  0  0  0  0  0  0  0  0
    6.6613    0.0482   19.8991 C   0  0  0  0  0  0  0  0  0  0  0  0
    7.1589    0.0747   18.5693 C   0  0  0  0  0  0  0  0  0  0  0  0
    8.1024   -0.4226   18.3429 H   0  0  0  0  0  0  0  0  0  0  0  0
    6.5462    0.6861   17.5455 N   0  0  0  0  0  0  0  0  0  0  0  0
    5.3852    1.3111   17.8034 C   0  0  0  0  0  0  0  0  0  0  0  0
    4.9167    1.8142   16.9608 H   0  0  0  0  0  0  0  0  0  0  0  0
    4.7902    1.3339   19.0723 C   0  0  0  0  0  0  0  0  0  0  0  0
    3.8511    1.8586   19.2270 H   0  0  0  0  0  0  0  0  0  0  0  0
    5.4391    0.6978   20.1307 C   0  0  0  0  0  0  0  0  0  0  0  0
    5.0315    0.6496   21.1404 H   0  0  0  0  0  0  0  0  0  0  0  0
    7.8495   -1.9444   20.7372 C   0  0  0  0  0  0  0  0  0  0  0  0
    7.2744   -2.3878   19.9197 H   0  0  0  0  0  0  0  0  0  0  0  0
    8.9137   -1.8686   20.4488 H   0  0  0  0  0  0  0  0  0  0  0  0
    7.7261   -2.8374   21.9756 C   0  0  0  0  0  0  0  0  0  0  0  0
    8.3166   -3.7510   21.8350 H   0  0  0  0  0  0  0  0  0  0  0  0
    6.6707   -3.1378   22.0998 H   0  0  0  0  0  0  0  0  0  0  0  0
  1  2  1  0
  2  3  1  0
  3  4  2  0
  4  5  1  0
  4  6  1  0
  6  7  1  0
  6  8  2  0
  8  9  1  0
  8 10  1  0
 10 11  1  0
 10 12  2  0
 12 13  1  0
 13 14  1  0
 14 15  1  0
 14 16  1  0
 14 17  1  0
 17 18  1  0
 17 19  1  0
 17 20  1  0
 20 21  1  0
 21 22  2  0
 22 23  1  0
 22 24  1  0
 24 25  2  0
 25 26  1  0
 25 27  1  0
 27 28  1  0
 27 29  2  0
 29 30  1  0
 20 31  1  0
 31 32  1  0
 31 33  1  0
 31 34  1  0
 34 35  1  0
 34 36  1  0
 12  3  1  0
 34 13  1  0
 29 21  1  0
M  END
>  <cnnaffinity>  (1) 
-4.98424

>  <filename>  (1) 
Oc1ccccc1N1CCN(c2cccnc2)CC1

$$$$
