
     RDKit          3D

 33 36  0  0  0  0  0  0  0  0999 V2000
   10.6326    0.4233   26.7878 H   0  0  0  0  0  0  0  0  0  0  0  0
   10.3457   -0.1949   26.0987 O   0  0  0  0  0  0  0  0  0  0  0  0
    9.0219   -0.4537   26.3248 C   0  0  0  0  0  0  0  0  0  0  0  0
    8.4535   -0.0535   27.5344 C   0  0  0  0  0  0  0  0  0  0  0  0
    9.1511    0.2484   28.3038 H   0  0  0  0  0  0  0  0  0  0  0  0
    7.0733   -0.1043   27.7515 C   0  0  0  0  0  0  0  0  0  0  0  0
    6.6416    0.3277   28.6559 H   0  0  0  0  0  0  0  0  0  0  0  0
    6.2578   -0.6935   26.7785 C   0  0  0  0  0  0  0  0  0  0  0  0
    5.1847   -0.7709   26.9374 H   0  0  0  0  0  0  0  0  0  0  0  0
    6.8260   -1.2019   25.6068 C   0  0  0  0  0  0  0  0  0  0  0  0
    6.2068   -1.6771   24.8460 H   0  0  0  0  0  0  0  0  0  0  0  0
    8.2086   -1.0820   25.3570 C   0  0  0  0  0  0  0  0  0  0  0  0
    8.7255   -1.5036   24.1114 N   0  0  0  0  0  0  0  0  0  0  0  0
    9.9362   -2.1399   23.8272 C   0  0  0  0  0  0  0  0  0  0  0  0
   10.6079   -2.3973   24.6277 H   0  0  0  0  0  0  0  0  0  0  0  0
   10.0429   -2.2913   22.4810 C   0  0  0  0  0  0  0  0  0  0  0  0
   10.7847   -2.6979   21.8243 H   0  0  0  0  0  0  0  0  0  0  0  0
    8.9033   -1.7106   21.9383 N   0  0  0  0  0  0  0  0  0  0  0  0
    8.4951   -1.3929   20.6925 N   0  0  0  0  0  0  0  0  0  0  0  0
    7.3746   -0.6856   20.9192 C   0  0  0  0  0  0  0  0  0  0  0  0
    6.6225   -0.0408   19.8277 C   0  0  0  0  0  0  0  0  0  0  0  0
    7.1498    0.0152   18.5243 C   0  0  0  0  0  0  0  0  0  0  0  0
    8.1013   -0.4628   18.2956 H   0  0  0  0  0  0  0  0  0  0  0  0
    6.5612    0.6666   17.5169 N   0  0  0  0  0  0  0  0  0  0  0  0
    5.4093    1.3030   17.7755 C   0  0  0  0  0  0  0  0  0  0  0  0
    4.9623    1.8366   16.9425 H   0  0  0  0  0  0  0  0  0  0  0  0
    4.7930    1.3057   19.0301 C   0  0  0  0  0  0  0  0  0  0  0  0
    3.8711    1.8557   19.1823 H   0  0  0  0  0  0  0  0  0  0  0  0
    5.4071    0.6250   20.0742 C   0  0  0  0  0  0  0  0  0  0  0  0
    4.9619    0.6456   21.0711 H   0  0  0  0  0  0  0  0  0  0  0  0
    7.0656   -0.5626   22.2947 C   0  0  0  0  0  0  0  0  0  0  0  0
    6.2447   -0.0429   22.7557 H   0  0  0  0  0  0  0  0  0  0  0  0
    8.1051   -1.2337   22.9081 C   0  0  0  0  0  0  0  0  0  0  0  0
  1  2  1  0
  2  3  1  0
  3  4  2  0
  4  5  1  0
  4  6  1  0
  6  7  1  0
  6  8  2  0
  8  9  1  0
  8 10  1  0
 10 11  1  0
 10 12  2  0
 12 13  1  0
 13 14  1  0
 14 15  1  0
 14 16  2  0
 16 17  1  0
 16 18  1  0
 18 19  1  0
 19 20  2  0
 20 21  1  0
 21 22  2  0
 22 23  1  0
 22 24  1  0
 24 25  2  0
 25 26  1  0
 25 27  1  0
 27 28  1  0
 27 29  2  0
 29 30  1  0
 20 31  1  0
 31 32  1  0
 31 33  2  0
 12  3  1  0
 33 13  1  0
 33 18  1  0
 29 21  1  0
M  END
>  <cnnaffinity>  (1) 
-5.41611

>  <filename>  (1) 
Oc1ccccc1-n1ccn2nc(-c3cccnc3)cc12

$$$$
