
     RDKit          3D

 34 36  0  0  0  0  0  0  0  0999 V2000
    6.9168   -6.2052   23.2565 H   0  0  0  0  0  0  0  0  0  0  0  0
    7.1673   -5.5031   22.6490 O   0  0  0  0  0  0  0  0  0  0  0  0
    7.7820   -4.5158   23.3415 C   0  0  0  0  0  0  0  0  0  0  0  0
    7.9965   -4.5731   24.7153 C   0  0  0  0  0  0  0  0  0  0  0  0
    7.6885   -5.4104   25.3309 H   0  0  0  0  0  0  0  0  0  0  0  0
    8.6448   -3.5035   25.3401 C   0  0  0  0  0  0  0  0  0  0  0  0
    8.8443   -3.6190   26.6767 O   0  0  0  0  0  0  0  0  0  0  0  0
    9.3066   -2.8294   26.9764 H   0  0  0  0  0  0  0  0  0  0  0  0
    9.0696   -2.3904   24.6106 C   0  0  0  0  0  0  0  0  0  0  0  0
    9.5984   -1.5612   25.0813 H   0  0  0  0  0  0  0  0  0  0  0  0
    8.8532   -2.3447   23.2210 C   0  0  0  0  0  0  0  0  0  0  0  0
    9.3669   -1.1651   22.4445 C   0  0  0  0  0  0  0  0  0  0  0  0
   10.4846   -0.5816   22.7006 N   0  0  0  0  0  0  0  0  0  0  0  0
   10.6984    0.5113   21.7470 C   0  0  0  0  0  0  0  0  0  0  0  0
   10.7455    1.4517   22.3057 H   0  0  0  0  0  0  0  0  0  0  0  0
   11.6688    0.3726   21.2642 H   0  0  0  0  0  0  0  0  0  0  0  0
    9.5086    0.5142   20.7536 C   0  0  0  0  0  0  0  0  0  0  0  0
    9.0261    1.4928   20.6556 H   0  0  0  0  0  0  0  0  0  0  0  0
    9.7437    0.1821   19.7416 H   0  0  0  0  0  0  0  0  0  0  0  0
    8.6060   -0.5350   21.3483 C   0  0  0  0  0  0  0  0  0  0  0  0
    7.3232   -0.7213   20.9979 C   0  0  0  0  0  0  0  0  0  0  0  0
    6.6765   -1.3374   21.6254 H   0  0  0  0  0  0  0  0  0  0  0  0
    6.6403   -0.0168   19.8954 C   0  0  0  0  0  0  0  0  0  0  0  0
    7.1612    0.0651   18.5890 C   0  0  0  0  0  0  0  0  0  0  0  0
    8.1063   -0.4264   18.3710 H   0  0  0  0  0  0  0  0  0  0  0  0
    6.5612    0.6872   17.5660 N   0  0  0  0  0  0  0  0  0  0  0  0
    5.3981    1.3008   17.8319 C   0  0  0  0  0  0  0  0  0  0  0  0
    4.9158    1.7887   16.9890 H   0  0  0  0  0  0  0  0  0  0  0  0
    4.7983    1.3136   19.0984 C   0  0  0  0  0  0  0  0  0  0  0  0
    3.8682    1.8495   19.2525 H   0  0  0  0  0  0  0  0  0  0  0  0
    5.4189    0.6326   20.1455 C   0  0  0  0  0  0  0  0  0  0  0  0
    5.0056    0.6229   21.1575 H   0  0  0  0  0  0  0  0  0  0  0  0
    8.1991   -3.4132   22.5889 C   0  0  0  0  0  0  0  0  0  0  0  0
    8.0022   -3.4320   21.5223 H   0  0  0  0  0  0  0  0  0  0  0  0
  1  2  1  0
  2  3  1  0
  3  4  2  0
  4  5  1  0
  4  6  1  0
  6  7  1  0
  7  8  1  0
  6  9  2  0
  9 10  1  0
  9 11  1  0
 11 12  1  0
 12 13  2  0
 13 14  1  0
 14 15  1  0
 14 16  1  0
 14 17  1  0
 17 18  1  0
 17 19  1  0
 17 20  1  0
 20 21  2  3
 21 22  1  0
 21 23  1  0
 23 24  2  0
 24 25  1  0
 24 26  1  0
 26 27  2  0
 27 28  1  0
 27 29  1  0
 29 30  1  0
 29 31  2  0
 31 32  1  0
 11 33  2  0
 33 34  1  0
 33  3  1  0
 20 12  1  0
 31 23  1  0
M  END
>  <cnnaffinity>  (1) 
-5.35835

>  <filename>  (1) 
Oc1cc(O)cc(C2=NCCC2=Cc2cccnc2)c1

$$$$
