
     RDKit          3D

 36 38  0  0  0  0  0  0  0  0999 V2000
    7.6242   -4.7870   26.0800 H   0  0  0  0  0  0  0  0  0  0  0  0
    8.2570   -4.7616   25.3523 O   0  0  0  0  0  0  0  0  0  0  0  0
    9.1848   -3.7204   25.6331 C   0  0  0  0  0  0  0  0  0  0  0  0
    9.5898   -3.8340   26.6534 H   0  0  0  0  0  0  0  0  0  0  0  0
   10.3139   -3.8695   24.6181 C   0  0  0  0  0  0  0  0  0  0  0  0
   11.1340   -3.1916   24.8791 H   0  0  0  0  0  0  0  0  0  0  0  0
   10.7029   -4.8937   24.6448 H   0  0  0  0  0  0  0  0  0  0  0  0
    9.8230   -3.5714   23.2034 C   0  0  0  0  0  0  0  0  0  0  0  0
   10.6955   -3.4419   22.5556 H   0  0  0  0  0  0  0  0  0  0  0  0
    9.2290   -4.4188   22.8351 H   0  0  0  0  0  0  0  0  0  0  0  0
    9.0487   -2.3377   23.1341 N   0  0  0  0  0  0  0  0  0  0  0  0
    9.3541   -1.3577   22.2042 C   0  0  0  0  0  0  0  0  0  0  0  0
    8.6370   -0.5844   21.2828 C   0  0  0  0  0  0  0  0  0  0  0  0
    7.2689   -0.6418   20.9352 N   0  0  0  0  0  0  0  0  0  0  0  0
    6.6606   -1.1034   21.6038 H   0  0  0  0  0  0  0  0  0  0  0  0
    6.6253    0.0123   19.8630 C   0  0  0  0  0  0  0  0  0  0  0  0
    7.1338    0.0549   18.5366 C   0  0  0  0  0  0  0  0  0  0  0  0
    8.0477   -0.4873   18.2998 H   0  0  0  0  0  0  0  0  0  0  0  0
    6.5427    0.6968   17.5132 N   0  0  0  0  0  0  0  0  0  0  0  0
    5.3857    1.3303   17.7676 C   0  0  0  0  0  0  0  0  0  0  0  0
    4.9281    1.8592   16.9336 H   0  0  0  0  0  0  0  0  0  0  0  0
    4.7698    1.3173   19.0247 C   0  0  0  0  0  0  0  0  0  0  0  0
    3.8279    1.8386   19.1680 H   0  0  0  0  0  0  0  0  0  0  0  0
    5.3886    0.6401   20.0833 C   0  0  0  0  0  0  0  0  0  0  0  0
    4.9344    0.6081   21.0739 H   0  0  0  0  0  0  0  0  0  0  0  0
    9.6221    0.2766   20.7324 C   0  0  0  0  0  0  0  0  0  0  0  0
    9.4601    1.0461   19.9922 H   0  0  0  0  0  0  0  0  0  0  0  0
   10.8371    0.0593   21.2128 N   0  0  0  0  0  0  0  0  0  0  0  0
   10.6503   -0.9548   22.0762 N   0  0  0  0  0  0  0  0  0  0  0  0
   11.4091   -1.3100   22.6331 H   0  0  0  0  0  0  0  0  0  0  0  0
    7.9410   -2.2045   24.0689 C   0  0  0  0  0  0  0  0  0  0  0  0
    7.1854   -2.9853   23.8870 H   0  0  0  0  0  0  0  0  0  0  0  0
    7.4673   -1.2243   23.9366 H   0  0  0  0  0  0  0  0  0  0  0  0
    8.4916   -2.3583   25.4919 C   0  0  0  0  0  0  0  0  0  0  0  0
    9.2246   -1.5635   25.6843 H   0  0  0  0  0  0  0  0  0  0  0  0
    7.6788   -2.2613   26.2230 H   0  0  0  0  0  0  0  0  0  0  0  0
  1  2  1  0
  2  3  1  0
  3  4  1  0
  3  5  1  0
  5  6  1  0
  5  7  1  0
  5  8  1  0
  8  9  1  0
  8 10  1  0
  8 11  1  0
 11 12  1  0
 12 13  2  0
 13 14  1  0
 14 15  1  0
 14 16  1  0
 16 17  2  0
 17 18  1  0
 17 19  1  0
 19 20  2  0
 20 21  1  0
 20 22  1  0
 22 23  1  0
 22 24  2  0
 24 25  1  0
 13 26  1  0
 26 27  1  0
 26 28  2  0
 28 29  1  0
 29 30  1  0
 11 31  1  0
 31 32  1  0
 31 33  1  0
 31 34  1  0
 34 35  1  0
 34 36  1  0
 34  3  1  0
 29 12  1  0
 24 16  1  0
M  END
>  <cnnaffinity>  (1) 
-5.15379

>  <filename>  (1) 
OC1CCN(c2[nH]ncc2Nc2cccnc2)CC1

$$$$
