
     RDKit          3D

 35 38  0  0  0  0  0  0  0  0999 V2000
    3.4377   -6.2268   22.3186 H   0  0  0  0  0  0  0  0  0  0  0  0
    2.7429   -6.1284   22.9900 O   0  0  0  0  0  0  0  0  0  0  0  0
    3.1278   -5.1185   23.8036 C   0  0  0  0  0  0  0  0  0  0  0  0
    2.3324   -4.8531   24.9175 C   0  0  0  0  0  0  0  0  0  0  0  0
    1.4210   -5.4224   25.0680 H   0  0  0  0  0  0  0  0  0  0  0  0
    2.7328   -3.8684   25.8204 C   0  0  0  0  0  0  0  0  0  0  0  0
    1.7044   -3.5010   27.1749 Cl  0  0  0  0  0  0  0  0  0  0  0  0
    3.9200   -3.1590   25.6402 C   0  0  0  0  0  0  0  0  0  0  0  0
    4.2068   -2.4224   26.3826 H   0  0  0  0  0  0  0  0  0  0  0  0
    4.7144   -3.4033   24.5071 C   0  0  0  0  0  0  0  0  0  0  0  0
    5.6611   -2.8710   24.3927 H   0  0  0  0  0  0  0  0  0  0  0  0
    4.2947   -4.3448   23.5697 C   0  0  0  0  0  0  0  0  0  0  0  0
    4.9629   -4.6512   22.3644 O   0  0  0  0  0  0  0  0  0  0  0  0
    5.9852   -3.9182   21.9174 C   0  0  0  0  0  0  0  0  0  0  0  0
    7.1646   -4.3376   21.6294 N   0  0  0  0  0  0  0  0  0  0  0  0
    7.8655   -3.2014   21.2382 N   0  0  0  0  0  0  0  0  0  0  0  0
    7.0411   -2.2048   21.2966 C   0  0  0  0  0  0  0  0  0  0  0  0
    7.3303   -0.7532   21.0706 C   0  0  0  0  0  0  0  0  0  0  0  0
    6.5902   -0.0478   19.9602 C   0  0  0  0  0  0  0  0  0  0  0  0
    7.1344   -0.0116   18.6647 C   0  0  0  0  0  0  0  0  0  0  0  0
    8.0771   -0.5266   18.4799 H   0  0  0  0  0  0  0  0  0  0  0  0
    6.5851    0.6252   17.6240 N   0  0  0  0  0  0  0  0  0  0  0  0
    5.4320    1.2744   17.8415 C   0  0  0  0  0  0  0  0  0  0  0  0
    5.0049    1.7922   16.9836 H   0  0  0  0  0  0  0  0  0  0  0  0
    4.7898    1.2980   19.0847 C   0  0  0  0  0  0  0  0  0  0  0  0
    3.8591    1.8435   19.1924 H   0  0  0  0  0  0  0  0  0  0  0  0
    5.3810    0.6296   20.1619 C   0  0  0  0  0  0  0  0  0  0  0  0
    4.9283    0.6419   21.1540 H   0  0  0  0  0  0  0  0  0  0  0  0
    7.7282    0.0722   22.2916 C   0  0  0  0  0  0  0  0  0  0  0  0
    7.4357    1.1209   22.3028 H   0  0  0  0  0  0  0  0  0  0  0  0
    7.7086   -0.4165   23.2612 H   0  0  0  0  0  0  0  0  0  0  0  0
    8.7670   -0.3492   21.3063 C   0  0  0  0  0  0  0  0  0  0  0  0
    9.4315   -1.1591   21.5965 H   0  0  0  0  0  0  0  0  0  0  0  0
    9.1946    0.4027   20.6474 H   0  0  0  0  0  0  0  0  0  0  0  0
    5.7916   -2.5962   21.7102 O   0  0  0  0  0  0  0  0  0  0  0  0
  1  2  1  0
  2  3  1  0
  3  4  2  0
  4  5  1  0
  4  6  1  0
  6  7  1  0
  6  8  2  0
  8  9  1  0
  8 10  1  0
 10 11  1  0
 10 12  2  0
 12 13  1  0
 13 14  1  0
 14 15  2  0
 15 16  1  0
 16 17  2  0
 17 18  1  0
 18 19  1  0
 19 20  2  0
 20 21  1  0
 20 22  1  0
 22 23  2  0
 23 24  1  0
 23 25  1  0
 25 26  1  0
 25 27  2  0
 27 28  1  0
 18 29  1  0
 29 30  1  0
 29 31  1  0
 29 32  1  0
 32 33  1  0
 32 34  1  0
 17 35  1  0
 12  3  1  0
 35 14  1  0
 32 18  1  0
 27 19  1  0
M  END
>  <cnnaffinity>  (1) 
-5.3803

>  <filename>  (1) 
Oc1cc(Cl)ccc1Oc1nnc(C2(c3cccnc3)CC2)o1

$$$$
