
     RDKit          3D

 34 37  0  0  0  0  0  0  0  0999 V2000
    5.0349   -5.9699   27.1519 H   0  0  0  0  0  0  0  0  0  0  0  0
    5.6954   -5.9798   26.4508 O   0  0  0  0  0  0  0  0  0  0  0  0
    5.8824   -4.6838   26.1210 C   0  0  0  0  0  0  0  0  0  0  0  0
    5.0993   -3.6941   26.6997 C   0  0  0  0  0  0  0  0  0  0  0  0
    4.3380   -3.9282   27.4340 H   0  0  0  0  0  0  0  0  0  0  0  0
    5.2976   -2.3757   26.3056 C   0  0  0  0  0  0  0  0  0  0  0  0
    4.5061   -1.4278   26.8548 O   0  0  0  0  0  0  0  0  0  0  0  0
    4.7674   -0.5838   26.4670 H   0  0  0  0  0  0  0  0  0  0  0  0
    6.2632   -2.0366   25.3597 C   0  0  0  0  0  0  0  0  0  0  0  0
    6.3326   -0.9971   25.0491 H   0  0  0  0  0  0  0  0  0  0  0  0
    7.0510   -3.0573   24.7929 C   0  0  0  0  0  0  0  0  0  0  0  0
    7.9912   -2.7528   23.7706 N   0  0  0  0  0  0  0  0  0  0  0  0
    9.2187   -3.3652   23.4842 C   0  0  0  0  0  0  0  0  0  0  0  0
    9.5703   -4.1706   24.1104 H   0  0  0  0  0  0  0  0  0  0  0  0
    9.7494   -2.8042   22.3645 C   0  0  0  0  0  0  0  0  0  0  0  0
   10.6870   -2.9173   21.8464 H   0  0  0  0  0  0  0  0  0  0  0  0
    8.8134   -1.8879   21.9162 N   0  0  0  0  0  0  0  0  0  0  0  0
    8.6356   -1.1909   20.7696 N   0  0  0  0  0  0  0  0  0  0  0  0
    7.4127   -0.6651   20.9372 C   0  0  0  0  0  0  0  0  0  0  0  0
    6.7116    0.0729   19.8722 C   0  0  0  0  0  0  0  0  0  0  0  0
    7.2074    0.0914   18.5573 C   0  0  0  0  0  0  0  0  0  0  0  0
    8.1464   -0.4029   18.3095 H   0  0  0  0  0  0  0  0  0  0  0  0
    6.5755    0.6830   17.5398 N   0  0  0  0  0  0  0  0  0  0  0  0
    5.4134    1.3015   17.7989 C   0  0  0  0  0  0  0  0  0  0  0  0
    4.9354    1.8020   16.9620 H   0  0  0  0  0  0  0  0  0  0  0  0
    4.8188    1.3229   19.0624 C   0  0  0  0  0  0  0  0  0  0  0  0
    3.8744    1.8340   19.2152 H   0  0  0  0  0  0  0  0  0  0  0  0
    5.4736    0.6975   20.1136 C   0  0  0  0  0  0  0  0  0  0  0  0
    5.0222    0.6922   21.1061 H   0  0  0  0  0  0  0  0  0  0  0  0
    6.8379   -0.9888   22.1832 C   0  0  0  0  0  0  0  0  0  0  0  0
    5.9058   -0.6202   22.5450 H   0  0  0  0  0  0  0  0  0  0  0  0
    7.7662   -1.8332   22.7601 C   0  0  0  0  0  0  0  0  0  0  0  0
    6.8618   -4.3882   25.1761 C   0  0  0  0  0  0  0  0  0  0  0  0
    7.4158   -5.1948   24.7137 H   0  0  0  0  0  0  0  0  0  0  0  0
  1  2  1  0
  2  3  1  0
  3  4  2  0
  4  5  1  0
  4  6  1  0
  6  7  1  0
  7  8  1  0
  6  9  2  0
  9 10  1  0
  9 11  1  0
 11 12  1  0
 12 13  1  0
 13 14  1  0
 13 15  2  0
 15 16  1  0
 15 17  1  0
 17 18  1  0
 18 19  2  0
 19 20  1  0
 20 21  2  0
 21 22  1  0
 21 23  1  0
 23 24  2  0
 24 25  1  0
 24 26  1  0
 26 27  1  0
 26 28  2  0
 28 29  1  0
 19 30  1  0
 30 31  1  0
 30 32  2  0
 11 33  2  0
 33 34  1  0
 33  3  1  0
 32 12  1  0
 32 17  1  0
 28 20  1  0
M  END
>  <cnnaffinity>  (1) 
-5.57891

>  <filename>  (1) 
Oc1cc(O)cc(-n2ccn3nc(-c4cccnc4)cc23)c1

$$$$
