
     RDKit          3D

 29 31  0  0  0  0  0  0  0  0999 V2000
    7.7479   -4.1532   25.3644 H   0  0  0  0  0  0  0  0  0  0  0  0
    7.2338   -3.9508   26.1569 O   0  0  0  0  0  0  0  0  0  0  0  0
    6.9543   -2.6237   26.1628 C   0  0  0  0  0  0  0  0  0  0  0  0
    6.2177   -2.1803   27.2663 C   0  0  0  0  0  0  0  0  0  0  0  0
    5.9120   -2.8971   28.0155 H   0  0  0  0  0  0  0  0  0  0  0  0
    5.8804   -0.8362   27.3996 C   0  0  0  0  0  0  0  0  0  0  0  0
    4.9612   -0.3057   28.7734 Cl  0  0  0  0  0  0  0  0  0  0  0  0
    6.2765    0.0989   26.4472 C   0  0  0  0  0  0  0  0  0  0  0  0
    6.0060    1.1440   26.5679 H   0  0  0  0  0  0  0  0  0  0  0  0
    7.0141   -0.3357   25.3420 C   0  0  0  0  0  0  0  0  0  0  0  0
    7.3426    0.3884   24.6048 H   0  0  0  0  0  0  0  0  0  0  0  0
    7.3377   -1.6851   25.1693 C   0  0  0  0  0  0  0  0  0  0  0  0
    8.1290   -2.1269   24.0876 O   0  0  0  0  0  0  0  0  0  0  0  0
    7.9453   -1.6109   22.8585 C   0  0  0  0  0  0  0  0  0  0  0  0
    8.9309   -1.8392   21.9946 O   0  0  0  0  0  0  0  0  0  0  0  0
    8.5900   -1.2580   20.7677 N   0  0  0  0  0  0  0  0  0  0  0  0
    7.4085   -0.7184   20.9531 C   0  0  0  0  0  0  0  0  0  0  0  0
    6.6729    0.0045   19.8994 C   0  0  0  0  0  0  0  0  0  0  0  0
    7.1824    0.0591   18.5946 C   0  0  0  0  0  0  0  0  0  0  0  0
    8.1264   -0.4272   18.3679 H   0  0  0  0  0  0  0  0  0  0  0  0
    6.5678    0.6752   17.5795 N   0  0  0  0  0  0  0  0  0  0  0  0
    5.4047    1.2890   17.8437 C   0  0  0  0  0  0  0  0  0  0  0  0
    4.9192    1.7772   17.0022 H   0  0  0  0  0  0  0  0  0  0  0  0
    4.8108    1.3062   19.1115 C   0  0  0  0  0  0  0  0  0  0  0  0
    3.8784    1.8392   19.2630 H   0  0  0  0  0  0  0  0  0  0  0  0
    5.4492    0.6479   20.1590 C   0  0  0  0  0  0  0  0  0  0  0  0
    5.0081    0.6353   21.1593 H   0  0  0  0  0  0  0  0  0  0  0  0
    6.9428   -0.9199   22.2736 C   0  0  0  0  0  0  0  0  0  0  0  0
    6.0292   -0.6154   22.7373 H   0  0  0  0  0  0  0  0  0  0  0  0
  1  2  1  0
  2  3  1  0
  3  4  2  0
  4  5  1  0
  4  6  1  0
  6  7  1  0
  6  8  2  0
  8  9  1  0
  8 10  1  0
 10 11  1  0
 10 12  2  0
 12 13  1  0
 13 14  1  0
 14 15  1  0
 15 16  1  0
 16 17  2  0
 17 18  1  0
 18 19  2  0
 19 20  1  0
 19 21  1  0
 21 22  2  0
 22 23  1  0
 22 24  1  0
 24 25  1  0
 24 26  2  0
 26 27  1  0
 17 28  1  0
 28 29  1  0
 12  3  1  0
 28 14  2  0
 26 18  1  0
M  END
>  <cnnaffinity>  (1) 
-5.18579

>  <filename>  (1) 
Oc1cc(Cl)ccc1Oc1cc(-c2cccnc2)no1

$$$$
