
     RDKit          3D

 30 32  0  0  0  0  0  0  0  0999 V2000
    9.2362    0.9771   27.9404 H   0  0  0  0  0  0  0  0  0  0  0  0
    8.6508    1.0829   27.1746 O   0  0  0  0  0  0  0  0  0  0  0  0
    8.5331   -0.1124   26.5395 C   0  0  0  0  0  0  0  0  0  0  0  0
    8.6546   -1.3378   27.2003 C   0  0  0  0  0  0  0  0  0  0  0  0
    8.9537   -1.3435   28.2444 H   0  0  0  0  0  0  0  0  0  0  0  0
    8.4294   -2.5260   26.4958 C   0  0  0  0  0  0  0  0  0  0  0  0
    8.5171   -3.4846   27.0140 H   0  0  0  0  0  0  0  0  0  0  0  0
    8.1403   -2.4832   25.1282 C   0  0  0  0  0  0  0  0  0  0  0  0
    7.9631   -3.3987   24.5734 H   0  0  0  0  0  0  0  0  0  0  0  0
    8.1092   -1.2426   24.4637 C   0  0  0  0  0  0  0  0  0  0  0  0
    7.9643   -1.1657   23.0400 N   0  0  0  0  0  0  0  0  0  0  0  0
    7.0241   -0.4018   22.3504 C   0  0  0  0  0  0  0  0  0  0  0  0
    6.3499    0.2609   22.8707 H   0  0  0  0  0  0  0  0  0  0  0  0
    7.2030   -0.6092   21.0261 C   0  0  0  0  0  0  0  0  0  0  0  0
    6.5539    0.0156   19.8673 C   0  0  0  0  0  0  0  0  0  0  0  0
    7.1377    0.0337   18.5865 C   0  0  0  0  0  0  0  0  0  0  0  0
    8.0890   -0.4641   18.4007 H   0  0  0  0  0  0  0  0  0  0  0  0
    6.6115    0.6577   17.5273 N   0  0  0  0  0  0  0  0  0  0  0  0
    5.4481    1.3033   17.7156 C   0  0  0  0  0  0  0  0  0  0  0  0
    5.0376    1.8078   16.8479 H   0  0  0  0  0  0  0  0  0  0  0  0
    4.7655    1.3401   18.9345 C   0  0  0  0  0  0  0  0  0  0  0  0
    3.8273    1.8791   19.0228 H   0  0  0  0  0  0  0  0  0  0  0  0
    5.3290    0.6867   20.0278 C   0  0  0  0  0  0  0  0  0  0  0  0
    4.8399    0.6829   21.0005 H   0  0  0  0  0  0  0  0  0  0  0  0
    8.2766   -1.4822   20.9293 N   0  0  0  0  0  0  0  0  0  0  0  0
    8.6350   -1.9436   20.1127 H   0  0  0  0  0  0  0  0  0  0  0  0
    8.7997   -1.7917   22.1461 C   0  0  0  0  0  0  0  0  0  0  0  0
   10.1900   -2.6668   22.3995 S   0  0  0  0  0  0  0  0  0  0  0  0
    8.2672   -0.0554   25.1748 C   0  0  0  0  0  0  0  0  0  0  0  0
    8.2421    0.9192   24.6983 H   0  0  0  0  0  0  0  0  0  0  0  0
  1  2  1  0
  2  3  1  0
  3  4  2  0
  4  5  1  0
  4  6  1  0
  6  7  1  0
  6  8  2  0
  8  9  1  0
  8 10  1  0
 10 11  1  0
 11 12  1  0
 12 13  1  0
 12 14  2  0
 14 15  1  0
 15 16  2  0
 16 17  1  0
 16 18  1  0
 18 19  2  0
 19 20  1  0
 19 21  1  0
 21 22  1  0
 21 23  2  0
 23 24  1  0
 14 25  1  0
 25 26  1  0
 25 27  1  0
 27 28  2  0
 10 29  2  0
 29 30  1  0
 29  3  1  0
 27 11  1  0
 23 15  1  0
M  END
>  <cnnaffinity>  (1) 
-5.4344

>  <filename>  (1) 
Oc1cccc(-n2cc(-c3cccnc3)[nH]c2=S)c1

$$$$
