
     RDKit          3D

 30 32  0  0  0  0  0  0  0  0999 V2000
   10.1655    1.4413   24.1402 H   0  0  0  0  0  0  0  0  0  0  0  0
    9.3237    1.2067   23.7394 O   0  0  0  0  0  0  0  0  0  0  0  0
    8.3246    1.3511   24.6471 C   0  0  0  0  0  0  0  0  0  0  0  0
    8.5438    1.7942   25.9553 C   0  0  0  0  0  0  0  0  0  0  0  0
    9.5528    2.0033   26.3002 H   0  0  0  0  0  0  0  0  0  0  0  0
    7.4536    1.9501   26.8216 C   0  0  0  0  0  0  0  0  0  0  0  0
    7.7107    2.4887   28.4494 Cl  0  0  0  0  0  0  0  0  0  0  0  0
    6.1489    1.6879   26.4085 C   0  0  0  0  0  0  0  0  0  0  0  0
    5.3210    1.8371   27.0964 H   0  0  0  0  0  0  0  0  0  0  0  0
    5.9398    1.2310   25.1063 C   0  0  0  0  0  0  0  0  0  0  0  0
    4.9362    1.0281   24.7544 H   0  0  0  0  0  0  0  0  0  0  0  0
    7.0111    1.0232   24.2438 C   0  0  0  0  0  0  0  0  0  0  0  0
    6.6830    0.5709   22.9670 O   0  0  0  0  0  0  0  0  0  0  0  0
    7.3700   -0.3978   22.3196 C   0  0  0  0  0  0  0  0  0  0  0  0
    7.3812   -0.6760   20.9689 C   0  0  0  0  0  0  0  0  0  0  0  0
    6.6552    0.0050   19.9050 C   0  0  0  0  0  0  0  0  0  0  0  0
    7.1751    0.0468   18.5992 C   0  0  0  0  0  0  0  0  0  0  0  0
    8.1235   -0.4350   18.3758 H   0  0  0  0  0  0  0  0  0  0  0  0
    6.5718    0.6715   17.5840 N   0  0  0  0  0  0  0  0  0  0  0  0
    5.4068    1.2875   17.8421 C   0  0  0  0  0  0  0  0  0  0  0  0
    4.9223    1.7770   16.9997 H   0  0  0  0  0  0  0  0  0  0  0  0
    4.8046    1.3064   19.1061 C   0  0  0  0  0  0  0  0  0  0  0  0
    3.8744    1.8423   19.2577 H   0  0  0  0  0  0  0  0  0  0  0  0
    5.4339    0.6551   20.1603 C   0  0  0  0  0  0  0  0  0  0  0  0
    5.0097    0.6411   21.1673 H   0  0  0  0  0  0  0  0  0  0  0  0
    8.2233   -1.7429   20.7346 N   0  0  0  0  0  0  0  0  0  0  0  0
    8.6663   -2.1197   21.9000 C   0  0  0  0  0  0  0  0  0  0  0  0
    9.3517   -2.9406   22.0835 H   0  0  0  0  0  0  0  0  0  0  0  0
    8.1674   -1.3375   22.9077 N   0  0  0  0  0  0  0  0  0  0  0  0
    8.3918   -1.4202   23.8806 H   0  0  0  0  0  0  0  0  0  0  0  0
  1  2  1  0
  2  3  1  0
  3  4  2  0
  4  5  1  0
  4  6  1  0
  6  7  1  0
  6  8  2  0
  8  9  1  0
  8 10  1  0
 10 11  1  0
 10 12  2  0
 12 13  1  0
 13 14  1  0
 14 15  2  0
 15 16  1  0
 16 17  2  0
 17 18  1  0
 17 19  1  0
 19 20  2  0
 20 21  1  0
 20 22  1  0
 22 23  1  0
 22 24  2  0
 24 25  1  0
 15 26  1  0
 26 27  2  0
 27 28  1  0
 27 29  1  0
 29 30  1  0
 12  3  1  0
 29 14  1  0
 24 16  1  0
M  END
>  <cnnaffinity>  (1) 
-5.35237

>  <filename>  (1) 
Oc1cc(Cl)ccc1Oc1[nH]cnc1-c1cccnc1

$$$$
