
     RDKit          3D

 40 42  0  0  0  0  0  0  0  0999 V2000
   11.3372   -5.6727   25.2448 H   0  0  0  0  0  0  0  0  0  0  0  0
   10.7388   -5.6412   25.9995 O   0  0  0  0  0  0  0  0  0  0  0  0
    9.6716   -4.9244   25.5867 C   0  0  0  0  0  0  0  0  0  0  0  0
    8.5749   -4.8140   26.4306 C   0  0  0  0  0  0  0  0  0  0  0  0
    8.5811   -5.2683   27.4099 H   0  0  0  0  0  0  0  0  0  0  0  0
    7.4811   -4.0879   25.9768 C   0  0  0  0  0  0  0  0  0  0  0  0
    6.4167   -3.9353   26.7952 O   0  0  0  0  0  0  0  0  0  0  0  0
    5.7898   -3.4029   26.2929 H   0  0  0  0  0  0  0  0  0  0  0  0
    7.4437   -3.5250   24.6987 C   0  0  0  0  0  0  0  0  0  0  0  0
    6.5673   -2.9764   24.3753 H   0  0  0  0  0  0  0  0  0  0  0  0
    8.5643   -3.6441   23.8641 C   0  0  0  0  0  0  0  0  0  0  0  0
    8.5804   -3.1182   22.5683 N   0  0  0  0  0  0  0  0  0  0  0  0
    7.3374   -2.9616   21.8178 C   0  0  0  0  0  0  0  0  0  0  0  0
    7.5115   -3.2382   20.7724 H   0  0  0  0  0  0  0  0  0  0  0  0
    6.6177   -3.6910   22.2003 H   0  0  0  0  0  0  0  0  0  0  0  0
    6.6668   -1.5644   21.8314 C   0  0  0  0  0  0  0  0  0  0  0  0
    6.6127   -1.2194   22.8762 H   0  0  0  0  0  0  0  0  0  0  0  0
    5.6373   -1.6976   21.4908 H   0  0  0  0  0  0  0  0  0  0  0  0
    7.2891   -0.5542   20.9859 N   0  0  0  0  0  0  0  0  0  0  0  0
    6.6179    0.0319   19.8815 C   0  0  0  0  0  0  0  0  0  0  0  0
    7.1396    0.0922   18.5578 C   0  0  0  0  0  0  0  0  0  0  0  0
    8.0962   -0.3761   18.3234 H   0  0  0  0  0  0  0  0  0  0  0  0
    6.5305    0.6963   17.5256 N   0  0  0  0  0  0  0  0  0  0  0  0
    5.3675    1.3226   17.7732 C   0  0  0  0  0  0  0  0  0  0  0  0
    4.9130    1.8411   16.9328 H   0  0  0  0  0  0  0  0  0  0  0  0
    4.7573    1.3254   19.0336 C   0  0  0  0  0  0  0  0  0  0  0  0
    3.8239    1.8596   19.1799 H   0  0  0  0  0  0  0  0  0  0  0  0
    5.3789    0.6593   20.0908 C   0  0  0  0  0  0  0  0  0  0  0  0
    4.9780    0.6523   21.1057 H   0  0  0  0  0  0  0  0  0  0  0  0
    8.6779   -0.2365   21.2560 C   0  0  0  0  0  0  0  0  0  0  0  0
    8.9566    0.6131   20.6268 H   0  0  0  0  0  0  0  0  0  0  0  0
    8.7963    0.1215   22.2936 H   0  0  0  0  0  0  0  0  0  0  0  0
    9.6325   -1.4074   21.0035 C   0  0  0  0  0  0  0  0  0  0  0  0
   10.6340   -1.0244   20.7798 H   0  0  0  0  0  0  0  0  0  0  0  0
    9.3030   -1.9392   20.1100 H   0  0  0  0  0  0  0  0  0  0  0  0
    9.7797   -2.3755   22.1775 C   0  0  0  0  0  0  0  0  0  0  0  0
   10.6148   -3.0587   21.9742 H   0  0  0  0  0  0  0  0  0  0  0  0
   10.1370   -1.7960   23.0421 H   0  0  0  0  0  0  0  0  0  0  0  0
    9.7033   -4.3012   24.3419 C   0  0  0  0  0  0  0  0  0  0  0  0
   10.6138   -4.2844   23.7607 H   0  0  0  0  0  0  0  0  0  0  0  0
  1  2  1  0
  2  3  1  0
  3  4  2  0
  4  5  1  0
  4  6  1  0
  6  7  1  0
  7  8  1  0
  6  9  2  0
  9 10  1  0
  9 11  1  0
 11 12  1  0
 12 13  1  0
 13 14  1  0
 13 15  1  0
 13 16  1  0
 16 17  1  0
 16 18  1  0
 16 19  1  0
 19 20  1  0
 20 21  2  0
 21 22  1  0
 21 23  1  0
 23 24  2  0
 24 25  1  0
 24 26  1  0
 26 27  1  0
 26 28  2  0
 28 29  1  0
 19 30  1  0
 30 31  1  0
 30 32  1  0
 30 33  1  0
 33 34  1  0
 33 35  1  0
 33 36  1  0
 36 37  1  0
 36 38  1  0
 11 39  2  0
 39 40  1  0
 39  3  1  0
 36 12  1  0
 28 20  1  0
M  END
>  <cnnaffinity>  (1) 
-5.27418

>  <filename>  (1) 
Oc1cc(O)cc(N2CCCN(c3cccnc3)CC2)c1

$$$$
