
     RDKit          3D

 32 34  0  0  0  0  0  0  0  0999 V2000
    6.1070    4.7424   25.3035 H   0  0  0  0  0  0  0  0  0  0  0  0
    6.5425    4.8177   24.4441 O   0  0  0  0  0  0  0  0  0  0  0  0
    6.7293    3.5488   23.9519 C   0  0  0  0  0  0  0  0  0  0  0  0
    6.3357    2.4116   24.6502 C   0  0  0  0  0  0  0  0  0  0  0  0
    5.8737    2.5314   25.6295 H   0  0  0  0  0  0  0  0  0  0  0  0
    6.5586    1.1391   24.1043 C   0  0  0  0  0  0  0  0  0  0  0  0
    6.2591    0.2462   24.6365 H   0  0  0  0  0  0  0  0  0  0  0  0
    7.1690    0.9942   22.8529 C   0  0  0  0  0  0  0  0  0  0  0  0
    7.4046   -0.2901   22.3168 N   0  0  0  0  0  0  0  0  0  0  0  0
    7.3927   -0.6699   20.9830 C   0  0  0  0  0  0  0  0  0  0  0  0
    6.6385    0.0465   19.9414 C   0  0  0  0  0  0  0  0  0  0  0  0
    7.1661    0.0495   18.6444 C   0  0  0  0  0  0  0  0  0  0  0  0
    8.1069   -0.4556   18.4245 H   0  0  0  0  0  0  0  0  0  0  0  0
    6.5778    0.6621   17.6128 N   0  0  0  0  0  0  0  0  0  0  0  0
    5.4112    1.2859   17.8460 C   0  0  0  0  0  0  0  0  0  0  0  0
    4.9615    1.7841   16.9906 H   0  0  0  0  0  0  0  0  0  0  0  0
    4.7875    1.3119   19.0981 C   0  0  0  0  0  0  0  0  0  0  0  0
    3.8537    1.8470   19.2230 H   0  0  0  0  0  0  0  0  0  0  0  0
    5.4039    0.6722   20.1674 C   0  0  0  0  0  0  0  0  0  0  0  0
    4.9588    0.6759   21.1640 H   0  0  0  0  0  0  0  0  0  0  0  0
    8.0146   -1.7535   20.7115 N   0  0  0  0  0  0  0  0  0  0  0  0
    8.5217   -2.3118   21.9608 C   0  0  0  0  0  0  0  0  0  0  0  0
    9.6169   -2.3866   21.9108 H   0  0  0  0  0  0  0  0  0  0  0  0
    8.1295   -3.3291   22.1018 H   0  0  0  0  0  0  0  0  0  0  0  0
    8.0538   -1.3553   23.0832 C   0  0  0  0  0  0  0  0  0  0  0  0
    8.8833   -0.9575   23.6830 H   0  0  0  0  0  0  0  0  0  0  0  0
    7.3387   -1.8273   23.7717 H   0  0  0  0  0  0  0  0  0  0  0  0
    7.5626    2.1406   22.1486 C   0  0  0  0  0  0  0  0  0  0  0  0
    8.0058    2.0795   21.1616 H   0  0  0  0  0  0  0  0  0  0  0  0
    7.3524    3.4039   22.6868 C   0  0  0  0  0  0  0  0  0  0  0  0
    7.7666    4.4598   21.9393 O   0  0  0  0  0  0  0  0  0  0  0  0
    7.5261    5.2676   22.4154 H   0  0  0  0  0  0  0  0  0  0  0  0
  1  2  1  0
  2  3  1  0
  3  4  2  0
  4  5  1  0
  4  6  1  0
  6  7  1  0
  6  8  2  0
  8  9  1  0
  9 10  1  0
 10 11  1  0
 11 12  2  0
 12 13  1  0
 12 14  1  0
 14 15  2  0
 15 16  1  0
 15 17  1  0
 17 18  1  0
 17 19  2  0
 19 20  1  0
 10 21  2  0
 21 22  1  0
 22 23  1  0
 22 24  1  0
 22 25  1  0
 25 26  1  0
 25 27  1  0
  8 28  1  0
 28 29  1  0
 28 30  2  0
 30 31  1  0
 31 32  1  0
 30  3  1  0
 25  9  1  0
 19 11  1  0
M  END
>  <cnnaffinity>  (1) 
-4.93332

>  <filename>  (1) 
Oc1ccc(N2CCN=C2c2cccnc2)cc1O

$$$$
