
     RDKit          3D

 35 38  0  0  0  0  0  0  0  0999 V2000
    5.1675   -1.4748   23.8075 H   0  0  0  0  0  0  0  0  0  0  0  0
    5.6997   -1.5941   24.6119 O   0  0  0  0  0  0  0  0  0  0  0  0
    5.9795   -0.3528   25.1167 C   0  0  0  0  0  0  0  0  0  0  0  0
    5.8004   -0.1887   26.4895 C   0  0  0  0  0  0  0  0  0  0  0  0
    5.3246   -0.9845   27.0521 H   0  0  0  0  0  0  0  0  0  0  0  0
    6.2299    0.9854   27.1050 C   0  0  0  0  0  0  0  0  0  0  0  0
    5.9437    1.2053   28.7992 Cl  0  0  0  0  0  0  0  0  0  0  0  0
    6.8542    1.9988   26.3811 C   0  0  0  0  0  0  0  0  0  0  0  0
    7.1682    2.9061   26.8837 H   0  0  0  0  0  0  0  0  0  0  0  0
    6.9838    1.8505   24.9983 C   0  0  0  0  0  0  0  0  0  0  0  0
    7.4465    2.6240   24.3997 H   0  0  0  0  0  0  0  0  0  0  0  0
    6.5363    0.6996   24.3574 C   0  0  0  0  0  0  0  0  0  0  0  0
    6.6345    0.6866   22.9632 O   0  0  0  0  0  0  0  0  0  0  0  0
    7.3719   -0.2526   22.3393 C   0  0  0  0  0  0  0  0  0  0  0  0
    7.3466   -0.6002   20.9998 C   0  0  0  0  0  0  0  0  0  0  0  0
    6.5905    0.0241   19.9143 C   0  0  0  0  0  0  0  0  0  0  0  0
    7.1116   -0.0051   18.6053 C   0  0  0  0  0  0  0  0  0  0  0  0
    8.0403   -0.5346   18.4073 H   0  0  0  0  0  0  0  0  0  0  0  0
    6.5466    0.6133   17.5636 N   0  0  0  0  0  0  0  0  0  0  0  0
    5.4045    1.2795   17.7902 C   0  0  0  0  0  0  0  0  0  0  0  0
    4.9744    1.7964   16.9332 H   0  0  0  0  0  0  0  0  0  0  0  0
    4.7786    1.3361   19.0402 C   0  0  0  0  0  0  0  0  0  0  0  0
    3.8508    1.8861   19.1448 H   0  0  0  0  0  0  0  0  0  0  0  0
    5.3835    0.7134   20.1310 C   0  0  0  0  0  0  0  0  0  0  0  0
    4.9504    0.7737   21.1313 H   0  0  0  0  0  0  0  0  0  0  0  0
    8.2540   -1.6235   20.7681 N   0  0  0  0  0  0  0  0  0  0  0  0
    8.7667   -1.8599   21.9332 C   0  0  0  0  0  0  0  0  0  0  0  0
    8.3298   -1.0275   22.9298 N   0  0  0  0  0  0  0  0  0  0  0  0
    8.8823   -1.2451   24.2685 C   0  0  0  0  0  0  0  0  0  0  0  0
    8.1814   -1.8396   24.8648 H   0  0  0  0  0  0  0  0  0  0  0  0
    9.0658   -0.2967   24.7771 H   0  0  0  0  0  0  0  0  0  0  0  0
   10.1943   -1.9951   24.0180 C   0  0  0  0  0  0  0  0  0  0  0  0
   11.0040   -1.2871   23.8231 H   0  0  0  0  0  0  0  0  0  0  0  0
   10.4639   -2.6427   24.8530 H   0  0  0  0  0  0  0  0  0  0  0  0
    9.9311   -3.0127   22.5346 S   0  0  0  0  0  0  0  0  0  0  0  0
  1  2  1  0
  2  3  1  0
  3  4  2  0
  4  5  1  0
  4  6  1  0
  6  7  1  0
  6  8  2  0
  8  9  1  0
  8 10  1  0
 10 11  1  0
 10 12  2  0
 12 13  1  0
 13 14  1  0
 14 15  2  0
 15 16  1  0
 16 17  2  0
 17 18  1  0
 17 19  1  0
 19 20  2  0
 20 21  1  0
 20 22  1  0
 22 23  1  0
 22 24  2  0
 24 25  1  0
 15 26  1  0
 26 27  2  0
 27 28  1  0
 28 29  1  0
 29 30  1  0
 29 31  1  0
 29 32  1  0
 32 33  1  0
 32 34  1  0
 32 35  1  0
 12  3  1  0
 28 14  1  0
 24 16  1  0
 35 27  1  0
M  END
>  <cnnaffinity>  (1) 
-5.43893

>  <filename>  (1) 
Oc1cc(Cl)ccc1Oc1c(-c2cccnc2)nc2n1CCS2

$$$$
