
     RDKit          3D

 30 32  0  0  0  0  0  0  0  0999 V2000
    7.6647   -3.0118   26.0376 H   0  0  0  0  0  0  0  0  0  0  0  0
    7.4091   -2.4819   26.8039 O   0  0  0  0  0  0  0  0  0  0  0  0
    7.5259   -1.1697   26.4789 C   0  0  0  0  0  0  0  0  0  0  0  0
    7.1887   -0.2730   27.4928 C   0  0  0  0  0  0  0  0  0  0  0  0
    6.8414   -0.6602   28.4379 H   0  0  0  0  0  0  0  0  0  0  0  0
    7.2895    1.0997   27.2832 C   0  0  0  0  0  0  0  0  0  0  0  0
    6.8641    2.1949   28.5567 Cl  0  0  0  0  0  0  0  0  0  0  0  0
    7.7330    1.6087   26.0675 C   0  0  0  0  0  0  0  0  0  0  0  0
    7.8027    2.6825   25.9240 H   0  0  0  0  0  0  0  0  0  0  0  0
    8.0718    0.7179   25.0454 C   0  0  0  0  0  0  0  0  0  0  0  0
    8.4341    1.1083   24.1010 H   0  0  0  0  0  0  0  0  0  0  0  0
    7.9514   -0.6668   25.2200 C   0  0  0  0  0  0  0  0  0  0  0  0
    8.3077   -1.5960   24.2512 O   0  0  0  0  0  0  0  0  0  0  0  0
    8.0829   -1.3505   22.9173 C   0  0  0  0  0  0  0  0  0  0  0  0
    8.7259   -2.0423   21.8667 C   0  0  0  0  0  0  0  0  0  0  0  0
    9.4717   -2.8243   21.9373 H   0  0  0  0  0  0  0  0  0  0  0  0
    8.2900   -1.6261   20.6866 N   0  0  0  0  0  0  0  0  0  0  0  0
    7.3637   -0.6865   20.9521 N   0  0  0  0  0  0  0  0  0  0  0  0
    6.6679   -0.0063   19.9169 C   0  0  0  0  0  0  0  0  0  0  0  0
    7.1868    0.0454   18.6103 C   0  0  0  0  0  0  0  0  0  0  0  0
    8.1309   -0.4361   18.3752 H   0  0  0  0  0  0  0  0  0  0  0  0
    6.5742    0.6692   17.5989 N   0  0  0  0  0  0  0  0  0  0  0  0
    5.4067    1.2873   17.8464 C   0  0  0  0  0  0  0  0  0  0  0  0
    4.9241    1.7768   17.0012 H   0  0  0  0  0  0  0  0  0  0  0  0
    4.8156    1.3018   19.1126 C   0  0  0  0  0  0  0  0  0  0  0  0
    3.8840    1.8352   19.2656 H   0  0  0  0  0  0  0  0  0  0  0  0
    5.4482    0.6438   20.1695 C   0  0  0  0  0  0  0  0  0  0  0  0
    4.9952    0.6285   21.1615 H   0  0  0  0  0  0  0  0  0  0  0  0
    7.2139   -0.4945   22.2931 C   0  0  0  0  0  0  0  0  0  0  0  0
    6.5339    0.2312   22.7100 H   0  0  0  0  0  0  0  0  0  0  0  0
  1  2  1  0
  2  3  1  0
  3  4  2  0
  4  5  1  0
  4  6  1  0
  6  7  1  0
  6  8  2  0
  8  9  1  0
  8 10  1  0
 10 11  1  0
 10 12  2  0
 12 13  1  0
 13 14  1  0
 14 15  1  0
 15 16  1  0
 15 17  2  0
 17 18  1  0
 18 19  1  0
 19 20  2  0
 20 21  1  0
 20 22  1  0
 22 23  2  0
 23 24  1  0
 23 25  1  0
 25 26  1  0
 25 27  2  0
 27 28  1  0
 18 29  1  0
 29 30  1  0
 12  3  1  0
 29 14  2  0
 27 19  1  0
M  END
>  <cnnaffinity>  (1) 
-5.47081

>  <filename>  (1) 
Oc1cc(Cl)ccc1Oc1cnn(-c2cccnc2)c1

$$$$
