
     RDKit          3D

 41 44  0  0  0  0  0  0  0  0999 V2000
    8.9458   -5.0815   28.0285 O   0  0  0  0  0  0  0  0  0  0  0  0
    8.1548   -4.2214   27.3875 C   0  0  0  0  0  0  0  0  0  0  0  0
    6.7734   -4.1629   27.7297 C   0  0  0  0  0  0  0  0  0  0  0  0
    6.0064   -3.2541   27.0482 C   0  0  0  0  0  0  0  0  0  0  0  0
    6.6308   -2.4633   26.0381 C   0  0  0  0  0  0  0  0  0  0  0  0
    5.9313   -1.5401   25.2187 C   0  0  0  0  0  0  0  0  0  0  0  0
    6.6296   -0.8634   24.2563 C   0  0  0  0  0  0  0  0  0  0  0  0
    8.0397   -1.0875   24.1263 C   0  0  0  0  0  0  0  0  0  0  0  0
    8.7309   -0.4231   23.1590 N   0  0  0  0  0  0  0  0  0  0  0  0
   10.1721   -0.2148   23.2499 C   0  0  0  0  0  0  0  0  0  0  0  0
   10.4362    0.9544   22.2915 C   0  0  0  0  0  0  0  0  0  0  0  0
    9.2648    0.9413   21.3062 C   0  0  0  0  0  0  0  0  0  0  0  0
    8.0976    0.2344   22.0109 C   0  0  0  0  0  0  0  0  0  0  0  0
    7.3576   -0.7361   21.0403 C   0  0  0  0  0  0  0  0  0  0  0  0
    6.6399   -0.0289   19.8951 C   0  0  0  0  0  0  0  0  0  0  0  0
    5.4254    0.6398   20.1256 C   0  0  0  0  0  0  0  0  0  0  0  0
    4.7970    1.3126   19.0761 C   0  0  0  0  0  0  0  0  0  0  0  0
    5.4020    1.3037   17.8173 C   0  0  0  0  0  0  0  0  0  0  0  0
    6.5574    0.6752   17.5617 N   0  0  0  0  0  0  0  0  0  0  0  0
    7.1518    0.0355   18.5801 C   0  0  0  0  0  0  0  0  0  0  0  0
    8.1002   -0.4460   18.3286 H   0  0  0  0  0  0  0  0  0  0  0  0
    4.9409    1.8245   16.9802 H   0  0  0  0  0  0  0  0  0  0  0  0
    3.8683    1.8527   19.2209 H   0  0  0  0  0  0  0  0  0  0  0  0
    4.9877    0.6498   21.1269 H   0  0  0  0  0  0  0  0  0  0  0  0
    6.6414   -1.3401   21.6083 H   0  0  0  0  0  0  0  0  0  0  0  0
    8.1049   -1.4463   20.6632 H   0  0  0  0  0  0  0  0  0  0  0  0
    7.3771    0.9818   22.3793 H   0  0  0  0  0  0  0  0  0  0  0  0
    8.9693    1.9418   20.9776 H   0  0  0  0  0  0  0  0  0  0  0  0
    9.5308    0.3700   20.4112 H   0  0  0  0  0  0  0  0  0  0  0  0
   10.4485    1.8966   22.8469 H   0  0  0  0  0  0  0  0  0  0  0  0
   11.4010    0.8469   21.7872 H   0  0  0  0  0  0  0  0  0  0  0  0
   10.4736    0.0216   24.2790 H   0  0  0  0  0  0  0  0  0  0  0  0
   10.7084   -1.1327   22.9698 H   0  0  0  0  0  0  0  0  0  0  0  0
    8.7272   -1.8957   24.9086 N   0  0  0  0  0  0  0  0  0  0  0  0
    8.0447   -2.6132   25.8131 C   0  0  0  0  0  0  0  0  0  0  0  0
    8.7926   -3.5003   26.5120 N   0  0  0  0  0  0  0  0  0  0  0  0
    6.1666   -0.1562   23.5818 H   0  0  0  0  0  0  0  0  0  0  0  0
    4.8577   -1.4011   25.3507 H   0  0  0  0  0  0  0  0  0  0  0  0
    4.9399   -3.1010   27.2451 H   0  0  0  0  0  0  0  0  0  0  0  0
    6.4373   -4.7957   28.5444 H   0  0  0  0  0  0  0  0  0  0  0  0
    9.7904   -4.8300   27.6109 H   0  0  0  0  0  0  0  0  0  0  0  0
  1  2  1  0
  2  3  2  0
  3  4  1  0
  4  5  2  0
  5  6  1  0
  6  7  2  0
  7  8  1  0
  8  9  1  0
  9 10  1  0
 10 11  1  0
 11 12  1  0
 12 13  1  0
 13 14  1  0
 14 15  1  0
 15 16  2  0
 16 17  1  0
 17 18  2  0
 18 19  1  0
 19 20  2  0
 20 21  1  0
 18 22  1  0
 17 23  1  0
 16 24  1  0
 14 25  1  0
 14 26  1  0
 13 27  1  0
 12 28  1  0
 12 29  1  0
 11 30  1  0
 11 31  1  0
 10 32  1  0
 10 33  1  0
  8 34  2  0
 34 35  1  0
 35 36  2  0
  7 37  1  0
  6 38  1  0
  4 39  1  0
  3 40  1  0
  1 41  1  0
 36  2  1  0
 35  5  1  0
 13  9  1  0
 20 15  1  0
M  END
>  <cnnaffinity>  (1) 
-5.36666

>  <filename>  (1) 
Oc1ccc2ccc(N3CCCC3Cc3cccnc3)nc2n1

$$$$
