
     RDKit          3D

 29 31  0  0  0  0  0  0  0  0999 V2000
   11.5040   -3.2495   22.1294 H   0  0  0  0  0  0  0  0  0  0  0  0
   11.7530   -3.2403   23.0635 O   0  0  0  0  0  0  0  0  0  0  0  0
   10.6721   -3.6353   23.7752 C   0  0  0  0  0  0  0  0  0  0  0  0
   10.8976   -4.3144   24.9672 C   0  0  0  0  0  0  0  0  0  0  0  0
   11.9026   -4.6287   25.2078 H   0  0  0  0  0  0  0  0  0  0  0  0
    9.8232   -4.6342   25.7973 C   0  0  0  0  0  0  0  0  0  0  0  0
   10.1501   -5.2328   27.3900 Cl  0  0  0  0  0  0  0  0  0  0  0  0
    8.5100   -4.4031   25.3863 C   0  0  0  0  0  0  0  0  0  0  0  0
    7.6707   -4.7251   25.9930 H   0  0  0  0  0  0  0  0  0  0  0  0
    8.2813   -3.7832   24.1536 C   0  0  0  0  0  0  0  0  0  0  0  0
    7.2762   -3.5573   23.8186 H   0  0  0  0  0  0  0  0  0  0  0  0
    9.3497   -3.3683   23.3681 C   0  0  0  0  0  0  0  0  0  0  0  0
    9.1871   -2.7787   22.1058 O   0  0  0  0  0  0  0  0  0  0  0  0
    8.2893   -1.8343   21.8426 C   0  0  0  0  0  0  0  0  0  0  0  0
    7.9972   -1.4163   20.6628 N   0  0  0  0  0  0  0  0  0  0  0  0
    7.0045   -0.4681   20.8969 C   0  0  0  0  0  0  0  0  0  0  0  0
    6.3845    0.2181   19.7669 C   0  0  0  0  0  0  0  0  0  0  0  0
    7.0154    0.1431   18.5103 C   0  0  0  0  0  0  0  0  0  0  0  0
    7.9447   -0.4158   18.4167 H   0  0  0  0  0  0  0  0  0  0  0  0
    6.5409    0.7254   17.4054 N   0  0  0  0  0  0  0  0  0  0  0  0
    5.3901    1.4081   17.5207 C   0  0  0  0  0  0  0  0  0  0  0  0
    5.0226    1.8707   16.6073 H   0  0  0  0  0  0  0  0  0  0  0  0
    4.6768    1.5335   18.7191 C   0  0  0  0  0  0  0  0  0  0  0  0
    3.7557    2.1071   18.7306 H   0  0  0  0  0  0  0  0  0  0  0  0
    5.1817    0.9355   19.8722 C   0  0  0  0  0  0  0  0  0  0  0  0
    4.6536    1.0228   20.8245 H   0  0  0  0  0  0  0  0  0  0  0  0
    6.7901   -0.3627   22.2289 C   0  0  0  0  0  0  0  0  0  0  0  0
    6.1749    0.2477   22.8696 H   0  0  0  0  0  0  0  0  0  0  0  0
    7.6250   -1.2569   22.8549 O   0  0  0  0  0  0  0  0  0  0  0  0
  1  2  1  0
  2  3  1  0
  3  4  2  0
  4  5  1  0
  4  6  1  0
  6  7  1  0
  6  8  2  0
  8  9  1  0
  8 10  1  0
 10 11  1  0
 10 12  2  0
 12 13  1  0
 13 14  1  0
 14 15  2  0
 15 16  1  0
 16 17  1  0
 17 18  2  0
 18 19  1  0
 18 20  1  0
 20 21  2  0
 21 22  1  0
 21 23  1  0
 23 24  1  0
 23 25  2  0
 25 26  1  0
 16 27  2  0
 27 28  1  0
 27 29  1  0
 12  3  1  0
 29 14  1  0
 25 17  1  0
M  END
>  <cnnaffinity>  (1) 
-5.40218

>  <filename>  (1) 
Oc1cc(Cl)ccc1Oc1nc(-c2cccnc2)co1

$$$$
