
     RDKit          3D

 33 36  0  0  0  0  0  0  0  0999 V2000
    4.8416    0.0321   27.7851 H   0  0  0  0  0  0  0  0  0  0  0  0
    5.0290   -0.2949   26.8992 O   0  0  0  0  0  0  0  0  0  0  0  0
    6.3720   -0.4568   26.8054 C   0  0  0  0  0  0  0  0  0  0  0  0
    7.2327   -0.0983   27.8493 C   0  0  0  0  0  0  0  0  0  0  0  0
    6.8330    0.3192   28.7714 H   0  0  0  0  0  0  0  0  0  0  0  0
    8.6124   -0.2194   27.6625 C   0  0  0  0  0  0  0  0  0  0  0  0
    9.2825    0.0289   28.4826 H   0  0  0  0  0  0  0  0  0  0  0  0
    9.1300   -0.6477   26.4393 C   0  0  0  0  0  0  0  0  0  0  0  0
   10.2028   -0.6662   26.2930 H   0  0  0  0  0  0  0  0  0  0  0  0
    8.2553   -1.0059   25.3971 C   0  0  0  0  0  0  0  0  0  0  0  0
    8.7483   -1.3800   24.1197 N   0  0  0  0  0  0  0  0  0  0  0  0
    9.9157   -2.0844   23.8277 C   0  0  0  0  0  0  0  0  0  0  0  0
   10.5319   -2.4558   24.6294 H   0  0  0  0  0  0  0  0  0  0  0  0
   10.0470   -2.2092   22.4837 C   0  0  0  0  0  0  0  0  0  0  0  0
   10.7861   -2.6794   21.8638 H   0  0  0  0  0  0  0  0  0  0  0  0
    8.9367   -1.5815   21.9366 N   0  0  0  0  0  0  0  0  0  0  0  0
    8.5023   -1.3246   20.6854 N   0  0  0  0  0  0  0  0  0  0  0  0
    7.3637   -0.6455   20.8996 C   0  0  0  0  0  0  0  0  0  0  0  0
    6.6028   -0.0398   19.7887 C   0  0  0  0  0  0  0  0  0  0  0  0
    7.1326   -0.0065   18.4843 C   0  0  0  0  0  0  0  0  0  0  0  0
    8.0627   -0.5231   18.2578 H   0  0  0  0  0  0  0  0  0  0  0  0
    6.5615    0.6467   17.4657 N   0  0  0  0  0  0  0  0  0  0  0  0
    5.4188    1.3057   17.7101 C   0  0  0  0  0  0  0  0  0  0  0  0
    4.9908    1.8643   16.8790 H   0  0  0  0  0  0  0  0  0  0  0  0
    4.7867    1.3060   18.9586 C   0  0  0  0  0  0  0  0  0  0  0  0
    3.8696    1.8646   19.1037 H   0  0  0  0  0  0  0  0  0  0  0  0
    5.3821    0.6190   20.0115 C   0  0  0  0  0  0  0  0  0  0  0  0
    4.9123    0.6094   20.9972 H   0  0  0  0  0  0  0  0  0  0  0  0
    7.0640   -0.4920   22.2738 C   0  0  0  0  0  0  0  0  0  0  0  0
    6.1842   -0.0417   22.6943 H   0  0  0  0  0  0  0  0  0  0  0  0
    8.1420   -1.0909   22.9057 C   0  0  0  0  0  0  0  0  0  0  0  0
    6.8718   -0.9506   25.6020 C   0  0  0  0  0  0  0  0  0  0  0  0
    6.1977   -1.2401   24.8020 H   0  0  0  0  0  0  0  0  0  0  0  0
  1  2  1  0
  2  3  1  0
  3  4  2  0
  4  5  1  0
  4  6  1  0
  6  7  1  0
  6  8  2  0
  8  9  1  0
  8 10  1  0
 10 11  1  0
 11 12  1  0
 12 13  1  0
 12 14  2  0
 14 15  1  0
 14 16  1  0
 16 17  1  0
 17 18  2  0
 18 19  1  0
 19 20  2  0
 20 21  1  0
 20 22  1  0
 22 23  2  0
 23 24  1  0
 23 25  1  0
 25 26  1  0
 25 27  2  0
 27 28  1  0
 18 29  1  0
 29 30  1  0
 29 31  2  0
 10 32  2  0
 32 33  1  0
 32  3  1  0
 31 11  1  0
 31 16  1  0
 27 19  1  0
M  END
>  <cnnaffinity>  (1) 
-5.28451

>  <filename>  (1) 
Oc1cccc(-n2ccn3nc(-c4cccnc4)cc23)c1

$$$$
