
     RDKit          3D

 32 35  0  0  0  0  0  0  0  0999 V2000
    5.3090    1.1367   27.2211 H   0  0  0  0  0  0  0  0  0  0  0  0
    4.7570    1.9308   27.2454 O   0  0  0  0  0  0  0  0  0  0  0  0
    5.0484    2.6866   26.1618 C   0  0  0  0  0  0  0  0  0  0  0  0
    4.3566    3.8863   26.0686 C   0  0  0  0  0  0  0  0  0  0  0  0
    3.6408    4.1061   26.8520 H   0  0  0  0  0  0  0  0  0  0  0  0
    4.6117    4.7465   25.0034 C   0  0  0  0  0  0  0  0  0  0  0  0
    3.7145    6.2251   24.8901 Cl  0  0  0  0  0  0  0  0  0  0  0  0
    5.5633    4.4260   24.0359 C   0  0  0  0  0  0  0  0  0  0  0  0
    5.7296    5.1100   23.2147 H   0  0  0  0  0  0  0  0  0  0  0  0
    6.2614    3.2164   24.1147 C   0  0  0  0  0  0  0  0  0  0  0  0
    7.0017    2.9455   23.3663 H   0  0  0  0  0  0  0  0  0  0  0  0
    5.9824    2.3356   25.1598 C   0  0  0  0  0  0  0  0  0  0  0  0
    6.6493    1.1144   25.3381 O   0  0  0  0  0  0  0  0  0  0  0  0
    7.0640    0.3873   24.2962 C   0  0  0  0  0  0  0  0  0  0  0  0
    6.6914    0.5530   23.0677 N   0  0  0  0  0  0  0  0  0  0  0  0
    7.3074   -0.4135   22.3318 N   0  0  0  0  0  0  0  0  0  0  0  0
    7.4199   -0.6689   20.9751 C   0  0  0  0  0  0  0  0  0  0  0  0
    6.6653    0.0275   19.9136 C   0  0  0  0  0  0  0  0  0  0  0  0
    7.1538    0.0756   18.5867 C   0  0  0  0  0  0  0  0  0  0  0  0
    8.1037   -0.3938   18.3381 H   0  0  0  0  0  0  0  0  0  0  0  0
    6.5410    0.6829   17.5667 N   0  0  0  0  0  0  0  0  0  0  0  0
    5.3785    1.3025   17.8233 C   0  0  0  0  0  0  0  0  0  0  0  0
    4.9132    1.8098   16.9775 H   0  0  0  0  0  0  0  0  0  0  0  0
    4.7897    1.3147   19.0929 C   0  0  0  0  0  0  0  0  0  0  0  0
    3.8555    1.8487   19.2331 H   0  0  0  0  0  0  0  0  0  0  0  0
    5.4361    0.6708   20.1521 C   0  0  0  0  0  0  0  0  0  0  0  0
    5.0222    0.6672   21.1600 H   0  0  0  0  0  0  0  0  0  0  0  0
    8.3462   -1.6867   20.9329 C   0  0  0  0  0  0  0  0  0  0  0  0
    8.7564   -2.1170   20.0377 H   0  0  0  0  0  0  0  0  0  0  0  0
    8.7873   -2.0815   22.1685 N   0  0  0  0  0  0  0  0  0  0  0  0
    8.1500   -1.2707   22.9737 C   0  0  0  0  0  0  0  0  0  0  0  0
    8.1799   -0.8960   24.6701 S   0  0  0  0  0  0  0  0  0  0  0  0
  1  2  1  0
  2  3  1  0
  3  4  2  0
  4  5  1  0
  4  6  1  0
  6  7  1  0
  6  8  2  0
  8  9  1  0
  8 10  1  0
 10 11  1  0
 10 12  2  0
 12 13  1  0
 13 14  1  0
 14 15  2  0
 15 16  1  0
 16 17  1  0
 17 18  1  0
 18 19  2  0
 19 20  1  0
 19 21  1  0
 21 22  2  0
 22 23  1  0
 22 24  1  0
 24 25  1  0
 24 26  2  0
 26 27  1  0
 17 28  2  0
 28 29  1  0
 28 30  1  0
 30 31  2  0
 31 32  1  0
 12  3  1  0
 32 14  1  0
 31 16  1  0
 26 18  1  0
M  END
>  <cnnaffinity>  (1) 
-5.33522

>  <filename>  (1) 
Oc1cc(Cl)ccc1Oc1nn2c(-c3cccnc3)cnc2s1

$$$$
