
     RDKit          3D

 32 35  0  0  0  0  0  0  0  0999 V2000
    5.0554   -3.3097   28.7769 H   0  0  0  0  0  0  0  0  0  0  0  0
    5.6890   -3.5665   28.0998 O   0  0  0  0  0  0  0  0  0  0  0  0
    5.8257   -2.5420   27.2211 C   0  0  0  0  0  0  0  0  0  0  0  0
    5.1003   -1.3457   27.3125 C   0  0  0  0  0  0  0  0  0  0  0  0
    4.3844   -1.1871   28.1196 H   0  0  0  0  0  0  0  0  0  0  0  0
    5.3219   -0.3618   26.3368 C   0  0  0  0  0  0  0  0  0  0  0  0
    4.6696    0.8272   26.3250 O   0  0  0  0  0  0  0  0  0  0  0  0
    4.0727    0.8609   27.0777 H   0  0  0  0  0  0  0  0  0  0  0  0
    6.2355   -0.5532   25.2998 C   0  0  0  0  0  0  0  0  0  0  0  0
    6.3719    0.2233   24.5583 H   0  0  0  0  0  0  0  0  0  0  0  0
    6.9472   -1.7585   25.2157 C   0  0  0  0  0  0  0  0  0  0  0  0
    7.9398   -2.0144   24.1355 C   0  0  0  0  0  0  0  0  0  0  0  0
    9.0660   -2.7584   24.2138 C   0  0  0  0  0  0  0  0  0  0  0  0
    9.4611   -3.2838   25.0699 H   0  0  0  0  0  0  0  0  0  0  0  0
    9.9863   -2.8097   22.7357 S   0  0  0  0  0  0  0  0  0  0  0  0
    8.7968   -1.8164   21.9568 C   0  0  0  0  0  0  0  0  0  0  0  0
    8.5491   -1.3290   20.7617 N   0  0  0  0  0  0  0  0  0  0  0  0
    7.3656   -0.6899   20.9699 C   0  0  0  0  0  0  0  0  0  0  0  0
    6.6447    0.0164   19.9138 C   0  0  0  0  0  0  0  0  0  0  0  0
    7.1788    0.0528   18.6176 C   0  0  0  0  0  0  0  0  0  0  0  0
    8.1261   -0.4328   18.3864 H   0  0  0  0  0  0  0  0  0  0  0  0
    6.5737    0.6669   17.5959 N   0  0  0  0  0  0  0  0  0  0  0  0
    5.4088    1.2853   17.8467 C   0  0  0  0  0  0  0  0  0  0  0  0
    4.9298    1.7729   17.0024 H   0  0  0  0  0  0  0  0  0  0  0  0
    4.8044    1.3101   19.1086 C   0  0  0  0  0  0  0  0  0  0  0  0
    3.8738    1.8433   19.2562 H   0  0  0  0  0  0  0  0  0  0  0  0
    5.4239    0.6594   20.1687 C   0  0  0  0  0  0  0  0  0  0  0  0
    4.9979    0.6359   21.1769 H   0  0  0  0  0  0  0  0  0  0  0  0
    6.8846   -0.7537   22.2077 N   0  0  0  0  0  0  0  0  0  0  0  0
    7.8289   -1.4862   22.8405 N   0  0  0  0  0  0  0  0  0  0  0  0
    6.7420   -2.7465   26.1907 C   0  0  0  0  0  0  0  0  0  0  0  0
    7.2695   -3.6930   26.1634 H   0  0  0  0  0  0  0  0  0  0  0  0
  1  2  1  0
  2  3  1  0
  3  4  2  0
  4  5  1  0
  4  6  1  0
  6  7  1  0
  7  8  1  0
  6  9  2  0
  9 10  1  0
  9 11  1  0
 11 12  1  0
 12 13  2  0
 13 14  1  0
 13 15  1  0
 15 16  1  0
 16 17  2  0
 17 18  1  0
 18 19  1  0
 19 20  2  0
 20 21  1  0
 20 22  1  0
 22 23  2  0
 23 24  1  0
 23 25  1  0
 25 26  1  0
 25 27  2  0
 27 28  1  0
 18 29  2  0
 29 30  1  0
 11 31  2  0
 31 32  1  0
 31  3  1  0
 30 12  1  0
 30 16  1  0
 27 19  1  0
M  END
>  <cnnaffinity>  (1) 
-5.52469

>  <filename>  (1) 
Oc1cc(O)cc(-c2csc3nc(-c4cccnc4)nn23)c1

$$$$
