
     RDKit          3D

 29 31  0  0  0  0  0  0  0  0999 V2000
    6.3532    5.2664   24.2189 H   0  0  0  0  0  0  0  0  0  0  0  0
    6.1326    4.5263   24.7932 O   0  0  0  0  0  0  0  0  0  0  0  0
    6.4723    3.3730   24.1430 C   0  0  0  0  0  0  0  0  0  0  0  0
    7.0557    3.3531   22.8718 C   0  0  0  0  0  0  0  0  0  0  0  0
    7.2484    4.2899   22.3519 H   0  0  0  0  0  0  0  0  0  0  0  0
    7.4056    2.1469   22.2412 C   0  0  0  0  0  0  0  0  0  0  0  0
    7.8440    2.1433   21.2439 H   0  0  0  0  0  0  0  0  0  0  0  0
    7.1498    0.9302   22.8810 C   0  0  0  0  0  0  0  0  0  0  0  0
    7.4922   -0.3215   22.2548 N   0  0  0  0  0  0  0  0  0  0  0  0
    8.1685   -1.3760   22.8244 C   0  0  0  0  0  0  0  0  0  0  0  0
    8.4576   -1.3972   23.8651 H   0  0  0  0  0  0  0  0  0  0  0  0
    8.4366   -2.3032   21.9496 N   0  0  0  0  0  0  0  0  0  0  0  0
    7.9410   -1.8752   20.7447 N   0  0  0  0  0  0  0  0  0  0  0  0
    7.3721   -0.7145   20.9329 C   0  0  0  0  0  0  0  0  0  0  0  0
    6.6473    0.0238   19.8982 C   0  0  0  0  0  0  0  0  0  0  0  0
    7.1688    0.0582   18.5958 C   0  0  0  0  0  0  0  0  0  0  0  0
    8.1139   -0.4363   18.3787 H   0  0  0  0  0  0  0  0  0  0  0  0
    6.5687    0.6791   17.5782 N   0  0  0  0  0  0  0  0  0  0  0  0
    5.4037    1.2944   17.8380 C   0  0  0  0  0  0  0  0  0  0  0  0
    4.9212    1.7814   16.9954 H   0  0  0  0  0  0  0  0  0  0  0  0
    4.7963    1.3120   19.1002 C   0  0  0  0  0  0  0  0  0  0  0  0
    3.8665    1.8466   19.2540 H   0  0  0  0  0  0  0  0  0  0  0  0
    5.4212    0.6547   20.1534 C   0  0  0  0  0  0  0  0  0  0  0  0
    5.0036    0.6417   21.1649 H   0  0  0  0  0  0  0  0  0  0  0  0
    6.5645    0.9323   24.1599 C   0  0  0  0  0  0  0  0  0  0  0  0
    6.3833   -0.0215   24.6491 H   0  0  0  0  0  0  0  0  0  0  0  0
    6.2268    2.1317   24.7994 C   0  0  0  0  0  0  0  0  0  0  0  0
    5.6702    2.1751   26.0445 O   0  0  0  0  0  0  0  0  0  0  0  0
    5.5706    1.2750   26.3688 H   0  0  0  0  0  0  0  0  0  0  0  0
  1  2  1  0
  2  3  1  0
  3  4  2  0
  4  5  1  0
  4  6  1  0
  6  7  1  0
  6  8  2  0
  8  9  1  0
  9 10  1  0
 10 11  1  0
 10 12  2  0
 12 13  1  0
 13 14  2  0
 14 15  1  0
 15 16  2  0
 16 17  1  0
 16 18  1  0
 18 19  2  0
 19 20  1  0
 19 21  1  0
 21 22  1  0
 21 23  2  0
 23 24  1  0
  8 25  1  0
 25 26  1  0
 25 27  2  0
 27 28  1  0
 28 29  1  0
 27  3  1  0
 14  9  1  0
 23 15  1  0
M  END
>  <cnnaffinity>  (1) 
-5.04079

>  <filename>  (1) 
Oc1ccc(-n2cnnc2-c2cccnc2)cc1O

$$$$
