
     RDKit          3D

 32 34  0  0  0  0  0  0  0  0999 V2000
    6.1424   -6.2056   22.6076 H   0  0  0  0  0  0  0  0  0  0  0  0
    6.4004   -5.4537   22.0666 O   0  0  0  0  0  0  0  0  0  0  0  0
    7.4118   -4.7921   22.6722 C   0  0  0  0  0  0  0  0  0  0  0  0
    7.9640   -5.1858   23.8877 C   0  0  0  0  0  0  0  0  0  0  0  0
    7.6200   -6.0496   24.4395 H   0  0  0  0  0  0  0  0  0  0  0  0
    9.0123   -4.4372   24.4301 C   0  0  0  0  0  0  0  0  0  0  0  0
    9.5145   -4.8719   25.6117 O   0  0  0  0  0  0  0  0  0  0  0  0
   10.2287   -4.2809   25.8729 H   0  0  0  0  0  0  0  0  0  0  0  0
    9.5073   -3.3086   23.7770 C   0  0  0  0  0  0  0  0  0  0  0  0
   10.3145   -2.7136   24.2033 H   0  0  0  0  0  0  0  0  0  0  0  0
    8.9313   -2.9226   22.5516 C   0  0  0  0  0  0  0  0  0  0  0  0
    9.4004   -1.7288   21.8435 C   0  0  0  0  0  0  0  0  0  0  0  0
    8.7054   -0.7728   21.1106 C   0  0  0  0  0  0  0  0  0  0  0  0
    7.3220   -0.7186   20.9243 N   0  0  0  0  0  0  0  0  0  0  0  0
    6.7716   -1.0694   21.6980 H   0  0  0  0  0  0  0  0  0  0  0  0
    6.6644   -0.0103   19.9095 C   0  0  0  0  0  0  0  0  0  0  0  0
    7.1711    0.0612   18.5876 C   0  0  0  0  0  0  0  0  0  0  0  0
    8.1184   -0.4287   18.3734 H   0  0  0  0  0  0  0  0  0  0  0  0
    6.5596    0.6831   17.5700 N   0  0  0  0  0  0  0  0  0  0  0  0
    5.3959    1.2980   17.8364 C   0  0  0  0  0  0  0  0  0  0  0  0
    4.9129    1.7875   16.9940 H   0  0  0  0  0  0  0  0  0  0  0  0
    4.8126    1.3054   19.1088 C   0  0  0  0  0  0  0  0  0  0  0  0
    3.8819    1.8373   19.2636 H   0  0  0  0  0  0  0  0  0  0  0  0
    5.4430    0.6328   20.1636 C   0  0  0  0  0  0  0  0  0  0  0  0
    5.0194    0.6208   21.1693 H   0  0  0  0  0  0  0  0  0  0  0  0
    9.6941    0.1381   20.6770 C   0  0  0  0  0  0  0  0  0  0  0  0
    9.5360    1.0174   20.0740 H   0  0  0  0  0  0  0  0  0  0  0  0
   10.9010   -0.1948   21.1112 N   0  0  0  0  0  0  0  0  0  0  0  0
   10.6975   -1.3123   21.8171 N   0  0  0  0  0  0  0  0  0  0  0  0
   11.5013   -1.7553   22.2326 H   0  0  0  0  0  0  0  0  0  0  0  0
    7.8860   -3.6662   22.0005 C   0  0  0  0  0  0  0  0  0  0  0  0
    7.4370   -3.3962   21.0534 H   0  0  0  0  0  0  0  0  0  0  0  0
  1  2  1  0
  2  3  1  0
  3  4  2  0
  4  5  1  0
  4  6  1  0
  6  7  1  0
  7  8  1  0
  6  9  2  0
  9 10  1  0
  9 11  1  0
 11 12  1  0
 12 13  2  0
 13 14  1  0
 14 15  1  0
 14 16  1  0
 16 17  2  0
 17 18  1  0
 17 19  1  0
 19 20  2  0
 20 21  1  0
 20 22  1  0
 22 23  1  0
 22 24  2  0
 24 25  1  0
 13 26  1  0
 26 27  1  0
 26 28  2  0
 28 29  1  0
 29 30  1  0
 11 31  2  0
 31 32  1  0
 31  3  1  0
 29 12  1  0
 24 16  1  0
M  END
>  <cnnaffinity>  (1) 
-5.54507

>  <filename>  (1) 
Oc1cc(O)cc(-c2[nH]ncc2Nc2cccnc2)c1

$$$$
