
     RDKit          3D

 36 39  0  0  0  0  0  0  0  0999 V2000
    6.3262    5.2025   24.3598 H   0  0  0  0  0  0  0  0  0  0  0  0
    6.1562    4.4659   24.9578 O   0  0  0  0  0  0  0  0  0  0  0  0
    6.4813    3.3368   24.2822 C   0  0  0  0  0  0  0  0  0  0  0  0
    6.2970    2.1216   24.9458 C   0  0  0  0  0  0  0  0  0  0  0  0
    5.9113    2.1614   25.9595 H   0  0  0  0  0  0  0  0  0  0  0  0
    6.6147    0.9390   24.2897 C   0  0  0  0  0  0  0  0  0  0  0  0
    6.4834   -0.0240   24.7881 H   0  0  0  0  0  0  0  0  0  0  0  0
    7.0926    0.9712   22.9676 C   0  0  0  0  0  0  0  0  0  0  0  0
    7.4572   -0.2750   22.3209 C   0  0  0  0  0  0  0  0  0  0  0  0
    7.3565   -0.6883   20.9532 C   0  0  0  0  0  0  0  0  0  0  0  0
    6.6245   -0.0288   19.8715 C   0  0  0  0  0  0  0  0  0  0  0  0
    7.1535    0.0203   18.5705 C   0  0  0  0  0  0  0  0  0  0  0  0
    8.1075   -0.4537   18.3360 H   0  0  0  0  0  0  0  0  0  0  0  0
    6.5632    0.6675   17.5619 N   0  0  0  0  0  0  0  0  0  0  0  0
    5.4028    1.2935   17.8169 C   0  0  0  0  0  0  0  0  0  0  0  0
    4.9438    1.8170   16.9794 H   0  0  0  0  0  0  0  0  0  0  0  0
    4.7887    1.2992   19.0722 C   0  0  0  0  0  0  0  0  0  0  0  0
    3.8651    1.8452   19.2274 H   0  0  0  0  0  0  0  0  0  0  0  0
    5.4108    0.6278   20.1185 C   0  0  0  0  0  0  0  0  0  0  0  0
    4.9979    0.6492   21.1278 H   0  0  0  0  0  0  0  0  0  0  0  0
    8.0701   -1.7898   20.7360 N   0  0  0  0  0  0  0  0  0  0  0  0
    8.5487   -2.0951   21.9404 N   0  0  0  0  0  0  0  0  0  0  0  0
    8.2304   -1.2524   22.9187 C   0  0  0  0  0  0  0  0  0  0  0  0
    9.0714   -1.5002   24.1443 C   0  0  0  0  0  0  0  0  0  0  0  0
    9.6728   -0.6065   24.3503 H   0  0  0  0  0  0  0  0  0  0  0  0
    8.4640   -1.7020   25.0332 H   0  0  0  0  0  0  0  0  0  0  0  0
    9.9412   -2.7203   23.7236 C   0  0  0  0  0  0  0  0  0  0  0  0
   11.0016   -2.4922   23.7818 H   0  0  0  0  0  0  0  0  0  0  0  0
    9.7555   -3.5898   24.3522 H   0  0  0  0  0  0  0  0  0  0  0  0
    9.5687   -3.0555   22.2539 C   0  0  0  0  0  0  0  0  0  0  0  0
    9.1619   -4.0637   22.1431 H   0  0  0  0  0  0  0  0  0  0  0  0
   10.4061   -2.8963   21.5703 H   0  0  0  0  0  0  0  0  0  0  0  0
    7.2841    2.2050   22.3208 C   0  0  0  0  0  0  0  0  0  0  0  0
    7.6802    2.2247   21.3062 H   0  0  0  0  0  0  0  0  0  0  0  0
    6.9773    3.3891   22.9773 C   0  0  0  0  0  0  0  0  0  0  0  0
    7.1149    4.3501   22.4870 H   0  0  0  0  0  0  0  0  0  0  0  0
  1  2  1  0
  2  3  1  0
  3  4  2  0
  4  5  1  0
  4  6  1  0
  6  7  1  0
  6  8  2  0
  8  9  1  0
  9 10  1  0
 10 11  1  0
 11 12  2  0
 12 13  1  0
 12 14  1  0
 14 15  2  0
 15 16  1  0
 15 17  1  0
 17 18  1  0
 17 19  2  0
 19 20  1  0
 10 21  2  0
 21 22  1  0
 22 23  1  0
 23 24  1  0
 24 25  1  0
 24 26  1  0
 24 27  1  0
 27 28  1  0
 27 29  1  0
 27 30  1  0
 30 31  1  0
 30 32  1  0
  8 33  1  0
 33 34  1  0
 33 35  2  0
 35 36  1  0
 35  3  1  0
 23  9  2  0
 19 11  1  0
 30 22  1  0
M  END
>  <cnnaffinity>  (1) 
-5.47013

>  <filename>  (1) 
Oc1ccc(-c2c(-c3cccnc3)nn3c2CCC3)cc1

$$$$
