
     RDKit          3D

 31 34  0  0  0  0  0  0  0  0999 V2000
    5.2511    3.8000   24.0699 H   0  0  0  0  0  0  0  0  0  0  0  0
    5.6916    2.9477   23.9613 O   0  0  0  0  0  0  0  0  0  0  0  0
    6.2710    2.6685   25.1503 C   0  0  0  0  0  0  0  0  0  0  0  0
    6.0468    3.5328   26.2216 C   0  0  0  0  0  0  0  0  0  0  0  0
    5.4141    4.3989   26.0266 H   0  0  0  0  0  0  0  0  0  0  0  0
    6.6087    3.2733   27.4692 C   0  0  0  0  0  0  0  0  0  0  0  0
    6.4056    3.9569   28.2900 H   0  0  0  0  0  0  0  0  0  0  0  0
    7.4187    2.1412   27.6538 C   0  0  0  0  0  0  0  0  0  0  0  0
    7.8630    1.9261   28.6206 H   0  0  0  0  0  0  0  0  0  0  0  0
    7.6541    1.2785   26.5863 C   0  0  0  0  0  0  0  0  0  0  0  0
    8.2849    0.3935   26.7057 H   0  0  0  0  0  0  0  0  0  0  0  0
    7.0796    1.5271   25.3238 C   0  0  0  0  0  0  0  0  0  0  0  0
    7.3270    0.6080   24.2172 C   0  0  0  0  0  0  0  0  0  0  0  0
    8.1101   -0.4983   24.3878 N   0  0  0  0  0  0  0  0  0  0  0  0
    8.0918   -1.0242   23.1939 C   0  0  0  0  0  0  0  0  0  0  0  0
    8.8571   -2.3330   22.3521 S   0  0  0  0  0  0  0  0  0  0  0  0
    8.2450   -1.6820   20.8609 C   0  0  0  0  0  0  0  0  0  0  0  0
    8.6185   -2.0533   19.9342 H   0  0  0  0  0  0  0  0  0  0  0  0
    7.4127   -0.6369   21.0067 C   0  0  0  0  0  0  0  0  0  0  0  0
    6.6592    0.0590   19.9453 C   0  0  0  0  0  0  0  0  0  0  0  0
    7.1628    0.0603   18.6252 C   0  0  0  0  0  0  0  0  0  0  0  0
    8.1151   -0.4143   18.3832 H   0  0  0  0  0  0  0  0  0  0  0  0
    6.5561    0.6533   17.5928 N   0  0  0  0  0  0  0  0  0  0  0  0
    5.3972    1.2812   17.8371 C   0  0  0  0  0  0  0  0  0  0  0  0
    4.9478    1.7906   16.9903 H   0  0  0  0  0  0  0  0  0  0  0  0
    4.7901    1.3195   19.0956 C   0  0  0  0  0  0  0  0  0  0  0  0
    3.8497    1.8448   19.2159 H   0  0  0  0  0  0  0  0  0  0  0  0
    5.4311    0.7101   20.1735 C   0  0  0  0  0  0  0  0  0  0  0  0
    5.0191    0.7479   21.1837 H   0  0  0  0  0  0  0  0  0  0  0  0
    7.3380   -0.2852   22.3515 N   0  0  0  0  0  0  0  0  0  0  0  0
    6.8284    0.7898   22.9910 N   0  0  0  0  0  0  0  0  0  0  0  0
  1  2  1  0
  2  3  1  0
  3  4  2  0
  4  5  1  0
  4  6  1  0
  6  7  1  0
  6  8  2  0
  8  9  1  0
  8 10  1  0
 10 11  1  0
 10 12  2  0
 12 13  1  0
 13 14  1  0
 14 15  2  0
 15 16  1  0
 16 17  1  0
 17 18  1  0
 17 19  2  0
 19 20  1  0
 20 21  2  0
 21 22  1  0
 21 23  1  0
 23 24  2  0
 24 25  1  0
 24 26  1  0
 26 27  1  0
 26 28  2  0
 28 29  1  0
 19 30  1  0
 30 31  1  0
 12  3  1  0
 31 13  2  0
 30 15  1  0
 28 20  1  0
M  END
>  <cnnaffinity>  (1) 
-5.1541

>  <filename>  (1) 
Oc1ccccc1-c1nc2scc(-c3cccnc3)n2n1

$$$$
