
     RDKit          3D

 31 33  0  0  0  0  0  0  0  0999 V2000
    8.1472   -3.2258   24.8168 H   0  0  0  0  0  0  0  0  0  0  0  0
    7.3371   -3.7507   24.8870 O   0  0  0  0  0  0  0  0  0  0  0  0
    6.8310   -3.8871   23.6406 C   0  0  0  0  0  0  0  0  0  0  0  0
    5.6821   -4.6601   23.5100 C   0  0  0  0  0  0  0  0  0  0  0  0
    5.2443   -5.0802   24.4078 H   0  0  0  0  0  0  0  0  0  0  0  0
    5.1724   -4.9198   22.2355 C   0  0  0  0  0  0  0  0  0  0  0  0
    3.8030   -5.9737   22.0832 Cl  0  0  0  0  0  0  0  0  0  0  0  0
    5.7513   -4.3569   21.0976 C   0  0  0  0  0  0  0  0  0  0  0  0
    5.3467   -4.5608   20.1126 H   0  0  0  0  0  0  0  0  0  0  0  0
    6.8687   -3.5231   21.2392 C   0  0  0  0  0  0  0  0  0  0  0  0
    7.2801   -2.9957   20.3889 H   0  0  0  0  0  0  0  0  0  0  0  0
    7.4408   -3.3312   22.4925 C   0  0  0  0  0  0  0  0  0  0  0  0
    8.6911   -2.7578   22.7170 O   0  0  0  0  0  0  0  0  0  0  0  0
    9.1405   -1.7532   21.9219 C   0  0  0  0  0  0  0  0  0  0  0  0
    8.5669   -0.7378   21.1819 C   0  0  0  0  0  0  0  0  0  0  0  0
    7.2140   -0.5319   21.0443 O   0  0  0  0  0  0  0  0  0  0  0  0
    6.6574    0.0842   19.9489 C   0  0  0  0  0  0  0  0  0  0  0  0
    7.1909    0.0458   18.6448 C   0  0  0  0  0  0  0  0  0  0  0  0
    8.1136   -0.4944   18.4425 H   0  0  0  0  0  0  0  0  0  0  0  0
    6.6108    0.6380   17.5902 N   0  0  0  0  0  0  0  0  0  0  0  0
    5.4530    1.2836   17.7927 C   0  0  0  0  0  0  0  0  0  0  0  0
    5.0099    1.7737   16.9285 H   0  0  0  0  0  0  0  0  0  0  0  0
    4.8210    1.3370   19.0414 C   0  0  0  0  0  0  0  0  0  0  0  0
    3.8790    1.8667   19.1429 H   0  0  0  0  0  0  0  0  0  0  0  0
    5.4249    0.7240   20.1413 C   0  0  0  0  0  0  0  0  0  0  0  0
    4.9656    0.7322   21.1301 H   0  0  0  0  0  0  0  0  0  0  0  0
    9.6682    0.0203   20.7156 C   0  0  0  0  0  0  0  0  0  0  0  0
    9.6506    0.9226   20.1203 H   0  0  0  0  0  0  0  0  0  0  0  0
   10.8220   -0.4996   21.1090 N   0  0  0  0  0  0  0  0  0  0  0  0
   10.4734   -1.5780   21.8450 N   0  0  0  0  0  0  0  0  0  0  0  0
   11.1824   -2.1978   22.2119 H   0  0  0  0  0  0  0  0  0  0  0  0
  1  2  1  0
  2  3  1  0
  3  4  2  0
  4  5  1  0
  4  6  1  0
  6  7  1  0
  6  8  2  0
  8  9  1  0
  8 10  1  0
 10 11  1  0
 10 12  2  0
 12 13  1  0
 13 14  1  0
 14 15  2  0
 15 16  1  0
 16 17  1  0
 17 18  2  0
 18 19  1  0
 18 20  1  0
 20 21  2  0
 21 22  1  0
 21 23  1  0
 23 24  1  0
 23 25  2  0
 25 26  1  0
 15 27  1  0
 27 28  1  0
 27 29  2  0
 29 30  1  0
 30 31  1  0
 12  3  1  0
 30 14  1  0
 25 17  1  0
M  END
>  <cnnaffinity>  (1) 
-5.1408

>  <filename>  (1) 
Oc1cc(Cl)ccc1Oc1[nH]ncc1Oc1cccnc1

$$$$
