
     RDKit          3D

 29 31  0  0  0  0  0  0  0  0999 V2000
   10.0836   -2.0930   21.7908 H   0  0  0  0  0  0  0  0  0  0  0  0
    9.1988   -2.4788   21.7798 O   0  0  0  0  0  0  0  0  0  0  0  0
    9.1191   -3.3988   22.7696 C   0  0  0  0  0  0  0  0  0  0  0  0
   10.2322   -3.7028   23.5410 C   0  0  0  0  0  0  0  0  0  0  0  0
   11.1575   -3.1593   23.3757 H   0  0  0  0  0  0  0  0  0  0  0  0
   10.1609   -4.7365   24.4698 C   0  0  0  0  0  0  0  0  0  0  0  0
   11.6062   -5.1743   25.2990 Cl  0  0  0  0  0  0  0  0  0  0  0  0
    8.9864   -5.4598   24.6710 C   0  0  0  0  0  0  0  0  0  0  0  0
    9.0047   -6.3033   25.3523 H   0  0  0  0  0  0  0  0  0  0  0  0
    7.8366   -5.0904   23.9552 C   0  0  0  0  0  0  0  0  0  0  0  0
    6.8807   -5.5823   24.1077 H   0  0  0  0  0  0  0  0  0  0  0  0
    7.8843   -4.0430   23.0466 C   0  0  0  0  0  0  0  0  0  0  0  0
    6.6762   -3.6893   22.4369 O   0  0  0  0  0  0  0  0  0  0  0  0
    6.4706   -2.3790   22.2130 C   0  0  0  0  0  0  0  0  0  0  0  0
    6.2318   -1.9272   21.0363 N   0  0  0  0  0  0  0  0  0  0  0  0
    6.2278   -0.5498   21.0666 C   0  0  0  0  0  0  0  0  0  0  0  0
    6.1133    0.1523   19.7845 C   0  0  0  0  0  0  0  0  0  0  0  0
    7.0357   -0.1968   18.7900 C   0  0  0  0  0  0  0  0  0  0  0  0
    7.7877   -0.9567   19.0051 H   0  0  0  0  0  0  0  0  0  0  0  0
    7.0681    0.3693   17.5816 N   0  0  0  0  0  0  0  0  0  0  0  0
    6.1355    1.2944   17.3101 C   0  0  0  0  0  0  0  0  0  0  0  0
    6.1747    1.7232   16.3100 H   0  0  0  0  0  0  0  0  0  0  0  0
    5.1614    1.7020   18.2267 C   0  0  0  0  0  0  0  0  0  0  0  0
    4.4374    2.4566   17.9372 H   0  0  0  0  0  0  0  0  0  0  0  0
    5.1578    1.1360   19.5028 C   0  0  0  0  0  0  0  0  0  0  0  0
    4.4367    1.4450   20.2600 H   0  0  0  0  0  0  0  0  0  0  0  0
    6.4754    0.0154   22.2690 C   0  0  0  0  0  0  0  0  0  0  0  0
    6.6424    1.0609   22.4639 H   0  0  0  0  0  0  0  0  0  0  0  0
    6.6524   -1.1925   23.4989 S   0  0  0  0  0  0  0  0  0  0  0  0
  1  2  1  0
  2  3  1  0
  3  4  2  0
  4  5  1  0
  4  6  1  0
  6  7  1  0
  6  8  2  0
  8  9  1  0
  8 10  1  0
 10 11  1  0
 10 12  2  0
 12 13  1  0
 13 14  1  0
 14 15  2  0
 15 16  1  0
 16 17  1  0
 17 18  2  0
 18 19  1  0
 18 20  1  0
 20 21  2  0
 21 22  1  0
 21 23  1  0
 23 24  1  0
 23 25  2  0
 25 26  1  0
 16 27  2  0
 27 28  1  0
 27 29  1  0
 12  3  1  0
 29 14  1  0
 25 17  1  0
M  END
>  <cnnaffinity>  (1) 
-5.43917

>  <filename>  (1) 
Oc1cc(Cl)ccc1Oc1nc(-c2cccnc2)cs1

$$$$
