
     RDKit          3D

 30 32  0  0  0  0  0  0  0  0999 V2000
    9.4751   -5.4029   22.8103 H   0  0  0  0  0  0  0  0  0  0  0  0
    8.7382   -4.7951   22.9179 O   0  0  0  0  0  0  0  0  0  0  0  0
    8.7197   -4.4145   24.2164 C   0  0  0  0  0  0  0  0  0  0  0  0
    9.5705   -4.9697   25.1789 C   0  0  0  0  0  0  0  0  0  0  0  0
   10.3199   -5.7128   24.9101 H   0  0  0  0  0  0  0  0  0  0  0  0
    9.4467   -4.5409   26.5093 C   0  0  0  0  0  0  0  0  0  0  0  0
   10.5348   -5.1657   27.7027 Cl  0  0  0  0  0  0  0  0  0  0  0  0
    8.4808   -3.6104   26.8968 C   0  0  0  0  0  0  0  0  0  0  0  0
    8.3791   -3.3182   27.9343 H   0  0  0  0  0  0  0  0  0  0  0  0
    7.6460   -3.0499   25.9198 C   0  0  0  0  0  0  0  0  0  0  0  0
    6.8684   -2.3295   26.1614 H   0  0  0  0  0  0  0  0  0  0  0  0
    7.8034   -3.4105   24.5911 C   0  0  0  0  0  0  0  0  0  0  0  0
    6.9744   -2.8178   23.6518 O   0  0  0  0  0  0  0  0  0  0  0  0
    7.4889   -2.0624   22.6568 C   0  0  0  0  0  0  0  0  0  0  0  0
    9.1654   -1.6149   22.4678 S   0  0  0  0  0  0  0  0  0  0  0  0
    8.7711   -0.6840   21.0680 C   0  0  0  0  0  0  0  0  0  0  0  0
    9.5395   -0.1426   20.5299 H   0  0  0  0  0  0  0  0  0  0  0  0
    7.4342   -0.7021   20.7881 C   0  0  0  0  0  0  0  0  0  0  0  0
    6.7425    0.0459   19.7190 C   0  0  0  0  0  0  0  0  0  0  0  0
    7.2209    0.0774   18.4002 C   0  0  0  0  0  0  0  0  0  0  0  0
    8.1313   -0.4552   18.1207 H   0  0  0  0  0  0  0  0  0  0  0  0
    6.5924    0.7053   17.3961 N   0  0  0  0  0  0  0  0  0  0  0  0
    5.4478    1.3429   17.6857 C   0  0  0  0  0  0  0  0  0  0  0  0
    4.9692    1.8488   16.8536 H   0  0  0  0  0  0  0  0  0  0  0  0
    4.8730    1.3681   18.9612 C   0  0  0  0  0  0  0  0  0  0  0  0
    3.9339    1.8878   19.1281 H   0  0  0  0  0  0  0  0  0  0  0  0
    5.5316    0.7057   19.9920 C   0  0  0  0  0  0  0  0  0  0  0  0
    5.1362    0.6979   21.0108 H   0  0  0  0  0  0  0  0  0  0  0  0
    6.7035   -1.5160   21.7007 C   0  0  0  0  0  0  0  0  0  0  0  0
    5.6364   -1.6956   21.6335 H   0  0  0  0  0  0  0  0  0  0  0  0
  1  2  1  0
  2  3  1  0
  3  4  2  0
  4  5  1  0
  4  6  1  0
  6  7  1  0
  6  8  2  0
  8  9  1  0
  8 10  1  0
 10 11  1  0
 10 12  2  0
 12 13  1  0
 13 14  1  0
 14 15  1  0
 15 16  1  0
 16 17  1  0
 16 18  2  0
 18 19  1  0
 19 20  2  0
 20 21  1  0
 20 22  1  0
 22 23  2  0
 23 24  1  0
 23 25  1  0
 25 26  1  0
 25 27  2  0
 27 28  1  0
 18 29  1  0
 29 30  1  0
 12  3  1  0
 29 14  2  0
 27 19  1  0
M  END
>  <cnnaffinity>  (1) 
-5.20942

>  <filename>  (1) 
Oc1cc(Cl)ccc1Oc1cc(-c2cccnc2)cs1

$$$$
