
     RDKit          3D

 36 39  0  0  0  0  0  0  0  0999 V2000
    5.6511    2.8952   26.5082 H   0  0  0  0  0  0  0  0  0  0  0  0
    5.8129    2.0017   26.1897 O   0  0  0  0  0  0  0  0  0  0  0  0
    6.2943    2.0965   24.9280 C   0  0  0  0  0  0  0  0  0  0  0  0
    6.4701    3.3306   24.2990 C   0  0  0  0  0  0  0  0  0  0  0  0
    6.2068    4.2369   24.8345 H   0  0  0  0  0  0  0  0  0  0  0  0
    6.9695    3.3730   22.9953 C   0  0  0  0  0  0  0  0  0  0  0  0
    7.1156    4.3240   22.4924 H   0  0  0  0  0  0  0  0  0  0  0  0
    7.2756    2.1864   22.3396 C   0  0  0  0  0  0  0  0  0  0  0  0
    7.6733    2.1960   21.3320 H   0  0  0  0  0  0  0  0  0  0  0  0
    7.0823    0.9518   22.9806 C   0  0  0  0  0  0  0  0  0  0  0  0
    7.4457   -0.2917   22.3310 C   0  0  0  0  0  0  0  0  0  0  0  0
    7.3538   -0.6892   20.9593 C   0  0  0  0  0  0  0  0  0  0  0  0
    6.6256   -0.0208   19.8799 C   0  0  0  0  0  0  0  0  0  0  0  0
    7.1549    0.0236   18.5783 C   0  0  0  0  0  0  0  0  0  0  0  0
    8.1065   -0.4540   18.3438 H   0  0  0  0  0  0  0  0  0  0  0  0
    6.5631    0.6663   17.5670 N   0  0  0  0  0  0  0  0  0  0  0  0
    5.4020    1.2927   17.8188 C   0  0  0  0  0  0  0  0  0  0  0  0
    4.9450    1.8151   16.9801 H   0  0  0  0  0  0  0  0  0  0  0  0
    4.7860    1.3008   19.0733 C   0  0  0  0  0  0  0  0  0  0  0  0
    3.8624    1.8459   19.2261 H   0  0  0  0  0  0  0  0  0  0  0  0
    5.4088    0.6331   20.1217 C   0  0  0  0  0  0  0  0  0  0  0  0
    4.9915    0.6493   21.1289 H   0  0  0  0  0  0  0  0  0  0  0  0
    8.0767   -1.7829   20.7347 N   0  0  0  0  0  0  0  0  0  0  0  0
    8.5504   -2.0971   21.9398 N   0  0  0  0  0  0  0  0  0  0  0  0
    8.2236   -1.2671   22.9248 C   0  0  0  0  0  0  0  0  0  0  0  0
    9.0696   -1.5051   24.1503 C   0  0  0  0  0  0  0  0  0  0  0  0
    8.4613   -1.7092   25.0392 H   0  0  0  0  0  0  0  0  0  0  0  0
    9.6693   -0.6076   24.3553 H   0  0  0  0  0  0  0  0  0  0  0  0
    9.9430   -2.7217   23.7244 C   0  0  0  0  0  0  0  0  0  0  0  0
    9.7554   -3.5935   24.3488 H   0  0  0  0  0  0  0  0  0  0  0  0
   11.0029   -2.4913   23.7818 H   0  0  0  0  0  0  0  0  0  0  0  0
    9.5713   -3.0559   22.2522 C   0  0  0  0  0  0  0  0  0  0  0  0
   10.4061   -2.8929   21.5670 H   0  0  0  0  0  0  0  0  0  0  0  0
    9.1616   -4.0622   22.1373 H   0  0  0  0  0  0  0  0  0  0  0  0
    6.6078    0.9077   24.2889 C   0  0  0  0  0  0  0  0  0  0  0  0
    6.4620   -0.0257   24.8289 H   0  0  0  0  0  0  0  0  0  0  0  0
  1  2  1  0
  2  3  1  0
  3  4  2  0
  4  5  1  0
  4  6  1  0
  6  7  1  0
  6  8  2  0
  8  9  1  0
  8 10  1  0
 10 11  1  0
 11 12  1  0
 12 13  1  0
 13 14  2  0
 14 15  1  0
 14 16  1  0
 16 17  2  0
 17 18  1  0
 17 19  1  0
 19 20  1  0
 19 21  2  0
 21 22  1  0
 12 23  2  0
 23 24  1  0
 24 25  1  0
 25 26  1  0
 26 27  1  0
 26 28  1  0
 26 29  1  0
 29 30  1  0
 29 31  1  0
 29 32  1  0
 32 33  1  0
 32 34  1  0
 10 35  2  0
 35 36  1  0
 35  3  1  0
 25 11  2  0
 21 13  1  0
 32 24  1  0
M  END
>  <cnnaffinity>  (1) 
-5.38492

>  <filename>  (1) 
Oc1cccc(-c2c(-c3cccnc3)nn3c2CCC3)c1

$$$$
