
     RDKit          3D

 33 35  0  0  0  0  0  0  0  0999 V2000
   13.4888   -2.8746   21.2603 H   0  0  0  0  0  0  0  0  0  0  0  0
   13.9909   -2.1948   21.7297 O   0  0  0  0  0  0  0  0  0  0  0  0
   13.2066   -1.0862   21.7819 C   0  0  0  0  0  0  0  0  0  0  0  0
   13.7441    0.0767   22.3376 C   0  0  0  0  0  0  0  0  0  0  0  0
   14.7334    0.0547   22.7836 H   0  0  0  0  0  0  0  0  0  0  0  0
   12.9802    1.2455   22.3234 C   0  0  0  0  0  0  0  0  0  0  0  0
   13.3942    2.1676   22.7240 H   0  0  0  0  0  0  0  0  0  0  0  0
   11.6932    1.2509   21.7734 C   0  0  0  0  0  0  0  0  0  0  0  0
   11.1180    2.1713   21.7567 H   0  0  0  0  0  0  0  0  0  0  0  0
   11.1075    0.0584   21.3069 C   0  0  0  0  0  0  0  0  0  0  0  0
    9.6871    0.0521   20.8542 C   0  0  0  0  0  0  0  0  0  0  0  0
    9.4025    0.8950   20.2200 H   0  0  0  0  0  0  0  0  0  0  0  0
    8.7385   -0.8042   21.2859 C   0  0  0  0  0  0  0  0  0  0  0  0
    7.2760   -0.8100   21.0003 C   0  0  0  0  0  0  0  0  0  0  0  0
    6.6198   -0.0241   19.9247 C   0  0  0  0  0  0  0  0  0  0  0  0
    7.1900    0.0214   18.6475 C   0  0  0  0  0  0  0  0  0  0  0  0
    8.1415   -0.4770   18.4600 H   0  0  0  0  0  0  0  0  0  0  0  0
    6.6451    0.6587   17.6032 N   0  0  0  0  0  0  0  0  0  0  0  0
    5.4874    1.3018   17.8162 C   0  0  0  0  0  0  0  0  0  0  0  0
    5.0554    1.8107   16.9567 H   0  0  0  0  0  0  0  0  0  0  0  0
    4.8282    1.3195   19.0525 C   0  0  0  0  0  0  0  0  0  0  0  0
    3.8983    1.8705   19.1551 H   0  0  0  0  0  0  0  0  0  0  0  0
    5.3958    0.6335   20.1260 C   0  0  0  0  0  0  0  0  0  0  0  0
    4.9100    0.6114   21.1041 H   0  0  0  0  0  0  0  0  0  0  0  0
    6.6020   -1.5788   21.7688 N   0  0  0  0  0  0  0  0  0  0  0  0
    7.4894   -2.1863   22.7631 C   0  0  0  0  0  0  0  0  0  0  0  0
    7.2531   -1.7541   23.7404 H   0  0  0  0  0  0  0  0  0  0  0  0
    7.2940   -3.2584   22.8244 H   0  0  0  0  0  0  0  0  0  0  0  0
    8.9411   -1.8576   22.3574 C   0  0  0  0  0  0  0  0  0  0  0  0
    9.5423   -1.4736   23.1859 H   0  0  0  0  0  0  0  0  0  0  0  0
    9.4469   -2.7439   21.9613 H   0  0  0  0  0  0  0  0  0  0  0  0
   11.8881   -1.1093   21.3245 C   0  0  0  0  0  0  0  0  0  0  0  0
   11.4421   -2.0581   21.0373 H   0  0  0  0  0  0  0  0  0  0  0  0
  1  2  1  0
  2  3  1  0
  3  4  2  0
  4  5  1  0
  4  6  1  0
  6  7  1  0
  6  8  2  0
  8  9  1  0
  8 10  1  0
 10 11  1  0
 11 12  1  0
 11 13  2  3
 13 14  1  0
 14 15  1  0
 15 16  2  0
 16 17  1  0
 16 18  1  0
 18 19  2  0
 19 20  1  0
 19 21  1  0
 21 22  1  0
 21 23  2  0
 23 24  1  0
 14 25  2  0
 25 26  1  0
 26 27  1  0
 26 28  1  0
 26 29  1  0
 29 30  1  0
 29 31  1  0
 10 32  2  0
 32 33  1  0
 32  3  1  0
 29 13  1  0
 23 15  1  0
M  END
>  <cnnaffinity>  (1) 
-5.90101

>  <filename>  (1) 
Oc1cccc(C=C2CCN=C2c2cccnc2)c1

$$$$
