
     RDKit          3D

 37 40  0  0  0  0  0  0  0  0999 V2000
    5.5210    4.1083   25.0905 H   0  0  0  0  0  0  0  0  0  0  0  0
    5.9517    3.8471   24.2690 O   0  0  0  0  0  0  0  0  0  0  0  0
    7.1567    3.1883   24.6245 C   0  0  0  0  0  0  0  0  0  0  0  0
    7.7003    3.7838   25.3770 H   0  0  0  0  0  0  0  0  0  0  0  0
    8.0142    3.0950   23.3701 C   0  0  0  0  0  0  0  0  0  0  0  0
    8.1698    4.0871   22.9418 H   0  0  0  0  0  0  0  0  0  0  0  0
    8.9973    2.7049   23.6481 H   0  0  0  0  0  0  0  0  0  0  0  0
    7.3976    2.1685   22.3279 C   0  0  0  0  0  0  0  0  0  0  0  0
    8.0945    1.9987   21.5018 H   0  0  0  0  0  0  0  0  0  0  0  0
    6.4996    2.6301   21.8909 H   0  0  0  0  0  0  0  0  0  0  0  0
    7.1248    0.8702   22.9512 N   0  0  0  0  0  0  0  0  0  0  0  0
    7.4436   -0.2898   22.2923 C   0  0  0  0  0  0  0  0  0  0  0  0
    7.3672   -0.6830   20.9458 C   0  0  0  0  0  0  0  0  0  0  0  0
    6.6479    0.0046   19.8917 C   0  0  0  0  0  0  0  0  0  0  0  0
    7.1708    0.0455   18.5908 C   0  0  0  0  0  0  0  0  0  0  0  0
    8.1213   -0.4356   18.3712 H   0  0  0  0  0  0  0  0  0  0  0  0
    6.5711    0.6768   17.5795 N   0  0  0  0  0  0  0  0  0  0  0  0
    5.4067    1.2926   17.8424 C   0  0  0  0  0  0  0  0  0  0  0  0
    4.9216    1.7783   17.0012 H   0  0  0  0  0  0  0  0  0  0  0  0
    4.8018    1.3115   19.1049 C   0  0  0  0  0  0  0  0  0  0  0  0
    3.8715    1.8436   19.2611 H   0  0  0  0  0  0  0  0  0  0  0  0
    5.4325    0.6550   20.1536 C   0  0  0  0  0  0  0  0  0  0  0  0
    5.0025    0.6336   21.1600 H   0  0  0  0  0  0  0  0  0  0  0  0
    8.0513   -1.8530   20.7183 N   0  0  0  0  0  0  0  0  0  0  0  0
    8.4847   -2.1824   21.9018 C   0  0  0  0  0  0  0  0  0  0  0  0
    9.4793   -3.4424   22.5658 S   0  0  0  0  0  0  0  0  0  0  0  0
    9.4757   -2.6864   24.1334 C   0  0  0  0  0  0  0  0  0  0  0  0
   10.0402   -3.1558   24.9281 H   0  0  0  0  0  0  0  0  0  0  0  0
    8.7287   -1.5720   24.1488 C   0  0  0  0  0  0  0  0  0  0  0  0
    8.5619   -0.9015   24.9821 H   0  0  0  0  0  0  0  0  0  0  0  0
    8.1477   -1.3122   22.9044 N   0  0  0  0  0  0  0  0  0  0  0  0
    6.2542    0.8792   24.1266 C   0  0  0  0  0  0  0  0  0  0  0  0
    5.2360    1.2201   23.8756 H   0  0  0  0  0  0  0  0  0  0  0  0
    6.1496   -0.1409   24.5056 H   0  0  0  0  0  0  0  0  0  0  0  0
    6.8535    1.7989   25.1878 C   0  0  0  0  0  0  0  0  0  0  0  0
    7.7878    1.3629   25.5547 H   0  0  0  0  0  0  0  0  0  0  0  0
    6.1738    1.8812   26.0403 H   0  0  0  0  0  0  0  0  0  0  0  0
  1  2  1  0
  2  3  1  0
  3  4  1  0
  3  5  1  0
  5  6  1  0
  5  7  1  0
  5  8  1  0
  8  9  1  0
  8 10  1  0
  8 11  1  0
 11 12  1  0
 12 13  2  0
 13 14  1  0
 14 15  2  0
 15 16  1  0
 15 17  1  0
 17 18  2  0
 18 19  1  0
 18 20  1  0
 20 21  1  0
 20 22  2  0
 22 23  1  0
 13 24  1  0
 24 25  2  0
 25 26  1  0
 26 27  1  0
 27 28  1  0
 27 29  2  0
 29 30  1  0
 29 31  1  0
 11 32  1  0
 32 33  1  0
 32 34  1  0
 32 35  1  0
 35 36  1  0
 35 37  1  0
 35  3  1  0
 31 12  1  0
 22 14  1  0
 31 25  1  0
M  END
>  <cnnaffinity>  (1) 
-5.39092

>  <filename>  (1) 
OC1CCN(c2c(-c3cccnc3)nc3sccn23)CC1

$$$$
