
     RDKit          3D

 34 37  0  0  0  0  0  0  0  0999 V2000
    3.7173   -3.2197   27.9318 H   0  0  0  0  0  0  0  0  0  0  0  0
    4.1323   -4.0452   27.6357 O   0  0  0  0  0  0  0  0  0  0  0  0
    5.0870   -3.6945   26.7281 C   0  0  0  0  0  0  0  0  0  0  0  0
    5.8728   -4.6992   26.1557 C   0  0  0  0  0  0  0  0  0  0  0  0
    5.6874   -5.7263   26.4586 H   0  0  0  0  0  0  0  0  0  0  0  0
    6.8499   -4.3984   25.1975 C   0  0  0  0  0  0  0  0  0  0  0  0
    7.4338   -5.1962   24.7451 H   0  0  0  0  0  0  0  0  0  0  0  0
    7.0422   -3.0759   24.7847 C   0  0  0  0  0  0  0  0  0  0  0  0
    7.9656   -2.7569   23.7534 N   0  0  0  0  0  0  0  0  0  0  0  0
    9.2256   -3.3146   23.5216 C   0  0  0  0  0  0  0  0  0  0  0  0
    9.6309   -4.0732   24.1747 H   0  0  0  0  0  0  0  0  0  0  0  0
    9.7574   -2.7716   22.3991 C   0  0  0  0  0  0  0  0  0  0  0  0
   10.7080   -2.8732   21.9092 H   0  0  0  0  0  0  0  0  0  0  0  0
    8.7988   -1.8979   21.9032 N   0  0  0  0  0  0  0  0  0  0  0  0
    8.6271   -1.2111   20.7501 N   0  0  0  0  0  0  0  0  0  0  0  0
    7.4105   -0.6658   20.9138 C   0  0  0  0  0  0  0  0  0  0  0  0
    6.7185    0.0808   19.8464 C   0  0  0  0  0  0  0  0  0  0  0  0
    7.2216    0.1090   18.5322 C   0  0  0  0  0  0  0  0  0  0  0  0
    8.1614   -0.3876   18.2986 H   0  0  0  0  0  0  0  0  0  0  0  0
    6.6006    0.7075   17.5104 N   0  0  0  0  0  0  0  0  0  0  0  0
    5.4318    1.3152   17.7670 C   0  0  0  0  0  0  0  0  0  0  0  0
    4.9450    1.7980   16.9225 H   0  0  0  0  0  0  0  0  0  0  0  0
    4.8384    1.3439   19.0345 C   0  0  0  0  0  0  0  0  0  0  0  0
    3.8831    1.8388   19.1783 H   0  0  0  0  0  0  0  0  0  0  0  0
    5.4896    0.7221   20.0930 C   0  0  0  0  0  0  0  0  0  0  0  0
    5.0392    0.7311   21.0895 H   0  0  0  0  0  0  0  0  0  0  0  0
    6.8303   -0.9756   22.1638 C   0  0  0  0  0  0  0  0  0  0  0  0
    5.9524   -0.5238   22.5783 H   0  0  0  0  0  0  0  0  0  0  0  0
    7.7385   -1.8480   22.7316 C   0  0  0  0  0  0  0  0  0  0  0  0
    6.2627   -2.0608   25.3644 C   0  0  0  0  0  0  0  0  0  0  0  0
    6.3953   -1.0402   25.0240 H   0  0  0  0  0  0  0  0  0  0  0  0
    5.2957   -2.3532   26.3192 C   0  0  0  0  0  0  0  0  0  0  0  0
    4.5082   -1.3631   26.8571 O   0  0  0  0  0  0  0  0  0  0  0  0
    4.7786   -0.5329   26.4444 H   0  0  0  0  0  0  0  0  0  0  0  0
  1  2  1  0
  2  3  1  0
  3  4  2  0
  4  5  1  0
  4  6  1  0
  6  7  1  0
  6  8  2  0
  8  9  1  0
  9 10  1  0
 10 11  1  0
 10 12  2  0
 12 13  1  0
 12 14  1  0
 14 15  1  0
 15 16  2  0
 16 17  1  0
 17 18  2  0
 18 19  1  0
 18 20  1  0
 20 21  2  0
 21 22  1  0
 21 23  1  0
 23 24  1  0
 23 25  2  0
 25 26  1  0
 16 27  1  0
 27 28  1  0
 27 29  2  0
  8 30  1  0
 30 31  1  0
 30 32  2  0
 32 33  1  0
 33 34  1  0
 32  3  1  0
 29  9  1  0
 29 14  1  0
 25 17  1  0
M  END
>  <cnnaffinity>  (1) 
-5.64954

>  <filename>  (1) 
Oc1ccc(-n2ccn3nc(-c4cccnc4)cc23)cc1O

$$$$
