
     RDKit          3D

 34 36  0  0  0  0  0  0  0  0999 V2000
    8.3450    0.1648   24.8168 H   0  0  0  0  0  0  0  0  0  0  0  0
    8.5351    0.5883   23.9717 O   0  0  0  0  0  0  0  0  0  0  0  0
    7.4986    1.4079   23.6705 C   0  0  0  0  0  0  0  0  0  0  0  0
    6.4122    1.5312   24.5429 C   0  0  0  0  0  0  0  0  0  0  0  0
    6.3788    0.9443   25.4573 H   0  0  0  0  0  0  0  0  0  0  0  0
    5.3730    2.4108   24.2377 C   0  0  0  0  0  0  0  0  0  0  0  0
    4.0190    2.5560   25.3208 Cl  0  0  0  0  0  0  0  0  0  0  0  0
    5.4140    3.1777   23.0707 C   0  0  0  0  0  0  0  0  0  0  0  0
    4.6036    3.8639   22.8556 H   0  0  0  0  0  0  0  0  0  0  0  0
    6.4973    3.0421   22.1952 C   0  0  0  0  0  0  0  0  0  0  0  0
    6.5595    3.6088   21.2666 H   0  0  0  0  0  0  0  0  0  0  0  0
    7.5180    2.1289   22.4549 C   0  0  0  0  0  0  0  0  0  0  0  0
    8.5170    2.0438   21.4928 O   0  0  0  0  0  0  0  0  0  0  0  0
    9.2837    0.9348   21.3290 C   0  0  0  0  0  0  0  0  0  0  0  0
   10.6489    0.8972   21.2353 C   0  0  0  0  0  0  0  0  0  0  0  0
   11.2732    1.7752   21.3057 H   0  0  0  0  0  0  0  0  0  0  0  0
   11.0113   -0.4566   20.9581 C   0  0  0  0  0  0  0  0  0  0  0  0
   12.0005   -0.8488   20.7496 H   0  0  0  0  0  0  0  0  0  0  0  0
    9.8458   -1.1652   20.8695 C   0  0  0  0  0  0  0  0  0  0  0  0
    9.6647   -2.1932   20.5966 H   0  0  0  0  0  0  0  0  0  0  0  0
    8.7831   -0.3196   21.0996 N   0  0  0  0  0  0  0  0  0  0  0  0
    7.3851   -0.7167   20.9963 C   0  0  0  0  0  0  0  0  0  0  0  0
    6.8976   -0.5742   21.9654 H   0  0  0  0  0  0  0  0  0  0  0  0
    7.4018   -1.7942   20.8121 H   0  0  0  0  0  0  0  0  0  0  0  0
    6.6370    0.0054   19.8962 C   0  0  0  0  0  0  0  0  0  0  0  0
    7.1579    0.0657   18.5924 C   0  0  0  0  0  0  0  0  0  0  0  0
    8.1160   -0.4048   18.3642 H   0  0  0  0  0  0  0  0  0  0  0  0
    6.5513    0.6807   17.5694 N   0  0  0  0  0  0  0  0  0  0  0  0
    5.3873    1.2968   17.8225 C   0  0  0  0  0  0  0  0  0  0  0  0
    4.9255    1.8088   16.9796 H   0  0  0  0  0  0  0  0  0  0  0  0
    4.7779    1.3067   19.0794 C   0  0  0  0  0  0  0  0  0  0  0  0
    3.8507    1.8527   19.2195 H   0  0  0  0  0  0  0  0  0  0  0  0
    5.4118    0.6366   20.1296 C   0  0  0  0  0  0  0  0  0  0  0  0
    4.9857    0.6351   21.1356 H   0  0  0  0  0  0  0  0  0  0  0  0
  1  2  1  0
  2  3  1  0
  3  4  2  0
  4  5  1  0
  4  6  1  0
  6  7  1  0
  6  8  2  0
  8  9  1  0
  8 10  1  0
 10 11  1  0
 10 12  2  0
 12 13  1  0
 13 14  1  0
 14 15  2  0
 15 16  1  0
 15 17  1  0
 17 18  1  0
 17 19  2  0
 19 20  1  0
 19 21  1  0
 21 22  1  0
 22 23  1  0
 22 24  1  0
 22 25  1  0
 25 26  2  0
 26 27  1  0
 26 28  1  0
 28 29  2  0
 29 30  1  0
 29 31  1  0
 31 32  1  0
 31 33  2  0
 33 34  1  0
 12  3  1  0
 21 14  1  0
 33 25  1  0
M  END
>  <cnnaffinity>  (1) 
-5.31192

>  <filename>  (1) 
Oc1cc(Cl)ccc1Oc1cccn1Cc1cccnc1

$$$$
