
     RDKit          3D

 29 31  0  0  0  0  0  0  0  0999 V2000
    6.0028   -3.4512   22.6908 H   0  0  0  0  0  0  0  0  0  0  0  0
    5.6033   -3.7504   23.5197 O   0  0  0  0  0  0  0  0  0  0  0  0
    6.3832   -3.2695   24.5226 C   0  0  0  0  0  0  0  0  0  0  0  0
    6.0511   -3.7141   25.8067 C   0  0  0  0  0  0  0  0  0  0  0  0
    5.1948   -4.3787   25.8938 H   0  0  0  0  0  0  0  0  0  0  0  0
    6.8098   -3.3053   26.9008 C   0  0  0  0  0  0  0  0  0  0  0  0
    6.5405   -3.6650   27.8947 H   0  0  0  0  0  0  0  0  0  0  0  0
    7.8993   -2.4425   26.7071 C   0  0  0  0  0  0  0  0  0  0  0  0
    8.4944   -2.1130   27.5507 H   0  0  0  0  0  0  0  0  0  0  0  0
    8.2195   -1.9999   25.4214 C   0  0  0  0  0  0  0  0  0  0  0  0
    9.0461   -1.3093   25.2648 H   0  0  0  0  0  0  0  0  0  0  0  0
    7.4719   -2.3929   24.3027 C   0  0  0  0  0  0  0  0  0  0  0  0
    7.8196   -1.8537   22.9591 C   0  0  0  0  0  0  0  0  0  0  0  0
    9.0773   -1.8382   22.4223 C   0  0  0  0  0  0  0  0  0  0  0  0
    9.9763   -2.2581   22.8592 H   0  0  0  0  0  0  0  0  0  0  0  0
    9.1194   -1.0792   20.8767 S   0  0  0  0  0  0  0  0  0  0  0  0
    7.4263   -0.6994   20.9440 C   0  0  0  0  0  0  0  0  0  0  0  0
    6.6925    0.0123   19.8808 C   0  0  0  0  0  0  0  0  0  0  0  0
    7.1817    0.0670   18.5586 C   0  0  0  0  0  0  0  0  0  0  0  0
    8.1254   -0.4188   18.3171 H   0  0  0  0  0  0  0  0  0  0  0  0
    6.5563    0.6812   17.5482 N   0  0  0  0  0  0  0  0  0  0  0  0
    5.3949    1.2960   17.8247 C   0  0  0  0  0  0  0  0  0  0  0  0
    4.9211    1.8026   16.9879 H   0  0  0  0  0  0  0  0  0  0  0  0
    4.8090    1.3070   19.0951 C   0  0  0  0  0  0  0  0  0  0  0  0
    3.8741    1.8360   19.2503 H   0  0  0  0  0  0  0  0  0  0  0  0
    5.4652    0.6517   20.1395 C   0  0  0  0  0  0  0  0  0  0  0  0
    5.0377    0.6536   21.1424 H   0  0  0  0  0  0  0  0  0  0  0  0
    6.8946   -1.1896   22.0972 C   0  0  0  0  0  0  0  0  0  0  0  0
    5.8628   -1.0413   22.3547 H   0  0  0  0  0  0  0  0  0  0  0  0
  1  2  1  0
  2  3  1  0
  3  4  2  0
  4  5  1  0
  4  6  1  0
  6  7  1  0
  6  8  2  0
  8  9  1  0
  8 10  1  0
 10 11  1  0
 10 12  2  0
 12 13  1  0
 13 14  2  0
 14 15  1  0
 14 16  1  0
 16 17  1  0
 17 18  1  0
 18 19  2  0
 19 20  1  0
 19 21  1  0
 21 22  2  0
 22 23  1  0
 22 24  1  0
 24 25  1  0
 24 26  2  0
 26 27  1  0
 17 28  2  0
 28 29  1  0
 12  3  1  0
 28 13  1  0
 26 18  1  0
M  END
>  <cnnaffinity>  (1) 
-4.99571

>  <filename>  (1) 
Oc1ccccc1-c1csc(-c2cccnc2)c1

$$$$
