
     RDKit          3D

 31 34  0  0  0  0  0  0  0  0999 V2000
    5.0703    0.4835   27.3666 H   0  0  0  0  0  0  0  0  0  0  0  0
    4.4741    1.2417   27.4243 O   0  0  0  0  0  0  0  0  0  0  0  0
    4.7220    2.0816   26.3884 C   0  0  0  0  0  0  0  0  0  0  0  0
    3.9292    3.2306   26.3623 C   0  0  0  0  0  0  0  0  0  0  0  0
    3.1852    3.3708   27.1343 H   0  0  0  0  0  0  0  0  0  0  0  0
    4.1011    4.1785   25.3563 C   0  0  0  0  0  0  0  0  0  0  0  0
    3.1002    5.5926   25.3277 Cl  0  0  0  0  0  0  0  0  0  0  0  0
    5.0726    4.0131   24.3761 C   0  0  0  0  0  0  0  0  0  0  0  0
    5.1879    4.7616   23.5991 H   0  0  0  0  0  0  0  0  0  0  0  0
    5.8725    2.8697   24.3908 C   0  0  0  0  0  0  0  0  0  0  0  0
    6.6341    2.7391   23.6302 H   0  0  0  0  0  0  0  0  0  0  0  0
    5.6829    1.8834   25.3610 C   0  0  0  0  0  0  0  0  0  0  0  0
    6.4836    0.7247   25.4177 O   0  0  0  0  0  0  0  0  0  0  0  0
    6.9463    0.1072   24.3173 C   0  0  0  0  0  0  0  0  0  0  0  0
    6.5606    0.3205   23.1012 N   0  0  0  0  0  0  0  0  0  0  0  0
    7.2576   -0.5258   22.2848 N   0  0  0  0  0  0  0  0  0  0  0  0
    7.4089   -0.6963   20.9252 C   0  0  0  0  0  0  0  0  0  0  0  0
    6.6490    0.0124   19.8970 C   0  0  0  0  0  0  0  0  0  0  0  0
    7.1727    0.0536   18.5916 C   0  0  0  0  0  0  0  0  0  0  0  0
    8.1206   -0.4332   18.3697 H   0  0  0  0  0  0  0  0  0  0  0  0
    6.5668    0.6755   17.5788 N   0  0  0  0  0  0  0  0  0  0  0  0
    5.4026    1.2898   17.8417 C   0  0  0  0  0  0  0  0  0  0  0  0
    4.9213    1.7798   16.9991 H   0  0  0  0  0  0  0  0  0  0  0  0
    4.8058    1.3069   19.1079 C   0  0  0  0  0  0  0  0  0  0  0  0
    3.8757    1.8421   19.2566 H   0  0  0  0  0  0  0  0  0  0  0  0
    5.4313    0.6543   20.1661 C   0  0  0  0  0  0  0  0  0  0  0  0
    5.0132    0.6416   21.1754 H   0  0  0  0  0  0  0  0  0  0  0  0
    8.3491   -1.5853   20.7171 N   0  0  0  0  0  0  0  0  0  0  0  0
    8.8411   -2.0193   21.9299 N   0  0  0  0  0  0  0  0  0  0  0  0
    8.1862   -1.3537   22.8429 C   0  0  0  0  0  0  0  0  0  0  0  0
    8.1795   -1.1091   24.5749 S   0  0  0  0  0  0  0  0  0  0  0  0
  1  2  1  0
  2  3  1  0
  3  4  2  0
  4  5  1  0
  4  6  1  0
  6  7  1  0
  6  8  2  0
  8  9  1  0
  8 10  1  0
 10 11  1  0
 10 12  2  0
 12 13  1  0
 13 14  1  0
 14 15  2  0
 15 16  1  0
 16 17  1  0
 17 18  1  0
 18 19  2  0
 19 20  1  0
 19 21  1  0
 21 22  2  0
 22 23  1  0
 22 24  1  0
 24 25  1  0
 24 26  2  0
 26 27  1  0
 17 28  2  0
 28 29  1  0
 29 30  2  0
 30 31  1  0
 12  3  1  0
 31 14  1  0
 30 16  1  0
 26 18  1  0
M  END
>  <cnnaffinity>  (1) 
-5.39244

>  <filename>  (1) 
Oc1cc(Cl)ccc1Oc1nn2c(-c3cccnc3)nnc2s1

$$$$
