
     RDKit          3D

 29 31  0  0  0  0  0  0  0  0999 V2000
   10.3633    1.9034   24.3260 H   0  0  0  0  0  0  0  0  0  0  0  0
    9.5988    1.7203   23.7669 O   0  0  0  0  0  0  0  0  0  0  0  0
    8.4786    1.9835   24.4747 C   0  0  0  0  0  0  0  0  0  0  0  0
    8.5309    2.4500   25.7909 C   0  0  0  0  0  0  0  0  0  0  0  0
    9.4991    2.6182   26.2568 H   0  0  0  0  0  0  0  0  0  0  0  0
    7.3352    2.6385   26.4952 C   0  0  0  0  0  0  0  0  0  0  0  0
    7.3598    3.2667   28.1193 Cl  0  0  0  0  0  0  0  0  0  0  0  0
    6.1047    2.3169   25.9228 C   0  0  0  0  0  0  0  0  0  0  0  0
    5.1896    2.4238   26.4925 H   0  0  0  0  0  0  0  0  0  0  0  0
    6.0567    1.8378   24.6075 C   0  0  0  0  0  0  0  0  0  0  0  0
    5.1240    1.5181   24.1466 H   0  0  0  0  0  0  0  0  0  0  0  0
    7.2276    1.7015   23.8830 C   0  0  0  0  0  0  0  0  0  0  0  0
    7.1531    1.2526   22.5674 O   0  0  0  0  0  0  0  0  0  0  0  0
    7.4802   -0.0215   22.2993 C   0  0  0  0  0  0  0  0  0  0  0  0
    8.1907   -1.1274   23.4178 S   0  0  0  0  0  0  0  0  0  0  0  0
    8.2519   -2.3582   22.2930 N   0  0  0  0  0  0  0  0  0  0  0  0
    7.7649   -1.9433   21.1607 C   0  0  0  0  0  0  0  0  0  0  0  0
    7.7173   -2.6752   20.3684 H   0  0  0  0  0  0  0  0  0  0  0  0
    7.2897   -0.5926   21.0688 C   0  0  0  0  0  0  0  0  0  0  0  0
    6.6366    0.1007   19.9189 C   0  0  0  0  0  0  0  0  0  0  0  0
    7.1726    0.1270   18.6082 C   0  0  0  0  0  0  0  0  0  0  0  0
    8.1426   -0.3263   18.4061 H   0  0  0  0  0  0  0  0  0  0  0  0
    6.5789    0.7145   17.5584 N   0  0  0  0  0  0  0  0  0  0  0  0
    5.4024    1.3211   17.7836 C   0  0  0  0  0  0  0  0  0  0  0  0
    4.9430    1.7911   16.9187 H   0  0  0  0  0  0  0  0  0  0  0  0
    4.7843    1.3831   19.0375 C   0  0  0  0  0  0  0  0  0  0  0  0
    3.8512    1.9272   19.1608 H   0  0  0  0  0  0  0  0  0  0  0  0
    5.4284    0.7874   20.1224 C   0  0  0  0  0  0  0  0  0  0  0  0
    5.0312    0.8586   21.1358 H   0  0  0  0  0  0  0  0  0  0  0  0
  1  2  1  0
  2  3  1  0
  3  4  2  0
  4  5  1  0
  4  6  1  0
  6  7  1  0
  6  8  2  0
  8  9  1  0
  8 10  1  0
 10 11  1  0
 10 12  2  0
 12 13  1  0
 13 14  1  0
 14 15  1  0
 15 16  1  0
 16 17  2  0
 17 18  1  0
 17 19  1  0
 19 20  1  0
 20 21  2  0
 21 22  1  0
 21 23  1  0
 23 24  2  0
 24 25  1  0
 24 26  1  0
 26 27  1  0
 26 28  2  0
 28 29  1  0
 12  3  1  0
 19 14  2  0
 28 20  1  0
M  END
>  <cnnaffinity>  (1) 
-5.03992

>  <filename>  (1) 
Oc1cc(Cl)ccc1Oc1sncc1-c1cccnc1

$$$$
