
     RDKit          3D

 32 34  0  0  0  0  0  0  0  0999 V2000
    7.5497   -1.2886   25.1893 H   0  0  0  0  0  0  0  0  0  0  0  0
    7.2246   -1.9107   25.8504 O   0  0  0  0  0  0  0  0  0  0  0  0
    6.6013   -2.9269   25.1932 C   0  0  0  0  0  0  0  0  0  0  0  0
    5.9310   -3.8413   26.0071 C   0  0  0  0  0  0  0  0  0  0  0  0
    5.9787   -3.6740   27.0747 H   0  0  0  0  0  0  0  0  0  0  0  0
    5.2517   -4.9157   25.4435 C   0  0  0  0  0  0  0  0  0  0  0  0
    4.7395   -5.6140   26.0928 H   0  0  0  0  0  0  0  0  0  0  0  0
    5.2225   -5.0973   24.0579 C   0  0  0  0  0  0  0  0  0  0  0  0
    4.6782   -5.9310   23.6230 H   0  0  0  0  0  0  0  0  0  0  0  0
    5.8931   -4.1867   23.2465 C   0  0  0  0  0  0  0  0  0  0  0  0
    5.8872   -4.3170   22.1654 H   0  0  0  0  0  0  0  0  0  0  0  0
    6.6082   -3.1038   23.7905 C   0  0  0  0  0  0  0  0  0  0  0  0
    7.3678   -2.2099   22.8778 C   0  0  0  0  0  0  0  0  0  0  0  0
    8.7542   -2.0439   23.0173 C   0  0  0  0  0  0  0  0  0  0  0  0
    9.2670   -2.5908   23.8049 H   0  0  0  0  0  0  0  0  0  0  0  0
    9.4603   -1.2149   22.1393 C   0  0  0  0  0  0  0  0  0  0  0  0
   10.5333   -1.0920   22.2504 H   0  0  0  0  0  0  0  0  0  0  0  0
    8.7783   -0.5450   21.1197 C   0  0  0  0  0  0  0  0  0  0  0  0
    9.3073    0.1225   20.4449 H   0  0  0  0  0  0  0  0  0  0  0  0
    7.3903   -0.6971   20.9682 C   0  0  0  0  0  0  0  0  0  0  0  0
    6.6579    0.0185   19.8992 C   0  0  0  0  0  0  0  0  0  0  0  0
    7.1676    0.0740   18.5905 C   0  0  0  0  0  0  0  0  0  0  0  0
    8.1093   -0.4239   18.3636 H   0  0  0  0  0  0  0  0  0  0  0  0
    6.5573    0.6789   17.5644 N   0  0  0  0  0  0  0  0  0  0  0  0
    5.3963    1.2979   17.8298 C   0  0  0  0  0  0  0  0  0  0  0  0
    4.9164    1.7875   16.9870 H   0  0  0  0  0  0  0  0  0  0  0  0
    4.8012    1.3182   19.0973 C   0  0  0  0  0  0  0  0  0  0  0  0
    3.8694    1.8472   19.2511 H   0  0  0  0  0  0  0  0  0  0  0  0
    5.4313    0.6531   20.1484 C   0  0  0  0  0  0  0  0  0  0  0  0
    5.0134    0.6372   21.1589 H   0  0  0  0  0  0  0  0  0  0  0  0
    6.7007   -1.5412   21.8456 C   0  0  0  0  0  0  0  0  0  0  0  0
    5.6299   -1.6800   21.7180 H   0  0  0  0  0  0  0  0  0  0  0  0
  1  2  1  0
  2  3  1  0
  3  4  2  0
  4  5  1  0
  4  6  1  0
  6  7  1  0
  6  8  2  0
  8  9  1  0
  8 10  1  0
 10 11  1  0
 10 12  2  0
 12 13  1  0
 13 14  2  0
 14 15  1  0
 14 16  1  0
 16 17  1  0
 16 18  2  0
 18 19  1  0
 18 20  1  0
 20 21  1  0
 21 22  2  0
 22 23  1  0
 22 24  1  0
 24 25  2  0
 25 26  1  0
 25 27  1  0
 27 28  1  0
 27 29  2  0
 29 30  1  0
 20 31  2  0
 31 32  1  0
 12  3  1  0
 31 13  1  0
 29 21  1  0
M  END
>  <cnnaffinity>  (1) 
-5.31103

>  <filename>  (1) 
Oc1ccccc1-c1cccc(-c2cccnc2)c1

$$$$
