
     RDKit          3D

 30 33  0  0  0  0  0  0  0  0999 V2000
    7.6029    0.6520   29.1965 H   0  0  0  0  0  0  0  0  0  0  0  0
    6.9417    1.3518   29.1508 O   0  0  0  0  0  0  0  0  0  0  0  0
    6.5352    1.5020   27.8623 C   0  0  0  0  0  0  0  0  0  0  0  0
    5.5721    2.4917   27.6315 C   0  0  0  0  0  0  0  0  0  0  0  0
    5.2098    3.0705   28.4708 H   0  0  0  0  0  0  0  0  0  0  0  0
    5.1018    2.7113   26.3399 C   0  0  0  0  0  0  0  0  0  0  0  0
    4.3572    3.4782   26.1608 H   0  0  0  0  0  0  0  0  0  0  0  0
    5.5721    1.9613   25.2623 C   0  0  0  0  0  0  0  0  0  0  0  0
    5.2014    2.1419   24.2553 H   0  0  0  0  0  0  0  0  0  0  0  0
    6.5401    0.9624   25.4825 C   0  0  0  0  0  0  0  0  0  0  0  0
    7.0340    0.1707   24.3268 C   0  0  0  0  0  0  0  0  0  0  0  0
    6.6252    0.3481   23.1057 N   0  0  0  0  0  0  0  0  0  0  0  0
    7.2771   -0.5168   22.2823 N   0  0  0  0  0  0  0  0  0  0  0  0
    7.4047   -0.6981   20.9188 C   0  0  0  0  0  0  0  0  0  0  0  0
    6.6469    0.0113   19.8931 C   0  0  0  0  0  0  0  0  0  0  0  0
    7.1723    0.0547   18.5889 C   0  0  0  0  0  0  0  0  0  0  0  0
    8.1211   -0.4333   18.3705 H   0  0  0  0  0  0  0  0  0  0  0  0
    6.5679    0.6766   17.5751 N   0  0  0  0  0  0  0  0  0  0  0  0
    5.4035    1.2905   17.8402 C   0  0  0  0  0  0  0  0  0  0  0  0
    4.9205    1.7793   16.9986 H   0  0  0  0  0  0  0  0  0  0  0  0
    4.8048    1.3076   19.1057 C   0  0  0  0  0  0  0  0  0  0  0  0
    3.8747    1.8427   19.2574 H   0  0  0  0  0  0  0  0  0  0  0  0
    5.4298    0.6526   20.1617 C   0  0  0  0  0  0  0  0  0  0  0  0
    5.0092    0.6378   21.1696 H   0  0  0  0  0  0  0  0  0  0  0  0
    8.3292   -1.6013   20.7005 N   0  0  0  0  0  0  0  0  0  0  0  0
    8.8325   -2.0382   21.9056 N   0  0  0  0  0  0  0  0  0  0  0  0
    8.2043   -1.3571   22.8222 C   0  0  0  0  0  0  0  0  0  0  0  0
    8.2600   -1.0989   24.5389 S   0  0  0  0  0  0  0  0  0  0  0  0
    7.0221    0.7360   26.7980 C   0  0  0  0  0  0  0  0  0  0  0  0
    7.7734   -0.0290   27.0005 H   0  0  0  0  0  0  0  0  0  0  0  0
  1  2  1  0
  2  3  1  0
  3  4  2  0
  4  5  1  0
  4  6  1  0
  6  7  1  0
  6  8  2  0
  8  9  1  0
  8 10  1  0
 10 11  1  0
 11 12  2  0
 12 13  1  0
 13 14  1  0
 14 15  1  0
 15 16  2  0
 16 17  1  0
 16 18  1  0
 18 19  2  0
 19 20  1  0
 19 21  1  0
 21 22  1  0
 21 23  2  0
 23 24  1  0
 14 25  2  0
 25 26  1  0
 26 27  2  0
 27 28  1  0
 10 29  2  0
 29 30  1  0
 29  3  1  0
 28 11  1  0
 27 13  1  0
 23 15  1  0
M  END
>  <cnnaffinity>  (1) 
-5.19069

>  <filename>  (1) 
Oc1cccc(-c2nn3c(-c4cccnc4)nnc3s2)c1

$$$$
