
     RDKit          3D

 33 35  0  0  0  0  0  0  0  0999 V2000
    7.8706    1.9073   28.7090 H   0  0  0  0  0  0  0  0  0  0  0  0
    8.0086    2.6619   28.1231 O   0  0  0  0  0  0  0  0  0  0  0  0
    7.9131    2.1862   26.8583 C   0  0  0  0  0  0  0  0  0  0  0  0
    7.2665    0.9741   26.6155 C   0  0  0  0  0  0  0  0  0  0  0  0
    6.9246    0.3833   27.4586 H   0  0  0  0  0  0  0  0  0  0  0  0
    7.0456    0.5638   25.3038 C   0  0  0  0  0  0  0  0  0  0  0  0
    6.4913   -0.3513   25.1068 H   0  0  0  0  0  0  0  0  0  0  0  0
    7.5028    1.3400   24.2226 C   0  0  0  0  0  0  0  0  0  0  0  0
    7.3071    0.9324   22.8228 C   0  0  0  0  0  0  0  0  0  0  0  0
    7.0514    1.7479   22.1390 H   0  0  0  0  0  0  0  0  0  0  0  0
    7.5360   -0.2999   22.3342 C   0  0  0  0  0  0  0  0  0  0  0  0
    7.3839   -0.7515   20.9395 C   0  0  0  0  0  0  0  0  0  0  0  0
    6.6420    0.0035   19.9082 C   0  0  0  0  0  0  0  0  0  0  0  0
    7.1621    0.0391   18.6063 C   0  0  0  0  0  0  0  0  0  0  0  0
    8.1070   -0.4521   18.3796 H   0  0  0  0  0  0  0  0  0  0  0  0
    6.5697    0.6738   17.5896 N   0  0  0  0  0  0  0  0  0  0  0  0
    5.4058    1.2949   17.8407 C   0  0  0  0  0  0  0  0  0  0  0  0
    4.9429    1.7943   16.9928 H   0  0  0  0  0  0  0  0  0  0  0  0
    4.7971    1.3152   19.0994 C   0  0  0  0  0  0  0  0  0  0  0  0
    3.8632    1.8467   19.2366 H   0  0  0  0  0  0  0  0  0  0  0  0
    5.4271    0.6606   20.1565 C   0  0  0  0  0  0  0  0  0  0  0  0
    4.9940    0.6648   21.1578 H   0  0  0  0  0  0  0  0  0  0  0  0
    7.9445   -1.8766   20.6897 N   0  0  0  0  0  0  0  0  0  0  0  0
    8.5425   -2.4190   21.9133 C   0  0  0  0  0  0  0  0  0  0  0  0
    9.6262   -2.4975   21.7672 H   0  0  0  0  0  0  0  0  0  0  0  0
    8.1582   -3.4311   22.0839 H   0  0  0  0  0  0  0  0  0  0  0  0
    8.1851   -1.4501   23.0734 C   0  0  0  0  0  0  0  0  0  0  0  0
    7.4845   -1.9128   23.7760 H   0  0  0  0  0  0  0  0  0  0  0  0
    9.0483   -1.1078   23.6500 H   0  0  0  0  0  0  0  0  0  0  0  0
    8.1929    2.5416   24.4953 C   0  0  0  0  0  0  0  0  0  0  0  0
    8.5605    3.1480   23.6645 H   0  0  0  0  0  0  0  0  0  0  0  0
    8.4193    2.9558   25.8085 C   0  0  0  0  0  0  0  0  0  0  0  0
    8.9659    3.8596   26.0612 H   0  0  0  0  0  0  0  0  0  0  0  0
  1  2  1  0
  2  3  1  0
  3  4  2  0
  4  5  1  0
  4  6  1  0
  6  7  1  0
  6  8  2  0
  8  9  1  0
  9 10  1  0
  9 11  2  3
 11 12  1  0
 12 13  1  0
 13 14  2  0
 14 15  1  0
 14 16  1  0
 16 17  2  0
 17 18  1  0
 17 19  1  0
 19 20  1  0
 19 21  2  0
 21 22  1  0
 12 23  2  0
 23 24  1  0
 24 25  1  0
 24 26  1  0
 24 27  1  0
 27 28  1  0
 27 29  1  0
  8 30  1  0
 30 31  1  0
 30 32  2  0
 32 33  1  0
 32  3  1  0
 27 11  1  0
 21 13  1  0
M  END
>  <cnnaffinity>  (1) 
-4.99164

>  <filename>  (1) 
Oc1ccc(C=C2CCN=C2c2cccnc2)cc1

$$$$
