
     RDKit          3D

 31 33  0  0  0  0  0  0  0  0999 V2000
    8.5465   -1.0097   26.5343 H   0  0  0  0  0  0  0  0  0  0  0  0
    8.0010   -1.1917   25.7619 O   0  0  0  0  0  0  0  0  0  0  0  0
    7.5289   -2.4548   25.8707 C   0  0  0  0  0  0  0  0  0  0  0  0
    7.8624   -3.2603   26.9593 C   0  0  0  0  0  0  0  0  0  0  0  0
    8.5155   -2.8619   27.7214 H   0  0  0  0  0  0  0  0  0  0  0  0
    7.3886   -4.5734   27.0310 C   0  0  0  0  0  0  0  0  0  0  0  0
    7.9215   -5.6144   28.3104 Cl  0  0  0  0  0  0  0  0  0  0  0  0
    6.5240   -5.0750   26.0639 C   0  0  0  0  0  0  0  0  0  0  0  0
    6.1658   -6.0971   26.1328 H   0  0  0  0  0  0  0  0  0  0  0  0
    6.1743   -4.2567   24.9873 C   0  0  0  0  0  0  0  0  0  0  0  0
    5.4971   -4.6001   24.2150 H   0  0  0  0  0  0  0  0  0  0  0  0
    6.7155   -2.9839   24.8462 C   0  0  0  0  0  0  0  0  0  0  0  0
    6.3379   -2.2665   23.7187 O   0  0  0  0  0  0  0  0  0  0  0  0
    7.2165   -1.7990   22.8157 C   0  0  0  0  0  0  0  0  0  0  0  0
    8.5120   -2.0406   22.9409 N   0  0  0  0  0  0  0  0  0  0  0  0
    9.2864   -1.4842   22.0081 C   0  0  0  0  0  0  0  0  0  0  0  0
   10.3531   -1.6666   22.1108 H   0  0  0  0  0  0  0  0  0  0  0  0
    8.7933   -0.7376   20.9518 C   0  0  0  0  0  0  0  0  0  0  0  0
    9.4465   -0.2427   20.2459 H   0  0  0  0  0  0  0  0  0  0  0  0
    7.4027   -0.6312   20.8954 C   0  0  0  0  0  0  0  0  0  0  0  0
    6.6887    0.0630   19.8207 C   0  0  0  0  0  0  0  0  0  0  0  0
    7.1963    0.0583   18.5185 C   0  0  0  0  0  0  0  0  0  0  0  0
    8.1007   -0.4968   18.2716 H   0  0  0  0  0  0  0  0  0  0  0  0
    6.6043    0.6800   17.4941 N   0  0  0  0  0  0  0  0  0  0  0  0
    5.4589    1.3307   17.7409 C   0  0  0  0  0  0  0  0  0  0  0  0
    5.0031    1.8363   16.8932 H   0  0  0  0  0  0  0  0  0  0  0  0
    4.8418    1.3563   18.9972 C   0  0  0  0  0  0  0  0  0  0  0  0
    3.9011    1.8769   19.1324 H   0  0  0  0  0  0  0  0  0  0  0  0
    5.4590    0.7000   20.0536 C   0  0  0  0  0  0  0  0  0  0  0  0
    5.0054    0.6556   21.0463 H   0  0  0  0  0  0  0  0  0  0  0  0
    6.6203   -1.1491   21.8322 N   0  0  0  0  0  0  0  0  0  0  0  0
  1  2  1  0
  2  3  1  0
  3  4  2  0
  4  5  1  0
  4  6  1  0
  6  7  1  0
  6  8  2  0
  8  9  1  0
  8 10  1  0
 10 11  1  0
 10 12  2  0
 12 13  1  0
 13 14  1  0
 14 15  2  0
 15 16  1  0
 16 17  1  0
 16 18  2  0
 18 19  1  0
 18 20  1  0
 20 21  1  0
 21 22  2  0
 22 23  1  0
 22 24  1  0
 24 25  2  0
 25 26  1  0
 25 27  1  0
 27 28  1  0
 27 29  2  0
 29 30  1  0
 20 31  2  0
 12  3  1  0
 31 14  1  0
 29 21  1  0
M  END
>  <cnnaffinity>  (1) 
-5.3709

>  <filename>  (1) 
Oc1cc(Cl)ccc1Oc1nccc(-c2cccnc2)n1

$$$$
