
     RDKit          3D

 30 32  0  0  0  0  0  0  0  0999 V2000
    6.2755    5.3060   24.0613 H   0  0  0  0  0  0  0  0  0  0  0  0
    5.9483    4.5707   24.5934 O   0  0  0  0  0  0  0  0  0  0  0  0
    6.3442    3.4041   23.9876 C   0  0  0  0  0  0  0  0  0  0  0  0
    7.1098    3.3780   22.8224 C   0  0  0  0  0  0  0  0  0  0  0  0
    7.4002    4.3098   22.3448 H   0  0  0  0  0  0  0  0  0  0  0  0
    7.5010    2.1610   22.2474 C   0  0  0  0  0  0  0  0  0  0  0  0
    8.0746    2.1289   21.3292 H   0  0  0  0  0  0  0  0  0  0  0  0
    7.1106    0.9557   22.8296 C   0  0  0  0  0  0  0  0  0  0  0  0
    7.4951   -0.3057   22.2541 N   0  0  0  0  0  0  0  0  0  0  0  0
    7.3716   -0.7021   20.9314 C   0  0  0  0  0  0  0  0  0  0  0  0
    6.6388    0.0160   19.8959 C   0  0  0  0  0  0  0  0  0  0  0  0
    7.1612    0.0504   18.5931 C   0  0  0  0  0  0  0  0  0  0  0  0
    8.1106   -0.4359   18.3649 H   0  0  0  0  0  0  0  0  0  0  0  0
    6.5642    0.6790   17.5763 N   0  0  0  0  0  0  0  0  0  0  0  0
    5.3984    1.2962   17.8350 C   0  0  0  0  0  0  0  0  0  0  0  0
    4.9259    1.7910   16.9900 H   0  0  0  0  0  0  0  0  0  0  0  0
    4.7943    1.3113   19.0982 C   0  0  0  0  0  0  0  0  0  0  0  0
    3.8671    1.8464   19.2460 H   0  0  0  0  0  0  0  0  0  0  0  0
    5.4205    0.6545   20.1503 C   0  0  0  0  0  0  0  0  0  0  0  0
    5.0111    0.6450   21.1630 H   0  0  0  0  0  0  0  0  0  0  0  0
    7.9738   -1.8310   20.7109 N   0  0  0  0  0  0  0  0  0  0  0  0
    8.4759   -2.1775   21.9251 N   0  0  0  0  0  0  0  0  0  0  0  0
    9.0201   -3.0154   22.0700 H   0  0  0  0  0  0  0  0  0  0  0  0
    8.2454   -1.2793   22.8990 C   0  0  0  0  0  0  0  0  0  0  0  0
    8.8070   -1.3885   24.4523 S   0  0  0  0  0  0  0  0  0  0  0  0
    6.3435    0.9693   23.9930 C   0  0  0  0  0  0  0  0  0  0  0  0
    6.0403    0.0590   24.4949 H   0  0  0  0  0  0  0  0  0  0  0  0
    5.9587    2.1722   24.5809 C   0  0  0  0  0  0  0  0  0  0  0  0
    5.2249    2.0865   25.7223 O   0  0  0  0  0  0  0  0  0  0  0  0
    5.0408    2.9870   26.0219 H   0  0  0  0  0  0  0  0  0  0  0  0
  1  2  1  0
  2  3  1  0
  3  4  2  0
  4  5  1  0
  4  6  1  0
  6  7  1  0
  6  8  2  0
  8  9  1  0
  9 10  1  0
 10 11  1  0
 11 12  2  0
 12 13  1  0
 12 14  1  0
 14 15  2  0
 15 16  1  0
 15 17  1  0
 17 18  1  0
 17 19  2  0
 19 20  1  0
 10 21  2  0
 21 22  1  0
 22 23  1  0
 22 24  1  0
 24 25  2  0
  8 26  1  0
 26 27  1  0
 26 28  2  0
 28 29  1  0
 29 30  1  0
 28  3  1  0
 24  9  1  0
 19 11  1  0
M  END
>  <cnnaffinity>  (1) 
-5.10349

>  <filename>  (1) 
Oc1ccc(-n2c(-c3cccnc3)n[nH]c2=S)cc1O

$$$$
