
     RDKit          3D

 38 40  0  0  0  0  0  0  0  0999 V2000
   12.5774   -1.0739   21.5153 H   0  0  0  0  0  0  0  0  0  0  0  0
   13.1876   -0.5884   22.0879 O   0  0  0  0  0  0  0  0  0  0  0  0
   12.6087    0.6179   22.3554 C   0  0  0  0  0  0  0  0  0  0  0  0
   13.4346    1.6306   22.8484 C   0  0  0  0  0  0  0  0  0  0  0  0
   14.4948    1.4440   22.9564 H   0  0  0  0  0  0  0  0  0  0  0  0
   12.9016    2.8970   23.0953 C   0  0  0  0  0  0  0  0  0  0  0  0
   13.9560    4.1785   23.6296 Cl  0  0  0  0  0  0  0  0  0  0  0  0
   11.5471    3.1528   22.8898 C   0  0  0  0  0  0  0  0  0  0  0  0
   11.1604    4.1517   23.0453 H   0  0  0  0  0  0  0  0  0  0  0  0
   10.7128    2.1380   22.4105 C   0  0  0  0  0  0  0  0  0  0  0  0
    9.6529    2.3080   22.2395 H   0  0  0  0  0  0  0  0  0  0  0  0
   11.2367    0.8792   22.1071 C   0  0  0  0  0  0  0  0  0  0  0  0
   10.4636   -0.0330   21.4280 O   0  0  0  0  0  0  0  0  0  0  0  0
    9.7909   -1.0673   22.1704 C   0  0  0  0  0  0  0  0  0  0  0  0
   10.5428   -1.5848   22.7836 H   0  0  0  0  0  0  0  0  0  0  0  0
    9.1923   -2.0203   21.1096 C   0  0  0  0  0  0  0  0  0  0  0  0
    9.5892   -1.7192   20.1371 H   0  0  0  0  0  0  0  0  0  0  0  0
    9.4940   -3.0545   21.2922 H   0  0  0  0  0  0  0  0  0  0  0  0
    7.6598   -1.9234   21.0473 C   0  0  0  0  0  0  0  0  0  0  0  0
    7.2471   -2.3811   20.1435 H   0  0  0  0  0  0  0  0  0  0  0  0
    7.2257   -2.4594   21.9089 H   0  0  0  0  0  0  0  0  0  0  0  0
    7.2554   -0.5297   21.0981 N   0  0  0  0  0  0  0  0  0  0  0  0
    6.6316    0.1154   20.0105 C   0  0  0  0  0  0  0  0  0  0  0  0
    7.1592    0.0889   18.6897 C   0  0  0  0  0  0  0  0  0  0  0  0
    8.0997   -0.4293   18.4989 H   0  0  0  0  0  0  0  0  0  0  0  0
    6.5855    0.6767   17.6263 N   0  0  0  0  0  0  0  0  0  0  0  0
    5.4226    1.3185   17.8275 C   0  0  0  0  0  0  0  0  0  0  0  0
    4.9695    1.7829   16.9522 H   0  0  0  0  0  0  0  0  0  0  0  0
    4.8006    1.3935   19.0771 C   0  0  0  0  0  0  0  0  0  0  0  0
    3.8520    1.9165   19.1753 H   0  0  0  0  0  0  0  0  0  0  0  0
    5.4162    0.8015   20.1845 C   0  0  0  0  0  0  0  0  0  0  0  0
    4.9723    0.8386   21.1794 H   0  0  0  0  0  0  0  0  0  0  0  0
    7.5610    0.1953   22.3274 C   0  0  0  0  0  0  0  0  0  0  0  0
    7.8295    1.2335   22.0787 H   0  0  0  0  0  0  0  0  0  0  0  0
    6.6724    0.2478   22.9840 H   0  0  0  0  0  0  0  0  0  0  0  0
    8.7079   -0.4926   23.1005 C   0  0  0  0  0  0  0  0  0  0  0  0
    9.1498    0.1955   23.8280 H   0  0  0  0  0  0  0  0  0  0  0  0
    8.2921   -1.3327   23.6710 H   0  0  0  0  0  0  0  0  0  0  0  0
  1  2  1  0
  2  3  1  0
  3  4  2  0
  4  5  1  0
  4  6  1  0
  6  7  1  0
  6  8  2  0
  8  9  1  0
  8 10  1  0
 10 11  1  0
 10 12  2  0
 12 13  1  0
 13 14  1  0
 14 15  1  0
 14 16  1  0
 16 17  1  0
 16 18  1  0
 16 19  1  0
 19 20  1  0
 19 21  1  0
 19 22  1  0
 22 23  1  0
 23 24  2  0
 24 25  1  0
 24 26  1  0
 26 27  2  0
 27 28  1  0
 27 29  1  0
 29 30  1  0
 29 31  2  0
 31 32  1  0
 22 33  1  0
 33 34  1  0
 33 35  1  0
 33 36  1  0
 36 37  1  0
 36 38  1  0
 12  3  1  0
 36 14  1  0
 31 23  1  0
M  END
>  <cnnaffinity>  (1) 
-5.60822

>  <filename>  (1) 
Oc1cc(Cl)ccc1OC1CCN(c2cccnc2)CC1

$$$$
