
     RDKit          3D

 28 30  0  0  0  0  0  0  0  0999 V2000
    5.3725   -5.3026   23.7143 H   0  0  0  0  0  0  0  0  0  0  0  0
    5.6557   -4.6889   23.0303 O   0  0  0  0  0  0  0  0  0  0  0  0
    6.8532   -4.1664   23.4016 C   0  0  0  0  0  0  0  0  0  0  0  0
    7.5132   -4.5127   24.5878 C   0  0  0  0  0  0  0  0  0  0  0  0
    7.0764   -5.2356   25.2769 H   0  0  0  0  0  0  0  0  0  0  0  0
    8.7495   -3.9138   24.8725 C   0  0  0  0  0  0  0  0  0  0  0  0
    9.2814   -4.1819   25.7833 H   0  0  0  0  0  0  0  0  0  0  0  0
    9.3192   -2.9815   24.0045 C   0  0  0  0  0  0  0  0  0  0  0  0
   10.2841   -2.5252   24.2159 H   0  0  0  0  0  0  0  0  0  0  0  0
    8.6333   -2.6404   22.8272 C   0  0  0  0  0  0  0  0  0  0  0  0
    9.1937   -1.6595   21.9391 N   0  0  0  0  0  0  0  0  0  0  0  0
   10.5413   -1.4549   21.8457 N   0  0  0  0  0  0  0  0  0  0  0  0
   10.7210   -0.5348   20.9809 N   0  0  0  0  0  0  0  0  0  0  0  0
    9.5488   -0.0911   20.4676 N   0  0  0  0  0  0  0  0  0  0  0  0
    8.6248   -0.7851   21.0816 C   0  0  0  0  0  0  0  0  0  0  0  0
    7.2933   -0.6860   20.9507 O   0  0  0  0  0  0  0  0  0  0  0  0
    6.6910    0.0246   19.9001 C   0  0  0  0  0  0  0  0  0  0  0  0
    7.1901    0.0597   18.5829 C   0  0  0  0  0  0  0  0  0  0  0  0
    8.1369   -0.4213   18.3566 H   0  0  0  0  0  0  0  0  0  0  0  0
    6.5550    0.6691   17.5741 N   0  0  0  0  0  0  0  0  0  0  0  0
    5.3982    1.2915   17.8411 C   0  0  0  0  0  0  0  0  0  0  0  0
    4.9135    1.7844   16.9998 H   0  0  0  0  0  0  0  0  0  0  0  0
    4.8224    1.3005   19.1172 C   0  0  0  0  0  0  0  0  0  0  0  0
    3.8885    1.8299   19.2691 H   0  0  0  0  0  0  0  0  0  0  0  0
    5.4680    0.6424   20.1719 C   0  0  0  0  0  0  0  0  0  0  0  0
    5.0400    0.6090   21.1750 H   0  0  0  0  0  0  0  0  0  0  0  0
    7.4098   -3.2380   22.5195 C   0  0  0  0  0  0  0  0  0  0  0  0
    6.8637   -2.9987   21.6193 H   0  0  0  0  0  0  0  0  0  0  0  0
  1  2  1  0
  2  3  1  0
  3  4  2  0
  4  5  1  0
  4  6  1  0
  6  7  1  0
  6  8  2  0
  8  9  1  0
  8 10  1  0
 10 11  1  0
 11 12  1  0
 12 13  2  0
 13 14  1  0
 14 15  2  0
 15 16  1  0
 16 17  1  0
 17 18  2  0
 18 19  1  0
 18 20  1  0
 20 21  2  0
 21 22  1  0
 21 23  1  0
 23 24  1  0
 23 25  2  0
 25 26  1  0
 10 27  2  0
 27 28  1  0
 27  3  1  0
 15 11  1  0
 25 17  1  0
M  END
>  <cnnaffinity>  (1) 
-5.05711

>  <filename>  (1) 
Oc1cccc(-n2nnnc2Oc2cccnc2)c1

$$$$
