
     RDKit          3D

 30 32  0  0  0  0  0  0  0  0999 V2000
   10.4484   -2.8523   25.2988 H   0  0  0  0  0  0  0  0  0  0  0  0
   10.2621   -2.5058   24.4197 O   0  0  0  0  0  0  0  0  0  0  0  0
    9.2266   -3.2189   23.8969 C   0  0  0  0  0  0  0  0  0  0  0  0
    8.6501   -4.2959   24.5796 C   0  0  0  0  0  0  0  0  0  0  0  0
    9.0270   -4.5944   25.5609 H   0  0  0  0  0  0  0  0  0  0  0  0
    7.5872   -4.9959   23.9914 C   0  0  0  0  0  0  0  0  0  0  0  0
    7.1345   -5.8333   24.5151 H   0  0  0  0  0  0  0  0  0  0  0  0
    7.0933   -4.6295   22.7368 C   0  0  0  0  0  0  0  0  0  0  0  0
    6.2608   -5.1613   22.2806 H   0  0  0  0  0  0  0  0  0  0  0  0
    7.6693   -3.5508   22.0727 C   0  0  0  0  0  0  0  0  0  0  0  0
    7.3051   -3.2292   21.1041 H   0  0  0  0  0  0  0  0  0  0  0  0
    8.7376   -2.8338   22.6289 C   0  0  0  0  0  0  0  0  0  0  0  0
    9.2832   -1.7076   21.8706 C   0  0  0  0  0  0  0  0  0  0  0  0
    8.6466   -0.7616   21.0785 C   0  0  0  0  0  0  0  0  0  0  0  0
    7.2839   -0.6878   20.9389 O   0  0  0  0  0  0  0  0  0  0  0  0
    6.6884    0.0157   19.9148 C   0  0  0  0  0  0  0  0  0  0  0  0
    7.1890    0.0535   18.6003 C   0  0  0  0  0  0  0  0  0  0  0  0
    8.1276   -0.4382   18.3625 H   0  0  0  0  0  0  0  0  0  0  0  0
    6.5652    0.6670   17.5847 N   0  0  0  0  0  0  0  0  0  0  0  0
    5.4055    1.2887   17.8420 C   0  0  0  0  0  0  0  0  0  0  0  0
    4.9217    1.7816   16.9996 H   0  0  0  0  0  0  0  0  0  0  0  0
    4.8244    1.2997   19.1157 C   0  0  0  0  0  0  0  0  0  0  0  0
    3.8903    1.8282   19.2661 H   0  0  0  0  0  0  0  0  0  0  0  0
    5.4631    0.6432   20.1745 C   0  0  0  0  0  0  0  0  0  0  0  0
    5.0362    0.6106   21.1769 H   0  0  0  0  0  0  0  0  0  0  0  0
    9.6655    0.0828   20.6106 C   0  0  0  0  0  0  0  0  0  0  0  0
    9.5793    0.9534   19.9847 H   0  0  0  0  0  0  0  0  0  0  0  0
   10.8576   -0.3159   21.0455 N   0  0  0  0  0  0  0  0  0  0  0  0
   10.6021   -1.3892   21.7894 N   0  0  0  0  0  0  0  0  0  0  0  0
   11.3557   -1.8774   22.2476 H   0  0  0  0  0  0  0  0  0  0  0  0
  1  2  1  0
  2  3  1  0
  3  4  2  0
  4  5  1  0
  4  6  1  0
  6  7  1  0
  6  8  2  0
  8  9  1  0
  8 10  1  0
 10 11  1  0
 10 12  2  0
 12 13  1  0
 13 14  2  0
 14 15  1  0
 15 16  1  0
 16 17  2  0
 17 18  1  0
 17 19  1  0
 19 20  2  0
 20 21  1  0
 20 22  1  0
 22 23  1  0
 22 24  2  0
 24 25  1  0
 14 26  1  0
 26 27  1  0
 26 28  2  0
 28 29  1  0
 29 30  1  0
 12  3  1  0
 29 13  1  0
 24 16  1  0
M  END
>  <cnnaffinity>  (1) 
-5.29618

>  <filename>  (1) 
Oc1ccccc1-c1[nH]ncc1Oc1cccnc1

$$$$
