
     RDKit          3D

 33 35  0  0  0  0  0  0  0  0999 V2000
    8.2463    0.2481   24.7877 H   0  0  0  0  0  0  0  0  0  0  0  0
    8.4776    0.6388   23.9375 O   0  0  0  0  0  0  0  0  0  0  0  0
    7.4748    1.4808   23.5883 C   0  0  0  0  0  0  0  0  0  0  0  0
    6.3621    1.6409   24.4219 C   0  0  0  0  0  0  0  0  0  0  0  0
    6.2856    1.0690   25.3437 H   0  0  0  0  0  0  0  0  0  0  0  0
    5.3534    2.5362   24.0685 C   0  0  0  0  0  0  0  0  0  0  0  0
    3.9620    2.7256   25.0944 Cl  0  0  0  0  0  0  0  0  0  0  0  0
    5.4508    3.2839   22.8925 C   0  0  0  0  0  0  0  0  0  0  0  0
    4.6646    3.9809   22.6303 H   0  0  0  0  0  0  0  0  0  0  0  0
    6.5600    3.1141   22.0597 C   0  0  0  0  0  0  0  0  0  0  0  0
    6.6644    3.6663   21.1281 H   0  0  0  0  0  0  0  0  0  0  0  0
    7.5498    2.1836   22.3644 C   0  0  0  0  0  0  0  0  0  0  0  0
    8.5680    2.0607   21.4267 O   0  0  0  0  0  0  0  0  0  0  0  0
    9.3037    0.9288   21.3012 C   0  0  0  0  0  0  0  0  0  0  0  0
   10.6602    0.8074   21.2254 C   0  0  0  0  0  0  0  0  0  0  0  0
   11.3897    1.6050   21.2680 H   0  0  0  0  0  0  0  0  0  0  0  0
   11.0029   -0.5042   20.9771 N   0  0  0  0  0  0  0  0  0  0  0  0
    9.8665   -1.1382   20.8816 C   0  0  0  0  0  0  0  0  0  0  0  0
    9.7419   -2.1837   20.6217 H   0  0  0  0  0  0  0  0  0  0  0  0
    8.7826   -0.3235   21.0766 N   0  0  0  0  0  0  0  0  0  0  0  0
    7.3802   -0.7241   20.9940 C   0  0  0  0  0  0  0  0  0  0  0  0
    7.3835   -1.8046   20.8242 H   0  0  0  0  0  0  0  0  0  0  0  0
    6.8970   -0.5634   21.9640 H   0  0  0  0  0  0  0  0  0  0  0  0
    6.6311   -0.0060   19.8929 C   0  0  0  0  0  0  0  0  0  0  0  0
    7.1548    0.0600   18.5897 C   0  0  0  0  0  0  0  0  0  0  0  0
    8.1149   -0.4061   18.3605 H   0  0  0  0  0  0  0  0  0  0  0  0
    6.5511    0.6802   17.5674 N   0  0  0  0  0  0  0  0  0  0  0  0
    5.3868    1.2966   17.8195 C   0  0  0  0  0  0  0  0  0  0  0  0
    4.9288    1.8130   16.9773 H   0  0  0  0  0  0  0  0  0  0  0  0
    4.7756    1.3041   19.0759 C   0  0  0  0  0  0  0  0  0  0  0  0
    3.8505    1.8532   19.2181 H   0  0  0  0  0  0  0  0  0  0  0  0
    5.4066    0.6295   20.1247 C   0  0  0  0  0  0  0  0  0  0  0  0
    4.9798    0.6327   21.1302 H   0  0  0  0  0  0  0  0  0  0  0  0
  1  2  1  0
  2  3  1  0
  3  4  2  0
  4  5  1  0
  4  6  1  0
  6  7  1  0
  6  8  2  0
  8  9  1  0
  8 10  1  0
 10 11  1  0
 10 12  2  0
 12 13  1  0
 13 14  1  0
 14 15  2  0
 15 16  1  0
 15 17  1  0
 17 18  2  0
 18 19  1  0
 18 20  1  0
 20 21  1  0
 21 22  1  0
 21 23  1  0
 21 24  1  0
 24 25  2  0
 25 26  1  0
 25 27  1  0
 27 28  2  0
 28 29  1  0
 28 30  1  0
 30 31  1  0
 30 32  2  0
 32 33  1  0
 12  3  1  0
 20 14  1  0
 32 24  1  0
M  END
>  <cnnaffinity>  (1) 
-5.26393

>  <filename>  (1) 
Oc1cc(Cl)ccc1Oc1cncn1Cc1cccnc1

$$$$
