
     RDKit          3D

 29 31  0  0  0  0  0  0  0  0999 V2000
    8.2306   -3.3247   28.6335 H   0  0  0  0  0  0  0  0  0  0  0  0
    7.7476   -2.5696   27.2583 O   0  0  0  0  0  0  0  0  0  0  0  0
    7.7476   -2.5696   27.2583 C   0  0  0  0  0  0  0  0  0  0  0  0
    6.7188   -1.8335   26.4640 C   0  0  0  0  0  0  0  0  0  0  0  0
    5.8542   -1.4528   27.0520 H   0  0  0  0  0  0  0  0  0  0  0  0
    6.7781   -1.4710   25.1023 C   0  0  0  0  0  0  0  0  0  0  0  0
    5.9691   -0.8664   24.6272 H   0  0  0  0  0  0  0  0  0  0  0  0
    7.8480   -1.8876   24.3205 C   0  0  0  0  0  0  0  0  0  0  0  0
    7.9183   -1.5361   22.8789 C   0  0  0  0  0  0  0  0  0  0  0  0
    6.9418   -0.7810   22.2054 N   0  0  0  0  0  0  0  0  0  0  0  0
    7.3292   -0.6795   20.9986 C   0  0  0  0  0  0  0  0  0  0  0  0
    6.6617    0.0075   19.9057 C   0  0  0  0  0  0  0  0  0  0  0  0
    7.1870    0.0510   18.6073 C   0  0  0  0  0  0  0  0  0  0  0  0
    8.1302   -0.4332   18.3768 H   0  0  0  0  0  0  0  0  0  0  0  0
    6.5710    0.6728   17.5940 N   0  0  0  0  0  0  0  0  0  0  0  0
    5.4054    1.2867   17.8462 C   0  0  0  0  0  0  0  0  0  0  0  0
    4.9227    1.7729   17.0029 H   0  0  0  0  0  0  0  0  0  0  0  0
    4.8031    1.3135   19.1052 C   0  0  0  0  0  0  0  0  0  0  0  0
    3.8770    1.8421   19.2586 H   0  0  0  0  0  0  0  0  0  0  0  0
    5.4318    0.6578   20.1560 C   0  0  0  0  0  0  0  0  0  0  0  0
    5.0074    0.6305   21.1688 H   0  0  0  0  0  0  0  0  0  0  0  0
    8.5201   -1.3126   20.7524 O   0  0  0  0  0  0  0  0  0  0  0  0
    8.8638   -1.8433   21.9679 C   0  0  0  0  0  0  0  0  0  0  0  0
    9.7849   -2.3985   22.0233 H   0  0  0  0  0  0  0  0  0  0  0  0
    8.9103   -2.6753   24.9319 C   0  0  0  0  0  0  0  0  0  0  0  0
    9.7286   -2.9932   24.3008 H   0  0  0  0  0  0  0  0  0  0  0  0
    8.8357   -3.0120   26.2888 C   0  0  0  0  0  0  0  0  0  0  0  0
    9.9433   -3.8500   26.7918 O   0  0  0  0  0  0  0  0  0  0  0  0
   10.6207   -4.0119   26.1152 H   0  0  0  0  0  0  0  0  0  0  0  0
  1  2  1  0
  2  3  1  0
  3  4  2  0
  4  5  1  0
  4  6  1  0
  6  7  1  0
  6  8  2  0
  8  9  1  0
  9 10  1  0
 10 11  2  0
 11 12  1  0
 12 13  2  0
 13 14  1  0
 13 15  1  0
 15 16  2  0
 16 17  1  0
 16 18  1  0
 18 19  1  0
 18 20  2  0
 20 21  1  0
 11 22  1  0
 22 23  1  0
 23 24  1  0
  8 25  1  0
 25 26  1  0
 25 27  2  0
 27 28  1  0
 28 29  1  0
 27  3  1  0
 23  9  2  0
 20 12  1  0
M  END
>  <cnnaffinity>  (1) 
-4.97255

>  <filename>  (1) 
Oc1ccc(-c2coc(-c3cccnc3)n2)cc1O

$$$$
