
     RDKit          3D

 33 36  0  0  0  0  0  0  0  0999 V2000
    5.4934    4.2466   25.6915 H   0  0  0  0  0  0  0  0  0  0  0  0
    5.8923    4.5015   24.8535 O   0  0  0  0  0  0  0  0  0  0  0  0
    6.2815    3.3488   24.2453 C   0  0  0  0  0  0  0  0  0  0  0  0
    6.0618    2.1140   24.8540 C   0  0  0  0  0  0  0  0  0  0  0  0
    5.5778    2.0967   25.8284 H   0  0  0  0  0  0  0  0  0  0  0  0
    6.4669    0.9339   24.2273 C   0  0  0  0  0  0  0  0  0  0  0  0
    6.2640   -0.0250   24.6855 H   0  0  0  0  0  0  0  0  0  0  0  0
    7.0978    0.9683   22.9794 C   0  0  0  0  0  0  0  0  0  0  0  0
    7.4987   -0.2549   22.2975 C   0  0  0  0  0  0  0  0  0  0  0  0
    7.3906   -0.6571   20.9664 C   0  0  0  0  0  0  0  0  0  0  0  0
    6.6445    0.0033   19.9021 C   0  0  0  0  0  0  0  0  0  0  0  0
    7.1572    0.0268   18.5957 C   0  0  0  0  0  0  0  0  0  0  0  0
    8.1024   -0.4596   18.3641 H   0  0  0  0  0  0  0  0  0  0  0  0
    6.5622    0.6565   17.5786 N   0  0  0  0  0  0  0  0  0  0  0  0
    5.4035    1.2877   17.8241 C   0  0  0  0  0  0  0  0  0  0  0  0
    4.9508    1.8054   16.9777 H   0  0  0  0  0  0  0  0  0  0  0  0
    4.7899    1.3034   19.0820 C   0  0  0  0  0  0  0  0  0  0  0  0
    3.8598    1.8464   19.2200 H   0  0  0  0  0  0  0  0  0  0  0  0
    5.4173    0.6473   20.1372 C   0  0  0  0  0  0  0  0  0  0  0  0
    4.9799    0.6573   21.1368 H   0  0  0  0  0  0  0  0  0  0  0  0
    8.0427   -1.8429   20.7445 N   0  0  0  0  0  0  0  0  0  0  0  0
    8.4591   -2.1890   21.9330 C   0  0  0  0  0  0  0  0  0  0  0  0
    9.3431   -3.5246   22.6003 S   0  0  0  0  0  0  0  0  0  0  0  0
    9.4274   -2.7266   24.1488 C   0  0  0  0  0  0  0  0  0  0  0  0
   10.0040   -3.1864   24.9398 H   0  0  0  0  0  0  0  0  0  0  0  0
    8.7478   -1.5650   24.1545 C   0  0  0  0  0  0  0  0  0  0  0  0
    8.6011   -0.8485   24.9517 H   0  0  0  0  0  0  0  0  0  0  0  0
    8.1737   -1.2876   22.9162 N   0  0  0  0  0  0  0  0  0  0  0  0
    7.3072    2.2117   22.3620 C   0  0  0  0  0  0  0  0  0  0  0  0
    7.7422    2.2675   21.3671 H   0  0  0  0  0  0  0  0  0  0  0  0
    6.9145    3.3927   22.9757 C   0  0  0  0  0  0  0  0  0  0  0  0
    7.1278    4.5866   22.3621 O   0  0  0  0  0  0  0  0  0  0  0  0
    7.5130    4.3969   21.4983 H   0  0  0  0  0  0  0  0  0  0  0  0
  1  2  1  0
  2  3  1  0
  3  4  2  0
  4  5  1  0
  4  6  1  0
  6  7  1  0
  6  8  2  0
  8  9  1  0
  9 10  2  0
 10 11  1  0
 11 12  2  0
 12 13  1  0
 12 14  1  0
 14 15  2  0
 15 16  1  0
 15 17  1  0
 17 18  1  0
 17 19  2  0
 19 20  1  0
 10 21  1  0
 21 22  2  0
 22 23  1  0
 23 24  1  0
 24 25  1  0
 24 26  2  0
 26 27  1  0
 26 28  1  0
  8 29  1  0
 29 30  1  0
 29 31  2  0
 31 32  1  0
 32 33  1  0
 31  3  1  0
 28  9  1  0
 19 11  1  0
 28 22  1  0
M  END
>  <cnnaffinity>  (1) 
-5.59591

>  <filename>  (1) 
Oc1ccc(-c2c(-c3cccnc3)nc3sccn23)cc1O

$$$$
