
     RDKit          3D

 33 35  0  0  0  0  0  0  0  0999 V2000
   10.2451    2.3135   21.5486 H   0  0  0  0  0  0  0  0  0  0  0  0
   11.1551    2.4674   21.8302 O   0  0  0  0  0  0  0  0  0  0  0  0
   11.7661    1.2520   21.8616 C   0  0  0  0  0  0  0  0  0  0  0  0
   13.0541    1.2111   22.4112 C   0  0  0  0  0  0  0  0  0  0  0  0
   13.4758    2.1265   22.8180 H   0  0  0  0  0  0  0  0  0  0  0  0
   13.7661    0.0104   22.4355 C   0  0  0  0  0  0  0  0  0  0  0  0
   14.7732   -0.0207   22.8450 H   0  0  0  0  0  0  0  0  0  0  0  0
   13.1788   -1.1562   21.9324 C   0  0  0  0  0  0  0  0  0  0  0  0
   13.7269   -2.0910   21.9586 H   0  0  0  0  0  0  0  0  0  0  0  0
   11.8720   -1.1180   21.4387 C   0  0  0  0  0  0  0  0  0  0  0  0
   11.4005   -2.0362   21.0983 H   0  0  0  0  0  0  0  0  0  0  0  0
   11.1215    0.0768   21.3967 C   0  0  0  0  0  0  0  0  0  0  0  0
    9.6997    0.1033   20.9398 C   0  0  0  0  0  0  0  0  0  0  0  0
    9.4360    0.8899   20.2250 H   0  0  0  0  0  0  0  0  0  0  0  0
    8.7443   -0.7593   21.3522 C   0  0  0  0  0  0  0  0  0  0  0  0
    7.2925   -0.7937   21.0156 C   0  0  0  0  0  0  0  0  0  0  0  0
    6.6377   -0.0138   19.9355 C   0  0  0  0  0  0  0  0  0  0  0  0
    7.2096    0.0166   18.6593 C   0  0  0  0  0  0  0  0  0  0  0  0
    8.1486   -0.5059   18.4700 H   0  0  0  0  0  0  0  0  0  0  0  0
    6.6688    0.6515   17.6115 N   0  0  0  0  0  0  0  0  0  0  0  0
    5.5144    1.3024   17.8139 C   0  0  0  0  0  0  0  0  0  0  0  0
    5.0917    1.8122   16.9503 H   0  0  0  0  0  0  0  0  0  0  0  0
    4.8451    1.3175   19.0431 C   0  0  0  0  0  0  0  0  0  0  0  0
    3.9144    1.8661   19.1351 H   0  0  0  0  0  0  0  0  0  0  0  0
    5.4044    0.6345   20.1219 C   0  0  0  0  0  0  0  0  0  0  0  0
    4.9022    0.6018   21.0904 H   0  0  0  0  0  0  0  0  0  0  0  0
    6.6122   -1.5941   21.7517 N   0  0  0  0  0  0  0  0  0  0  0  0
    7.4773   -2.1974   22.7665 C   0  0  0  0  0  0  0  0  0  0  0  0
    7.3063   -3.2754   22.8056 H   0  0  0  0  0  0  0  0  0  0  0  0
    7.1830   -1.7935   23.7401 H   0  0  0  0  0  0  0  0  0  0  0  0
    8.9330   -1.8321   22.4101 C   0  0  0  0  0  0  0  0  0  0  0  0
    9.4410   -2.7099   21.9931 H   0  0  0  0  0  0  0  0  0  0  0  0
    9.5149   -1.4872   23.2710 H   0  0  0  0  0  0  0  0  0  0  0  0
  1  2  1  0
  2  3  1  0
  3  4  2  0
  4  5  1  0
  4  6  1  0
  6  7  1  0
  6  8  2  0
  8  9  1  0
  8 10  1  0
 10 11  1  0
 10 12  2  0
 12 13  1  0
 13 14  1  0
 13 15  2  3
 15 16  1  0
 16 17  1  0
 17 18  2  0
 18 19  1  0
 18 20  1  0
 20 21  2  0
 21 22  1  0
 21 23  1  0
 23 24  1  0
 23 25  2  0
 25 26  1  0
 16 27  2  0
 27 28  1  0
 28 29  1  0
 28 30  1  0
 28 31  1  0
 31 32  1  0
 31 33  1  0
 12  3  1  0
 31 15  1  0
 25 17  1  0
M  END
>  <cnnaffinity>  (1) 
-5.75028

>  <filename>  (1) 
Oc1ccccc1C=C1CCN=C1c1cccnc1

$$$$
