
     RDKit          3D

 32 34  0  0  0  0  0  0  0  0999 V2000
    5.6905   -3.0377   25.8402 H   0  0  0  0  0  0  0  0  0  0  0  0
    4.8490   -3.5225   25.8423 O   0  0  0  0  0  0  0  0  0  0  0  0
    4.6623   -3.9884   24.5860 C   0  0  0  0  0  0  0  0  0  0  0  0
    3.5121   -4.7427   24.3661 C   0  0  0  0  0  0  0  0  0  0  0  0
    2.8519   -4.8935   25.2162 H   0  0  0  0  0  0  0  0  0  0  0  0
    3.3059   -5.3218   23.1111 C   0  0  0  0  0  0  0  0  0  0  0  0
    1.8546   -6.2326   22.8201 Cl  0  0  0  0  0  0  0  0  0  0  0  0
    4.2541   -5.1754   22.0984 C   0  0  0  0  0  0  0  0  0  0  0  0
    4.1426   -5.7262   21.1788 H   0  0  0  0  0  0  0  0  0  0  0  0
    5.3673   -4.3519   22.2928 C   0  0  0  0  0  0  0  0  0  0  0  0
    6.0719   -4.1588   21.4876 H   0  0  0  0  0  0  0  0  0  0  0  0
    5.5829   -3.7560   23.5342 C   0  0  0  0  0  0  0  0  0  0  0  0
    6.7075   -3.0046   23.8462 O   0  0  0  0  0  0  0  0  0  0  0  0
    7.3330   -2.2143   22.8991 C   0  0  0  0  0  0  0  0  0  0  0  0
    8.7236   -2.0305   23.0054 C   0  0  0  0  0  0  0  0  0  0  0  0
    9.2931   -2.5312   23.7918 H   0  0  0  0  0  0  0  0  0  0  0  0
    9.4125   -1.2472   22.1631 N   0  0  0  0  0  0  0  0  0  0  0  0
    8.7566   -0.6042   21.1865 C   0  0  0  0  0  0  0  0  0  0  0  0
    9.3685    0.0390   20.5486 H   0  0  0  0  0  0  0  0  0  0  0  0
    7.3685   -0.7151   20.9885 C   0  0  0  0  0  0  0  0  0  0  0  0
    6.6588    0.0094   19.8930 C   0  0  0  0  0  0  0  0  0  0  0  0
    7.1623    0.0636   18.5763 C   0  0  0  0  0  0  0  0  0  0  0  0
    8.1049   -0.4277   18.3316 H   0  0  0  0  0  0  0  0  0  0  0  0
    6.5501    0.6800   17.5570 N   0  0  0  0  0  0  0  0  0  0  0  0
    5.3905    1.3036   17.8192 C   0  0  0  0  0  0  0  0  0  0  0  0
    4.9237    1.8120   16.9776 H   0  0  0  0  0  0  0  0  0  0  0  0
    4.7963    1.3225   19.0849 C   0  0  0  0  0  0  0  0  0  0  0  0
    3.8623    1.8529   19.2331 H   0  0  0  0  0  0  0  0  0  0  0  0
    5.4389    0.6604   20.1335 C   0  0  0  0  0  0  0  0  0  0  0  0
    5.0211    0.6487   21.1400 H   0  0  0  0  0  0  0  0  0  0  0  0
    6.6575   -1.5440   21.8739 C   0  0  0  0  0  0  0  0  0  0  0  0
    5.5892   -1.6871   21.7393 H   0  0  0  0  0  0  0  0  0  0  0  0
  1  2  1  0
  2  3  1  0
  3  4  2  0
  4  5  1  0
  4  6  1  0
  6  7  1  0
  6  8  2  0
  8  9  1  0
  8 10  1  0
 10 11  1  0
 10 12  2  0
 12 13  1  0
 13 14  1  0
 14 15  2  0
 15 16  1  0
 15 17  1  0
 17 18  2  0
 18 19  1  0
 18 20  1  0
 20 21  1  0
 21 22  2  0
 22 23  1  0
 22 24  1  0
 24 25  2  0
 25 26  1  0
 25 27  1  0
 27 28  1  0
 27 29  2  0
 29 30  1  0
 20 31  2  0
 31 32  1  0
 12  3  1  0
 31 14  1  0
 29 21  1  0
M  END
>  <cnnaffinity>  (1) 
-5.51723

>  <filename>  (1) 
Oc1cc(Cl)ccc1Oc1cncc(-c2cccnc2)c1

$$$$
