
     RDKit          3D

 36 39  0  0  0  0  0  0  0  0999 V2000
    4.4497   -7.7383   25.6981 H   0  0  0  0  0  0  0  0  0  0  0  0
    4.1304   -7.3992   24.8524 O   0  0  0  0  0  0  0  0  0  0  0  0
    4.6015   -6.1308   24.7406 C   0  0  0  0  0  0  0  0  0  0  0  0
    4.1978   -5.3419   23.6575 C   0  0  0  0  0  0  0  0  0  0  0  0
    3.5066   -5.7761   22.9445 H   0  0  0  0  0  0  0  0  0  0  0  0
    4.7094   -4.0499   23.5260 C   0  0  0  0  0  0  0  0  0  0  0  0
    4.4028   -3.4201   22.6918 H   0  0  0  0  0  0  0  0  0  0  0  0
    5.6232   -3.5262   24.4670 C   0  0  0  0  0  0  0  0  0  0  0  0
    6.2431   -2.2108   24.2149 C   0  0  0  0  0  0  0  0  0  0  0  0
    6.6590   -1.6591   23.0214 C   0  0  0  0  0  0  0  0  0  0  0  0
    7.2709   -0.4559   23.3493 C   0  0  0  0  0  0  0  0  0  0  0  0
    7.2608   -0.2105   24.6473 N   0  0  0  0  0  0  0  0  0  0  0  0
    6.6464   -1.3056   25.1576 N   0  0  0  0  0  0  0  0  0  0  0  0
    6.5812   -1.3821   26.1638 H   0  0  0  0  0  0  0  0  0  0  0  0
    7.8359    0.2383   22.1533 C   0  0  0  0  0  0  0  0  0  0  0  0
    7.4394    1.2507   22.0596 H   0  0  0  0  0  0  0  0  0  0  0  0
    8.9198    0.3487   22.2275 H   0  0  0  0  0  0  0  0  0  0  0  0
    7.4484   -0.6999   20.9538 C   0  0  2  0  0  0  0  0  0  0  0  0
    8.3823   -1.0899   20.5307 H   0  0  0  0  0  0  0  0  0  0  0  0
    6.6915    0.0244   19.8534 C   0  0  0  0  0  0  0  0  0  0  0  0
    7.1692    0.0811   18.5295 C   0  0  0  0  0  0  0  0  0  0  0  0
    8.1116   -0.4049   18.2768 H   0  0  0  0  0  0  0  0  0  0  0  0
    6.5473    0.6987   17.5172 N   0  0  0  0  0  0  0  0  0  0  0  0
    5.3901    1.3167   17.7954 C   0  0  0  0  0  0  0  0  0  0  0  0
    4.9120    1.8304   16.9645 H   0  0  0  0  0  0  0  0  0  0  0  0
    4.8073    1.3200   19.0665 C   0  0  0  0  0  0  0  0  0  0  0  0
    3.8697    1.8411   19.2223 H   0  0  0  0  0  0  0  0  0  0  0  0
    5.4671    0.6650   20.1084 C   0  0  0  0  0  0  0  0  0  0  0  0
    5.0380    0.6606   21.1124 H   0  0  0  0  0  0  0  0  0  0  0  0
    6.6526   -1.9155   21.5471 C   0  0  0  0  0  0  0  0  0  0  0  0
    7.1191   -2.8687   21.2690 H   0  0  0  0  0  0  0  0  0  0  0  0
    5.6313   -1.9573   21.1455 H   0  0  0  0  0  0  0  0  0  0  0  0
    6.0054   -4.3355   25.5547 C   0  0  0  0  0  0  0  0  0  0  0  0
    6.7286   -3.9771   26.2880 H   0  0  0  0  0  0  0  0  0  0  0  0
    5.4987   -5.6243   25.6843 C   0  0  0  0  0  0  0  0  0  0  0  0
    5.8060   -6.2795   26.4949 H   0  0  0  0  0  0  0  0  0  0  0  0
  1  2  1  0
  2  3  1  0
  3  4  2  0
  4  5  1  0
  4  6  1  0
  6  7  1  0
  6  8  2  0
  8  9  1  0
  9 10  2  0
 10 11  1  0
 11 12  2  0
 12 13  1  0
 13 14  1  0
 11 15  1  0
 15 16  1  0
 15 17  1  0
 15 18  1  0
 18 19  1  6
 18 20  1  0
 20 21  2  0
 21 22  1  0
 21 23  1  0
 23 24  2  0
 24 25  1  0
 24 26  1  0
 26 27  1  0
 26 28  2  0
 28 29  1  0
 18 30  1  0
 30 31  1  0
 30 32  1  0
  8 33  1  0
 33 34  1  0
 33 35  2  0
 35 36  1  0
 35  3  1  0
 13  9  1  0
 28 20  1  0
 30 10  1  0
M  END
>  <cnnaffinity>  (1) 
-5.17991

>  <filename>  (1) 
Oc1ccc(-c2[nH]nc3c2C[C@@H](c2cccnc2)C3)cc1

$$$$
