
     RDKit          3D

 31 33  0  0  0  0  0  0  0  0999 V2000
    7.8428   -6.1308   27.1696 H   0  0  0  0  0  0  0  0  0  0  0  0
    6.9915   -5.7528   26.9169 O   0  0  0  0  0  0  0  0  0  0  0  0
    7.2159   -4.8674   25.8972 C   0  0  0  0  0  0  0  0  0  0  0  0
    8.4906   -4.6123   25.3822 C   0  0  0  0  0  0  0  0  0  0  0  0
    9.3553   -5.1293   25.7990 H   0  0  0  0  0  0  0  0  0  0  0  0
    8.6640   -3.6966   24.3369 C   0  0  0  0  0  0  0  0  0  0  0  0
    9.6534   -3.5181   23.9341 H   0  0  0  0  0  0  0  0  0  0  0  0
    7.5669   -3.0169   23.7875 C   0  0  0  0  0  0  0  0  0  0  0  0
    7.6764   -2.0666   22.6763 C   0  0  0  0  0  0  0  0  0  0  0  0
    6.7353   -1.6079   21.8116 C   0  0  0  0  0  0  0  0  0  0  0  0
    5.6897   -1.8441   21.7122 H   0  0  0  0  0  0  0  0  0  0  0  0
    7.3341   -0.6999   20.9514 N   0  0  0  0  0  0  0  0  0  0  0  0
    6.6536   -0.0041   19.9015 C   0  0  0  0  0  0  0  0  0  0  0  0
    7.1728    0.0458   18.5916 C   0  0  0  0  0  0  0  0  0  0  0  0
    8.1269   -0.4325   18.3698 H   0  0  0  0  0  0  0  0  0  0  0  0
    6.5573    0.6655   17.5789 N   0  0  0  0  0  0  0  0  0  0  0  0
    5.3983    1.2904   17.8408 C   0  0  0  0  0  0  0  0  0  0  0  0
    4.9250    1.7889   16.9979 H   0  0  0  0  0  0  0  0  0  0  0  0
    4.8103    1.3093   19.1085 C   0  0  0  0  0  0  0  0  0  0  0  0
    3.8794    1.8399   19.2633 H   0  0  0  0  0  0  0  0  0  0  0  0
    5.4435    0.6439   20.1609 C   0  0  0  0  0  0  0  0  0  0  0  0
    5.0256    0.6303   21.1676 H   0  0  0  0  0  0  0  0  0  0  0  0
    8.6547   -0.5418   21.3048 C   0  0  0  0  0  0  0  0  0  0  0  0
    9.8062    0.5016   20.7393 S   0  0  0  0  0  0  0  0  0  0  0  0
    8.8509   -1.4218   22.3148 N   0  0  0  0  0  0  0  0  0  0  0  0
    9.7511   -1.4312   22.7587 H   0  0  0  0  0  0  0  0  0  0  0  0
    6.2918   -3.2807   24.3172 C   0  0  0  0  0  0  0  0  0  0  0  0
    5.4032   -2.7780   23.9479 H   0  0  0  0  0  0  0  0  0  0  0  0
    6.0964   -4.1865   25.3481 C   0  0  0  0  0  0  0  0  0  0  0  0
    4.8115   -4.3652   25.7670 O   0  0  0  0  0  0  0  0  0  0  0  0
    4.8159   -5.0070   26.4926 H   0  0  0  0  0  0  0  0  0  0  0  0
  1  2  1  0
  2  3  1  0
  3  4  2  0
  4  5  1  0
  4  6  1  0
  6  7  1  0
  6  8  2  0
  8  9  1  0
  9 10  2  0
 10 11  1  0
 10 12  1  0
 12 13  1  0
 13 14  2  0
 14 15  1  0
 14 16  1  0
 16 17  2  0
 17 18  1  0
 17 19  1  0
 19 20  1  0
 19 21  2  0
 21 22  1  0
 12 23  1  0
 23 24  2  0
 23 25  1  0
 25 26  1  0
  8 27  1  0
 27 28  1  0
 27 29  2  0
 29 30  1  0
 30 31  1  0
 29  3  1  0
 25  9  1  0
 21 13  1  0
M  END
>  <cnnaffinity>  (1) 
-5.49237

>  <filename>  (1) 
Oc1ccc(-c2cn(-c3cccnc3)c(=S)[nH]2)cc1O

$$$$
