
     RDKit          3D

 37 39  0  0  0  0  0  0  0  0999 V2000
    5.6166   -5.1700   27.8997 H   0  0  0  0  0  0  0  0  0  0  0  0
    6.3122   -4.8038   28.4626 O   0  0  0  0  0  0  0  0  0  0  0  0
    7.4598   -4.5970   27.6605 C   0  0  0  0  0  0  0  0  0  0  0  0
    8.2605   -4.3196   28.3468 H   0  0  0  0  0  0  0  0  0  0  0  0
    7.7741   -5.5282   27.1566 H   0  0  0  0  0  0  0  0  0  0  0  0
    7.2996   -3.4568   26.6385 C   0  0  0  0  0  0  0  0  0  0  0  0
    6.8599   -2.6229   27.2097 H   0  0  0  0  0  0  0  0  0  0  0  0
    8.6686   -2.9806   26.0618 C   0  0  0  0  0  0  0  0  0  0  0  0
    9.4977   -3.4911   26.5660 H   0  0  0  0  0  0  0  0  0  0  0  0
    8.7880   -1.9165   26.2810 H   0  0  0  0  0  0  0  0  0  0  0  0
    8.8477   -3.1384   24.5397 C   0  0  0  0  0  0  0  0  0  0  0  0
    8.9626   -4.2021   24.2766 H   0  0  0  0  0  0  0  0  0  0  0  0
    9.7572   -2.6235   24.2101 H   0  0  0  0  0  0  0  0  0  0  0  0
    7.7051   -2.5753   23.8306 N   0  0  0  0  0  0  0  0  0  0  0  0
    7.8465   -1.8595   22.6689 C   0  0  0  0  0  0  0  0  0  0  0  0
    9.0705   -1.4832   22.1677 N   0  0  0  0  0  0  0  0  0  0  0  0
    8.7973   -0.7922   21.0915 C   0  0  0  0  0  0  0  0  0  0  0  0
    9.5228   -0.3178   20.4425 H   0  0  0  0  0  0  0  0  0  0  0  0
    7.4548   -0.6962   20.8341 N   0  0  0  0  0  0  0  0  0  0  0  0
    6.7622    0.0019   19.8061 C   0  0  0  0  0  0  0  0  0  0  0  0
    7.2121   -0.0002   18.4743 C   0  0  0  0  0  0  0  0  0  0  0  0
    8.1112   -0.5487   18.1861 H   0  0  0  0  0  0  0  0  0  0  0  0
    6.5739    0.6362   17.4846 N   0  0  0  0  0  0  0  0  0  0  0  0
    5.4447    1.2991   17.7793 C   0  0  0  0  0  0  0  0  0  0  0  0
    4.9579    1.8057   16.9488 H   0  0  0  0  0  0  0  0  0  0  0  0
    4.9047    1.3413   19.0673 C   0  0  0  0  0  0  0  0  0  0  0  0
    3.9791    1.8770   19.2437 H   0  0  0  0  0  0  0  0  0  0  0  0
    5.5717    0.6831   20.1015 C   0  0  0  0  0  0  0  0  0  0  0  0
    5.1896    0.7134   21.1238 H   0  0  0  0  0  0  0  0  0  0  0  0
    6.8504   -1.4011   21.8563 C   0  0  0  0  0  0  0  0  0  0  0  0
    5.7882   -1.5253   21.9395 H   0  0  0  0  0  0  0  0  0  0  0  0
    6.3531   -2.8643   24.3128 C   0  0  0  0  0  0  0  0  0  0  0  0
    5.8536   -1.9231   24.5962 H   0  0  0  0  0  0  0  0  0  0  0  0
    5.7562   -3.3024   23.4966 H   0  0  0  0  0  0  0  0  0  0  0  0
    6.3439   -3.8433   25.4939 C   0  0  0  0  0  0  0  0  0  0  0  0
    5.3145   -3.9189   25.8582 H   0  0  0  0  0  0  0  0  0  0  0  0
    6.6197   -4.8366   25.1104 H   0  0  0  0  0  0  0  0  0  0  0  0
  1  2  1  0
  2  3  1  0
  3  4  1  0
  3  5  1  0
  3  6  1  0
  6  7  1  0
  6  8  1  0
  8  9  1  0
  8 10  1  0
  8 11  1  0
 11 12  1  0
 11 13  1  0
 11 14  1  0
 14 15  1  0
 15 16  1  0
 16 17  2  0
 17 18  1  0
 17 19  1  0
 19 20  1  0
 20 21  2  0
 21 22  1  0
 21 23  1  0
 23 24  2  0
 24 25  1  0
 24 26  1  0
 26 27  1  0
 26 28  2  0
 28 29  1  0
 19 30  1  0
 30 31  1  0
 14 32  1  0
 32 33  1  0
 32 34  1  0
 32 35  1  0
 35 36  1  0
 35 37  1  0
 35  6  1  0
 30 15  2  0
 28 20  1  0
M  END
>  <cnnaffinity>  (1) 
-4.92885

>  <filename>  (1) 
OCC1CCN(c2cn(-c3cccnc3)cn2)CC1

$$$$
