
     RDKit          3D

 36 37  0  0  0  0  0  0  0  0999 V2000
   10.4949    4.7915   22.6791 H   0  0  0  0  0  0  0  0  0  0  0  0
   10.0548    4.2639   23.3556 O   0  0  0  0  0  0  0  0  0  0  0  0
    9.2142    3.3553   22.6709 C   0  0  0  0  0  0  0  0  0  0  0  0
    8.5231    3.8826   21.9880 H   0  0  0  0  0  0  0  0  0  0  0  0
    8.6006    2.8761   23.4431 H   0  0  0  0  0  0  0  0  0  0  0  0
   10.0069    2.3076   21.8879 C   0  0  0  0  0  0  0  0  0  0  0  0
   10.6040    1.7176   22.5984 H   0  0  0  0  0  0  0  0  0  0  0  0
   10.7294    2.8142   21.2301 H   0  0  0  0  0  0  0  0  0  0  0  0
    9.1002    1.3946   21.0629 C   0  0  0  0  0  0  0  0  0  0  0  0
    8.4565    1.9973   20.4029 H   0  0  0  0  0  0  0  0  0  0  0  0
    9.7037    0.7676   20.3943 H   0  0  0  0  0  0  0  0  0  0  0  0
    8.1974    0.5036   21.9196 C   0  0  0  0  0  0  0  0  0  0  0  0
    8.7839   -0.0019   22.7025 H   0  0  0  0  0  0  0  0  0  0  0  0
    7.4640    1.1296   22.4497 H   0  0  0  0  0  0  0  0  0  0  0  0
    7.4355   -0.5676   21.1104 C   0  0  1  0  0  0  0  0  0  0  0  0
    6.6626    0.0588   19.9216 C   0  0  0  0  0  0  0  0  0  0  0  0
    7.1500    0.0811   18.5912 C   0  0  0  0  0  0  0  0  0  0  0  0
    8.0800   -0.4228   18.3260 H   0  0  0  0  0  0  0  0  0  0  0  0
    6.5382    0.6763   17.5548 N   0  0  0  0  0  0  0  0  0  0  0  0
    5.3820    1.3056   17.8029 C   0  0  0  0  0  0  0  0  0  0  0  0
    4.9249    1.8143   16.9556 H   0  0  0  0  0  0  0  0  0  0  0  0
    4.7865    1.3345   19.0667 C   0  0  0  0  0  0  0  0  0  0  0  0
    3.8456    1.8536   19.2107 H   0  0  0  0  0  0  0  0  0  0  0  0
    5.4337    0.7013   20.1341 C   0  0  0  0  0  0  0  0  0  0  0  0
    4.9714    0.6852   21.1224 H   0  0  0  0  0  0  0  0  0  0  0  0
    8.3468   -1.7275   20.6578 C   0  0  0  0  0  0  0  0  0  0  0  0
    9.2918   -1.4253   20.1929 H   0  0  0  0  0  0  0  0  0  0  0  0
    7.7123   -2.1974   19.9111 H   0  0  0  0  0  0  0  0  0  0  0  0
    8.5399   -2.6766   21.7530 N   0  0  0  0  0  0  0  0  0  0  0  0
    9.3839   -2.4657   22.2727 H   0  0  0  0  0  0  0  0  0  0  0  0
    7.3644   -2.5555   22.6288 C   0  0  0  0  0  0  0  0  0  0  0  0
    7.6575   -2.3670   23.6711 H   0  0  0  0  0  0  0  0  0  0  0  0
    6.8137   -3.5055   22.6427 H   0  0  0  0  0  0  0  0  0  0  0  0
    6.5143   -1.4025   22.0452 C   0  0  0  0  0  0  0  0  0  0  0  0
    5.7126   -1.8284   21.4275 H   0  0  0  0  0  0  0  0  0  0  0  0
    6.0828   -0.7786   22.8296 H   0  0  0  0  0  0  0  0  0  0  0  0
  1  2  1  0
  2  3  1  0
  3  4  1  0
  3  5  1  0
  3  6  1  0
  6  7  1  0
  6  8  1  0
  6  9  1  0
  9 10  1  0
  9 11  1  0
  9 12  1  0
 12 13  1  0
 12 14  1  0
 15 12  1  1
 15 16  1  0
 16 17  2  0
 17 18  1  0
 17 19  1  0
 19 20  2  0
 20 21  1  0
 20 22  1  0
 22 23  1  0
 22 24  2  0
 24 25  1  0
 15 26  1  0
 26 27  1  0
 26 28  1  0
 26 29  1  0
 29 30  1  0
 29 31  1  0
 31 32  1  0
 31 33  1  0
 31 34  1  0
 34 35  1  0
 34 36  1  0
 34 15  1  0
 24 16  1  0
M  END
>  <cnnaffinity>  (1) 
-4.2393

>  <filename>  (1) 
OCCCC[C@]1(c2cccnc2)CCNC1

$$$$
