
     RDKit          3D

 31 32  0  0  0  0  0  0  0  0999 V2000
    9.9346    3.4237   20.9920 H   0  0  0  0  0  0  0  0  0  0  0  0
    9.6901    2.6648   21.5475 O   0  0  0  0  0  0  0  0  0  0  0  0
    9.9363    3.0155   22.9044 C   0  0  0  0  0  0  0  0  0  0  0  0
   11.0108    3.1970   23.0728 H   0  0  0  0  0  0  0  0  0  0  0  0
    9.4008    3.9454   23.1571 H   0  0  0  0  0  0  0  0  0  0  0  0
    9.4896    1.8768   23.8082 C   0  0  0  0  0  0  0  0  0  0  0  0
    9.9593    0.9518   23.4499 H   0  0  0  0  0  0  0  0  0  0  0  0
    9.8734    2.0709   24.8154 H   0  0  0  0  0  0  0  0  0  0  0  0
    7.9797    1.6409   23.8918 C   0  0  0  0  0  0  0  0  0  0  0  0
    7.7495    0.9261   24.6956 H   0  0  0  0  0  0  0  0  0  0  0  0
    7.4559    2.5719   24.1557 H   0  0  0  0  0  0  0  0  0  0  0  0
    7.4185    1.1546   22.6368 N   0  0  0  0  0  0  0  0  0  0  0  0
    7.7069    1.7853   21.8891 H   0  0  0  0  0  0  0  0  0  0  0  0
    7.6991   -0.1554   22.2441 C   0  0  0  0  0  0  0  0  0  0  0  0
    8.3511   -1.1722   22.9100 C   0  0  0  0  0  0  0  0  0  0  0  0
    8.8125   -1.0620   23.8798 H   0  0  0  0  0  0  0  0  0  0  0  0
    8.2951   -2.3387   22.0888 C   0  0  0  0  0  0  0  0  0  0  0  0
    8.7153   -3.3151   22.2976 H   0  0  0  0  0  0  0  0  0  0  0  0
    7.6007   -1.9968   20.9587 C   0  0  0  0  0  0  0  0  0  0  0  0
    7.2085   -2.5821   20.1423 H   0  0  0  0  0  0  0  0  0  0  0  0
    7.2612   -0.6558   21.0189 N   0  0  0  0  0  0  0  0  0  0  0  0
    6.6099    0.0259   19.9486 C   0  0  0  0  0  0  0  0  0  0  0  0
    7.1595    0.0465   18.6515 C   0  0  0  0  0  0  0  0  0  0  0  0
    8.1109   -0.4420   18.4514 H   0  0  0  0  0  0  0  0  0  0  0  0
    6.5906    0.6719   17.6117 N   0  0  0  0  0  0  0  0  0  0  0  0
    5.4243    1.3036   17.8239 C   0  0  0  0  0  0  0  0  0  0  0  0
    4.9747    1.7898   16.9586 H   0  0  0  0  0  0  0  0  0  0  0  0
    4.7938    1.3346   19.0713 C   0  0  0  0  0  0  0  0  0  0  0  0
    3.8457    1.8486   19.1823 H   0  0  0  0  0  0  0  0  0  0  0  0
    5.3998    0.7027   20.1622 C   0  0  0  0  0  0  0  0  0  0  0  0
    4.9785    0.7278   21.1648 H   0  0  0  0  0  0  0  0  0  0  0  0
  1  2  1  0
  2  3  1  0
  3  4  1  0
  3  5  1  0
  3  6  1  0
  6  7  1  0
  6  8  1  0
  6  9  1  0
  9 10  1  0
  9 11  1  0
  9 12  1  0
 12 13  1  0
 12 14  1  0
 14 15  2  0
 15 16  1  0
 15 17  1  0
 17 18  1  0
 17 19  2  0
 19 20  1  0
 19 21  1  0
 21 22  1  0
 22 23  2  0
 23 24  1  0
 23 25  1  0
 25 26  2  0
 26 27  1  0
 26 28  1  0
 28 29  1  0
 28 30  2  0
 30 31  1  0
 21 14  1  0
 30 22  1  0
M  END
>  <cnnaffinity>  (1) 
-4.24844

>  <filename>  (1) 
OCCCNc1cccn1-c1cccnc1

$$$$
