
     RDKit          3D

 37 39  0  0  0  0  0  0  0  0999 V2000
   11.8715    2.0146   22.0674 H   0  0  0  0  0  0  0  0  0  0  0  0
   11.1489    2.3643   22.5990 O   0  0  0  0  0  0  0  0  0  0  0  0
    9.9315    1.8338   22.1042 C   0  0  0  0  0  0  0  0  0  0  0  0
    9.8846    0.7394   22.2538 H   0  0  0  0  0  0  0  0  0  0  0  0
    9.8235    2.0233   21.0211 H   0  0  0  0  0  0  0  0  0  0  0  0
    8.8249    2.5653   22.8519 C   0  0  0  0  0  0  0  0  0  0  0  0
    8.9701    2.4258   23.9290 H   0  0  0  0  0  0  0  0  0  0  0  0
    8.9536    3.6348   22.6532 H   0  0  0  0  0  0  0  0  0  0  0  0
    7.3986    2.1850   22.4516 C   0  0  0  0  0  0  0  0  0  0  0  0
    7.3206    2.1801   21.3603 H   0  0  0  0  0  0  0  0  0  0  0  0
    6.6965    2.9604   22.7830 H   0  0  0  0  0  0  0  0  0  0  0  0
    6.9129    0.8963   22.9474 N   0  0  0  0  0  0  0  0  0  0  0  0
    7.0725    0.7990   23.9463 H   0  0  0  0  0  0  0  0  0  0  0  0
    7.4250   -0.2600   22.3305 C   0  0  0  0  0  0  0  0  0  0  0  0
    7.3443   -0.6927   20.9527 C   0  0  0  0  0  0  0  0  0  0  0  0
    6.6250   -0.0229   19.8565 C   0  0  0  0  0  0  0  0  0  0  0  0
    7.1500    0.0181   18.5501 C   0  0  0  0  0  0  0  0  0  0  0  0
    8.0937   -0.4738   18.3173 H   0  0  0  0  0  0  0  0  0  0  0  0
    6.5574    0.6652   17.5384 N   0  0  0  0  0  0  0  0  0  0  0  0
    5.4036    1.2990   17.7962 C   0  0  0  0  0  0  0  0  0  0  0  0
    4.9491    1.8350   16.9655 H   0  0  0  0  0  0  0  0  0  0  0  0
    4.7882    1.3059   19.0534 C   0  0  0  0  0  0  0  0  0  0  0  0
    3.8651    1.8482   19.2049 H   0  0  0  0  0  0  0  0  0  0  0  0
    5.4153    0.6406   20.1046 C   0  0  0  0  0  0  0  0  0  0  0  0
    5.0161    0.6619   21.1212 H   0  0  0  0  0  0  0  0  0  0  0  0
    8.0690   -1.7968   20.7588 N   0  0  0  0  0  0  0  0  0  0  0  0
    8.5340   -2.0787   21.9752 N   0  0  0  0  0  0  0  0  0  0  0  0
    8.2084   -1.2161   22.9420 C   0  0  0  0  0  0  0  0  0  0  0  0
    8.9786   -1.5277   24.1899 C   0  0  0  0  0  0  0  0  0  0  0  0
    8.3074   -1.7688   25.0130 H   0  0  0  0  0  0  0  0  0  0  0  0
    9.5739   -0.6699   24.5260 H   0  0  0  0  0  0  0  0  0  0  0  0
    9.8559   -2.7497   23.7822 C   0  0  0  0  0  0  0  0  0  0  0  0
   10.9130   -2.5164   23.8742 H   0  0  0  0  0  0  0  0  0  0  0  0
    9.6540   -3.6160   24.4108 H   0  0  0  0  0  0  0  0  0  0  0  0
    9.5216   -3.0673   22.3043 C   0  0  0  0  0  0  0  0  0  0  0  0
    9.1006   -4.0631   22.1477 H   0  0  0  0  0  0  0  0  0  0  0  0
   10.3794   -2.9267   21.6443 H   0  0  0  0  0  0  0  0  0  0  0  0
  1  2  1  0
  2  3  1  0
  3  4  1  0
  3  5  1  0
  3  6  1  0
  6  7  1  0
  6  8  1  0
  6  9  1  0
  9 10  1  0
  9 11  1  0
  9 12  1  0
 12 13  1  0
 12 14  1  0
 14 15  1  0
 15 16  1  0
 16 17  2  0
 17 18  1  0
 17 19  1  0
 19 20  2  0
 20 21  1  0
 20 22  1  0
 22 23  1  0
 22 24  2  0
 24 25  1  0
 15 26  2  0
 26 27  1  0
 27 28  1  0
 28 29  1  0
 29 30  1  0
 29 31  1  0
 29 32  1  0
 32 33  1  0
 32 34  1  0
 32 35  1  0
 35 36  1  0
 35 37  1  0
 28 14  2  0
 24 16  1  0
 35 27  1  0
M  END
>  <cnnaffinity>  (1) 
-5.21948

>  <filename>  (1) 
OCCCNc1c(-c2cccnc2)nn2c1CCC2

$$$$
