
     RDKit          3D

 38 39  0  0  0  0  0  0  0  0999 V2000
    7.7735    5.6300   25.2224 H   0  0  0  0  0  0  0  0  0  0  0  0
    8.1505    4.9229   25.7635 O   0  0  0  0  0  0  0  0  0  0  0  0
    8.8199    3.9950   24.9161 C   0  0  0  0  0  0  0  0  0  0  0  0
    9.3266    3.2884   25.5810 H   0  0  0  0  0  0  0  0  0  0  0  0
    9.5965    4.4887   24.3062 H   0  0  0  0  0  0  0  0  0  0  0  0
    7.8785    3.2121   23.9953 C   0  0  0  0  0  0  0  0  0  0  0  0
    7.2897    3.9306   23.3890 H   0  0  0  0  0  0  0  0  0  0  0  0
    7.1600    2.6665   24.6231 H   0  0  0  0  0  0  0  0  0  0  0  0
    8.6095    2.2218   23.1989 N   0  0  0  0  0  0  0  0  0  0  0  0
    9.2900    2.6832   22.5958 H   0  0  0  0  0  0  0  0  0  0  0  0
    7.7369    1.4122   22.3526 C   0  0  0  0  0  0  0  0  0  0  0  0
    6.8683    1.0927   22.9535 H   0  0  0  0  0  0  0  0  0  0  0  0
    7.3381    2.0067   21.5110 H   0  0  0  0  0  0  0  0  0  0  0  0
    8.4221    0.1476   21.7824 C   0  0  2  0  0  0  0  0  0  0  0  0
    7.3751   -0.7164   21.0210 C   0  0  0  0  0  0  0  0  0  0  0  0
    7.9049   -1.5930   20.6240 H   0  0  0  0  0  0  0  0  0  0  0  0
    6.6497   -1.1054   21.7501 H   0  0  0  0  0  0  0  0  0  0  0  0
    6.6356   -0.0204   19.8973 C   0  0  0  0  0  0  0  0  0  0  0  0
    7.1525    0.0563   18.5870 C   0  0  0  0  0  0  0  0  0  0  0  0
    8.1016   -0.4204   18.3426 H   0  0  0  0  0  0  0  0  0  0  0  0
    6.5540    0.6866   17.5650 N   0  0  0  0  0  0  0  0  0  0  0  0
    5.3911    1.3046   17.8146 C   0  0  0  0  0  0  0  0  0  0  0  0
    4.9282    1.8143   16.9708 H   0  0  0  0  0  0  0  0  0  0  0  0
    4.7839    1.3103   19.0752 C   0  0  0  0  0  0  0  0  0  0  0  0
    3.8567    1.8552   19.2229 H   0  0  0  0  0  0  0  0  0  0  0  0
    5.4167    0.6397   20.1264 C   0  0  0  0  0  0  0  0  0  0  0  0
    4.9945    0.6536   21.1345 H   0  0  0  0  0  0  0  0  0  0  0  0
    9.1084   -0.6752   22.8965 C   0  0  0  0  0  0  0  0  0  0  0  0
    9.1128   -1.7425   22.6205 H   0  0  0  0  0  0  0  0  0  0  0  0
    8.5756   -0.5997   23.8547 H   0  0  0  0  0  0  0  0  0  0  0  0
   10.4838   -0.1906   23.0422 N   0  0  0  0  0  0  0  0  0  0  0  0
   10.4720    0.5122   23.7705 H   0  0  0  0  0  0  0  0  0  0  0  0
   10.8842    0.4574   21.7838 C   0  0  0  0  0  0  0  0  0  0  0  0
   11.2765    1.4643   21.9867 H   0  0  0  0  0  0  0  0  0  0  0  0
   11.7090   -0.0852   21.2994 H   0  0  0  0  0  0  0  0  0  0  0  0
    9.6283    0.5130   20.8855 C   0  0  0  0  0  0  0  0  0  0  0  0
    9.7182   -0.1911   20.0471 H   0  0  0  0  0  0  0  0  0  0  0  0
    9.4754    1.5027   20.4624 H   0  0  0  0  0  0  0  0  0  0  0  0
  1  2  1  0
  2  3  1  0
  3  4  1  0
  3  5  1  0
  3  6  1  0
  6  7  1  0
  6  8  1  0
  6  9  1  0
  9 10  1  0
  9 11  1  0
 11 12  1  0
 11 13  1  0
 14 11  1  1
 14 15  1  0
 15 16  1  0
 15 17  1  0
 15 18  1  0
 18 19  2  0
 19 20  1  0
 19 21  1  0
 21 22  2  0
 22 23  1  0
 22 24  1  0
 24 25  1  0
 24 26  2  0
 26 27  1  0
 14 28  1  0
 28 29  1  0
 28 30  1  0
 28 31  1  0
 31 32  1  0
 31 33  1  0
 33 34  1  0
 33 35  1  0
 33 36  1  0
 36 37  1  0
 36 38  1  0
 36 14  1  0
 26 18  1  0
M  END
>  <cnnaffinity>  (1) 
-4.22486

>  <filename>  (1) 
OCCNC[C@@]1(Cc2cccnc2)CCNC1

$$$$
