
     RDKit          3D

 33 35  0  0  0  0  0  0  0  0999 V2000
    8.2827    4.1996   26.6916 H   0  0  0  0  0  0  0  0  0  0  0  0
    8.9264    4.4114   26.0020 O   0  0  0  0  0  0  0  0  0  0  0  0
    9.1977    3.2370   25.2452 C   0  0  0  0  0  0  0  0  0  0  0  0
   10.0414    3.4926   24.5931 H   0  0  0  0  0  0  0  0  0  0  0  0
    9.5125    2.3940   25.8792 H   0  0  0  0  0  0  0  0  0  0  0  0
    8.0265    2.7800   24.3734 C   0  0  0  0  0  0  0  0  0  0  0  0
    7.1741    2.5459   25.0295 H   0  0  0  0  0  0  0  0  0  0  0  0
    7.7150    3.6233   23.7286 H   0  0  0  0  0  0  0  0  0  0  0  0
    8.3538    1.5507   23.6545 N   0  0  0  0  0  0  0  0  0  0  0  0
    9.1346    1.6615   23.0074 H   0  0  0  0  0  0  0  0  0  0  0  0
    7.2269    1.0142   22.9059 C   0  0  0  0  0  0  0  0  0  0  0  0
    6.8448    1.7231   22.1532 H   0  0  0  0  0  0  0  0  0  0  0  0
    6.4015    0.8336   23.6155 H   0  0  0  0  0  0  0  0  0  0  0  0
    7.5815   -0.2580   22.2338 C   0  0  0  0  0  0  0  0  0  0  0  0
    7.3909   -0.6989   20.9416 C   0  0  0  0  0  0  0  0  0  0  0  0
    6.6447    0.0064   19.9056 C   0  0  0  0  0  0  0  0  0  0  0  0
    7.1561    0.0364   18.6010 C   0  0  0  0  0  0  0  0  0  0  0  0
    8.1000   -0.4542   18.3778 H   0  0  0  0  0  0  0  0  0  0  0  0
    6.5620    0.6633   17.5826 N   0  0  0  0  0  0  0  0  0  0  0  0
    5.4031    1.2947   17.8278 C   0  0  0  0  0  0  0  0  0  0  0  0
    4.9483    1.8010   16.9777 H   0  0  0  0  0  0  0  0  0  0  0  0
    4.7924    1.3133   19.0874 C   0  0  0  0  0  0  0  0  0  0  0  0
    3.8589    1.8497   19.2273 H   0  0  0  0  0  0  0  0  0  0  0  0
    5.4216    0.6610   20.1451 C   0  0  0  0  0  0  0  0  0  0  0  0
    4.9602    0.6511   21.1351 H   0  0  0  0  0  0  0  0  0  0  0  0
    7.9581   -1.9347   20.7300 N   0  0  0  0  0  0  0  0  0  0  0  0
    8.4006   -2.2749   21.9140 C   0  0  0  0  0  0  0  0  0  0  0  0
    9.1564   -3.6681   22.6399 S   0  0  0  0  0  0  0  0  0  0  0  0
    9.3273   -2.8081   24.1586 C   0  0  0  0  0  0  0  0  0  0  0  0
    9.8538   -3.3039   24.9668 H   0  0  0  0  0  0  0  0  0  0  0  0
    8.7659   -1.5869   24.1159 C   0  0  0  0  0  0  0  0  0  0  0  0
    8.6714   -0.8244   24.8804 H   0  0  0  0  0  0  0  0  0  0  0  0
    8.2245   -1.3063   22.8639 N   0  0  0  0  0  0  0  0  0  0  0  0
  1  2  1  0
  2  3  1  0
  3  4  1  0
  3  5  1  0
  3  6  1  0
  6  7  1  0
  6  8  1  0
  6  9  1  0
  9 10  1  0
  9 11  1  0
 11 12  1  0
 11 13  1  0
 11 14  1  0
 14 15  2  0
 15 16  1  0
 16 17  2  0
 17 18  1  0
 17 19  1  0
 19 20  2  0
 20 21  1  0
 20 22  1  0
 22 23  1  0
 22 24  2  0
 24 25  1  0
 15 26  1  0
 26 27  2  0
 27 28  1  0
 28 29  1  0
 29 30  1  0
 29 31  2  0
 31 32  1  0
 31 33  1  0
 33 14  1  0
 24 16  1  0
 33 27  1  0
M  END
>  <cnnaffinity>  (1) 
-5.13689

>  <filename>  (1) 
OCCNCc1c(-c2cccnc2)nc2sccn12

$$$$
