
     RDKit          3D

 44 47  0  0  0  0  0  0  0  0999 V2000
   -0.9047   -8.1908   22.5592 H   0  0  0  0  0  0  0  0  0  0  0  0
    0.0287   -8.2834   22.3309 O   0  0  0  0  0  0  0  0  0  0  0  0
    0.7693   -7.3335   23.0870 C   0  0  0  0  0  0  0  0  0  0  0  0
    0.4209   -6.3049   22.8908 H   0  0  0  0  0  0  0  0  0  0  0  0
    0.6918   -7.5126   24.1710 H   0  0  0  0  0  0  0  0  0  0  0  0
    2.2379   -7.4629   22.6904 C   0  0  0  0  0  0  0  0  0  0  0  0
    2.5205   -8.5143   22.8322 H   0  0  0  0  0  0  0  0  0  0  0  0
    2.3433   -7.2417   21.6086 H   0  0  0  0  0  0  0  0  0  0  0  0
    3.0980   -6.6182   23.5323 N   0  0  0  0  0  0  0  0  0  0  0  0
    2.8555   -5.1612   23.3278 C   0  0  0  0  0  0  0  0  0  0  0  0
    2.0989   -4.8245   24.0536 H   0  0  0  0  0  0  0  0  0  0  0  0
    2.4596   -4.9699   22.3100 H   0  0  0  0  0  0  0  0  0  0  0  0
    4.1327   -4.3024   23.4673 C   0  0  0  0  0  0  0  0  0  0  0  0
    4.5357   -4.4001   24.4916 H   0  0  0  0  0  0  0  0  0  0  0  0
    3.8890   -3.2499   23.3186 H   0  0  0  0  0  0  0  0  0  0  0  0
    5.1195   -4.7622   22.4669 N   0  0  0  0  0  0  0  0  0  0  0  0
    6.0985   -3.9746   21.9470 C   0  0  0  0  0  0  0  0  0  0  0  0
    7.2726   -4.3352   21.5302 N   0  0  0  0  0  0  0  0  0  0  0  0
    7.9107   -3.1601   21.1592 N   0  0  0  0  0  0  0  0  0  0  0  0
    7.0677   -2.2003   21.3203 C   0  0  0  0  0  0  0  0  0  0  0  0
    7.3178   -0.7379   21.0972 C   0  0  0  0  0  0  0  0  0  0  0  0
    6.5897   -0.0381   19.9707 C   0  0  0  0  0  0  0  0  0  0  0  0
    7.1369   -0.0019   18.6734 C   0  0  0  0  0  0  0  0  0  0  0  0
    8.0801   -0.5110   18.4756 H   0  0  0  0  0  0  0  0  0  0  0  0
    6.5831    0.6248   17.6271 N   0  0  0  0  0  0  0  0  0  0  0  0
    5.4289    1.2716   17.8414 C   0  0  0  0  0  0  0  0  0  0  0  0
    5.0012    1.7960   16.9842 H   0  0  0  0  0  0  0  0  0  0  0  0
    4.7901    1.2998   19.0848 C   0  0  0  0  0  0  0  0  0  0  0  0
    3.8575    1.8413   19.1926 H   0  0  0  0  0  0  0  0  0  0  0  0
    5.3824    0.6422   20.1668 C   0  0  0  0  0  0  0  0  0  0  0  0
    4.9270    0.6600   21.1586 H   0  0  0  0  0  0  0  0  0  0  0  0
    7.7286    0.0970   22.3081 C   0  0  0  0  0  0  0  0  0  0  0  0
    7.4480    1.1500   22.3203 H   0  0  0  0  0  0  0  0  0  0  0  0
    7.7261   -0.3801   23.2839 H   0  0  0  0  0  0  0  0  0  0  0  0
    8.7566   -0.3299   21.3141 C   0  0  0  0  0  0  0  0  0  0  0  0
    9.1796    0.4205   20.6474 H   0  0  0  0  0  0  0  0  0  0  0  0
    9.4232   -1.1405   21.6014 H   0  0  0  0  0  0  0  0  0  0  0  0
    5.8743   -2.6421   21.8301 O   0  0  0  0  0  0  0  0  0  0  0  0
    5.2841   -6.2296   22.3310 C   0  0  0  0  0  0  0  0  0  0  0  0
    4.9134   -6.5564   21.3437 H   0  0  0  0  0  0  0  0  0  0  0  0
    6.3502   -6.4833   22.3799 H   0  0  0  0  0  0  0  0  0  0  0  0
    4.5294   -6.9666   23.4576 C   0  0  0  0  0  0  0  0  0  0  0  0
    5.0100   -6.7053   24.4164 H   0  0  0  0  0  0  0  0  0  0  0  0
    4.6412   -8.0488   23.3380 H   0  0  0  0  0  0  0  0  0  0  0  0
  1  2  1  0
  2  3  1  0
  3  4  1  0
  3  5  1  0
  3  6  1  0
  6  7  1  0
  6  8  1  0
  6  9  1  0
  9 10  1  0
 10 11  1  0
 10 12  1  0
 10 13  1  0
 13 14  1  0
 13 15  1  0
 13 16  1  0
 16 17  1  0
 17 18  2  0
 18 19  1  0
 19 20  2  0
 20 21  1  0
 21 22  1  0
 22 23  2  0
 23 24  1  0
 23 25  1  0
 25 26  2  0
 26 27  1  0
 26 28  1  0
 28 29  1  0
 28 30  2  0
 30 31  1  0
 21 32  1  0
 32 33  1  0
 32 34  1  0
 32 35  1  0
 35 36  1  0
 35 37  1  0
 20 38  1  0
 16 39  1  0
 39 40  1  0
 39 41  1  0
 39 42  1  0
 42 43  1  0
 42 44  1  0
 42  9  1  0
 38 17  1  0
 35 21  1  0
 30 22  1  0
M  END
>  <cnnaffinity>  (1) 
-4.5038

>  <filename>  (1) 
OCCN1CCN(c2nnc(C3(c4cccnc4)CC3)o2)CC1

$$$$
