
     RDKit          3D

 41 43  0  0  0  0  0  0  0  0999 V2000
    6.0950   -5.4523   27.5855 H   0  0  0  0  0  0  0  0  0  0  0  0
    6.8803   -4.9095   27.7232 O   0  0  0  0  0  0  0  0  0  0  0  0
    8.0064   -5.6123   27.1978 C   0  0  0  0  0  0  0  0  0  0  0  0
    7.7294   -6.2414   26.3381 H   0  0  0  0  0  0  0  0  0  0  0  0
    8.4329   -6.2688   27.9750 H   0  0  0  0  0  0  0  0  0  0  0  0
    9.1138   -4.6568   26.7390 C   0  0  0  0  0  0  0  0  0  0  0  0
    9.2759   -3.8859   27.5150 H   0  0  0  0  0  0  0  0  0  0  0  0
   10.0277   -5.2699   26.7048 H   0  0  0  0  0  0  0  0  0  0  0  0
    8.9000   -4.0766   25.4058 N   0  0  0  0  0  0  0  0  0  0  0  0
    8.2371   -2.7554   25.4248 C   0  0  0  0  0  0  0  0  0  0  0  0
    7.3250   -2.8163   26.0344 H   0  0  0  0  0  0  0  0  0  0  0  0
    8.9026   -1.9995   25.8848 H   0  0  0  0  0  0  0  0  0  0  0  0
    7.8878   -2.3111   23.9898 C   0  0  0  0  0  0  0  0  0  0  0  0
    7.1600   -3.0425   23.5986 H   0  0  0  0  0  0  0  0  0  0  0  0
    7.4374   -1.3127   23.9950 H   0  0  0  0  0  0  0  0  0  0  0  0
    9.0942   -2.2845   23.1709 N   0  0  0  0  0  0  0  0  0  0  0  0
    9.3646   -1.3194   22.2141 C   0  0  0  0  0  0  0  0  0  0  0  0
    8.6316   -0.5738   21.2826 C   0  0  0  0  0  0  0  0  0  0  0  0
    7.2604   -0.6396   20.9293 N   0  0  0  0  0  0  0  0  0  0  0  0
    6.6413   -1.0115   21.6425 H   0  0  0  0  0  0  0  0  0  0  0  0
    6.6238    0.0206   19.8486 C   0  0  0  0  0  0  0  0  0  0  0  0
    7.1300    0.0613   18.5194 C   0  0  0  0  0  0  0  0  0  0  0  0
    8.0366   -0.4880   18.2682 H   0  0  0  0  0  0  0  0  0  0  0  0
    6.5361    0.7083   17.5010 N   0  0  0  0  0  0  0  0  0  0  0  0
    5.3779    1.3434   17.7480 C   0  0  0  0  0  0  0  0  0  0  0  0
    4.9231    1.8668   16.9099 H   0  0  0  0  0  0  0  0  0  0  0  0
    4.7609    1.3282   19.0047 C   0  0  0  0  0  0  0  0  0  0  0  0
    3.8133    1.8434   19.1432 H   0  0  0  0  0  0  0  0  0  0  0  0
    5.3864    0.6499   20.0582 C   0  0  0  0  0  0  0  0  0  0  0  0
    4.9290    0.6058   21.0448 H   0  0  0  0  0  0  0  0  0  0  0  0
    9.6042    0.3016   20.7296 C   0  0  0  0  0  0  0  0  0  0  0  0
    9.4170    1.0579   19.9861 H   0  0  0  0  0  0  0  0  0  0  0  0
   10.8200    0.1242   21.2157 N   0  0  0  0  0  0  0  0  0  0  0  0
   10.6530   -0.8881   22.0845 N   0  0  0  0  0  0  0  0  0  0  0  0
   11.4222   -1.2012   22.6485 H   0  0  0  0  0  0  0  0  0  0  0  0
    9.8113   -3.5541   23.1790 C   0  0  0  0  0  0  0  0  0  0  0  0
   10.7450   -3.4332   22.6266 H   0  0  0  0  0  0  0  0  0  0  0  0
    9.2012   -4.3237   22.6890 H   0  0  0  0  0  0  0  0  0  0  0  0
   10.1233   -4.0117   24.5991 C   0  0  0  0  0  0  0  0  0  0  0  0
   10.8770   -3.3287   25.0300 H   0  0  0  0  0  0  0  0  0  0  0  0
   10.5679   -5.0153   24.5511 H   0  0  0  0  0  0  0  0  0  0  0  0
  1  2  1  0
  2  3  1  0
  3  4  1  0
  3  5  1  0
  3  6  1  0
  6  7  1  0
  6  8  1  0
  6  9  1  0
  9 10  1  0
 10 11  1  0
 10 12  1  0
 10 13  1  0
 13 14  1  0
 13 15  1  0
 13 16  1  0
 16 17  1  0
 17 18  2  0
 18 19  1  0
 19 20  1  0
 19 21  1  0
 21 22  2  0
 22 23  1  0
 22 24  1  0
 24 25  2  0
 25 26  1  0
 25 27  1  0
 27 28  1  0
 27 29  2  0
 29 30  1  0
 18 31  1  0
 31 32  1  0
 31 33  2  0
 33 34  1  0
 34 35  1  0
 16 36  1  0
 36 37  1  0
 36 38  1  0
 36 39  1  0
 39 40  1  0
 39 41  1  0
 39  9  1  0
 34 17  1  0
 29 21  1  0
M  END
>  <cnnaffinity>  (1) 
-4.95287

>  <filename>  (1) 
OCCN1CCN(c2[nH]ncc2Nc2cccnc2)CC1

$$$$
