
     RDKit          3D

 26 27  0  0  0  0  0  0  0  0999 V2000
    7.2539   -2.5426   20.7161 H   0  0  0  0  0  0  0  0  0  0  0  0
    7.9327   -1.8483   20.6399 O   0  0  0  0  0  0  0  0  0  0  0  0
    7.3130   -0.6554   20.9828 N   0  0  0  0  0  0  0  0  0  0  0  0
    7.5304   -0.1404   22.2726 C   0  0  0  0  0  0  0  0  0  0  0  0
    7.2675    1.1546   22.4480 N   0  0  0  0  0  0  0  0  0  0  0  0
    7.4493    1.6903   23.6638 C   0  0  0  0  0  0  0  0  0  0  0  0
    7.1636    3.1979   23.8547 C   0  0  0  0  0  0  0  0  0  0  0  0
    6.7376    3.8309   22.7588 F   0  0  0  0  0  0  0  0  0  0  0  0
    6.2326    3.3953   24.8131 F   0  0  0  0  0  0  0  0  0  0  0  0
    8.2641    3.8447   24.2927 F   0  0  0  0  0  0  0  0  0  0  0  0
    7.8634    0.9353   24.7695 C   0  0  0  0  0  0  0  0  0  0  0  0
    7.9825    1.3972   25.7424 H   0  0  0  0  0  0  0  0  0  0  0  0
    8.1170   -0.4299   24.5871 C   0  0  0  0  0  0  0  0  0  0  0  0
    8.4428   -1.0527   25.4176 H   0  0  0  0  0  0  0  0  0  0  0  0
    7.9596   -0.9830   23.3239 C   0  0  0  0  0  0  0  0  0  0  0  0
    8.1383   -2.0273   23.1086 H   0  0  0  0  0  0  0  0  0  0  0  0
    6.6633    0.0179   19.9201 C   0  0  0  0  0  0  0  0  0  0  0  0
    7.1780    0.0429   18.5991 C   0  0  0  0  0  0  0  0  0  0  0  0
    8.1251   -0.4398   18.3751 H   0  0  0  0  0  0  0  0  0  0  0  0
    6.5702    0.6671   17.5838 N   0  0  0  0  0  0  0  0  0  0  0  0
    5.4058    1.2894   17.8347 C   0  0  0  0  0  0  0  0  0  0  0  0
    4.9208    1.7830   16.9928 H   0  0  0  0  0  0  0  0  0  0  0  0
    4.8019    1.2994   19.0972 C   0  0  0  0  0  0  0  0  0  0  0  0
    3.8751    1.8412   19.2581 H   0  0  0  0  0  0  0  0  0  0  0  0
    5.4328    0.6489   20.1594 C   0  0  0  0  0  0  0  0  0  0  0  0
    5.0176    0.6431   21.1683 H   0  0  0  0  0  0  0  0  0  0  0  0
  1  2  1  0
  2  3  1  0
  3  4  1  0
  4  5  2  0
  5  6  1  0
  6  7  1  0
  7  8  1  0
  7  9  1  0
  7 10  1  0
  6 11  2  0
 11 12  1  0
 11 13  1  0
 13 14  1  0
 13 15  2  0
 15 16  1  0
  3 17  1  0
 17 18  2  0
 18 19  1  0
 18 20  1  0
 20 21  2  0
 21 22  1  0
 21 23  1  0
 23 24  1  0
 23 25  2  0
 25 26  1  0
 15  4  1  0
 25 17  1  0
M  END
>  <cnnaffinity>  (1) 
-4.78743

>  <filename>  (1) 
ON(c1cccnc1)c1cccc(C(F)(F)F)n1

$$$$
