
     RDKit          3D

 19 20  0  0  0  0  0  0  0  0999 V2000
    5.1080   -1.6103   22.4092 H   0  0  0  0  0  0  0  0  0  0  0  0
    5.7090   -2.1713   21.8779 O   0  0  0  0  0  0  0  0  0  0  0  0
    6.9515   -1.5726   21.9013 N   0  0  0  0  0  0  0  0  0  0  0  0
    7.9911   -1.9621   22.7016 C   0  0  0  0  0  0  0  0  0  0  0  0
    7.8552   -2.6080   23.5635 H   0  0  0  0  0  0  0  0  0  0  0  0
    9.1246   -1.4539   22.2803 N   0  0  0  0  0  0  0  0  0  0  0  0
    8.8089   -0.7493   21.1501 C   0  0  0  0  0  0  0  0  0  0  0  0
    9.5628   -0.2268   20.5740 H   0  0  0  0  0  0  0  0  0  0  0  0
    7.4632   -0.7915   20.8767 C   0  0  0  0  0  0  0  0  0  0  0  0
    6.6658   -0.0850   19.8491 C   0  0  0  0  0  0  0  0  0  0  0  0
    7.1612    0.0241   18.5310 C   0  0  0  0  0  0  0  0  0  0  0  0
    8.1069   -0.4484   18.2686 H   0  0  0  0  0  0  0  0  0  0  0  0
    6.5556    0.6890   17.5391 N   0  0  0  0  0  0  0  0  0  0  0  0
    5.4006    1.3069   17.8274 C   0  0  0  0  0  0  0  0  0  0  0  0
    4.9107    1.8313   17.0067 H   0  0  0  0  0  0  0  0  0  0  0  0
    4.8229    1.2863   19.1001 C   0  0  0  0  0  0  0  0  0  0  0  0
    3.8969    1.8239   19.2685 H   0  0  0  0  0  0  0  0  0  0  0  0
    5.4617    0.5879   20.1279 C   0  0  0  0  0  0  0  0  0  0  0  0
    5.0508    0.6102   21.1376 H   0  0  0  0  0  0  0  0  0  0  0  0
  1  2  1  0
  2  3  1  0
  3  4  1  0
  4  5  1  0
  4  6  2  0
  6  7  1  0
  7  8  1  0
  7  9  2  0
  9 10  1  0
 10 11  2  0
 11 12  1  0
 11 13  1  0
 13 14  2  0
 14 15  1  0
 14 16  1  0
 16 17  1  0
 16 18  2  0
 18 19  1  0
  9  3  1  0
 18 10  1  0
M  END
>  <cnnaffinity>  (1) 
-4.14511

>  <filename>  (1) 
On1cncc1-c1cccnc1

$$$$
