
     RDKit          3D

 38 41  0  0  0  0  0  0  0  0999 V2000
    4.9653    1.7882   16.8924 H   0  0  0  0  0  0  0  0  0  0  0  0
    5.4535    1.3294   17.7474 C   0  0  0  0  0  0  0  0  0  0  0  0
    6.6279    0.7232   17.5127 N   0  0  0  0  0  0  0  0  0  0  0  0
    7.2419    0.1358   18.5458 C   0  0  0  0  0  0  0  0  0  0  0  0
    8.1846   -0.3578   18.3182 H   0  0  0  0  0  0  0  0  0  0  0  0
    6.7199    0.1089   19.8513 C   0  0  0  0  0  0  0  0  0  0  0  0
    7.3798   -0.6757   20.9129 C   0  0  0  0  0  0  0  0  0  0  0  0
    8.5742   -1.2672   20.7342 N   0  0  0  0  0  0  0  0  0  0  0  0
    8.7196   -1.9873   21.8680 N   0  0  0  0  0  0  0  0  0  0  0  0
    9.6775   -2.8530   22.3791 C   0  0  0  0  0  0  0  0  0  0  0  0
   10.6475   -2.9249   21.9156 H   0  0  0  0  0  0  0  0  0  0  0  0
    9.1261   -3.4180   23.4823 C   0  0  0  0  0  0  0  0  0  0  0  0
    9.4772   -4.1882   24.1568 H   0  0  0  0  0  0  0  0  0  0  0  0
    7.8698   -2.8598   23.6741 N   0  0  0  0  0  0  0  0  0  0  0  0
    6.9682   -3.2543   24.6331 N   0  0  0  0  0  0  0  0  0  0  0  0
    6.4804   -4.1172   24.4189 H   0  0  0  0  0  0  0  0  0  0  0  0
    6.1662   -2.3598   25.3090 C   0  0  0  0  0  0  0  0  0  0  0  0
    6.4102   -0.7301   25.4658 S   0  0  0  0  0  0  0  0  0  0  0  0
    5.0702   -2.9426   25.8766 N   0  0  0  0  0  0  0  0  0  0  0  0
    4.4265   -2.2327   26.1953 H   0  0  0  0  0  0  0  0  0  0  0  0
    4.8577   -4.2697   26.3303 C   0  0  0  0  0  0  0  0  0  0  0  0
    5.9048   -5.0867   26.7880 C   0  0  0  0  0  0  0  0  0  0  0  0
    6.9178   -4.6971   26.7980 H   0  0  0  0  0  0  0  0  0  0  0  0
    5.6200   -6.3719   27.2666 C   0  0  0  0  0  0  0  0  0  0  0  0
    6.4328   -6.9965   27.6290 H   0  0  0  0  0  0  0  0  0  0  0  0
    4.3068   -6.8535   27.2787 C   0  0  0  0  0  0  0  0  0  0  0  0
    4.0972   -7.8603   27.6314 H   0  0  0  0  0  0  0  0  0  0  0  0
    3.2694   -6.0356   26.8164 C   0  0  0  0  0  0  0  0  0  0  0  0
    2.2431   -6.3920   26.8294 H   0  0  0  0  0  0  0  0  0  0  0  0
    3.5413   -4.7480   26.3479 C   0  0  0  0  0  0  0  0  0  0  0  0
    2.7519   -4.1000   25.9788 H   0  0  0  0  0  0  0  0  0  0  0  0
    7.6590   -1.9200   22.6946 C   0  0  0  0  0  0  0  0  0  0  0  0
    6.7983   -0.9711   22.1645 C   0  0  0  0  0  0  0  0  0  0  0  0
    6.0046   -0.4387   22.6516 H   0  0  0  0  0  0  0  0  0  0  0  0
    5.4949    0.7589   20.0764 C   0  0  0  0  0  0  0  0  0  0  0  0
    5.0491    0.7767   21.0713 H   0  0  0  0  0  0  0  0  0  0  0  0
    4.8485    1.3700   19.0065 C   0  0  0  0  0  0  0  0  0  0  0  0
    3.8955    1.8688   19.1385 H   0  0  0  0  0  0  0  0  0  0  0  0
  1  2  1  0
  2  3  2  0
  3  4  1  0
  4  5  1  0
  4  6  2  0
  6  7  1  0
  7  8  2  0
  8  9  1  0
  9 10  1  0
 10 11  1  0
 10 12  2  0
 12 13  1  0
 12 14  1  0
 14 15  1  0
 15 16  1  0
 15 17  1  0
 17 18  2  0
 17 19  1  0
 19 20  1  0
 19 21  1  0
 21 22  2  0
 22 23  1  0
 22 24  1  0
 24 25  1  0
 24 26  2  0
 26 27  1  0
 26 28  1  0
 28 29  1  0
 28 30  2  0
 30 31  1  0
 14 32  1  0
 32 33  2  0
 33 34  1  0
  6 35  1  0
 35 36  1  0
 35 37  2  0
 37 38  1  0
 37  2  1  0
 33  7  1  0
 32  9  1  0
 30 21  1  0
M  END
>  <cnnaffinity>  (1) 
-5.65428

>  <filename>  (1) 
S=C(Nc1ccccc1)Nn1ccn2nc(-c3cccnc3)cc12

$$$$
