
     RDKit          3D

 37 40  0  0  0  0  0  0  0  0999 V2000
    5.0240    1.8003   16.9228 H   0  0  0  0  0  0  0  0  0  0  0  0
    5.4425    1.2810   17.7815 C   0  0  0  0  0  0  0  0  0  0  0  0
    6.5809    0.6056   17.5640 N   0  0  0  0  0  0  0  0  0  0  0  0
    7.1349   -0.0277   18.6011 C   0  0  0  0  0  0  0  0  0  0  0  0
    8.0544   -0.5745   18.4028 H   0  0  0  0  0  0  0  0  0  0  0  0
    6.6028   -0.0033   19.9035 C   0  0  0  0  0  0  0  0  0  0  0  0
    7.3369   -0.6410   20.9970 C   0  0  0  0  0  0  0  0  0  0  0  0
    8.1892   -1.7092   20.8170 N   0  0  0  0  0  0  0  0  0  0  0  0
    8.6141   -1.9803   22.0170 C   0  0  0  0  0  0  0  0  0  0  0  0
    9.7078   -3.1418   22.7125 S   0  0  0  0  0  0  0  0  0  0  0  0
    9.5140   -2.4025   24.2841 C   0  0  0  0  0  0  0  0  0  0  0  0
   10.0780   -2.7979   25.1154 H   0  0  0  0  0  0  0  0  0  0  0  0
    8.6715   -1.3600   24.2675 C   0  0  0  0  0  0  0  0  0  0  0  0
    8.4107   -0.7167   25.1032 H   0  0  0  0  0  0  0  0  0  0  0  0
    8.1379   -1.1435   22.9949 N   0  0  0  0  0  0  0  0  0  0  0  0
    7.3039   -0.2619   22.3311 C   0  0  0  0  0  0  0  0  0  0  0  0
    6.6359    0.7828   22.9629 N   0  0  0  0  0  0  0  0  0  0  0  0
    6.7760    1.7100   22.5933 H   0  0  0  0  0  0  0  0  0  0  0  0
    6.2641    0.9064   24.2847 C   0  0  0  0  0  0  0  0  0  0  0  0
    6.2260    2.4078   24.9717 S   0  0  0  0  0  0  0  0  0  0  0  0
    5.9197   -0.2613   24.8441 N   0  0  0  0  0  0  0  0  0  0  0  0
    5.8170   -1.0198   24.1882 H   0  0  0  0  0  0  0  0  0  0  0  0
    5.8324   -0.5487   26.2198 C   0  0  0  0  0  0  0  0  0  0  0  0
    6.6870    0.0789   27.1361 C   0  0  0  0  0  0  0  0  0  0  0  0
    7.4374    0.7774   26.7811 H   0  0  0  0  0  0  0  0  0  0  0  0
    6.5247   -0.1581   28.5023 C   0  0  0  0  0  0  0  0  0  0  0  0
    7.1582    0.3653   29.2153 H   0  0  0  0  0  0  0  0  0  0  0  0
    5.5505   -1.0602   28.9494 C   0  0  0  0  0  0  0  0  0  0  0  0
    5.4374   -1.2472   30.0134 H   0  0  0  0  0  0  0  0  0  0  0  0
    4.7298   -1.7183   28.0251 C   0  0  0  0  0  0  0  0  0  0  0  0
    3.9758   -2.4273   28.3649 H   0  0  0  0  0  0  0  0  0  0  0  0
    4.8754   -1.4667   26.6561 C   0  0  0  0  0  0  0  0  0  0  0  0
    4.2401   -1.9507   25.9191 H   0  0  0  0  0  0  0  0  0  0  0  0
    5.3882    0.6801   20.1070 C   0  0  0  0  0  0  0  0  0  0  0  0
    4.9267    0.7028   21.0962 H   0  0  0  0  0  0  0  0  0  0  0  0
    4.8008    1.3229   19.0234 C   0  0  0  0  0  0  0  0  0  0  0  0
    3.8749    1.8735   19.1297 H   0  0  0  0  0  0  0  0  0  0  0  0
  1  2  1  0
  2  3  2  0
  3  4  1  0
  4  5  1  0
  4  6  2  0
  6  7  1  0
  7  8  1  0
  8  9  2  0
  9 10  1  0
 10 11  1  0
 11 12  1  0
 11 13  2  0
 13 14  1  0
 13 15  1  0
 15 16  1  0
 16 17  1  0
 17 18  1  0
 17 19  1  0
 19 20  2  0
 19 21  1  0
 21 22  1  0
 21 23  1  0
 23 24  2  0
 24 25  1  0
 24 26  1  0
 26 27  1  0
 26 28  2  0
 28 29  1  0
 28 30  1  0
 30 31  1  0
 30 32  2  0
 32 33  1  0
  6 34  1  0
 34 35  1  0
 34 36  2  0
 36 37  1  0
 36  2  1  0
 16  7  2  0
 32 23  1  0
 15  9  1  0
M  END
>  <cnnaffinity>  (1) 
-5.54525

>  <filename>  (1) 
S=C(Nc1ccccc1)Nc1c(-c2cccnc2)nc2sccn12

$$$$
