
     RDKit          3D

 33 34  0  0  0  0  0  0  0  0999 V2000
    5.0351    1.8051   16.9133 H   0  0  0  0  0  0  0  0  0  0  0  0
    5.4490    1.3293   17.8006 C   0  0  0  0  0  0  0  0  0  0  0  0
    6.6107    0.6729   17.6559 N   0  0  0  0  0  0  0  0  0  0  0  0
    7.1360    0.0783   18.7378 C   0  0  0  0  0  0  0  0  0  0  0  0
    8.0624   -0.4754   18.5802 H   0  0  0  0  0  0  0  0  0  0  0  0
    6.5391    0.1213   20.0123 C   0  0  0  0  0  0  0  0  0  0  0  0
    7.2379   -0.6751   21.4621 S   0  0  0  0  0  0  0  0  0  0  0  0
    8.6676    0.3144   21.9628 C   0  0  0  0  0  0  0  0  0  0  0  0
   10.1325    0.0416   21.3197 S   0  0  0  0  0  0  0  0  0  0  0  0
    8.4538    1.2815   23.1231 C   0  0  0  0  0  0  0  0  0  0  0  0
    9.3968    1.8200   23.2714 H   0  0  0  0  0  0  0  0  0  0  0  0
    8.2803    0.6690   24.0191 H   0  0  0  0  0  0  0  0  0  0  0  0
    7.3225    2.3188   22.9746 C   0  0  0  0  0  0  0  0  0  0  0  0
    6.3673    1.7698   22.9273 H   0  0  0  0  0  0  0  0  0  0  0  0
    7.5210    3.1599   21.6947 C   0  0  0  0  0  0  0  0  0  0  0  0
    7.5212    2.4933   20.8242 H   0  0  0  0  0  0  0  0  0  0  0  0
    8.5264    3.6158   21.7424 H   0  0  0  0  0  0  0  0  0  0  0  0
    6.4647    4.2737   21.5434 C   0  0  0  0  0  0  0  0  0  0  0  0
    6.6585    4.9283   20.6841 H   0  0  0  0  0  0  0  0  0  0  0  0
    5.4801    3.8096   21.3715 H   0  0  0  0  0  0  0  0  0  0  0  0
    6.3935    5.1628   22.7869 C   0  0  0  0  0  0  0  0  0  0  0  0
    7.3421    5.7062   22.9162 H   0  0  0  0  0  0  0  0  0  0  0  0
    5.6123    5.9204   22.6526 H   0  0  0  0  0  0  0  0  0  0  0  0
    6.1521    4.3309   24.0471 C   0  0  0  0  0  0  0  0  0  0  0  0
    6.1335    4.9821   24.9299 H   0  0  0  0  0  0  0  0  0  0  0  0
    5.1683    3.8430   23.9694 H   0  0  0  0  0  0  0  0  0  0  0  0
    7.2443    3.2587   24.2027 C   0  0  0  0  0  0  0  0  0  0  0  0
    7.0666    2.6822   25.1201 H   0  0  0  0  0  0  0  0  0  0  0  0
    8.2109    3.7781   24.3235 H   0  0  0  0  0  0  0  0  0  0  0  0
    5.2972    0.7503   20.1308 C   0  0  0  0  0  0  0  0  0  0  0  0
    4.7694    0.7354   21.0824 H   0  0  0  0  0  0  0  0  0  0  0  0
    4.7490    1.3840   19.0115 C   0  0  0  0  0  0  0  0  0  0  0  0
    3.8020    1.9036   19.0644 H   0  0  0  0  0  0  0  0  0  0  0  0
  1  2  1  0
  2  3  2  0
  3  4  1  0
  4  5  1  0
  4  6  2  0
  6  7  1  0
  7  8  1  0
  8  9  2  0
  8 10  1  0
 10 11  1  0
 10 12  1  0
 10 13  1  0
 13 14  1  0
 13 15  1  0
 15 16  1  0
 15 17  1  0
 15 18  1  0
 18 19  1  0
 18 20  1  0
 18 21  1  0
 21 22  1  0
 21 23  1  0
 21 24  1  0
 24 25  1  0
 24 26  1  0
 24 27  1  0
 27 28  1  0
 27 29  1  0
  6 30  1  0
 30 31  1  0
 30 32  2  0
 32 33  1  0
 32  2  1  0
 27 13  1  0
M  END
>  <cnnaffinity>  (1) 
-5.15422

>  <filename>  (1) 
S=C(CC1CCCCC1)Sc1cccnc1

$$$$
