
     RDKit          3D

 35 37  0  0  0  0  0  0  0  0999 V2000
    5.0074    1.8271   16.9681 H   0  0  0  0  0  0  0  0  0  0  0  0
    5.4597    1.2880   17.7980 C   0  0  0  0  0  0  0  0  0  0  0  0
    6.5854    0.6090   17.5241 N   0  0  0  0  0  0  0  0  0  0  0  0
    7.1673   -0.0601   18.5294 C   0  0  0  0  0  0  0  0  0  0  0  0
    8.0755   -0.6097   18.2898 H   0  0  0  0  0  0  0  0  0  0  0  0
    6.6697   -0.0778   19.8452 C   0  0  0  0  0  0  0  0  0  0  0  0
    7.2505   -0.8026   20.8614 O   0  0  0  0  0  0  0  0  0  0  0  0
    8.6195   -0.7813   21.0326 C   0  0  0  0  0  0  0  0  0  0  0  0
    9.5978    0.1633   20.6538 C   0  0  0  0  0  0  0  0  0  0  0  0
    9.4698    1.0440   20.0474 H   0  0  0  0  0  0  0  0  0  0  0  0
   10.7944   -0.1632   21.1320 N   0  0  0  0  0  0  0  0  0  0  0  0
   10.5906   -1.3174   21.7975 N   0  0  0  0  0  0  0  0  0  0  0  0
   11.2892   -1.7670   22.3822 H   0  0  0  0  0  0  0  0  0  0  0  0
    9.3041   -1.7088   21.7791 C   0  0  0  0  0  0  0  0  0  0  0  0
    8.8058   -2.8460   22.4245 N   0  0  0  0  0  0  0  0  0  0  0  0
    7.8390   -3.0586   22.2224 H   0  0  0  0  0  0  0  0  0  0  0  0
    9.2898   -3.4860   23.5151 C   0  0  0  0  0  0  0  0  0  0  0  0
   10.7959   -3.2960   24.1907 S   0  0  0  0  0  0  0  0  0  0  0  0
    8.4496   -4.3866   24.0764 N   0  0  0  0  0  0  0  0  0  0  0  0
    8.8504   -4.7227   24.9401 H   0  0  0  0  0  0  0  0  0  0  0  0
    7.0990   -4.7403   23.7775 C   0  0  0  0  0  0  0  0  0  0  0  0
    6.0324   -3.8493   23.9571 C   0  0  0  0  0  0  0  0  0  0  0  0
    6.2413   -2.8110   24.2083 H   0  0  0  0  0  0  0  0  0  0  0  0
    4.7181   -4.3231   23.8455 C   0  0  0  0  0  0  0  0  0  0  0  0
    3.8962   -3.6426   24.0352 H   0  0  0  0  0  0  0  0  0  0  0  0
    4.4653   -5.6525   23.4965 C   0  0  0  0  0  0  0  0  0  0  0  0
    3.4451   -6.0187   23.4351 H   0  0  0  0  0  0  0  0  0  0  0  0
    5.5369   -6.5138   23.2380 C   0  0  0  0  0  0  0  0  0  0  0  0
    5.3448   -7.5382   22.9260 H   0  0  0  0  0  0  0  0  0  0  0  0
    6.8478   -6.0593   23.3868 C   0  0  0  0  0  0  0  0  0  0  0  0
    7.6969   -6.7160   23.2096 H   0  0  0  0  0  0  0  0  0  0  0  0
    5.4799    0.6098   20.1175 C   0  0  0  0  0  0  0  0  0  0  0  0
    5.0591    0.5890   21.1225 H   0  0  0  0  0  0  0  0  0  0  0  0
    4.8731    1.3117   19.0698 C   0  0  0  0  0  0  0  0  0  0  0  0
    3.9608    1.8809   19.2282 H   0  0  0  0  0  0  0  0  0  0  0  0
  1  2  1  0
  2  3  2  0
  3  4  1  0
  4  5  1  0
  4  6  2  0
  6  7  1  0
  7  8  1  0
  8  9  1  0
  9 10  1  0
  9 11  2  0
 11 12  1  0
 12 13  1  0
 12 14  1  0
 14 15  1  0
 15 16  1  0
 15 17  1  0
 17 18  2  0
 17 19  1  0
 19 20  1  0
 19 21  1  0
 21 22  2  0
 22 23  1  0
 22 24  1  0
 24 25  1  0
 24 26  2  0
 26 27  1  0
 26 28  1  0
 28 29  1  0
 28 30  2  0
 30 31  1  0
  6 32  1  0
 32 33  1  0
 32 34  2  0
 34 35  1  0
 34  2  1  0
 14  8  2  0
 30 21  1  0
M  END
>  <cnnaffinity>  (1) 
-5.64717

>  <filename>  (1) 
S=C(Nc1ccccc1)Nc1[nH]ncc1Oc1cccnc1

$$$$
