
     RDKit          3D

 31 34  0  0  0  0  0  0  0  0999 V2000
    4.9282    1.7975   16.9872 H   0  0  0  0  0  0  0  0  0  0  0  0
    5.3980    1.2966   17.8318 C   0  0  0  0  0  0  0  0  0  0  0  0
    6.5616    0.6784   17.5735 N   0  0  0  0  0  0  0  0  0  0  0  0
    7.1578    0.0465   18.5876 C   0  0  0  0  0  0  0  0  0  0  0  0
    8.1064   -0.4374   18.3594 H   0  0  0  0  0  0  0  0  0  0  0  0
    6.6380    0.0076   19.8902 C   0  0  0  0  0  0  0  0  0  0  0  0
    7.3838   -0.7160   20.9179 C   0  0  0  0  0  0  0  0  0  0  0  0
    7.9814   -1.8487   20.7002 N   0  0  0  0  0  0  0  0  0  0  0  0
    8.4843   -2.1864   21.9155 N   0  0  0  0  0  0  0  0  0  0  0  0
    9.0263   -3.0229   22.0781 H   0  0  0  0  0  0  0  0  0  0  0  0
    8.2585   -1.2882   22.8879 C   0  0  0  0  0  0  0  0  0  0  0  0
    8.8055   -1.4031   24.4520 S   0  0  0  0  0  0  0  0  0  0  0  0
    7.5201   -0.3143   22.2369 N   0  0  0  0  0  0  0  0  0  0  0  0
    7.1173    0.9381   22.8183 C   0  0  0  0  0  0  0  0  0  0  0  0
    7.5231    2.1547   22.2005 C   0  0  0  0  0  0  0  0  0  0  0  0
    8.0967    2.0992   21.2803 H   0  0  0  0  0  0  0  0  0  0  0  0
    7.1567    3.3792   22.7340 C   0  0  0  0  0  0  0  0  0  0  0  0
    7.4393    4.3126   22.2606 H   0  0  0  0  0  0  0  0  0  0  0  0
    6.3795    3.3680   23.9163 C   0  0  0  0  0  0  0  0  0  0  0  0
    5.9788    2.1651   24.5399 C   0  0  0  0  0  0  0  0  0  0  0  0
    5.2449    2.5960   25.6897 C   0  0  0  0  0  0  0  0  0  0  0  0
    4.7676    1.9909   26.4509 H   0  0  0  0  0  0  0  0  0  0  0  0
    5.1891    3.9103   25.7603 N   0  0  0  0  0  0  0  0  0  0  0  0
    5.8734    4.3700   24.6885 N   0  0  0  0  0  0  0  0  0  0  0  0
    5.9527    5.3626   24.5340 H   0  0  0  0  0  0  0  0  0  0  0  0
    6.3537    0.9210   23.9707 C   0  0  0  0  0  0  0  0  0  0  0  0
    6.0924   -0.0335   24.4172 H   0  0  0  0  0  0  0  0  0  0  0  0
    5.4207    0.6510   20.1481 C   0  0  0  0  0  0  0  0  0  0  0  0
    5.0174    0.6534   21.1643 H   0  0  0  0  0  0  0  0  0  0  0  0
    4.7924    1.3090   19.0949 C   0  0  0  0  0  0  0  0  0  0  0  0
    3.8641    1.8475   19.2413 H   0  0  0  0  0  0  0  0  0  0  0  0
  1  2  1  0
  2  3  2  0
  3  4  1  0
  4  5  1  0
  4  6  2  0
  6  7  1  0
  7  8  2  0
  8  9  1  0
  9 10  1  0
  9 11  1  0
 11 12  2  0
 11 13  1  0
 13 14  1  0
 14 15  2  0
 15 16  1  0
 15 17  1  0
 17 18  1  0
 17 19  2  0
 19 20  1  0
 20 21  1  0
 21 22  1  0
 21 23  2  0
 23 24  1  0
 24 25  1  0
 20 26  2  0
 26 27  1  0
  6 28  1  0
 28 29  1  0
 28 30  2  0
 30 31  1  0
 30  2  1  0
 13  7  1  0
 26 14  1  0
 24 19  1  0
M  END
>  <cnnaffinity>  (1) 
-5.21508

>  <filename>  (1) 
S=c1[nH]nc(-c2cccnc2)n1-c1ccc2[nH]ncc2c1

$$$$
