
     RDKit          3D

 36 39  0  0  0  0  0  0  0  0999 V2000
    7.0032    0.8485   22.4946 H   0  0  0  0  0  0  0  0  0  0  0  0
    7.2717   -0.1683   22.2713 C   0  0  0  0  0  0  0  0  0  0  0  0
    7.1497   -0.6701   21.0317 C   0  0  0  0  0  0  0  0  0  0  0  0
    6.5376    0.0172   19.8837 C   0  0  0  0  0  0  0  0  0  0  0  0
    7.1421   -0.0197   18.6141 C   0  0  0  0  0  0  0  0  0  0  0  0
    8.0941   -0.5311   18.4786 H   0  0  0  0  0  0  0  0  0  0  0  0
    6.6422    0.5782   17.5274 N   0  0  0  0  0  0  0  0  0  0  0  0
    5.4935    1.2564   17.6724 C   0  0  0  0  0  0  0  0  0  0  0  0
    5.1012    1.7212   16.7701 H   0  0  0  0  0  0  0  0  0  0  0  0
    4.8129    1.3700   18.8897 C   0  0  0  0  0  0  0  0  0  0  0  0
    3.8991    1.9498   18.9370 H   0  0  0  0  0  0  0  0  0  0  0  0
    5.3491    0.7524   20.0203 C   0  0  0  0  0  0  0  0  0  0  0  0
    4.8589    0.8311   20.9927 H   0  0  0  0  0  0  0  0  0  0  0  0
    7.6447   -1.9532   20.7963 N   0  0  0  0  0  0  0  0  0  0  0  0
    7.4990   -2.4059   19.9132 H   0  0  0  0  0  0  0  0  0  0  0  0
    7.9060   -2.8485   21.7821 C   0  0  0  0  0  0  0  0  0  0  0  0
    8.0655   -4.4674   21.4718 S   0  0  0  0  0  0  0  0  0  0  0  0
    8.0090   -2.3386   23.0193 N   0  0  0  0  0  0  0  0  0  0  0  0
    8.3281   -3.0069   23.6945 H   0  0  0  0  0  0  0  0  0  0  0  0
    8.0396   -0.9075   23.3245 C   0  0  1  0  0  0  0  0  0  0  0  0
    7.5718   -0.7527   24.3086 H   0  0  0  0  0  0  0  0  0  0  0  0
    9.4637   -0.3606   23.4732 C   0  0  0  0  0  0  0  0  0  0  0  0
    9.8405    0.7788   24.1362 C   0  0  0  0  0  0  0  0  0  0  0  0
    9.2543    1.3302   24.8611 H   0  0  0  0  0  0  0  0  0  0  0  0
   11.1760    1.0874   23.7358 C   0  0  0  0  0  0  0  0  0  0  0  0
   12.0435    2.1654   24.0026 C   0  0  0  0  0  0  0  0  0  0  0  0
   11.7077    3.0030   24.6085 H   0  0  0  0  0  0  0  0  0  0  0  0
   13.3288    2.1296   23.4834 C   0  0  0  0  0  0  0  0  0  0  0  0
   13.9802    2.9723   23.6711 H   0  0  0  0  0  0  0  0  0  0  0  0
   13.7725    1.0363   22.6948 C   0  0  0  0  0  0  0  0  0  0  0  0
   14.7954    1.0213   22.3210 H   0  0  0  0  0  0  0  0  0  0  0  0
   12.9165   -0.0126   22.3762 C   0  0  0  0  0  0  0  0  0  0  0  0
   13.2582   -0.8560   21.7828 H   0  0  0  0  0  0  0  0  0  0  0  0
   11.6025    0.0374   22.8834 C   0  0  0  0  0  0  0  0  0  0  0  0
   10.5392   -0.8272   22.7455 N   0  0  0  0  0  0  0  0  0  0  0  0
   10.5211   -1.6098   22.1134 H   0  0  0  0  0  0  0  0  0  0  0  0
  1  2  1  0
  2  3  2  0
  3  4  1  0
  4  5  2  0
  5  6  1  0
  5  7  1  0
  7  8  2  0
  8  9  1  0
  8 10  1  0
 10 11  1  0
 10 12  2  0
 12 13  1  0
  3 14  1  0
 14 15  1  0
 14 16  1  0
 16 17  2  0
 16 18  1  0
 18 19  1  0
 18 20  1  0
 20 21  1  1
 20 22  1  0
 22 23  2  0
 23 24  1  0
 23 25  1  0
 25 26  2  0
 26 27  1  0
 26 28  1  0
 28 29  1  0
 28 30  2  0
 30 31  1  0
 30 32  1  0
 32 33  1  0
 32 34  2  0
 34 35  1  0
 35 36  1  0
 20  2  1  0
 35 22  1  0
 12  4  1  0
 34 25  1  0
M  END
>  <cnnaffinity>  (1) 
-5.36319

>  <filename>  (1) 
S=C1NC(c2cccnc2)=C[C@H](c2cc3ccccc3[nH]2)N1

$$$$
