
     RDKit          3D

 19 20  0  0  0  0  0  0  0  0999 V2000
    4.8839    1.8044   17.0126 H   0  0  0  0  0  0  0  0  0  0  0  0
    5.3987    1.2952   17.8231 C   0  0  0  0  0  0  0  0  0  0  0  0
    6.5697    0.6862   17.5659 N   0  0  0  0  0  0  0  0  0  0  0  0
    7.1935    0.0714   18.5909 C   0  0  0  0  0  0  0  0  0  0  0  0
    8.1357   -0.4306   18.4015 H   0  0  0  0  0  0  0  0  0  0  0  0
    6.6751    0.0101   19.9024 C   0  0  0  0  0  0  0  0  0  0  0  0
    7.3597   -0.6430   20.9348 N   0  0  0  0  0  0  0  0  0  0  0  0
    8.7325   -0.5245   21.1994 C   0  0  0  0  0  0  0  0  0  0  0  0
    9.4295    0.1230   20.6658 H   0  0  0  0  0  0  0  0  0  0  0  0
    9.0396   -1.3438   22.2573 C   0  0  0  0  0  0  0  0  0  0  0  0
   10.7609   -1.5830   23.0645 Br  0  0  0  0  0  0  0  0  0  0  0  0
    7.8559   -1.9603   22.6490 N   0  0  0  0  0  0  0  0  0  0  0  0
    7.7723   -2.6923   23.3452 H   0  0  0  0  0  0  0  0  0  0  0  0
    6.8256   -1.6028   21.8006 C   0  0  0  0  0  0  0  0  0  0  0  0
    5.4550   -2.5431   21.5958 S   0  0  0  0  0  0  0  0  0  0  0  0
    5.4469    0.6297   20.1581 C   0  0  0  0  0  0  0  0  0  0  0  0
    5.0156    0.6189   21.1612 H   0  0  0  0  0  0  0  0  0  0  0  0
    4.8205    1.2941   19.0993 C   0  0  0  0  0  0  0  0  0  0  0  0
    3.8888    1.8241   19.2586 H   0  0  0  0  0  0  0  0  0  0  0  0
  1  2  1  0
  2  3  2  0
  3  4  1  0
  4  5  1  0
  4  6  2  0
  6  7  1  0
  7  8  1  0
  8  9  1  0
  8 10  2  0
 10 11  1  0
 10 12  1  0
 12 13  1  0
 12 14  1  0
 14 15  2  0
  6 16  1  0
 16 17  1  0
 16 18  2  0
 18 19  1  0
 18  2  1  0
 14  7  1  0
M  END
>  <cnnaffinity>  (1) 
-4.62859

>  <filename>  (1) 
S=c1[nH]c(Br)cn1-c1cccnc1

$$$$
