
     RDKit          3D

 28 30  0  0  0  0  0  0  0  0999 V2000
    4.9319    1.8004   16.9950 H   0  0  0  0  0  0  0  0  0  0  0  0
    5.3964    1.2909   17.8322 C   0  0  0  0  0  0  0  0  0  0  0  0
    6.5514    0.6609   17.5620 N   0  0  0  0  0  0  0  0  0  0  0  0
    7.1706    0.0458   18.5761 C   0  0  0  0  0  0  0  0  0  0  0  0
    8.1254   -0.4331   18.3610 H   0  0  0  0  0  0  0  0  0  0  0  0
    6.6515    0.0040   19.8859 C   0  0  0  0  0  0  0  0  0  0  0  0
    7.3365   -0.6777   20.9378 N   0  0  0  0  0  0  0  0  0  0  0  0
    6.7379   -1.5986   21.7868 C   0  0  0  0  0  0  0  0  0  0  0  0
    5.6879   -1.8302   21.6848 H   0  0  0  0  0  0  0  0  0  0  0  0
    7.6787   -2.0602   22.6464 C   0  0  0  0  0  0  0  0  0  0  0  0
    7.5630   -3.0097   23.7662 C   0  0  0  0  0  0  0  0  0  0  0  0
    6.2949   -3.2958   24.2945 C   0  0  0  0  0  0  0  0  0  0  0  0
    5.4129   -2.8009   23.9105 H   0  0  0  0  0  0  0  0  0  0  0  0
    6.1762   -4.2159   25.3356 C   0  0  0  0  0  0  0  0  0  0  0  0
    5.1971   -4.4581   25.7490 H   0  0  0  0  0  0  0  0  0  0  0  0
    7.2196   -4.8536   25.8805 N   0  0  0  0  0  0  0  0  0  0  0  0
    8.4345   -4.5740   25.3877 C   0  0  0  0  0  0  0  0  0  0  0  0
    9.2668   -5.1030   25.8528 H   0  0  0  0  0  0  0  0  0  0  0  0
    8.6593   -3.6734   24.3440 C   0  0  0  0  0  0  0  0  0  0  0  0
    9.6714   -3.5168   23.9924 H   0  0  0  0  0  0  0  0  0  0  0  0
    8.8508   -1.4040   22.2913 N   0  0  0  0  0  0  0  0  0  0  0  0
    9.7527   -1.3902   22.7340 H   0  0  0  0  0  0  0  0  0  0  0  0
    8.6564   -0.5067   21.2966 C   0  0  0  0  0  0  0  0  0  0  0  0
    9.8135    0.5584   20.7747 S   0  0  0  0  0  0  0  0  0  0  0  0
    5.4398    0.6475   20.1523 C   0  0  0  0  0  0  0  0  0  0  0  0
    5.0333    0.6343   21.1662 H   0  0  0  0  0  0  0  0  0  0  0  0
    4.8044    1.3114   19.1009 C   0  0  0  0  0  0  0  0  0  0  0  0
    3.8734    1.8445   19.2597 H   0  0  0  0  0  0  0  0  0  0  0  0
  1  2  1  0
  2  3  2  0
  3  4  1  0
  4  5  1  0
  4  6  2  0
  6  7  1  0
  7  8  1  0
  8  9  1  0
  8 10  2  0
 10 11  1  0
 11 12  2  0
 12 13  1  0
 12 14  1  0
 14 15  1  0
 14 16  2  0
 16 17  1  0
 17 18  1  0
 17 19  2  0
 19 20  1  0
 10 21  1  0
 21 22  1  0
 21 23  1  0
 23 24  2  0
  6 25  1  0
 25 26  1  0
 25 27  2  0
 27 28  1  0
 27  2  1  0
 23  7  1  0
 19 11  1  0
M  END
>  <cnnaffinity>  (1) 
-5.27603

>  <filename>  (1) 
S=c1[nH]c(-c2ccncc2)cn1-c1cccnc1

$$$$
