
     RDKit          3D

 38 41  0  0  0  0  0  0  0  0999 V2000
    5.6476   -1.6736   21.7084 H   0  0  0  0  0  0  0  0  0  0  0  0
    6.7174   -1.5500   21.7839 C   0  0  0  0  0  0  0  0  0  0  0  0
    7.3823   -0.7225   20.9533 C   0  0  0  0  0  0  0  0  0  0  0  0
    6.7047    0.0445   19.9048 C   0  0  0  0  0  0  0  0  0  0  0  0
    7.2047    0.0851   18.5920 C   0  0  0  0  0  0  0  0  0  0  0  0
    8.1346   -0.4223   18.3388 H   0  0  0  0  0  0  0  0  0  0  0  0
    6.5739    0.6779   17.5724 N   0  0  0  0  0  0  0  0  0  0  0  0
    5.4101    1.2906   17.8380 C   0  0  0  0  0  0  0  0  0  0  0  0
    4.9277    1.7826   16.9969 H   0  0  0  0  0  0  0  0  0  0  0  0
    4.8200    1.3147   19.1081 C   0  0  0  0  0  0  0  0  0  0  0  0
    3.8790    1.8321   19.2552 H   0  0  0  0  0  0  0  0  0  0  0  0
    5.4676    0.6649   20.1585 C   0  0  0  0  0  0  0  0  0  0  0  0
    5.0331    0.6317   21.1608 H   0  0  0  0  0  0  0  0  0  0  0  0
    8.7656   -0.6040   21.0835 N   0  0  0  0  0  0  0  0  0  0  0  0
    9.3300    0.0536   20.5769 H   0  0  0  0  0  0  0  0  0  0  0  0
    9.5078   -1.3244   21.9563 C   0  0  0  0  0  0  0  0  0  0  0  0
   11.1512   -1.1418   22.0511 S   0  0  0  0  0  0  0  0  0  0  0  0
    8.8470   -2.2046   22.7274 N   0  0  0  0  0  0  0  0  0  0  0  0
    9.4622   -2.6063   23.4168 H   0  0  0  0  0  0  0  0  0  0  0  0
    7.3906   -2.1907   22.9427 C   0  0  1  0  0  0  0  0  0  0  0  0
    7.0735   -3.2417   23.0214 H   0  0  0  0  0  0  0  0  0  0  0  0
    6.9975   -1.5165   24.2758 C   0  0  0  0  0  0  0  0  0  0  0  0
    6.1978   -2.2245   25.2215 C   0  0  0  0  0  0  0  0  0  0  0  0
    5.8990   -3.2477   24.9944 H   0  0  0  0  0  0  0  0  0  0  0  0
    5.8004   -1.6277   26.3951 C   0  0  0  0  0  0  0  0  0  0  0  0
    5.1937   -2.1710   27.1158 H   0  0  0  0  0  0  0  0  0  0  0  0
    6.1771   -0.2802   26.6895 C   0  0  0  0  0  0  0  0  0  0  0  0
    5.7873    0.3739   27.8973 C   0  0  0  0  0  0  0  0  0  0  0  0
    5.1861   -0.1820   28.6129 H   0  0  0  0  0  0  0  0  0  0  0  0
    6.1677    1.6730   28.1464 C   0  0  0  0  0  0  0  0  0  0  0  0
    5.8682    2.1624   29.0690 H   0  0  0  0  0  0  0  0  0  0  0  0
    6.9582    2.3897   27.2009 C   0  0  0  0  0  0  0  0  0  0  0  0
    7.2504    3.4141   27.4150 H   0  0  0  0  0  0  0  0  0  0  0  0
    7.3494    1.7869   26.0262 C   0  0  0  0  0  0  0  0  0  0  0  0
    7.9528    2.3239   25.2958 H   0  0  0  0  0  0  0  0  0  0  0  0
    6.9734    0.4402   25.7402 C   0  0  0  0  0  0  0  0  0  0  0  0
    7.3645   -0.2128   24.5340 C   0  0  0  0  0  0  0  0  0  0  0  0
    7.9569    0.3436   23.8113 H   0  0  0  0  0  0  0  0  0  0  0  0
  1  2  1  0
  2  3  2  0
  3  4  1  0
  4  5  2  0
  5  6  1  0
  5  7  1  0
  7  8  2  0
  8  9  1  0
  8 10  1  0
 10 11  1  0
 10 12  2  0
 12 13  1  0
  3 14  1  0
 14 15  1  0
 14 16  1  0
 16 17  2  0
 16 18  1  0
 18 19  1  0
 18 20  1  0
 20 21  1  1
 20 22  1  0
 22 23  2  0
 23 24  1  0
 23 25  1  0
 25 26  1  0
 25 27  2  0
 27 28  1  0
 28 29  1  0
 28 30  2  0
 30 31  1  0
 30 32  1  0
 32 33  1  0
 32 34  2  0
 34 35  1  0
 34 36  1  0
 36 37  2  0
 37 38  1  0
 20  2  1  0
 37 22  1  0
 12  4  1  0
 36 27  1  0
M  END
>  <cnnaffinity>  (1) 
-5.21619

>  <filename>  (1) 
S=C1NC(c2cccnc2)=C[C@H](c2ccc3ccccc3c2)N1

$$$$
