
     RDKit          3D

 33 36  0  0  0  0  0  0  0  0999 V2000
    4.9281    1.7926   16.9961 H   0  0  0  0  0  0  0  0  0  0  0  0
    5.3965    1.2910   17.8375 C   0  0  0  0  0  0  0  0  0  0  0  0
    6.5535    0.6642   17.5729 N   0  0  0  0  0  0  0  0  0  0  0  0
    7.1713    0.0464   18.5849 C   0  0  0  0  0  0  0  0  0  0  0  0
    8.1259   -0.4318   18.3676 H   0  0  0  0  0  0  0  0  0  0  0  0
    6.6515    0.0034   19.8931 C   0  0  0  0  0  0  0  0  0  0  0  0
    7.3336   -0.6816   20.9393 N   0  0  0  0  0  0  0  0  0  0  0  0
    6.7400   -1.6046   21.7854 C   0  0  0  0  0  0  0  0  0  0  0  0
    5.6848   -1.8133   21.7227 H   0  0  0  0  0  0  0  0  0  0  0  0
    7.6742   -2.0596   22.6503 C   0  0  0  0  0  0  0  0  0  0  0  0
    7.5563   -3.0125   23.7567 C   0  0  0  0  0  0  0  0  0  0  0  0
    6.4288   -3.8845   23.7735 C   0  0  0  0  0  0  0  0  0  0  0  0
    5.7200   -3.8129   22.9533 H   0  0  0  0  0  0  0  0  0  0  0  0
    6.2192   -4.8039   24.7906 C   0  0  0  0  0  0  0  0  0  0  0  0
    5.3474   -5.4551   24.7818 H   0  0  0  0  0  0  0  0  0  0  0  0
    7.1782   -4.8447   25.8273 C   0  0  0  0  0  0  0  0  0  0  0  0
    8.3099   -3.9862   25.8447 C   0  0  0  0  0  0  0  0  0  0  0  0
    8.4862   -3.0682   24.8005 C   0  0  0  0  0  0  0  0  0  0  0  0
    9.3401   -2.3951   24.8289 H   0  0  0  0  0  0  0  0  0  0  0  0
    9.0561   -4.3059   27.0342 C   0  0  0  0  0  0  0  0  0  0  0  0
    9.9792   -3.8355   27.3443 H   0  0  0  0  0  0  0  0  0  0  0  0
    8.3839   -5.3054   27.6712 C   0  0  0  0  0  0  0  0  0  0  0  0
    8.6160   -5.8356   28.5860 H   0  0  0  0  0  0  0  0  0  0  0  0
    7.2520   -5.6286   26.9471 N   0  0  0  0  0  0  0  0  0  0  0  0
    6.5748   -6.3347   27.1797 H   0  0  0  0  0  0  0  0  0  0  0  0
    8.8412   -1.3895   22.3164 N   0  0  0  0  0  0  0  0  0  0  0  0
    9.7636   -1.4576   22.7130 H   0  0  0  0  0  0  0  0  0  0  0  0
    8.6530   -0.5142   21.3012 C   0  0  0  0  0  0  0  0  0  0  0  0
    9.8134    0.5229   20.7459 S   0  0  0  0  0  0  0  0  0  0  0  0
    5.4402    0.6463   20.1581 C   0  0  0  0  0  0  0  0  0  0  0  0
    5.0289    0.6317   21.1680 H   0  0  0  0  0  0  0  0  0  0  0  0
    4.8085    1.3102   19.1058 C   0  0  0  0  0  0  0  0  0  0  0  0
    3.8793    1.8399   19.2614 H   0  0  0  0  0  0  0  0  0  0  0  0
  1  2  1  0
  2  3  2  0
  3  4  1  0
  4  5  1  0
  4  6  2  0
  6  7  1  0
  7  8  1  0
  8  9  1  0
  8 10  2  0
 10 11  1  0
 11 12  2  0
 12 13  1  0
 12 14  1  0
 14 15  1  0
 14 16  2  0
 16 17  1  0
 17 18  2  0
 18 19  1  0
 17 20  1  0
 20 21  1  0
 20 22  2  0
 22 23  1  0
 22 24  1  0
 24 25  1  0
 10 26  1  0
 26 27  1  0
 26 28  1  0
 28 29  2  0
  6 30  1  0
 30 31  1  0
 30 32  2  0
 32 33  1  0
 32  2  1  0
 28  7  1  0
 18 11  1  0
 24 16  1  0
M  END
>  <cnnaffinity>  (1) 
-5.68156

>  <filename>  (1) 
S=c1[nH]c(-c2ccc3[nH]ccc3c2)cn1-c1cccnc1

$$$$
