
     RDKit          3D

 28 30  0  0  0  0  0  0  0  0999 V2000
    4.9175    1.8009   16.9704 H   0  0  0  0  0  0  0  0  0  0  0  0
    5.3919    1.3039   17.8167 C   0  0  0  0  0  0  0  0  0  0  0  0
    6.5570    0.6858   17.5616 N   0  0  0  0  0  0  0  0  0  0  0  0
    7.1707    0.0714   18.5817 C   0  0  0  0  0  0  0  0  0  0  0  0
    8.1072   -0.4225   18.3284 H   0  0  0  0  0  0  0  0  0  0  0  0
    6.6661    0.0172   19.8945 C   0  0  0  0  0  0  0  0  0  0  0  0
    7.3397   -0.7033   20.9792 C   0  0  0  0  0  0  0  0  0  0  0  0
    6.8253   -1.2295   22.1075 C   0  0  0  0  0  0  0  0  0  0  0  0
    5.8099   -1.2997   22.4171 H   0  0  0  0  0  0  0  0  0  0  0  0
    7.8483   -1.7904   22.8562 N   0  0  0  0  0  0  0  0  0  0  0  0
    7.6400   -2.4567   24.1031 C   0  0  0  0  0  0  0  0  0  0  0  0
    6.8195   -1.8991   25.1054 C   0  0  0  0  0  0  0  0  0  0  0  0
    6.3140   -0.9442   24.9592 H   0  0  0  0  0  0  0  0  0  0  0  0
    6.6345   -2.4735   26.2974 N   0  0  0  0  0  0  0  0  0  0  0  0
    7.2448   -3.6399   26.5377 C   0  0  0  0  0  0  0  0  0  0  0  0
    7.0678   -4.0736   27.5193 H   0  0  0  0  0  0  0  0  0  0  0  0
    8.0602   -4.2795   25.5991 C   0  0  0  0  0  0  0  0  0  0  0  0
    8.5354   -5.2173   25.8537 H   0  0  0  0  0  0  0  0  0  0  0  0
    8.2659   -3.6821   24.3530 C   0  0  0  0  0  0  0  0  0  0  0  0
    8.9104   -4.1212   23.5900 H   0  0  0  0  0  0  0  0  0  0  0  0
    9.0458   -1.6070   22.1885 C   0  0  0  0  0  0  0  0  0  0  0  0
   10.6150   -1.9755   22.5837 S   0  0  0  0  0  0  0  0  0  0  0  0
    8.6941   -0.9743   21.0368 N   0  0  0  0  0  0  0  0  0  0  0  0
    9.4255   -0.6636   20.4205 H   0  0  0  0  0  0  0  0  0  0  0  0
    5.4395    0.6643   20.1339 C   0  0  0  0  0  0  0  0  0  0  0  0
    5.0093    0.6589   21.1350 H   0  0  0  0  0  0  0  0  0  0  0  0
    4.7979    1.3215   19.0832 C   0  0  0  0  0  0  0  0  0  0  0  0
    3.8641    1.8519   19.2329 H   0  0  0  0  0  0  0  0  0  0  0  0
  1  2  1  0
  2  3  2  0
  3  4  1  0
  4  5  1  0
  4  6  2  0
  6  7  1  0
  7  8  2  0
  8  9  1  0
  8 10  1  0
 10 11  1  0
 11 12  2  0
 12 13  1  0
 12 14  1  0
 14 15  2  0
 15 16  1  0
 15 17  1  0
 17 18  1  0
 17 19  2  0
 19 20  1  0
 10 21  1  0
 21 22  2  0
 21 23  1  0
 23 24  1  0
  6 25  1  0
 25 26  1  0
 25 27  2  0
 27 28  1  0
 27  2  1  0
 23  7  1  0
 19 11  1  0
M  END
>  <cnnaffinity>  (1) 
-5.46702

>  <filename>  (1) 
S=c1[nH]c(-c2cccnc2)cn1-c1cccnc1

$$$$
