
     RDKit          3D

 33 35  0  0  0  0  0  0  0  0999 V2000
    5.1924    1.8486   16.7840 H   0  0  0  0  0  0  0  0  0  0  0  0
    5.4950    1.3204   17.6855 C   0  0  0  0  0  0  0  0  0  0  0  0
    6.6362    0.6156   17.6036 N   0  0  0  0  0  0  0  0  0  0  0  0
    7.0500   -0.0299   18.7021 C   0  0  0  0  0  0  0  0  0  0  0  0
    7.9723   -0.6062   18.6397 H   0  0  0  0  0  0  0  0  0  0  0  0
    6.3490   -0.0014   19.9195 C   0  0  0  0  0  0  0  0  0  0  0  0
    6.8539   -0.6583   21.0881 N   0  0  0  0  0  0  0  0  0  0  0  0
    7.3884    0.0470   22.1731 C   0  0  0  0  0  0  0  0  0  0  0  0
    7.6446    1.0901   22.1073 H   0  0  0  0  0  0  0  0  0  0  0  0
    7.4769   -0.8332   23.1954 C   0  0  0  0  0  0  0  0  0  0  0  0
    7.8378   -0.6996   24.5226 N   0  0  0  0  0  0  0  0  0  0  0  0
    7.9736    0.2928   24.6737 H   0  0  0  0  0  0  0  0  0  0  0  0
    9.0435   -1.4276   24.9671 C   0  0  0  0  0  0  0  0  0  0  0  0
    8.8493   -2.5065   24.9706 H   0  0  0  0  0  0  0  0  0  0  0  0
    9.2013   -1.1641   26.0199 H   0  0  0  0  0  0  0  0  0  0  0  0
   10.2768   -1.1279   24.1247 C   0  0  0  0  0  0  0  0  0  0  0  0
   10.9532    0.1025   24.2083 C   0  0  0  0  0  0  0  0  0  0  0  0
   10.7110    0.8368   24.9699 H   0  0  0  0  0  0  0  0  0  0  0  0
   11.9781    0.3869   23.3049 C   0  0  0  0  0  0  0  0  0  0  0  0
   12.5062    1.3358   23.3623 H   0  0  0  0  0  0  0  0  0  0  0  0
   12.3959   -0.4626   22.3598 N   0  0  0  0  0  0  0  0  0  0  0  0
   11.7684   -1.6437   22.2888 C   0  0  0  0  0  0  0  0  0  0  0  0
   12.1523   -2.3235   21.5361 H   0  0  0  0  0  0  0  0  0  0  0  0
   10.7157   -2.0208   23.1326 C   0  0  0  0  0  0  0  0  0  0  0  0
   10.2380   -2.9915   23.0351 H   0  0  0  0  0  0  0  0  0  0  0  0
    7.0503   -2.0449   22.7407 N   0  0  0  0  0  0  0  0  0  0  0  0
    6.7802   -2.8054   23.3376 H   0  0  0  0  0  0  0  0  0  0  0  0
    6.6146   -1.9698   21.4532 C   0  0  0  0  0  0  0  0  0  0  0  0
    5.9268   -3.2191   20.6056 S   0  0  0  0  0  0  0  0  0  0  0  0
    5.1494    0.7159   19.9911 C   0  0  0  0  0  0  0  0  0  0  0  0
    4.5891    0.7366   20.9263 H   0  0  0  0  0  0  0  0  0  0  0  0
    4.7153    1.3896   18.8462 C   0  0  0  0  0  0  0  0  0  0  0  0
    3.7998    1.9727   18.8455 H   0  0  0  0  0  0  0  0  0  0  0  0
  1  2  1  0
  2  3  2  0
  3  4  1  0
  4  5  1  0
  4  6  2  0
  6  7  1  0
  7  8  1  0
  8  9  1  0
  8 10  2  0
 10 11  1  0
 11 12  1  0
 11 13  1  0
 13 14  1  0
 13 15  1  0
 13 16  1  0
 16 17  2  0
 17 18  1  0
 17 19  1  0
 19 20  1  0
 19 21  2  0
 21 22  1  0
 22 23  1  0
 22 24  2  0
 24 25  1  0
 10 26  1  0
 26 27  1  0
 26 28  1  0
 28 29  2  0
  6 30  1  0
 30 31  1  0
 30 32  2  0
 32 33  1  0
 32  2  1  0
 28  7  1  0
 24 16  1  0
M  END
>  <cnnaffinity>  (1) 
-5.46942

>  <filename>  (1) 
S=c1[nH]c(NCc2ccncc2)cn1-c1cccnc1

$$$$
