
     RDKit          3D

 34 36  0  0  0  0  0  0  0  0999 V2000
    5.6526   -1.6924   21.7357 H   0  0  0  0  0  0  0  0  0  0  0  0
    6.7133   -1.5503   21.8088 C   0  0  0  0  0  0  0  0  0  0  0  0
    7.3597   -0.7590   20.9390 C   0  0  0  0  0  0  0  0  0  0  0  0
    6.6978    0.0292   19.8787 C   0  0  0  0  0  0  0  0  0  0  0  0
    7.2130    0.0847   18.5703 C   0  0  0  0  0  0  0  0  0  0  0  0
    8.1566   -0.4104   18.3258 H   0  0  0  0  0  0  0  0  0  0  0  0
    6.5944    0.6990   17.5562 N   0  0  0  0  0  0  0  0  0  0  0  0
    5.4298    1.3136   17.8228 C   0  0  0  0  0  0  0  0  0  0  0  0
    4.9437    1.7960   16.9783 H   0  0  0  0  0  0  0  0  0  0  0  0
    4.8341    1.3314   19.0893 C   0  0  0  0  0  0  0  0  0  0  0  0
    3.8825    1.8333   19.2339 H   0  0  0  0  0  0  0  0  0  0  0  0
    5.4766    0.6744   20.1349 C   0  0  0  0  0  0  0  0  0  0  0  0
    5.0669    0.6566   21.1496 H   0  0  0  0  0  0  0  0  0  0  0  0
    8.7493   -0.6959   21.0113 N   0  0  0  0  0  0  0  0  0  0  0  0
    9.2847    0.0155   20.5530 H   0  0  0  0  0  0  0  0  0  0  0  0
    9.5024   -1.4068   21.8865 C   0  0  0  0  0  0  0  0  0  0  0  0
   11.1400   -1.1884   21.9828 S   0  0  0  0  0  0  0  0  0  0  0  0
    8.8453   -2.3092   22.6610 N   0  0  0  0  0  0  0  0  0  0  0  0
    9.4686   -2.6084   23.3928 H   0  0  0  0  0  0  0  0  0  0  0  0
    7.4079   -2.1890   22.9747 C   0  0  1  0  0  0  0  0  0  0  0  0
    7.0115   -3.2136   23.1193 H   0  0  0  0  0  0  0  0  0  0  0  0
    7.1596   -1.4487   24.2527 C   0  0  0  0  0  0  0  0  0  0  0  0
    6.8699   -0.8307   25.2532 C   0  0  0  0  0  0  0  0  0  0  0  0
    6.5425   -0.0483   26.4303 C   0  0  0  0  0  0  0  0  0  0  0  0
    5.7528    1.1177   26.3330 C   0  0  0  0  0  0  0  0  0  0  0  0
    5.3870    1.4314   25.3599 H   0  0  0  0  0  0  0  0  0  0  0  0
    5.4467    1.8745   27.4699 C   0  0  0  0  0  0  0  0  0  0  0  0
    4.8353    2.7700   27.3823 H   0  0  0  0  0  0  0  0  0  0  0  0
    5.9252    1.4838   28.7262 C   0  0  0  0  0  0  0  0  0  0  0  0
    5.6868    2.0603   29.6174 H   0  0  0  0  0  0  0  0  0  0  0  0
    6.7166    0.3374   28.8357 C   0  0  0  0  0  0  0  0  0  0  0  0
    7.0819    0.0587   29.8218 H   0  0  0  0  0  0  0  0  0  0  0  0
    7.0246   -0.4235   27.7002 C   0  0  0  0  0  0  0  0  0  0  0  0
    7.6469   -1.3101   27.7839 H   0  0  0  0  0  0  0  0  0  0  0  0
  1  2  1  0
  2  3  2  0
  3  4  1  0
  4  5  2  0
  5  6  1  0
  5  7  1  0
  7  8  2  0
  8  9  1  0
  8 10  1  0
 10 11  1  0
 10 12  2  0
 12 13  1  0
  3 14  1  0
 14 15  1  0
 14 16  1  0
 16 17  2  0
 16 18  1  0
 18 19  1  0
 18 20  1  0
 20 21  1  1
 20 22  1  0
 22 23  3  0
 23 24  1  0
 24 25  2  0
 25 26  1  0
 25 27  1  0
 27 28  1  0
 27 29  2  0
 29 30  1  0
 29 31  1  0
 31 32  1  0
 31 33  2  0
 33 34  1  0
 20  2  1  0
 33 24  1  0
 12  4  1  0
M  END
>  <cnnaffinity>  (1) 
-5.29424

>  <filename>  (1) 
S=C1NC(c2cccnc2)=C[C@H](C#Cc2ccccc2)N1

$$$$
