
     RDKit          3D

 31 33  0  0  0  0  0  0  0  0999 V2000
    4.9771    1.8905   17.0012 H   0  0  0  0  0  0  0  0  0  0  0  0
    5.4245    1.3128   17.8074 C   0  0  0  0  0  0  0  0  0  0  0  0
    6.5784    0.6915   17.5104 N   0  0  0  0  0  0  0  0  0  0  0  0
    7.1905    0.0063   18.4818 C   0  0  0  0  0  0  0  0  0  0  0  0
    8.1305   -0.4909   18.2231 H   0  0  0  0  0  0  0  0  0  0  0  0
    6.6739   -0.1003   19.7892 C   0  0  0  0  0  0  0  0  0  0  0  0
    7.4072   -0.7841   20.8059 N   0  0  0  0  0  0  0  0  0  0  0  0
    8.7334   -0.4553   21.1300 C   0  0  0  0  0  0  0  0  0  0  0  0
    9.2109    0.4041   20.6926 H   0  0  0  0  0  0  0  0  0  0  0  0
    9.1306   -1.3303   22.0771 C   0  0  0  0  0  0  0  0  0  0  0  0
   10.3085   -1.6498   22.7293 N   0  0  0  0  0  0  0  0  0  0  0  0
   10.1311   -1.6800   23.7287 H   0  0  0  0  0  0  0  0  0  0  0  0
   11.4831   -0.8470   22.4132 C   0  0  0  0  0  0  0  0  0  0  0  0
   11.5474   -0.7684   21.3201 H   0  0  0  0  0  0  0  0  0  0  0  0
   12.3791   -1.3993   22.7275 H   0  0  0  0  0  0  0  0  0  0  0  0
   11.4356    0.5383   23.0252 C   0  0  0  0  0  0  0  0  0  0  0  0
   10.5499    1.0821   22.6975 H   0  0  0  0  0  0  0  0  0  0  0  0
   12.6777    1.3625   23.2129 C   0  0  0  0  0  0  0  0  0  0  0  0
   12.6567    2.4107   22.9235 H   0  0  0  0  0  0  0  0  0  0  0  0
   13.6419    0.8868   23.0377 H   0  0  0  0  0  0  0  0  0  0  0  0
   11.8940    0.9048   24.4165 C   0  0  0  0  0  0  0  0  0  0  0  0
   12.3442    0.1551   25.0682 H   0  0  0  0  0  0  0  0  0  0  0  0
   11.3062    1.6474   24.9542 H   0  0  0  0  0  0  0  0  0  0  0  0
    8.0502   -2.1143   22.3794 N   0  0  0  0  0  0  0  0  0  0  0  0
    8.0693   -2.9163   22.9807 H   0  0  0  0  0  0  0  0  0  0  0  0
    6.9908   -1.8606   21.5613 C   0  0  0  0  0  0  0  0  0  0  0  0
    5.6028   -2.7685   21.4699 S   0  0  0  0  0  0  0  0  0  0  0  0
    5.4497    0.5133   20.0830 C   0  0  0  0  0  0  0  0  0  0  0  0
    5.0209    0.4151   21.0820 H   0  0  0  0  0  0  0  0  0  0  0  0
    4.8233    1.2490   19.0699 C   0  0  0  0  0  0  0  0  0  0  0  0
    3.8992    1.7900   19.2484 H   0  0  0  0  0  0  0  0  0  0  0  0
  1  2  1  0
  2  3  2  0
  3  4  1  0
  4  5  1  0
  4  6  2  0
  6  7  1  0
  7  8  1  0
  8  9  1  0
  8 10  2  0
 10 11  1  0
 11 12  1  0
 11 13  1  0
 13 14  1  0
 13 15  1  0
 13 16  1  0
 16 17  1  0
 16 18  1  0
 18 19  1  0
 18 20  1  0
 18 21  1  0
 21 22  1  0
 21 23  1  0
 10 24  1  0
 24 25  1  0
 24 26  1  0
 26 27  2  0
  6 28  1  0
 28 29  1  0
 28 30  2  0
 30 31  1  0
 30  2  1  0
 26  7  1  0
 21 16  1  0
M  END
>  <cnnaffinity>  (1) 
-5.14629

>  <filename>  (1) 
S=c1[nH]c(NCC2CC2)cn1-c1cccnc1

$$$$
