
     RDKit          3D

 37 39  0  0  0  0  0  0  0  0999 V2000
    5.0003    1.9332   17.0014 H   0  0  0  0  0  0  0  0  0  0  0  0
    5.4442    1.3321   17.7932 C   0  0  0  0  0  0  0  0  0  0  0  0
    6.5931    0.7114   17.4772 N   0  0  0  0  0  0  0  0  0  0  0  0
    7.1955   -0.0114   18.4291 C   0  0  0  0  0  0  0  0  0  0  0  0
    8.1391   -0.4917   18.1598 H   0  0  0  0  0  0  0  0  0  0  0  0
    6.6688   -0.1752   19.7245 C   0  0  0  0  0  0  0  0  0  0  0  0
    7.3788   -0.9517   20.6906 N   0  0  0  0  0  0  0  0  0  0  0  0
    8.6781   -0.6451   21.0849 C   0  0  0  0  0  0  0  0  0  0  0  0
    9.1733    0.2260   20.6827 H   0  0  0  0  0  0  0  0  0  0  0  0
    9.0654   -1.5466   22.0210 C   0  0  0  0  0  0  0  0  0  0  0  0
   10.3539   -1.6614   22.8059 C   0  0  0  0  0  0  0  0  0  0  0  0
   11.1986   -1.6079   22.1037 H   0  0  0  0  0  0  0  0  0  0  0  0
   10.4112   -2.6734   23.2302 H   0  0  0  0  0  0  0  0  0  0  0  0
   10.5670   -0.6787   23.8829 N   0  0  0  0  0  0  0  0  0  0  0  0
   10.6109    0.7117   23.3786 C   0  0  0  0  0  0  0  0  0  0  0  0
    9.6576    0.9936   22.8867 H   0  0  0  0  0  0  0  0  0  0  0  0
   11.4036    0.7901   22.6203 H   0  0  0  0  0  0  0  0  0  0  0  0
   10.8600    1.7184   24.5080 C   0  0  0  0  0  0  0  0  0  0  0  0
   11.8389    1.5367   24.9740 H   0  0  0  0  0  0  0  0  0  0  0  0
   10.8821    2.7323   24.0945 H   0  0  0  0  0  0  0  0  0  0  0  0
    9.7574    1.5624   25.5572 C   0  0  0  0  0  0  0  0  0  0  0  0
    9.7992    2.3358   26.3223 H   0  0  0  0  0  0  0  0  0  0  0  0
    8.7761    1.6829   25.0716 H   0  0  0  0  0  0  0  0  0  0  0  0
    9.8685    0.1451   26.1225 C   0  0  0  0  0  0  0  0  0  0  0  0
    9.1687   -0.0287   26.9456 H   0  0  0  0  0  0  0  0  0  0  0  0
   10.8778   -0.0071   26.5296 H   0  0  0  0  0  0  0  0  0  0  0  0
    9.6085   -0.8597   24.9948 C   0  0  0  0  0  0  0  0  0  0  0  0
    9.7101   -1.8836   25.3791 H   0  0  0  0  0  0  0  0  0  0  0  0
    8.5586   -0.7460   24.6542 H   0  0  0  0  0  0  0  0  0  0  0  0
    7.9794   -2.4041   22.1628 N   0  0  0  0  0  0  0  0  0  0  0  0
    7.8119   -3.0968   22.8737 H   0  0  0  0  0  0  0  0  0  0  0  0
    6.9284   -2.0674   21.3652 C   0  0  0  0  0  0  0  0  0  0  0  0
    5.5031   -2.9316   21.2883 S   0  0  0  0  0  0  0  0  0  0  0  0
    5.4623    0.4611   20.0465 C   0  0  0  0  0  0  0  0  0  0  0  0
    5.0323    0.3607   21.0432 H   0  0  0  0  0  0  0  0  0  0  0  0
    4.8490    1.2408   19.0560 C   0  0  0  0  0  0  0  0  0  0  0  0
    3.9329    1.7880   19.2543 H   0  0  0  0  0  0  0  0  0  0  0  0
  1  2  1  0
  2  3  2  0
  3  4  1  0
  4  5  1  0
  4  6  2  0
  6  7  1  0
  7  8  1  0
  8  9  1  0
  8 10  2  0
 10 11  1  0
 11 12  1  0
 11 13  1  0
 11 14  1  0
 14 15  1  0
 15 16  1  0
 15 17  1  0
 15 18  1  0
 18 19  1  0
 18 20  1  0
 18 21  1  0
 21 22  1  0
 21 23  1  0
 21 24  1  0
 24 25  1  0
 24 26  1  0
 24 27  1  0
 27 28  1  0
 27 29  1  0
 10 30  1  0
 30 31  1  0
 30 32  1  0
 32 33  2  0
  6 34  1  0
 34 35  1  0
 34 36  2  0
 36 37  1  0
 36  2  1  0
 32  7  1  0
 27 14  1  0
M  END
>  <cnnaffinity>  (1) 
-5.23507

>  <filename>  (1) 
S=c1[nH]c(CN2CCCCC2)cn1-c1cccnc1

$$$$
