
     RDKit          3D

 30 32  0  0  0  0  0  0  0  0999 V2000
    4.9438    1.8103   17.0185 H   0  0  0  0  0  0  0  0  0  0  0  0
    5.4133    1.2727   17.8403 C   0  0  0  0  0  0  0  0  0  0  0  0
    6.5657    0.6368   17.5639 N   0  0  0  0  0  0  0  0  0  0  0  0
    7.1791   -0.0010   18.5664 C   0  0  0  0  0  0  0  0  0  0  0  0
    8.1200   -0.4991   18.3274 H   0  0  0  0  0  0  0  0  0  0  0  0
    6.6872   -0.0681   19.8883 C   0  0  0  0  0  0  0  0  0  0  0  0
    7.4413   -0.7306   20.8902 N   0  0  0  0  0  0  0  0  0  0  0  0
    8.4189   -0.4916   20.9547 H   0  0  0  0  0  0  0  0  0  0  0  0
    6.9919   -1.5252   21.9115 C   0  0  0  0  0  0  0  0  0  0  0  0
    7.5334   -1.8503   23.1028 C   0  0  0  0  0  0  0  0  0  0  0  0
    8.4569   -1.5134   23.5412 H   0  0  0  0  0  0  0  0  0  0  0  0
    6.6841   -2.7934   23.7180 N   0  0  0  0  0  0  0  0  0  0  0  0
    6.9197   -3.3278   25.0385 C   0  0  0  0  0  0  0  0  0  0  0  0
    7.4761   -2.5404   26.0760 C   0  0  0  0  0  0  0  0  0  0  0  0
    7.7106   -1.4874   25.9206 H   0  0  0  0  0  0  0  0  0  0  0  0
    7.7140   -3.0004   27.3098 N   0  0  0  0  0  0  0  0  0  0  0  0
    7.3883   -4.2725   27.5868 C   0  0  0  0  0  0  0  0  0  0  0  0
    7.5799   -4.6082   28.6032 H   0  0  0  0  0  0  0  0  0  0  0  0
    6.8143   -5.1309   26.6466 C   0  0  0  0  0  0  0  0  0  0  0  0
    6.5499   -6.1474   26.9378 H   0  0  0  0  0  0  0  0  0  0  0  0
    6.5857   -4.6583   25.3487 C   0  0  0  0  0  0  0  0  0  0  0  0
    6.1432   -5.2989   24.5900 H   0  0  0  0  0  0  0  0  0  0  0  0
    5.6394   -3.0852   22.8437 C   0  0  0  0  0  0  0  0  0  0  0  0
    4.3628   -4.1573   22.8712 S   0  0  0  0  0  0  0  0  0  0  0  0
    5.8426   -2.2537   21.7876 N   0  0  0  0  0  0  0  0  0  0  0  0
    5.1673   -2.1714   21.0514 H   0  0  0  0  0  0  0  0  0  0  0  0
    5.4751    0.5834   20.1524 C   0  0  0  0  0  0  0  0  0  0  0  0
    5.0706    0.5633   21.1628 H   0  0  0  0  0  0  0  0  0  0  0  0
    4.8349    1.2685   19.1109 C   0  0  0  0  0  0  0  0  0  0  0  0
    3.9092    1.8056   19.2826 H   0  0  0  0  0  0  0  0  0  0  0  0
  1  2  1  0
  2  3  2  0
  3  4  1  0
  4  5  1  0
  4  6  2  0
  6  7  1  0
  7  8  1  0
  7  9  1  0
  9 10  2  0
 10 11  1  0
 10 12  1  0
 12 13  1  0
 13 14  2  0
 14 15  1  0
 14 16  1  0
 16 17  2  0
 17 18  1  0
 17 19  1  0
 19 20  1  0
 19 21  2  0
 21 22  1  0
 12 23  1  0
 23 24  2  0
 23 25  1  0
 25 26  1  0
  6 27  1  0
 27 28  1  0
 27 29  2  0
 29 30  1  0
 29  2  1  0
 25  9  1  0
 21 13  1  0
M  END
>  <cnnaffinity>  (1) 
-5.3491

>  <filename>  (1) 
S=c1[nH]c(Nc2cccnc2)cn1-c1cccnc1

$$$$
