
     RDKit          3D

 41 44  0  0  0  0  0  0  0  0999 V2000
    7.2358   -2.4968   20.0961 H   0  0  0  0  0  0  0  0  0  0  0  0
    7.6855   -1.8876   20.8538 C   0  0  0  0  0  0  0  0  0  0  0  0
    7.3048   -0.6232   21.0720 C   0  0  0  0  0  0  0  0  0  0  0  0
    6.6190    0.1454   20.0285 C   0  0  0  0  0  0  0  0  0  0  0  0
    7.1546    0.1196   18.7279 C   0  0  0  0  0  0  0  0  0  0  0  0
    8.0906   -0.4052   18.5378 H   0  0  0  0  0  0  0  0  0  0  0  0
    6.5922    0.6951   17.6597 N   0  0  0  0  0  0  0  0  0  0  0  0
    5.4188    1.3163   17.8472 C   0  0  0  0  0  0  0  0  0  0  0  0
    4.9609    1.7719   16.9671 H   0  0  0  0  0  0  0  0  0  0  0  0
    4.7793    1.3799   19.0903 C   0  0  0  0  0  0  0  0  0  0  0  0
    3.8244    1.8791   19.1736 H   0  0  0  0  0  0  0  0  0  0  0  0
    5.3947    0.8020   20.2038 C   0  0  0  0  0  0  0  0  0  0  0  0
    4.9269    0.8240   21.1884 H   0  0  0  0  0  0  0  0  0  0  0  0
    7.5795   -0.0542   22.3096 N   0  0  0  0  0  0  0  0  0  0  0  0
    7.2227    0.8474   22.5764 H   0  0  0  0  0  0  0  0  0  0  0  0
    8.2235   -0.6858   23.3215 C   0  0  0  0  0  0  0  0  0  0  0  0
    8.3365   -0.0241   24.8387 S   0  0  0  0  0  0  0  0  0  0  0  0
    8.7455   -1.8911   23.0329 N   0  0  0  0  0  0  0  0  0  0  0  0
    8.9222   -2.4509   23.8509 H   0  0  0  0  0  0  0  0  0  0  0  0
    8.4726   -2.6476   21.8271 C   0  0  1  0  0  0  0  0  0  0  0  0
    9.4411   -2.9303   21.3826 H   0  0  0  0  0  0  0  0  0  0  0  0
    7.7769   -3.9024   22.1245 N   0  0  0  0  0  0  0  0  0  0  0  0
    8.5190   -4.8819   22.8882 C   0  0  0  0  0  0  0  0  0  0  0  0
    8.3290   -5.8922   22.4851 H   0  0  0  0  0  0  0  0  0  0  0  0
    9.5774   -4.6768   22.7734 H   0  0  0  0  0  0  0  0  0  0  0  0
    8.2921   -4.8730   24.3928 C   0  0  0  0  0  0  0  0  0  0  0  0
    9.2635   -5.4633   25.2181 C   0  0  0  0  0  0  0  0  0  0  0  0
   10.1192   -5.9680   24.7708 H   0  0  0  0  0  0  0  0  0  0  0  0
    9.1393   -5.4008   26.6045 C   0  0  0  0  0  0  0  0  0  0  0  0
    9.9261   -5.8106   27.2306 H   0  0  0  0  0  0  0  0  0  0  0  0
    8.0229   -4.7800   27.1719 C   0  0  0  0  0  0  0  0  0  0  0  0
    7.9279   -4.7301   28.2529 H   0  0  0  0  0  0  0  0  0  0  0  0
    7.0464   -4.1976   26.3541 C   0  0  0  0  0  0  0  0  0  0  0  0
    6.1970   -3.6918   26.8115 H   0  0  0  0  0  0  0  0  0  0  0  0
    7.1705   -4.2340   24.9518 C   0  0  0  0  0  0  0  0  0  0  0  0
    6.1737   -3.5208   24.0383 C   0  0  0  0  0  0  0  0  0  0  0  0
    5.1417   -3.7769   24.3021 H   0  0  0  0  0  0  0  0  0  0  0  0
    6.2670   -2.4385   24.1967 H   0  0  0  0  0  0  0  0  0  0  0  0
    6.3755   -3.8235   22.5366 C   0  0  0  0  0  0  0  0  0  0  0  0
    5.8822   -3.0478   21.9363 H   0  0  0  0  0  0  0  0  0  0  0  0
    5.9149   -4.7869   22.2749 H   0  0  0  0  0  0  0  0  0  0  0  0
  1  2  1  0
  2  3  2  0
  3  4  1  0
  4  5  2  0
  5  6  1  0
  5  7  1  0
  7  8  2  0
  8  9  1  0
  8 10  1  0
 10 11  1  0
 10 12  2  0
 12 13  1  0
  3 14  1  0
 14 15  1  0
 14 16  1  0
 16 17  2  0
 16 18  1  0
 18 19  1  0
 18 20  1  0
 20 21  1  6
 20 22  1  0
 22 23  1  0
 23 24  1  0
 23 25  1  0
 23 26  1  0
 26 27  2  0
 27 28  1  0
 27 29  1  0
 29 30  1  0
 29 31  2  0
 31 32  1  0
 31 33  1  0
 33 34  1  0
 33 35  2  0
 35 36  1  0
 36 37  1  0
 36 38  1  0
 36 39  1  0
 39 40  1  0
 39 41  1  0
 20  2  1  0
 39 22  1  0
 12  4  1  0
 35 26  1  0
M  END
>  <cnnaffinity>  (1) 
-5.38514

>  <filename>  (1) 
S=C1NC(c2cccnc2)=C[C@H](N2CCc3ccccc3C2)N1

$$$$
