
     RDKit          3D

 36 39  0  0  0  0  0  0  0  0999 V2000
    5.6490   -1.6701   21.7091 H   0  0  0  0  0  0  0  0  0  0  0  0
    6.7184   -1.5448   21.7833 C   0  0  0  0  0  0  0  0  0  0  0  0
    7.3831   -0.7209   20.9506 C   0  0  0  0  0  0  0  0  0  0  0  0
    6.7033    0.0457   19.9036 C   0  0  0  0  0  0  0  0  0  0  0  0
    7.2032    0.0854   18.5922 C   0  0  0  0  0  0  0  0  0  0  0  0
    8.1337   -0.4235   18.3396 H   0  0  0  0  0  0  0  0  0  0  0  0
    6.5723    0.6773   17.5733 N   0  0  0  0  0  0  0  0  0  0  0  0
    5.4082    1.2904   17.8383 C   0  0  0  0  0  0  0  0  0  0  0  0
    4.9265    1.7824   16.9970 H   0  0  0  0  0  0  0  0  0  0  0  0
    4.8196    1.3136   19.1079 C   0  0  0  0  0  0  0  0  0  0  0  0
    3.8801    1.8322   19.2553 H   0  0  0  0  0  0  0  0  0  0  0  0
    5.4654    0.6646   20.1578 C   0  0  0  0  0  0  0  0  0  0  0  0
    5.0311    0.6304   21.1602 H   0  0  0  0  0  0  0  0  0  0  0  0
    8.7676   -0.6050   21.0797 N   0  0  0  0  0  0  0  0  0  0  0  0
    9.3334    0.0521   20.5737 H   0  0  0  0  0  0  0  0  0  0  0  0
    9.5117   -1.3250   21.9546 C   0  0  0  0  0  0  0  0  0  0  0  0
   11.1564   -1.1497   22.0472 S   0  0  0  0  0  0  0  0  0  0  0  0
    8.8478   -2.2004   22.7293 N   0  0  0  0  0  0  0  0  0  0  0  0
    9.4610   -2.6136   23.4136 H   0  0  0  0  0  0  0  0  0  0  0  0
    7.3930   -2.1829   22.9426 C   0  0  1  0  0  0  0  0  0  0  0  0
    7.0796   -3.2375   23.0076 H   0  0  0  0  0  0  0  0  0  0  0  0
    6.9998   -1.5176   24.2758 C   0  0  0  0  0  0  0  0  0  0  0  0
    7.3869   -0.1781   24.5495 C   0  0  0  0  0  0  0  0  0  0  0  0
    7.9898    0.3555   23.8150 H   0  0  0  0  0  0  0  0  0  0  0  0
    7.0069    0.4601   25.7238 C   0  0  0  0  0  0  0  0  0  0  0  0
    7.3116    1.4824   25.9265 H   0  0  0  0  0  0  0  0  0  0  0  0
    6.2133   -0.2665   26.6339 C   0  0  0  0  0  0  0  0  0  0  0  0
    5.8051   -1.5995   26.3807 C   0  0  0  0  0  0  0  0  0  0  0  0
    6.2076   -2.2174   25.1843 C   0  0  0  0  0  0  0  0  0  0  0  0
    5.8896   -3.2361   24.9708 H   0  0  0  0  0  0  0  0  0  0  0  0
    5.0188   -2.0164   27.5066 C   0  0  0  0  0  0  0  0  0  0  0  0
    4.5541   -2.9875   27.6287 H   0  0  0  0  0  0  0  0  0  0  0  0
    4.9768   -0.9687   28.3760 C   0  0  0  0  0  0  0  0  0  0  0  0
    4.4923   -0.8809   29.3410 H   0  0  0  0  0  0  0  0  0  0  0  0
    5.6949    0.0893   27.8527 N   0  0  0  0  0  0  0  0  0  0  0  0
    5.8372    0.9871   28.2801 H   0  0  0  0  0  0  0  0  0  0  0  0
  1  2  1  0
  2  3  2  0
  3  4  1  0
  4  5  2  0
  5  6  1  0
  5  7  1  0
  7  8  2  0
  8  9  1  0
  8 10  1  0
 10 11  1  0
 10 12  2  0
 12 13  1  0
  3 14  1  0
 14 15  1  0
 14 16  1  0
 16 17  2  0
 16 18  1  0
 18 19  1  0
 18 20  1  0
 20 21  1  1
 20 22  1  0
 22 23  2  0
 23 24  1  0
 23 25  1  0
 25 26  1  0
 25 27  2  0
 27 28  1  0
 28 29  2  0
 29 30  1  0
 28 31  1  0
 31 32  1  0
 31 33  2  0
 33 34  1  0
 33 35  1  0
 35 36  1  0
 20  2  1  0
 29 22  1  0
 12  4  1  0
 35 27  1  0
M  END
>  <cnnaffinity>  (1) 
-5.18365

>  <filename>  (1) 
S=C1NC(c2cccnc2)=C[C@H](c2ccc3[nH]ccc3c2)N1

$$$$
