
     RDKit          3D

 34 37  0  0  0  0  0  0  0  0999 V2000
    4.9183    1.7793   16.9993 H   0  0  0  0  0  0  0  0  0  0  0  0
    5.4025    1.2932   17.8408 C   0  0  0  0  0  0  0  0  0  0  0  0
    6.5685    0.6811   17.5780 N   0  0  0  0  0  0  0  0  0  0  0  0
    7.1696    0.0542   18.5905 C   0  0  0  0  0  0  0  0  0  0  0  0
    8.1180   -0.4349   18.3731 H   0  0  0  0  0  0  0  0  0  0  0  0
    6.6480    0.0132   19.8905 C   0  0  0  0  0  0  0  0  0  0  0  0
    7.3821   -0.7258   20.9067 C   0  0  0  0  0  0  0  0  0  0  0  0
    7.9822   -1.8582   20.6865 N   0  0  0  0  0  0  0  0  0  0  0  0
    8.4812   -2.1969   21.9049 N   0  0  0  0  0  0  0  0  0  0  0  0
    9.0300   -3.0245   22.0563 H   0  0  0  0  0  0  0  0  0  0  0  0
    8.2618   -1.2930   22.8780 C   0  0  0  0  0  0  0  0  0  0  0  0
    8.8193   -1.3560   24.4406 S   0  0  0  0  0  0  0  0  0  0  0  0
    7.5080   -0.3299   22.2294 N   0  0  0  0  0  0  0  0  0  0  0  0
    7.1242    0.9375   22.8040 C   0  0  0  0  0  0  0  0  0  0  0  0
    6.3470    0.9496   24.0003 C   0  0  0  0  0  0  0  0  0  0  0  0
    6.0742    0.0068   24.4657 H   0  0  0  0  0  0  0  0  0  0  0  0
    5.9648    2.1432   24.5696 C   0  0  0  0  0  0  0  0  0  0  0  0
    5.3815    2.1651   25.4889 H   0  0  0  0  0  0  0  0  0  0  0  0
    6.3240    3.3925   23.9754 C   0  0  0  0  0  0  0  0  0  0  0  0
    5.9347    4.6493   24.5378 C   0  0  0  0  0  0  0  0  0  0  0  0
    5.3467    4.6484   25.4550 H   0  0  0  0  0  0  0  0  0  0  0  0
    6.2937    5.8309   23.9315 C   0  0  0  0  0  0  0  0  0  0  0  0
    5.9936    6.7856   24.3598 H   0  0  0  0  0  0  0  0  0  0  0  0
    7.0632    5.8172   22.7299 C   0  0  0  0  0  0  0  0  0  0  0  0
    7.3376    6.7600   22.2586 H   0  0  0  0  0  0  0  0  0  0  0  0
    7.4557    4.6233   22.1705 C   0  0  0  0  0  0  0  0  0  0  0  0
    8.0550    4.6154   21.2636 H   0  0  0  0  0  0  0  0  0  0  0  0
    7.1028    3.3768   22.7741 C   0  0  0  0  0  0  0  0  0  0  0  0
    7.5061    2.1216   22.2172 C   0  0  0  0  0  0  0  0  0  0  0  0
    8.0721    2.1177   21.2917 H   0  0  0  0  0  0  0  0  0  0  0  0
    5.4270    0.6516   20.1539 C   0  0  0  0  0  0  0  0  0  0  0  0
    5.0124    0.6379   21.1664 H   0  0  0  0  0  0  0  0  0  0  0  0
    4.7991    1.3090   19.1036 C   0  0  0  0  0  0  0  0  0  0  0  0
    3.8710    1.8448   19.2577 H   0  0  0  0  0  0  0  0  0  0  0  0
  1  2  1  0
  2  3  2  0
  3  4  1  0
  4  5  1  0
  4  6  2  0
  6  7  1  0
  7  8  2  0
  8  9  1  0
  9 10  1  0
  9 11  1  0
 11 12  2  0
 11 13  1  0
 13 14  1  0
 14 15  2  0
 15 16  1  0
 15 17  1  0
 17 18  1  0
 17 19  2  0
 19 20  1  0
 20 21  1  0
 20 22  2  0
 22 23  1  0
 22 24  1  0
 24 25  1  0
 24 26  2  0
 26 27  1  0
 26 28  1  0
 28 29  2  0
 29 30  1  0
  6 31  1  0
 31 32  1  0
 31 33  2  0
 33 34  1  0
 33  2  1  0
 13  7  1  0
 29 14  1  0
 28 19  1  0
M  END
>  <cnnaffinity>  (1) 
-5.23909

>  <filename>  (1) 
S=c1[nH]nc(-c2cccnc2)n1-c1ccc2ccccc2c1

$$$$
