
     RDKit          3D

 27 29  0  0  0  0  0  0  0  0999 V2000
    8.5727   -5.7422   26.6753 H   0  0  0  0  0  0  0  0  0  0  0  0
    8.4914   -5.2931   25.6909 C   0  0  0  0  0  0  0  0  0  0  0  0
    7.9783   -4.0226   25.5784 N   0  0  0  0  0  0  0  0  0  0  0  0
    7.9937   -3.6633   24.3308 C   0  0  0  0  0  0  0  0  0  0  0  0
    7.5900   -2.3830   24.0420 N   0  0  0  0  0  0  0  0  0  0  0  0
    7.6155   -1.8511   24.9057 H   0  0  0  0  0  0  0  0  0  0  0  0
    7.9011   -1.7251   22.8608 N   0  0  0  0  0  0  0  0  0  0  0  0
    6.8621   -1.2618   22.0861 C   0  0  0  0  0  0  0  0  0  0  0  0
    5.8645   -1.4830   22.4140 H   0  0  0  0  0  0  0  0  0  0  0  0
    7.3712   -0.7095   20.9654 C   0  0  0  0  0  0  0  0  0  0  0  0
    6.6877   -0.0104   19.8787 C   0  0  0  0  0  0  0  0  0  0  0  0
    7.1914    0.0345   18.5656 C   0  0  0  0  0  0  0  0  0  0  0  0
    8.1206   -0.4793   18.3206 H   0  0  0  0  0  0  0  0  0  0  0  0
    6.5892    0.6649   17.5496 N   0  0  0  0  0  0  0  0  0  0  0  0
    5.4310    1.2973   17.8079 C   0  0  0  0  0  0  0  0  0  0  0  0
    4.9630    1.8176   16.9710 H   0  0  0  0  0  0  0  0  0  0  0  0
    4.8320    1.3071   19.0729 C   0  0  0  0  0  0  0  0  0  0  0  0
    3.8983    1.8412   19.2157 H   0  0  0  0  0  0  0  0  0  0  0  0
    5.4659    0.6441   20.1227 C   0  0  0  0  0  0  0  0  0  0  0  0
    5.0456    0.6499   21.1300 H   0  0  0  0  0  0  0  0  0  0  0  0
    8.7438   -0.8930   21.0459 N   0  0  0  0  0  0  0  0  0  0  0  0
    9.4660   -0.5989   20.4113 H   0  0  0  0  0  0  0  0  0  0  0  0
    9.1148   -1.5039   22.2092 C   0  0  0  0  0  0  0  0  0  0  0  0
   10.6776   -1.8416   22.6178 S   0  0  0  0  0  0  0  0  0  0  0  0
    8.5576   -4.8424   23.1911 S   0  0  0  0  0  0  0  0  0  0  0  0
    8.8804   -5.8877   24.5391 C   0  0  0  0  0  0  0  0  0  0  0  0
    9.3786   -6.8354   24.4121 H   0  0  0  0  0  0  0  0  0  0  0  0
  1  2  1  0
  2  3  1  0
  3  4  2  0
  4  5  1  0
  5  6  1  0
  5  7  1  0
  7  8  1  0
  8  9  1  0
  8 10  2  0
 10 11  1  0
 11 12  2  0
 12 13  1  0
 12 14  1  0
 14 15  2  0
 15 16  1  0
 15 17  1  0
 17 18  1  0
 17 19  2  0
 19 20  1  0
 10 21  1  0
 21 22  1  0
 21 23  1  0
 23 24  2  0
  4 25  1  0
 25 26  1  0
 26 27  1  0
 26  2  2  0
 23  7  1  0
 19 11  1  0
M  END
>  <cnnaffinity>  (1) 
-5.38965

>  <filename>  (1) 
S=c1[nH]c(-c2cccnc2)cn1Nc1nccs1

$$$$
