
     RDKit          3D

 32 34  0  0  0  0  0  0  0  0999 V2000
    4.9827    1.8606   16.8669 H   0  0  0  0  0  0  0  0  0  0  0  0
    5.4601    1.3527   17.7015 C   0  0  0  0  0  0  0  0  0  0  0  0
    6.6123    0.7236   17.4248 N   0  0  0  0  0  0  0  0  0  0  0  0
    7.2217    0.0854   18.4349 C   0  0  0  0  0  0  0  0  0  0  0  0
    8.1406   -0.4306   18.1642 H   0  0  0  0  0  0  0  0  0  0  0  0
    6.7217    0.0358   19.7544 C   0  0  0  0  0  0  0  0  0  0  0  0
    7.3697   -0.7197   20.8340 C   0  0  0  0  0  0  0  0  0  0  0  0
    6.8092   -1.3375   21.9023 C   0  0  0  0  0  0  0  0  0  0  0  0
    5.7704   -1.5031   22.1265 H   0  0  0  0  0  0  0  0  0  0  0  0
    7.8238   -1.8820   22.6811 N   0  0  0  0  0  0  0  0  0  0  0  0
    7.6662   -2.5341   23.9891 C   0  0  0  0  0  0  0  0  0  0  0  0
    6.6342   -2.9063   24.0242 H   0  0  0  0  0  0  0  0  0  0  0  0
    8.3289   -3.4025   24.0240 H   0  0  0  0  0  0  0  0  0  0  0  0
    7.9104   -1.6156   25.1938 C   0  0  0  0  0  0  0  0  0  0  0  0
    7.2429   -0.3782   25.2685 C   0  0  0  0  0  0  0  0  0  0  0  0
    6.5855   -0.0943   24.4504 H   0  0  0  0  0  0  0  0  0  0  0  0
    7.4240    0.4964   26.3428 C   0  0  0  0  0  0  0  0  0  0  0  0
    6.8620    1.4247   26.3974 H   0  0  0  0  0  0  0  0  0  0  0  0
    8.3198    0.1614   27.3605 C   0  0  0  0  0  0  0  0  0  0  0  0
    8.4923    0.8657   28.1659 H   0  0  0  0  0  0  0  0  0  0  0  0
    8.9937   -1.0602   27.3302 C   0  0  0  0  0  0  0  0  0  0  0  0
    9.7108   -1.3234   28.1039 H   0  0  0  0  0  0  0  0  0  0  0  0
    8.7372   -1.9591   26.2841 C   0  0  0  0  0  0  0  0  0  0  0  0
    9.4669   -3.5447   26.4186 Cl  0  0  0  0  0  0  0  0  0  0  0  0
    9.0288   -1.6524   22.0777 C   0  0  0  0  0  0  0  0  0  0  0  0
   10.5501   -2.1546   22.5144 S   0  0  0  0  0  0  0  0  0  0  0  0
    8.7304   -0.9444   20.9549 N   0  0  0  0  0  0  0  0  0  0  0  0
    9.4928   -0.6020   20.3974 H   0  0  0  0  0  0  0  0  0  0  0  0
    5.5134    0.7071   20.0123 C   0  0  0  0  0  0  0  0  0  0  0  0
    5.1043    0.7169   21.0263 H   0  0  0  0  0  0  0  0  0  0  0  0
    4.8678    1.3724   18.9704 C   0  0  0  0  0  0  0  0  0  0  0  0
    3.9280    1.8940   19.1242 H   0  0  0  0  0  0  0  0  0  0  0  0
  1  2  1  0
  2  3  2  0
  3  4  1  0
  4  5  1  0
  4  6  2  0
  6  7  1  0
  7  8  2  0
  8  9  1  0
  8 10  1  0
 10 11  1  0
 11 12  1  0
 11 13  1  0
 11 14  1  0
 14 15  2  0
 15 16  1  0
 15 17  1  0
 17 18  1  0
 17 19  2  0
 19 20  1  0
 19 21  1  0
 21 22  1  0
 21 23  2  0
 23 24  1  0
 10 25  1  0
 25 26  2  0
 25 27  1  0
 27 28  1  0
  6 29  1  0
 29 30  1  0
 29 31  2  0
 31 32  1  0
 31  2  1  0
 27  7  1  0
 23 14  1  0
M  END
>  <cnnaffinity>  (1) 
-5.34728

>  <filename>  (1) 
S=c1[nH]c(-c2cccnc2)cn1Cc1ccccc1Cl

$$$$
