
     RDKit          3D

 27 29  0  0  0  0  0  0  0  0999 V2000
    6.9647   -5.5019   26.5912 H   0  0  0  0  0  0  0  0  0  0  0  0
    7.1240   -4.7878   25.7845 C   0  0  0  0  0  0  0  0  0  0  0  0
    8.3763   -4.3230   25.6177 N   0  0  0  0  0  0  0  0  0  0  0  0
    8.5572   -3.4429   24.6164 C   0  0  0  0  0  0  0  0  0  0  0  0
    9.5713   -3.0762   24.4910 H   0  0  0  0  0  0  0  0  0  0  0  0
    7.4974   -3.0252   23.7722 C   0  0  0  0  0  0  0  0  0  0  0  0
    7.6688   -2.0656   22.6691 C   0  0  0  0  0  0  0  0  0  0  0  0
    6.7323   -1.6044   21.8064 C   0  0  0  0  0  0  0  0  0  0  0  0
    5.6825   -1.8509   21.7342 H   0  0  0  0  0  0  0  0  0  0  0  0
    7.3312   -0.6908   20.9531 N   0  0  0  0  0  0  0  0  0  0  0  0
    6.6528   -0.0060   19.8986 C   0  0  0  0  0  0  0  0  0  0  0  0
    7.1731    0.0408   18.5886 C   0  0  0  0  0  0  0  0  0  0  0  0
    8.1261   -0.4319   18.3587 H   0  0  0  0  0  0  0  0  0  0  0  0
    6.5548    0.6598   17.5770 N   0  0  0  0  0  0  0  0  0  0  0  0
    5.3992    1.2885   17.8403 C   0  0  0  0  0  0  0  0  0  0  0  0
    4.9329    1.7932   16.9983 H   0  0  0  0  0  0  0  0  0  0  0  0
    4.8101    1.3078   19.1091 C   0  0  0  0  0  0  0  0  0  0  0  0
    3.8806    1.8409   19.2599 H   0  0  0  0  0  0  0  0  0  0  0  0
    5.4436    0.6420   20.1616 C   0  0  0  0  0  0  0  0  0  0  0  0
    5.0399    0.6293   21.1756 H   0  0  0  0  0  0  0  0  0  0  0  0
    8.6545   -0.5237   21.3106 C   0  0  0  0  0  0  0  0  0  0  0  0
    9.8185    0.5204   20.7691 S   0  0  0  0  0  0  0  0  0  0  0  0
    8.8472   -1.4083   22.3205 N   0  0  0  0  0  0  0  0  0  0  0  0
    9.7783   -1.4097   22.7103 H   0  0  0  0  0  0  0  0  0  0  0  0
    6.2432   -3.5066   23.9474 N   0  0  0  0  0  0  0  0  0  0  0  0
    6.0657   -4.3751   24.9527 C   0  0  0  0  0  0  0  0  0  0  0  0
    5.0549   -4.7482   25.0914 H   0  0  0  0  0  0  0  0  0  0  0  0
  1  2  1  0
  2  3  2  0
  3  4  1  0
  4  5  1  0
  4  6  2  0
  6  7  1  0
  7  8  2  0
  8  9  1  0
  8 10  1  0
 10 11  1  0
 11 12  2  0
 12 13  1  0
 12 14  1  0
 14 15  2  0
 15 16  1  0
 15 17  1  0
 17 18  1  0
 17 19  2  0
 19 20  1  0
 10 21  1  0
 21 22  2  0
 21 23  1  0
 23 24  1  0
  6 25  1  0
 25 26  2  0
 26 27  1  0
 26  2  1  0
 23  7  1  0
 19 11  1  0
M  END
>  <cnnaffinity>  (1) 
-5.33578

>  <filename>  (1) 
S=c1[nH]c(-c2cnccn2)cn1-c1cccnc1

$$$$
