
     RDKit          3D

 31 33  0  0  0  0  0  0  0  0999 V2000
    5.0073    1.8729   17.0468 H   0  0  0  0  0  0  0  0  0  0  0  0
    5.4381    1.2819   17.8549 C   0  0  0  0  0  0  0  0  0  0  0  0
    6.5589    0.5992   17.5652 N   0  0  0  0  0  0  0  0  0  0  0  0
    7.1290   -0.1155   18.5434 C   0  0  0  0  0  0  0  0  0  0  0  0
    8.0463   -0.6549   18.3021 H   0  0  0  0  0  0  0  0  0  0  0  0
    6.6170   -0.1906   19.8533 C   0  0  0  0  0  0  0  0  0  0  0  0
    7.2983   -0.9218   20.8844 N   0  0  0  0  0  0  0  0  0  0  0  0
    8.4977   -0.5906   21.5189 C   0  0  0  0  0  0  0  0  0  0  0  0
    9.4845    0.4231   21.0285 C   0  0  0  0  0  0  0  0  0  0  0  0
    9.0218    1.0019   20.2272 H   0  0  0  0  0  0  0  0  0  0  0  0
   10.3014   -0.1502   20.5783 H   0  0  0  0  0  0  0  0  0  0  0  0
   10.0572    1.3440   22.0900 C   0  0  0  0  0  0  0  0  0  0  0  0
   11.3444    1.1139   22.6055 C   0  0  0  0  0  0  0  0  0  0  0  0
   11.8881    0.2312   22.2713 H   0  0  0  0  0  0  0  0  0  0  0  0
   11.9417    1.9899   23.5170 C   0  0  0  0  0  0  0  0  0  0  0  0
   12.9594    1.8226   23.8628 H   0  0  0  0  0  0  0  0  0  0  0  0
   11.2358    3.1150   23.9561 C   0  0  0  0  0  0  0  0  0  0  0  0
   11.6907    3.8035   24.6632 H   0  0  0  0  0  0  0  0  0  0  0  0
    9.9347    3.3444   23.4955 C   0  0  0  0  0  0  0  0  0  0  0  0
    9.3651    4.2093   23.8208 H   0  0  0  0  0  0  0  0  0  0  0  0
    9.3566    2.4607   22.5774 C   0  0  0  0  0  0  0  0  0  0  0  0
    7.7284    2.7850   22.0376 Cl  0  0  0  0  0  0  0  0  0  0  0  0
    8.7529   -1.4006   22.5020 N   0  0  0  0  0  0  0  0  0  0  0  0
    7.6922   -2.2501   22.5014 N   0  0  0  0  0  0  0  0  0  0  0  0
    7.6126   -3.0227   23.1436 H   0  0  0  0  0  0  0  0  0  0  0  0
    6.7886   -2.0431   21.5290 C   0  0  0  0  0  0  0  0  0  0  0  0
    5.4667   -3.0010   21.2129 S   0  0  0  0  0  0  0  0  0  0  0  0
    5.4179    0.4772   20.1314 C   0  0  0  0  0  0  0  0  0  0  0  0
    4.9648    0.4033   21.1196 H   0  0  0  0  0  0  0  0  0  0  0  0
    4.8334    1.2437   19.1157 C   0  0  0  0  0  0  0  0  0  0  0  0
    3.9279    1.8170   19.2887 H   0  0  0  0  0  0  0  0  0  0  0  0
  1  2  1  0
  2  3  2  0
  3  4  1  0
  4  5  1  0
  4  6  2  0
  6  7  1  0
  7  8  1  0
  8  9  1  0
  9 10  1  0
  9 11  1  0
  9 12  1  0
 12 13  2  0
 13 14  1  0
 13 15  1  0
 15 16  1  0
 15 17  2  0
 17 18  1  0
 17 19  1  0
 19 20  1  0
 19 21  2  0
 21 22  1  0
  8 23  2  0
 23 24  1  0
 24 25  1  0
 24 26  1  0
 26 27  2  0
  6 28  1  0
 28 29  1  0
 28 30  2  0
 30 31  1  0
 30  2  1  0
 26  7  1  0
 21 12  1  0
M  END
>  <cnnaffinity>  (1) 
-5.57511

>  <filename>  (1) 
S=c1[nH]nc(Cc2ccccc2Cl)n1-c1cccnc1

$$$$
