
     RDKit          3D

 32 35  0  0  0  0  0  0  0  0999 V2000
    4.9237    1.8197   16.9689 H   0  0  0  0  0  0  0  0  0  0  0  0
    5.3881    1.3010   17.8086 C   0  0  0  0  0  0  0  0  0  0  0  0
    6.5421    0.6627   17.5539 N   0  0  0  0  0  0  0  0  0  0  0  0
    7.1682    0.0460   18.5652 C   0  0  0  0  0  0  0  0  0  0  0  0
    8.1165   -0.4408   18.3305 H   0  0  0  0  0  0  0  0  0  0  0  0
    6.6587    0.0113   19.8765 C   0  0  0  0  0  0  0  0  0  0  0  0
    7.3262   -0.6730   20.9431 N   0  0  0  0  0  0  0  0  0  0  0  0
    6.7091   -1.5830   21.7936 C   0  0  0  0  0  0  0  0  0  0  0  0
    5.6596   -1.8078   21.6724 H   0  0  0  0  0  0  0  0  0  0  0  0
    7.6314   -2.0388   22.6831 C   0  0  0  0  0  0  0  0  0  0  0  0
    7.4768   -2.9099   23.8462 C   0  0  0  0  0  0  0  0  0  0  0  0
    6.3425   -2.9129   24.6004 C   0  0  0  0  0  0  0  0  0  0  0  0
    5.5015   -2.2408   24.4842 H   0  0  0  0  0  0  0  0  0  0  0  0
    6.3438   -4.0341   25.9089 S   0  0  0  0  0  0  0  0  0  0  0  0
    7.9532   -4.5655   25.4959 C   0  0  0  0  0  0  0  0  0  0  0  0
    8.7060   -5.5686   26.1424 C   0  0  0  0  0  0  0  0  0  0  0  0
    8.2794   -6.1509   26.9550 H   0  0  0  0  0  0  0  0  0  0  0  0
   10.0132   -5.8005   25.7267 C   0  0  0  0  0  0  0  0  0  0  0  0
   10.6074   -6.5717   26.2175 H   0  0  0  0  0  0  0  0  0  0  0  0
   10.5520   -5.0494   24.6605 C   0  0  0  0  0  0  0  0  0  0  0  0
   11.5868   -5.1688   24.3595 H   0  0  0  0  0  0  0  0  0  0  0  0
    9.7800   -4.1327   23.9561 C   0  0  0  0  0  0  0  0  0  0  0  0
   10.1901   -3.6496   23.0727 H   0  0  0  0  0  0  0  0  0  0  0  0
    8.4558   -3.8628   24.3744 C   0  0  0  0  0  0  0  0  0  0  0  0
    8.8162   -1.3993   22.3253 N   0  0  0  0  0  0  0  0  0  0  0  0
    9.6799   -1.3528   22.8387 H   0  0  0  0  0  0  0  0  0  0  0  0
    8.6355   -0.4799   21.3402 C   0  0  0  0  0  0  0  0  0  0  0  0
    9.7758    0.6154   20.8455 S   0  0  0  0  0  0  0  0  0  0  0  0
    5.4482    0.6634   20.1273 C   0  0  0  0  0  0  0  0  0  0  0  0
    5.0492    0.6587   21.1400 H   0  0  0  0  0  0  0  0  0  0  0  0
    4.8017    1.3230   19.0767 C   0  0  0  0  0  0  0  0  0  0  0  0
    3.8727    1.8576   19.2311 H   0  0  0  0  0  0  0  0  0  0  0  0
  1  2  1  0
  2  3  2  0
  3  4  1  0
  4  5  1  0
  4  6  2  0
  6  7  1  0
  7  8  1  0
  8  9  1  0
  8 10  2  0
 10 11  1  0
 11 12  2  0
 12 13  1  0
 12 14  1  0
 14 15  1  0
 15 16  2  0
 16 17  1  0
 16 18  1  0
 18 19  1  0
 18 20  2  0
 20 21  1  0
 20 22  1  0
 22 23  1  0
 22 24  2  0
 10 25  1  0
 25 26  1  0
 25 27  1  0
 27 28  2  0
  6 29  1  0
 29 30  1  0
 29 31  2  0
 31 32  1  0
 31  2  1  0
 27  7  1  0
 24 11  1  0
 24 15  1  0
M  END
>  <cnnaffinity>  (1) 
-5.68732

>  <filename>  (1) 
S=c1[nH]c(-c2csc3ccccc23)cn1-c1cccnc1

$$$$
