
     RDKit          3D

 31 33  0  0  0  0  0  0  0  0999 V2000
    4.9492    1.8019   16.7929 H   0  0  0  0  0  0  0  0  0  0  0  0
    5.4061    1.3470   17.6680 C   0  0  0  0  0  0  0  0  0  0  0  0
    6.5997    0.7597   17.4833 N   0  0  0  0  0  0  0  0  0  0  0  0
    7.1815    0.2036   18.5531 C   0  0  0  0  0  0  0  0  0  0  0  0
    8.1575   -0.2510   18.3816 H   0  0  0  0  0  0  0  0  0  0  0  0
    6.6254    0.1910   19.8482 C   0  0  0  0  0  0  0  0  0  0  0  0
    7.3736   -0.4375   20.9431 C   0  0  0  0  0  0  0  0  0  0  0  0
    8.3882   -1.3394   20.9354 C   0  0  0  0  0  0  0  0  0  0  0  0
    8.9174   -1.8737   20.1649 H   0  0  0  0  0  0  0  0  0  0  0  0
    8.7377   -1.5884   22.2492 N   0  0  0  0  0  0  0  0  0  0  0  0
    9.8295   -2.4077   22.5596 N   0  0  0  0  0  0  0  0  0  0  0  0
   10.5913   -1.8379   22.9236 H   0  0  0  0  0  0  0  0  0  0  0  0
    9.5999   -3.4986   23.4438 C   0  0  0  0  0  0  0  0  0  0  0  0
   10.6668   -3.8943   24.2593 C   0  0  0  0  0  0  0  0  0  0  0  0
   11.5924   -3.3455   24.1852 H   0  0  0  0  0  0  0  0  0  0  0  0
   10.5437   -4.9793   25.1260 C   0  0  0  0  0  0  0  0  0  0  0  0
   11.3538   -5.2694   25.7879 H   0  0  0  0  0  0  0  0  0  0  0  0
    9.3587   -5.7104   25.1270 C   0  0  0  0  0  0  0  0  0  0  0  0
    9.2367   -7.1052   26.1408 Cl  0  0  0  0  0  0  0  0  0  0  0  0
    8.2845   -5.3369   24.3176 C   0  0  0  0  0  0  0  0  0  0  0  0
    7.3485   -5.8817   24.3778 H   0  0  0  0  0  0  0  0  0  0  0  0
    8.4056   -4.2258   23.4774 C   0  0  0  0  0  0  0  0  0  0  0  0
    7.5817   -3.9291   22.8406 H   0  0  0  0  0  0  0  0  0  0  0  0
    7.9608   -0.8419   23.1134 C   0  0  0  0  0  0  0  0  0  0  0  0
    8.0320   -0.7008   24.7676 S   0  0  0  0  0  0  0  0  0  0  0  0
    7.1157   -0.1750   22.2852 N   0  0  0  0  0  0  0  0  0  0  0  0
    6.5336    0.5340   22.7028 H   0  0  0  0  0  0  0  0  0  0  0  0
    5.3650    0.7997   20.0104 C   0  0  0  0  0  0  0  0  0  0  0  0
    4.8764    0.8174   20.9881 H   0  0  0  0  0  0  0  0  0  0  0  0
    4.7488    1.3828   18.9060 C   0  0  0  0  0  0  0  0  0  0  0  0
    3.7883    1.8819   18.9928 H   0  0  0  0  0  0  0  0  0  0  0  0
  1  2  1  0
  2  3  2  0
  3  4  1  0
  4  5  1  0
  4  6  2  0
  6  7  1  0
  7  8  2  0
  8  9  1  0
  8 10  1  0
 10 11  1  0
 11 12  1  0
 11 13  1  0
 13 14  2  0
 14 15  1  0
 14 16  1  0
 16 17  1  0
 16 18  2  0
 18 19  1  0
 18 20  1  0
 20 21  1  0
 20 22  2  0
 22 23  1  0
 10 24  1  0
 24 25  2  0
 24 26  1  0
 26 27  1  0
  6 28  1  0
 28 29  1  0
 28 30  2  0
 30 31  1  0
 30  2  1  0
 26  7  1  0
 22 13  1  0
M  END
>  <cnnaffinity>  (1) 
-5.38904

>  <filename>  (1) 
S=c1[nH]c(-c2cccnc2)cn1Nc1ccc(Cl)cc1

$$$$
