
     RDKit          3D

 28 30  0  0  0  0  0  0  0  0999 V2000
    5.0265   -4.7098   25.0505 H   0  0  0  0  0  0  0  0  0  0  0  0
    6.0536   -4.3645   24.9487 C   0  0  0  0  0  0  0  0  0  0  0  0
    6.2605   -3.4964   23.9581 N   0  0  0  0  0  0  0  0  0  0  0  0
    7.5103   -3.0261   23.7891 C   0  0  0  0  0  0  0  0  0  0  0  0
    7.6820   -2.0611   22.6806 C   0  0  0  0  0  0  0  0  0  0  0  0
    6.7440   -1.6031   21.8160 C   0  0  0  0  0  0  0  0  0  0  0  0
    5.6943   -1.8525   21.7527 H   0  0  0  0  0  0  0  0  0  0  0  0
    7.3439   -0.6989   20.9499 N   0  0  0  0  0  0  0  0  0  0  0  0
    6.6593   -0.0078   19.9062 C   0  0  0  0  0  0  0  0  0  0  0  0
    7.1736    0.0472   18.5973 C   0  0  0  0  0  0  0  0  0  0  0  0
    8.1233   -0.4282   18.3730 H   0  0  0  0  0  0  0  0  0  0  0  0
    6.5587    0.6687   17.5861 N   0  0  0  0  0  0  0  0  0  0  0  0
    5.3983    1.2928   17.8415 C   0  0  0  0  0  0  0  0  0  0  0  0
    4.9189    1.7851   16.9957 H   0  0  0  0  0  0  0  0  0  0  0  0
    4.8139    1.3073   19.1118 C   0  0  0  0  0  0  0  0  0  0  0  0
    3.8827    1.8377   19.2637 H   0  0  0  0  0  0  0  0  0  0  0  0
    5.4473    0.6393   20.1658 C   0  0  0  0  0  0  0  0  0  0  0  0
    5.0235    0.6284   21.1718 H   0  0  0  0  0  0  0  0  0  0  0  0
    8.6707   -0.5331   21.2943 C   0  0  0  0  0  0  0  0  0  0  0  0
    9.8121    0.4970   20.6990 S   0  0  0  0  0  0  0  0  0  0  0  0
    8.8616   -1.4081   22.3135 N   0  0  0  0  0  0  0  0  0  0  0  0
    9.7784   -1.4292   22.7230 H   0  0  0  0  0  0  0  0  0  0  0  0
    8.5861   -3.4290   24.6032 C   0  0  0  0  0  0  0  0  0  0  0  0
    9.5757   -3.0289   24.4231 H   0  0  0  0  0  0  0  0  0  0  0  0
    8.3616   -4.3437   25.6301 C   0  0  0  0  0  0  0  0  0  0  0  0
    9.1834   -4.6698   26.2716 H   0  0  0  0  0  0  0  0  0  0  0  0
    7.0605   -4.8189   25.8033 C   0  0  0  0  0  0  0  0  0  0  0  0
    6.8193   -5.5296   26.5799 H   0  0  0  0  0  0  0  0  0  0  0  0
  1  2  1  0
  2  3  2  0
  3  4  1  0
  4  5  1  0
  5  6  2  0
  6  7  1  0
  6  8  1  0
  8  9  1  0
  9 10  2  0
 10 11  1  0
 10 12  1  0
 12 13  2  0
 13 14  1  0
 13 15  1  0
 15 16  1  0
 15 17  2  0
 17 18  1  0
  8 19  1  0
 19 20  2  0
 19 21  1  0
 21 22  1  0
  4 23  2  0
 23 24  1  0
 23 25  1  0
 25 26  1  0
 25 27  2  0
 27 28  1  0
 27  2  1  0
 21  5  1  0
 17  9  1  0
M  END
>  <cnnaffinity>  (1) 
-5.27867

>  <filename>  (1) 
S=c1[nH]c(-c2ccccn2)cn1-c1cccnc1

$$$$
