
     RDKit          3D

 29 31  0  0  0  0  0  0  0  0999 V2000
    4.9365    1.8091   16.9898 H   0  0  0  0  0  0  0  0  0  0  0  0
    5.4107    1.3047   17.8313 C   0  0  0  0  0  0  0  0  0  0  0  0
    6.5767    0.6931   17.5658 N   0  0  0  0  0  0  0  0  0  0  0  0
    7.1837    0.0516   18.5700 C   0  0  0  0  0  0  0  0  0  0  0  0
    8.1311   -0.4438   18.3623 H   0  0  0  0  0  0  0  0  0  0  0  0
    6.6612   -0.0333   19.8693 C   0  0  0  0  0  0  0  0  0  0  0  0
    7.3857   -0.7532   20.8711 N   0  0  0  0  0  0  0  0  0  0  0  0
    8.7129   -0.5001   21.2113 C   0  0  0  0  0  0  0  0  0  0  0  0
    9.2859    0.2079   20.6279 H   0  0  0  0  0  0  0  0  0  0  0  0
    9.0437   -1.2863   22.2604 C   0  0  0  0  0  0  0  0  0  0  0  0
   10.3335   -1.4302   22.9991 C   0  0  0  0  0  0  0  0  0  0  0  0
   11.1630   -1.3264   22.2861 H   0  0  0  0  0  0  0  0  0  0  0  0
   10.4086   -2.4470   23.3915 H   0  0  0  0  0  0  0  0  0  0  0  0
   10.4689   -0.4275   24.1285 C   0  0  0  0  0  0  0  0  0  0  0  0
    9.7187   -0.5511   24.9086 H   0  0  0  0  0  0  0  0  0  0  0  0
   10.8614    0.9875   23.8275 C   0  0  0  0  0  0  0  0  0  0  0  0
   10.3612    1.7963   24.3509 H   0  0  0  0  0  0  0  0  0  0  0  0
   11.1233    1.2036   22.7927 H   0  0  0  0  0  0  0  0  0  0  0  0
   11.8045    0.0837   24.5735 C   0  0  0  0  0  0  0  0  0  0  0  0
   12.6970   -0.2390   24.0424 H   0  0  0  0  0  0  0  0  0  0  0  0
   11.9592    0.2329   25.6357 H   0  0  0  0  0  0  0  0  0  0  0  0
    7.8907   -2.0157   22.5441 N   0  0  0  0  0  0  0  0  0  0  0  0
    7.6932   -2.6896   23.2655 H   0  0  0  0  0  0  0  0  0  0  0  0
    6.8900   -1.7698   21.6591 C   0  0  0  0  0  0  0  0  0  0  0  0
    5.4869   -2.6613   21.5398 S   0  0  0  0  0  0  0  0  0  0  0  0
    5.4469    0.6135   20.1476 C   0  0  0  0  0  0  0  0  0  0  0  0
    5.0182    0.5872   21.1502 H   0  0  0  0  0  0  0  0  0  0  0  0
    4.8158    1.3015   19.0988 C   0  0  0  0  0  0  0  0  0  0  0  0
    3.8778    1.8323   19.2451 H   0  0  0  0  0  0  0  0  0  0  0  0
  1  2  1  0
  2  3  2  0
  3  4  1  0
  4  5  1  0
  4  6  2  0
  6  7  1  0
  7  8  1  0
  8  9  1  0
  8 10  2  0
 10 11  1  0
 11 12  1  0
 11 13  1  0
 11 14  1  0
 14 15  1  0
 14 16  1  0
 16 17  1  0
 16 18  1  0
 16 19  1  0
 19 20  1  0
 19 21  1  0
 10 22  1  0
 22 23  1  0
 22 24  1  0
 24 25  2  0
  6 26  1  0
 26 27  1  0
 26 28  2  0
 28 29  1  0
 28  2  1  0
 24  7  1  0
 19 14  1  0
M  END
>  <cnnaffinity>  (1) 
-5.17574

>  <filename>  (1) 
S=c1[nH]c(CC2CC2)cn1-c1cccnc1

$$$$
