
     RDKit          3D

 40 42  0  0  0  0  0  0  0  0999 V2000
    5.6811   -1.7448   21.6897 H   0  0  0  0  0  0  0  0  0  0  0  0
    6.7370   -1.5758   21.7958 C   0  0  0  0  0  0  0  0  0  0  0  0
    7.3764   -0.7623   20.9306 C   0  0  0  0  0  0  0  0  0  0  0  0
    6.7053    0.0244   19.8822 C   0  0  0  0  0  0  0  0  0  0  0  0
    7.2201    0.0888   18.5735 C   0  0  0  0  0  0  0  0  0  0  0  0
    8.1630   -0.4069   18.3284 H   0  0  0  0  0  0  0  0  0  0  0  0
    6.6071    0.7036   17.5572 N   0  0  0  0  0  0  0  0  0  0  0  0
    5.4396    1.3189   17.8143 C   0  0  0  0  0  0  0  0  0  0  0  0
    4.9546    1.7993   16.9666 H   0  0  0  0  0  0  0  0  0  0  0  0
    4.8442    1.3338   19.0793 C   0  0  0  0  0  0  0  0  0  0  0  0
    3.8930    1.8340   19.2212 H   0  0  0  0  0  0  0  0  0  0  0  0
    5.4832    0.6784   20.1294 C   0  0  0  0  0  0  0  0  0  0  0  0
    5.0635    0.6855   21.1364 H   0  0  0  0  0  0  0  0  0  0  0  0
    8.7624   -0.6979   20.9978 N   0  0  0  0  0  0  0  0  0  0  0  0
    9.2926   -0.0091   20.5017 H   0  0  0  0  0  0  0  0  0  0  0  0
    9.5230   -1.4514   21.8291 C   0  0  0  0  0  0  0  0  0  0  0  0
   11.1753   -1.3001   21.8601 S   0  0  0  0  0  0  0  0  0  0  0  0
    8.8587   -2.3192   22.6236 N   0  0  0  0  0  0  0  0  0  0  0  0
    9.5059   -2.7416   23.2689 H   0  0  0  0  0  0  0  0  0  0  0  0
    7.4271   -2.1703   22.9771 C   0  0  1  0  0  0  0  0  0  0  0  0
    7.0210   -3.1772   23.1861 H   0  0  0  0  0  0  0  0  0  0  0  0
    7.2414   -1.3392   24.3166 C   0  0  0  0  0  0  0  0  0  0  0  0
    7.7069   -0.3587   24.1579 H   0  0  0  0  0  0  0  0  0  0  0  0
    7.8466   -1.8354   25.0871 H   0  0  0  0  0  0  0  0  0  0  0  0
    5.8820   -1.1365   24.8216 N   0  0  0  0  0  0  0  0  0  0  0  0
    5.3615   -0.5415   24.1766 H   0  0  0  0  0  0  0  0  0  0  0  0
    5.0806   -2.3365   25.1067 C   0  0  0  0  0  0  0  0  0  0  0  0
    5.6850   -2.9875   25.7524 H   0  0  0  0  0  0  0  0  0  0  0  0
    4.8461   -2.9139   24.1936 H   0  0  0  0  0  0  0  0  0  0  0  0
    3.7742   -2.0201   25.8279 C   0  0  0  0  0  0  0  0  0  0  0  0
    3.7705   -1.7701   27.2111 C   0  0  0  0  0  0  0  0  0  0  0  0
    4.6925   -1.8737   27.7813 H   0  0  0  0  0  0  0  0  0  0  0  0
    2.5989   -1.3820   27.8670 C   0  0  0  0  0  0  0  0  0  0  0  0
    2.6097   -1.2321   28.9439 H   0  0  0  0  0  0  0  0  0  0  0  0
    1.4147   -1.1931   27.1482 C   0  0  0  0  0  0  0  0  0  0  0  0
    0.5215   -0.8358   27.6547 H   0  0  0  0  0  0  0  0  0  0  0  0
    1.3902   -1.4747   25.7799 C   0  0  0  0  0  0  0  0  0  0  0  0
    0.4807   -1.2940   25.2117 H   0  0  0  0  0  0  0  0  0  0  0  0
    2.5452   -1.9486   25.1493 C   0  0  0  0  0  0  0  0  0  0  0  0
    2.4861   -2.2927   24.1268 H   0  0  0  0  0  0  0  0  0  0  0  0
  1  2  1  0
  2  3  2  0
  3  4  1  0
  4  5  2  0
  5  6  1  0
  5  7  1  0
  7  8  2  0
  8  9  1  0
  8 10  1  0
 10 11  1  0
 10 12  2  0
 12 13  1  0
  3 14  1  0
 14 15  1  0
 14 16  1  0
 16 17  2  0
 16 18  1  0
 18 19  1  0
 18 20  1  0
 20 21  1  1
 20 22  1  0
 22 23  1  0
 22 24  1  0
 22 25  1  0
 25 26  1  0
 25 27  1  0
 27 28  1  0
 27 29  1  0
 27 30  1  0
 30 31  2  0
 31 32  1  0
 31 33  1  0
 33 34  1  0
 33 35  2  0
 35 36  1  0
 35 37  1  0
 37 38  1  0
 37 39  2  0
 39 40  1  0
 20  2  1  0
 39 30  1  0
 12  4  1  0
M  END
>  <cnnaffinity>  (1) 
-4.75147

>  <filename>  (1) 
S=C1NC(c2cccnc2)=C[C@H](CNCc2ccccc2)N1

$$$$
