
     RDKit          3D

 37 39  0  0  0  0  0  0  0  0999 V2000
    4.9477    1.8003   16.9796 H   0  0  0  0  0  0  0  0  0  0  0  0
    5.4137    1.2983   17.8245 C   0  0  0  0  0  0  0  0  0  0  0  0
    6.5728    0.6708   17.5731 N   0  0  0  0  0  0  0  0  0  0  0  0
    7.1767    0.0559   18.5971 C   0  0  0  0  0  0  0  0  0  0  0  0
    8.1090   -0.4386   18.3321 H   0  0  0  0  0  0  0  0  0  0  0  0
    6.6690    0.0145   19.9138 C   0  0  0  0  0  0  0  0  0  0  0  0
    7.3559   -0.6916   21.0096 C   0  0  0  0  0  0  0  0  0  0  0  0
    6.8748   -1.2514   22.1465 C   0  0  0  0  0  0  0  0  0  0  0  0
    5.8793   -1.3860   22.5204 H   0  0  0  0  0  0  0  0  0  0  0  0
    7.9090   -1.8724   22.8262 N   0  0  0  0  0  0  0  0  0  0  0  0
    7.6265   -2.7050   23.9386 N   0  0  0  0  0  0  0  0  0  0  0  0
    6.6819   -2.4904   24.2732 H   0  0  0  0  0  0  0  0  0  0  0  0
    8.5973   -2.5600   25.0387 C   0  0  0  0  0  0  0  0  0  0  0  0
    9.0813   -1.5767   24.9950 H   0  0  0  0  0  0  0  0  0  0  0  0
    9.3953   -3.2950   24.8793 H   0  0  0  0  0  0  0  0  0  0  0  0
    7.9830   -2.7674   26.4276 C   0  0  0  0  0  0  0  0  0  0  0  0
    8.8017   -2.9231   27.1480 H   0  0  0  0  0  0  0  0  0  0  0  0
    7.4004   -3.6959   26.4148 H   0  0  0  0  0  0  0  0  0  0  0  0
    7.1186   -1.6131   26.8949 C   0  0  0  0  0  0  0  0  0  0  0  0
    5.7183   -1.6680   26.8021 C   0  0  0  0  0  0  0  0  0  0  0  0
    5.2418   -2.5782   26.4413 H   0  0  0  0  0  0  0  0  0  0  0  0
    4.9261   -0.5795   27.1879 C   0  0  0  0  0  0  0  0  0  0  0  0
    3.8441   -0.6392   27.1012 H   0  0  0  0  0  0  0  0  0  0  0  0
    5.5276    0.5845   27.6766 C   0  0  0  0  0  0  0  0  0  0  0  0
    4.9157    1.4347   27.9703 H   0  0  0  0  0  0  0  0  0  0  0  0
    6.9214    0.6515   27.7815 C   0  0  0  0  0  0  0  0  0  0  0  0
    7.3959    1.5537   28.1605 H   0  0  0  0  0  0  0  0  0  0  0  0
    7.7081   -0.4375   27.3911 C   0  0  0  0  0  0  0  0  0  0  0  0
    8.7918   -0.3786   27.4836 H   0  0  0  0  0  0  0  0  0  0  0  0
    9.0841   -1.6935   22.1200 C   0  0  0  0  0  0  0  0  0  0  0  0
   10.6643   -2.1335   22.4355 S   0  0  0  0  0  0  0  0  0  0  0  0
    8.7135   -0.9998   21.0105 N   0  0  0  0  0  0  0  0  0  0  0  0
    9.4645   -0.7246   20.3962 H   0  0  0  0  0  0  0  0  0  0  0  0
    5.4413    0.6679   20.1418 C   0  0  0  0  0  0  0  0  0  0  0  0
    5.0012    0.6829   21.1389 H   0  0  0  0  0  0  0  0  0  0  0  0
    4.8073    1.3182   19.0832 C   0  0  0  0  0  0  0  0  0  0  0  0
    3.8705    1.8480   19.2163 H   0  0  0  0  0  0  0  0  0  0  0  0
  1  2  1  0
  2  3  2  0
  3  4  1  0
  4  5  1  0
  4  6  2  0
  6  7  1  0
  7  8  2  0
  8  9  1  0
  8 10  1  0
 10 11  1  0
 11 12  1  0
 11 13  1  0
 13 14  1  0
 13 15  1  0
 13 16  1  0
 16 17  1  0
 16 18  1  0
 16 19  1  0
 19 20  2  0
 20 21  1  0
 20 22  1  0
 22 23  1  0
 22 24  2  0
 24 25  1  0
 24 26  1  0
 26 27  1  0
 26 28  2  0
 28 29  1  0
 10 30  1  0
 30 31  2  0
 30 32  1  0
 32 33  1  0
  6 34  1  0
 34 35  1  0
 34 36  2  0
 36 37  1  0
 36  2  1  0
 32  7  1  0
 28 19  1  0
M  END
>  <cnnaffinity>  (1) 
-5.37526

>  <filename>  (1) 
S=c1[nH]c(-c2cccnc2)cn1NCCc1ccccc1

$$$$
