
     RDKit          3D

 34 37  0  0  0  0  0  0  0  0999 V2000
    5.1472    1.9796   16.4733 H   0  0  0  0  0  0  0  0  0  0  0  0
    5.5509    1.4631   17.3390 C   0  0  0  0  0  0  0  0  0  0  0  0
    6.6741    0.7592   17.1385 N   0  0  0  0  0  0  0  0  0  0  0  0
    7.1961    0.1166   18.1891 C   0  0  0  0  0  0  0  0  0  0  0  0
    8.1056   -0.4429   17.9738 H   0  0  0  0  0  0  0  0  0  0  0  0
    6.6368    0.1224   19.4819 C   0  0  0  0  0  0  0  0  0  0  0  0
    7.2609   -0.6063   20.6024 C   0  0  0  0  0  0  0  0  0  0  0  0
    6.7183   -1.2003   21.6908 C   0  0  0  0  0  0  0  0  0  0  0  0
    5.6846   -1.4082   21.9179 H   0  0  0  0  0  0  0  0  0  0  0  0
    7.7655   -1.6269   22.5307 N   0  0  0  0  0  0  0  0  0  0  0  0
    7.6693   -2.3112   23.7742 C   0  0  0  0  0  0  0  0  0  0  0  0
    8.5769   -3.2117   24.0329 N   0  0  0  0  0  0  0  0  0  0  0  0
    8.5215   -3.8497   25.2431 C   0  0  0  0  0  0  0  0  0  0  0  0
    9.6274   -4.6782   25.5761 C   0  0  0  0  0  0  0  0  0  0  0  0
   10.4272   -4.7080   24.8425 H   0  0  0  0  0  0  0  0  0  0  0  0
    9.6648   -5.3506   26.7740 C   0  0  0  0  0  0  0  0  0  0  0  0
   10.5515   -5.9277   27.0385 H   0  0  0  0  0  0  0  0  0  0  0  0
    8.5635   -5.2614   27.6702 C   0  0  0  0  0  0  0  0  0  0  0  0
    8.6015   -5.8374   28.5918 H   0  0  0  0  0  0  0  0  0  0  0  0
    7.4839   -4.4475   27.3965 C   0  0  0  0  0  0  0  0  0  0  0  0
    6.6522   -4.3691   28.1016 H   0  0  0  0  0  0  0  0  0  0  0  0
    7.4595   -3.6784   26.1891 C   0  0  0  0  0  0  0  0  0  0  0  0
    6.4688   -2.6933   25.8525 C   0  0  0  0  0  0  0  0  0  0  0  0
    5.6509   -2.4801   26.5475 H   0  0  0  0  0  0  0  0  0  0  0  0
    6.5878   -2.0041   24.6657 C   0  0  0  0  0  0  0  0  0  0  0  0
    5.8942   -1.2173   24.3889 H   0  0  0  0  0  0  0  0  0  0  0  0
    8.9729   -1.2487   21.9801 C   0  0  0  0  0  0  0  0  0  0  0  0
   10.5233   -1.2216   22.5600 S   0  0  0  0  0  0  0  0  0  0  0  0
    8.6332   -0.7274   20.7661 N   0  0  0  0  0  0  0  0  0  0  0  0
    9.3719   -0.2714   20.2607 H   0  0  0  0  0  0  0  0  0  0  0  0
    5.4550    0.8688   19.6629 C   0  0  0  0  0  0  0  0  0  0  0  0
    4.9932    0.9332   20.6493 H   0  0  0  0  0  0  0  0  0  0  0  0
    4.9116    1.5529   18.5771 C   0  0  0  0  0  0  0  0  0  0  0  0
    4.0150    2.1562   18.6709 H   0  0  0  0  0  0  0  0  0  0  0  0
  1  2  1  0
  2  3  2  0
  3  4  1  0
  4  5  1  0
  4  6  2  0
  6  7  1  0
  7  8  2  0
  8  9  1  0
  8 10  1  0
 10 11  1  0
 11 12  2  0
 12 13  1  0
 13 14  2  0
 14 15  1  0
 14 16  1  0
 16 17  1  0
 16 18  2  0
 18 19  1  0
 18 20  1  0
 20 21  1  0
 20 22  2  0
 22 23  1  0
 23 24  1  0
 23 25  2  0
 25 26  1  0
 10 27  1  0
 27 28  2  0
 27 29  1  0
 29 30  1  0
  6 31  1  0
 31 32  1  0
 31 33  2  0
 33 34  1  0
 33  2  1  0
 29  7  1  0
 25 11  1  0
 22 13  1  0
M  END
>  <cnnaffinity>  (1) 
-5.50426

>  <filename>  (1) 
S=c1[nH]c(-c2cccnc2)cn1-c1ccc2ccccc2n1

$$$$
