
     RDKit          3D

 18 19  0  0  0  0  0  0  0  0999 V2000
    4.9114    1.8214   17.0327 H   0  0  0  0  0  0  0  0  0  0  0  0
    5.4211    1.3013   17.8394 C   0  0  0  0  0  0  0  0  0  0  0  0
    6.5911    0.6918   17.5840 N   0  0  0  0  0  0  0  0  0  0  0  0
    7.2142    0.0644   18.6028 C   0  0  0  0  0  0  0  0  0  0  0  0
    8.1584   -0.4309   18.3948 H   0  0  0  0  0  0  0  0  0  0  0  0
    6.6882   -0.0124   19.9183 C   0  0  0  0  0  0  0  0  0  0  0  0
    7.3314   -0.7094   20.9728 N   0  0  0  0  0  0  0  0  0  0  0  0
    8.5783   -0.4397   21.5629 C   0  0  0  0  0  0  0  0  0  0  0  0
    9.9744    1.2997   21.2588 I   0  0  0  0  0  0  0  0  0  0  0  0
    8.8920   -1.3261   22.4896 N   0  0  0  0  0  0  0  0  0  0  0  0
    7.8322   -2.1838   22.5408 N   0  0  0  0  0  0  0  0  0  0  0  0
    7.6581   -2.8930   23.2584 H   0  0  0  0  0  0  0  0  0  0  0  0
    6.8507   -1.8141   21.6638 C   0  0  0  0  0  0  0  0  0  0  0  0
    5.4690   -2.7221   21.5086 S   0  0  0  0  0  0  0  0  0  0  0  0
    5.4587    0.6098   20.1542 C   0  0  0  0  0  0  0  0  0  0  0  0
    5.0182    0.5907   21.1480 H   0  0  0  0  0  0  0  0  0  0  0  0
    4.8275    1.2818   19.1033 C   0  0  0  0  0  0  0  0  0  0  0  0
    3.8882    1.8092   19.2480 H   0  0  0  0  0  0  0  0  0  0  0  0
  1  2  1  0
  2  3  2  0
  3  4  1  0
  4  5  1  0
  4  6  2  0
  6  7  1  0
  7  8  1  0
  8  9  1  0
  8 10  2  0
 10 11  1  0
 11 12  1  0
 11 13  1  0
 13 14  2  0
  6 15  1  0
 15 16  1  0
 15 17  2  0
 17 18  1  0
 17  2  1  0
 13  7  1  0
M  END
>  <cnnaffinity>  (1) 
-4.58705

>  <filename>  (1) 
S=c1[nH]nc(I)n1-c1cccnc1

$$$$
