
     RDKit          3D

 26 28  0  0  0  0  0  0  0  0999 V2000
    4.9318    1.7975   16.9942 H   0  0  0  0  0  0  0  0  0  0  0  0
    5.3967    1.2908   17.8339 C   0  0  0  0  0  0  0  0  0  0  0  0
    6.5514    0.6611   17.5675 N   0  0  0  0  0  0  0  0  0  0  0  0
    7.1712    0.0448   18.5799 C   0  0  0  0  0  0  0  0  0  0  0  0
    8.1244   -0.4315   18.3566 H   0  0  0  0  0  0  0  0  0  0  0  0
    6.6509    0.0025   19.8893 C   0  0  0  0  0  0  0  0  0  0  0  0
    7.3293   -0.6794   20.9427 N   0  0  0  0  0  0  0  0  0  0  0  0
    6.7302   -1.6016   21.7909 C   0  0  0  0  0  0  0  0  0  0  0  0
    5.6778   -1.8196   21.6965 H   0  0  0  0  0  0  0  0  0  0  0  0
    7.6713   -2.0601   22.6527 C   0  0  0  0  0  0  0  0  0  0  0  0
    7.5679   -3.0017   23.7580 C   0  0  0  0  0  0  0  0  0  0  0  0
    6.3830   -3.5997   24.1001 C   0  0  0  0  0  0  0  0  0  0  0  0
    5.4263   -3.4436   23.6275 H   0  0  0  0  0  0  0  0  0  0  0  0
    6.5290   -4.6617   25.4258 S   0  0  0  0  0  0  0  0  0  0  0  0
    8.2088   -4.3221   25.5679 C   0  0  0  0  0  0  0  0  0  0  0  0
    8.7782   -4.8155   26.3481 H   0  0  0  0  0  0  0  0  0  0  0  0
    8.6296   -3.4319   24.6324 C   0  0  0  0  0  0  0  0  0  0  0  0
    9.6570   -3.0892   24.5622 H   0  0  0  0  0  0  0  0  0  0  0  0
    8.8394   -1.3981   22.3029 N   0  0  0  0  0  0  0  0  0  0  0  0
    9.7539   -1.4206   22.7174 H   0  0  0  0  0  0  0  0  0  0  0  0
    8.6496   -0.5108   21.3025 C   0  0  0  0  0  0  0  0  0  0  0  0
    9.8127    0.5400   20.7705 S   0  0  0  0  0  0  0  0  0  0  0  0
    5.4403    0.6479   20.1545 C   0  0  0  0  0  0  0  0  0  0  0  0
    5.0377    0.6317   21.1705 H   0  0  0  0  0  0  0  0  0  0  0  0
    4.8055    1.3120   19.1027 C   0  0  0  0  0  0  0  0  0  0  0  0
    3.8748    1.8452   19.2562 H   0  0  0  0  0  0  0  0  0  0  0  0
  1  2  1  0
  2  3  2  0
  3  4  1  0
  4  5  1  0
  4  6  2  0
  6  7  1  0
  7  8  1  0
  8  9  1  0
  8 10  2  0
 10 11  1  0
 11 12  2  0
 12 13  1  0
 12 14  1  0
 14 15  1  0
 15 16  1  0
 15 17  2  0
 17 18  1  0
 10 19  1  0
 19 20  1  0
 19 21  1  0
 21 22  2  0
  6 23  1  0
 23 24  1  0
 23 25  2  0
 25 26  1  0
 25  2  1  0
 21  7  1  0
 17 11  1  0
M  END
>  <cnnaffinity>  (1) 
-5.20654

>  <filename>  (1) 
S=c1[nH]c(-c2ccsc2)cn1-c1cccnc1

$$$$
