
     RDKit          3D

 29 31  0  0  0  0  0  0  0  0999 V2000
    4.9326    1.7969   16.9963 H   0  0  0  0  0  0  0  0  0  0  0  0
    5.3977    1.2897   17.8356 C   0  0  0  0  0  0  0  0  0  0  0  0
    6.5530    0.6596   17.5702 N   0  0  0  0  0  0  0  0  0  0  0  0
    7.1710    0.0430   18.5835 C   0  0  0  0  0  0  0  0  0  0  0  0
    8.1249   -0.4329   18.3647 H   0  0  0  0  0  0  0  0  0  0  0  0
    6.6509   -0.0007   19.8926 C   0  0  0  0  0  0  0  0  0  0  0  0
    7.3328   -0.6835   20.9466 N   0  0  0  0  0  0  0  0  0  0  0  0
    6.7374   -1.6110   21.7912 C   0  0  0  0  0  0  0  0  0  0  0  0
    5.6809   -1.8113   21.7178 H   0  0  0  0  0  0  0  0  0  0  0  0
    7.6765   -2.0649   22.6608 C   0  0  0  0  0  0  0  0  0  0  0  0
    7.5670   -3.0184   23.7726 C   0  0  0  0  0  0  0  0  0  0  0  0
    8.4917   -3.0831   24.8325 C   0  0  0  0  0  0  0  0  0  0  0  0
    9.3394   -2.4029   24.8539 H   0  0  0  0  0  0  0  0  0  0  0  0
    8.3196   -4.0006   25.8738 C   0  0  0  0  0  0  0  0  0  0  0  0
    9.0484   -4.0413   26.6828 H   0  0  0  0  0  0  0  0  0  0  0  0
    7.2147   -4.8656   25.8762 C   0  0  0  0  0  0  0  0  0  0  0  0
    7.0786   -5.5807   26.6866 H   0  0  0  0  0  0  0  0  0  0  0  0
    6.2841   -4.8050   24.8319 C   0  0  0  0  0  0  0  0  0  0  0  0
    5.4163   -5.4620   24.8242 H   0  0  0  0  0  0  0  0  0  0  0  0
    6.4636   -3.8896   23.7938 C   0  0  0  0  0  0  0  0  0  0  0  0
    5.7474   -3.8352   22.9811 H   0  0  0  0  0  0  0  0  0  0  0  0
    8.8409   -1.3867   22.3247 N   0  0  0  0  0  0  0  0  0  0  0  0
    9.7650   -1.4508   22.7046 H   0  0  0  0  0  0  0  0  0  0  0  0
    8.6500   -0.5082   21.3119 C   0  0  0  0  0  0  0  0  0  0  0  0
    9.8143    0.5357   20.7696 S   0  0  0  0  0  0  0  0  0  0  0  0
    5.4406    0.6455   20.1563 C   0  0  0  0  0  0  0  0  0  0  0  0
    5.0312    0.6334   21.1694 H   0  0  0  0  0  0  0  0  0  0  0  0
    4.8072    1.3098   19.1043 C   0  0  0  0  0  0  0  0  0  0  0  0
    3.8767    1.8419   19.2608 H   0  0  0  0  0  0  0  0  0  0  0  0
  1  2  1  0
  2  3  2  0
  3  4  1  0
  4  5  1  0
  4  6  2  0
  6  7  1  0
  7  8  1  0
  8  9  1  0
  8 10  2  0
 10 11  1  0
 11 12  2  0
 12 13  1  0
 12 14  1  0
 14 15  1  0
 14 16  2  0
 16 17  1  0
 16 18  1  0
 18 19  1  0
 18 20  2  0
 20 21  1  0
 10 22  1  0
 22 23  1  0
 22 24  1  0
 24 25  2  0
  6 26  1  0
 26 27  1  0
 26 28  2  0
 28 29  1  0
 28  2  1  0
 24  7  1  0
 20 11  1  0
M  END
>  <cnnaffinity>  (1) 
-5.18294

>  <filename>  (1) 
S=c1[nH]c(-c2ccccc2)cn1-c1cccnc1

$$$$
