
     RDKit          3D

 39 42  0  0  0  0  0  0  0  0999 V2000
    4.9273    1.8225   16.9728 H   0  0  0  0  0  0  0  0  0  0  0  0
    5.3903    1.2988   17.8106 C   0  0  0  0  0  0  0  0  0  0  0  0
    6.5429    0.6572   17.5574 N   0  0  0  0  0  0  0  0  0  0  0  0
    7.1701    0.0400   18.5686 C   0  0  0  0  0  0  0  0  0  0  0  0
    8.1158   -0.4518   18.3388 H   0  0  0  0  0  0  0  0  0  0  0  0
    6.6602    0.0115   19.8826 C   0  0  0  0  0  0  0  0  0  0  0  0
    7.3296   -0.6582   20.9532 N   0  0  0  0  0  0  0  0  0  0  0  0
    6.7308   -1.6068   21.7795 C   0  0  0  0  0  0  0  0  0  0  0  0
    5.6764   -1.8075   21.6762 H   0  0  0  0  0  0  0  0  0  0  0  0
    7.6635   -2.0668   22.6536 C   0  0  0  0  0  0  0  0  0  0  0  0
    7.5640   -3.0317   23.7611 C   0  0  0  0  0  0  0  0  0  0  0  0
    8.4843   -3.0781   24.8294 C   0  0  0  0  0  0  0  0  0  0  0  0
    9.3285   -2.3918   24.8672 H   0  0  0  0  0  0  0  0  0  0  0  0
    8.3080   -3.9791   25.8759 C   0  0  0  0  0  0  0  0  0  0  0  0
    9.0240   -3.9901   26.6922 H   0  0  0  0  0  0  0  0  0  0  0  0
    7.2050   -4.8533   25.9139 C   0  0  0  0  0  0  0  0  0  0  0  0
    6.9906   -5.7811   27.0605 C   0  0  0  0  0  0  0  0  0  0  0  0
    8.0729   -6.4424   27.6673 C   0  0  0  0  0  0  0  0  0  0  0  0
    9.0738   -6.2951   27.2693 H   0  0  0  0  0  0  0  0  0  0  0  0
    7.8704   -7.3263   28.7328 C   0  0  0  0  0  0  0  0  0  0  0  0
    8.7140   -7.8511   29.1663 H   0  0  0  0  0  0  0  0  0  0  0  0
    6.5785   -7.5977   29.1894 C   0  0  0  0  0  0  0  0  0  0  0  0
    6.4223   -8.3176   29.9899 H   0  0  0  0  0  0  0  0  0  0  0  0
    5.4922   -6.9411   28.6017 C   0  0  0  0  0  0  0  0  0  0  0  0
    4.4822   -7.1592   28.9352 H   0  0  0  0  0  0  0  0  0  0  0  0
    5.6981   -6.0315   27.5613 C   0  0  0  0  0  0  0  0  0  0  0  0
    4.8463   -5.5329   27.1043 H   0  0  0  0  0  0  0  0  0  0  0  0
    6.3038   -4.8130   24.8356 C   0  0  0  0  0  0  0  0  0  0  0  0
    5.4655   -5.5000   24.8204 H   0  0  0  0  0  0  0  0  0  0  0  0
    6.4748   -3.9220   23.7815 C   0  0  0  0  0  0  0  0  0  0  0  0
    5.7470   -3.8996   22.9746 H   0  0  0  0  0  0  0  0  0  0  0  0
    8.8225   -1.3642   22.3405 N   0  0  0  0  0  0  0  0  0  0  0  0
    9.7495   -1.4564   22.7136 H   0  0  0  0  0  0  0  0  0  0  0  0
    8.6350   -0.4562   21.3540 C   0  0  0  0  0  0  0  0  0  0  0  0
    9.7689    0.6434   20.8413 S   0  0  0  0  0  0  0  0  0  0  0  0
    5.4466    0.6617   20.1281 C   0  0  0  0  0  0  0  0  0  0  0  0
    5.0477    0.6572   21.1406 H   0  0  0  0  0  0  0  0  0  0  0  0
    4.8001    1.3211   19.0785 C   0  0  0  0  0  0  0  0  0  0  0  0
    3.8711    1.8604   19.2340 H   0  0  0  0  0  0  0  0  0  0  0  0
  1  2  1  0
  2  3  2  0
  3  4  1  0
  4  5  1  0
  4  6  2  0
  6  7  1  0
  7  8  1  0
  8  9  1  0
  8 10  2  0
 10 11  1  0
 11 12  2  0
 12 13  1  0
 12 14  1  0
 14 15  1  0
 14 16  2  0
 16 17  1  0
 17 18  2  0
 18 19  1  0
 18 20  1  0
 20 21  1  0
 20 22  2  0
 22 23  1  0
 22 24  1  0
 24 25  1  0
 24 26  2  0
 26 27  1  0
 16 28  1  0
 28 29  1  0
 28 30  2  0
 30 31  1  0
 10 32  1  0
 32 33  1  0
 32 34  1  0
 34 35  2  0
  6 36  1  0
 36 37  1  0
 36 38  2  0
 38 39  1  0
 38  2  1  0
 34  7  1  0
 30 11  1  0
 26 17  1  0
M  END
>  <cnnaffinity>  (1) 
-5.63755

>  <filename>  (1) 
S=c1[nH]c(-c2ccc(-c3ccccc3)cc2)cn1-c1cccnc1

$$$$
