
     RDKit          3D

 44 46  0  0  0  0  0  0  0  0999 V2000
    5.6550   -1.6469   21.7836 H   0  0  0  0  0  0  0  0  0  0  0  0
    6.7188   -1.5419   21.8098 C   0  0  0  0  0  0  0  0  0  0  0  0
    7.3591   -0.7344   20.9511 C   0  0  0  0  0  0  0  0  0  0  0  0
    6.6965    0.0421   19.8857 C   0  0  0  0  0  0  0  0  0  0  0  0
    7.2114    0.0899   18.5768 C   0  0  0  0  0  0  0  0  0  0  0  0
    8.1519   -0.4071   18.3348 H   0  0  0  0  0  0  0  0  0  0  0  0
    6.5934    0.7013   17.5586 N   0  0  0  0  0  0  0  0  0  0  0  0
    5.4281    1.3158   17.8182 C   0  0  0  0  0  0  0  0  0  0  0  0
    4.9411    1.7939   16.9712 H   0  0  0  0  0  0  0  0  0  0  0  0
    4.8292    1.3389   19.0829 C   0  0  0  0  0  0  0  0  0  0  0  0
    3.8765    1.8394   19.2261 H   0  0  0  0  0  0  0  0  0  0  0  0
    5.4718    0.6862   20.1341 C   0  0  0  0  0  0  0  0  0  0  0  0
    5.0526    0.6768   21.1430 H   0  0  0  0  0  0  0  0  0  0  0  0
    8.7448   -0.6809   21.0279 N   0  0  0  0  0  0  0  0  0  0  0  0
    9.2802    0.0237   20.5547 H   0  0  0  0  0  0  0  0  0  0  0  0
    9.4946   -1.4467   21.8598 C   0  0  0  0  0  0  0  0  0  0  0  0
   11.1272   -1.2485   21.9861 S   0  0  0  0  0  0  0  0  0  0  0  0
    8.8382   -2.4111   22.5689 N   0  0  0  0  0  0  0  0  0  0  0  0
    9.4270   -2.6523   23.3477 H   0  0  0  0  0  0  0  0  0  0  0  0
    7.4293   -2.2354   22.9124 C   0  0  1  0  0  0  0  0  0  0  0  0
    6.9698   -3.2228   23.0957 H   0  0  0  0  0  0  0  0  0  0  0  0
    7.3360   -1.4505   24.0883 O   0  0  0  0  0  0  0  0  0  0  0  0
    7.2021   -2.1422   25.3308 C   0  0  0  0  0  0  0  0  0  0  0  0
    7.8431   -3.0350   25.3590 H   0  0  0  0  0  0  0  0  0  0  0  0
    7.5753   -1.4549   26.0949 H   0  0  0  0  0  0  0  0  0  0  0  0
    5.7493   -2.5371   25.6595 C   0  0  0  0  0  0  0  0  0  0  0  0
    5.1644   -1.6156   25.7724 H   0  0  0  0  0  0  0  0  0  0  0  0
    5.3143   -3.0735   24.7941 H   0  0  0  0  0  0  0  0  0  0  0  0
    5.6791   -3.3196   26.9007 N   0  0  0  0  0  0  0  0  0  0  0  0
    6.0150   -4.7549   26.7486 C   0  0  0  0  0  0  0  0  0  0  0  0
    6.5216   -4.8993   25.7845 H   0  0  0  0  0  0  0  0  0  0  0  0
    6.7463   -5.0390   27.5187 H   0  0  0  0  0  0  0  0  0  0  0  0
    4.8065   -5.7244   26.8321 C   0  0  0  0  0  0  0  0  0  0  0  0
    4.6256   -5.9918   27.8827 H   0  0  0  0  0  0  0  0  0  0  0  0
    5.0725   -6.6576   26.3234 H   0  0  0  0  0  0  0  0  0  0  0  0
    3.5275   -5.0974   26.2527 C   0  0  0  0  0  0  0  0  0  0  0  0
    3.6678   -4.9243   25.1768 H   0  0  0  0  0  0  0  0  0  0  0  0
    2.6874   -5.7969   26.3325 H   0  0  0  0  0  0  0  0  0  0  0  0
    3.1957   -3.7530   26.9632 C   0  0  0  0  0  0  0  0  0  0  0  0
    2.7917   -3.0386   26.2354 H   0  0  0  0  0  0  0  0  0  0  0  0
    2.4127   -3.8930   27.7192 H   0  0  0  0  0  0  0  0  0  0  0  0
    4.4376   -3.1338   27.6537 C   0  0  0  0  0  0  0  0  0  0  0  0
    4.2912   -2.0626   27.8437 H   0  0  0  0  0  0  0  0  0  0  0  0
    4.5777   -3.5953   28.6404 H   0  0  0  0  0  0  0  0  0  0  0  0
  1  2  1  0
  2  3  2  0
  3  4  1  0
  4  5  2  0
  5  6  1  0
  5  7  1  0
  7  8  2  0
  8  9  1  0
  8 10  1  0
 10 11  1  0
 10 12  2  0
 12 13  1  0
  3 14  1  0
 14 15  1  0
 14 16  1  0
 16 17  2  0
 16 18  1  0
 18 19  1  0
 18 20  1  0
 20 21  1  1
 20 22  1  0
 22 23  1  0
 23 24  1  0
 23 25  1  0
 23 26  1  0
 26 27  1  0
 26 28  1  0
 26 29  1  0
 29 30  1  0
 30 31  1  0
 30 32  1  0
 30 33  1  0
 33 34  1  0
 33 35  1  0
 33 36  1  0
 36 37  1  0
 36 38  1  0
 36 39  1  0
 39 40  1  0
 39 41  1  0
 39 42  1  0
 42 43  1  0
 42 44  1  0
 20  2  1  0
 42 29  1  0
 12  4  1  0
M  END
>  <cnnaffinity>  (1) 
-5.0488

>  <filename>  (1) 
S=C1NC(c2cccnc2)=C[C@H](OCCN2CCCCC2)N1

$$$$
