
     RDKit          3D

 30 32  0  0  0  0  0  0  0  0999 V2000
    4.9684    1.8800   17.0111 H   0  0  0  0  0  0  0  0  0  0  0  0
    5.4313    1.3067   17.8084 C   0  0  0  0  0  0  0  0  0  0  0  0
    6.5829    0.6899   17.4952 N   0  0  0  0  0  0  0  0  0  0  0  0
    7.1928    0.0058   18.4677 C   0  0  0  0  0  0  0  0  0  0  0  0
    8.1321   -0.4844   18.2127 H   0  0  0  0  0  0  0  0  0  0  0  0
    6.6734   -0.1205   19.7718 C   0  0  0  0  0  0  0  0  0  0  0  0
    7.4158   -0.8123   20.7721 N   0  0  0  0  0  0  0  0  0  0  0  0
    8.7197   -0.4413   21.0987 C   0  0  0  0  0  0  0  0  0  0  0  0
    9.2061    0.3838   20.6062 H   0  0  0  0  0  0  0  0  0  0  0  0
    9.1024   -1.2572   22.1000 C   0  0  0  0  0  0  0  0  0  0  0  0
   10.2180   -1.4378   22.8199 O   0  0  0  0  0  0  0  0  0  0  0  0
   11.2767   -0.5680   22.6263 C   0  0  0  0  0  0  0  0  0  0  0  0
   12.5253   -1.1401   22.3835 C   0  0  0  0  0  0  0  0  0  0  0  0
   12.5866   -2.2122   22.2328 H   0  0  0  0  0  0  0  0  0  0  0  0
   13.6597   -0.3267   22.4075 C   0  0  0  0  0  0  0  0  0  0  0  0
   14.6383   -0.7700   22.2510 H   0  0  0  0  0  0  0  0  0  0  0  0
   13.5403    1.0489   22.6378 C   0  0  0  0  0  0  0  0  0  0  0  0
   14.4085    1.6939   22.7204 H   0  0  0  0  0  0  0  0  0  0  0  0
   12.2658    1.6050   22.7653 C   0  0  0  0  0  0  0  0  0  0  0  0
   12.0853    3.3295   22.8797 Cl  0  0  0  0  0  0  0  0  0  0  0  0
   11.1175    0.8110   22.7636 C   0  0  0  0  0  0  0  0  0  0  0  0
   10.1239    1.2386   22.8521 H   0  0  0  0  0  0  0  0  0  0  0  0
    8.0623   -2.1038   22.3687 N   0  0  0  0  0  0  0  0  0  0  0  0
    8.0229   -2.7792   23.1136 H   0  0  0  0  0  0  0  0  0  0  0  0
    6.9886   -1.8574   21.5647 C   0  0  0  0  0  0  0  0  0  0  0  0
    5.5696   -2.7206   21.5203 S   0  0  0  0  0  0  0  0  0  0  0  0
    5.4669    0.5095   20.0893 C   0  0  0  0  0  0  0  0  0  0  0  0
    5.0696    0.4350   21.1056 H   0  0  0  0  0  0  0  0  0  0  0  0
    4.8386    1.2451   19.0782 C   0  0  0  0  0  0  0  0  0  0  0  0
    3.9238    1.7939   19.2732 H   0  0  0  0  0  0  0  0  0  0  0  0
  1  2  1  0
  2  3  2  0
  3  4  1  0
  4  5  1  0
  4  6  2  0
  6  7  1  0
  7  8  1  0
  8  9  1  0
  8 10  2  0
 10 11  1  0
 11 12  1  0
 12 13  2  0
 13 14  1  0
 13 15  1  0
 15 16  1  0
 15 17  2  0
 17 18  1  0
 17 19  1  0
 19 20  1  0
 19 21  2  0
 21 22  1  0
 10 23  1  0
 23 24  1  0
 23 25  1  0
 25 26  2  0
  6 27  1  0
 27 28  1  0
 27 29  2  0
 29 30  1  0
 29  2  1  0
 25  7  1  0
 21 12  1  0
M  END
>  <cnnaffinity>  (1) 
-5.23521

>  <filename>  (1) 
S=c1[nH]c(Oc2cccc(Cl)c2)cn1-c1cccnc1

$$$$
