
     RDKit          3D

 36 38  0  0  0  0  0  0  0  0999 V2000
    4.8699    2.5640   16.5532 H   0  0  0  0  0  0  0  0  0  0  0  0
    5.2719    2.0469   17.4221 C   0  0  0  0  0  0  0  0  0  0  0  0
    6.3962    1.3370   17.2243 N   0  0  0  0  0  0  0  0  0  0  0  0
    6.9204    0.7071   18.2796 C   0  0  0  0  0  0  0  0  0  0  0  0
    7.8481    0.1611   18.1122 H   0  0  0  0  0  0  0  0  0  0  0  0
    6.3556    0.7322   19.5714 C   0  0  0  0  0  0  0  0  0  0  0  0
    6.9359   -0.0307   20.6333 N   0  0  0  0  0  0  0  0  0  0  0  0
    7.3631   -1.3514   20.4624 C   0  0  0  0  0  0  0  0  0  0  0  0
    7.1040   -1.8817   19.5544 H   0  0  0  0  0  0  0  0  0  0  0  0
    7.9758   -1.7422   21.6016 C   0  0  0  0  0  0  0  0  0  0  0  0
    8.5878   -3.0338   22.0187 C   0  0  0  0  0  0  0  0  0  0  0  0
    9.3912   -2.8475   22.7399 H   0  0  0  0  0  0  0  0  0  0  0  0
    9.0690   -3.4917   21.1536 H   0  0  0  0  0  0  0  0  0  0  0  0
    7.5806   -4.0424   22.6028 C   0  0  0  0  0  0  0  0  0  0  0  0
    6.8715   -3.5667   23.2938 H   0  0  0  0  0  0  0  0  0  0  0  0
    6.9885   -4.4814   21.7980 H   0  0  0  0  0  0  0  0  0  0  0  0
    8.2236   -5.1542   23.2208 O   0  0  0  0  0  0  0  0  0  0  0  0
    8.7974   -5.0130   24.4584 C   0  0  0  0  0  0  0  0  0  0  0  0
    8.6006   -3.9259   25.3253 C   0  0  0  0  0  0  0  0  0  0  0  0
    7.9112   -3.1287   25.0624 H   0  0  0  0  0  0  0  0  0  0  0  0
    9.2904   -3.8678   26.5452 C   0  0  0  0  0  0  0  0  0  0  0  0
    9.1415   -3.0076   27.1956 H   0  0  0  0  0  0  0  0  0  0  0  0
   10.1700   -4.8908   26.9166 C   0  0  0  0  0  0  0  0  0  0  0  0
   10.7155   -4.8485   27.8577 H   0  0  0  0  0  0  0  0  0  0  0  0
   10.3349   -5.9925   26.0658 C   0  0  0  0  0  0  0  0  0  0  0  0
   11.0141   -6.7941   26.3505 H   0  0  0  0  0  0  0  0  0  0  0  0
    9.6279   -6.0711   24.8658 C   0  0  0  0  0  0  0  0  0  0  0  0
    9.7207   -6.9198   24.1976 H   0  0  0  0  0  0  0  0  0  0  0  0
    7.8812   -0.6645   22.4647 N   0  0  0  0  0  0  0  0  0  0  0  0
    8.2428   -0.5496   23.3972 H   0  0  0  0  0  0  0  0  0  0  0  0
    7.2192    0.3873   21.9205 C   0  0  0  0  0  0  0  0  0  0  0  0
    6.8875    1.7842   22.7687 S   0  0  0  0  0  0  0  0  0  0  0  0
    5.2114    1.5066   19.7775 C   0  0  0  0  0  0  0  0  0  0  0  0
    4.8029    1.6021   20.7831 H   0  0  0  0  0  0  0  0  0  0  0  0
    4.6533    2.1592   18.6717 C   0  0  0  0  0  0  0  0  0  0  0  0
    3.7613    2.7678   18.7715 H   0  0  0  0  0  0  0  0  0  0  0  0
  1  2  1  0
  2  3  2  0
  3  4  1  0
  4  5  1  0
  4  6  2  0
  6  7  1  0
  7  8  1  0
  8  9  1  0
  8 10  2  0
 10 11  1  0
 11 12  1  0
 11 13  1  0
 11 14  1  0
 14 15  1  0
 14 16  1  0
 14 17  1  0
 17 18  1  0
 18 19  2  0
 19 20  1  0
 19 21  1  0
 21 22  1  0
 21 23  2  0
 23 24  1  0
 23 25  1  0
 25 26  1  0
 25 27  2  0
 27 28  1  0
 10 29  1  0
 29 30  1  0
 29 31  1  0
 31 32  2  0
  6 33  1  0
 33 34  1  0
 33 35  2  0
 35 36  1  0
 35  2  1  0
 31  7  1  0
 27 18  1  0
M  END
>  <cnnaffinity>  (1) 
-5.27941

>  <filename>  (1) 
S=c1[nH]c(CCOc2ccccc2)cn1-c1cccnc1

$$$$
