
     RDKit          3D

 32 35  0  0  0  0  0  0  0  0999 V2000
    4.9178    1.8037   16.9678 H   0  0  0  0  0  0  0  0  0  0  0  0
    5.3928    1.3054   17.8136 C   0  0  0  0  0  0  0  0  0  0  0  0
    6.5573    0.6864   17.5580 N   0  0  0  0  0  0  0  0  0  0  0  0
    7.1707    0.0721   18.5774 C   0  0  0  0  0  0  0  0  0  0  0  0
    8.1064   -0.4220   18.3242 H   0  0  0  0  0  0  0  0  0  0  0  0
    6.6654    0.0184   19.8891 C   0  0  0  0  0  0  0  0  0  0  0  0
    7.3395   -0.7007   20.9730 C   0  0  0  0  0  0  0  0  0  0  0  0
    6.8226   -1.2270   22.0993 C   0  0  0  0  0  0  0  0  0  0  0  0
    5.8046   -1.3038   22.4056 H   0  0  0  0  0  0  0  0  0  0  0  0
    7.8422   -1.7783   22.8553 N   0  0  0  0  0  0  0  0  0  0  0  0
    7.6386   -2.4375   24.1119 C   0  0  0  0  0  0  0  0  0  0  0  0
    6.8029   -1.8253   25.0915 C   0  0  0  0  0  0  0  0  0  0  0  0
    6.3363   -0.8758   24.8487 H   0  0  0  0  0  0  0  0  0  0  0  0
    6.5969   -2.4152   26.3295 C   0  0  0  0  0  0  0  0  0  0  0  0
    5.9655   -1.9535   27.0815 H   0  0  0  0  0  0  0  0  0  0  0  0
    7.2375   -3.6538   26.5700 C   0  0  0  0  0  0  0  0  0  0  0  0
    8.0527   -4.2777   25.6000 C   0  0  0  0  0  0  0  0  0  0  0  0
    8.5025   -5.4776   26.2349 C   0  0  0  0  0  0  0  0  0  0  0  0
    9.1550   -6.2468   25.8361 H   0  0  0  0  0  0  0  0  0  0  0  0
    8.0148   -5.5851   27.4531 N   0  0  0  0  0  0  0  0  0  0  0  0
    7.2554   -4.4853   27.6496 N   0  0  0  0  0  0  0  0  0  0  0  0
    6.7681   -4.3708   28.5230 H   0  0  0  0  0  0  0  0  0  0  0  0
    8.2515   -3.6558   24.3415 C   0  0  0  0  0  0  0  0  0  0  0  0
    8.8802   -4.0807   23.5657 H   0  0  0  0  0  0  0  0  0  0  0  0
    9.0392   -1.5992   22.1946 C   0  0  0  0  0  0  0  0  0  0  0  0
   10.6102   -1.9747   22.5923 S   0  0  0  0  0  0  0  0  0  0  0  0
    8.6941   -0.9700   21.0388 N   0  0  0  0  0  0  0  0  0  0  0  0
    9.4341   -0.6686   20.4286 H   0  0  0  0  0  0  0  0  0  0  0  0
    5.4402    0.6660   20.1298 C   0  0  0  0  0  0  0  0  0  0  0  0
    5.0096    0.6618   21.1313 H   0  0  0  0  0  0  0  0  0  0  0  0
    4.7979    1.3221   19.0808 C   0  0  0  0  0  0  0  0  0  0  0  0
    3.8627    1.8530   19.2292 H   0  0  0  0  0  0  0  0  0  0  0  0
  1  2  1  0
  2  3  2  0
  3  4  1  0
  4  5  1  0
  4  6  2  0
  6  7  1  0
  7  8  2  0
  8  9  1  0
  8 10  1  0
 10 11  1  0
 11 12  2  0
 12 13  1  0
 12 14  1  0
 14 15  1  0
 14 16  2  0
 16 17  1  0
 17 18  1  0
 18 19  1  0
 18 20  2  0
 20 21  1  0
 21 22  1  0
 17 23  2  0
 23 24  1  0
 10 25  1  0
 25 26  2  0
 25 27  1  0
 27 28  1  0
  6 29  1  0
 29 30  1  0
 29 31  2  0
 31 32  1  0
 31  2  1  0
 27  7  1  0
 23 11  1  0
 21 16  1  0
M  END
>  <cnnaffinity>  (1) 
-5.83743

>  <filename>  (1) 
S=c1[nH]c(-c2cccnc2)cn1-c1ccc2[nH]ncc2c1

$$$$
