
     RDKit          3D

 33 35  0  0  0  0  0  0  0  0999 V2000
    5.6602   -1.6474   21.7238 H   0  0  0  0  0  0  0  0  0  0  0  0
    6.7220   -1.5170   21.8102 C   0  0  0  0  0  0  0  0  0  0  0  0
    7.3832   -0.7191   20.9604 C   0  0  0  0  0  0  0  0  0  0  0  0
    6.6985    0.0431   19.9086 C   0  0  0  0  0  0  0  0  0  0  0  0
    7.1979    0.0808   18.5985 C   0  0  0  0  0  0  0  0  0  0  0  0
    8.1289   -0.4302   18.3510 H   0  0  0  0  0  0  0  0  0  0  0  0
    6.5662    0.6742   17.5787 N   0  0  0  0  0  0  0  0  0  0  0  0
    5.4035    1.2903   17.8419 C   0  0  0  0  0  0  0  0  0  0  0  0
    4.9209    1.7793   16.9990 H   0  0  0  0  0  0  0  0  0  0  0  0
    4.8146    1.3117   19.1098 C   0  0  0  0  0  0  0  0  0  0  0  0
    3.8819    1.8348   19.2582 H   0  0  0  0  0  0  0  0  0  0  0  0
    5.4576    0.6595   20.1583 C   0  0  0  0  0  0  0  0  0  0  0  0
    5.0260    0.6272   21.1611 H   0  0  0  0  0  0  0  0  0  0  0  0
    8.7682   -0.6183   21.0867 N   0  0  0  0  0  0  0  0  0  0  0  0
    9.3199    0.0372   20.5655 H   0  0  0  0  0  0  0  0  0  0  0  0
    9.5200   -1.3684   21.9345 C   0  0  0  0  0  0  0  0  0  0  0  0
   11.1764   -1.2544   21.9768 S   0  0  0  0  0  0  0  0  0  0  0  0
    8.8380   -2.2379   22.7037 N   0  0  0  0  0  0  0  0  0  0  0  0
    9.4342   -2.7298   23.3434 H   0  0  0  0  0  0  0  0  0  0  0  0
    7.3991   -2.1447   22.9781 C   0  0  1  0  0  0  0  0  0  0  0  0
    7.0256   -3.1720   23.0990 H   0  0  0  0  0  0  0  0  0  0  0  0
    7.1096   -1.4237   24.2506 C   0  0  0  0  0  0  0  0  0  0  0  0
    6.8221   -0.8122   25.2502 C   0  0  0  0  0  0  0  0  0  0  0  0
    6.5512   -0.0428   26.4405 C   0  0  0  0  0  0  0  0  0  0  0  0
    5.3997   -0.3018   27.0843 N   0  0  0  0  0  0  0  0  0  0  0  0
    5.1413    0.3934   28.1922 C   0  0  0  0  0  0  0  0  0  0  0  0
    4.1988    0.1517   28.6843 H   0  0  0  0  0  0  0  0  0  0  0  0
    5.9919    1.3716   28.7150 C   0  0  0  0  0  0  0  0  0  0  0  0
    5.7127    1.8949   29.6219 H   0  0  0  0  0  0  0  0  0  0  0  0
    7.1872    1.6449   28.0484 C   0  0  0  0  0  0  0  0  0  0  0  0
    7.8828    2.3980   28.4235 H   0  0  0  0  0  0  0  0  0  0  0  0
    7.4720    0.9245   26.8879 C   0  0  0  0  0  0  0  0  0  0  0  0
    8.3847    1.0944   26.3353 H   0  0  0  0  0  0  0  0  0  0  0  0
  1  2  1  0
  2  3  2  0
  3  4  1  0
  4  5  2  0
  5  6  1  0
  5  7  1  0
  7  8  2  0
  8  9  1  0
  8 10  1  0
 10 11  1  0
 10 12  2  0
 12 13  1  0
  3 14  1  0
 14 15  1  0
 14 16  1  0
 16 17  2  0
 16 18  1  0
 18 19  1  0
 18 20  1  0
 20 21  1  1
 20 22  1  0
 22 23  3  0
 23 24  1  0
 24 25  2  0
 25 26  1  0
 26 27  1  0
 26 28  2  0
 28 29  1  0
 28 30  1  0
 30 31  1  0
 30 32  2  0
 32 33  1  0
 20  2  1  0
 32 24  1  0
 12  4  1  0
M  END
>  <cnnaffinity>  (1) 
-4.97377

>  <filename>  (1) 
S=C1NC(c2cccnc2)=C[C@H](C#Cc2ccccn2)N1

$$$$
