
     RDKit          3D

 29 31  0  0  0  0  0  0  0  0999 V2000
    4.9341    1.7981   16.9977 H   0  0  0  0  0  0  0  0  0  0  0  0
    5.3987    1.2889   17.8358 C   0  0  0  0  0  0  0  0  0  0  0  0
    6.5538    0.6583   17.5692 N   0  0  0  0  0  0  0  0  0  0  0  0
    7.1717    0.0412   18.5827 C   0  0  0  0  0  0  0  0  0  0  0  0
    8.1258   -0.4351   18.3641 H   0  0  0  0  0  0  0  0  0  0  0  0
    6.6513   -0.0035   19.8918 C   0  0  0  0  0  0  0  0  0  0  0  0
    7.3331   -0.6884   20.9460 N   0  0  0  0  0  0  0  0  0  0  0  0
    6.7332   -1.6083   21.7973 C   0  0  0  0  0  0  0  0  0  0  0  0
    5.6832   -1.8400   21.6900 H   0  0  0  0  0  0  0  0  0  0  0  0
    7.6745   -2.0685   22.6584 C   0  0  0  0  0  0  0  0  0  0  0  0
    7.5633   -3.0143   23.7767 C   0  0  0  0  0  0  0  0  0  0  0  0
    6.2864   -3.2633   24.3082 C   0  0  0  0  0  0  0  0  0  0  0  0
    5.4212   -2.7377   23.9231 H   0  0  0  0  0  0  0  0  0  0  0  0
    6.1273   -4.1780   25.3454 C   0  0  0  0  0  0  0  0  0  0  0  0
    4.5351   -4.4859   25.9719 Cl  0  0  0  0  0  0  0  0  0  0  0  0
    7.2198   -4.8579   25.8884 C   0  0  0  0  0  0  0  0  0  0  0  0
    7.0865   -5.5683   26.6972 H   0  0  0  0  0  0  0  0  0  0  0  0
    8.4884   -4.5947   25.3604 C   0  0  0  0  0  0  0  0  0  0  0  0
    9.8642   -5.4282   26.0263 Cl  0  0  0  0  0  0  0  0  0  0  0  0
    8.6743   -3.6879   24.3174 C   0  0  0  0  0  0  0  0  0  0  0  0
    9.6748   -3.5337   23.9295 H   0  0  0  0  0  0  0  0  0  0  0  0
    8.8469   -1.4157   22.3035 N   0  0  0  0  0  0  0  0  0  0  0  0
    9.7468   -1.3993   22.7493 H   0  0  0  0  0  0  0  0  0  0  0  0
    8.6529   -0.5197   21.3071 C   0  0  0  0  0  0  0  0  0  0  0  0
    9.8106    0.5420   20.7826 S   0  0  0  0  0  0  0  0  0  0  0  0
    5.4407    0.6443   20.1557 C   0  0  0  0  0  0  0  0  0  0  0  0
    5.0317    0.6340   21.1690 H   0  0  0  0  0  0  0  0  0  0  0  0
    4.8064    1.3096   19.1039 C   0  0  0  0  0  0  0  0  0  0  0  0
    3.8753    1.8434   19.2613 H   0  0  0  0  0  0  0  0  0  0  0  0
  1  2  1  0
  2  3  2  0
  3  4  1  0
  4  5  1  0
  4  6  2  0
  6  7  1  0
  7  8  1  0
  8  9  1  0
  8 10  2  0
 10 11  1  0
 11 12  2  0
 12 13  1  0
 12 14  1  0
 14 15  1  0
 14 16  2  0
 16 17  1  0
 16 18  1  0
 18 19  1  0
 18 20  2  0
 20 21  1  0
 10 22  1  0
 22 23  1  0
 22 24  1  0
 24 25  2  0
  6 26  1  0
 26 27  1  0
 26 28  2  0
 28 29  1  0
 28  2  1  0
 24  7  1  0
 20 11  1  0
M  END
>  <cnnaffinity>  (1) 
-5.91769

>  <filename>  (1) 
S=c1[nH]c(-c2cc(Cl)cc(Cl)c2)cn1-c1cccnc1

$$$$
