
     RDKit          3D

 28 30  0  0  0  0  0  0  0  0999 V2000
    4.8930    1.7949   17.0184 H   0  0  0  0  0  0  0  0  0  0  0  0
    5.4054    1.2938   17.8327 C   0  0  0  0  0  0  0  0  0  0  0  0
    6.5685    0.6686   17.5791 N   0  0  0  0  0  0  0  0  0  0  0  0
    7.1808    0.0422   18.5928 C   0  0  0  0  0  0  0  0  0  0  0  0
    8.1306   -0.4508   18.3986 H   0  0  0  0  0  0  0  0  0  0  0  0
    6.6583    0.0196   19.8871 C   0  0  0  0  0  0  0  0  0  0  0  0
    7.3784   -0.7042   20.9109 C   0  0  0  0  0  0  0  0  0  0  0  0
    7.9829   -1.8468   20.6688 N   0  0  0  0  0  0  0  0  0  0  0  0
    8.4686   -2.2272   21.8856 N   0  0  0  0  0  0  0  0  0  0  0  0
    9.0413   -3.0486   22.0544 H   0  0  0  0  0  0  0  0  0  0  0  0
    8.2147   -1.2973   22.8699 C   0  0  0  0  0  0  0  0  0  0  0  0
    8.7968   -1.3570   24.4314 S   0  0  0  0  0  0  0  0  0  0  0  0
    7.4798   -0.3163   22.2469 N   0  0  0  0  0  0  0  0  0  0  0  0
    7.1087    0.9150   22.8081 C   0  0  0  0  0  0  0  0  0  0  0  0
    7.4775    2.1351   22.2131 C   0  0  0  0  0  0  0  0  0  0  0  0
    8.0735    2.1349   21.3080 H   0  0  0  0  0  0  0  0  0  0  0  0
    7.1100    3.3601   22.7937 C   0  0  0  0  0  0  0  0  0  0  0  0
    7.4057    4.2996   22.3319 H   0  0  0  0  0  0  0  0  0  0  0  0
    6.3582    3.3751   23.9730 C   0  0  0  0  0  0  0  0  0  0  0  0
    6.0614    4.3201   24.4223 H   0  0  0  0  0  0  0  0  0  0  0  0
    5.9820    2.1725   24.5777 C   0  0  0  0  0  0  0  0  0  0  0  0
    4.9402    2.1962   26.1829 Br  0  0  0  0  0  0  0  0  0  0  0  0
    6.3644    0.9544   23.9969 C   0  0  0  0  0  0  0  0  0  0  0  0
    6.0635    0.0248   24.4657 H   0  0  0  0  0  0  0  0  0  0  0  0
    5.4506    0.6634   20.1666 C   0  0  0  0  0  0  0  0  0  0  0  0
    5.0064    0.6457   21.1652 H   0  0  0  0  0  0  0  0  0  0  0  0
    4.8260    1.3100   19.1062 C   0  0  0  0  0  0  0  0  0  0  0  0
    3.8872    1.8295   19.2592 H   0  0  0  0  0  0  0  0  0  0  0  0
  1  2  1  0
  2  3  2  0
  3  4  1  0
  4  5  1  0
  4  6  2  0
  6  7  1  0
  7  8  2  0
  8  9  1  0
  9 10  1  0
  9 11  1  0
 11 12  2  0
 11 13  1  0
 13 14  1  0
 14 15  2  0
 15 16  1  0
 15 17  1  0
 17 18  1  0
 17 19  2  0
 19 20  1  0
 19 21  1  0
 21 22  1  0
 21 23  2  0
 23 24  1  0
  6 25  1  0
 25 26  1  0
 25 27  2  0
 27 28  1  0
 27  2  1  0
 13  7  1  0
 23 14  1  0
M  END
>  <cnnaffinity>  (1) 
-5.23978

>  <filename>  (1) 
S=c1[nH]nc(-c2cccnc2)n1-c1cccc(Br)c1

$$$$
