
     RDKit          3D

 31 33  0  0  0  0  0  0  0  0999 V2000
    4.9769    1.8714   17.0151 H   0  0  0  0  0  0  0  0  0  0  0  0
    5.4362    1.3051   17.8187 C   0  0  0  0  0  0  0  0  0  0  0  0
    6.5927    0.6905   17.5144 N   0  0  0  0  0  0  0  0  0  0  0  0
    7.1917    0.0059   18.4948 C   0  0  0  0  0  0  0  0  0  0  0  0
    8.1386   -0.4813   18.2553 H   0  0  0  0  0  0  0  0  0  0  0  0
    6.6601   -0.1219   19.7934 C   0  0  0  0  0  0  0  0  0  0  0  0
    7.3849   -0.8354   20.7913 N   0  0  0  0  0  0  0  0  0  0  0  0
    8.6890   -0.4865   21.1402 C   0  0  0  0  0  0  0  0  0  0  0  0
    9.2164    0.3214   20.6709 H   0  0  0  0  0  0  0  0  0  0  0  0
    9.0783   -1.3284   22.1107 C   0  0  0  0  0  0  0  0  0  0  0  0
   10.2244   -1.4793   22.8520 N   0  0  0  0  0  0  0  0  0  0  0  0
   10.4460   -2.4556   22.9846 H   0  0  0  0  0  0  0  0  0  0  0  0
   11.3493   -0.6578   22.6364 C   0  0  0  0  0  0  0  0  0  0  0  0
   12.5913   -1.2589   22.4020 C   0  0  0  0  0  0  0  0  0  0  0  0
   12.6398   -2.3353   22.2565 H   0  0  0  0  0  0  0  0  0  0  0  0
   13.7516   -0.4833   22.3813 C   0  0  0  0  0  0  0  0  0  0  0  0
   14.7118   -0.9704   22.2566 H   0  0  0  0  0  0  0  0  0  0  0  0
   13.6742    0.9026   22.5381 C   0  0  0  0  0  0  0  0  0  0  0  0
   14.5782    1.5067   22.5648 H   0  0  0  0  0  0  0  0  0  0  0  0
   12.4219    1.5132   22.6666 C   0  0  0  0  0  0  0  0  0  0  0  0
   12.3420    2.5936   22.7203 H   0  0  0  0  0  0  0  0  0  0  0  0
   11.2553    0.7391   22.7097 C   0  0  0  0  0  0  0  0  0  0  0  0
   10.2689    1.1883   22.7949 H   0  0  0  0  0  0  0  0  0  0  0  0
    8.0402   -2.1993   22.3351 N   0  0  0  0  0  0  0  0  0  0  0  0
    7.9393   -2.7530   23.1641 H   0  0  0  0  0  0  0  0  0  0  0  0
    6.9558   -1.9022   21.5556 C   0  0  0  0  0  0  0  0  0  0  0  0
    5.5204   -2.7391   21.5180 S   0  0  0  0  0  0  0  0  0  0  0  0
    5.4497    0.5115   20.1001 C   0  0  0  0  0  0  0  0  0  0  0  0
    5.0326    0.4502   21.1075 H   0  0  0  0  0  0  0  0  0  0  0  0
    4.8322    1.2487   19.0826 C   0  0  0  0  0  0  0  0  0  0  0  0
    3.9148    1.8003   19.2700 H   0  0  0  0  0  0  0  0  0  0  0  0
  1  2  1  0
  2  3  2  0
  3  4  1  0
  4  5  1  0
  4  6  2  0
  6  7  1  0
  7  8  1  0
  8  9  1  0
  8 10  2  0
 10 11  1  0
 11 12  1  0
 11 13  1  0
 13 14  2  0
 14 15  1  0
 14 16  1  0
 16 17  1  0
 16 18  2  0
 18 19  1  0
 18 20  1  0
 20 21  1  0
 20 22  2  0
 22 23  1  0
 10 24  1  0
 24 25  1  0
 24 26  1  0
 26 27  2  0
  6 28  1  0
 28 29  1  0
 28 30  2  0
 30 31  1  0
 30  2  1  0
 26  7  1  0
 22 13  1  0
M  END
>  <cnnaffinity>  (1) 
-4.97168

>  <filename>  (1) 
S=c1[nH]c(Nc2ccccc2)cn1-c1cccnc1

$$$$
