
     RDKit          3D

 31 33  0  0  0  0  0  0  0  0999 V2000
    4.9954    1.7937   16.9386 H   0  0  0  0  0  0  0  0  0  0  0  0
    5.4447    1.3053   17.7970 C   0  0  0  0  0  0  0  0  0  0  0  0
    6.6094    0.6790   17.5636 N   0  0  0  0  0  0  0  0  0  0  0  0
    7.1948    0.0775   18.6046 C   0  0  0  0  0  0  0  0  0  0  0  0
    8.1420   -0.4197   18.3924 H   0  0  0  0  0  0  0  0  0  0  0  0
    6.6742    0.0730   19.9141 C   0  0  0  0  0  0  0  0  0  0  0  0
    7.4357   -0.5658   20.9866 C   0  0  0  0  0  0  0  0  0  0  0  0
    8.3918   -1.5203   20.9408 C   0  0  0  0  0  0  0  0  0  0  0  0
    8.9322   -1.9670   20.1226 H   0  0  0  0  0  0  0  0  0  0  0  0
    8.7265   -1.8543   22.2428 N   0  0  0  0  0  0  0  0  0  0  0  0
    9.6679   -2.8602   22.4870 N   0  0  0  0  0  0  0  0  0  0  0  0
   10.6190   -2.5031   22.5380 H   0  0  0  0  0  0  0  0  0  0  0  0
    9.4570   -3.8167   23.5096 C   0  0  0  0  0  0  0  0  0  0  0  0
    8.2433   -4.4742   23.7373 C   0  0  0  0  0  0  0  0  0  0  0  0
    7.3721   -4.1816   23.1649 H   0  0  0  0  0  0  0  0  0  0  0  0
    8.1725   -5.4984   24.6928 C   0  0  0  0  0  0  0  0  0  0  0  0
    7.2331   -6.0112   24.8557 H   0  0  0  0  0  0  0  0  0  0  0  0
    9.2902   -5.8557   25.4556 C   0  0  0  0  0  0  0  0  0  0  0  0
    9.2231   -6.6563   26.1896 H   0  0  0  0  0  0  0  0  0  0  0  0
   10.4924   -5.1762   25.2373 C   0  0  0  0  0  0  0  0  0  0  0  0
   11.3895   -5.4096   25.7921 H   0  0  0  0  0  0  0  0  0  0  0  0
   10.5721   -4.1667   24.2842 C   0  0  0  0  0  0  0  0  0  0  0  0
   11.5164   -3.6482   24.1456 H   0  0  0  0  0  0  0  0  0  0  0  0
    8.0343   -1.0465   23.1385 C   0  0  0  0  0  0  0  0  0  0  0  0
    8.0597   -0.9113   24.7952 S   0  0  0  0  0  0  0  0  0  0  0  0
    7.2479   -0.2853   22.3308 N   0  0  0  0  0  0  0  0  0  0  0  0
    6.6468    0.4017   22.7570 H   0  0  0  0  0  0  0  0  0  0  0  0
    5.4252    0.6893   20.1201 C   0  0  0  0  0  0  0  0  0  0  0  0
    4.9429    0.6452   21.0999 H   0  0  0  0  0  0  0  0  0  0  0  0
    4.8087    1.3259   19.0462 C   0  0  0  0  0  0  0  0  0  0  0  0
    3.8517    1.8248   19.1646 H   0  0  0  0  0  0  0  0  0  0  0  0
  1  2  1  0
  2  3  2  0
  3  4  1  0
  4  5  1  0
  4  6  2  0
  6  7  1  0
  7  8  2  0
  8  9  1  0
  8 10  1  0
 10 11  1  0
 11 12  1  0
 11 13  1  0
 13 14  2  0
 14 15  1  0
 14 16  1  0
 16 17  1  0
 16 18  2  0
 18 19  1  0
 18 20  1  0
 20 21  1  0
 20 22  2  0
 22 23  1  0
 10 24  1  0
 24 25  2  0
 24 26  1  0
 26 27  1  0
  6 28  1  0
 28 29  1  0
 28 30  2  0
 30 31  1  0
 30  2  1  0
 26  7  1  0
 22 13  1  0
M  END
>  <cnnaffinity>  (1) 
-5.39156

>  <filename>  (1) 
S=c1[nH]c(-c2cccnc2)cn1Nc1ccccc1

$$$$
