
     RDKit          3D

 40 42  0  0  0  0  0  0  0  0999 V2000
    7.3856    0.9573   22.3919 H   0  0  0  0  0  0  0  0  0  0  0  0
    7.5636   -0.0945   22.2119 C   0  0  0  0  0  0  0  0  0  0  0  0
    7.2469   -0.6776   21.0412 C   0  0  0  0  0  0  0  0  0  0  0  0
    6.6150    0.0166   19.9145 C   0  0  0  0  0  0  0  0  0  0  0  0
    7.1804   -0.0082   18.6275 C   0  0  0  0  0  0  0  0  0  0  0  0
    8.1276   -0.5194   18.4516 H   0  0  0  0  0  0  0  0  0  0  0  0
    6.6387    0.5988   17.5647 N   0  0  0  0  0  0  0  0  0  0  0  0
    5.4849    1.2596   17.7524 C   0  0  0  0  0  0  0  0  0  0  0  0
    5.0524    1.7361   16.8742 H   0  0  0  0  0  0  0  0  0  0  0  0
    4.8353    1.3407   18.9889 C   0  0  0  0  0  0  0  0  0  0  0  0
    3.9007    1.8805   19.0776 H   0  0  0  0  0  0  0  0  0  0  0  0
    5.4205    0.7290   20.0959 C   0  0  0  0  0  0  0  0  0  0  0  0
    4.9671    0.7789   21.0877 H   0  0  0  0  0  0  0  0  0  0  0  0
    7.5365   -2.0253   20.8554 N   0  0  0  0  0  0  0  0  0  0  0  0
    7.1461   -2.5529   20.0912 H   0  0  0  0  0  0  0  0  0  0  0  0
    7.9969   -2.8356   21.8422 C   0  0  0  0  0  0  0  0  0  0  0  0
    8.0757   -4.4751   21.6114 S   0  0  0  0  0  0  0  0  0  0  0  0
    8.3679   -2.2490   22.9940 N   0  0  0  0  0  0  0  0  0  0  0  0
    8.4718   -2.9273   23.7298 H   0  0  0  0  0  0  0  0  0  0  0  0
    8.2434   -0.8208   23.3202 C   0  0  1  0  0  0  0  0  0  0  0  0
    7.6322   -0.7271   24.2363 H   0  0  0  0  0  0  0  0  0  0  0  0
    9.6418   -0.2133   23.6910 C   0  0  0  0  0  0  0  0  0  0  0  0
   10.0579   -0.8073   24.5147 H   0  0  0  0  0  0  0  0  0  0  0  0
   10.3216   -0.3634   22.8369 H   0  0  0  0  0  0  0  0  0  0  0  0
    9.5367    1.2124   24.0502 N   0  0  0  0  0  0  0  0  0  0  0  0
    9.6963    1.3454   25.0440 H   0  0  0  0  0  0  0  0  0  0  0  0
   10.3880    2.1539   23.3112 C   0  0  0  0  0  0  0  0  0  0  0  0
   10.0621    3.1469   23.6461 H   0  0  0  0  0  0  0  0  0  0  0  0
   11.9134    2.0063   23.5679 C   0  0  0  0  0  0  0  0  0  0  0  0
   12.1092    1.0050   23.9715 H   0  0  0  0  0  0  0  0  0  0  0  0
   12.2543    2.7224   24.3224 H   0  0  0  0  0  0  0  0  0  0  0  0
   12.6171    2.1807   22.2133 C   0  0  0  0  0  0  0  0  0  0  0  0
   13.5398    1.5901   22.1793 H   0  0  0  0  0  0  0  0  0  0  0  0
   12.8858    3.2328   22.0498 H   0  0  0  0  0  0  0  0  0  0  0  0
   11.5835    1.7185   21.1748 C   0  0  0  0  0  0  0  0  0  0  0  0
   11.7353    2.1831   20.1947 H   0  0  0  0  0  0  0  0  0  0  0  0
   11.6434    0.6299   21.0414 H   0  0  0  0  0  0  0  0  0  0  0  0
   10.2078    2.0651   21.7744 C   0  0  0  0  0  0  0  0  0  0  0  0
    9.4471    1.3301   21.4848 H   0  0  0  0  0  0  0  0  0  0  0  0
    9.8461    3.0296   21.4151 H   0  0  0  0  0  0  0  0  0  0  0  0
  1  2  1  0
  2  3  2  0
  3  4  1  0
  4  5  2  0
  5  6  1  0
  5  7  1  0
  7  8  2  0
  8  9  1  0
  8 10  1  0
 10 11  1  0
 10 12  2  0
 12 13  1  0
  3 14  1  0
 14 15  1  0
 14 16  1  0
 16 17  2  0
 16 18  1  0
 18 19  1  0
 18 20  1  0
 20 21  1  1
 20 22  1  0
 22 23  1  0
 22 24  1  0
 22 25  1  0
 25 26  1  0
 25 27  1  0
 27 28  1  0
 27 29  1  0
 29 30  1  0
 29 31  1  0
 29 32  1  0
 32 33  1  0
 32 34  1  0
 32 35  1  0
 35 36  1  0
 35 37  1  0
 35 38  1  0
 38 39  1  0
 38 40  1  0
 20  2  1  0
 38 27  1  0
 12  4  1  0
M  END
>  <cnnaffinity>  (1) 
-4.91644

>  <filename>  (1) 
S=C1NC(c2cccnc2)=C[C@H](CNC2CCCC2)N1

$$$$
