
     RDKit          3D

 32 34  0  0  0  0  0  0  0  0999 V2000
    4.9189    1.7377   16.8568 H   0  0  0  0  0  0  0  0  0  0  0  0
    5.3694    1.3451   17.7678 C   0  0  0  0  0  0  0  0  0  0  0  0
    6.5516    0.7282   17.6160 N   0  0  0  0  0  0  0  0  0  0  0  0
    7.1223    0.1947   18.6995 C   0  0  0  0  0  0  0  0  0  0  0  0
    8.0650   -0.3371   18.5515 H   0  0  0  0  0  0  0  0  0  0  0  0
    6.5536    0.2619   19.9890 C   0  0  0  0  0  0  0  0  0  0  0  0
    7.1703   -0.4235   21.0807 N   0  0  0  0  0  0  0  0  0  0  0  0
    7.5321   -1.7627   21.0118 C   0  0  0  0  0  0  0  0  0  0  0  0
    7.1976   -2.3845   20.1940 H   0  0  0  0  0  0  0  0  0  0  0  0
    8.2113   -2.0848   22.1356 C   0  0  0  0  0  0  0  0  0  0  0  0
    8.8243   -3.4009   22.4813 C   0  0  0  0  0  0  0  0  0  0  0  0
    8.9537   -3.8976   21.5207 H   0  0  0  0  0  0  0  0  0  0  0  0
    9.8268   -3.2511   22.9006 H   0  0  0  0  0  0  0  0  0  0  0  0
    7.9960   -4.3038   23.3829 C   0  0  0  0  0  0  0  0  0  0  0  0
    8.1986   -4.2814   24.7714 C   0  0  0  0  0  0  0  0  0  0  0  0
    9.0184   -3.6846   25.1593 H   0  0  0  0  0  0  0  0  0  0  0  0
    7.4014   -5.0217   25.6472 C   0  0  0  0  0  0  0  0  0  0  0  0
    7.5785   -4.9634   26.7182 H   0  0  0  0  0  0  0  0  0  0  0  0
    6.3733   -5.8173   25.1412 C   0  0  0  0  0  0  0  0  0  0  0  0
    5.7366   -6.3817   25.8177 H   0  0  0  0  0  0  0  0  0  0  0  0
    6.1851   -5.9129   23.7588 C   0  0  0  0  0  0  0  0  0  0  0  0
    5.4161   -6.5549   23.3448 H   0  0  0  0  0  0  0  0  0  0  0  0
    6.9953   -5.1674   22.8961 C   0  0  0  0  0  0  0  0  0  0  0  0
    6.7407   -5.3863   21.1815 Cl  0  0  0  0  0  0  0  0  0  0  0  0
    8.2531   -0.9194   22.8851 N   0  0  0  0  0  0  0  0  0  0  0  0
    8.6113   -0.7726   23.8146 H   0  0  0  0  0  0  0  0  0  0  0  0
    7.5661    0.1026   22.2954 C   0  0  0  0  0  0  0  0  0  0  0  0
    7.2914    1.5851   22.9994 S   0  0  0  0  0  0  0  0  0  0  0  0
    5.3556    0.9671   20.1521 C   0  0  0  0  0  0  0  0  0  0  0  0
    4.9332    1.0996   21.1477 H   0  0  0  0  0  0  0  0  0  0  0  0
    4.7336    1.4807   19.0066 C   0  0  0  0  0  0  0  0  0  0  0  0
    3.7713    1.9798   19.0573 H   0  0  0  0  0  0  0  0  0  0  0  0
  1  2  1  0
  2  3  2  0
  3  4  1  0
  4  5  1  0
  4  6  2  0
  6  7  1  0
  7  8  1  0
  8  9  1  0
  8 10  2  0
 10 11  1  0
 11 12  1  0
 11 13  1  0
 11 14  1  0
 14 15  2  0
 15 16  1  0
 15 17  1  0
 17 18  1  0
 17 19  2  0
 19 20  1  0
 19 21  1  0
 21 22  1  0
 21 23  2  0
 23 24  1  0
 10 25  1  0
 25 26  1  0
 25 27  1  0
 27 28  2  0
  6 29  1  0
 29 30  1  0
 29 31  2  0
 31 32  1  0
 31  2  1  0
 27  7  1  0
 23 14  1  0
M  END
>  <cnnaffinity>  (1) 
-5.57434

>  <filename>  (1) 
S=c1[nH]c(Cc2ccccc2Cl)cn1-c1cccnc1

$$$$
