
     RDKit          3D

 27 29  0  0  0  0  0  0  0  0999 V2000
   14.4766   -0.1503   22.6216 H   0  0  0  0  0  0  0  0  0  0  0  0
   13.4198    0.0849   22.6574 C   0  0  0  0  0  0  0  0  0  0  0  0
   12.4950   -0.9290   22.6488 N   0  0  0  0  0  0  0  0  0  0  0  0
   11.2994   -0.4395   22.7277 C   0  0  0  0  0  0  0  0  0  0  0  0
   10.2605   -1.3487   22.8413 N   0  0  0  0  0  0  0  0  0  0  0  0
   10.7268   -2.2436   22.7640 H   0  0  0  0  0  0  0  0  0  0  0  0
    9.1084   -1.2547   22.0835 C   0  0  0  0  0  0  0  0  0  0  0  0
    8.7003   -0.4468   21.0954 C   0  0  0  0  0  0  0  0  0  0  0  0
    9.1881    0.3717   20.5991 H   0  0  0  0  0  0  0  0  0  0  0  0
    7.3943   -0.8243   20.7828 N   0  0  0  0  0  0  0  0  0  0  0  0
    6.6541   -0.1211   19.7925 C   0  0  0  0  0  0  0  0  0  0  0  0
    7.1891    0.0109   18.4965 C   0  0  0  0  0  0  0  0  0  0  0  0
    8.1427   -0.4615   18.2518 H   0  0  0  0  0  0  0  0  0  0  0  0
    6.5864    0.6904   17.5163 N   0  0  0  0  0  0  0  0  0  0  0  0
    5.4295    1.3065   17.8137 C   0  0  0  0  0  0  0  0  0  0  0  0
    4.9866    1.8821   17.0052 H   0  0  0  0  0  0  0  0  0  0  0  0
    4.8257    1.2420   19.0751 C   0  0  0  0  0  0  0  0  0  0  0  0
    3.9109    1.7959   19.2557 H   0  0  0  0  0  0  0  0  0  0  0  0
    5.4373    0.5007   20.0943 C   0  0  0  0  0  0  0  0  0  0  0  0
    5.0060    0.4261   21.0954 H   0  0  0  0  0  0  0  0  0  0  0  0
    6.9980   -1.8935   21.5614 C   0  0  0  0  0  0  0  0  0  0  0  0
    5.5841   -2.7707   21.5810 S   0  0  0  0  0  0  0  0  0  0  0  0
    8.0965   -2.1466   22.3310 N   0  0  0  0  0  0  0  0  0  0  0  0
    8.0199   -2.7396   23.1315 H   0  0  0  0  0  0  0  0  0  0  0  0
   11.1989    1.2915   22.7775 S   0  0  0  0  0  0  0  0  0  0  0  0
   12.9288    1.3428   22.7153 C   0  0  0  0  0  0  0  0  0  0  0  0
   13.4979    2.2552   22.6952 H   0  0  0  0  0  0  0  0  0  0  0  0
  1  2  1  0
  2  3  1  0
  3  4  2  0
  4  5  1  0
  5  6  1  0
  5  7  1  0
  7  8  2  0
  8  9  1  0
  8 10  1  0
 10 11  1  0
 11 12  2  0
 12 13  1  0
 12 14  1  0
 14 15  2  0
 15 16  1  0
 15 17  1  0
 17 18  1  0
 17 19  2  0
 19 20  1  0
 10 21  1  0
 21 22  2  0
 21 23  1  0
 23 24  1  0
  4 25  1  0
 25 26  1  0
 26 27  1  0
 26  2  2  0
 23  7  1  0
 19 11  1  0
M  END
>  <cnnaffinity>  (1) 
-5.74466

>  <filename>  (1) 
S=c1[nH]c(Nc2nccs2)cn1-c1cccnc1

$$$$
