
     RDKit          3D

 28 30  0  0  0  0  0  0  0  0999 V2000
    4.9198    1.7806   16.9981 H   0  0  0  0  0  0  0  0  0  0  0  0
    5.4020    1.2938   17.8401 C   0  0  0  0  0  0  0  0  0  0  0  0
    6.5676    0.6813   17.5772 N   0  0  0  0  0  0  0  0  0  0  0  0
    7.1682    0.0543   18.5899 C   0  0  0  0  0  0  0  0  0  0  0  0
    8.1163   -0.4344   18.3718 H   0  0  0  0  0  0  0  0  0  0  0  0
    6.6455    0.0111   19.8899 C   0  0  0  0  0  0  0  0  0  0  0  0
    7.3780   -0.7239   20.9084 C   0  0  0  0  0  0  0  0  0  0  0  0
    7.9760   -1.8566   20.6893 N   0  0  0  0  0  0  0  0  0  0  0  0
    8.4719   -2.2001   21.9067 N   0  0  0  0  0  0  0  0  0  0  0  0
    9.0164   -3.0309   22.0548 H   0  0  0  0  0  0  0  0  0  0  0  0
    8.2537   -1.2972   22.8815 C   0  0  0  0  0  0  0  0  0  0  0  0
    8.8066   -1.3774   24.4432 S   0  0  0  0  0  0  0  0  0  0  0  0
    7.5068   -0.3274   22.2322 N   0  0  0  0  0  0  0  0  0  0  0  0
    7.1150    0.9306   22.8184 C   0  0  0  0  0  0  0  0  0  0  0  0
    6.3517    0.9486   23.9915 C   0  0  0  0  0  0  0  0  0  0  0  0
    6.0678    0.0121   24.4620 H   0  0  0  0  0  0  0  0  0  0  0  0
    5.9797    2.1707   24.5688 C   0  0  0  0  0  0  0  0  0  0  0  0
    5.3974    2.1816   25.4883 H   0  0  0  0  0  0  0  0  0  0  0  0
    6.3570    3.3813   23.9760 C   0  0  0  0  0  0  0  0  0  0  0  0
    6.0627    4.3319   24.4233 H   0  0  0  0  0  0  0  0  0  0  0  0
    7.1198    3.3595   22.8031 C   0  0  0  0  0  0  0  0  0  0  0  0
    7.4074    4.2971   22.3295 H   0  0  0  0  0  0  0  0  0  0  0  0
    7.5084    2.1416   22.2309 C   0  0  0  0  0  0  0  0  0  0  0  0
    8.0816    2.1300   21.3086 H   0  0  0  0  0  0  0  0  0  0  0  0
    5.4247    0.6514   20.1536 C   0  0  0  0  0  0  0  0  0  0  0  0
    5.0115    0.6365   21.1668 H   0  0  0  0  0  0  0  0  0  0  0  0
    4.7992    1.3102   19.1030 C   0  0  0  0  0  0  0  0  0  0  0  0
    3.8710    1.8448   19.2562 H   0  0  0  0  0  0  0  0  0  0  0  0
  1  2  1  0
  2  3  2  0
  3  4  1  0
  4  5  1  0
  4  6  2  0
  6  7  1  0
  7  8  2  0
  8  9  1  0
  9 10  1  0
  9 11  1  0
 11 12  2  0
 11 13  1  0
 13 14  1  0
 14 15  2  0
 15 16  1  0
 15 17  1  0
 17 18  1  0
 17 19  2  0
 19 20  1  0
 19 21  1  0
 21 22  1  0
 21 23  2  0
 23 24  1  0
  6 25  1  0
 25 26  1  0
 25 27  2  0
 27 28  1  0
 27  2  1  0
 13  7  1  0
 23 14  1  0
M  END
>  <cnnaffinity>  (1) 
-4.90034

>  <filename>  (1) 
S=c1[nH]nc(-c2cccnc2)n1-c1ccccc1

$$$$
