
     RDKit          3D

 28 30  0  0  0  0  0  0  0  0999 V2000
    4.9198    1.7809   16.9979 H   0  0  0  0  0  0  0  0  0  0  0  0
    5.4019    1.2941   17.8400 C   0  0  0  0  0  0  0  0  0  0  0  0
    6.5674    0.6815   17.5771 N   0  0  0  0  0  0  0  0  0  0  0  0
    7.1679    0.0545   18.5896 C   0  0  0  0  0  0  0  0  0  0  0  0
    8.1160   -0.4341   18.3717 H   0  0  0  0  0  0  0  0  0  0  0  0
    6.6455    0.0125   19.8903 C   0  0  0  0  0  0  0  0  0  0  0  0
    7.3768   -0.7214   20.9106 C   0  0  0  0  0  0  0  0  0  0  0  0
    7.9767   -1.8529   20.6923 N   0  0  0  0  0  0  0  0  0  0  0  0
    8.4721   -2.1951   21.9098 N   0  0  0  0  0  0  0  0  0  0  0  0
    9.0168   -3.0261   22.0567 H   0  0  0  0  0  0  0  0  0  0  0  0
    8.2521   -1.2927   22.8849 C   0  0  0  0  0  0  0  0  0  0  0  0
    8.8063   -1.3738   24.4466 S   0  0  0  0  0  0  0  0  0  0  0  0
    7.5034   -0.3240   22.2352 N   0  0  0  0  0  0  0  0  0  0  0  0
    7.1133    0.9300   22.8170 C   0  0  0  0  0  0  0  0  0  0  0  0
    7.5060    2.1405   22.2358 C   0  0  0  0  0  0  0  0  0  0  0  0
    8.0806    2.1318   21.3177 H   0  0  0  0  0  0  0  0  0  0  0  0
    7.1171    3.3555   22.8031 C   0  0  0  0  0  0  0  0  0  0  0  0
    7.3964    4.3001   22.3446 H   0  0  0  0  0  0  0  0  0  0  0  0
    6.3505    3.3812   23.9731 C   0  0  0  0  0  0  0  0  0  0  0  0
    5.9010    4.9156   24.6491 Cl  0  0  0  0  0  0  0  0  0  0  0  0
    5.9713    2.1648   24.5656 C   0  0  0  0  0  0  0  0  0  0  0  0
    5.0346    2.1412   26.0219 Cl  0  0  0  0  0  0  0  0  0  0  0  0
    6.3494    0.9465   23.9848 C   0  0  0  0  0  0  0  0  0  0  0  0
    6.0543    0.0214   24.4653 H   0  0  0  0  0  0  0  0  0  0  0  0
    5.4248    0.6522   20.1539 C   0  0  0  0  0  0  0  0  0  0  0  0
    5.0100    0.6358   21.1663 H   0  0  0  0  0  0  0  0  0  0  0  0
    4.7993    1.3105   19.1030 C   0  0  0  0  0  0  0  0  0  0  0  0
    3.8710    1.8449   19.2563 H   0  0  0  0  0  0  0  0  0  0  0  0
  1  2  1  0
  2  3  2  0
  3  4  1  0
  4  5  1  0
  4  6  2  0
  6  7  1  0
  7  8  2  0
  8  9  1  0
  9 10  1  0
  9 11  1  0
 11 12  2  0
 11 13  1  0
 13 14  1  0
 14 15  2  0
 15 16  1  0
 15 17  1  0
 17 18  1  0
 17 19  2  0
 19 20  1  0
 19 21  1  0
 21 22  1  0
 21 23  2  0
 23 24  1  0
  6 25  1  0
 25 26  1  0
 25 27  2  0
 27 28  1  0
 27  2  1  0
 13  7  1  0
 23 14  1  0
M  END
>  <cnnaffinity>  (1) 
-5.51288

>  <filename>  (1) 
S=c1[nH]nc(-c2cccnc2)n1-c1ccc(Cl)c(Cl)c1

$$$$
