
     RDKit          3D

 30 32  0  0  0  0  0  0  0  0999 V2000
    4.9948    1.8084   16.9545 H   0  0  0  0  0  0  0  0  0  0  0  0
    5.4402    1.3022   17.8053 C   0  0  0  0  0  0  0  0  0  0  0  0
    6.6027    0.6735   17.5710 N   0  0  0  0  0  0  0  0  0  0  0  0
    7.1856    0.0707   18.6124 C   0  0  0  0  0  0  0  0  0  0  0  0
    8.1265   -0.4357   18.4030 H   0  0  0  0  0  0  0  0  0  0  0  0
    6.6715    0.0669   19.9210 C   0  0  0  0  0  0  0  0  0  0  0  0
    7.4555   -0.5672   20.9827 C   0  0  0  0  0  0  0  0  0  0  0  0
    8.4354   -1.4992   20.9381 C   0  0  0  0  0  0  0  0  0  0  0  0
    8.9734   -1.9696   20.1323 H   0  0  0  0  0  0  0  0  0  0  0  0
    8.7620   -1.8363   22.2419 N   0  0  0  0  0  0  0  0  0  0  0  0
    9.6707   -2.8742   22.4986 N   0  0  0  0  0  0  0  0  0  0  0  0
   10.6343   -2.5554   22.5562 H   0  0  0  0  0  0  0  0  0  0  0  0
    9.4455   -3.7986   23.5320 C   0  0  0  0  0  0  0  0  0  0  0  0
   10.5431   -4.1351   24.3303 C   0  0  0  0  0  0  0  0  0  0  0  0
   11.4955   -3.6412   24.2147 H   0  0  0  0  0  0  0  0  0  0  0  0
   10.3965   -5.1319   25.2838 C   0  0  0  0  0  0  0  0  0  0  0  0
   11.2401   -5.4068   25.9114 H   0  0  0  0  0  0  0  0  0  0  0  0
    9.2611   -5.8088   25.4810 N   0  0  0  0  0  0  0  0  0  0  0  0
    8.2125   -5.4552   24.7340 C   0  0  0  0  0  0  0  0  0  0  0  0
    7.3000   -6.0157   24.9341 H   0  0  0  0  0  0  0  0  0  0  0  0
    8.2380   -4.4526   23.7628 C   0  0  0  0  0  0  0  0  0  0  0  0
    7.3470   -4.2286   23.1976 H   0  0  0  0  0  0  0  0  0  0  0  0
    8.0506   -1.0450   23.1335 C   0  0  0  0  0  0  0  0  0  0  0  0
    8.0687   -0.9177   24.7918 S   0  0  0  0  0  0  0  0  0  0  0  0
    7.2531   -0.2990   22.3246 N   0  0  0  0  0  0  0  0  0  0  0  0
    6.6519    0.3948   22.7379 H   0  0  0  0  0  0  0  0  0  0  0  0
    5.4200    0.6804   20.1266 C   0  0  0  0  0  0  0  0  0  0  0  0
    4.9266    0.6399   21.0991 H   0  0  0  0  0  0  0  0  0  0  0  0
    4.8038    1.3186   19.0527 C   0  0  0  0  0  0  0  0  0  0  0  0
    3.8525    1.8290   19.1708 H   0  0  0  0  0  0  0  0  0  0  0  0
  1  2  1  0
  2  3  2  0
  3  4  1  0
  4  5  1  0
  4  6  2  0
  6  7  1  0
  7  8  2  0
  8  9  1  0
  8 10  1  0
 10 11  1  0
 11 12  1  0
 11 13  1  0
 13 14  2  0
 14 15  1  0
 14 16  1  0
 16 17  1  0
 16 18  2  0
 18 19  1  0
 19 20  1  0
 19 21  2  0
 21 22  1  0
 10 23  1  0
 23 24  2  0
 23 25  1  0
 25 26  1  0
  6 27  1  0
 27 28  1  0
 27 29  2  0
 29 30  1  0
 29  2  1  0
 25  7  1  0
 21 13  1  0
M  END
>  <cnnaffinity>  (1) 
-5.53452

>  <filename>  (1) 
S=c1[nH]c(-c2cccnc2)cn1Nc1ccncc1

$$$$
