
     RDKit          3D

 26 28  0  0  0  0  0  0  0  0999 V2000
    4.9302    1.7977   16.9959 H   0  0  0  0  0  0  0  0  0  0  0  0
    5.3971    1.2906   17.8337 C   0  0  0  0  0  0  0  0  0  0  0  0
    6.5531    0.6620   17.5646 N   0  0  0  0  0  0  0  0  0  0  0  0
    7.1727    0.0475   18.5787 C   0  0  0  0  0  0  0  0  0  0  0  0
    8.1266   -0.4324   18.3625 H   0  0  0  0  0  0  0  0  0  0  0  0
    6.6537    0.0049   19.8882 C   0  0  0  0  0  0  0  0  0  0  0  0
    7.3370   -0.6769   20.9396 N   0  0  0  0  0  0  0  0  0  0  0  0
    6.7335   -1.5963   21.7869 C   0  0  0  0  0  0  0  0  0  0  0  0
    5.6811   -1.8212   21.7058 H   0  0  0  0  0  0  0  0  0  0  0  0
    7.6665   -2.0552   22.6471 C   0  0  0  0  0  0  0  0  0  0  0  0
    7.5456   -2.9886   23.7400 C   0  0  0  0  0  0  0  0  0  0  0  0
    8.5114   -3.4681   24.6647 C   0  0  0  0  0  0  0  0  0  0  0  0
    9.5663   -3.2494   24.7702 H   0  0  0  0  0  0  0  0  0  0  0  0
    7.9771   -4.3241   25.5194 N   0  0  0  0  0  0  0  0  0  0  0  0
    6.6856   -4.4047   25.1723 N   0  0  0  0  0  0  0  0  0  0  0  0
    6.0771   -5.0111   25.7038 H   0  0  0  0  0  0  0  0  0  0  0  0
    6.3766   -3.6245   24.1188 C   0  0  0  0  0  0  0  0  0  0  0  0
    5.3730   -3.5593   23.7195 H   0  0  0  0  0  0  0  0  0  0  0  0
    8.8409   -1.4027   22.3123 N   0  0  0  0  0  0  0  0  0  0  0  0
    9.7504   -1.4391   22.7357 H   0  0  0  0  0  0  0  0  0  0  0  0
    8.6588   -0.5142   21.3071 C   0  0  0  0  0  0  0  0  0  0  0  0
    9.8211    0.5359   20.7694 S   0  0  0  0  0  0  0  0  0  0  0  0
    5.4411    0.6472   20.1538 C   0  0  0  0  0  0  0  0  0  0  0  0
    5.0334    0.6315   21.1668 H   0  0  0  0  0  0  0  0  0  0  0  0
    4.8052    1.3110   19.1024 C   0  0  0  0  0  0  0  0  0  0  0  0
    3.8737    1.8438   19.2607 H   0  0  0  0  0  0  0  0  0  0  0  0
  1  2  1  0
  2  3  2  0
  3  4  1  0
  4  5  1  0
  4  6  2  0
  6  7  1  0
  7  8  1  0
  8  9  1  0
  8 10  2  0
 10 11  1  0
 11 12  1  0
 12 13  1  0
 12 14  2  0
 14 15  1  0
 15 16  1  0
 15 17  1  0
 17 18  1  0
 10 19  1  0
 19 20  1  0
 19 21  1  0
 21 22  2  0
  6 23  1  0
 23 24  1  0
 23 25  2  0
 25 26  1  0
 25  2  1  0
 21  7  1  0
 17 11  2  0
M  END
>  <cnnaffinity>  (1) 
-5.10889

>  <filename>  (1) 
S=c1[nH]c(-c2cn[nH]c2)cn1-c1cccnc1

$$$$
