
     RDKit          3D

 37 39  0  0  0  0  0  0  0  0999 V2000
    4.9594    1.7861   16.9775 H   0  0  0  0  0  0  0  0  0  0  0  0
    5.4279    1.2914   17.8263 C   0  0  0  0  0  0  0  0  0  0  0  0
    6.5837    0.6527   17.5826 N   0  0  0  0  0  0  0  0  0  0  0  0
    7.1848    0.0320   18.6060 C   0  0  0  0  0  0  0  0  0  0  0  0
    8.1214   -0.4774   18.3882 H   0  0  0  0  0  0  0  0  0  0  0  0
    6.6553   -0.0004   19.9133 C   0  0  0  0  0  0  0  0  0  0  0  0
    7.2981   -0.7029   20.9778 N   0  0  0  0  0  0  0  0  0  0  0  0
    6.6519   -1.6644   21.7802 C   0  0  0  0  0  0  0  0  0  0  0  0
    5.6100   -1.8902   21.6462 H   0  0  0  0  0  0  0  0  0  0  0  0
    7.5589   -2.1120   22.6706 C   0  0  0  0  0  0  0  0  0  0  0  0
    7.6126   -3.0746   23.6478 N   0  0  0  0  0  0  0  0  0  0  0  0
    8.3970   -2.9524   24.2693 H   0  0  0  0  0  0  0  0  0  0  0  0
    6.4213   -3.6588   24.2319 C   0  0  0  0  0  0  0  0  0  0  0  0
    5.7341   -3.9323   23.4203 H   0  0  0  0  0  0  0  0  0  0  0  0
    6.7075   -4.6004   24.7204 H   0  0  0  0  0  0  0  0  0  0  0  0
    5.6698   -2.7713   25.2479 C   0  0  0  0  0  0  0  0  0  0  0  0
    5.5288   -1.7738   24.8020 H   0  0  0  0  0  0  0  0  0  0  0  0
    6.2760   -2.6282   26.1507 H   0  0  0  0  0  0  0  0  0  0  0  0
    4.3093   -3.3614   25.5649 C   0  0  0  0  0  0  0  0  0  0  0  0
    3.9687   -4.0083   26.7611 C   0  0  0  0  0  0  0  0  0  0  0  0
    4.7064   -4.0940   27.5566 H   0  0  0  0  0  0  0  0  0  0  0  0
    2.6745   -4.5142   26.9505 C   0  0  0  0  0  0  0  0  0  0  0  0
    2.4246   -5.0333   27.8733 H   0  0  0  0  0  0  0  0  0  0  0  0
    1.6989   -4.3347   25.9613 C   0  0  0  0  0  0  0  0  0  0  0  0
    0.6855   -4.6883   26.1196 H   0  0  0  0  0  0  0  0  0  0  0  0
    2.0310   -3.6933   24.7655 C   0  0  0  0  0  0  0  0  0  0  0  0
    1.2823   -3.5237   23.9978 H   0  0  0  0  0  0  0  0  0  0  0  0
    3.3360   -3.2593   24.5637 C   0  0  0  0  0  0  0  0  0  0  0  0
    3.6457   -2.8384   23.6182 H   0  0  0  0  0  0  0  0  0  0  0  0
    8.7264   -1.4281   22.4285 N   0  0  0  0  0  0  0  0  0  0  0  0
    9.5830   -1.5396   22.9328 H   0  0  0  0  0  0  0  0  0  0  0  0
    8.5918   -0.5217   21.4214 C   0  0  0  0  0  0  0  0  0  0  0  0
    9.7436    0.5548   20.9049 S   0  0  0  0  0  0  0  0  0  0  0  0
    5.4471    0.6620   20.1531 C   0  0  0  0  0  0  0  0  0  0  0  0
    5.0156    0.6526   21.1552 H   0  0  0  0  0  0  0  0  0  0  0  0
    4.8280    1.3238   19.0894 C   0  0  0  0  0  0  0  0  0  0  0  0
    3.8949    1.8558   19.2298 H   0  0  0  0  0  0  0  0  0  0  0  0
  1  2  1  0
  2  3  2  0
  3  4  1  0
  4  5  1  0
  4  6  2  0
  6  7  1  0
  7  8  1  0
  8  9  1  0
  8 10  2  0
 10 11  1  0
 11 12  1  0
 11 13  1  0
 13 14  1  0
 13 15  1  0
 13 16  1  0
 16 17  1  0
 16 18  1  0
 16 19  1  0
 19 20  2  0
 20 21  1  0
 20 22  1  0
 22 23  1  0
 22 24  2  0
 24 25  1  0
 24 26  1  0
 26 27  1  0
 26 28  2  0
 28 29  1  0
 10 30  1  0
 30 31  1  0
 30 32  1  0
 32 33  2  0
  6 34  1  0
 34 35  1  0
 34 36  2  0
 36 37  1  0
 36  2  1  0
 32  7  1  0
 28 19  1  0
M  END
>  <cnnaffinity>  (1) 
-5.27333

>  <filename>  (1) 
S=c1[nH]c(NCCc2ccccc2)cn1-c1cccnc1

$$$$
