
     RDKit          3D

 36 38  0  0  0  0  0  0  0  0999 V2000
    5.6154   -1.7285   21.6448 H   0  0  0  0  0  0  0  0  0  0  0  0
    6.6909   -1.6908   21.5974 C   0  0  0  0  0  0  0  0  0  0  0  0
    7.3523   -0.8531   20.7873 C   0  0  0  0  0  0  0  0  0  0  0  0
    6.7024    0.0230   19.8050 C   0  0  0  0  0  0  0  0  0  0  0  0
    7.2263    0.1187   18.5055 C   0  0  0  0  0  0  0  0  0  0  0  0
    8.1660   -0.3720   18.2615 H   0  0  0  0  0  0  0  0  0  0  0  0
    6.6170    0.7494   17.4988 N   0  0  0  0  0  0  0  0  0  0  0  0
    5.4496    1.3520   17.7672 C   0  0  0  0  0  0  0  0  0  0  0  0
    4.9669    1.8527   16.9319 H   0  0  0  0  0  0  0  0  0  0  0  0
    4.8579    1.3626   19.0383 C   0  0  0  0  0  0  0  0  0  0  0  0
    3.9217    1.8847   19.1863 H   0  0  0  0  0  0  0  0  0  0  0  0
    5.4972    0.6936   20.0829 C   0  0  0  0  0  0  0  0  0  0  0  0
    5.0802    0.7085   21.0938 H   0  0  0  0  0  0  0  0  0  0  0  0
    8.7510   -0.8005   20.8663 N   0  0  0  0  0  0  0  0  0  0  0  0
    9.2557    0.0073   20.5380 H   0  0  0  0  0  0  0  0  0  0  0  0
    9.4691   -1.4882   21.7866 C   0  0  0  0  0  0  0  0  0  0  0  0
   11.0544   -1.1519   22.1064 S   0  0  0  0  0  0  0  0  0  0  0  0
    8.8237   -2.4939   22.4405 N   0  0  0  0  0  0  0  0  0  0  0  0
    9.3813   -2.7411   23.2455 H   0  0  0  0  0  0  0  0  0  0  0  0
    7.4031   -2.3231   22.7303 C   0  0  1  0  0  0  0  0  0  0  0  0
    6.9698   -3.3063   22.9797 H   0  0  0  0  0  0  0  0  0  0  0  0
    7.2608   -1.4437   23.8220 O   0  0  0  0  0  0  0  0  0  0  0  0
    7.6766   -1.8816   25.0956 C   0  0  0  0  0  0  0  0  0  0  0  0
    7.8061   -2.9811   25.1458 H   0  0  0  0  0  0  0  0  0  0  0  0
    6.6460   -1.4565   26.1267 C   0  0  0  0  0  0  0  0  0  0  0  0
    6.4435   -0.3809   26.0052 H   0  0  0  0  0  0  0  0  0  0  0  0
    5.6949   -1.9965   26.0266 H   0  0  0  0  0  0  0  0  0  0  0  0
    7.4000   -1.7053   27.4261 C   0  0  0  0  0  0  0  0  0  0  0  0
    6.9132   -1.1970   28.2619 H   0  0  0  0  0  0  0  0  0  0  0  0
    7.4190   -2.7890   27.6090 H   0  0  0  0  0  0  0  0  0  0  0  0
    8.8443   -1.2122   27.1400 C   0  0  0  0  0  0  0  0  0  0  0  0
    9.0083   -0.2084   27.5495 H   0  0  0  0  0  0  0  0  0  0  0  0
    9.5985   -1.8691   27.5863 H   0  0  0  0  0  0  0  0  0  0  0  0
    8.9601   -1.1936   25.5899 C   0  0  0  0  0  0  0  0  0  0  0  0
    8.9524   -0.1637   25.2096 H   0  0  0  0  0  0  0  0  0  0  0  0
    9.8743   -1.6649   25.2078 H   0  0  0  0  0  0  0  0  0  0  0  0
  1  2  1  0
  2  3  2  0
  3  4  1  0
  4  5  2  0
  5  6  1  0
  5  7  1  0
  7  8  2  0
  8  9  1  0
  8 10  1  0
 10 11  1  0
 10 12  2  0
 12 13  1  0
  3 14  1  0
 14 15  1  0
 14 16  1  0
 16 17  2  0
 16 18  1  0
 18 19  1  0
 18 20  1  0
 20 21  1  1
 20 22  1  0
 22 23  1  0
 23 24  1  0
 23 25  1  0
 25 26  1  0
 25 27  1  0
 25 28  1  0
 28 29  1  0
 28 30  1  0
 28 31  1  0
 31 32  1  0
 31 33  1  0
 31 34  1  0
 34 35  1  0
 34 36  1  0
 20  2  1  0
 34 23  1  0
 12  4  1  0
M  END
>  <cnnaffinity>  (1) 
-4.97567

>  <filename>  (1) 
S=C1NC(c2cccnc2)=C[C@H](OC2CCCC2)N1

$$$$
