
     RDKit          3D

 33 35  0  0  0  0  0  0  0  0999 V2000
    4.9462    1.9092   16.9953 H   0  0  0  0  0  0  0  0  0  0  0  0
    5.3873    1.3040   17.7822 C   0  0  0  0  0  0  0  0  0  0  0  0
    6.5190    0.6520   17.4643 N   0  0  0  0  0  0  0  0  0  0  0  0
    7.1094   -0.0559   18.4318 C   0  0  0  0  0  0  0  0  0  0  0  0
    8.0380   -0.5626   18.1694 H   0  0  0  0  0  0  0  0  0  0  0  0
    6.5996   -0.1685   19.7429 C   0  0  0  0  0  0  0  0  0  0  0  0
    7.3939   -0.7705   20.7655 N   0  0  0  0  0  0  0  0  0  0  0  0
    8.6468   -0.2555   21.0787 C   0  0  0  0  0  0  0  0  0  0  0  0
    9.0178    0.6341   20.6025 H   0  0  0  0  0  0  0  0  0  0  0  0
    9.1669   -1.0288   22.0585 C   0  0  0  0  0  0  0  0  0  0  0  0
   10.3534   -1.0234   22.6795 O   0  0  0  0  0  0  0  0  0  0  0  0
   11.2959   -0.0673   22.1146 C   0  0  0  0  0  0  0  0  0  0  0  0
   11.2863   -0.1779   21.0217 H   0  0  0  0  0  0  0  0  0  0  0  0
   12.7108   -0.3025   22.6558 C   0  0  0  0  0  0  0  0  0  0  0  0
   12.9491   -1.3667   22.7288 H   0  0  0  0  0  0  0  0  0  0  0  0
   13.4259    0.1198   21.9339 H   0  0  0  0  0  0  0  0  0  0  0  0
   12.7852    0.4727   23.9976 C   0  0  0  0  0  0  0  0  0  0  0  0
   13.7388    1.0077   24.1059 H   0  0  0  0  0  0  0  0  0  0  0  0
   12.6855   -0.2077   24.8500 H   0  0  0  0  0  0  0  0  0  0  0  0
   11.5840    1.4595   23.9815 C   0  0  0  0  0  0  0  0  0  0  0  0
   11.8776    2.4823   24.2340 H   0  0  0  0  0  0  0  0  0  0  0  0
   10.8433    1.1683   24.7310 H   0  0  0  0  0  0  0  0  0  0  0  0
   10.9682    1.3598   22.5714 C   0  0  0  0  0  0  0  0  0  0  0  0
    9.8939    1.5947   22.5367 H   0  0  0  0  0  0  0  0  0  0  0  0
   11.4855    2.0456   21.8900 H   0  0  0  0  0  0  0  0  0  0  0  0
    8.2183   -1.9792   22.3609 N   0  0  0  0  0  0  0  0  0  0  0  0
    8.2642   -2.6942   23.0645 H   0  0  0  0  0  0  0  0  0  0  0  0
    7.0994   -1.8380   21.5841 C   0  0  0  0  0  0  0  0  0  0  0  0
    5.7543   -2.8075   21.6384 S   0  0  0  0  0  0  0  0  0  0  0  0
    5.3914    0.4643   20.0491 C   0  0  0  0  0  0  0  0  0  0  0  0
    4.9712    0.3732   21.0516 H   0  0  0  0  0  0  0  0  0  0  0  0
    4.7881    1.2338   19.0468 C   0  0  0  0  0  0  0  0  0  0  0  0
    3.8859    1.8007   19.2460 H   0  0  0  0  0  0  0  0  0  0  0  0
  1  2  1  0
  2  3  2  0
  3  4  1  0
  4  5  1  0
  4  6  2  0
  6  7  1  0
  7  8  1  0
  8  9  1  0
  8 10  2  0
 10 11  1  0
 11 12  1  0
 12 13  1  0
 12 14  1  0
 14 15  1  0
 14 16  1  0
 14 17  1  0
 17 18  1  0
 17 19  1  0
 17 20  1  0
 20 21  1  0
 20 22  1  0
 20 23  1  0
 23 24  1  0
 23 25  1  0
 10 26  1  0
 26 27  1  0
 26 28  1  0
 28 29  2  0
  6 30  1  0
 30 31  1  0
 30 32  2  0
 32 33  1  0
 32  2  1  0
 28  7  1  0
 23 12  1  0
M  END
>  <cnnaffinity>  (1) 
-5.09692

>  <filename>  (1) 
S=c1[nH]c(OC2CCCC2)cn1-c1cccnc1

$$$$
