
     RDKit          3D

 39 42  0  0  0  0  0  0  0  0999 V2000
    4.9175    1.8015   16.9689 H   0  0  0  0  0  0  0  0  0  0  0  0
    5.3912    1.3047   17.8152 C   0  0  0  0  0  0  0  0  0  0  0  0
    6.5561    0.6864   17.5596 N   0  0  0  0  0  0  0  0  0  0  0  0
    7.1708    0.0751   18.5814 C   0  0  0  0  0  0  0  0  0  0  0  0
    8.1064   -0.4200   18.3270 H   0  0  0  0  0  0  0  0  0  0  0  0
    6.6680    0.0253   19.8959 C   0  0  0  0  0  0  0  0  0  0  0  0
    7.3374   -0.6967   20.9845 C   0  0  0  0  0  0  0  0  0  0  0  0
    6.8163   -1.2392   22.1030 C   0  0  0  0  0  0  0  0  0  0  0  0
    5.8007   -1.2997   22.4119 H   0  0  0  0  0  0  0  0  0  0  0  0
    7.8302   -1.8350   22.8370 N   0  0  0  0  0  0  0  0  0  0  0  0
    7.6289   -2.4905   24.0939 C   0  0  0  0  0  0  0  0  0  0  0  0
    8.4746   -2.2049   25.1693 C   0  0  0  0  0  0  0  0  0  0  0  0
    9.2833   -1.4921   25.0351 H   0  0  0  0  0  0  0  0  0  0  0  0
    8.2755   -2.8693   26.3811 C   0  0  0  0  0  0  0  0  0  0  0  0
    8.9462   -2.6759   27.2111 H   0  0  0  0  0  0  0  0  0  0  0  0
    7.2418   -3.7987   26.5182 C   0  0  0  0  0  0  0  0  0  0  0  0
    7.0899   -4.3064   27.4666 H   0  0  0  0  0  0  0  0  0  0  0  0
    6.3730   -4.0782   25.4478 C   0  0  0  0  0  0  0  0  0  0  0  0
    5.2542   -5.0584   25.6065 C   0  0  0  0  0  0  0  0  0  0  0  0
    5.4414   -6.2649   26.3068 C   0  0  0  0  0  0  0  0  0  0  0  0
    6.4202   -6.4890   26.7257 H   0  0  0  0  0  0  0  0  0  0  0  0
    4.3939   -7.1777   26.4597 C   0  0  0  0  0  0  0  0  0  0  0  0
    4.5564   -8.0921   27.0254 H   0  0  0  0  0  0  0  0  0  0  0  0
    3.1364   -6.9016   25.9117 C   0  0  0  0  0  0  0  0  0  0  0  0
    2.3229   -7.6142   26.0310 H   0  0  0  0  0  0  0  0  0  0  0  0
    2.9313   -5.7033   25.2178 C   0  0  0  0  0  0  0  0  0  0  0  0
    1.9578   -5.4787   24.7888 H   0  0  0  0  0  0  0  0  0  0  0  0
    3.9819   -4.7924   25.0678 C   0  0  0  0  0  0  0  0  0  0  0  0
    3.8261   -3.8520   24.5431 H   0  0  0  0  0  0  0  0  0  0  0  0
    6.5780   -3.4026   24.2335 C   0  0  0  0  0  0  0  0  0  0  0  0
    5.9324   -3.5961   23.3818 H   0  0  0  0  0  0  0  0  0  0  0  0
    9.0225   -1.6840   22.1632 C   0  0  0  0  0  0  0  0  0  0  0  0
   10.5701   -2.1866   22.4930 S   0  0  0  0  0  0  0  0  0  0  0  0
    8.6862   -0.9955   21.0379 N   0  0  0  0  0  0  0  0  0  0  0  0
    9.4201   -0.7231   20.4077 H   0  0  0  0  0  0  0  0  0  0  0  0
    5.4390    0.6685   20.1337 C   0  0  0  0  0  0  0  0  0  0  0  0
    5.0097    0.6608   21.1357 H   0  0  0  0  0  0  0  0  0  0  0  0
    4.7970    1.3230   19.0817 C   0  0  0  0  0  0  0  0  0  0  0  0
    3.8630    1.8525   19.2316 H   0  0  0  0  0  0  0  0  0  0  0  0
  1  2  1  0
  2  3  2  0
  3  4  1  0
  4  5  1  0
  4  6  2  0
  6  7  1  0
  7  8  2  0
  8  9  1  0
  8 10  1  0
 10 11  1  0
 11 12  2  0
 12 13  1  0
 12 14  1  0
 14 15  1  0
 14 16  2  0
 16 17  1  0
 16 18  1  0
 18 19  1  0
 19 20  2  0
 20 21  1  0
 20 22  1  0
 22 23  1  0
 22 24  2  0
 24 25  1  0
 24 26  1  0
 26 27  1  0
 26 28  2  0
 28 29  1  0
 18 30  2  0
 30 31  1  0
 10 32  1  0
 32 33  2  0
 32 34  1  0
 34 35  1  0
  6 36  1  0
 36 37  1  0
 36 38  2  0
 38 39  1  0
 38  2  1  0
 34  7  1  0
 30 11  1  0
 28 19  1  0
M  END
>  <cnnaffinity>  (1) 
-5.93901

>  <filename>  (1) 
S=c1[nH]c(-c2cccnc2)cn1-c1cccc(-c2ccccc2)c1

$$$$
