
     RDKit          3D

 30 32  0  0  0  0  0  0  0  0999 V2000
    4.9705    1.8816   17.0094 H   0  0  0  0  0  0  0  0  0  0  0  0
    5.4300    1.3067   17.8083 C   0  0  0  0  0  0  0  0  0  0  0  0
    6.5834    0.6909   17.4995 N   0  0  0  0  0  0  0  0  0  0  0  0
    7.1928    0.0055   18.4703 C   0  0  0  0  0  0  0  0  0  0  0  0
    8.1339   -0.4817   18.2136 H   0  0  0  0  0  0  0  0  0  0  0  0
    6.6706   -0.1222   19.7723 C   0  0  0  0  0  0  0  0  0  0  0  0
    7.4113   -0.8167   20.7712 N   0  0  0  0  0  0  0  0  0  0  0  0
    8.7168   -0.4521   21.0965 C   0  0  0  0  0  0  0  0  0  0  0  0
    9.2082    0.3707   20.6088 H   0  0  0  0  0  0  0  0  0  0  0  0
    9.0985   -1.2706   22.0943 C   0  0  0  0  0  0  0  0  0  0  0  0
   10.2154   -1.4417   22.8131 O   0  0  0  0  0  0  0  0  0  0  0  0
   11.2754   -0.5644   22.6289 C   0  0  0  0  0  0  0  0  0  0  0  0
   12.5252   -1.1368   22.3897 C   0  0  0  0  0  0  0  0  0  0  0  0
   12.5822   -2.2124   22.2452 H   0  0  0  0  0  0  0  0  0  0  0  0
   13.6636   -0.3270   22.4083 C   0  0  0  0  0  0  0  0  0  0  0  0
   14.6372   -0.7780   22.2466 H   0  0  0  0  0  0  0  0  0  0  0  0
   13.5423    1.0488   22.6436 C   0  0  0  0  0  0  0  0  0  0  0  0
   14.4269    1.6760   22.7142 H   0  0  0  0  0  0  0  0  0  0  0  0
   12.2729    1.6183   22.7900 C   0  0  0  0  0  0  0  0  0  0  0  0
   12.1622    2.6935   22.8978 H   0  0  0  0  0  0  0  0  0  0  0  0
   11.1265    0.8162   22.7767 C   0  0  0  0  0  0  0  0  0  0  0  0
   10.1268    1.2344   22.8580 H   0  0  0  0  0  0  0  0  0  0  0  0
    8.0551   -2.1162   22.3633 N   0  0  0  0  0  0  0  0  0  0  0  0
    8.0102   -2.7935   23.1046 H   0  0  0  0  0  0  0  0  0  0  0  0
    6.9816   -1.8619   21.5606 C   0  0  0  0  0  0  0  0  0  0  0  0
    5.5562   -2.7150   21.5315 S   0  0  0  0  0  0  0  0  0  0  0  0
    5.4629    0.5078   20.0879 C   0  0  0  0  0  0  0  0  0  0  0  0
    5.0628    0.4300   21.1020 H   0  0  0  0  0  0  0  0  0  0  0  0
    4.8379    1.2452   19.0771 C   0  0  0  0  0  0  0  0  0  0  0  0
    3.9219    1.7931   19.2696 H   0  0  0  0  0  0  0  0  0  0  0  0
  1  2  1  0
  2  3  2  0
  3  4  1  0
  4  5  1  0
  4  6  2  0
  6  7  1  0
  7  8  1  0
  8  9  1  0
  8 10  2  0
 10 11  1  0
 11 12  1  0
 12 13  2  0
 13 14  1  0
 13 15  1  0
 15 16  1  0
 15 17  2  0
 17 18  1  0
 17 19  1  0
 19 20  1  0
 19 21  2  0
 21 22  1  0
 10 23  1  0
 23 24  1  0
 23 25  1  0
 25 26  2  0
  6 27  1  0
 27 28  1  0
 27 29  2  0
 29 30  1  0
 29  2  1  0
 25  7  1  0
 21 12  1  0
M  END
>  <cnnaffinity>  (1) 
-4.77873

>  <filename>  (1) 
S=c1[nH]c(Oc2ccccc2)cn1-c1cccnc1

$$$$
