
     RDKit          3D

 28 30  0  0  0  0  0  0  0  0999 V2000
    4.8929    1.7950   17.0185 H   0  0  0  0  0  0  0  0  0  0  0  0
    5.4054    1.2938   17.8326 C   0  0  0  0  0  0  0  0  0  0  0  0
    6.5685    0.6686   17.5785 N   0  0  0  0  0  0  0  0  0  0  0  0
    7.1806    0.0425   18.5924 C   0  0  0  0  0  0  0  0  0  0  0  0
    8.1306   -0.4507   18.3983 H   0  0  0  0  0  0  0  0  0  0  0  0
    6.6582    0.0199   19.8870 C   0  0  0  0  0  0  0  0  0  0  0  0
    7.3786   -0.7034   20.9112 C   0  0  0  0  0  0  0  0  0  0  0  0
    7.9834   -1.8461   20.6693 N   0  0  0  0  0  0  0  0  0  0  0  0
    8.4697   -2.2261   21.8860 N   0  0  0  0  0  0  0  0  0  0  0  0
    9.0432   -3.0470   22.0548 H   0  0  0  0  0  0  0  0  0  0  0  0
    8.2159   -1.2957   22.8699 C   0  0  0  0  0  0  0  0  0  0  0  0
    8.7993   -1.3548   24.4307 S   0  0  0  0  0  0  0  0  0  0  0  0
    7.4809   -0.3162   22.2464 N   0  0  0  0  0  0  0  0  0  0  0  0
    7.1093    0.9130   22.8075 C   0  0  0  0  0  0  0  0  0  0  0  0
    7.4760    2.1327   22.2123 C   0  0  0  0  0  0  0  0  0  0  0  0
    8.0717    2.1333   21.3064 H   0  0  0  0  0  0  0  0  0  0  0  0
    7.1057    3.3575   22.7940 C   0  0  0  0  0  0  0  0  0  0  0  0
    7.3973    4.2984   22.3351 H   0  0  0  0  0  0  0  0  0  0  0  0
    6.3543    3.3824   23.9737 C   0  0  0  0  0  0  0  0  0  0  0  0
    5.8324    5.0510   24.7588 Br  0  0  0  0  0  0  0  0  0  0  0  0
    5.9851    2.1736   24.5715 C   0  0  0  0  0  0  0  0  0  0  0  0
    5.3969    2.1947   25.4837 H   0  0  0  0  0  0  0  0  0  0  0  0
    6.3661    0.9507   23.9962 C   0  0  0  0  0  0  0  0  0  0  0  0
    6.0682    0.0188   24.4641 H   0  0  0  0  0  0  0  0  0  0  0  0
    5.4505    0.6635   20.1668 C   0  0  0  0  0  0  0  0  0  0  0  0
    5.0065    0.6458   21.1654 H   0  0  0  0  0  0  0  0  0  0  0  0
    4.8261    1.3099   19.1062 C   0  0  0  0  0  0  0  0  0  0  0  0
    3.8873    1.8297   19.2592 H   0  0  0  0  0  0  0  0  0  0  0  0
  1  2  1  0
  2  3  2  0
  3  4  1  0
  4  5  1  0
  4  6  2  0
  6  7  1  0
  7  8  2  0
  8  9  1  0
  9 10  1  0
  9 11  1  0
 11 12  2  0
 11 13  1  0
 13 14  1  0
 14 15  2  0
 15 16  1  0
 15 17  1  0
 17 18  1  0
 17 19  2  0
 19 20  1  0
 19 21  1  0
 21 22  1  0
 21 23  2  0
 23 24  1  0
  6 25  1  0
 25 26  1  0
 25 27  2  0
 27 28  1  0
 27  2  1  0
 13  7  1  0
 23 14  1  0
M  END
>  <cnnaffinity>  (1) 
-5.22442

>  <filename>  (1) 
S=c1[nH]nc(-c2cccnc2)n1-c1ccc(Br)cc1

$$$$
