
     RDKit          3D

 28 30  0  0  0  0  0  0  0  0999 V2000
    4.9191    1.7802   16.9985 H   0  0  0  0  0  0  0  0  0  0  0  0
    5.4021    1.2938   17.8404 C   0  0  0  0  0  0  0  0  0  0  0  0
    6.5678    0.6815   17.5777 N   0  0  0  0  0  0  0  0  0  0  0  0
    7.1686    0.0545   18.5901 C   0  0  0  0  0  0  0  0  0  0  0  0
    8.1168   -0.4344   18.3722 H   0  0  0  0  0  0  0  0  0  0  0  0
    6.6458    0.0122   19.8902 C   0  0  0  0  0  0  0  0  0  0  0  0
    7.3771   -0.7230   20.9095 C   0  0  0  0  0  0  0  0  0  0  0  0
    7.9759   -1.8551   20.6905 N   0  0  0  0  0  0  0  0  0  0  0  0
    8.4711   -2.1980   21.9081 N   0  0  0  0  0  0  0  0  0  0  0  0
    9.0156   -3.0293   22.0557 H   0  0  0  0  0  0  0  0  0  0  0  0
    8.2510   -1.2954   22.8830 C   0  0  0  0  0  0  0  0  0  0  0  0
    8.8055   -1.3744   24.4447 S   0  0  0  0  0  0  0  0  0  0  0  0
    7.5034   -0.3262   22.2337 N   0  0  0  0  0  0  0  0  0  0  0  0
    7.1149    0.9302   22.8172 C   0  0  0  0  0  0  0  0  0  0  0  0
    7.5089    2.1408   22.2316 C   0  0  0  0  0  0  0  0  0  0  0  0
    8.0829    2.1303   21.3111 H   0  0  0  0  0  0  0  0  0  0  0  0
    7.1180    3.3557   22.8055 C   0  0  0  0  0  0  0  0  0  0  0  0
    7.4039    4.2951   22.3366 H   0  0  0  0  0  0  0  0  0  0  0  0
    6.3540    3.3845   23.9759 C   0  0  0  0  0  0  0  0  0  0  0  0
    6.0521    4.3256   24.4334 H   0  0  0  0  0  0  0  0  0  0  0  0
    5.9844    2.1671   24.5546 C   0  0  0  0  0  0  0  0  0  0  0  0
    5.0445    2.1918   26.0196 Cl  0  0  0  0  0  0  0  0  0  0  0  0
    6.3509    0.9408   23.9895 C   0  0  0  0  0  0  0  0  0  0  0  0
    6.0549    0.0148   24.4701 H   0  0  0  0  0  0  0  0  0  0  0  0
    5.4251    0.6517   20.1537 C   0  0  0  0  0  0  0  0  0  0  0  0
    5.0103    0.6354   21.1660 H   0  0  0  0  0  0  0  0  0  0  0  0
    4.7993    1.3104   19.1035 C   0  0  0  0  0  0  0  0  0  0  0  0
    3.8709    1.8449   19.2569 H   0  0  0  0  0  0  0  0  0  0  0  0
  1  2  1  0
  2  3  2  0
  3  4  1  0
  4  5  1  0
  4  6  2  0
  6  7  1  0
  7  8  2  0
  8  9  1  0
  9 10  1  0
  9 11  1  0
 11 12  2  0
 11 13  1  0
 13 14  1  0
 14 15  2  0
 15 16  1  0
 15 17  1  0
 17 18  1  0
 17 19  2  0
 19 20  1  0
 19 21  1  0
 21 22  1  0
 21 23  2  0
 23 24  1  0
  6 25  1  0
 25 26  1  0
 25 27  2  0
 27 28  1  0
 27  2  1  0
 13  7  1  0
 23 14  1  0
M  END
>  <cnnaffinity>  (1) 
-5.20945

>  <filename>  (1) 
S=c1[nH]nc(-c2cccnc2)n1-c1cccc(Cl)c1

$$$$
