
     RDKit          3D

 33 35  0  0  0  0  0  0  0  0999 V2000
    7.5021    1.0959   22.2950 H   0  0  0  0  0  0  0  0  0  0  0  0
    7.6821    0.0460   22.1556 C   0  0  0  0  0  0  0  0  0  0  0  0
    7.3233   -0.5807   21.0215 C   0  0  0  0  0  0  0  0  0  0  0  0
    6.6490    0.0740   19.8962 C   0  0  0  0  0  0  0  0  0  0  0  0
    7.1892    0.0306   18.6017 C   0  0  0  0  0  0  0  0  0  0  0  0
    8.1340   -0.4830   18.4191 H   0  0  0  0  0  0  0  0  0  0  0  0
    6.6146    0.6114   17.5431 N   0  0  0  0  0  0  0  0  0  0  0  0
    5.4536    1.2559   17.7390 C   0  0  0  0  0  0  0  0  0  0  0  0
    5.0107    1.7198   16.8590 H   0  0  0  0  0  0  0  0  0  0  0  0
    4.8237    1.3414   18.9851 C   0  0  0  0  0  0  0  0  0  0  0  0
    3.8816    1.8650   19.0774 H   0  0  0  0  0  0  0  0  0  0  0  0
    5.4424    0.7630   20.0888 C   0  0  0  0  0  0  0  0  0  0  0  0
    5.0012    0.8141   21.0841 H   0  0  0  0  0  0  0  0  0  0  0  0
    7.5441   -1.9460   20.8929 N   0  0  0  0  0  0  0  0  0  0  0  0
    7.1883   -2.4786   20.1153 H   0  0  0  0  0  0  0  0  0  0  0  0
    8.0265   -2.7278   21.8910 C   0  0  0  0  0  0  0  0  0  0  0  0
    8.0771   -4.3721   21.7606 S   0  0  0  0  0  0  0  0  0  0  0  0
    8.4766   -2.0762   22.9713 N   0  0  0  0  0  0  0  0  0  0  0  0
    8.8570   -2.6627   23.6902 H   0  0  0  0  0  0  0  0  0  0  0  0
    8.3742   -0.6701   23.2587 C   0  0  1  0  0  0  0  0  0  0  0  0
    7.8396   -0.5545   24.2162 H   0  0  0  0  0  0  0  0  0  0  0  0
    9.7235   -0.2600   23.5064 O   0  0  0  0  0  0  0  0  0  0  0  0
    9.9721    1.0624   23.7878 C   0  0  0  0  0  0  0  0  0  0  0  0
   11.2649    1.5338   23.5212 C   0  0  0  0  0  0  0  0  0  0  0  0
   11.9828    0.8360   23.1053 H   0  0  0  0  0  0  0  0  0  0  0  0
   11.5927    2.8655   23.7892 C   0  0  0  0  0  0  0  0  0  0  0  0
   12.5937    3.2286   23.5627 H   0  0  0  0  0  0  0  0  0  0  0  0
   10.6478    3.7414   24.3398 C   0  0  0  0  0  0  0  0  0  0  0  0
   10.8796    4.7799   24.5562 H   0  0  0  0  0  0  0  0  0  0  0  0
    9.3790    3.2407   24.6341 C   0  0  0  0  0  0  0  0  0  0  0  0
    8.1876    4.2836   25.3515 Cl  0  0  0  0  0  0  0  0  0  0  0  0
    9.0248    1.9183   24.3605 C   0  0  0  0  0  0  0  0  0  0  0  0
    8.0271    1.5618   24.5806 H   0  0  0  0  0  0  0  0  0  0  0  0
  1  2  1  0
  2  3  2  0
  3  4  1  0
  4  5  2  0
  5  6  1  0
  5  7  1  0
  7  8  2  0
  8  9  1  0
  8 10  1  0
 10 11  1  0
 10 12  2  0
 12 13  1  0
  3 14  1  0
 14 15  1  0
 14 16  1  0
 16 17  2  0
 16 18  1  0
 18 19  1  0
 18 20  1  0
 20 21  1  1
 20 22  1  0
 22 23  1  0
 23 24  2  0
 24 25  1  0
 24 26  1  0
 26 27  1  0
 26 28  2  0
 28 29  1  0
 28 30  1  0
 30 31  1  0
 30 32  2  0
 32 33  1  0
 20  2  1  0
 32 23  1  0
 12  4  1  0
M  END
>  <cnnaffinity>  (1) 
-5.4749

>  <filename>  (1) 
S=C1NC(c2cccnc2)=C[C@H](Oc2cccc(Cl)c2)N1

$$$$
