
     RDKit          3D

 28 30  0  0  0  0  0  0  0  0999 V2000
    4.9187    1.7799   16.9990 H   0  0  0  0  0  0  0  0  0  0  0  0
    5.4024    1.2938   17.8408 C   0  0  0  0  0  0  0  0  0  0  0  0
    6.5679    0.6809   17.5779 N   0  0  0  0  0  0  0  0  0  0  0  0
    7.1691    0.0550   18.5907 C   0  0  0  0  0  0  0  0  0  0  0  0
    8.1172   -0.4343   18.3730 H   0  0  0  0  0  0  0  0  0  0  0  0
    6.6467    0.0149   19.8910 C   0  0  0  0  0  0  0  0  0  0  0  0
    7.3797   -0.7172   20.9109 C   0  0  0  0  0  0  0  0  0  0  0  0
    7.9765   -1.8507   20.6930 N   0  0  0  0  0  0  0  0  0  0  0  0
    8.4745   -2.1907   21.9101 N   0  0  0  0  0  0  0  0  0  0  0  0
    9.0206   -3.0214   22.0575 H   0  0  0  0  0  0  0  0  0  0  0  0
    8.2574   -1.2856   22.8830 C   0  0  0  0  0  0  0  0  0  0  0  0
    8.8143   -1.3596   24.4444 S   0  0  0  0  0  0  0  0  0  0  0  0
    7.5088   -0.3170   22.2335 N   0  0  0  0  0  0  0  0  0  0  0  0
    7.1165    0.9359   22.8143 C   0  0  0  0  0  0  0  0  0  0  0  0
    7.5049    2.1411   22.2160 C   0  0  0  0  0  0  0  0  0  0  0  0
    8.0727    2.1460   21.2939 H   0  0  0  0  0  0  0  0  0  0  0  0
    7.1040    3.3482   22.7929 C   0  0  0  0  0  0  0  0  0  0  0  0
    7.5497    4.8472   22.0375 Cl  0  0  0  0  0  0  0  0  0  0  0  0
    6.3467    3.3938   23.9642 C   0  0  0  0  0  0  0  0  0  0  0  0
    6.0487    4.3422   24.4058 H   0  0  0  0  0  0  0  0  0  0  0  0
    5.9895    2.1763   24.5476 C   0  0  0  0  0  0  0  0  0  0  0  0
    5.0586    2.2077   26.0123 Cl  0  0  0  0  0  0  0  0  0  0  0  0
    6.3585    0.9488   23.9894 C   0  0  0  0  0  0  0  0  0  0  0  0
    6.0693    0.0247   24.4752 H   0  0  0  0  0  0  0  0  0  0  0  0
    5.4255    0.6522   20.1542 C   0  0  0  0  0  0  0  0  0  0  0  0
    5.0091    0.6348   21.1654 H   0  0  0  0  0  0  0  0  0  0  0  0
    4.7995    1.3106   19.1038 C   0  0  0  0  0  0  0  0  0  0  0  0
    3.8711    1.8451   19.2574 H   0  0  0  0  0  0  0  0  0  0  0  0
  1  2  1  0
  2  3  2  0
  3  4  1  0
  4  5  1  0
  4  6  2  0
  6  7  1  0
  7  8  2  0
  8  9  1  0
  9 10  1  0
  9 11  1  0
 11 12  2  0
 11 13  1  0
 13 14  1  0
 14 15  2  0
 15 16  1  0
 15 17  1  0
 17 18  1  0
 17 19  2  0
 19 20  1  0
 19 21  1  0
 21 22  1  0
 21 23  2  0
 23 24  1  0
  6 25  1  0
 25 26  1  0
 25 27  2  0
 27 28  1  0
 27  2  1  0
 13  7  1  0
 23 14  1  0
M  END
>  <cnnaffinity>  (1) 
-5.43679

>  <filename>  (1) 
S=c1[nH]nc(-c2cccnc2)n1-c1cc(Cl)cc(Cl)c1

$$$$
