
     RDKit          3D

 29 31  0  0  0  0  0  0  0  0999 V2000
    4.8782    2.0649   16.8812 H   0  0  0  0  0  0  0  0  0  0  0  0
    5.4014    1.4222   17.5808 C   0  0  0  0  0  0  0  0  0  0  0  0
    6.5243    0.7826   17.1866 N   0  0  0  0  0  0  0  0  0  0  0  0
    7.1746    0.0347   18.1035 C   0  0  0  0  0  0  0  0  0  0  0  0
    8.0893   -0.4715   17.8022 H   0  0  0  0  0  0  0  0  0  0  0  0
    6.7279   -0.1039   19.4350 C   0  0  0  0  0  0  0  0  0  0  0  0
    7.4127   -0.8476   20.3955 N   0  0  0  0  0  0  0  0  0  0  0  0
    7.8970   -0.2473   21.5637 C   0  0  0  0  0  0  0  0  0  0  0  0
    8.0976    0.8119   21.6922 H   0  0  0  0  0  0  0  0  0  0  0  0
    8.0088   -1.2048   22.5381 C   0  0  0  0  0  0  0  0  0  0  0  0
    8.4125   -1.0507   23.9347 C   0  0  0  0  0  0  0  0  0  0  0  0
    8.7515    0.2049   24.4650 C   0  0  0  0  0  0  0  0  0  0  0  0
    8.7137    1.0931   23.8458 H   0  0  0  0  0  0  0  0  0  0  0  0
    9.1084    0.3278   25.8132 C   0  0  0  0  0  0  0  0  0  0  0  0
    9.3289    1.2978   26.2554 H   0  0  0  0  0  0  0  0  0  0  0  0
    9.1595   -0.8078   26.6239 C   0  0  0  0  0  0  0  0  0  0  0  0
    9.6100   -0.6376   28.4506 Br  0  0  0  0  0  0  0  0  0  0  0  0
    8.8129   -2.0612   26.1127 C   0  0  0  0  0  0  0  0  0  0  0  0
    8.8067   -2.9418   26.7514 H   0  0  0  0  0  0  0  0  0  0  0  0
    8.4255   -2.1716   24.7767 C   0  0  0  0  0  0  0  0  0  0  0  0
    8.1182   -3.1355   24.3854 H   0  0  0  0  0  0  0  0  0  0  0  0
    7.5674   -2.3988   21.9929 N   0  0  0  0  0  0  0  0  0  0  0  0
    7.1837   -3.1344   22.5676 H   0  0  0  0  0  0  0  0  0  0  0  0
    7.0401   -2.1412   20.7525 C   0  0  0  0  0  0  0  0  0  0  0  0
    5.9034   -3.1544   20.0652 S   0  0  0  0  0  0  0  0  0  0  0  0
    5.5511    0.5247   19.8207 C   0  0  0  0  0  0  0  0  0  0  0  0
    5.2032    0.4266   20.8490 H   0  0  0  0  0  0  0  0  0  0  0  0
    4.8839    1.3031   18.8799 C   0  0  0  0  0  0  0  0  0  0  0  0
    3.9926    1.8503   19.1680 H   0  0  0  0  0  0  0  0  0  0  0  0
  1  2  1  0
  2  3  2  0
  3  4  1  0
  4  5  1  0
  4  6  2  0
  6  7  1  0
  7  8  1  0
  8  9  1  0
  8 10  2  0
 10 11  1  0
 11 12  2  0
 12 13  1  0
 12 14  1  0
 14 15  1  0
 14 16  2  0
 16 17  1  0
 16 18  1  0
 18 19  1  0
 18 20  2  0
 20 21  1  0
 10 22  1  0
 22 23  1  0
 22 24  1  0
 24 25  2  0
  6 26  1  0
 26 27  1  0
 26 28  2  0
 28 29  1  0
 28  2  1  0
 24  7  1  0
 20 11  1  0
M  END
>  <cnnaffinity>  (1) 
-5.46425

>  <filename>  (1) 
S=c1[nH]c(-c2ccc(Br)cc2)cn1-c1cccnc1

$$$$
