
     RDKit          3D

 22 23  0  0  0  0  0  0  0  0999 V2000
    8.8371    2.0520   22.9691 H   0  0  0  0  0  0  0  0  0  0  0  0
    8.7749    2.3522   21.6610 S   0  0  0  0  0  0  0  0  0  0  0  0
    9.4564    0.7588   21.0962 C   0  0  0  0  0  0  0  0  0  0  0  0
   10.4724    0.6090   21.4677 H   0  0  0  0  0  0  0  0  0  0  0  0
    9.4891    0.8238   20.0102 H   0  0  0  0  0  0  0  0  0  0  0  0
    8.6123   -0.3996   21.4866 C   0  0  0  0  0  0  0  0  0  0  0  0
    8.9257   -1.2195   22.4392 N   0  0  0  0  0  0  0  0  0  0  0  0
    7.8411   -2.0394   22.5323 N   0  0  0  0  0  0  0  0  0  0  0  0
    7.7599   -2.7676   23.2185 H   0  0  0  0  0  0  0  0  0  0  0  0
    6.8615   -1.7811   21.6474 C   0  0  0  0  0  0  0  0  0  0  0  0
    5.4682   -2.6675   21.4811 S   0  0  0  0  0  0  0  0  0  0  0  0
    7.3648   -0.6918   20.9460 N   0  0  0  0  0  0  0  0  0  0  0  0
    6.6765    0.0163   19.9033 C   0  0  0  0  0  0  0  0  0  0  0  0
    7.1792    0.0573   18.5894 C   0  0  0  0  0  0  0  0  0  0  0  0
    8.1180   -0.4448   18.3580 H   0  0  0  0  0  0  0  0  0  0  0  0
    6.5593    0.6679   17.5745 N   0  0  0  0  0  0  0  0  0  0  0  0
    5.4020    1.2914   17.8394 C   0  0  0  0  0  0  0  0  0  0  0  0
    4.9269    1.7910   16.9961 H   0  0  0  0  0  0  0  0  0  0  0  0
    4.8206    1.3037   19.1112 C   0  0  0  0  0  0  0  0  0  0  0  0
    3.8882    1.8306   19.2593 H   0  0  0  0  0  0  0  0  0  0  0  0
    5.4573    0.6412   20.1680 C   0  0  0  0  0  0  0  0  0  0  0  0
    5.0384    0.6009   21.1764 H   0  0  0  0  0  0  0  0  0  0  0  0
  1  2  1  0
  2  3  1  0
  3  4  1  0
  3  5  1  0
  3  6  1  0
  6  7  2  0
  7  8  1  0
  8  9  1  0
  8 10  1  0
 10 11  2  0
 10 12  1  0
 12 13  1  0
 13 14  2  0
 14 15  1  0
 14 16  1  0
 16 17  2  0
 17 18  1  0
 17 19  1  0
 19 20  1  0
 19 21  2  0
 21 22  1  0
 12  6  1  0
 21 13  1  0
M  END
>  <cnnaffinity>  (1) 
-4.45369

>  <filename>  (1) 
S=c1[nH]nc(CS)n1-c1cccnc1

$$$$
