
     RDKit          3D

 41 43  0  0  0  0  0  0  0  0999 V2000
    5.6348   -1.6591   21.7339 H   0  0  0  0  0  0  0  0  0  0  0  0
    6.7026   -1.5310   21.8236 C   0  0  0  0  0  0  0  0  0  0  0  0
    7.3717   -0.7223   20.9732 C   0  0  0  0  0  0  0  0  0  0  0  0
    6.7009    0.0434   19.9137 C   0  0  0  0  0  0  0  0  0  0  0  0
    7.2016    0.0822   18.6012 C   0  0  0  0  0  0  0  0  0  0  0  0
    8.1317   -0.4266   18.3428 H   0  0  0  0  0  0  0  0  0  0  0  0
    6.5733    0.6739   17.5792 N   0  0  0  0  0  0  0  0  0  0  0  0
    5.4090    1.2887   17.8407 C   0  0  0  0  0  0  0  0  0  0  0  0
    4.9278    1.7810   16.9975 H   0  0  0  0  0  0  0  0  0  0  0  0
    4.8199    1.3134   19.1088 C   0  0  0  0  0  0  0  0  0  0  0  0
    3.8803    1.8326   19.2554 H   0  0  0  0  0  0  0  0  0  0  0  0
    5.4634    0.6658   20.1605 C   0  0  0  0  0  0  0  0  0  0  0  0
    5.0262    0.6367   21.1606 H   0  0  0  0  0  0  0  0  0  0  0  0
    8.7583   -0.6366   21.0887 N   0  0  0  0  0  0  0  0  0  0  0  0
    9.3324    0.0052   20.5727 H   0  0  0  0  0  0  0  0  0  0  0  0
    9.5036   -1.4213   21.9053 C   0  0  0  0  0  0  0  0  0  0  0  0
   11.1600   -1.3500   21.9092 S   0  0  0  0  0  0  0  0  0  0  0  0
    8.8237   -2.2821   22.6817 N   0  0  0  0  0  0  0  0  0  0  0  0
    9.4495   -2.8503   23.2274 H   0  0  0  0  0  0  0  0  0  0  0  0
    7.3956   -2.1403   22.9923 C   0  0  1  0  0  0  0  0  0  0  0  0
    6.9919   -3.1545   23.1476 H   0  0  0  0  0  0  0  0  0  0  0  0
    7.1810   -1.2843   24.2677 C   0  0  0  0  0  0  0  0  0  0  0  0
    6.1009   -1.1638   24.4152 H   0  0  0  0  0  0  0  0  0  0  0  0
    7.5808   -0.2849   24.0677 H   0  0  0  0  0  0  0  0  0  0  0  0
    7.8103   -1.8180   25.5576 C   0  0  0  0  0  0  0  0  0  0  0  0
    7.6780   -1.0428   26.3285 H   0  0  0  0  0  0  0  0  0  0  0  0
    8.8957   -1.9164   25.4229 H   0  0  0  0  0  0  0  0  0  0  0  0
    7.3033   -3.0841   26.0864 N   0  0  0  0  0  0  0  0  0  0  0  0
    5.8457   -3.2577   26.0344 C   0  0  0  0  0  0  0  0  0  0  0  0
    5.3565   -2.3765   26.4726 H   0  0  0  0  0  0  0  0  0  0  0  0
    5.4710   -3.3686   24.9984 H   0  0  0  0  0  0  0  0  0  0  0  0
    5.4232   -4.5049   26.8199 C   0  0  0  0  0  0  0  0  0  0  0  0
    4.3509   -4.6828   26.6952 H   0  0  0  0  0  0  0  0  0  0  0  0
    5.6353   -4.3564   27.8911 H   0  0  0  0  0  0  0  0  0  0  0  0
    6.0859   -5.6741   26.3506 O   0  0  0  0  0  0  0  0  0  0  0  0
    7.4968   -5.5123   26.4575 C   0  0  0  0  0  0  0  0  0  0  0  0
    7.9458   -6.4345   26.0777 H   0  0  0  0  0  0  0  0  0  0  0  0
    7.7776   -5.3938   27.5164 H   0  0  0  0  0  0  0  0  0  0  0  0
    8.0002   -4.3013   25.6558 C   0  0  0  0  0  0  0  0  0  0  0  0
    9.0758   -4.1857   25.8442 H   0  0  0  0  0  0  0  0  0  0  0  0
    7.8666   -4.5171   24.5806 H   0  0  0  0  0  0  0  0  0  0  0  0
  1  2  1  0
  2  3  2  0
  3  4  1  0
  4  5  2  0
  5  6  1  0
  5  7  1  0
  7  8  2  0
  8  9  1  0
  8 10  1  0
 10 11  1  0
 10 12  2  0
 12 13  1  0
  3 14  1  0
 14 15  1  0
 14 16  1  0
 16 17  2  0
 16 18  1  0
 18 19  1  0
 18 20  1  0
 20 21  1  1
 20 22  1  0
 22 23  1  0
 22 24  1  0
 22 25  1  0
 25 26  1  0
 25 27  1  0
 25 28  1  0
 28 29  1  0
 29 30  1  0
 29 31  1  0
 29 32  1  0
 32 33  1  0
 32 34  1  0
 32 35  1  0
 35 36  1  0
 36 37  1  0
 36 38  1  0
 36 39  1  0
 39 40  1  0
 39 41  1  0
 20  2  1  0
 39 28  1  0
 12  4  1  0
M  END
>  <cnnaffinity>  (1) 
-5.01391

>  <filename>  (1) 
S=C1NC(c2cccnc2)=C[C@H](CCN2CCOCC2)N1

$$$$
