
     RDKit          3D

 26 28  0  0  0  0  0  0  0  0999 V2000
    6.1288    4.2361   24.3823 H   0  0  0  0  0  0  0  0  0  0  0  0
    6.4147    3.2870   23.9341 C   0  0  0  0  0  0  0  0  0  0  0  0
    7.1242    3.3355   22.8114 N   0  0  0  0  0  0  0  0  0  0  0  0
    7.4704    2.1668   22.2642 C   0  0  0  0  0  0  0  0  0  0  0  0
    8.0392    2.1994   21.3356 H   0  0  0  0  0  0  0  0  0  0  0  0
    7.1187    0.9302   22.8138 C   0  0  0  0  0  0  0  0  0  0  0  0
    7.5078   -0.3390   22.2256 N   0  0  0  0  0  0  0  0  0  0  0  0
    7.3785   -0.7491   20.8964 C   0  0  0  0  0  0  0  0  0  0  0  0
    6.6484    0.0081   19.8877 C   0  0  0  0  0  0  0  0  0  0  0  0
    7.1720    0.0553   18.5895 C   0  0  0  0  0  0  0  0  0  0  0  0
    8.1198   -0.4345   18.3742 H   0  0  0  0  0  0  0  0  0  0  0  0
    6.5697    0.6819   17.5787 N   0  0  0  0  0  0  0  0  0  0  0  0
    5.4033    1.2933   17.8425 C   0  0  0  0  0  0  0  0  0  0  0  0
    4.9158    1.7771   17.0017 H   0  0  0  0  0  0  0  0  0  0  0  0
    4.8027    1.3109   19.1074 C   0  0  0  0  0  0  0  0  0  0  0  0
    3.8724    1.8449   19.2610 H   0  0  0  0  0  0  0  0  0  0  0  0
    5.4314    0.6521   20.1562 C   0  0  0  0  0  0  0  0  0  0  0  0
    5.0067    0.6279   21.1644 H   0  0  0  0  0  0  0  0  0  0  0  0
    7.9706   -1.8799   20.6744 N   0  0  0  0  0  0  0  0  0  0  0  0
    8.4663   -2.2253   21.8939 N   0  0  0  0  0  0  0  0  0  0  0  0
    9.0079   -3.0577   22.0463 H   0  0  0  0  0  0  0  0  0  0  0  0
    8.2581   -1.3263   22.8714 C   0  0  0  0  0  0  0  0  0  0  0  0
    8.8040   -1.3874   24.4385 S   0  0  0  0  0  0  0  0  0  0  0  0
    6.3830    1.0151   23.9988 C   0  0  0  0  0  0  0  0  0  0  0  0
    6.0778    0.1041   24.5111 H   0  0  0  0  0  0  0  0  0  0  0  0
    6.0277    2.1757   24.5589 N   0  0  0  0  0  0  0  0  0  0  0  0
  1  2  1  0
  2  3  2  0
  3  4  1  0
  4  5  1  0
  4  6  2  0
  6  7  1  0
  7  8  1  0
  8  9  1  0
  9 10  2  0
 10 11  1  0
 10 12  1  0
 12 13  2  0
 13 14  1  0
 13 15  1  0
 15 16  1  0
 15 17  2  0
 17 18  1  0
  8 19  2  0
 19 20  1  0
 20 21  1  0
 20 22  1  0
 22 23  2  0
  6 24  1  0
 24 25  1  0
 24 26  2  0
 26  2  1  0
 22  7  1  0
 17  9  1  0
M  END
>  <cnnaffinity>  (1) 
-4.98774

>  <filename>  (1) 
S=c1[nH]nc(-c2cccnc2)n1-c1cncnc1

$$$$
