
     RDKit          3D

 18 19  0  0  0  0  0  0  0  0999 V2000
    4.8884    1.8277   17.0213 H   0  0  0  0  0  0  0  0  0  0  0  0
    5.4049    1.2992   17.8209 C   0  0  0  0  0  0  0  0  0  0  0  0
    6.5803    0.6936   17.5736 N   0  0  0  0  0  0  0  0  0  0  0  0
    7.2019    0.0704   18.5949 C   0  0  0  0  0  0  0  0  0  0  0  0
    8.1493   -0.4200   18.3932 H   0  0  0  0  0  0  0  0  0  0  0  0
    6.6778   -0.0036   19.9042 C   0  0  0  0  0  0  0  0  0  0  0  0
    7.3302   -0.6841   20.9482 N   0  0  0  0  0  0  0  0  0  0  0  0
    8.6306   -0.4698   21.4051 C   0  0  0  0  0  0  0  0  0  0  0  0
    9.7895    0.9228   20.8142 Br  0  0  0  0  0  0  0  0  0  0  0  0
    8.9708   -1.3002   22.3666 N   0  0  0  0  0  0  0  0  0  0  0  0
    7.8515   -2.0395   22.5841 N   0  0  0  0  0  0  0  0  0  0  0  0
    7.7771   -2.7932   23.2678 H   0  0  0  0  0  0  0  0  0  0  0  0
    6.8322   -1.7253   21.7185 C   0  0  0  0  0  0  0  0  0  0  0  0
    5.4915   -2.6982   21.5355 S   0  0  0  0  0  0  0  0  0  0  0  0
    5.4591    0.6226   20.1494 C   0  0  0  0  0  0  0  0  0  0  0  0
    5.0310    0.6016   21.1478 H   0  0  0  0  0  0  0  0  0  0  0  0
    4.8318    1.2826   19.0926 C   0  0  0  0  0  0  0  0  0  0  0  0
    3.8985    1.8052   19.2448 H   0  0  0  0  0  0  0  0  0  0  0  0
  1  2  1  0
  2  3  2  0
  3  4  1  0
  4  5  1  0
  4  6  2  0
  6  7  1  0
  7  8  1  0
  8  9  1  0
  8 10  2  0
 10 11  1  0
 11 12  1  0
 11 13  1  0
 13 14  2  0
  6 15  1  0
 15 16  1  0
 15 17  2  0
 17 18  1  0
 17  2  1  0
 13  7  1  0
M  END
>  <cnnaffinity>  (1) 
-3.95092

>  <filename>  (1) 
S=c1[nH]nc(Br)n1-c1cccnc1

$$$$
