
     RDKit          3D

 39 42  0  0  0  0  0  0  0  0999 V2000
    4.9316    1.7968   16.9957 H   0  0  0  0  0  0  0  0  0  0  0  0
    5.3973    1.2900   17.8348 C   0  0  0  0  0  0  0  0  0  0  0  0
    6.5525    0.6604   17.5689 N   0  0  0  0  0  0  0  0  0  0  0  0
    7.1722    0.0436   18.5813 C   0  0  0  0  0  0  0  0  0  0  0  0
    8.1248   -0.4335   18.3580 H   0  0  0  0  0  0  0  0  0  0  0  0
    6.6523    0.0006   19.8909 C   0  0  0  0  0  0  0  0  0  0  0  0
    7.3321   -0.6814   20.9480 N   0  0  0  0  0  0  0  0  0  0  0  0
    6.7369   -1.6085   21.7939 C   0  0  0  0  0  0  0  0  0  0  0  0
    5.6793   -1.8096   21.7189 H   0  0  0  0  0  0  0  0  0  0  0  0
    7.6776   -2.0590   22.6612 C   0  0  0  0  0  0  0  0  0  0  0  0
    7.5752   -3.0073   23.7773 C   0  0  0  0  0  0  0  0  0  0  0  0
    8.4951   -3.0549   24.8408 C   0  0  0  0  0  0  0  0  0  0  0  0
    9.3328   -2.3636   24.8688 H   0  0  0  0  0  0  0  0  0  0  0  0
    8.3244   -3.9730   25.8811 C   0  0  0  0  0  0  0  0  0  0  0  0
    9.0380   -4.0054   26.7018 H   0  0  0  0  0  0  0  0  0  0  0  0
    7.2313   -4.8482   25.8770 C   0  0  0  0  0  0  0  0  0  0  0  0
    7.0992   -5.5745   26.6780 H   0  0  0  0  0  0  0  0  0  0  0  0
    6.2968   -4.8181   24.8255 C   0  0  0  0  0  0  0  0  0  0  0  0
    5.1231   -5.7446   24.8039 C   0  0  0  0  0  0  0  0  0  0  0  0
    4.4005   -6.0102   25.9801 C   0  0  0  0  0  0  0  0  0  0  0  0
    4.7010   -5.5124   26.8993 H   0  0  0  0  0  0  0  0  0  0  0  0
    3.3071   -6.8808   25.9750 C   0  0  0  0  0  0  0  0  0  0  0  0
    2.7746   -7.0776   26.9028 H   0  0  0  0  0  0  0  0  0  0  0  0
    2.9134   -7.5017   24.7839 C   0  0  0  0  0  0  0  0  0  0  0  0
    2.0641   -8.1804   24.7785 H   0  0  0  0  0  0  0  0  0  0  0  0
    3.6140   -7.2397   23.6008 C   0  0  0  0  0  0  0  0  0  0  0  0
    3.2994   -7.6989   22.6675 H   0  0  0  0  0  0  0  0  0  0  0  0
    4.7084   -6.3694   23.6126 C   0  0  0  0  0  0  0  0  0  0  0  0
    5.2632   -6.1748   22.6977 H   0  0  0  0  0  0  0  0  0  0  0  0
    6.4884   -3.8924   23.7923 C   0  0  0  0  0  0  0  0  0  0  0  0
    5.7661   -3.8454   22.9831 H   0  0  0  0  0  0  0  0  0  0  0  0
    8.8401   -1.3856   22.3228 N   0  0  0  0  0  0  0  0  0  0  0  0
    9.7665   -1.4533   22.7037 H   0  0  0  0  0  0  0  0  0  0  0  0
    8.6505   -0.5082   21.3111 C   0  0  0  0  0  0  0  0  0  0  0  0
    9.8127    0.5378   20.7684 S   0  0  0  0  0  0  0  0  0  0  0  0
    5.4415    0.6478   20.1547 C   0  0  0  0  0  0  0  0  0  0  0  0
    5.0376    0.6332   21.1705 H   0  0  0  0  0  0  0  0  0  0  0  0
    4.8051    1.3120   19.1032 C   0  0  0  0  0  0  0  0  0  0  0  0
    3.8737    1.8462   19.2572 H   0  0  0  0  0  0  0  0  0  0  0  0
  1  2  1  0
  2  3  2  0
  3  4  1  0
  4  5  1  0
  4  6  2  0
  6  7  1  0
  7  8  1  0
  8  9  1  0
  8 10  2  0
 10 11  1  0
 11 12  2  0
 12 13  1  0
 12 14  1  0
 14 15  1  0
 14 16  2  0
 16 17  1  0
 16 18  1  0
 18 19  1  0
 19 20  2  0
 20 21  1  0
 20 22  1  0
 22 23  1  0
 22 24  2  0
 24 25  1  0
 24 26  1  0
 26 27  1  0
 26 28  2  0
 28 29  1  0
 18 30  2  0
 30 31  1  0
 10 32  1  0
 32 33  1  0
 32 34  1  0
 34 35  2  0
  6 36  1  0
 36 37  1  0
 36 38  2  0
 38 39  1  0
 38  2  1  0
 34  7  1  0
 30 11  1  0
 28 19  1  0
M  END
>  <cnnaffinity>  (1) 
-5.90257

>  <filename>  (1) 
S=c1[nH]c(-c2cccc(-c3ccccc3)c2)cn1-c1cccnc1

$$$$
