
     RDKit          3D

 31 34  0  0  0  0  0  0  0  0999 V2000
    4.9353    1.7931   16.9980 H   0  0  0  0  0  0  0  0  0  0  0  0
    5.4004    1.2879   17.8410 C   0  0  0  0  0  0  0  0  0  0  0  0
    6.5555    0.6586   17.5789 N   0  0  0  0  0  0  0  0  0  0  0  0
    7.1727    0.0396   18.5899 C   0  0  0  0  0  0  0  0  0  0  0  0
    8.1260   -0.4316   18.3601 H   0  0  0  0  0  0  0  0  0  0  0  0
    6.6517   -0.0062   19.8980 C   0  0  0  0  0  0  0  0  0  0  0  0
    7.3309   -0.6884   20.9519 N   0  0  0  0  0  0  0  0  0  0  0  0
    6.7354   -1.5995   21.8038 C   0  0  0  0  0  0  0  0  0  0  0  0
    5.6857   -1.8534   21.7406 H   0  0  0  0  0  0  0  0  0  0  0  0
    7.6775   -2.0574   22.6628 C   0  0  0  0  0  0  0  0  0  0  0  0
    7.4887   -3.0068   23.7499 C   0  0  0  0  0  0  0  0  0  0  0  0
    6.3494   -3.5584   24.0150 N   0  0  0  0  0  0  0  0  0  0  0  0
    6.4652   -4.4088   25.0965 C   0  0  0  0  0  0  0  0  0  0  0  0
    5.4041   -5.1556   25.6354 C   0  0  0  0  0  0  0  0  0  0  0  0
    4.4286   -5.0463   25.1710 H   0  0  0  0  0  0  0  0  0  0  0  0
    5.6477   -5.9861   26.7230 C   0  0  0  0  0  0  0  0  0  0  0  0
    4.8365   -6.5713   27.1489 H   0  0  0  0  0  0  0  0  0  0  0  0
    6.9432   -6.0747   27.2781 C   0  0  0  0  0  0  0  0  0  0  0  0
    7.1193   -6.7322   28.1233 H   0  0  0  0  0  0  0  0  0  0  0  0
    8.0075   -5.3387   26.7597 C   0  0  0  0  0  0  0  0  0  0  0  0
    9.0039   -5.4139   27.1910 H   0  0  0  0  0  0  0  0  0  0  0  0
    7.7595   -4.5014   25.6632 C   0  0  0  0  0  0  0  0  0  0  0  0
    8.8384   -3.4612   24.7810 S   0  0  0  0  0  0  0  0  0  0  0  0
    8.8546   -1.4016   22.3140 N   0  0  0  0  0  0  0  0  0  0  0  0
    9.7875   -1.4090   22.7030 H   0  0  0  0  0  0  0  0  0  0  0  0
    8.6560   -0.5204   21.3077 C   0  0  0  0  0  0  0  0  0  0  0  0
    9.8148    0.5270   20.7622 S   0  0  0  0  0  0  0  0  0  0  0  0
    5.4427    0.6417   20.1624 C   0  0  0  0  0  0  0  0  0  0  0  0
    5.0390    0.6315   21.1770 H   0  0  0  0  0  0  0  0  0  0  0  0
    4.8107    1.3074   19.1091 C   0  0  0  0  0  0  0  0  0  0  0  0
    3.8820    1.8404   19.2591 H   0  0  0  0  0  0  0  0  0  0  0  0
  1  2  1  0
  2  3  2  0
  3  4  1  0
  4  5  1  0
  4  6  2  0
  6  7  1  0
  7  8  1  0
  8  9  1  0
  8 10  2  0
 10 11  1  0
 11 12  2  0
 12 13  1  0
 13 14  2  0
 14 15  1  0
 14 16  1  0
 16 17  1  0
 16 18  2  0
 18 19  1  0
 18 20  1  0
 20 21  1  0
 20 22  2  0
 22 23  1  0
 10 24  1  0
 24 25  1  0
 24 26  1  0
 26 27  2  0
  6 28  1  0
 28 29  1  0
 28 30  2  0
 30 31  1  0
 30  2  1  0
 26  7  1  0
 23 11  1  0
 22 13  1  0
M  END
>  <cnnaffinity>  (1) 
-5.84551

>  <filename>  (1) 
S=c1[nH]c(-c2nc3ccccc3s2)cn1-c1cccnc1

$$$$
