
     RDKit          3D

 32 35  0  0  0  0  0  0  0  0999 V2000
    4.9367    1.7976   16.9950 H   0  0  0  0  0  0  0  0  0  0  0  0
    5.3988    1.2895   17.8358 C   0  0  0  0  0  0  0  0  0  0  0  0
    6.5524    0.6580   17.5708 N   0  0  0  0  0  0  0  0  0  0  0  0
    7.1722    0.0423   18.5829 C   0  0  0  0  0  0  0  0  0  0  0  0
    8.1250   -0.4304   18.3552 H   0  0  0  0  0  0  0  0  0  0  0  0
    6.6541    0.0006   19.8923 C   0  0  0  0  0  0  0  0  0  0  0  0
    7.3333   -0.6789   20.9451 N   0  0  0  0  0  0  0  0  0  0  0  0
    6.7392   -1.5978   21.7912 C   0  0  0  0  0  0  0  0  0  0  0  0
    5.6824   -1.8174   21.7017 H   0  0  0  0  0  0  0  0  0  0  0  0
    7.6781   -2.0567   22.6516 C   0  0  0  0  0  0  0  0  0  0  0  0
    7.5420   -2.9947   23.7456 C   0  0  0  0  0  0  0  0  0  0  0  0
    8.8671   -3.4650   24.7852 S   0  0  0  0  0  0  0  0  0  0  0  0
    7.8211   -4.5239   25.7060 C   0  0  0  0  0  0  0  0  0  0  0  0
    8.1621   -5.3338   26.8030 C   0  0  0  0  0  0  0  0  0  0  0  0
    9.1809   -5.3623   27.1855 H   0  0  0  0  0  0  0  0  0  0  0  0
    7.1611   -6.1056   27.3861 C   0  0  0  0  0  0  0  0  0  0  0  0
    7.4107   -6.7418   28.2290 H   0  0  0  0  0  0  0  0  0  0  0  0
    5.8356   -6.0844   26.8994 C   0  0  0  0  0  0  0  0  0  0  0  0
    5.0785   -6.7005   27.3778 H   0  0  0  0  0  0  0  0  0  0  0  0
    5.4989   -5.2851   25.8196 C   0  0  0  0  0  0  0  0  0  0  0  0
    4.4835   -5.2527   25.4323 H   0  0  0  0  0  0  0  0  0  0  0  0
    6.4961   -4.4935   25.2093 C   0  0  0  0  0  0  0  0  0  0  0  0
    6.3772   -3.6054   24.0947 C   0  0  0  0  0  0  0  0  0  0  0  0
    5.4476   -3.4206   23.5742 H   0  0  0  0  0  0  0  0  0  0  0  0
    8.8495   -1.3998   22.3095 N   0  0  0  0  0  0  0  0  0  0  0  0
    9.7647   -1.4273   22.7229 H   0  0  0  0  0  0  0  0  0  0  0  0
    8.6573   -0.5116   21.3095 C   0  0  0  0  0  0  0  0  0  0  0  0
    9.8162    0.5417   20.7771 S   0  0  0  0  0  0  0  0  0  0  0  0
    5.4424    0.6456   20.1581 C   0  0  0  0  0  0  0  0  0  0  0  0
    5.0393    0.6322   21.1738 H   0  0  0  0  0  0  0  0  0  0  0  0
    4.8088    1.3097   19.1048 C   0  0  0  0  0  0  0  0  0  0  0  0
    3.8786    1.8428   19.2563 H   0  0  0  0  0  0  0  0  0  0  0  0
  1  2  1  0
  2  3  2  0
  3  4  1  0
  4  5  1  0
  4  6  2  0
  6  7  1  0
  7  8  1  0
  8  9  1  0
  8 10  2  0
 10 11  1  0
 11 12  1  0
 12 13  1  0
 13 14  2  0
 14 15  1  0
 14 16  1  0
 16 17  1  0
 16 18  2  0
 18 19  1  0
 18 20  1  0
 20 21  1  0
 20 22  2  0
 22 23  1  0
 23 24  1  0
 10 25  1  0
 25 26  1  0
 25 27  1  0
 27 28  2  0
  6 29  1  0
 29 30  1  0
 29 31  2  0
 31 32  1  0
 31  2  1  0
 27  7  1  0
 23 11  2  0
 22 13  1  0
M  END
>  <cnnaffinity>  (1) 
-5.84551

>  <filename>  (1) 
S=c1[nH]c(-c2cc3ccccc3s2)cn1-c1cccnc1

$$$$
