
     RDKit          3D

 32 35  0  0  0  0  0  0  0  0999 V2000
    4.9299    1.7933   16.9952 H   0  0  0  0  0  0  0  0  0  0  0  0
    5.3970    1.2907   17.8372 C   0  0  0  0  0  0  0  0  0  0  0  0
    6.5526    0.6628   17.5737 N   0  0  0  0  0  0  0  0  0  0  0  0
    7.1719    0.0449   18.5840 C   0  0  0  0  0  0  0  0  0  0  0  0
    8.1247   -0.4303   18.3598 H   0  0  0  0  0  0  0  0  0  0  0  0
    6.6525    0.0012   19.8927 C   0  0  0  0  0  0  0  0  0  0  0  0
    7.3329   -0.6820   20.9395 N   0  0  0  0  0  0  0  0  0  0  0  0
    6.7338   -1.5975   21.7936 C   0  0  0  0  0  0  0  0  0  0  0  0
    5.6890   -1.8404   21.7005 H   0  0  0  0  0  0  0  0  0  0  0  0
    7.6718   -2.0561   22.6556 C   0  0  0  0  0  0  0  0  0  0  0  0
    7.5582   -3.0014   23.7678 C   0  0  0  0  0  0  0  0  0  0  0  0
    6.2510   -3.2736   24.2870 C   0  0  0  0  0  0  0  0  0  0  0  0
    5.4127   -2.7376   23.8521 H   0  0  0  0  0  0  0  0  0  0  0  0
    6.0288   -4.1731   25.3125 C   0  0  0  0  0  0  0  0  0  0  0  0
    5.0271   -4.3683   25.6863 H   0  0  0  0  0  0  0  0  0  0  0  0
    7.1754   -4.8210   25.8423 C   0  0  0  0  0  0  0  0  0  0  0  0
    8.4817   -4.5668   25.3554 C   0  0  0  0  0  0  0  0  0  0  0  0
    9.3230   -5.4078   26.1552 C   0  0  0  0  0  0  0  0  0  0  0  0
   10.4008   -5.5260   26.1159 H   0  0  0  0  0  0  0  0  0  0  0  0
    8.6143   -6.0949   27.0263 N   0  0  0  0  0  0  0  0  0  0  0  0
    7.3252   -5.7379   26.8318 N   0  0  0  0  0  0  0  0  0  0  0  0
    6.6023   -6.1551   27.3965 H   0  0  0  0  0  0  0  0  0  0  0  0
    8.6702   -3.6469   24.3044 C   0  0  0  0  0  0  0  0  0  0  0  0
    9.6627   -3.4570   23.9038 H   0  0  0  0  0  0  0  0  0  0  0  0
    8.8466   -1.4111   22.2978 N   0  0  0  0  0  0  0  0  0  0  0  0
    9.7478   -1.4116   22.7444 H   0  0  0  0  0  0  0  0  0  0  0  0
    8.6545   -0.5209   21.2958 C   0  0  0  0  0  0  0  0  0  0  0  0
    9.8150    0.5264   20.7571 S   0  0  0  0  0  0  0  0  0  0  0  0
    5.4414    0.6460   20.1585 C   0  0  0  0  0  0  0  0  0  0  0  0
    5.0352    0.6307   21.1722 H   0  0  0  0  0  0  0  0  0  0  0  0
    4.8087    1.3105   19.1061 C   0  0  0  0  0  0  0  0  0  0  0  0
    3.8795    1.8418   19.2578 H   0  0  0  0  0  0  0  0  0  0  0  0
  1  2  1  0
  2  3  2  0
  3  4  1  0
  4  5  1  0
  4  6  2  0
  6  7  1  0
  7  8  1  0
  8  9  1  0
  8 10  2  0
 10 11  1  0
 11 12  2  0
 12 13  1  0
 12 14  1  0
 14 15  1  0
 14 16  2  0
 16 17  1  0
 17 18  1  0
 18 19  1  0
 18 20  2  0
 20 21  1  0
 21 22  1  0
 17 23  2  0
 23 24  1  0
 10 25  1  0
 25 26  1  0
 25 27  1  0
 27 28  2  0
  6 29  1  0
 29 30  1  0
 29 31  2  0
 31 32  1  0
 31  2  1  0
 27  7  1  0
 23 11  1  0
 21 16  1  0
M  END
>  <cnnaffinity>  (1) 
-5.8489

>  <filename>  (1) 
S=c1[nH]c(-c2ccc3[nH]ncc3c2)cn1-c1cccnc1

$$$$
