
     RDKit          3D

 28 30  0  0  0  0  0  0  0  0999 V2000
    5.3982   -4.5252   25.3486 H   0  0  0  0  0  0  0  0  0  0  0  0
    6.3002   -3.9198   25.3191 C   0  0  0  0  0  0  0  0  0  0  0  0
    6.5184   -3.2696   24.1686 N   0  0  0  0  0  0  0  0  0  0  0  0
    7.6154   -2.5207   24.0885 C   0  0  0  0  0  0  0  0  0  0  0  0
    7.7987   -1.8566   22.8482 N   0  0  0  0  0  0  0  0  0  0  0  0
    6.7914   -1.2520   22.1051 C   0  0  0  0  0  0  0  0  0  0  0  0
    5.7632   -1.3349   22.3797 H   0  0  0  0  0  0  0  0  0  0  0  0
    7.3281   -0.7020   21.0012 C   0  0  0  0  0  0  0  0  0  0  0  0
    6.6707    0.0213   19.9055 C   0  0  0  0  0  0  0  0  0  0  0  0
    7.1744    0.0700   18.5908 C   0  0  0  0  0  0  0  0  0  0  0  0
    8.1092   -0.4228   18.3289 H   0  0  0  0  0  0  0  0  0  0  0  0
    6.5609    0.6825   17.5695 N   0  0  0  0  0  0  0  0  0  0  0  0
    5.3957    1.3025   17.8184 C   0  0  0  0  0  0  0  0  0  0  0  0
    4.9217    1.8005   16.9706 H   0  0  0  0  0  0  0  0  0  0  0  0
    4.8004    1.3213   19.0837 C   0  0  0  0  0  0  0  0  0  0  0  0
    3.8647    1.8506   19.2297 H   0  0  0  0  0  0  0  0  0  0  0  0
    5.4432    0.6687   20.1353 C   0  0  0  0  0  0  0  0  0  0  0  0
    5.0104    0.6663   21.1345 H   0  0  0  0  0  0  0  0  0  0  0  0
    8.6758   -1.0134   21.0667 N   0  0  0  0  0  0  0  0  0  0  0  0
    9.4218   -0.7538   20.4471 H   0  0  0  0  0  0  0  0  0  0  0  0
    8.9956   -1.7122   22.1861 C   0  0  0  0  0  0  0  0  0  0  0  0
   10.5212   -2.2406   22.5381 S   0  0  0  0  0  0  0  0  0  0  0  0
    8.5176   -2.3402   25.1442 C   0  0  0  0  0  0  0  0  0  0  0  0
    9.3698   -1.6939   24.9853 H   0  0  0  0  0  0  0  0  0  0  0  0
    8.2788   -3.0182   26.3383 C   0  0  0  0  0  0  0  0  0  0  0  0
    8.9667   -2.9209   27.1768 H   0  0  0  0  0  0  0  0  0  0  0  0
    7.1429   -3.8325   26.4250 C   0  0  0  0  0  0  0  0  0  0  0  0
    6.9014   -4.3893   27.3209 H   0  0  0  0  0  0  0  0  0  0  0  0
  1  2  1  0
  2  3  2  0
  3  4  1  0
  4  5  1  0
  5  6  1  0
  6  7  1  0
  6  8  2  0
  8  9  1  0
  9 10  2  0
 10 11  1  0
 10 12  1  0
 12 13  2  0
 13 14  1  0
 13 15  1  0
 15 16  1  0
 15 17  2  0
 17 18  1  0
  8 19  1  0
 19 20  1  0
 19 21  1  0
 21 22  2  0
  4 23  2  0
 23 24  1  0
 23 25  1  0
 25 26  1  0
 25 27  2  0
 27 28  1  0
 27  2  1  0
 21  5  1  0
 17  9  1  0
M  END
>  <cnnaffinity>  (1) 
-5.38696

>  <filename>  (1) 
S=c1[nH]c(-c2cccnc2)cn1-c1ccccn1

$$$$
