
     RDKit          3D

 28 30  0  0  0  0  0  0  0  0999 V2000
    4.9704    1.8494   17.0023 H   0  0  0  0  0  0  0  0  0  0  0  0
    5.4304    1.2947   17.8200 C   0  0  0  0  0  0  0  0  0  0  0  0
    6.5763    0.6517   17.5419 N   0  0  0  0  0  0  0  0  0  0  0  0
    7.1817   -0.0110   18.5370 C   0  0  0  0  0  0  0  0  0  0  0  0
    8.0986   -0.5381   18.2809 H   0  0  0  0  0  0  0  0  0  0  0  0
    6.6791   -0.0613   19.8545 C   0  0  0  0  0  0  0  0  0  0  0  0
    7.3317   -0.7981   20.9173 N   0  0  0  0  0  0  0  0  0  0  0  0
    8.2832   -0.3903   21.8624 C   0  0  0  0  0  0  0  0  0  0  0  0
    8.8031    0.9847   22.1147 C   0  0  0  0  0  0  0  0  0  0  0  0
    8.2332    2.1431   21.5505 C   0  0  0  0  0  0  0  0  0  0  0  0
    7.4417    2.0702   20.8135 H   0  0  0  0  0  0  0  0  0  0  0  0
    8.6863    3.4107   21.9247 C   0  0  0  0  0  0  0  0  0  0  0  0
    8.1987    4.2925   21.5191 H   0  0  0  0  0  0  0  0  0  0  0  0
    9.7646    3.5603   22.8025 C   0  0  0  0  0  0  0  0  0  0  0  0
   10.1441    4.5461   23.0519 H   0  0  0  0  0  0  0  0  0  0  0  0
   10.3746    2.4138   23.3160 C   0  0  0  0  0  0  0  0  0  0  0  0
   11.8078    2.5738   24.2967 Cl  0  0  0  0  0  0  0  0  0  0  0  0
    9.8893    1.1424   23.0097 C   0  0  0  0  0  0  0  0  0  0  0  0
   10.3510    0.2899   23.5015 H   0  0  0  0  0  0  0  0  0  0  0  0
    8.6506   -1.4021   22.6004 N   0  0  0  0  0  0  0  0  0  0  0  0
    7.9044   -2.4440   22.1592 N   0  0  0  0  0  0  0  0  0  0  0  0
    7.8650   -3.3384   22.6231 H   0  0  0  0  0  0  0  0  0  0  0  0
    7.0303   -2.1314   21.1864 C   0  0  0  0  0  0  0  0  0  0  0  0
    5.8858   -3.1465   20.5461 S   0  0  0  0  0  0  0  0  0  0  0  0
    5.4614    0.5633   20.1178 C   0  0  0  0  0  0  0  0  0  0  0  0
    5.0456    0.5136   21.1256 H   0  0  0  0  0  0  0  0  0  0  0  0
    4.8336    1.2680   19.0832 C   0  0  0  0  0  0  0  0  0  0  0  0
    3.9128    1.8091   19.2567 H   0  0  0  0  0  0  0  0  0  0  0  0
  1  2  1  0
  2  3  2  0
  3  4  1  0
  4  5  1  0
  4  6  2  0
  6  7  1  0
  7  8  1  0
  8  9  1  0
  9 10  2  0
 10 11  1  0
 10 12  1  0
 12 13  1  0
 12 14  2  0
 14 15  1  0
 14 16  1  0
 16 17  1  0
 16 18  2  0
 18 19  1  0
  8 20  2  0
 20 21  1  0
 21 22  1  0
 21 23  1  0
 23 24  2  0
  6 25  1  0
 25 26  1  0
 25 27  2  0
 27 28  1  0
 27  2  1  0
 23  7  1  0
 18  9  1  0
M  END
>  <cnnaffinity>  (1) 
-5.07946

>  <filename>  (1) 
S=c1[nH]nc(-c2cccc(Cl)c2)n1-c1cccnc1

$$$$
