
     RDKit          3D

 29 31  0  0  0  0  0  0  0  0999 V2000
    4.9325    1.7981   16.9960 H   0  0  0  0  0  0  0  0  0  0  0  0
    5.3976    1.2898   17.8349 C   0  0  0  0  0  0  0  0  0  0  0  0
    6.5530    0.6595   17.5685 N   0  0  0  0  0  0  0  0  0  0  0  0
    7.1710    0.0428   18.5830 C   0  0  0  0  0  0  0  0  0  0  0  0
    8.1254   -0.4343   18.3641 H   0  0  0  0  0  0  0  0  0  0  0  0
    6.6514   -0.0012   19.8931 C   0  0  0  0  0  0  0  0  0  0  0  0
    7.3332   -0.6840   20.9486 N   0  0  0  0  0  0  0  0  0  0  0  0
    6.7373   -1.6114   21.7923 C   0  0  0  0  0  0  0  0  0  0  0  0
    5.6793   -1.8108   21.7164 H   0  0  0  0  0  0  0  0  0  0  0  0
    7.6753   -2.0654   22.6613 C   0  0  0  0  0  0  0  0  0  0  0  0
    7.5668   -3.0183   23.7726 C   0  0  0  0  0  0  0  0  0  0  0  0
    8.4913   -3.0814   24.8330 C   0  0  0  0  0  0  0  0  0  0  0  0
    9.3395   -2.4016   24.8583 H   0  0  0  0  0  0  0  0  0  0  0  0
    8.3236   -3.9966   25.8761 C   0  0  0  0  0  0  0  0  0  0  0  0
    9.0350   -4.0573   26.6952 H   0  0  0  0  0  0  0  0  0  0  0  0
    7.2175   -4.8542   25.8647 C   0  0  0  0  0  0  0  0  0  0  0  0
    7.0004   -5.9989   27.1586 Cl  0  0  0  0  0  0  0  0  0  0  0  0
    6.2809   -4.8060   24.8292 C   0  0  0  0  0  0  0  0  0  0  0  0
    5.4251   -5.4731   24.8463 H   0  0  0  0  0  0  0  0  0  0  0  0
    6.4642   -3.8898   23.7936 C   0  0  0  0  0  0  0  0  0  0  0  0
    5.7458   -3.8399   22.9815 H   0  0  0  0  0  0  0  0  0  0  0  0
    8.8382   -1.3870   22.3257 N   0  0  0  0  0  0  0  0  0  0  0  0
    9.7657   -1.4519   22.7059 H   0  0  0  0  0  0  0  0  0  0  0  0
    8.6499   -0.5072   21.3147 C   0  0  0  0  0  0  0  0  0  0  0  0
    9.8127    0.5397   20.7728 S   0  0  0  0  0  0  0  0  0  0  0  0
    5.4407    0.6458   20.1554 C   0  0  0  0  0  0  0  0  0  0  0  0
    5.0317    0.6343   21.1677 H   0  0  0  0  0  0  0  0  0  0  0  0
    4.8061    1.3102   19.1034 C   0  0  0  0  0  0  0  0  0  0  0  0
    3.8750    1.8434   19.2604 H   0  0  0  0  0  0  0  0  0  0  0  0
  1  2  1  0
  2  3  2  0
  3  4  1  0
  4  5  1  0
  4  6  2  0
  6  7  1  0
  7  8  1  0
  8  9  1  0
  8 10  2  0
 10 11  1  0
 11 12  2  0
 12 13  1  0
 12 14  1  0
 14 15  1  0
 14 16  2  0
 16 17  1  0
 16 18  1  0
 18 19  1  0
 18 20  2  0
 20 21  1  0
 10 22  1  0
 22 23  1  0
 22 24  1  0
 24 25  2  0
  6 26  1  0
 26 27  1  0
 26 28  2  0
 28 29  1  0
 28  2  1  0
 24  7  1  0
 20 11  1  0
M  END
>  <cnnaffinity>  (1) 
-5.46701

>  <filename>  (1) 
S=c1[nH]c(-c2ccc(Cl)cc2)cn1-c1cccnc1

$$$$
