
     RDKit          3D

 21 22  0  0  0  0  0  0  0  0999 V2000
    6.7127   -1.4676   21.5210 H   0  0  0  0  0  0  0  0  0  0  0  0
    7.3038   -0.7373   20.9784 C   0  0  0  0  0  0  0  0  0  0  0  0
    8.6035   -0.5457   21.3899 C   0  0  0  0  0  0  0  0  0  0  0  0
    9.6342    0.8671   20.6417 Br  0  0  0  0  0  0  0  0  0  0  0  0
    9.1451   -1.3269   22.4099 N   0  0  0  0  0  0  0  0  0  0  0  0
    8.5027   -2.3454   23.0375 N   0  0  0  0  0  0  0  0  0  0  0  0
    9.3876   -2.7598   23.9056 C   0  0  0  0  0  0  0  0  0  0  0  0
    9.2053   -3.5816   24.5904 H   0  0  0  0  0  0  0  0  0  0  0  0
   10.5827   -2.0620   23.8777 N   0  0  0  0  0  0  0  0  0  0  0  0
   10.4160   -1.1786   22.9378 C   0  0  0  0  0  0  0  0  0  0  0  0
   11.1584   -0.4452   22.6267 H   0  0  0  0  0  0  0  0  0  0  0  0
    6.6538    0.0138   19.9002 C   0  0  0  0  0  0  0  0  0  0  0  0
    7.1926    0.0726   18.5986 C   0  0  0  0  0  0  0  0  0  0  0  0
    8.1325   -0.4363   18.4018 H   0  0  0  0  0  0  0  0  0  0  0  0
    6.5753    0.6878   17.5732 N   0  0  0  0  0  0  0  0  0  0  0  0
    5.4037    1.2975   17.8250 C   0  0  0  0  0  0  0  0  0  0  0  0
    4.8880    1.7994   17.0117 H   0  0  0  0  0  0  0  0  0  0  0  0
    4.8177    1.3048   19.0981 C   0  0  0  0  0  0  0  0  0  0  0  0
    3.8833    1.8323   19.2564 H   0  0  0  0  0  0  0  0  0  0  0  0
    5.4376    0.6422   20.1556 C   0  0  0  0  0  0  0  0  0  0  0  0
    5.0026    0.6270   21.1556 H   0  0  0  0  0  0  0  0  0  0  0  0
  1  2  1  0
  2  3  2  3
  3  4  1  0
  3  5  1  0
  5  6  1  0
  6  7  2  0
  7  8  1  0
  7  9  1  0
  9 10  2  0
 10 11  1  0
  2 12  1  0
 12 13  2  0
 13 14  1  0
 13 15  1  0
 15 16  2  0
 16 17  1  0
 16 18  1  0
 18 19  1  0
 18 20  2  0
 20 21  1  0
 10  5  1  0
 20 12  1  0
M  END
>  <cnnaffinity>  (1) 
-4.29695

>  <filename>  (1) 
BrC(=Cc1cccnc1)n1cncn1

$$$$
