
     RDKit          3D

 27 29  0  0  0  0  0  0  0  0999 V2000
    7.6420   -1.7803   20.6870 H   0  0  0  0  0  0  0  0  0  0  0  0
    7.3681   -0.7554   20.9299 C   0  0  0  0  0  0  0  0  0  0  0  0
    7.6860   -0.2840   22.1833 C   0  0  0  0  0  0  0  0  0  0  0  0
    8.4797   -1.5076   23.4222 Br  0  0  0  0  0  0  0  0  0  0  0  0
    7.4916    1.1131   22.5685 C   0  0  0  0  0  0  0  0  0  0  0  0
    7.5276    1.4993   23.8260 N   0  0  0  0  0  0  0  0  0  0  0  0
    7.3726    2.8650   23.7466 C   0  0  0  0  0  0  0  0  0  0  0  0
    7.3042    3.8278   24.7599 C   0  0  0  0  0  0  0  0  0  0  0  0
    7.3791    3.5141   25.7963 H   0  0  0  0  0  0  0  0  0  0  0  0
    7.1381    5.1818   24.4162 C   0  0  0  0  0  0  0  0  0  0  0  0
    7.0807    5.9438   25.1894 H   0  0  0  0  0  0  0  0  0  0  0  0
    7.0428    5.5565   23.0658 C   0  0  0  0  0  0  0  0  0  0  0  0
    6.9112    6.5960   22.7787 H   0  0  0  0  0  0  0  0  0  0  0  0
    7.1084    4.5770   22.0671 C   0  0  0  0  0  0  0  0  0  0  0  0
    7.0158    4.8562   21.0268 H   0  0  0  0  0  0  0  0  0  0  0  0
    7.2732    3.2390   22.4193 C   0  0  0  0  0  0  0  0  0  0  0  0
    7.3458    2.1248   21.6498 O   0  0  0  0  0  0  0  0  0  0  0  0
    6.6724    0.0223   19.8983 C   0  0  0  0  0  0  0  0  0  0  0  0
    7.1797    0.0588   18.5856 C   0  0  0  0  0  0  0  0  0  0  0  0
    8.1218   -0.4433   18.3947 H   0  0  0  0  0  0  0  0  0  0  0  0
    6.5670    0.6776   17.5587 N   0  0  0  0  0  0  0  0  0  0  0  0
    5.4037    1.2997   17.8253 C   0  0  0  0  0  0  0  0  0  0  0  0
    4.8846    1.7996   17.0134 H   0  0  0  0  0  0  0  0  0  0  0  0
    4.8263    1.3141   19.1063 C   0  0  0  0  0  0  0  0  0  0  0  0
    3.8839    1.8304   19.2601 H   0  0  0  0  0  0  0  0  0  0  0  0
    5.4620    0.6664   20.1701 C   0  0  0  0  0  0  0  0  0  0  0  0
    5.0131    0.6377   21.1679 H   0  0  0  0  0  0  0  0  0  0  0  0
  1  2  1  0
  2  3  2  3
  3  4  1  0
  3  5  1  0
  5  6  2  0
  6  7  1  0
  7  8  2  0
  8  9  1  0
  8 10  1  0
 10 11  1  0
 10 12  2  0
 12 13  1  0
 12 14  1  0
 14 15  1  0
 14 16  2  0
 16 17  1  0
  2 18  1  0
 18 19  2  0
 19 20  1  0
 19 21  1  0
 21 22  2  0
 22 23  1  0
 22 24  1  0
 24 25  1  0
 24 26  2  0
 26 27  1  0
 17  5  1  0
 26 18  1  0
 16  7  1  0
M  END
>  <cnnaffinity>  (1) 
-4.75213

>  <filename>  (1) 
BrC(=Cc1cccnc1)c1nc2ccccc2o1

$$$$
