
     RDKit          3D

 39 42  0  0  0  0  0  0  0  0999 V2000
    5.7145   -4.3512   19.1200 Br  0  0  0  0  0  0  0  0  0  0  0  0
    5.7060   -4.8578   20.9364 C   0  0  0  0  0  0  0  0  0  0  0  0
    5.6114   -6.1537   21.2604 N   0  0  0  0  0  0  0  0  0  0  0  0
    5.4588   -6.4632   22.5542 C   0  0  0  0  0  0  0  0  0  0  0  0
    5.3997   -5.4816   23.5536 C   0  0  0  0  0  0  0  0  0  0  0  0
    5.5300   -4.1290   23.2191 C   0  0  0  0  0  0  0  0  0  0  0  0
    5.6844   -3.8141   21.8674 C   0  0  0  0  0  0  0  0  0  0  0  0
    5.7838   -2.3826   21.3647 C   0  0  0  0  0  0  0  0  0  0  0  0
    7.0429   -1.6428   21.7222 C   0  0  0  0  0  0  0  0  0  0  0  0
    7.9716   -2.0099   22.5576 N   0  0  0  0  0  0  0  0  0  0  0  0
    8.9888   -1.1046   22.2830 C   0  0  0  0  0  0  0  0  0  0  0  0
   10.3345   -1.2211   22.9296 C   0  0  0  0  0  0  0  0  0  0  0  0
   10.4957   -0.2005   24.0546 C   0  0  0  0  0  0  0  0  0  0  0  0
   11.8785    0.3361   24.3969 C   0  0  0  0  0  0  0  0  0  0  0  0
   10.8759    1.2117   23.6427 C   0  0  0  0  0  0  0  0  0  0  0  0
   11.0577    1.3864   22.5762 H   0  0  0  0  0  0  0  0  0  0  0  0
   10.3903    2.0374   24.1739 H   0  0  0  0  0  0  0  0  0  0  0  0
   12.0831    0.5716   25.4466 H   0  0  0  0  0  0  0  0  0  0  0  0
   12.7354   -0.0498   23.8349 H   0  0  0  0  0  0  0  0  0  0  0  0
    9.7926   -0.3116   24.8880 H   0  0  0  0  0  0  0  0  0  0  0  0
   10.4478   -2.2324   23.3262 H   0  0  0  0  0  0  0  0  0  0  0  0
   11.1085   -1.0537   22.1746 H   0  0  0  0  0  0  0  0  0  0  0  0
    8.7268   -0.2162   21.3551 N   0  0  0  0  0  0  0  0  0  0  0  0
    7.4563   -0.5205   21.0263 N   0  0  0  0  0  0  0  0  0  0  0  0
    6.7546    0.0869   19.9848 C   0  0  0  0  0  0  0  0  0  0  0  0
    5.4877    0.6337   20.2031 C   0  0  0  0  0  0  0  0  0  0  0  0
    4.8496    1.2298   19.1137 C   0  0  0  0  0  0  0  0  0  0  0  0
    5.4714    1.2424   17.8585 C   0  0  0  0  0  0  0  0  0  0  0  0
    6.6842    0.6960   17.6431 N   0  0  0  0  0  0  0  0  0  0  0  0
    7.3121    0.1410   18.6987 C   0  0  0  0  0  0  0  0  0  0  0  0
    8.2798   -0.3248   18.5396 H   0  0  0  0  0  0  0  0  0  0  0  0
    4.9519    1.7094   17.0283 H   0  0  0  0  0  0  0  0  0  0  0  0
    3.8794    1.7025   19.2300 H   0  0  0  0  0  0  0  0  0  0  0  0
    5.0293    0.6226   21.1915 H   0  0  0  0  0  0  0  0  0  0  0  0
    4.9301   -1.8185   21.6683 H   0  0  0  0  0  0  0  0  0  0  0  0
    5.7065   -2.3569   20.2769 H   0  0  0  0  0  0  0  0  0  0  0  0
    5.5003   -3.3446   23.9785 H   0  0  0  0  0  0  0  0  0  0  0  0
    5.2501   -5.7865   24.5813 H   0  0  0  0  0  0  0  0  0  0  0  0
    5.3508   -7.5119   22.8170 H   0  0  0  0  0  0  0  0  0  0  0  0
  1  2  1  0
  2  3  2  0
  3  4  1  0
  4  5  2  0
  5  6  1  0
  6  7  2  0
  7  8  1  0
  8  9  1  0
  9 10  2  0
 10 11  1  0
 11 12  1  0
 12 13  1  0
 13 14  1  0
 14 15  1  0
 15 16  1  0
 15 17  1  0
 14 18  1  0
 14 19  1  0
 13 20  1  0
 12 21  1  0
 12 22  1  0
 11 23  2  0
 23 24  1  0
 24 25  1  0
 25 26  2  0
 26 27  1  0
 27 28  2  0
 28 29  1  0
 29 30  2  0
 30 31  1  0
 28 32  1  0
 27 33  1  0
 26 34  1  0
  8 35  1  0
  8 36  1  0
  6 37  1  0
  5 38  1  0
  4 39  1  0
  7  2  1  0
 24  9  1  0
 30 25  1  0
 15 13  1  0
M  END
>  <cnnaffinity>  (1) 
-5.85776

>  <filename>  (1) 
Brc1ncccc1Cc1nc(CC2CC2)nn1-c1cccnc1

$$$$
