
     RDKit          3D

 42 45  0  0  0  0  0  0  0  0999 V2000
    5.7370    4.4121   21.5609 Br  0  0  0  0  0  0  0  0  0  0  0  0
    7.3123    3.5591   22.2061 C   0  0  0  0  0  0  0  0  0  0  0  0
    7.8848    2.5283   21.4618 C   0  0  0  0  0  0  0  0  0  0  0  0
    8.9945    1.8524   21.9441 C   0  0  0  0  0  0  0  0  0  0  0  0
    9.5127    0.6675   21.1946 C   0  0  0  0  0  0  0  0  0  0  0  0
    8.5745   -0.4452   21.5152 C   0  0  0  0  0  0  0  0  0  0  0  0
    8.8196   -1.2682   22.4868 N   0  0  0  0  0  0  0  0  0  0  0  0
    7.6699   -2.0264   22.5315 C   0  0  0  0  0  0  0  0  0  0  0  0
    7.5492   -3.0946   23.5625 C   0  0  0  0  0  0  0  0  0  0  0  0
    8.1990   -4.3858   23.0627 C   0  0  0  0  0  0  0  0  0  0  0  0
    7.9796   -5.6040   23.9508 C   0  0  0  0  0  0  0  0  0  0  0  0
    7.2176   -6.2876   22.8218 C   0  0  0  0  0  0  0  0  0  0  0  0
    7.4480   -5.0763   21.9275 C   0  0  0  0  0  0  0  0  0  0  0  0
    8.0615   -5.2770   21.0440 H   0  0  0  0  0  0  0  0  0  0  0  0
    6.5273   -4.5670   21.6222 H   0  0  0  0  0  0  0  0  0  0  0  0
    6.1639   -6.4751   23.0515 H   0  0  0  0  0  0  0  0  0  0  0  0
    7.6848   -7.2078   22.4594 H   0  0  0  0  0  0  0  0  0  0  0  0
    7.3788   -5.4095   24.8456 H   0  0  0  0  0  0  0  0  0  0  0  0
    8.9055   -6.1110   24.2405 H   0  0  0  0  0  0  0  0  0  0  0  0
    9.2608   -4.2288   22.8372 H   0  0  0  0  0  0  0  0  0  0  0  0
    8.0561   -2.7590   24.4711 H   0  0  0  0  0  0  0  0  0  0  0  0
    6.4933   -3.2608   23.7886 H   0  0  0  0  0  0  0  0  0  0  0  0
    6.7528   -1.7291   21.6426 N   0  0  0  0  0  0  0  0  0  0  0  0
    7.3257   -0.7129   20.9593 N   0  0  0  0  0  0  0  0  0  0  0  0
    6.6796   -0.0101   19.9329 C   0  0  0  0  0  0  0  0  0  0  0  0
    5.4501    0.6188   20.1575 C   0  0  0  0  0  0  0  0  0  0  0  0
    4.8461    1.2886   19.0901 C   0  0  0  0  0  0  0  0  0  0  0  0
    5.4660    1.3024   17.8341 C   0  0  0  0  0  0  0  0  0  0  0  0
    6.6426    0.6855   17.6104 N   0  0  0  0  0  0  0  0  0  0  0  0
    7.2296    0.0503   18.6423 C   0  0  0  0  0  0  0  0  0  0  0  0
    8.1727   -0.4544   18.4605 H   0  0  0  0  0  0  0  0  0  0  0  0
    4.9826    1.8278   17.0154 H   0  0  0  0  0  0  0  0  0  0  0  0
    3.9024    1.8096   19.2216 H   0  0  0  0  0  0  0  0  0  0  0  0
    4.9857    0.5965   21.1439 H   0  0  0  0  0  0  0  0  0  0  0  0
   10.5243    0.4169   21.5242 H   0  0  0  0  0  0  0  0  0  0  0  0
    9.5178    0.8544   20.1199 H   0  0  0  0  0  0  0  0  0  0  0  0
    9.5097    2.2492   23.1773 C   0  0  0  0  0  0  0  0  0  0  0  0
    8.9272    3.3339   23.8363 C   0  0  0  0  0  0  0  0  0  0  0  0
    7.8359    3.9601   23.3765 N   0  0  0  0  0  0  0  0  0  0  0  0
    9.4226    3.7220   24.7228 H   0  0  0  0  0  0  0  0  0  0  0  0
   10.3614    1.7470   23.6242 H   0  0  0  0  0  0  0  0  0  0  0  0
    7.4488    2.2692   20.5060 H   0  0  0  0  0  0  0  0  0  0  0  0
  1  2  1  0
  2  3  2  0
  3  4  1  0
  4  5  1  0
  5  6  1  0
  6  7  2  0
  7  8  1  0
  8  9  1  0
  9 10  1  0
 10 11  1  0
 11 12  1  0
 12 13  1  0
 13 14  1  0
 13 15  1  0
 12 16  1  0
 12 17  1  0
 11 18  1  0
 11 19  1  0
 10 20  1  0
  9 21  1  0
  9 22  1  0
  8 23  2  0
 23 24  1  0
 24 25  1  0
 25 26  2  0
 26 27  1  0
 27 28  2  0
 28 29  1  0
 29 30  2  0
 30 31  1  0
 28 32  1  0
 27 33  1  0
 26 34  1  0
  5 35  1  0
  5 36  1  0
  4 37  2  0
 37 38  1  0
 38 39  2  0
 38 40  1  0
 37 41  1  0
  3 42  1  0
 39  2  1  0
 24  6  1  0
 30 25  1  0
 13 10  1  0
M  END
>  <cnnaffinity>  (1) 
-6.07191

>  <filename>  (1) 
Brc1cc(Cc2nc(CC3CCC3)nn2-c2cccnc2)ccn1

$$$$
