
     RDKit          3D

 41 44  0  0  0  0  0  0  0  0999 V2000
   10.4061   -0.1186   26.4815 Br  0  0  0  0  0  0  0  0  0  0  0  0
    9.5172    0.9188   25.1416 C   0  0  0  0  0  0  0  0  0  0  0  0
    8.2004    0.8039   24.7951 C   0  0  0  0  0  0  0  0  0  0  0  0
    8.0090    1.6310   23.7014 N   0  0  0  0  0  0  0  0  0  0  0  0
    6.9413    1.3706   22.7108 C   0  0  0  0  0  0  0  0  0  0  0  0
    7.1634   -0.0260   22.1913 C   0  0  0  0  0  0  0  0  0  0  0  0
    7.6326   -0.9734   22.9500 N   0  0  0  0  0  0  0  0  0  0  0  0
    7.9883   -1.9674   22.0658 C   0  0  0  0  0  0  0  0  0  0  0  0
    8.7136   -3.1953   22.5740 C   0  0  0  0  0  0  0  0  0  0  0  0
    7.8531   -3.8867   23.6439 C   0  0  0  0  0  0  0  0  0  0  0  0
    8.5824   -5.0643   24.2175 C   0  0  0  0  0  0  0  0  0  0  0  0
    9.9207   -4.9822   24.4991 C   0  0  0  0  0  0  0  0  0  0  0  0
   10.6751   -3.7059   24.2585 C   0  0  0  0  0  0  0  0  0  0  0  0
   10.1434   -2.8433   23.0917 C   0  0  0  0  0  0  0  0  0  0  0  0
   10.8360   -2.9236   22.2492 H   0  0  0  0  0  0  0  0  0  0  0  0
   10.1858   -1.7999   23.4224 H   0  0  0  0  0  0  0  0  0  0  0  0
   10.6023   -3.1281   25.1779 H   0  0  0  0  0  0  0  0  0  0  0  0
   11.7329   -3.9319   24.0939 H   0  0  0  0  0  0  0  0  0  0  0  0
   10.4372   -5.8236   24.9510 H   0  0  0  0  0  0  0  0  0  0  0  0
    8.0425   -5.9805   24.4382 H   0  0  0  0  0  0  0  0  0  0  0  0
    7.6012   -3.1867   24.4493 H   0  0  0  0  0  0  0  0  0  0  0  0
    6.9194   -4.2257   23.1895 H   0  0  0  0  0  0  0  0  0  0  0  0
    8.8181   -3.8942   21.7431 H   0  0  0  0  0  0  0  0  0  0  0  0
    7.6893   -1.6968   20.8126 N   0  0  0  0  0  0  0  0  0  0  0  0
    7.0959   -0.4744   20.8857 N   0  0  0  0  0  0  0  0  0  0  0  0
    6.5120    0.1844   19.7944 C   0  0  0  0  0  0  0  0  0  0  0  0
    5.4460    1.0927   19.9312 C   0  0  0  0  0  0  0  0  0  0  0  0
    4.8975    1.6252   18.7590 C   0  0  0  0  0  0  0  0  0  0  0  0
    5.4359    1.2811   17.5132 C   0  0  0  0  0  0  0  0  0  0  0  0
    6.4854    0.4484   17.3888 N   0  0  0  0  0  0  0  0  0  0  0  0
    6.9983   -0.0927   18.5100 C   0  0  0  0  0  0  0  0  0  0  0  0
    7.8453   -0.7688   18.4210 H   0  0  0  0  0  0  0  0  0  0  0  0
    4.9890    1.6862   16.6100 H   0  0  0  0  0  0  0  0  0  0  0  0
    4.0522    2.3066   18.7972 H   0  0  0  0  0  0  0  0  0  0  0  0
    5.0365    1.3636   20.9041 H   0  0  0  0  0  0  0  0  0  0  0  0
    6.9949    2.0757   21.8778 H   0  0  0  0  0  0  0  0  0  0  0  0
    5.9538    1.4552   23.1697 H   0  0  0  0  0  0  0  0  0  0  0  0
    9.2504    2.2176   23.4471 C   0  0  0  0  0  0  0  0  0  0  0  0
   10.1602    1.8214   24.3067 N   0  0  0  0  0  0  0  0  0  0  0  0
    9.4571    2.8890   22.6173 H   0  0  0  0  0  0  0  0  0  0  0  0
    7.4944    0.0891   25.2082 H   0  0  0  0  0  0  0  0  0  0  0  0
  1  2  1  0
  2  3  2  0
  3  4  1  0
  4  5  1  0
  5  6  1  0
  6  7  2  0
  7  8  1  0
  8  9  1  0
  9 10  1  0
 10 11  1  0
 11 12  2  0
 12 13  1  0
 13 14  1  0
 14 15  1  0
 14 16  1  0
 13 17  1  0
 13 18  1  0
 12 19  1  0
 11 20  1  0
 10 21  1  0
 10 22  1  0
  9 23  1  0
  8 24  2  0
 24 25  1  0
 25 26  1  0
 26 27  2  0
 27 28  1  0
 28 29  2  0
 29 30  1  0
 30 31  2  0
 31 32  1  0
 29 33  1  0
 28 34  1  0
 27 35  1  0
  5 36  1  0
  5 37  1  0
  4 38  1  0
 38 39  2  0
 38 40  1  0
  3 41  1  0
 39  2  1  0
 25  6  1  0
 31 26  1  0
 14  9  1  0
M  END
>  <cnnaffinity>  (1) 
-6.4034

>  <filename>  (1) 
Brc1cn(Cc2nc(C3CC=CCC3)nn2-c2cccnc2)cn1

$$$$
