
     RDKit          3D

 40 43  0  0  0  0  0  0  0  0999 V2000
    5.5715    0.3687   27.6912 Br  0  0  0  0  0  0  0  0  0  0  0  0
    5.7445    0.7890   25.8383 C   0  0  0  0  0  0  0  0  0  0  0  0
    6.8879    0.7652   25.1080 C   0  0  0  0  0  0  0  0  0  0  0  0
    6.5331    1.1852   23.8367 N   0  0  0  0  0  0  0  0  0  0  0  0
    7.4372    1.2661   22.6993 C   0  0  0  0  0  0  0  0  0  0  0  0
    7.5871   -0.1263   22.1785 C   0  0  0  0  0  0  0  0  0  0  0  0
    8.0517   -1.0908   22.9181 N   0  0  0  0  0  0  0  0  0  0  0  0
    8.0841   -2.1624   22.0441 C   0  0  0  0  0  0  0  0  0  0  0  0
    8.6060   -3.5202   22.4128 C   0  0  0  0  0  0  0  0  0  0  0  0
    7.7833   -4.6494   21.7980 C   0  0  0  0  0  0  0  0  0  0  0  0
    8.1281   -5.8667   22.6301 C   0  0  0  0  0  0  0  0  0  0  0  0
    8.4593   -5.3643   24.0294 C   0  0  0  0  0  0  0  0  0  0  0  0
    8.6478   -3.8494   23.9058 C   0  0  0  0  0  0  0  0  0  0  0  0
    7.8581   -3.3127   24.4354 H   0  0  0  0  0  0  0  0  0  0  0  0
    9.6030   -3.5340   24.3385 H   0  0  0  0  0  0  0  0  0  0  0  0
    7.6433   -5.6030   24.7209 H   0  0  0  0  0  0  0  0  0  0  0  0
    9.3833   -5.8354   24.3947 H   0  0  0  0  0  0  0  0  0  0  0  0
    9.0138   -6.3513   22.2071 H   0  0  0  0  0  0  0  0  0  0  0  0
    7.2943   -6.5732   22.6335 H   0  0  0  0  0  0  0  0  0  0  0  0
    8.0212   -4.8085   20.7442 H   0  0  0  0  0  0  0  0  0  0  0  0
    6.7085   -4.4260   21.8833 H   0  0  0  0  0  0  0  0  0  0  0  0
    9.6264   -3.5279   22.0477 H   0  0  0  0  0  0  0  0  0  0  0  0
    7.7093   -1.8879   20.8180 N   0  0  0  0  0  0  0  0  0  0  0  0
    7.3374   -0.5968   20.8964 N   0  0  0  0  0  0  0  0  0  0  0  0
    6.6669    0.0587   19.8665 C   0  0  0  0  0  0  0  0  0  0  0  0
    5.5046    0.7829   20.1333 C   0  0  0  0  0  0  0  0  0  0  0  0
    4.8623    1.3985   19.0603 C   0  0  0  0  0  0  0  0  0  0  0  0
    5.4124    1.3148   17.7758 C   0  0  0  0  0  0  0  0  0  0  0  0
    6.5142    0.5884   17.5112 N   0  0  0  0  0  0  0  0  0  0  0  0
    7.1144   -0.0469   18.5374 C   0  0  0  0  0  0  0  0  0  0  0  0
    7.9957   -0.6478   18.3279 H   0  0  0  0  0  0  0  0  0  0  0  0
    4.9339    1.8553   16.9636 H   0  0  0  0  0  0  0  0  0  0  0  0
    3.9434    1.9512   19.2134 H   0  0  0  0  0  0  0  0  0  0  0  0
    5.1032    0.8356   21.1448 H   0  0  0  0  0  0  0  0  0  0  0  0
    7.0274    1.9440   21.9472 H   0  0  0  0  0  0  0  0  0  0  0  0
    8.4067    1.6606   23.0141 H   0  0  0  0  0  0  0  0  0  0  0  0
    5.2008    1.4249   23.7256 N   0  0  0  0  0  0  0  0  0  0  0  0
    4.7057    1.2042   24.9205 C   0  0  0  0  0  0  0  0  0  0  0  0
    3.6585    1.3281   25.1776 H   0  0  0  0  0  0  0  0  0  0  0  0
    7.8754    0.4726   25.4436 H   0  0  0  0  0  0  0  0  0  0  0  0
  1  2  1  0
  2  3  2  0
  3  4  1  0
  4  5  1  0
  5  6  1  0
  6  7  2  0
  7  8  1  0
  8  9  1  0
  9 10  1  0
 10 11  1  0
 11 12  1  0
 12 13  1  0
 13 14  1  0
 13 15  1  0
 12 16  1  0
 12 17  1  0
 11 18  1  0
 11 19  1  0
 10 20  1  0
 10 21  1  0
  9 22  1  0
  8 23  2  0
 23 24  1  0
 24 25  1  0
 25 26  2  0
 26 27  1  0
 27 28  2  0
 28 29  1  0
 29 30  2  0
 30 31  1  0
 28 32  1  0
 27 33  1  0
 26 34  1  0
  5 35  1  0
  5 36  1  0
  4 37  1  0
 37 38  2  0
 38 39  1  0
  3 40  1  0
 38  2  1  0
 24  6  1  0
 30 25  1  0
 13  9  1  0
M  END
>  <cnnaffinity>  (1) 
-6.00135

>  <filename>  (1) 
Brc1cnn(Cc2nc(C3CCCC3)nn2-c2cccnc2)c1

$$$$
