
     RDKit          3D

 40 43  0  0  0  0  0  0  0  0999 V2000
    8.0672    5.3767   27.5492 Br  0  0  0  0  0  0  0  0  0  0  0  0
    7.2699    3.7680   26.8786 C   0  0  0  0  0  0  0  0  0  0  0  0
    6.2425    3.1213   27.5758 C   0  0  0  0  0  0  0  0  0  0  0  0
    5.6911    1.9672   27.1536 N   0  0  0  0  0  0  0  0  0  0  0  0
    6.1433    1.4185   26.0135 C   0  0  0  0  0  0  0  0  0  0  0  0
    7.1283    2.0239   25.2368 C   0  0  0  0  0  0  0  0  0  0  0  0
    7.5377    1.4201   23.9867 C   0  0  0  0  0  0  0  0  0  0  0  0
    6.8999    0.4714   23.3370 N   0  0  0  0  0  0  0  0  0  0  0  0
    7.6583    0.3119   22.2168 N   0  0  0  0  0  0  0  0  0  0  0  0
    7.3766   -0.6285   21.1170 C   0  0  0  0  0  0  0  0  0  0  0  0
    6.6847    0.0592   19.9622 C   0  0  0  0  0  0  0  0  0  0  0  0
    5.4598    0.7095   20.1460 C   0  0  0  0  0  0  0  0  0  0  0  0
    4.8784    1.3250   19.0369 C   0  0  0  0  0  0  0  0  0  0  0  0
    5.5210    1.2735   17.7948 C   0  0  0  0  0  0  0  0  0  0  0  0
    6.6940    0.6399   17.6134 N   0  0  0  0  0  0  0  0  0  0  0  0
    7.2583    0.0476   18.6797 C   0  0  0  0  0  0  0  0  0  0  0  0
    8.2029   -0.4718   18.5454 H   0  0  0  0  0  0  0  0  0  0  0  0
    5.0554    1.7637   16.9447 H   0  0  0  0  0  0  0  0  0  0  0  0
    3.9384    1.8594   19.1201 H   0  0  0  0  0  0  0  0  0  0  0  0
    4.9786    0.7483   21.1253 H   0  0  0  0  0  0  0  0  0  0  0  0
    6.7358   -1.4309   21.4949 H   0  0  0  0  0  0  0  0  0  0  0  0
    8.3107   -1.0946   20.7770 H   0  0  0  0  0  0  0  0  0  0  0  0
    8.7615    1.1432   22.3002 C   0  0  0  0  0  0  0  0  0  0  0  0
    9.8888    1.2898   21.3348 C   0  0  0  0  0  0  0  0  0  0  0  0
   10.9889    0.3133   21.6198 C   0  0  0  0  0  0  0  0  0  0  0  0
   11.9483    0.4880   22.5759 C   0  0  0  0  0  0  0  0  0  0  0  0
   12.8928   -0.6054   22.4438 C   0  0  0  0  0  0  0  0  0  0  0  0
   12.4603   -1.4134   21.4259 C   0  0  0  0  0  0  0  0  0  0  0  0
   11.2803   -0.8595   20.9411 N   0  0  0  0  0  0  0  0  0  0  0  0
   10.7620   -1.2018   20.1296 H   0  0  0  0  0  0  0  0  0  0  0  0
   12.9641   -2.3078   21.0572 H   0  0  0  0  0  0  0  0  0  0  0  0
   13.7843   -0.7421   23.0485 H   0  0  0  0  0  0  0  0  0  0  0  0
   12.0075    1.3027   23.2972 H   0  0  0  0  0  0  0  0  0  0  0  0
   10.2943    2.3004   21.4512 H   0  0  0  0  0  0  0  0  0  0  0  0
    9.5249    1.1556   20.3177 H   0  0  0  0  0  0  0  0  0  0  0  0
    8.6990    1.8512   23.3834 N   0  0  0  0  0  0  0  0  0  0  0  0
    7.7104    3.2169   25.6824 C   0  0  0  0  0  0  0  0  0  0  0  0
    8.4994    3.7119   25.1164 H   0  0  0  0  0  0  0  0  0  0  0  0
    5.7235    0.4682   25.7017 H   0  0  0  0  0  0  0  0  0  0  0  0
    5.8719    3.5747   28.4898 H   0  0  0  0  0  0  0  0  0  0  0  0
  1  2  1  0
  2  3  2  0
  3  4  1  0
  4  5  2  0
  5  6  1  0
  6  7  1  0
  7  8  2  0
  8  9  1  0
  9 10  1  0
 10 11  1  0
 11 12  2  0
 12 13  1  0
 13 14  2  0
 14 15  1  0
 15 16  2  0
 16 17  1  0
 14 18  1  0
 13 19  1  0
 12 20  1  0
 10 21  1  0
 10 22  1  0
  9 23  1  0
 23 24  1  0
 24 25  1  0
 25 26  2  0
 26 27  1  0
 27 28  2  0
 28 29  1  0
 29 30  1  0
 28 31  1  0
 27 32  1  0
 26 33  1  0
 24 34  1  0
 24 35  1  0
 23 36  2  0
  6 37  2  0
 37 38  1  0
  5 39  1  0
  3 40  1  0
 37  2  1  0
 36  7  1  0
 16 11  1  0
 29 25  1  0
M  END
>  <cnnaffinity>  (1) 
-6.5011

>  <filename>  (1) 
Brc1cncc(-c2nc(Cc3ccc[nH]3)n(Cc3cccnc3)n2)c1

$$$$
