
     RDKit          3D

 42 45  0  0  0  0  0  0  0  0999 V2000
   10.3995    3.6628   24.1411 Br  0  0  0  0  0  0  0  0  0  0  0  0
   10.7631    2.1009   23.0810 C   0  0  0  0  0  0  0  0  0  0  0  0
   11.9690    1.4028   23.2528 C   0  0  0  0  0  0  0  0  0  0  0  0
   12.3059    0.3273   22.5116 N   0  0  0  0  0  0  0  0  0  0  0  0
   11.4437   -0.0945   21.5735 C   0  0  0  0  0  0  0  0  0  0  0  0
   10.2133    0.5308   21.3617 C   0  0  0  0  0  0  0  0  0  0  0  0
    9.8461    1.6413   22.1301 C   0  0  0  0  0  0  0  0  0  0  0  0
    8.4861    2.2767   21.9447 C   0  0  0  0  0  0  0  0  0  0  0  0
    7.3724    1.4608   22.6341 C   0  0  0  0  0  0  0  0  0  0  0  0
    7.5235    0.0218   22.2484 C   0  0  0  0  0  0  0  0  0  0  0  0
    8.1274   -0.8493   22.9961 N   0  0  0  0  0  0  0  0  0  0  0  0
    8.3048   -1.9182   22.1320 C   0  0  0  0  0  0  0  0  0  0  0  0
    9.1071   -3.1298   22.4943 C   0  0  0  0  0  0  0  0  0  0  0  0
   10.5550   -2.8015   22.8903 C   0  0  0  0  0  0  0  0  0  0  0  0
   10.2973   -3.3292   24.2833 C   0  0  0  0  0  0  0  0  0  0  0  0
    8.8836   -3.7243   23.8845 C   0  0  0  0  0  0  0  0  0  0  0  0
    8.1141   -3.2177   24.4699 H   0  0  0  0  0  0  0  0  0  0  0  0
    8.6979   -4.8060   23.9040 H   0  0  0  0  0  0  0  0  0  0  0  0
   10.3282   -2.5243   25.0241 H   0  0  0  0  0  0  0  0  0  0  0  0
   10.9468   -4.1556   24.5849 H   0  0  0  0  0  0  0  0  0  0  0  0
   11.3409   -3.3265   22.3443 H   0  0  0  0  0  0  0  0  0  0  0  0
   10.7970   -1.7370   22.8952 H   0  0  0  0  0  0  0  0  0  0  0  0
    8.9751   -3.8817   21.7157 H   0  0  0  0  0  0  0  0  0  0  0  0
    7.8228   -1.7530   20.9252 N   0  0  0  0  0  0  0  0  0  0  0  0
    7.2683   -0.5280   21.0042 N   0  0  0  0  0  0  0  0  0  0  0  0
    6.6338    0.0873   19.9345 C   0  0  0  0  0  0  0  0  0  0  0  0
    5.5141    0.8941   20.1397 C   0  0  0  0  0  0  0  0  0  0  0  0
    4.9171    1.4616   19.0181 C   0  0  0  0  0  0  0  0  0  0  0  0
    5.4577    1.2311   17.7452 C   0  0  0  0  0  0  0  0  0  0  0  0
    6.5379    0.4515   17.5464 N   0  0  0  0  0  0  0  0  0  0  0  0
    7.1039   -0.1185   18.6252 C   0  0  0  0  0  0  0  0  0  0  0  0
    7.9870   -0.7367   18.4883 H   0  0  0  0  0  0  0  0  0  0  0  0
    4.9801    1.6810   16.8838 H   0  0  0  0  0  0  0  0  0  0  0  0
    4.0321    2.0802   19.1179 H   0  0  0  0  0  0  0  0  0  0  0  0
    5.1082    1.0487   21.1394 H   0  0  0  0  0  0  0  0  0  0  0  0
    6.3855    1.8261   22.3457 H   0  0  0  0  0  0  0  0  0  0  0  0
    7.4637    1.5542   23.7176 H   0  0  0  0  0  0  0  0  0  0  0  0
    8.2703    2.3476   20.8729 H   0  0  0  0  0  0  0  0  0  0  0  0
    8.5016    3.2910   22.3528 H   0  0  0  0  0  0  0  0  0  0  0  0
    9.5489    0.1205   20.6106 H   0  0  0  0  0  0  0  0  0  0  0  0
   11.6980   -0.9633   20.9717 H   0  0  0  0  0  0  0  0  0  0  0  0
   12.6562    1.7466   24.0225 H   0  0  0  0  0  0  0  0  0  0  0  0
  1  2  1  0
  2  3  2  0
  3  4  1  0
  4  5  2  0
  5  6  1  0
  6  7  2  0
  7  8  1  0
  8  9  1  0
  9 10  1  0
 10 11  2  0
 11 12  1  0
 12 13  1  0
 13 14  1  0
 14 15  1  0
 15 16  1  0
 16 17  1  0
 16 18  1  0
 15 19  1  0
 15 20  1  0
 14 21  1  0
 14 22  1  0
 13 23  1  0
 12 24  2  0
 24 25  1  0
 25 26  1  0
 26 27  2  0
 27 28  1  0
 28 29  2  0
 29 30  1  0
 30 31  2  0
 31 32  1  0
 29 33  1  0
 28 34  1  0
 27 35  1  0
  9 36  1  0
  9 37  1  0
  8 38  1  0
  8 39  1  0
  6 40  1  0
  5 41  1  0
  3 42  1  0
  7  2  1  0
 25 10  1  0
 31 26  1  0
 16 13  1  0
M  END
>  <cnnaffinity>  (1) 
-6.44688

>  <filename>  (1) 
Brc1cnccc1CCc1nc(C2CCC2)nn1-c1cccnc1

$$$$
