
     RDKit          3D

 37 40  0  0  0  0  0  0  0  0999 V2000
    5.7121   -4.3114   19.1064 Br  0  0  0  0  0  0  0  0  0  0  0  0
    5.7131   -4.8484   20.9177 C   0  0  0  0  0  0  0  0  0  0  0  0
    5.6164   -6.1485   21.2253 N   0  0  0  0  0  0  0  0  0  0  0  0
    5.4596   -6.4730   22.5137 C   0  0  0  0  0  0  0  0  0  0  0  0
    5.4001   -5.5039   23.5209 C   0  0  0  0  0  0  0  0  0  0  0  0
    5.5403   -4.1481   23.2078 C   0  0  0  0  0  0  0  0  0  0  0  0
    5.7007   -3.8182   21.8627 C   0  0  0  0  0  0  0  0  0  0  0  0
    5.8019   -2.3803   21.3763 C   0  0  0  0  0  0  0  0  0  0  0  0
    7.0560   -1.6409   21.7490 C   0  0  0  0  0  0  0  0  0  0  0  0
    7.9886   -2.0103   22.5812 N   0  0  0  0  0  0  0  0  0  0  0  0
    9.0073   -1.1065   22.3017 C   0  0  0  0  0  0  0  0  0  0  0  0
   10.3641   -1.2423   22.9365 C   0  0  0  0  0  0  0  0  0  0  0  0
   11.0757    0.0686   23.3019 C   0  0  0  0  0  0  0  0  0  0  0  0
   12.4932   -0.2138   22.1859 S   0  0  0  0  0  0  0  0  0  0  0  0
   11.4457   -1.6929   21.9487 C   0  0  0  0  0  0  0  0  0  0  0  0
   11.9475   -2.6231   22.2356 H   0  0  0  0  0  0  0  0  0  0  0  0
   11.0710   -1.8023   20.9273 H   0  0  0  0  0  0  0  0  0  0  0  0
   11.3746    0.1348   24.3545 H   0  0  0  0  0  0  0  0  0  0  0  0
   10.5047    0.9665   23.0491 H   0  0  0  0  0  0  0  0  0  0  0  0
   10.2976   -1.9148   23.7943 H   0  0  0  0  0  0  0  0  0  0  0  0
    8.7395   -0.2115   21.3774 N   0  0  0  0  0  0  0  0  0  0  0  0
    7.4640   -0.5130   21.0555 N   0  0  0  0  0  0  0  0  0  0  0  0
    6.7553    0.0878   20.0085 C   0  0  0  0  0  0  0  0  0  0  0  0
    5.4856    0.6332   20.2165 C   0  0  0  0  0  0  0  0  0  0  0  0
    4.8506    1.2274   19.1236 C   0  0  0  0  0  0  0  0  0  0  0  0
    5.4754    1.2373   17.8699 C   0  0  0  0  0  0  0  0  0  0  0  0
    6.6861    0.6866   17.6596 N   0  0  0  0  0  0  0  0  0  0  0  0
    7.3111    0.1344   18.7181 C   0  0  0  0  0  0  0  0  0  0  0  0
    8.2763   -0.3344   18.5604 H   0  0  0  0  0  0  0  0  0  0  0  0
    4.9576    1.7015   17.0374 H   0  0  0  0  0  0  0  0  0  0  0  0
    3.8808    1.7020   19.2350 H   0  0  0  0  0  0  0  0  0  0  0  0
    5.0206    0.6270   21.2033 H   0  0  0  0  0  0  0  0  0  0  0  0
    5.7378   -2.3510   20.2862 H   0  0  0  0  0  0  0  0  0  0  0  0
    4.9442   -1.8266   21.6811 H   0  0  0  0  0  0  0  0  0  0  0  0
    5.5045   -3.3790   23.9814 H   0  0  0  0  0  0  0  0  0  0  0  0
    5.2517   -5.8262   24.5435 H   0  0  0  0  0  0  0  0  0  0  0  0
    5.3494   -7.5265   22.7577 H   0  0  0  0  0  0  0  0  0  0  0  0
  1  2  1  0
  2  3  2  0
  3  4  1  0
  4  5  2  0
  5  6  1  0
  6  7  2  0
  7  8  1  0
  8  9  1  0
  9 10  2  0
 10 11  1  0
 11 12  1  0
 12 13  1  0
 13 14  1  0
 14 15  1  0
 15 16  1  0
 15 17  1  0
 13 18  1  0
 13 19  1  0
 12 20  1  0
 11 21  2  0
 21 22  1  0
 22 23  1  0
 23 24  2  0
 24 25  1  0
 25 26  2  0
 26 27  1  0
 27 28  2  0
 28 29  1  0
 26 30  1  0
 25 31  1  0
 24 32  1  0
  8 33  1  0
  8 34  1  0
  6 35  1  0
  5 36  1  0
  4 37  1  0
  7  2  1  0
 22  9  1  0
 28 23  1  0
 15 12  1  0
M  END
>  <cnnaffinity>  (1) 
-5.21296

>  <filename>  (1) 
Brc1ncccc1Cc1nc(C2CSC2)nn1-c1cccnc1

$$$$
