
     RDKit          3D

 42 45  0  0  0  0  0  0  0  0999 V2000
    7.9901   -4.2142   27.8769 Br  0  0  0  0  0  0  0  0  0  0  0  0
    8.6237   -2.6849   26.9247 C   0  0  0  0  0  0  0  0  0  0  0  0
    8.9440   -2.9244   25.5974 C   0  0  0  0  0  0  0  0  0  0  0  0
    9.3940   -1.8939   24.7866 C   0  0  0  0  0  0  0  0  0  0  0  0
    9.5337   -0.6106   25.3343 C   0  0  0  0  0  0  0  0  0  0  0  0
   10.0120    0.4385   24.5221 N   0  0  0  0  0  0  0  0  0  0  0  0
   10.7600    1.5075   24.9053 N   0  0  0  0  0  0  0  0  0  0  0  0
   11.1432    2.0413   23.7592 C   0  0  0  0  0  0  0  0  0  0  0  0
   12.0007    3.2845   23.5965 C   0  0  0  0  0  0  0  0  0  0  0  0
   12.3826    3.7092   22.1707 C   0  0  0  0  0  0  0  0  0  0  0  0
   13.4589    3.2133   23.1232 C   0  0  0  0  0  0  0  0  0  0  0  0
   14.1634    3.9652   23.4921 H   0  0  0  0  0  0  0  0  0  0  0  0
   13.8934    2.2260   22.9442 H   0  0  0  0  0  0  0  0  0  0  0  0
   12.0911    3.0544   21.3455 H   0  0  0  0  0  0  0  0  0  0  0  0
   12.3673    4.7727   21.9198 H   0  0  0  0  0  0  0  0  0  0  0  0
   11.7389    4.0854   24.2883 H   0  0  0  0  0  0  0  0  0  0  0  0
   10.6450    1.4014   22.6385 N   0  0  0  0  0  0  0  0  0  0  0  0
    9.9381    0.4373   23.1401 C   0  0  0  0  0  0  0  0  0  0  0  0
    9.1134   -0.5195   22.3371 C   0  0  0  0  0  0  0  0  0  0  0  0
    8.2182    0.1924   21.3359 C   0  0  0  0  0  0  0  0  0  0  0  0
    7.2413   -0.8114   20.7374 C   0  0  0  0  0  0  0  0  0  0  0  0
    6.5257   -0.0981   19.6321 C   0  0  0  0  0  0  0  0  0  0  0  0
    5.3467    0.5983   19.8875 C   0  0  0  0  0  0  0  0  0  0  0  0
    4.8025    1.3380   18.8412 C   0  0  0  0  0  0  0  0  0  0  0  0
    5.4398    1.3562   17.5938 C   0  0  0  0  0  0  0  0  0  0  0  0
    6.5714    0.6737   17.3441 N   0  0  0  0  0  0  0  0  0  0  0  0
    7.1042   -0.0343   18.3553 C   0  0  0  0  0  0  0  0  0  0  0  0
    8.0408   -0.5590   18.1895 H   0  0  0  0  0  0  0  0  0  0  0  0
    5.0049    1.9485   16.7963 H   0  0  0  0  0  0  0  0  0  0  0  0
    3.9041    1.9229   18.9912 H   0  0  0  0  0  0  0  0  0  0  0  0
    4.8941    0.5876   20.8791 H   0  0  0  0  0  0  0  0  0  0  0  0
    7.7784   -1.6844   20.3508 H   0  0  0  0  0  0  0  0  0  0  0  0
    6.5369   -1.1591   21.5044 H   0  0  0  0  0  0  0  0  0  0  0  0
    7.6529    0.9933   21.8243 H   0  0  0  0  0  0  0  0  0  0  0  0
    8.8287    0.6486   20.5499 H   0  0  0  0  0  0  0  0  0  0  0  0
    8.4629   -1.0865   23.0040 H   0  0  0  0  0  0  0  0  0  0  0  0
    9.7778   -1.2139   21.8196 H   0  0  0  0  0  0  0  0  0  0  0  0
    9.2031   -0.4435   26.6915 C   0  0  0  0  0  0  0  0  0  0  0  0
    8.7498   -1.4574   27.4683 N   0  0  0  0  0  0  0  0  0  0  0  0
    9.2709    0.5572   27.1080 H   0  0  0  0  0  0  0  0  0  0  0  0
    9.6464   -2.1092   23.7510 H   0  0  0  0  0  0  0  0  0  0  0  0
    8.8200   -3.9332   25.2247 H   0  0  0  0  0  0  0  0  0  0  0  0
  1  2  1  0
  2  3  2  0
  3  4  1  0
  4  5  2  0
  5  6  1  0
  6  7  1  0
  7  8  2  0
  8  9  1  0
  9 10  1  0
 10 11  1  0
 11 12  1  0
 11 13  1  0
 10 14  1  0
 10 15  1  0
  9 16  1  0
  8 17  1  0
 17 18  2  0
 18 19  1  0
 19 20  1  0
 20 21  1  0
 21 22  1  0
 22 23  2  0
 23 24  1  0
 24 25  2  0
 25 26  1  0
 26 27  2  0
 27 28  1  0
 25 29  1  0
 24 30  1  0
 23 31  1  0
 21 32  1  0
 21 33  1  0
 20 34  1  0
 20 35  1  0
 19 36  1  0
 19 37  1  0
  5 38  1  0
 38 39  2  0
 38 40  1  0
  4 41  1  0
  3 42  1  0
 39  2  1  0
 18  6  1  0
 27 22  1  0
 11  9  1  0
M  END
>  <cnnaffinity>  (1) 
-6.31033

>  <filename>  (1) 
Brc1ccc(-n2nc(C3CC3)nc2CCCc2cccnc2)cn1

$$$$
