
     RDKit          3D

 40 44  0  0  0  0  0  0  0  0999 V2000
   12.1594    2.9981   23.3362 Br  0  0  0  0  0  0  0  0  0  0  0  0
   10.4902    2.3262   24.0011 C   0  0  0  0  0  0  0  0  0  0  0  0
   10.3711    1.8916   25.3280 C   0  0  0  0  0  0  0  0  0  0  0  0
    9.2584    1.3700   25.8544 N   0  0  0  0  0  0  0  0  0  0  0  0
    8.2159    1.2034   25.0314 C   0  0  0  0  0  0  0  0  0  0  0  0
    8.2326    1.6030   23.6811 C   0  0  0  0  0  0  0  0  0  0  0  0
    7.1075    1.1835   22.7641 C   0  0  0  0  0  0  0  0  0  0  0  0
    7.4297   -0.1902   22.2135 C   0  0  0  0  0  0  0  0  0  0  0  0
    7.9529   -1.1488   22.9278 N   0  0  0  0  0  0  0  0  0  0  0  0
    8.2274   -2.1322   21.9978 C   0  0  0  0  0  0  0  0  0  0  0  0
    8.9081   -3.4276   22.3403 C   0  0  0  0  0  0  0  0  0  0  0  0
    8.2103   -4.7548   22.1838 C   0  0  0  0  0  0  0  0  0  0  0  0
    8.4884   -4.2149   23.6020 C   0  0  0  0  0  0  0  0  0  0  0  0
    9.7841   -4.2888   24.4365 C   0  0  0  0  0  0  0  0  0  0  0  0
    8.9132   -5.5136   24.3174 C   0  0  0  0  0  0  0  0  0  0  0  0
    9.2271   -6.3588   23.6988 H   0  0  0  0  0  0  0  0  0  0  0  0
    8.2475   -5.8354   25.1249 H   0  0  0  0  0  0  0  0  0  0  0  0
   10.7333   -4.2539   23.8861 H   0  0  0  0  0  0  0  0  0  0  0  0
    9.7909   -3.6905   25.3536 H   0  0  0  0  0  0  0  0  0  0  0  0
    8.7782   -5.6372   21.8654 H   0  0  0  0  0  0  0  0  0  0  0  0
    7.1601   -4.8068   21.8832 H   0  0  0  0  0  0  0  0  0  0  0  0
    9.9800   -3.2729   22.2106 H   0  0  0  0  0  0  0  0  0  0  0  0
    7.9139   -1.8162   20.7626 N   0  0  0  0  0  0  0  0  0  0  0  0
    7.3375   -0.6046   20.8919 N   0  0  0  0  0  0  0  0  0  0  0  0
    6.6620    0.0386   19.8536 C   0  0  0  0  0  0  0  0  0  0  0  0
    5.4942    0.7532   20.1145 C   0  0  0  0  0  0  0  0  0  0  0  0
    4.8659    1.3838   19.0447 C   0  0  0  0  0  0  0  0  0  0  0  0
    5.4196    1.2989   17.7632 C   0  0  0  0  0  0  0  0  0  0  0  0
    6.5315    0.5862   17.5050 N   0  0  0  0  0  0  0  0  0  0  0  0
    7.1332   -0.0468   18.5325 C   0  0  0  0  0  0  0  0  0  0  0  0
    8.0341   -0.6177   18.3242 H   0  0  0  0  0  0  0  0  0  0  0  0
    4.9278    1.8243   16.9509 H   0  0  0  0  0  0  0  0  0  0  0  0
    3.9581    1.9508   19.2013 H   0  0  0  0  0  0  0  0  0  0  0  0
    5.0866    0.7991   21.1234 H   0  0  0  0  0  0  0  0  0  0  0  0
    7.0045    1.9024   21.9445 H   0  0  0  0  0  0  0  0  0  0  0  0
    6.1658    1.1581   23.3196 H   0  0  0  0  0  0  0  0  0  0  0  0
    9.3843    2.2001   23.1635 C   0  0  0  0  0  0  0  0  0  0  0  0
    9.4547    2.4825   22.1132 H   0  0  0  0  0  0  0  0  0  0  0  0
    7.3680    0.6437   25.4041 H   0  0  0  0  0  0  0  0  0  0  0  0
   11.2389    1.9435   25.9634 H   0  0  0  0  0  0  0  0  0  0  0  0
  1  2  1  0
  2  3  2  0
  3  4  1  0
  4  5  2  0
  5  6  1  0
  6  7  1  0
  7  8  1  0
  8  9  2  0
  9 10  1  0
 10 11  1  0
 11 12  1  0
 12 13  1  0
 13 14  1  0
 14 15  1  0
 15 16  1  0
 15 17  1  0
 14 18  1  0
 14 19  1  0
 12 20  1  0
 12 21  1  0
 11 22  1  0
 10 23  2  0
 23 24  1  0
 24 25  1  0
 25 26  2  0
 26 27  1  0
 27 28  2  0
 28 29  1  0
 29 30  2  0
 30 31  1  0
 28 32  1  0
 27 33  1  0
 26 34  1  0
  7 35  1  0
  7 36  1  0
  6 37  2  0
 37 38  1  0
  5 39  1  0
  3 40  1  0
 37  2  1  0
 24  8  1  0
 30 25  1  0
 13 11  1  0
 15 13  1  0
M  END
>  <cnnaffinity>  (1) 
-6.79453

>  <filename>  (1) 
Brc1cncc(Cc2nc(C3CC34CC4)nn2-c2cccnc2)c1

$$$$
