
     RDKit          3D

 36 40  0  0  0  0  0  0  0  0999 V2000
    6.6513    3.6432   25.8967 Br  0  0  0  0  0  0  0  0  0  0  0  0
    6.9609    2.7130   24.2573 C   0  0  0  0  0  0  0  0  0  0  0  0
    7.1050    3.2638   23.0111 C   0  0  0  0  0  0  0  0  0  0  0  0
    7.2984    2.2248   22.1103 N   0  0  0  0  0  0  0  0  0  0  0  0
    7.2876    1.0080   22.7892 C   0  0  0  0  0  0  0  0  0  0  0  0
    7.5238   -0.3122   22.2230 C   0  0  0  0  0  0  0  0  0  0  0  0
    8.0520   -1.2847   22.9036 N   0  0  0  0  0  0  0  0  0  0  0  0
    8.2059   -2.2624   21.9449 C   0  0  0  0  0  0  0  0  0  0  0  0
    8.8165   -3.5846   22.2776 C   0  0  0  0  0  0  0  0  0  0  0  0
    8.0257   -4.8515   22.0634 C   0  0  0  0  0  0  0  0  0  0  0  0
    8.3553   -4.3954   23.5057 C   0  0  0  0  0  0  0  0  0  0  0  0
    8.7442   -5.7461   24.1340 C   0  0  0  0  0  0  0  0  0  0  0  0
    9.6364   -4.5442   24.3536 C   0  0  0  0  0  0  0  0  0  0  0  0
   10.5987   -4.4313   23.8405 H   0  0  0  0  0  0  0  0  0  0  0  0
    9.6248   -3.9841   25.2943 H   0  0  0  0  0  0  0  0  0  0  0  0
    9.0021   -6.5592   23.4433 H   0  0  0  0  0  0  0  0  0  0  0  0
    8.0527   -6.0942   24.9078 H   0  0  0  0  0  0  0  0  0  0  0  0
    8.5134   -5.7451   21.6465 H   0  0  0  0  0  0  0  0  0  0  0  0
    6.9621   -4.7900   21.8046 H   0  0  0  0  0  0  0  0  0  0  0  0
    9.8944   -3.4344   22.2272 H   0  0  0  0  0  0  0  0  0  0  0  0
    7.8231   -1.9419   20.7300 N   0  0  0  0  0  0  0  0  0  0  0  0
    7.3433   -0.6934   20.8983 N   0  0  0  0  0  0  0  0  0  0  0  0
    6.6766    0.0095   19.8915 C   0  0  0  0  0  0  0  0  0  0  0  0
    5.4828    0.6803   20.1604 C   0  0  0  0  0  0  0  0  0  0  0  0
    4.8390    1.3207   19.1017 C   0  0  0  0  0  0  0  0  0  0  0  0
    5.4115    1.2986   17.8243 C   0  0  0  0  0  0  0  0  0  0  0  0
    6.5621    0.6517   17.5600 N   0  0  0  0  0  0  0  0  0  0  0  0
    7.1736    0.0119   18.5774 C   0  0  0  0  0  0  0  0  0  0  0  0
    8.1086   -0.5033   18.3829 H   0  0  0  0  0  0  0  0  0  0  0  0
    4.9022    1.8233   17.0226 H   0  0  0  0  0  0  0  0  0  0  0  0
    3.9000    1.8408   19.2515 H   0  0  0  0  0  0  0  0  0  0  0  0
    5.0575    0.6759   21.1636 H   0  0  0  0  0  0  0  0  0  0  0  0
    7.0907    1.2784   24.1185 C   0  0  0  0  0  0  0  0  0  0  0  0
    7.0501    0.5498   24.9228 H   0  0  0  0  0  0  0  0  0  0  0  0
    7.4820    2.3466   21.1121 H   0  0  0  0  0  0  0  0  0  0  0  0
    7.0744    4.3222   22.7754 H   0  0  0  0  0  0  0  0  0  0  0  0
  1  2  1  0
  2  3  2  0
  3  4  1  0
  4  5  1  0
  5  6  1  0
  6  7  2  0
  7  8  1  0
  8  9  1  0
  9 10  1  0
 10 11  1  0
 11 12  1  0
 12 13  1  0
 13 14  1  0
 13 15  1  0
 12 16  1  0
 12 17  1  0
 10 18  1  0
 10 19  1  0
  9 20  1  0
  8 21  2  0
 21 22  1  0
 22 23  1  0
 23 24  2  0
 24 25  1  0
 25 26  2  0
 26 27  1  0
 27 28  2  0
 28 29  1  0
 26 30  1  0
 25 31  1  0
 24 32  1  0
  5 33  2  0
 33 34  1  0
  4 35  1  0
  3 36  1  0
 33  2  1  0
 22  6  1  0
 28 23  1  0
 11  9  1  0
 13 11  1  0
M  END
>  <cnnaffinity>  (1) 
-6.21511

>  <filename>  (1) 
Brc1c[nH]c(-c2nc(C3CC34CC4)nn2-c2cccnc2)c1

$$$$
