
     RDKit          3D

 30 33  0  0  0  0  0  0  0  0999 V2000
    4.8788    1.8128   17.0082 H   0  0  0  0  0  0  0  0  0  0  0  0
    5.3964    1.3030   17.8124 C   0  0  0  0  0  0  0  0  0  0  0  0
    6.5579    0.6787   17.5417 N   0  0  0  0  0  0  0  0  0  0  0  0
    7.1684    0.0477   18.5652 C   0  0  0  0  0  0  0  0  0  0  0  0
    8.1229   -0.4390   18.3843 H   0  0  0  0  0  0  0  0  0  0  0  0
    6.6556    0.0082   19.8802 C   0  0  0  0  0  0  0  0  0  0  0  0
    7.3618   -0.6821   20.9727 C   0  0  0  0  0  0  0  0  0  0  0  0
    8.2866   -1.6936   20.9023 C   0  0  0  0  0  0  0  0  0  0  0  0
    8.6372   -2.0589   19.9604 H   0  0  0  0  0  0  0  0  0  0  0  0
    8.7780   -2.1200   22.1395 N   0  0  0  0  0  0  0  0  0  0  0  0
    8.1784   -1.2771   22.9277 C   0  0  0  0  0  0  0  0  0  0  0  0
    8.2679   -0.9696   24.6162 S   0  0  0  0  0  0  0  0  0  0  0  0
    7.1364    0.3658   24.2958 C   0  0  0  0  0  0  0  0  0  0  0  0
    6.6793    1.2556   25.3724 C   0  0  0  0  0  0  0  0  0  0  0  0
    5.7849    2.3077   25.1003 C   0  0  0  0  0  0  0  0  0  0  0  0
    5.4309    2.4728   24.0858 H   0  0  0  0  0  0  0  0  0  0  0  0
    5.3414    3.1529   26.1229 C   0  0  0  0  0  0  0  0  0  0  0  0
    4.6517    3.9605   25.8988 H   0  0  0  0  0  0  0  0  0  0  0  0
    5.7799    2.9691   27.4352 C   0  0  0  0  0  0  0  0  0  0  0  0
    5.1676    4.1320   28.8280 Br  0  0  0  0  0  0  0  0  0  0  0  0
    6.6697    1.9285   27.7165 C   0  0  0  0  0  0  0  0  0  0  0  0
    7.0089    1.7867   28.7367 H   0  0  0  0  0  0  0  0  0  0  0  0
    7.1180    1.0784   26.6974 C   0  0  0  0  0  0  0  0  0  0  0  0
    7.8111    0.2801   26.9535 H   0  0  0  0  0  0  0  0  0  0  0  0
    6.7215    0.5355   23.0536 N   0  0  0  0  0  0  0  0  0  0  0  0
    7.3160   -0.4227   22.3131 N   0  0  0  0  0  0  0  0  0  0  0  0
    5.4514    0.6562   20.1496 C   0  0  0  0  0  0  0  0  0  0  0  0
    5.0302    0.6392   21.1575 H   0  0  0  0  0  0  0  0  0  0  0  0
    4.8223    1.3107   19.0915 C   0  0  0  0  0  0  0  0  0  0  0  0
    3.8872    1.8299   19.2557 H   0  0  0  0  0  0  0  0  0  0  0  0
  1  2  1  0
  2  3  2  0
  3  4  1  0
  4  5  1  0
  4  6  2  0
  6  7  1  0
  7  8  2  0
  8  9  1  0
  8 10  1  0
 10 11  2  0
 11 12  1  0
 12 13  1  0
 13 14  1  0
 14 15  2  0
 15 16  1  0
 15 17  1  0
 17 18  1  0
 17 19  2  0
 19 20  1  0
 19 21  1  0
 21 22  1  0
 21 23  2  0
 23 24  1  0
 13 25  2  0
 25 26  1  0
  6 27  1  0
 27 28  1  0
 27 29  2  0
 29 30  1  0
 29  2  1  0
 26  7  1  0
 26 11  1  0
 23 14  1  0
M  END
>  <cnnaffinity>  (1) 
-5.21587

>  <filename>  (1) 
Brc1ccc(-c2nn3c(-c4cccnc4)cnc3s2)cc1

$$$$
