
     RDKit          3D

 38 41  0  0  0  0  0  0  0  0999 V2000
    5.2971   -3.3113   18.8526 Br  0  0  0  0  0  0  0  0  0  0  0  0
    5.6421   -4.4570   20.3458 C   0  0  0  0  0  0  0  0  0  0  0  0
    5.6079   -5.8287   20.3186 C   0  0  0  0  0  0  0  0  0  0  0  0
    5.9913   -6.5533   21.8778 S   0  0  0  0  0  0  0  0  0  0  0  0
    6.1436   -4.9490   22.5798 C   0  0  0  0  0  0  0  0  0  0  0  0
    5.8994   -3.9489   21.6769 C   0  0  0  0  0  0  0  0  0  0  0  0
    5.8218   -2.5034   22.0684 C   0  0  0  0  0  0  0  0  0  0  0  0
    7.1008   -1.7886   21.8403 C   0  0  0  0  0  0  0  0  0  0  0  0
    8.1036   -1.9907   22.6355 N   0  0  0  0  0  0  0  0  0  0  0  0
    9.0690   -1.1539   22.1198 C   0  0  0  0  0  0  0  0  0  0  0  0
   10.4114   -1.0421   22.7567 C   0  0  0  0  0  0  0  0  0  0  0  0
   11.1585   -2.3370   22.5416 C   0  0  0  0  0  0  0  0  0  0  0  0
   10.6264   -3.2431   23.6444 C   0  0  0  0  0  0  0  0  0  0  0  0
    9.9711   -2.3815   24.5869 O   0  0  0  0  0  0  0  0  0  0  0  0
   10.2351   -1.0167   24.2558 C   0  0  0  0  0  0  0  0  0  0  0  0
    9.4112   -0.3653   24.5535 H   0  0  0  0  0  0  0  0  0  0  0  0
   11.1419   -0.6633   24.7500 H   0  0  0  0  0  0  0  0  0  0  0  0
    9.9042   -3.9509   23.2286 H   0  0  0  0  0  0  0  0  0  0  0  0
   11.4353   -3.8059   24.1185 H   0  0  0  0  0  0  0  0  0  0  0  0
   10.9299   -2.7235   21.5558 H   0  0  0  0  0  0  0  0  0  0  0  0
   12.2380   -2.2092   22.6233 H   0  0  0  0  0  0  0  0  0  0  0  0
   10.9445   -0.1704   22.3757 H   0  0  0  0  0  0  0  0  0  0  0  0
    8.7307   -0.4800   21.0546 N   0  0  0  0  0  0  0  0  0  0  0  0
    7.4547   -0.8709   20.8533 N   0  0  0  0  0  0  0  0  0  0  0  0
    6.6961   -0.2772   19.8369 C   0  0  0  0  0  0  0  0  0  0  0  0
    5.3645    0.1254   19.9981 C   0  0  0  0  0  0  0  0  0  0  0  0
    4.7995    0.8774   18.9617 C   0  0  0  0  0  0  0  0  0  0  0  0
    5.5436    1.1730   17.8108 C   0  0  0  0  0  0  0  0  0  0  0  0
    6.8017    0.7433   17.6337 N   0  0  0  0  0  0  0  0  0  0  0  0
    7.3611    0.0477   18.6391 C   0  0  0  0  0  0  0  0  0  0  0  0
    8.3902   -0.2764   18.5271 H   0  0  0  0  0  0  0  0  0  0  0  0
    5.1009    1.7945   17.0386 H   0  0  0  0  0  0  0  0  0  0  0  0
    3.7946    1.2755   19.0285 H   0  0  0  0  0  0  0  0  0  0  0  0
    4.7989   -0.0770   20.9096 H   0  0  0  0  0  0  0  0  0  0  0  0
    5.6125   -2.4627   23.1428 H   0  0  0  0  0  0  0  0  0  0  0  0
    5.0364   -1.9983   21.5081 H   0  0  0  0  0  0  0  0  0  0  0  0
    6.3865   -4.7538   23.6187 H   0  0  0  0  0  0  0  0  0  0  0  0
    5.3451   -6.4127   19.4425 H   0  0  0  0  0  0  0  0  0  0  0  0
  1  2  1  0
  2  3  2  0
  3  4  1  0
  4  5  1  0
  5  6  2  0
  6  7  1  0
  7  8  1  0
  8  9  2  0
  9 10  1  0
 10 11  1  0
 11 12  1  0
 12 13  1  0
 13 14  1  0
 14 15  1  0
 15 16  1  0
 15 17  1  0
 13 18  1  0
 13 19  1  0
 12 20  1  0
 12 21  1  0
 11 22  1  0
 10 23  2  0
 23 24  1  0
 24 25  1  0
 25 26  2  0
 26 27  1  0
 27 28  2  0
 28 29  1  0
 29 30  2  0
 30 31  1  0
 28 32  1  0
 27 33  1  0
 26 34  1  0
  7 35  1  0
  7 36  1  0
  5 37  1  0
  3 38  1  0
  6  2  1  0
 24  8  1  0
 30 25  1  0
 15 11  1  0
M  END
>  <cnnaffinity>  (1) 
-5.68273

>  <filename>  (1) 
Brc1cscc1Cc1nc(C2CCOC2)nn1-c1cccnc1

$$$$
