
     RDKit          3D

 36 39  0  0  0  0  0  0  0  0999 V2000
    9.5837    2.0575   21.0170 Br  0  0  0  0  0  0  0  0  0  0  0  0
    9.6584    2.0982   22.8800 C   0  0  0  0  0  0  0  0  0  0  0  0
   10.8349    2.3922   23.4560 N   0  0  0  0  0  0  0  0  0  0  0  0
   10.9165    2.2343   24.7748 C   0  0  0  0  0  0  0  0  0  0  0  0
    9.8187    1.8304   25.5394 C   0  0  0  0  0  0  0  0  0  0  0  0
    8.5824    1.5637   24.9578 C   0  0  0  0  0  0  0  0  0  0  0  0
    8.5032    1.6786   23.5737 C   0  0  0  0  0  0  0  0  0  0  0  0
    7.2622    1.2030   22.8217 C   0  0  0  0  0  0  0  0  0  0  0  0
    7.5264   -0.1667   22.2357 C   0  0  0  0  0  0  0  0  0  0  0  0
    8.0329   -1.1367   22.9436 N   0  0  0  0  0  0  0  0  0  0  0  0
    8.2120   -2.1495   22.0236 C   0  0  0  0  0  0  0  0  0  0  0  0
    8.8627   -3.4541   22.3958 C   0  0  0  0  0  0  0  0  0  0  0  0
    8.1958   -4.7968   22.0677 C   0  0  0  0  0  0  0  0  0  0  0  0
    8.3639   -4.3612   23.5195 C   0  0  0  0  0  0  0  0  0  0  0  0
    9.1399   -4.8535   24.1168 H   0  0  0  0  0  0  0  0  0  0  0  0
    7.4658   -4.0687   24.0717 H   0  0  0  0  0  0  0  0  0  0  0  0
    7.1858   -4.7808   21.6450 H   0  0  0  0  0  0  0  0  0  0  0  0
    8.8055   -5.6428   21.7370 H   0  0  0  0  0  0  0  0  0  0  0  0
    9.9457   -3.3643   22.3015 H   0  0  0  0  0  0  0  0  0  0  0  0
    7.8555   -1.8522   20.7963 N   0  0  0  0  0  0  0  0  0  0  0  0
    7.3677   -0.5994   20.9192 N   0  0  0  0  0  0  0  0  0  0  0  0
    6.6876    0.0497   19.8851 C   0  0  0  0  0  0  0  0  0  0  0  0
    5.5069    0.7477   20.1421 C   0  0  0  0  0  0  0  0  0  0  0  0
    4.8634    1.3670   19.0712 C   0  0  0  0  0  0  0  0  0  0  0  0
    5.4178    1.3060   17.7874 C   0  0  0  0  0  0  0  0  0  0  0  0
    6.5368    0.6014   17.5313 N   0  0  0  0  0  0  0  0  0  0  0  0
    7.1462   -0.0287   18.5548 C   0  0  0  0  0  0  0  0  0  0  0  0
    8.0439   -0.5998   18.3340 H   0  0  0  0  0  0  0  0  0  0  0  0
    4.9316    1.8373   16.9742 H   0  0  0  0  0  0  0  0  0  0  0  0
    3.9375    1.9086   19.2188 H   0  0  0  0  0  0  0  0  0  0  0  0
    5.0901    0.7852   21.1486 H   0  0  0  0  0  0  0  0  0  0  0  0
    7.0041    1.9061   22.0252 H   0  0  0  0  0  0  0  0  0  0  0  0
    6.3976    1.1499   23.4881 H   0  0  0  0  0  0  0  0  0  0  0  0
    7.7385    1.2148   25.5593 H   0  0  0  0  0  0  0  0  0  0  0  0
    9.9553    1.6764   26.5871 H   0  0  0  0  0  0  0  0  0  0  0  0
   11.8745    2.3935   25.2648 H   0  0  0  0  0  0  0  0  0  0  0  0
  1  2  1  0
  2  3  2  0
  3  4  1  0
  4  5  2  0
  5  6  1  0
  6  7  2  0
  7  8  1  0
  8  9  1  0
  9 10  2  0
 10 11  1  0
 11 12  1  0
 12 13  1  0
 13 14  1  0
 14 15  1  0
 14 16  1  0
 13 17  1  0
 13 18  1  0
 12 19  1  0
 11 20  2  0
 20 21  1  0
 21 22  1  0
 22 23  2  0
 23 24  1  0
 24 25  2  0
 25 26  1  0
 26 27  2  0
 27 28  1  0
 25 29  1  0
 24 30  1  0
 23 31  1  0
  8 32  1  0
  8 33  1  0
  6 34  1  0
  5 35  1  0
  4 36  1  0
  7  2  1  0
 21  9  1  0
 27 22  1  0
 14 12  1  0
M  END
>  <cnnaffinity>  (1) 
-6.11884

>  <filename>  (1) 
Brc1ncccc1Cc1nc(C2CC2)nn1-c1cccnc1

$$$$
