
     RDKit          3D

 41 44  0  0  0  0  0  0  0  0999 V2000
    3.0653    2.4862   26.3189 Br  0  0  0  0  0  0  0  0  0  0  0  0
    4.5231    2.1100   25.1397 C   0  0  0  0  0  0  0  0  0  0  0  0
    5.4908    1.1655   25.4950 C   0  0  0  0  0  0  0  0  0  0  0  0
    6.5593    0.8924   24.6342 C   0  0  0  0  0  0  0  0  0  0  0  0
    6.6687    1.5629   23.4084 C   0  0  0  0  0  0  0  0  0  0  0  0
    7.8319    1.2807   22.4974 C   0  0  0  0  0  0  0  0  0  0  0  0
    7.8530   -0.1603   22.0897 C   0  0  0  0  0  0  0  0  0  0  0  0
    8.4481   -1.0884   22.7768 N   0  0  0  0  0  0  0  0  0  0  0  0
    8.2563   -2.2019   21.9824 C   0  0  0  0  0  0  0  0  0  0  0  0
    8.8453   -3.5184   22.3544 C   0  0  0  0  0  0  0  0  0  0  0  0
    8.0750   -4.7322   21.8040 C   0  0  0  0  0  0  0  0  0  0  0  0
    8.3842   -5.8667   22.7713 C   0  0  0  0  0  0  0  0  0  0  0  0
    8.8817   -5.2547   23.9637 O   0  0  0  0  0  0  0  0  0  0  0  0
    8.9319   -3.8287   23.8345 C   0  0  0  0  0  0  0  0  0  0  0  0
    9.8756   -3.4546   24.2532 H   0  0  0  0  0  0  0  0  0  0  0  0
    8.0957   -3.3764   24.3727 H   0  0  0  0  0  0  0  0  0  0  0  0
    9.1402   -6.5382   22.3530 H   0  0  0  0  0  0  0  0  0  0  0  0
    7.4887   -6.4648   22.9819 H   0  0  0  0  0  0  0  0  0  0  0  0
    8.3361   -5.0005   20.7747 H   0  0  0  0  0  0  0  0  0  0  0  0
    7.0008   -4.5276   21.8240 H   0  0  0  0  0  0  0  0  0  0  0  0
    9.8662   -3.4197   22.0077 H   0  0  0  0  0  0  0  0  0  0  0  0
    7.6526   -1.9972   20.8380 N   0  0  0  0  0  0  0  0  0  0  0  0
    7.3420   -0.6889   20.9101 N   0  0  0  0  0  0  0  0  0  0  0  0
    6.6651    0.0036   19.9075 C   0  0  0  0  0  0  0  0  0  0  0  0
    5.4597    0.6601   20.1748 C   0  0  0  0  0  0  0  0  0  0  0  0
    4.8289    1.3098   19.1100 C   0  0  0  0  0  0  0  0  0  0  0  0
    5.4044    1.2942   17.8317 C   0  0  0  0  0  0  0  0  0  0  0  0
    6.5667    0.6658   17.5798 N   0  0  0  0  0  0  0  0  0  0  0  0
    7.1773    0.0332   18.5989 C   0  0  0  0  0  0  0  0  0  0  0  0
    8.1269   -0.4530   18.4010 H   0  0  0  0  0  0  0  0  0  0  0  0
    4.8896    1.7968   17.0154 H   0  0  0  0  0  0  0  0  0  0  0  0
    3.8879    1.8287   19.2589 H   0  0  0  0  0  0  0  0  0  0  0  0
    5.0141    0.6397   21.1709 H   0  0  0  0  0  0  0  0  0  0  0  0
    7.7720    1.9015   21.6003 H   0  0  0  0  0  0  0  0  0  0  0  0
    8.7674    1.5179   23.0167 H   0  0  0  0  0  0  0  0  0  0  0  0
    5.6981    2.5076   23.0523 C   0  0  0  0  0  0  0  0  0  0  0  0
    4.6312    2.7801   23.9167 C   0  0  0  0  0  0  0  0  0  0  0  0
    3.8895    3.5232   23.6452 H   0  0  0  0  0  0  0  0  0  0  0  0
    5.7807    3.0402   22.1084 H   0  0  0  0  0  0  0  0  0  0  0  0
    7.3102    0.1603   24.9167 H   0  0  0  0  0  0  0  0  0  0  0  0
    5.4131    0.6485   26.4454 H   0  0  0  0  0  0  0  0  0  0  0  0
  1  2  1  0
  2  3  2  0
  3  4  1  0
  4  5  2  0
  5  6  1  0
  6  7  1  0
  7  8  2  0
  8  9  1  0
  9 10  1  0
 10 11  1  0
 11 12  1  0
 12 13  1  0
 13 14  1  0
 14 15  1  0
 14 16  1  0
 12 17  1  0
 12 18  1  0
 11 19  1  0
 11 20  1  0
 10 21  1  0
  9 22  2  0
 22 23  1  0
 23 24  1  0
 24 25  2  0
 25 26  1  0
 26 27  2  0
 27 28  1  0
 28 29  2  0
 29 30  1  0
 27 31  1  0
 26 32  1  0
 25 33  1  0
  6 34  1  0
  6 35  1  0
  5 36  1  0
 36 37  2  0
 37 38  1  0
 36 39  1  0
  4 40  1  0
  3 41  1  0
 37  2  1  0
 23  7  1  0
 29 24  1  0
 14 10  1  0
M  END
>  <cnnaffinity>  (1) 
-5.78644

>  <filename>  (1) 
Brc1ccc(Cc2nc(C3CCOC3)nn2-c2cccnc2)cc1

$$$$
