
     RDKit          3D

 31 33  0  0  0  0  0  0  0  0999 V2000
    5.0385    1.8269   17.0257 H   0  0  0  0  0  0  0  0  0  0  0  0
    5.4859    1.2658   17.8435 C   0  0  0  0  0  0  0  0  0  0  0  0
    6.6350    0.6035   17.6301 N   0  0  0  0  0  0  0  0  0  0  0  0
    7.1951   -0.0588   18.6618 C   0  0  0  0  0  0  0  0  0  0  0  0
    8.1370   -0.5669   18.4861 H   0  0  0  0  0  0  0  0  0  0  0  0
    6.6386   -0.1000   19.9488 C   0  0  0  0  0  0  0  0  0  0  0  0
    7.3925   -0.7887   21.0802 C   0  0  0  0  0  0  0  0  0  0  0  0
    7.1018   -2.2697   21.3115 C   0  0  0  0  0  0  0  0  0  0  0  0
    7.6518   -2.8418   22.4747 C   0  0  0  0  0  0  0  0  0  0  0  0
    8.2431   -2.2133   23.1335 H   0  0  0  0  0  0  0  0  0  0  0  0
    7.4493   -4.1854   22.7964 C   0  0  0  0  0  0  0  0  0  0  0  0
    7.8538   -4.5835   23.7203 H   0  0  0  0  0  0  0  0  0  0  0  0
    6.7588   -5.0117   21.9060 C   0  0  0  0  0  0  0  0  0  0  0  0
    6.6095   -6.0640   22.1264 H   0  0  0  0  0  0  0  0  0  0  0  0
    6.2900   -4.4894   20.7009 C   0  0  0  0  0  0  0  0  0  0  0  0
    5.5798   -5.6798   19.3977 Br  0  0  0  0  0  0  0  0  0  0  0  0
    6.4094   -3.1204   20.4221 C   0  0  0  0  0  0  0  0  0  0  0  0
    6.0050   -2.7648   19.4797 H   0  0  0  0  0  0  0  0  0  0  0  0
    8.9136   -0.5598   21.0236 C   0  0  0  0  0  0  0  0  0  0  0  0
    9.2278    0.1318   20.2407 H   0  0  0  0  0  0  0  0  0  0  0  0
    9.5127   -1.4714   20.9403 H   0  0  0  0  0  0  0  0  0  0  0  0
    8.9208    0.0685   22.4089 C   0  0  0  0  0  0  0  0  0  0  0  0
    9.3734   -0.5648   23.1754 H   0  0  0  0  0  0  0  0  0  0  0  0
    9.3613    1.0682   22.4697 H   0  0  0  0  0  0  0  0  0  0  0  0
    7.4002    0.0182   22.3971 C   0  0  0  0  0  0  0  0  0  0  0  0
    6.9511    1.0092   22.3237 H   0  0  0  0  0  0  0  0  0  0  0  0
    6.9590   -0.4930   23.2578 H   0  0  0  0  0  0  0  0  0  0  0  0
    5.4355    0.5817   20.1638 C   0  0  0  0  0  0  0  0  0  0  0  0
    4.9694    0.5968   21.1454 H   0  0  0  0  0  0  0  0  0  0  0  0
    4.8616    1.2708   19.0926 C   0  0  0  0  0  0  0  0  0  0  0  0
    3.9407    1.8264   19.2136 H   0  0  0  0  0  0  0  0  0  0  0  0
  1  2  1  0
  2  3  2  0
  3  4  1  0
  4  5  1  0
  4  6  2  0
  6  7  1  0
  7  8  1  0
  8  9  2  0
  9 10  1  0
  9 11  1  0
 11 12  1  0
 11 13  2  0
 13 14  1  0
 13 15  1  0
 15 16  1  0
 15 17  2  0
 17 18  1  0
  7 19  1  0
 19 20  1  0
 19 21  1  0
 19 22  1  0
 22 23  1  0
 22 24  1  0
 22 25  1  0
 25 26  1  0
 25 27  1  0
  6 28  1  0
 28 29  1  0
 28 30  2  0
 30 31  1  0
 30  2  1  0
 25  7  1  0
 17  8  1  0
M  END
>  <cnnaffinity>  (1) 
-4.23481

>  <filename>  (1) 
Brc1cccc(C2(c3cccnc3)CCC2)c1

$$$$
