
     RDKit          3D

 40 43  0  0  0  0  0  0  0  0999 V2000
    5.6951   -4.3591   19.1189 Br  0  0  0  0  0  0  0  0  0  0  0  0
    5.6976   -4.8598   20.9399 C   0  0  0  0  0  0  0  0  0  0  0  0
    5.6037   -6.1576   21.2649 N   0  0  0  0  0  0  0  0  0  0  0  0
    5.4536   -6.4705   22.5539 C   0  0  0  0  0  0  0  0  0  0  0  0
    5.3957   -5.4861   23.5461 C   0  0  0  0  0  0  0  0  0  0  0  0
    5.5286   -4.1353   23.2170 C   0  0  0  0  0  0  0  0  0  0  0  0
    5.6851   -3.8128   21.8692 C   0  0  0  0  0  0  0  0  0  0  0  0
    5.7800   -2.3856   21.3650 C   0  0  0  0  0  0  0  0  0  0  0  0
    7.0389   -1.6433   21.7248 C   0  0  0  0  0  0  0  0  0  0  0  0
    7.9768   -2.0042   22.5524 N   0  0  0  0  0  0  0  0  0  0  0  0
    9.0061   -1.0987   22.2799 C   0  0  0  0  0  0  0  0  0  0  0  0
   10.3572   -1.1921   22.9734 C   0  0  0  0  0  0  0  0  0  0  0  0
   10.5765   -0.0360   23.9543 C   0  0  0  0  0  0  0  0  0  0  0  0
   12.0478    0.3067   23.8226 C   0  0  0  0  0  0  0  0  0  0  0  0
   12.4343   -0.1874   22.4370 C   0  0  0  0  0  0  0  0  0  0  0  0
   11.4756   -1.1786   22.0619 O   0  0  0  0  0  0  0  0  0  0  0  0
   13.4392   -0.6223   22.4354 H   0  0  0  0  0  0  0  0  0  0  0  0
   12.4046    0.6423   21.7239 H   0  0  0  0  0  0  0  0  0  0  0  0
   12.6326   -0.2098   24.5869 H   0  0  0  0  0  0  0  0  0  0  0  0
   12.2197    1.3818   23.9276 H   0  0  0  0  0  0  0  0  0  0  0  0
   10.3160   -0.3180   24.9808 H   0  0  0  0  0  0  0  0  0  0  0  0
    9.9702    0.8300   23.6701 H   0  0  0  0  0  0  0  0  0  0  0  0
   10.3862   -2.1386   23.5209 H   0  0  0  0  0  0  0  0  0  0  0  0
    8.7136   -0.2028   21.3597 N   0  0  0  0  0  0  0  0  0  0  0  0
    7.4408   -0.5145   21.0339 N   0  0  0  0  0  0  0  0  0  0  0  0
    6.7263    0.0903   19.9981 C   0  0  0  0  0  0  0  0  0  0  0  0
    5.4580    0.6439   20.2008 C   0  0  0  0  0  0  0  0  0  0  0  0
    4.8279    1.2422   19.1058 C   0  0  0  0  0  0  0  0  0  0  0  0
    5.4580    1.2485   17.8536 C   0  0  0  0  0  0  0  0  0  0  0  0
    6.6632    0.6898   17.6520 N   0  0  0  0  0  0  0  0  0  0  0  0
    7.2836    0.1328   18.7111 C   0  0  0  0  0  0  0  0  0  0  0  0
    8.2465   -0.3398   18.5582 H   0  0  0  0  0  0  0  0  0  0  0  0
    4.9490    1.7164   17.0165 H   0  0  0  0  0  0  0  0  0  0  0  0
    3.8621    1.7209   19.2104 H   0  0  0  0  0  0  0  0  0  0  0  0
    4.9883    0.6425   21.1860 H   0  0  0  0  0  0  0  0  0  0  0  0
    4.9231   -1.8325   21.6769 H   0  0  0  0  0  0  0  0  0  0  0  0
    5.7025   -2.3627   20.2751 H   0  0  0  0  0  0  0  0  0  0  0  0
    5.4838   -3.3612   23.9864 H   0  0  0  0  0  0  0  0  0  0  0  0
    5.2530   -5.7980   24.5719 H   0  0  0  0  0  0  0  0  0  0  0  0
    5.3521   -7.5229   22.8152 H   0  0  0  0  0  0  0  0  0  0  0  0
  1  2  1  0
  2  3  2  0
  3  4  1  0
  4  5  2  0
  5  6  1  0
  6  7  2  0
  7  8  1  0
  8  9  1  0
  9 10  2  0
 10 11  1  0
 11 12  1  0
 12 13  1  0
 13 14  1  0
 14 15  1  0
 15 16  1  0
 15 17  1  0
 15 18  1  0
 14 19  1  0
 14 20  1  0
 13 21  1  0
 13 22  1  0
 12 23  1  0
 11 24  2  0
 24 25  1  0
 25 26  1  0
 26 27  2  0
 27 28  1  0
 28 29  2  0
 29 30  1  0
 30 31  2  0
 31 32  1  0
 29 33  1  0
 28 34  1  0
 27 35  1  0
  8 36  1  0
  8 37  1  0
  6 38  1  0
  5 39  1  0
  4 40  1  0
  7  2  1  0
 25  9  1  0
 31 26  1  0
 16 12  1  0
M  END
>  <cnnaffinity>  (1) 
-6.46969

>  <filename>  (1) 
Brc1ncccc1Cc1nc(C2CCCO2)nn1-c1cccnc1

$$$$
