
     RDKit          3D

 42 45  0  0  0  0  0  0  0  0999 V2000
    6.7819    7.7103   20.7078 Br  0  0  0  0  0  0  0  0  0  0  0  0
    7.3276    6.1134   21.6160 C   0  0  0  0  0  0  0  0  0  0  0  0
    8.6536    5.8871   21.9728 C   0  0  0  0  0  0  0  0  0  0  0  0
    8.9244    4.8128   22.8197 C   0  0  0  0  0  0  0  0  0  0  0  0
    7.8826    3.9919   23.2715 C   0  0  0  0  0  0  0  0  0  0  0  0
    8.1403    2.9283   24.3053 C   0  0  0  0  0  0  0  0  0  0  0  0
    8.4535    1.5685   23.6909 C   0  0  0  0  0  0  0  0  0  0  0  0
    7.2870    1.1362   22.7989 C   0  0  0  0  0  0  0  0  0  0  0  0
    7.5726   -0.2109   22.2083 C   0  0  0  0  0  0  0  0  0  0  0  0
    8.1446   -1.1553   22.8942 N   0  0  0  0  0  0  0  0  0  0  0  0
    8.3044   -2.1570   21.9609 C   0  0  0  0  0  0  0  0  0  0  0  0
    8.9599   -3.4538   22.3239 C   0  0  0  0  0  0  0  0  0  0  0  0
    8.2329   -4.7699   22.0342 C   0  0  0  0  0  0  0  0  0  0  0  0
    8.4665   -4.3284   23.4723 C   0  0  0  0  0  0  0  0  0  0  0  0
    7.5966   -3.9911   24.0433 H   0  0  0  0  0  0  0  0  0  0  0  0
    9.2356   -4.8569   24.0455 H   0  0  0  0  0  0  0  0  0  0  0  0
    7.2147   -4.6995   21.6376 H   0  0  0  0  0  0  0  0  0  0  0  0
    8.8014   -5.6388   21.6938 H   0  0  0  0  0  0  0  0  0  0  0  0
   10.0432   -3.3830   22.2120 H   0  0  0  0  0  0  0  0  0  0  0  0
    7.8835   -1.8733   20.7522 N   0  0  0  0  0  0  0  0  0  0  0  0
    7.3714   -0.6332   20.8994 N   0  0  0  0  0  0  0  0  0  0  0  0
    6.6822    0.0357   19.8841 C   0  0  0  0  0  0  0  0  0  0  0  0
    5.4923    0.7181   20.1507 C   0  0  0  0  0  0  0  0  0  0  0  0
    4.8474    1.3470   19.0834 C   0  0  0  0  0  0  0  0  0  0  0  0
    5.4079    1.3006   17.8012 C   0  0  0  0  0  0  0  0  0  0  0  0
    6.5420    0.6259   17.5397 N   0  0  0  0  0  0  0  0  0  0  0  0
    7.1568   -0.0040   18.5620 C   0  0  0  0  0  0  0  0  0  0  0  0
    8.0738   -0.5472   18.3526 H   0  0  0  0  0  0  0  0  0  0  0  0
    4.9116    1.8229   16.9873 H   0  0  0  0  0  0  0  0  0  0  0  0
    3.9168    1.8801   19.2363 H   0  0  0  0  0  0  0  0  0  0  0  0
    5.0703    0.7350   21.1550 H   0  0  0  0  0  0  0  0  0  0  0  0
    7.1376    1.8790   22.0094 H   0  0  0  0  0  0  0  0  0  0  0  0
    6.3711    1.0746   23.3917 H   0  0  0  0  0  0  0  0  0  0  0  0
    9.3862    1.6141   23.1126 H   0  0  0  0  0  0  0  0  0  0  0  0
    8.5939    0.8257   24.4885 H   0  0  0  0  0  0  0  0  0  0  0  0
    7.2493    2.8300   24.9409 H   0  0  0  0  0  0  0  0  0  0  0  0
    8.9847    3.2345   24.9266 H   0  0  0  0  0  0  0  0  0  0  0  0
    6.6238    4.1608   22.8428 N   0  0  0  0  0  0  0  0  0  0  0  0
    6.3599    5.1944   22.0213 C   0  0  0  0  0  0  0  0  0  0  0  0
    5.3446    5.3779   21.6919 H   0  0  0  0  0  0  0  0  0  0  0  0
    9.9401    4.6334   23.1472 H   0  0  0  0  0  0  0  0  0  0  0  0
    9.4476    6.5588   21.6606 H   0  0  0  0  0  0  0  0  0  0  0  0
  1  2  1  0
  2  3  2  0
  3  4  1  0
  4  5  2  0
  5  6  1  0
  6  7  1  0
  7  8  1  0
  8  9  1  0
  9 10  2  0
 10 11  1  0
 11 12  1  0
 12 13  1  0
 13 14  1  0
 14 15  1  0
 14 16  1  0
 13 17  1  0
 13 18  1  0
 12 19  1  0
 11 20  2  0
 20 21  1  0
 21 22  1  0
 22 23  2  0
 23 24  1  0
 24 25  2  0
 25 26  1  0
 26 27  2  0
 27 28  1  0
 25 29  1  0
 24 30  1  0
 23 31  1  0
  8 32  1  0
  8 33  1  0
  7 34  1  0
  7 35  1  0
  6 36  1  0
  6 37  1  0
  5 38  1  0
 38 39  2  0
 39 40  1  0
  4 41  1  0
  3 42  1  0
 39  2  1  0
 21  9  1  0
 27 22  1  0
 14 12  1  0
M  END
>  <cnnaffinity>  (1) 
-6.17404

>  <filename>  (1) 
Brc1ccc(CCCc2nc(C3CC3)nn2-c2cccnc2)nc1

$$$$
