
     RDKit          3D

 38 41  0  0  0  0  0  0  0  0999 V2000
    6.8300    0.1505   25.8519 Br  0  0  0  0  0  0  0  0  0  0  0  0
    8.2127    1.1800   25.0256 C   0  0  0  0  0  0  0  0  0  0  0  0
    9.4013    1.5017   25.6237 C   0  0  0  0  0  0  0  0  0  0  0  0
   10.4792    2.3947   24.5642 S   0  0  0  0  0  0  0  0  0  0  0  0
    9.2887    2.3095   23.2768 C   0  0  0  0  0  0  0  0  0  0  0  0
    8.1500    1.6426   23.6539 C   0  0  0  0  0  0  0  0  0  0  0  0
    7.0204    1.2542   22.7437 C   0  0  0  0  0  0  0  0  0  0  0  0
    7.3222   -0.1388   22.2511 C   0  0  0  0  0  0  0  0  0  0  0  0
    7.7477   -1.1370   22.9836 N   0  0  0  0  0  0  0  0  0  0  0  0
    8.1074   -2.1077   22.0457 C   0  0  0  0  0  0  0  0  0  0  0  0
    8.6811   -3.4951   22.3175 C   0  0  0  0  0  0  0  0  0  0  0  0
    7.7429   -4.4189   23.1098 C   0  0  0  0  0  0  0  0  0  0  0  0
    8.6788   -5.2508   23.9608 C   0  0  0  0  0  0  0  0  0  0  0  0
    9.8354   -4.2973   24.2017 C   0  0  0  0  0  0  0  0  0  0  0  0
    9.9334   -3.4779   23.0359 O   0  0  0  0  0  0  0  0  0  0  0  0
    9.6402   -3.6582   25.0655 H   0  0  0  0  0  0  0  0  0  0  0  0
   10.7622   -4.8465   24.3766 H   0  0  0  0  0  0  0  0  0  0  0  0
    9.0232   -6.1394   23.4174 H   0  0  0  0  0  0  0  0  0  0  0  0
    8.2051   -5.5711   24.8944 H   0  0  0  0  0  0  0  0  0  0  0  0
    7.1565   -5.0612   22.4428 H   0  0  0  0  0  0  0  0  0  0  0  0
    7.0645   -3.8399   23.7515 H   0  0  0  0  0  0  0  0  0  0  0  0
    8.8435   -3.9520   21.3368 H   0  0  0  0  0  0  0  0  0  0  0  0
    7.8995   -1.7439   20.8005 N   0  0  0  0  0  0  0  0  0  0  0  0
    7.3313   -0.5313   20.9184 N   0  0  0  0  0  0  0  0  0  0  0  0
    6.6659    0.0901   19.8615 C   0  0  0  0  0  0  0  0  0  0  0  0
    5.4946    0.8034   20.1126 C   0  0  0  0  0  0  0  0  0  0  0  0
    4.8583    1.4103   19.0327 C   0  0  0  0  0  0  0  0  0  0  0  0
    5.4180    1.3163   17.7535 C   0  0  0  0  0  0  0  0  0  0  0  0
    6.5293    0.6029   17.4997 N   0  0  0  0  0  0  0  0  0  0  0  0
    7.1266   -0.0212   18.5346 C   0  0  0  0  0  0  0  0  0  0  0  0
    8.0158   -0.6074   18.3240 H   0  0  0  0  0  0  0  0  0  0  0  0
    4.9274    1.8144   16.9237 H   0  0  0  0  0  0  0  0  0  0  0  0
    3.9324    1.9548   19.1754 H   0  0  0  0  0  0  0  0  0  0  0  0
    5.0800    0.8643   21.1182 H   0  0  0  0  0  0  0  0  0  0  0  0
    6.0656    1.2941   23.2742 H   0  0  0  0  0  0  0  0  0  0  0  0
    6.9691    1.9450   21.8983 H   0  0  0  0  0  0  0  0  0  0  0  0
    9.4842    2.6951   22.2819 H   0  0  0  0  0  0  0  0  0  0  0  0
    9.6656    1.2033   26.6298 H   0  0  0  0  0  0  0  0  0  0  0  0
  1  2  1  0
  2  3  2  0
  3  4  1  0
  4  5  1  0
  5  6  2  0
  6  7  1  0
  7  8  1  0
  8  9  2  0
  9 10  1  0
 10 11  1  0
 11 12  1  0
 12 13  1  0
 13 14  1  0
 14 15  1  0
 14 16  1  0
 14 17  1  0
 13 18  1  0
 13 19  1  0
 12 20  1  0
 12 21  1  0
 11 22  1  0
 10 23  2  0
 23 24  1  0
 24 25  1  0
 25 26  2  0
 26 27  1  0
 27 28  2  0
 28 29  1  0
 29 30  2  0
 30 31  1  0
 28 32  1  0
 27 33  1  0
 26 34  1  0
  7 35  1  0
  7 36  1  0
  5 37  1  0
  3 38  1  0
  6  2  1  0
 24  8  1  0
 30 25  1  0
 15 11  1  0
M  END
>  <cnnaffinity>  (1) 
-6.2509

>  <filename>  (1) 
Brc1cscc1Cc1nc(C2CCCO2)nn1-c1cccnc1

$$$$
