
     RDKit          3D

 38 41  0  0  0  0  0  0  0  0999 V2000
   13.0839    1.8717   22.8918 Br  0  0  0  0  0  0  0  0  0  0  0  0
   11.1818    2.0183   22.9774 C   0  0  0  0  0  0  0  0  0  0  0  0
   10.5021    3.2040   23.0812 C   0  0  0  0  0  0  0  0  0  0  0  0
    9.0535    3.0198   23.1132 C   0  0  0  0  0  0  0  0  0  0  0  0
    8.6879    1.7110   22.9892 C   0  0  0  0  0  0  0  0  0  0  0  0
    7.2518    1.2601   22.8416 C   0  0  0  0  0  0  0  0  0  0  0  0
    7.3011   -0.1385   22.3145 C   0  0  0  0  0  0  0  0  0  0  0  0
    7.7121   -1.1045   23.0797 N   0  0  0  0  0  0  0  0  0  0  0  0
    7.9832   -2.1074   22.1741 C   0  0  0  0  0  0  0  0  0  0  0  0
    8.6483   -3.3715   22.6261 C   0  0  0  0  0  0  0  0  0  0  0  0
    7.9308   -4.0946   23.7613 C   0  0  0  0  0  0  0  0  0  0  0  0
    9.0589   -4.7746   24.5272 C   0  0  0  0  0  0  0  0  0  0  0  0
   10.2725   -4.0980   24.1792 O   0  0  0  0  0  0  0  0  0  0  0  0
   10.0158   -3.0645   23.2266 C   0  0  0  0  0  0  0  0  0  0  0  0
   10.7925   -3.0421   22.4547 H   0  0  0  0  0  0  0  0  0  0  0  0
   10.0169   -2.0969   23.7405 H   0  0  0  0  0  0  0  0  0  0  0  0
    9.1359   -5.8272   24.2401 H   0  0  0  0  0  0  0  0  0  0  0  0
    8.8777   -4.7260   25.6056 H   0  0  0  0  0  0  0  0  0  0  0  0
    7.1977   -4.8178   23.3887 H   0  0  0  0  0  0  0  0  0  0  0  0
    7.4145   -3.3836   24.4160 H   0  0  0  0  0  0  0  0  0  0  0  0
    8.7522   -4.0402   21.7731 H   0  0  0  0  0  0  0  0  0  0  0  0
    7.7212   -1.8198   20.9203 N   0  0  0  0  0  0  0  0  0  0  0  0
    7.2128   -0.5689   20.9967 N   0  0  0  0  0  0  0  0  0  0  0  0
    6.6333    0.0989   19.9061 C   0  0  0  0  0  0  0  0  0  0  0  0
    5.5225    0.9210   20.0977 C   0  0  0  0  0  0  0  0  0  0  0  0
    4.9371    1.5137   18.9773 C   0  0  0  0  0  0  0  0  0  0  0  0
    5.4795    1.2910   17.7070 C   0  0  0  0  0  0  0  0  0  0  0  0
    6.5475    0.4942   17.5125 N   0  0  0  0  0  0  0  0  0  0  0  0
    7.1027   -0.0972   18.5926 C   0  0  0  0  0  0  0  0  0  0  0  0
    7.9580   -0.7454   18.4295 H   0  0  0  0  0  0  0  0  0  0  0  0
    5.0169    1.7791   16.8531 H   0  0  0  0  0  0  0  0  0  0  0  0
    4.0657    2.1508   19.0835 H   0  0  0  0  0  0  0  0  0  0  0  0
    5.1088    1.0644   21.0939 H   0  0  0  0  0  0  0  0  0  0  0  0
    6.7569    1.2714   23.8121 H   0  0  0  0  0  0  0  0  0  0  0  0
    6.7009    1.9254   22.1702 H   0  0  0  0  0  0  0  0  0  0  0  0
   10.0982    0.6402   22.8953 S   0  0  0  0  0  0  0  0  0  0  0  0
    8.3276    3.8192   23.2042 H   0  0  0  0  0  0  0  0  0  0  0  0
   10.9965    4.1721   23.0829 H   0  0  0  0  0  0  0  0  0  0  0  0
  1  2  1  0
  2  3  2  0
  3  4  1  0
  4  5  2  0
  5  6  1  0
  6  7  1  0
  7  8  2  0
  8  9  1  0
  9 10  1  0
 10 11  1  0
 11 12  1  0
 12 13  1  0
 13 14  1  0
 14 15  1  0
 14 16  1  0
 12 17  1  0
 12 18  1  0
 11 19  1  0
 11 20  1  0
 10 21  1  0
  9 22  2  0
 22 23  1  0
 23 24  1  0
 24 25  2  0
 25 26  1  0
 26 27  2  0
 27 28  1  0
 28 29  2  0
 29 30  1  0
 27 31  1  0
 26 32  1  0
 25 33  1  0
  6 34  1  0
  6 35  1  0
  5 36  1  0
  4 37  1  0
  3 38  1  0
 36  2  1  0
 23  7  1  0
 29 24  1  0
 14 10  1  0
M  END
>  <cnnaffinity>  (1) 
-6.3647

>  <filename>  (1) 
Brc1ccc(Cc2nc(C3CCOC3)nn2-c2cccnc2)s1

$$$$
