
     RDKit          3D

 42 45  0  0  0  0  0  0  0  0999 V2000
    8.1657    7.9821   24.1676 Br  0  0  0  0  0  0  0  0  0  0  0  0
    8.3937    6.2192   23.4606 C   0  0  0  0  0  0  0  0  0  0  0  0
    9.3260    5.3509   24.0241 C   0  0  0  0  0  0  0  0  0  0  0  0
    9.4369    4.0728   23.4730 C   0  0  0  0  0  0  0  0  0  0  0  0
    8.6057    3.6911   22.4080 C   0  0  0  0  0  0  0  0  0  0  0  0
    8.6205    2.2718   21.9020 C   0  0  0  0  0  0  0  0  0  0  0  0
    7.5211    1.4263   22.5941 C   0  0  0  0  0  0  0  0  0  0  0  0
    7.6310   -0.0240   22.1983 C   0  0  0  0  0  0  0  0  0  0  0  0
    8.1737   -0.9146   22.9661 N   0  0  0  0  0  0  0  0  0  0  0  0
    8.2819   -2.0080   22.1249 C   0  0  0  0  0  0  0  0  0  0  0  0
    9.0284   -3.2252   22.5542 C   0  0  0  0  0  0  0  0  0  0  0  0
   10.4260   -2.9057   23.0968 C   0  0  0  0  0  0  0  0  0  0  0  0
   10.0417   -3.5283   24.4327 C   0  0  0  0  0  0  0  0  0  0  0  0
    8.6437   -3.8314   23.9013 C   0  0  0  0  0  0  0  0  0  0  0  0
    7.8261   -3.2893   24.4020 H   0  0  0  0  0  0  0  0  0  0  0  0
    8.4280   -4.9054   23.8534 H   0  0  0  0  0  0  0  0  0  0  0  0
   10.6256   -4.4115   24.7121 H   0  0  0  0  0  0  0  0  0  0  0  0
   10.0494   -2.8141   25.2556 H   0  0  0  0  0  0  0  0  0  0  0  0
   10.6639   -1.8367   23.1695 H   0  0  0  0  0  0  0  0  0  0  0  0
   11.2384   -3.3962   22.5665 H   0  0  0  0  0  0  0  0  0  0  0  0
    8.9892   -3.9573   21.7457 H   0  0  0  0  0  0  0  0  0  0  0  0
    7.8156   -1.8555   20.9126 N   0  0  0  0  0  0  0  0  0  0  0  0
    7.3336   -0.5990   20.9679 N   0  0  0  0  0  0  0  0  0  0  0  0
    6.6801    0.0085   19.9078 C   0  0  0  0  0  0  0  0  0  0  0  0
    5.5593    0.7980   20.1467 C   0  0  0  0  0  0  0  0  0  0  0  0
    4.9542    1.4036   19.0513 C   0  0  0  0  0  0  0  0  0  0  0  0
    5.4844    1.2210   17.7692 C   0  0  0  0  0  0  0  0  0  0  0  0
    6.5464    0.4239   17.5331 N   0  0  0  0  0  0  0  0  0  0  0  0
    7.1219   -0.1849   18.5874 C   0  0  0  0  0  0  0  0  0  0  0  0
    7.9789   -0.8324   18.4128 H   0  0  0  0  0  0  0  0  0  0  0  0
    5.0191    1.7385   16.9377 H   0  0  0  0  0  0  0  0  0  0  0  0
    4.0828    2.0321   19.1879 H   0  0  0  0  0  0  0  0  0  0  0  0
    5.1666    0.9095   21.1576 H   0  0  0  0  0  0  0  0  0  0  0  0
    6.5340    1.8090   22.3225 H   0  0  0  0  0  0  0  0  0  0  0  0
    7.6302    1.5020   23.6826 H   0  0  0  0  0  0  0  0  0  0  0  0
    9.6073    1.8320   22.0852 H   0  0  0  0  0  0  0  0  0  0  0  0
    8.4539    2.2824   20.8189 H   0  0  0  0  0  0  0  0  0  0  0  0
    7.7203    4.5393   21.8690 N   0  0  0  0  0  0  0  0  0  0  0  0
    7.6193    5.7772   22.3769 C   0  0  0  0  0  0  0  0  0  0  0  0
    6.8861    6.4506   21.9443 H   0  0  0  0  0  0  0  0  0  0  0  0
   10.1463    3.3603   23.8759 H   0  0  0  0  0  0  0  0  0  0  0  0
    9.9294    5.6629   24.8773 H   0  0  0  0  0  0  0  0  0  0  0  0
  1  2  1  0
  2  3  2  0
  3  4  1  0
  4  5  2  0
  5  6  1  0
  6  7  1  0
  7  8  1  0
  8  9  2  0
  9 10  1  0
 10 11  1  0
 11 12  1  0
 12 13  1  0
 13 14  1  0
 14 15  1  0
 14 16  1  0
 13 17  1  0
 13 18  1  0
 12 19  1  0
 12 20  1  0
 11 21  1  0
 10 22  2  0
 22 23  1  0
 23 24  1  0
 24 25  2  0
 25 26  1  0
 26 27  2  0
 27 28  1  0
 28 29  2  0
 29 30  1  0
 27 31  1  0
 26 32  1  0
 25 33  1  0
  7 34  1  0
  7 35  1  0
  6 36  1  0
  6 37  1  0
  5 38  1  0
 38 39  2  0
 39 40  1  0
  4 41  1  0
  3 42  1  0
 39  2  1  0
 23  8  1  0
 29 24  1  0
 14 11  1  0
M  END
>  <cnnaffinity>  (1) 
-6.3956

>  <filename>  (1) 
Brc1ccc(CCc2nc(C3CCC3)nn2-c2cccnc2)nc1

$$$$
