
     RDKit          3D

 37 40  0  0  0  0  0  0  0  0999 V2000
    6.1343   -0.2780   25.2154 Br  0  0  0  0  0  0  0  0  0  0  0  0
    6.4521    1.2790   24.1501 C   0  0  0  0  0  0  0  0  0  0  0  0
    6.2460    2.4722   24.7289 N   0  0  0  0  0  0  0  0  0  0  0  0
    6.5298    3.5932   24.0473 C   0  0  0  0  0  0  0  0  0  0  0  0
    7.0143    3.5568   22.7396 C   0  0  0  0  0  0  0  0  0  0  0  0
    7.1802    2.3339   22.0973 C   0  0  0  0  0  0  0  0  0  0  0  0
    6.8974    1.1718   22.8264 C   0  0  0  0  0  0  0  0  0  0  0  0
    7.2007   -0.1370   22.2776 C   0  0  0  0  0  0  0  0  0  0  0  0
    7.6571   -1.0929   23.0279 N   0  0  0  0  0  0  0  0  0  0  0  0
    8.0975   -2.0046   22.0863 C   0  0  0  0  0  0  0  0  0  0  0  0
    8.9839   -3.1671   22.3947 C   0  0  0  0  0  0  0  0  0  0  0  0
   10.2878   -2.6558   23.0245 C   0  0  0  0  0  0  0  0  0  0  0  0
   10.2006   -3.0892   24.4762 C   0  0  0  0  0  0  0  0  0  0  0  0
    8.8631   -3.5428   24.6821 O   0  0  0  0  0  0  0  0  0  0  0  0
    8.4039   -4.0893   23.4547 C   0  0  0  0  0  0  0  0  0  0  0  0
    8.8021   -5.1039   23.3535 H   0  0  0  0  0  0  0  0  0  0  0  0
    7.3144   -4.1421   23.4182 H   0  0  0  0  0  0  0  0  0  0  0  0
   10.3814   -2.2179   25.0994 H   0  0  0  0  0  0  0  0  0  0  0  0
   10.9268   -3.8757   24.7181 H   0  0  0  0  0  0  0  0  0  0  0  0
   10.3707   -1.5629   22.9873 H   0  0  0  0  0  0  0  0  0  0  0  0
   11.1740   -3.0601   22.5287 H   0  0  0  0  0  0  0  0  0  0  0  0
    9.1380   -3.7043   21.4645 H   0  0  0  0  0  0  0  0  0  0  0  0
    7.8702   -1.7039   20.8316 N   0  0  0  0  0  0  0  0  0  0  0  0
    7.2384   -0.5173   20.9350 N   0  0  0  0  0  0  0  0  0  0  0  0
    6.6288    0.1286   19.8533 C   0  0  0  0  0  0  0  0  0  0  0  0
    5.4990    0.9261   20.0664 C   0  0  0  0  0  0  0  0  0  0  0  0
    4.8930    1.5141   18.9575 C   0  0  0  0  0  0  0  0  0  0  0  0
    5.4373    1.3175   17.6819 C   0  0  0  0  0  0  0  0  0  0  0  0
    6.5190    0.5456   17.4652 N   0  0  0  0  0  0  0  0  0  0  0  0
    7.0916   -0.0457   18.5330 C   0  0  0  0  0  0  0  0  0  0  0  0
    7.9580   -0.6766   18.3570 H   0  0  0  0  0  0  0  0  0  0  0  0
    4.9597    1.8040   16.8386 H   0  0  0  0  0  0  0  0  0  0  0  0
    4.0037    2.1263   19.0729 H   0  0  0  0  0  0  0  0  0  0  0  0
    5.0907    1.0601   21.0687 H   0  0  0  0  0  0  0  0  0  0  0  0
    7.5673    2.2984   21.0782 H   0  0  0  0  0  0  0  0  0  0  0  0
    7.2754    4.4830   22.2391 H   0  0  0  0  0  0  0  0  0  0  0  0
    6.4123    4.5552   24.5400 H   0  0  0  0  0  0  0  0  0  0  0  0
  1  2  1  0
  2  3  2  0
  3  4  1  0
  4  5  2  0
  5  6  1  0
  6  7  2  0
  7  8  1  0
  8  9  2  0
  9 10  1  0
 10 11  1  0
 11 12  1  0
 12 13  1  0
 13 14  1  0
 14 15  1  0
 15 16  1  0
 15 17  1  0
 13 18  1  0
 13 19  1  0
 12 20  1  0
 12 21  1  0
 11 22  1  0
 10 23  2  0
 23 24  1  0
 24 25  1  0
 25 26  2  0
 26 27  1  0
 27 28  2  0
 28 29  1  0
 29 30  2  0
 30 31  1  0
 28 32  1  0
 27 33  1  0
 26 34  1  0
  6 35  1  0
  5 36  1  0
  4 37  1  0
  7  2  1  0
 24  8  1  0
 30 25  1  0
 15 11  1  0
M  END
>  <cnnaffinity>  (1) 
-5.78335

>  <filename>  (1) 
Brc1ncccc1-c1nc(C2CCOC2)nn1-c1cccnc1

$$$$
