
     RDKit          3D

 42 45  0  0  0  0  0  0  0  0999 V2000
   12.8216   -1.9175   21.7176 Br  0  0  0  0  0  0  0  0  0  0  0  0
   11.4316   -1.0534   22.7020 C   0  0  0  0  0  0  0  0  0  0  0  0
   11.5740    0.2952   23.0539 C   0  0  0  0  0  0  0  0  0  0  0  0
   10.6303    0.9657   23.7400 N   0  0  0  0  0  0  0  0  0  0  0  0
    9.5190    0.3080   24.1138 C   0  0  0  0  0  0  0  0  0  0  0  0
    9.2939   -1.0421   23.8053 C   0  0  0  0  0  0  0  0  0  0  0  0
    8.1074   -1.6523   24.2086 N   0  0  0  0  0  0  0  0  0  0  0  0
    7.4131   -1.3054   25.3163 N   0  0  0  0  0  0  0  0  0  0  0  0
    6.3597   -2.0824   25.2370 C   0  0  0  0  0  0  0  0  0  0  0  0
    5.2678   -2.0465   26.2734 C   0  0  0  0  0  0  0  0  0  0  0  0
    4.6626   -0.7070   26.6922 C   0  0  0  0  0  0  0  0  0  0  0  0
    3.8090   -1.7303   25.9501 C   0  0  0  0  0  0  0  0  0  0  0  0
    3.0422   -2.2541   26.5287 H   0  0  0  0  0  0  0  0  0  0  0  0
    3.5263   -1.5090   24.9201 H   0  0  0  0  0  0  0  0  0  0  0  0
    4.4351   -0.5596   27.7530 H   0  0  0  0  0  0  0  0  0  0  0  0
    4.9704    0.1953   26.1500 H   0  0  0  0  0  0  0  0  0  0  0  0
    5.4277   -2.7757   27.0681 H   0  0  0  0  0  0  0  0  0  0  0  0
    6.3089   -2.9048   24.1200 N   0  0  0  0  0  0  0  0  0  0  0  0
    7.3815   -2.5739   23.4679 C   0  0  0  0  0  0  0  0  0  0  0  0
    7.6482   -3.0446   22.0634 C   0  0  0  0  0  0  0  0  0  0  0  0
    6.8580   -2.1876   21.0609 C   0  0  0  0  0  0  0  0  0  0  0  0
    7.3755   -0.7469   20.9981 C   0  0  0  0  0  0  0  0  0  0  0  0
    6.6597    0.0000   19.8936 C   0  0  0  0  0  0  0  0  0  0  0  0
    5.4478    0.6500   20.1459 C   0  0  0  0  0  0  0  0  0  0  0  0
    4.8259    1.3073   19.0838 C   0  0  0  0  0  0  0  0  0  0  0  0
    5.4199    1.3034   17.8167 C   0  0  0  0  0  0  0  0  0  0  0  0
    6.5817    0.6716   17.5642 N   0  0  0  0  0  0  0  0  0  0  0  0
    7.1846    0.0374   18.5869 C   0  0  0  0  0  0  0  0  0  0  0  0
    8.1238   -0.4717   18.3870 H   0  0  0  0  0  0  0  0  0  0  0  0
    4.9230    1.8293   17.0078 H   0  0  0  0  0  0  0  0  0  0  0  0
    3.8875    1.8323   19.2275 H   0  0  0  0  0  0  0  0  0  0  0  0
    5.0071    0.6441   21.1426 H   0  0  0  0  0  0  0  0  0  0  0  0
    7.2035   -0.2541   21.9616 H   0  0  0  0  0  0  0  0  0  0  0  0
    8.4559   -0.7492   20.8135 H   0  0  0  0  0  0  0  0  0  0  0  0
    6.9280   -2.6337   20.0688 H   0  0  0  0  0  0  0  0  0  0  0  0
    5.7988   -2.1812   21.3354 H   0  0  0  0  0  0  0  0  0  0  0  0
    8.7111   -2.9901   21.8336 H   0  0  0  0  0  0  0  0  0  0  0  0
    7.3401   -4.0897   21.9778 H   0  0  0  0  0  0  0  0  0  0  0  0
   10.2724   -1.7416   23.0860 C   0  0  0  0  0  0  0  0  0  0  0  0
   10.1408   -2.7944   22.8391 H   0  0  0  0  0  0  0  0  0  0  0  0
    8.7303    0.8671   24.6095 H   0  0  0  0  0  0  0  0  0  0  0  0
   12.4679    0.8325   22.7445 H   0  0  0  0  0  0  0  0  0  0  0  0
  1  2  1  0
  2  3  2  0
  3  4  1  0
  4  5  2  0
  5  6  1  0
  6  7  1  0
  7  8  1  0
  8  9  2  0
  9 10  1  0
 10 11  1  0
 11 12  1  0
 12 13  1  0
 12 14  1  0
 11 15  1  0
 11 16  1  0
 10 17  1  0
  9 18  1  0
 18 19  2  0
 19 20  1  0
 20 21  1  0
 21 22  1  0
 22 23  1  0
 23 24  2  0
 24 25  1  0
 25 26  2  0
 26 27  1  0
 27 28  2  0
 28 29  1  0
 26 30  1  0
 25 31  1  0
 24 32  1  0
 22 33  1  0
 22 34  1  0
 21 35  1  0
 21 36  1  0
 20 37  1  0
 20 38  1  0
  6 39  2  0
 39 40  1  0
  5 41  1  0
  3 42  1  0
 39  2  1  0
 19  7  1  0
 28 23  1  0
 12 10  1  0
M  END
>  <cnnaffinity>  (1) 
-6.24154

>  <filename>  (1) 
Brc1cncc(-n2nc(C3CC3)nc2CCCc2cccnc2)c1

$$$$
