
     RDKit          3D

 38 41  0  0  0  0  0  0  0  0999 V2000
   11.6878    1.6199   22.8641 Br  0  0  0  0  0  0  0  0  0  0  0  0
    9.7860    1.8522   22.7865 C   0  0  0  0  0  0  0  0  0  0  0  0
    8.9055    1.1351   23.5505 C   0  0  0  0  0  0  0  0  0  0  0  0
    7.5218    1.4315   23.2148 C   0  0  0  0  0  0  0  0  0  0  0  0
    6.3927    0.5487   23.6350 C   0  0  0  0  0  0  0  0  0  0  0  0
    6.7405   -0.7497   22.9781 C   0  0  0  0  0  0  0  0  0  0  0  0
    7.1157   -1.8233   23.6171 N   0  0  0  0  0  0  0  0  0  0  0  0
    7.6017   -2.6341   22.5908 C   0  0  0  0  0  0  0  0  0  0  0  0
    8.3039   -3.9764   22.7358 C   0  0  0  0  0  0  0  0  0  0  0  0
    7.6759   -4.9306   23.7594 C   0  0  0  0  0  0  0  0  0  0  0  0
    8.8608   -5.4597   24.5560 C   0  0  0  0  0  0  0  0  0  0  0  0
    9.8858   -4.3515   24.4287 C   0  0  0  0  0  0  0  0  0  0  0  0
    9.6885   -3.8373   23.1138 O   0  0  0  0  0  0  0  0  0  0  0  0
    9.6937   -3.5565   25.1558 H   0  0  0  0  0  0  0  0  0  0  0  0
   10.9035   -4.7330   24.5713 H   0  0  0  0  0  0  0  0  0  0  0  0
    8.6125   -5.6645   25.6027 H   0  0  0  0  0  0  0  0  0  0  0  0
    9.2476   -6.3762   24.0993 H   0  0  0  0  0  0  0  0  0  0  0  0
    6.9849   -4.3912   24.4151 H   0  0  0  0  0  0  0  0  0  0  0  0
    7.1316   -5.7423   23.2623 H   0  0  0  0  0  0  0  0  0  0  0  0
    8.2733   -4.4443   21.7500 H   0  0  0  0  0  0  0  0  0  0  0  0
    7.4709   -2.1243   21.3890 N   0  0  0  0  0  0  0  0  0  0  0  0
    6.9146   -0.9188   21.6096 N   0  0  0  0  0  0  0  0  0  0  0  0
    6.5318   -0.0705   20.5613 C   0  0  0  0  0  0  0  0  0  0  0  0
    5.5341    0.8953   20.7064 C   0  0  0  0  0  0  0  0  0  0  0  0
    5.1227    1.5941   19.5724 C   0  0  0  0  0  0  0  0  0  0  0  0
    5.7219    1.3376   18.3372 C   0  0  0  0  0  0  0  0  0  0  0  0
    6.7313    0.4586   18.2081 N   0  0  0  0  0  0  0  0  0  0  0  0
    7.1282   -0.2256   19.3005 C   0  0  0  0  0  0  0  0  0  0  0  0
    7.9507   -0.9302   19.2175 H   0  0  0  0  0  0  0  0  0  0  0  0
    5.3519    1.8520   17.4538 H   0  0  0  0  0  0  0  0  0  0  0  0
    4.3161    2.3146   19.6272 H   0  0  0  0  0  0  0  0  0  0  0  0
    5.0549    1.0762   21.6611 H   0  0  0  0  0  0  0  0  0  0  0  0
    5.4275    0.9127   23.2953 H   0  0  0  0  0  0  0  0  0  0  0  0
    6.3488    0.4608   24.7180 H   0  0  0  0  0  0  0  0  0  0  0  0
    7.3957    2.4066   22.2671 C   0  0  0  0  0  0  0  0  0  0  0  0
    8.9554    2.9756   21.7122 S   0  0  0  0  0  0  0  0  0  0  0  0
    6.4538    2.7129   21.8331 H   0  0  0  0  0  0  0  0  0  0  0  0
    9.1953    0.3823   24.2811 H   0  0  0  0  0  0  0  0  0  0  0  0
  1  2  1  0
  2  3  2  0
  3  4  1  0
  4  5  1  0
  5  6  1  0
  6  7  2  0
  7  8  1  0
  8  9  1  0
  9 10  1  0
 10 11  1  0
 11 12  1  0
 12 13  1  0
 12 14  1  0
 12 15  1  0
 11 16  1  0
 11 17  1  0
 10 18  1  0
 10 19  1  0
  9 20  1  0
  8 21  2  0
 21 22  1  0
 22 23  1  0
 23 24  2  0
 24 25  1  0
 25 26  2  0
 26 27  1  0
 27 28  2  0
 28 29  1  0
 26 30  1  0
 25 31  1  0
 24 32  1  0
  5 33  1  0
  5 34  1  0
  4 35  2  0
 35 36  1  0
 35 37  1  0
  3 38  1  0
 36  2  1  0
 22  6  1  0
 28 23  1  0
 13  9  1  0
M  END
>  <cnnaffinity>  (1) 
-6.32905

>  <filename>  (1) 
Brc1cc(Cc2nc(C3CCCO3)nn2-c2cccnc2)cs1

$$$$
