
     RDKit          3D

 41 44  0  0  0  0  0  0  0  0999 V2000
    7.1341    8.0616   21.2247 Br  0  0  0  0  0  0  0  0  0  0  0  0
    7.6122    6.4812   22.1787 C   0  0  0  0  0  0  0  0  0  0  0  0
    7.5398    6.4339   23.5672 C   0  0  0  0  0  0  0  0  0  0  0  0
    7.8359    5.2385   24.2355 C   0  0  0  0  0  0  0  0  0  0  0  0
    8.1048    4.0597   23.5289 C   0  0  0  0  0  0  0  0  0  0  0  0
    8.2163    2.9073   24.2696 O   0  0  0  0  0  0  0  0  0  0  0  0
    8.4827    1.6680   23.6043 C   0  0  0  0  0  0  0  0  0  0  0  0
    7.2866    1.2152   22.7614 C   0  0  0  0  0  0  0  0  0  0  0  0
    7.5658   -0.1490   22.2035 C   0  0  0  0  0  0  0  0  0  0  0  0
    8.1411   -1.0809   22.9063 N   0  0  0  0  0  0  0  0  0  0  0  0
    8.2753   -2.1131   21.9953 C   0  0  0  0  0  0  0  0  0  0  0  0
    8.9103   -3.4274   22.3553 C   0  0  0  0  0  0  0  0  0  0  0  0
    8.1984   -4.7488   22.0227 C   0  0  0  0  0  0  0  0  0  0  0  0
    8.3963   -4.3304   23.4767 C   0  0  0  0  0  0  0  0  0  0  0  0
    7.5140   -4.0138   24.0391 H   0  0  0  0  0  0  0  0  0  0  0  0
    9.1397   -4.8871   24.0589 H   0  0  0  0  0  0  0  0  0  0  0  0
    8.7649   -5.6236   21.6891 H   0  0  0  0  0  0  0  0  0  0  0  0
    7.1845   -4.6949   21.6140 H   0  0  0  0  0  0  0  0  0  0  0  0
    9.9950   -3.3543   22.2733 H   0  0  0  0  0  0  0  0  0  0  0  0
    7.8480   -1.8513   20.7831 N   0  0  0  0  0  0  0  0  0  0  0  0
    7.3546   -0.6037   20.9071 N   0  0  0  0  0  0  0  0  0  0  0  0
    6.6722    0.0502   19.8798 C   0  0  0  0  0  0  0  0  0  0  0  0
    5.4915    0.7448   20.1426 C   0  0  0  0  0  0  0  0  0  0  0  0
    4.8536    1.3675   19.0703 C   0  0  0  0  0  0  0  0  0  0  0  0
    5.4123    1.2976   17.7882 C   0  0  0  0  0  0  0  0  0  0  0  0
    6.5394    0.6088   17.5303 N   0  0  0  0  0  0  0  0  0  0  0  0
    7.1485   -0.0149   18.5589 C   0  0  0  0  0  0  0  0  0  0  0  0
    8.0610   -0.5679   18.3550 H   0  0  0  0  0  0  0  0  0  0  0  0
    4.9138    1.8148   16.9741 H   0  0  0  0  0  0  0  0  0  0  0  0
    3.9311    1.9144   19.2197 H   0  0  0  0  0  0  0  0  0  0  0  0
    5.0735    0.7757   21.1489 H   0  0  0  0  0  0  0  0  0  0  0  0
    7.1008    1.9240   21.9492 H   0  0  0  0  0  0  0  0  0  0  0  0
    6.3979    1.1747   23.3942 H   0  0  0  0  0  0  0  0  0  0  0  0
    8.6967    0.9104   24.3708 H   0  0  0  0  0  0  0  0  0  0  0  0
    9.3762    1.7604   22.9807 H   0  0  0  0  0  0  0  0  0  0  0  0
    8.2250    4.1285   22.1352 C   0  0  0  0  0  0  0  0  0  0  0  0
    8.0151    5.3482   21.4780 C   0  0  0  0  0  0  0  0  0  0  0  0
    8.1384    5.4301   20.4104 H   0  0  0  0  0  0  0  0  0  0  0  0
    8.4486    3.2310   21.5654 H   0  0  0  0  0  0  0  0  0  0  0  0
    7.8165    5.1992   25.3206 H   0  0  0  0  0  0  0  0  0  0  0  0
    7.2185    7.3227   24.1018 H   0  0  0  0  0  0  0  0  0  0  0  0
  1  2  1  0
  2  3  2  0
  3  4  1  0
  4  5  2  0
  5  6  1  0
  6  7  1  0
  7  8  1  0
  8  9  1  0
  9 10  2  0
 10 11  1  0
 11 12  1  0
 12 13  1  0
 13 14  1  0
 14 15  1  0
 14 16  1  0
 13 17  1  0
 13 18  1  0
 12 19  1  0
 11 20  2  0
 20 21  1  0
 21 22  1  0
 22 23  2  0
 23 24  1  0
 24 25  2  0
 25 26  1  0
 26 27  2  0
 27 28  1  0
 25 29  1  0
 24 30  1  0
 23 31  1  0
  8 32  1  0
  8 33  1  0
  7 34  1  0
  7 35  1  0
  5 36  1  0
 36 37  2  0
 37 38  1  0
 36 39  1  0
  4 40  1  0
  3 41  1  0
 37  2  1  0
 21  9  1  0
 27 22  1  0
 14 12  1  0
M  END
>  <cnnaffinity>  (1) 
-5.78356

>  <filename>  (1) 
Brc1ccc(OCCc2nc(C3CC3)nn2-c2cccnc2)cc1

$$$$
