
     RDKit          3D

 40 44  0  0  0  0  0  0  0  0999 V2000
    7.7384   -5.0378   24.2845 Br  0  0  0  0  0  0  0  0  0  0  0  0
    7.6406   -3.1716   24.6860 C   0  0  0  0  0  0  0  0  0  0  0  0
    7.3169   -2.7569   25.9855 C   0  0  0  0  0  0  0  0  0  0  0  0
    7.2970   -1.4672   26.3524 N   0  0  0  0  0  0  0  0  0  0  0  0
    7.6062   -0.5404   25.4270 C   0  0  0  0  0  0  0  0  0  0  0  0
    7.9164   -0.8609   24.0900 C   0  0  0  0  0  0  0  0  0  0  0  0
    8.3010    0.1719   23.2273 N   0  0  0  0  0  0  0  0  0  0  0  0
    8.9276    1.2635   23.7189 N   0  0  0  0  0  0  0  0  0  0  0  0
    9.2313    1.9558   22.6550 C   0  0  0  0  0  0  0  0  0  0  0  0
    9.9568    3.2829   22.7723 C   0  0  0  0  0  0  0  0  0  0  0  0
   11.1276    3.6525   23.6564 C   0  0  0  0  0  0  0  0  0  0  0  0
   11.3326    3.5744   22.1257 C   0  0  0  0  0  0  0  0  0  0  0  0
   12.7485    2.9712   22.1331 C   0  0  0  0  0  0  0  0  0  0  0  0
   11.7131    2.4193   21.1841 C   0  0  0  0  0  0  0  0  0  0  0  0
   11.2185    1.4631   21.3826 H   0  0  0  0  0  0  0  0  0  0  0  0
   11.7342    2.6777   20.1189 H   0  0  0  0  0  0  0  0  0  0  0  0
   13.0645    2.3226   22.9567 H   0  0  0  0  0  0  0  0  0  0  0  0
   13.5304    3.6761   21.8260 H   0  0  0  0  0  0  0  0  0  0  0  0
   11.5523    2.8538   24.2856 H   0  0  0  0  0  0  0  0  0  0  0  0
   11.2598    4.6663   24.0602 H   0  0  0  0  0  0  0  0  0  0  0  0
    9.2112    4.0706   22.6217 H   0  0  0  0  0  0  0  0  0  0  0  0
    8.7978    1.3752   21.4600 N   0  0  0  0  0  0  0  0  0  0  0  0
    8.1963    0.2742   21.8377 C   0  0  0  0  0  0  0  0  0  0  0  0
    7.4738   -0.7057   20.9186 C   0  0  0  0  0  0  0  0  0  0  0  0
    6.6904   -0.0505   19.7859 C   0  0  0  0  0  0  0  0  0  0  0  0
    5.4761    0.5843   20.0523 C   0  0  0  0  0  0  0  0  0  0  0  0
    4.8463    1.2672   19.0103 C   0  0  0  0  0  0  0  0  0  0  0  0
    5.4215    1.2774   17.7345 C   0  0  0  0  0  0  0  0  0  0  0  0
    6.5505    0.6039   17.4506 N   0  0  0  0  0  0  0  0  0  0  0  0
    7.1657   -0.0471   18.4582 C   0  0  0  0  0  0  0  0  0  0  0  0
    8.0811   -0.5870   18.2382 H   0  0  0  0  0  0  0  0  0  0  0  0
    4.9386    1.8507   16.9475 H   0  0  0  0  0  0  0  0  0  0  0  0
    3.9291    1.8172   19.1833 H   0  0  0  0  0  0  0  0  0  0  0  0
    5.0451    0.5674   21.0516 H   0  0  0  0  0  0  0  0  0  0  0  0
    8.1996   -1.4087   20.5029 H   0  0  0  0  0  0  0  0  0  0  0  0
    6.7755   -1.2801   21.5310 H   0  0  0  0  0  0  0  0  0  0  0  0
    7.9255   -2.2105   23.7113 C   0  0  0  0  0  0  0  0  0  0  0  0
    8.2000   -2.5229   22.7062 H   0  0  0  0  0  0  0  0  0  0  0  0
    7.6259    0.5023   25.7326 H   0  0  0  0  0  0  0  0  0  0  0  0
    7.0774   -3.5038   26.7376 H   0  0  0  0  0  0  0  0  0  0  0  0
  1  2  1  0
  2  3  2  0
  3  4  1  0
  4  5  2  0
  5  6  1  0
  6  7  1  0
  7  8  1  0
  8  9  2  0
  9 10  1  0
 10 11  1  0
 11 12  1  0
 12 13  1  0
 13 14  1  0
 14 15  1  0
 14 16  1  0
 13 17  1  0
 13 18  1  0
 11 19  1  0
 11 20  1  0
 10 21  1  0
  9 22  1  0
 22 23  2  0
 23 24  1  0
 24 25  1  0
 25 26  2  0
 26 27  1  0
 27 28  2  0
 28 29  1  0
 29 30  2  0
 30 31  1  0
 28 32  1  0
 27 33  1  0
 26 34  1  0
 24 35  1  0
 24 36  1  0
  6 37  2  0
 37 38  1  0
  5 39  1  0
  3 40  1  0
 37  2  1  0
 23  7  1  0
 30 25  1  0
 12 10  1  0
 14 12  1  0
M  END
>  <cnnaffinity>  (1) 
-6.31733

>  <filename>  (1) 
Brc1cncc(-n2nc(C3CC34CC4)nc2Cc2cccnc2)c1

$$$$
