
     RDKit          3D

 42 45  0  0  0  0  0  0  0  0999 V2000
    8.6201    3.5139   22.0874 Br  0  0  0  0  0  0  0  0  0  0  0  0
    7.9843    3.8457   23.8607 C   0  0  0  0  0  0  0  0  0  0  0  0
    7.7660    5.1230   24.2287 N   0  0  0  0  0  0  0  0  0  0  0  0
    7.2353    5.3531   25.4367 C   0  0  0  0  0  0  0  0  0  0  0  0
    6.9285    4.3265   26.3323 C   0  0  0  0  0  0  0  0  0  0  0  0
    7.1807    3.0016   25.9859 C   0  0  0  0  0  0  0  0  0  0  0  0
    7.7051    2.7554   24.7170 C   0  0  0  0  0  0  0  0  0  0  0  0
    7.9051    1.3267   24.2691 C   0  0  0  0  0  0  0  0  0  0  0  0
    6.9429    1.0456   23.0910 C   0  0  0  0  0  0  0  0  0  0  0  0
    7.2603   -0.2364   22.3745 C   0  0  0  0  0  0  0  0  0  0  0  0
    7.7124   -1.2961   22.9850 N   0  0  0  0  0  0  0  0  0  0  0  0
    8.0091   -2.1449   21.9356 C   0  0  0  0  0  0  0  0  0  0  0  0
    8.6355   -3.4795   22.1031 C   0  0  0  0  0  0  0  0  0  0  0  0
    7.6716   -4.5062   22.7043 C   0  0  0  0  0  0  0  0  0  0  0  0
    8.0454   -5.9677   22.5260 C   0  0  0  0  0  0  0  0  0  0  0  0
    6.8713   -5.3789   21.7466 C   0  0  0  0  0  0  0  0  0  0  0  0
    7.0088   -5.2079   20.6723 H   0  0  0  0  0  0  0  0  0  0  0  0
    5.8608   -5.6651   22.0556 H   0  0  0  0  0  0  0  0  0  0  0  0
    8.9623   -6.1901   21.9728 H   0  0  0  0  0  0  0  0  0  0  0  0
    7.8252   -6.6423   23.3564 H   0  0  0  0  0  0  0  0  0  0  0  0
    7.1960   -4.2217   23.6554 H   0  0  0  0  0  0  0  0  0  0  0  0
    8.9478   -3.7985   21.1063 H   0  0  0  0  0  0  0  0  0  0  0  0
    9.5170   -3.3746   22.7421 H   0  0  0  0  0  0  0  0  0  0  0  0
    7.7732   -1.6754   20.7414 N   0  0  0  0  0  0  0  0  0  0  0  0
    7.2404   -0.4638   20.9936 N   0  0  0  0  0  0  0  0  0  0  0  0
    6.6231    0.2481   19.9533 C   0  0  0  0  0  0  0  0  0  0  0  0
    5.4895    1.0520   20.1427 C   0  0  0  0  0  0  0  0  0  0  0  0
    4.8731    1.5877   19.0037 C   0  0  0  0  0  0  0  0  0  0  0  0
    5.4012    1.3365   17.7312 C   0  0  0  0  0  0  0  0  0  0  0  0
    6.4917    0.5720   17.5446 N   0  0  0  0  0  0  0  0  0  0  0  0
    7.0779    0.0408   18.6346 C   0  0  0  0  0  0  0  0  0  0  0  0
    7.9439   -0.6007   18.4892 H   0  0  0  0  0  0  0  0  0  0  0  0
    4.9198    1.7731   16.8609 H   0  0  0  0  0  0  0  0  0  0  0  0
    3.9852    2.2076   19.0780 H   0  0  0  0  0  0  0  0  0  0  0  0
    5.0679    1.2259   21.1322 H   0  0  0  0  0  0  0  0  0  0  0  0
    5.9119    1.0099   23.4582 H   0  0  0  0  0  0  0  0  0  0  0  0
    7.0186    1.8545   22.3605 H   0  0  0  0  0  0  0  0  0  0  0  0
    7.6944    0.6390   25.0981 H   0  0  0  0  0  0  0  0  0  0  0  0
    8.9543    1.1652   23.9815 H   0  0  0  0  0  0  0  0  0  0  0  0
    6.9487    2.1805   26.6663 H   0  0  0  0  0  0  0  0  0  0  0  0
    6.4741    4.5734   27.2810 H   0  0  0  0  0  0  0  0  0  0  0  0
    7.0175    6.3747   25.7311 H   0  0  0  0  0  0  0  0  0  0  0  0
  1  2  1  0
  2  3  2  0
  3  4  1  0
  4  5  2  0
  5  6  1  0
  6  7  2  0
  7  8  1  0
  8  9  1  0
  9 10  1  0
 10 11  2  0
 11 12  1  0
 12 13  1  0
 13 14  1  0
 14 15  1  0
 15 16  1  0
 16 17  1  0
 16 18  1  0
 15 19  1  0
 15 20  1  0
 14 21  1  0
 13 22  1  0
 13 23  1  0
 12 24  2  0
 24 25  1  0
 25 26  1  0
 26 27  2  0
 27 28  1  0
 28 29  2  0
 29 30  1  0
 30 31  2  0
 31 32  1  0
 29 33  1  0
 28 34  1  0
 27 35  1  0
  9 36  1  0
  9 37  1  0
  8 38  1  0
  8 39  1  0
  6 40  1  0
  5 41  1  0
  4 42  1  0
  7  2  1  0
 25 10  1  0
 31 26  1  0
 16 14  1  0
M  END
>  <cnnaffinity>  (1) 
-6.28394

>  <filename>  (1) 
Brc1ncccc1CCc1nc(CC2CC2)nn1-c1cccnc1

$$$$
