
     RDKit          3D

 41 44  0  0  0  0  0  0  0  0999 V2000
    9.2892    2.2429   21.0728 Br  0  0  0  0  0  0  0  0  0  0  0  0
    9.4205    1.9920   22.9429 C   0  0  0  0  0  0  0  0  0  0  0  0
   10.6628    2.0474   23.5750 C   0  0  0  0  0  0  0  0  0  0  0  0
   10.7549    1.7681   24.9385 C   0  0  0  0  0  0  0  0  0  0  0  0
    9.5986    1.4518   25.6609 C   0  0  0  0  0  0  0  0  0  0  0  0
    8.3552    1.4065   25.0278 C   0  0  0  0  0  0  0  0  0  0  0  0
    8.2634    1.6715   23.6602 C   0  0  0  0  0  0  0  0  0  0  0  0
    6.9996    1.3391   22.9057 C   0  0  0  0  0  0  0  0  0  0  0  0
    7.2574   -0.0290   22.3458 C   0  0  0  0  0  0  0  0  0  0  0  0
    7.7748   -0.9824   23.0739 N   0  0  0  0  0  0  0  0  0  0  0  0
    8.1324   -1.9295   22.1415 C   0  0  0  0  0  0  0  0  0  0  0  0
    8.9462   -3.1437   22.4710 C   0  0  0  0  0  0  0  0  0  0  0  0
    8.4427   -4.0425   23.6112 C   0  0  0  0  0  0  0  0  0  0  0  0
    9.4738   -3.8840   24.7188 C   0  0  0  0  0  0  0  0  0  0  0  0
   10.6746   -3.5765   24.0142 O   0  0  0  0  0  0  0  0  0  0  0  0
   10.3469   -2.7174   22.9212 C   0  0  0  0  0  0  0  0  0  0  0  0
   10.3771   -1.6764   23.2604 H   0  0  0  0  0  0  0  0  0  0  0  0
   11.0721   -2.8271   22.1095 H   0  0  0  0  0  0  0  0  0  0  0  0
    9.2224   -3.0686   25.4077 H   0  0  0  0  0  0  0  0  0  0  0  0
    9.5760   -4.8087   25.2952 H   0  0  0  0  0  0  0  0  0  0  0  0
    8.4482   -5.0796   23.2610 H   0  0  0  0  0  0  0  0  0  0  0  0
    7.4327   -3.8031   23.9631 H   0  0  0  0  0  0  0  0  0  0  0  0
    8.9984   -3.7303   21.5557 H   0  0  0  0  0  0  0  0  0  0  0  0
    7.8320   -1.6217   20.9018 N   0  0  0  0  0  0  0  0  0  0  0  0
    7.2041   -0.4324   21.0152 N   0  0  0  0  0  0  0  0  0  0  0  0
    6.5813    0.2016   19.9249 C   0  0  0  0  0  0  0  0  0  0  0  0
    5.4624    1.0259   20.0825 C   0  0  0  0  0  0  0  0  0  0  0  0
    4.8828    1.5776   18.9336 C   0  0  0  0  0  0  0  0  0  0  0  0
    5.4312    1.3088   17.6744 C   0  0  0  0  0  0  0  0  0  0  0  0
    6.4972    0.5063   17.5160 N   0  0  0  0  0  0  0  0  0  0  0  0
    7.0529   -0.0383   18.6191 C   0  0  0  0  0  0  0  0  0  0  0  0
    7.9167   -0.6808   18.4828 H   0  0  0  0  0  0  0  0  0  0  0  0
    4.9779    1.7616   16.7958 H   0  0  0  0  0  0  0  0  0  0  0  0
    4.0105    2.2184   18.9989 H   0  0  0  0  0  0  0  0  0  0  0  0
    5.0343    1.2152   21.0662 H   0  0  0  0  0  0  0  0  0  0  0  0
    6.8347    2.0557   22.0962 H   0  0  0  0  0  0  0  0  0  0  0  0
    6.1233    1.3293   23.5554 H   0  0  0  0  0  0  0  0  0  0  0  0
    7.4770    1.1142   25.5950 H   0  0  0  0  0  0  0  0  0  0  0  0
    9.6556    1.2083   26.7105 H   0  0  0  0  0  0  0  0  0  0  0  0
   11.7297    1.7768   25.4111 H   0  0  0  0  0  0  0  0  0  0  0  0
   11.5469    2.2723   22.9861 H   0  0  0  0  0  0  0  0  0  0  0  0
  1  2  1  0
  2  3  2  0
  3  4  1  0
  4  5  2  0
  5  6  1  0
  6  7  2  0
  7  8  1  0
  8  9  1  0
  9 10  2  0
 10 11  1  0
 11 12  1  0
 12 13  1  0
 13 14  1  0
 14 15  1  0
 15 16  1  0
 16 17  1  0
 16 18  1  0
 14 19  1  0
 14 20  1  0
 13 21  1  0
 13 22  1  0
 12 23  1  0
 11 24  2  0
 24 25  1  0
 25 26  1  0
 26 27  2  0
 27 28  1  0
 28 29  2  0
 29 30  1  0
 30 31  2  0
 31 32  1  0
 29 33  1  0
 28 34  1  0
 27 35  1  0
  8 36  1  0
  8 37  1  0
  6 38  1  0
  5 39  1  0
  4 40  1  0
  3 41  1  0
  7  2  1  0
 25  9  1  0
 31 26  1  0
 16 12  1  0
M  END
>  <cnnaffinity>  (1) 
-6.02984

>  <filename>  (1) 
Brc1ccccc1Cc1nc(C2CCOC2)nn1-c1cccnc1

$$$$
