
     RDKit          3D

 40 43  0  0  0  0  0  0  0  0999 V2000
    8.4042    5.4190   27.3374 Br  0  0  0  0  0  0  0  0  0  0  0  0
    7.4547    3.8601   26.7648 C   0  0  0  0  0  0  0  0  0  0  0  0
    6.3681    3.3704   27.4920 C   0  0  0  0  0  0  0  0  0  0  0  0
    5.7004    2.2150   27.0671 C   0  0  0  0  0  0  0  0  0  0  0  0
    6.1064    1.5511   25.9038 C   0  0  0  0  0  0  0  0  0  0  0  0
    7.1692    2.0594   25.1331 C   0  0  0  0  0  0  0  0  0  0  0  0
    7.5845    1.4299   23.8649 C   0  0  0  0  0  0  0  0  0  0  0  0
    6.9286    0.4946   23.2098 N   0  0  0  0  0  0  0  0  0  0  0  0
    7.6927    0.2839   22.1061 N   0  0  0  0  0  0  0  0  0  0  0  0
    7.3916   -0.6741   21.0240 C   0  0  0  0  0  0  0  0  0  0  0  0
    6.6838    0.0215   19.8816 C   0  0  0  0  0  0  0  0  0  0  0  0
    5.4633    0.6705   20.0985 C   0  0  0  0  0  0  0  0  0  0  0  0
    4.8682    1.3149   19.0154 C   0  0  0  0  0  0  0  0  0  0  0  0
    5.4912    1.2930   17.7618 C   0  0  0  0  0  0  0  0  0  0  0  0
    6.6565    0.6545   17.5430 N   0  0  0  0  0  0  0  0  0  0  0  0
    7.2358    0.0324   18.5874 C   0  0  0  0  0  0  0  0  0  0  0  0
    8.1772   -0.4865   18.4312 H   0  0  0  0  0  0  0  0  0  0  0  0
    5.0074    1.8068   16.9366 H   0  0  0  0  0  0  0  0  0  0  0  0
    3.9287    1.8470   19.1291 H   0  0  0  0  0  0  0  0  0  0  0  0
    4.9987    0.6833   21.0871 H   0  0  0  0  0  0  0  0  0  0  0  0
    8.3146   -1.1534   20.6780 H   0  0  0  0  0  0  0  0  0  0  0  0
    6.7574   -1.4704   21.4229 H   0  0  0  0  0  0  0  0  0  0  0  0
    8.7955    1.1136   22.1564 C   0  0  0  0  0  0  0  0  0  0  0  0
    9.9238    1.2348   21.1993 C   0  0  0  0  0  0  0  0  0  0  0  0
   10.9610    0.2702   21.5666 N   0  0  0  0  0  0  0  0  0  0  0  0
   12.0248    0.5277   22.4170 C   0  0  0  0  0  0  0  0  0  0  0  0
   12.9039   -0.4981   22.2511 C   0  0  0  0  0  0  0  0  0  0  0  0
   12.2798   -1.3965   21.3136 C   0  0  0  0  0  0  0  0  0  0  0  0
   11.1045   -0.9339   20.9536 N   0  0  0  0  0  0  0  0  0  0  0  0
   12.7408   -2.3090   20.9513 H   0  0  0  0  0  0  0  0  0  0  0  0
   13.8760   -0.6384   22.7083 H   0  0  0  0  0  0  0  0  0  0  0  0
   12.1356    1.3885   23.0665 H   0  0  0  0  0  0  0  0  0  0  0  0
    9.5584    1.0268   20.1941 H   0  0  0  0  0  0  0  0  0  0  0  0
   10.3266    2.2552   21.2377 H   0  0  0  0  0  0  0  0  0  0  0  0
    8.7519    1.8315   23.2297 N   0  0  0  0  0  0  0  0  0  0  0  0
    7.8432    3.2110   25.5925 C   0  0  0  0  0  0  0  0  0  0  0  0
    8.6862    3.6109   25.0343 H   0  0  0  0  0  0  0  0  0  0  0  0
    5.5861    0.6432   25.6028 H   0  0  0  0  0  0  0  0  0  0  0  0
    4.8738    1.8276   27.6520 H   0  0  0  0  0  0  0  0  0  0  0  0
    6.0528    3.8866   28.3928 H   0  0  0  0  0  0  0  0  0  0  0  0
  1  2  1  0
  2  3  2  0
  3  4  1  0
  4  5  2  0
  5  6  1  0
  6  7  1  0
  7  8  2  0
  8  9  1  0
  9 10  1  0
 10 11  1  0
 11 12  2  0
 12 13  1  0
 13 14  2  0
 14 15  1  0
 15 16  2  0
 16 17  1  0
 14 18  1  0
 13 19  1  0
 12 20  1  0
 10 21  1  0
 10 22  1  0
  9 23  1  0
 23 24  1  0
 24 25  1  0
 25 26  1  0
 26 27  2  0
 27 28  1  0
 28 29  2  0
 28 30  1  0
 27 31  1  0
 26 32  1  0
 24 33  1  0
 24 34  1  0
 23 35  2  0
  6 36  2  0
 36 37  1  0
  5 38  1  0
  4 39  1  0
  3 40  1  0
 36  2  1  0
 35  7  1  0
 16 11  1  0
 29 25  1  0
M  END
>  <cnnaffinity>  (1) 
-6.0835

>  <filename>  (1) 
Brc1cccc(-c2nc(Cn3cccn3)n(Cc3cccnc3)n2)c1

$$$$
