
     RDKit          3D

 42 45  0  0  0  0  0  0  0  0999 V2000
    7.8506    7.8925   24.5514 Br  0  0  0  0  0  0  0  0  0  0  0  0
    8.0486    6.1953   23.6899 C   0  0  0  0  0  0  0  0  0  0  0  0
    9.2721    5.5230   23.7803 C   0  0  0  0  0  0  0  0  0  0  0  0
    9.4275    4.2739   23.1826 C   0  0  0  0  0  0  0  0  0  0  0  0
    8.3332    3.7169   22.5221 C   0  0  0  0  0  0  0  0  0  0  0  0
    8.4070    2.3314   21.9373 C   0  0  0  0  0  0  0  0  0  0  0  0
    7.3362    1.4538   22.6117 C   0  0  0  0  0  0  0  0  0  0  0  0
    7.5413    0.0209   22.2268 C   0  0  0  0  0  0  0  0  0  0  0  0
    8.1233   -0.8395   23.0014 N   0  0  0  0  0  0  0  0  0  0  0  0
    8.2783   -1.9317   22.1668 C   0  0  0  0  0  0  0  0  0  0  0  0
    9.0149   -3.1587   22.6016 C   0  0  0  0  0  0  0  0  0  0  0  0
    8.6245   -3.7514   23.9546 C   0  0  0  0  0  0  0  0  0  0  0  0
   10.0115   -3.4261   24.4868 C   0  0  0  0  0  0  0  0  0  0  0  0
   10.4249   -2.8689   23.1306 C   0  0  0  0  0  0  0  0  0  0  0  0
   10.6916   -1.8012   23.1517 H   0  0  0  0  0  0  0  0  0  0  0  0
   11.2222   -3.4239   22.6288 H   0  0  0  0  0  0  0  0  0  0  0  0
   10.5947   -4.2901   24.8284 H   0  0  0  0  0  0  0  0  0  0  0  0
    9.9760   -2.6709   25.2738 H   0  0  0  0  0  0  0  0  0  0  0  0
    8.3971   -4.8222   23.9379 H   0  0  0  0  0  0  0  0  0  0  0  0
    7.8120   -3.2238   24.4640 H   0  0  0  0  0  0  0  0  0  0  0  0
    8.9641   -3.9044   21.8096 H   0  0  0  0  0  0  0  0  0  0  0  0
    7.8201   -1.7939   20.9487 N   0  0  0  0  0  0  0  0  0  0  0  0
    7.2964   -0.5536   20.9887 N   0  0  0  0  0  0  0  0  0  0  0  0
    6.6547    0.0399   19.9095 C   0  0  0  0  0  0  0  0  0  0  0  0
    5.5767    0.8975   20.1182 C   0  0  0  0  0  0  0  0  0  0  0  0
    4.9900    1.4787   18.9997 C   0  0  0  0  0  0  0  0  0  0  0  0
    5.4962    1.2000   17.7248 C   0  0  0  0  0  0  0  0  0  0  0  0
    6.5238    0.3533   17.5190 N   0  0  0  0  0  0  0  0  0  0  0  0
    7.0814   -0.2273   18.5989 C   0  0  0  0  0  0  0  0  0  0  0  0
    7.9197   -0.9037   18.4559 H   0  0  0  0  0  0  0  0  0  0  0  0
    5.0333    1.6780   16.8698 H   0  0  0  0  0  0  0  0  0  0  0  0
    4.1436    2.1470   19.1110 H   0  0  0  0  0  0  0  0  0  0  0  0
    5.1945    1.0826   21.1209 H   0  0  0  0  0  0  0  0  0  0  0  0
    7.4176    1.5445   23.6992 H   0  0  0  0  0  0  0  0  0  0  0  0
    6.3378    1.7874   22.3223 H   0  0  0  0  0  0  0  0  0  0  0  0
    8.2412    2.3775   20.8552 H   0  0  0  0  0  0  0  0  0  0  0  0
    9.4119    1.9151   22.1015 H   0  0  0  0  0  0  0  0  0  0  0  0
    7.1489    4.4679   22.4493 C   0  0  0  0  0  0  0  0  0  0  0  0
    7.0059    5.6732   23.0286 N   0  0  0  0  0  0  0  0  0  0  0  0
    6.2995    4.0445   21.9263 H   0  0  0  0  0  0  0  0  0  0  0  0
   10.3737    3.7422   23.2438 H   0  0  0  0  0  0  0  0  0  0  0  0
   10.0832    5.9735   24.3412 H   0  0  0  0  0  0  0  0  0  0  0  0
  1  2  1  0
  2  3  2  0
  3  4  1  0
  4  5  2  0
  5  6  1  0
  6  7  1  0
  7  8  1  0
  8  9  2  0
  9 10  1  0
 10 11  1  0
 11 12  1  0
 12 13  1  0
 13 14  1  0
 14 15  1  0
 14 16  1  0
 13 17  1  0
 13 18  1  0
 12 19  1  0
 12 20  1  0
 11 21  1  0
 10 22  2  0
 22 23  1  0
 23 24  1  0
 24 25  2  0
 25 26  1  0
 26 27  2  0
 27 28  1  0
 28 29  2  0
 29 30  1  0
 27 31  1  0
 26 32  1  0
 25 33  1  0
  7 34  1  0
  7 35  1  0
  6 36  1  0
  6 37  1  0
  5 38  1  0
 38 39  2  0
 38 40  1  0
  4 41  1  0
  3 42  1  0
 39  2  1  0
 23  8  1  0
 29 24  1  0
 14 11  1  0
M  END
>  <cnnaffinity>  (1) 
-6.28134

>  <filename>  (1) 
Brc1ccc(CCc2nc(C3CCC3)nn2-c2cccnc2)cn1

$$$$
