
     RDKit          3D

 39 42  0  0  0  0  0  0  0  0999 V2000
    5.7586   -2.2267   19.1582 Br  0  0  0  0  0  0  0  0  0  0  0  0
    5.7510   -3.9629   19.9604 C   0  0  0  0  0  0  0  0  0  0  0  0
    5.5469   -5.0162   19.1575 N   0  0  0  0  0  0  0  0  0  0  0  0
    5.4952   -6.2379   19.7046 C   0  0  0  0  0  0  0  0  0  0  0  0
    5.6390   -6.4559   21.0775 C   0  0  0  0  0  0  0  0  0  0  0  0
    5.8407   -5.3767   21.9282 C   0  0  0  0  0  0  0  0  0  0  0  0
    5.8862   -4.1008   21.3540 C   0  0  0  0  0  0  0  0  0  0  0  0
    6.0935   -2.8778   22.1939 C   0  0  0  0  0  0  0  0  0  0  0  0
    7.5412   -2.4080   22.0065 C   0  0  0  0  0  0  0  0  0  0  0  0
    7.7262   -1.0565   22.6172 C   0  0  0  0  0  0  0  0  0  0  0  0
    8.3217   -0.8417   23.7499 N   0  0  0  0  0  0  0  0  0  0  0  0
    8.3320    0.5433   23.7999 C   0  0  0  0  0  0  0  0  0  0  0  0
    9.1175    1.2920   24.8244 C   0  0  0  0  0  0  0  0  0  0  0  0
   10.1045    2.3699   24.3729 C   0  0  0  0  0  0  0  0  0  0  0  0
   10.6167    1.0269   24.8932 C   0  0  0  0  0  0  0  0  0  0  0  0
   11.0663    0.9886   25.8878 H   0  0  0  0  0  0  0  0  0  0  0  0
   11.0382    0.3237   24.1644 H   0  0  0  0  0  0  0  0  0  0  0  0
   10.1927    2.5674   23.2968 H   0  0  0  0  0  0  0  0  0  0  0  0
   10.2350    3.2450   25.0131 H   0  0  0  0  0  0  0  0  0  0  0  0
    8.5779    1.4464   25.7611 H   0  0  0  0  0  0  0  0  0  0  0  0
    7.7388    1.1618   22.8141 N   0  0  0  0  0  0  0  0  0  0  0  0
    7.3319    0.1427   22.0401 N   0  0  0  0  0  0  0  0  0  0  0  0
    6.8543    0.3424   20.7474 C   0  0  0  0  0  0  0  0  0  0  0  0
    5.6566    1.0275   20.5366 C   0  0  0  0  0  0  0  0  0  0  0  0
    5.2750    1.2583   19.2152 C   0  0  0  0  0  0  0  0  0  0  0  0
    6.0772    0.7999   18.1637 C   0  0  0  0  0  0  0  0  0  0  0  0
    7.2383    0.1537   18.3662 N   0  0  0  0  0  0  0  0  0  0  0  0
    7.6229   -0.0578   19.6403 C   0  0  0  0  0  0  0  0  0  0  0  0
    8.5871   -0.5198   19.8429 H   0  0  0  0  0  0  0  0  0  0  0  0
    5.7651    0.9814   17.1400 H   0  0  0  0  0  0  0  0  0  0  0  0
    4.3710    1.8085   18.9848 H   0  0  0  0  0  0  0  0  0  0  0  0
    5.0511    1.3881   21.3702 H   0  0  0  0  0  0  0  0  0  0  0  0
    8.2446   -3.1273   22.4384 H   0  0  0  0  0  0  0  0  0  0  0  0
    7.7712   -2.3288   20.9419 H   0  0  0  0  0  0  0  0  0  0  0  0
    5.4020   -2.1051   21.8435 H   0  0  0  0  0  0  0  0  0  0  0  0
    5.8671   -3.0702   23.2508 H   0  0  0  0  0  0  0  0  0  0  0  0
    5.9756   -5.5302   22.9977 H   0  0  0  0  0  0  0  0  0  0  0  0
    5.5817   -7.4611   21.4807 H   0  0  0  0  0  0  0  0  0  0  0  0
    5.2876   -7.0874   19.0635 H   0  0  0  0  0  0  0  0  0  0  0  0
  1  2  1  0
  2  3  2  0
  3  4  1  0
  4  5  2  0
  5  6  1  0
  6  7  2  0
  7  8  1  0
  8  9  1  0
  9 10  1  0
 10 11  2  0
 11 12  1  0
 12 13  1  0
 13 14  1  0
 14 15  1  0
 15 16  1  0
 15 17  1  0
 14 18  1  0
 14 19  1  0
 13 20  1  0
 12 21  2  0
 21 22  1  0
 22 23  1  0
 23 24  2  0
 24 25  1  0
 25 26  2  0
 26 27  1  0
 27 28  2  0
 28 29  1  0
 26 30  1  0
 25 31  1  0
 24 32  1  0
  9 33  1  0
  9 34  1  0
  8 35  1  0
  8 36  1  0
  6 37  1  0
  5 38  1  0
  4 39  1  0
  7  2  1  0
 22 10  1  0
 28 23  1  0
 15 13  1  0
M  END
>  <cnnaffinity>  (1) 
-5.96667

>  <filename>  (1) 
Brc1ncccc1CCc1nc(C2CC2)nn1-c1cccnc1

$$$$
