
     RDKit          3D

 32 34  0  0  0  0  0  0  0  0999 V2000
    7.0076    1.7556   22.0992 H   0  0  0  0  0  0  0  0  0  0  0  0
    7.3498    0.9721   22.7717 C   0  0  0  0  0  0  0  0  0  0  0  0
    7.5631   -0.3013   22.2797 C   0  0  0  0  0  0  0  0  0  0  0  0
    7.3750   -0.7248   20.9159 C   0  0  0  0  0  0  0  0  0  0  0  0
    6.6501   -0.0009   19.8905 C   0  0  0  0  0  0  0  0  0  0  0  0
    7.1655   -0.0143   18.5950 C   0  0  0  0  0  0  0  0  0  0  0  0
    8.0951   -0.5425   18.4051 H   0  0  0  0  0  0  0  0  0  0  0  0
    6.5767    0.6303   17.5757 N   0  0  0  0  0  0  0  0  0  0  0  0
    5.4305    1.2948   17.8192 C   0  0  0  0  0  0  0  0  0  0  0  0
    4.9430    1.8233   17.0066 H   0  0  0  0  0  0  0  0  0  0  0  0
    4.8394    1.3274   19.0867 C   0  0  0  0  0  0  0  0  0  0  0  0
    3.9081    1.8682   19.2239 H   0  0  0  0  0  0  0  0  0  0  0  0
    5.4605    0.6866   20.1552 C   0  0  0  0  0  0  0  0  0  0  0  0
    5.0199    0.7212   21.1525 H   0  0  0  0  0  0  0  0  0  0  0  0
    7.9364   -1.8825   20.6875 N   0  0  0  0  0  0  0  0  0  0  0  0
    8.5459   -2.3971   21.9337 C   0  0  0  0  0  0  0  0  0  0  0  0
    9.6336   -2.4543   21.8288 H   0  0  0  0  0  0  0  0  0  0  0  0
    8.1754   -3.4016   22.1572 H   0  0  0  0  0  0  0  0  0  0  0  0
    8.1583   -1.4230   23.0508 C   0  0  0  0  0  0  0  0  0  0  0  0
    7.4075   -1.8648   23.7102 H   0  0  0  0  0  0  0  0  0  0  0  0
    9.0273   -1.1017   23.6343 H   0  0  0  0  0  0  0  0  0  0  0  0
    7.5563    1.3138   24.1712 C   0  0  0  0  0  0  0  0  0  0  0  0
    7.0931    0.4357   25.1628 C   0  0  0  0  0  0  0  0  0  0  0  0
    6.6539   -0.5208   24.8706 H   0  0  0  0  0  0  0  0  0  0  0  0
    7.1371    0.8319   26.5067 C   0  0  0  0  0  0  0  0  0  0  0  0
    6.7322    0.2092   27.2938 H   0  0  0  0  0  0  0  0  0  0  0  0
    7.6711    2.0682   26.8704 C   0  0  0  0  0  0  0  0  0  0  0  0
    7.5141    2.6306   28.6944 Br  0  0  0  0  0  0  0  0  0  0  0  0
    8.2445    2.8880   25.8893 C   0  0  0  0  0  0  0  0  0  0  0  0
    8.7136    3.8194   26.1837 H   0  0  0  0  0  0  0  0  0  0  0  0
    8.1741    2.5260   24.5337 C   0  0  0  0  0  0  0  0  0  0  0  0
    8.6010    3.1670   23.7611 H   0  0  0  0  0  0  0  0  0  0  0  0
  1  2  1  0
  2  3  2  3
  3  4  1  0
  4  5  1  0
  5  6  2  0
  6  7  1  0
  6  8  1  0
  8  9  2  0
  9 10  1  0
  9 11  1  0
 11 12  1  0
 11 13  2  0
 13 14  1  0
  4 15  2  0
 15 16  1  0
 16 17  1  0
 16 18  1  0
 16 19  1  0
 19 20  1  0
 19 21  1  0
  2 22  1  0
 22 23  2  0
 23 24  1  0
 23 25  1  0
 25 26  1  0
 25 27  2  0
 27 28  1  0
 27 29  1  0
 29 30  1  0
 29 31  2  0
 31 32  1  0
 19  3  1  0
 31 22  1  0
 13  5  1  0
M  END
>  <cnnaffinity>  (1) 
-5.08883

>  <filename>  (1) 
Brc1ccc(C=C2CCN=C2c2cccnc2)cc1

$$$$
