
     RDKit          3D

 28 30  0  0  0  0  0  0  0  0999 V2000
    4.8860    1.7988   17.0102 H   0  0  0  0  0  0  0  0  0  0  0  0
    5.3998    1.2987   17.8222 C   0  0  0  0  0  0  0  0  0  0  0  0
    6.5631    0.6754   17.5615 N   0  0  0  0  0  0  0  0  0  0  0  0
    7.1775    0.0587   18.5861 C   0  0  0  0  0  0  0  0  0  0  0  0
    8.1237   -0.4421   18.3997 H   0  0  0  0  0  0  0  0  0  0  0  0
    6.6594    0.0371   19.8913 C   0  0  0  0  0  0  0  0  0  0  0  0
    7.3512   -0.6787   20.9497 C   0  0  0  0  0  0  0  0  0  0  0  0
    7.5209   -0.3346   22.2552 C   0  0  0  0  0  0  0  0  0  0  0  0
    7.1595    0.9188   22.9323 C   0  0  0  0  0  0  0  0  0  0  0  0
    7.3016    2.1526   22.2764 C   0  0  0  0  0  0  0  0  0  0  0  0
    7.6856    2.1782   21.2622 H   0  0  0  0  0  0  0  0  0  0  0  0
    6.9887    3.3523   22.9284 C   0  0  0  0  0  0  0  0  0  0  0  0
    7.1081    4.3001   22.4092 H   0  0  0  0  0  0  0  0  0  0  0  0
    6.5240    3.3259   24.2470 C   0  0  0  0  0  0  0  0  0  0  0  0
    6.2695    4.2527   24.7516 H   0  0  0  0  0  0  0  0  0  0  0  0
    6.3869    2.1080   24.9208 C   0  0  0  0  0  0  0  0  0  0  0  0
    5.7505    2.0809   26.7254 Br  0  0  0  0  0  0  0  0  0  0  0  0
    6.7129    0.9141   24.2631 C   0  0  0  0  0  0  0  0  0  0  0  0
    6.6030   -0.0261   24.7924 H   0  0  0  0  0  0  0  0  0  0  0  0
    8.2016   -1.4676   22.8509 C   0  0  0  0  0  0  0  0  0  0  0  0
    8.4858   -1.5072   23.8948 H   0  0  0  0  0  0  0  0  0  0  0  0
    8.4493   -2.4157   21.9749 N   0  0  0  0  0  0  0  0  0  0  0  0
    7.9369   -1.9217   20.8140 N   0  0  0  0  0  0  0  0  0  0  0  0
    7.9299   -2.4241   19.9303 H   0  0  0  0  0  0  0  0  0  0  0  0
    5.4495    0.6749   20.1602 C   0  0  0  0  0  0  0  0  0  0  0  0
    5.0142    0.6432   21.1619 H   0  0  0  0  0  0  0  0  0  0  0  0
    4.8186    1.3174   19.0982 C   0  0  0  0  0  0  0  0  0  0  0  0
    3.8789    1.8334   19.2578 H   0  0  0  0  0  0  0  0  0  0  0  0
  1  2  1  0
  2  3  2  0
  3  4  1  0
  4  5  1  0
  4  6  2  0
  6  7  1  0
  7  8  2  0
  8  9  1  0
  9 10  2  0
 10 11  1  0
 10 12  1  0
 12 13  1  0
 12 14  2  0
 14 15  1  0
 14 16  1  0
 16 17  1  0
 16 18  2  0
 18 19  1  0
  8 20  1  0
 20 21  1  0
 20 22  2  0
 22 23  1  0
 23 24  1  0
  6 25  1  0
 25 26  1  0
 25 27  2  0
 27 28  1  0
 27  2  1  0
 23  7  1  0
 18  9  1  0
M  END
>  <cnnaffinity>  (1) 
-5.18057

>  <filename>  (1) 
Brc1cccc(-c2cn[nH]c2-c2cccnc2)c1

$$$$
