
     RDKit          3D

 37 40  0  0  0  0  0  0  0  0999 V2000
   11.9896    1.4047   24.2194 Br  0  0  0  0  0  0  0  0  0  0  0  0
   10.3232    1.7856   23.3649 C   0  0  0  0  0  0  0  0  0  0  0  0
    9.1574    1.2349   23.9049 C   0  0  0  0  0  0  0  0  0  0  0  0
    7.9278    1.5062   23.2997 C   0  0  0  0  0  0  0  0  0  0  0  0
    6.7031    0.7133   23.5990 C   0  0  0  0  0  0  0  0  0  0  0  0
    7.0118   -0.5670   22.8905 C   0  0  0  0  0  0  0  0  0  0  0  0
    7.5547   -1.5636   23.5251 N   0  0  0  0  0  0  0  0  0  0  0  0
    8.0071   -2.3603   22.4952 C   0  0  0  0  0  0  0  0  0  0  0  0
    8.9390   -3.4992   22.7223 C   0  0  0  0  0  0  0  0  0  0  0  0
    8.7631   -4.3085   24.0113 C   0  0  0  0  0  0  0  0  0  0  0  0
   10.4221   -3.9081   24.6652 S   0  0  0  0  0  0  0  0  0  0  0  0
   10.3623   -3.0190   23.0751 C   0  0  0  0  0  0  0  0  0  0  0  0
   10.4518   -1.9339   23.1918 H   0  0  0  0  0  0  0  0  0  0  0  0
   11.1506   -3.3334   22.3916 H   0  0  0  0  0  0  0  0  0  0  0  0
    7.9471   -3.9565   24.6533 H   0  0  0  0  0  0  0  0  0  0  0  0
    8.6383   -5.3818   23.8303 H   0  0  0  0  0  0  0  0  0  0  0  0
    8.8796   -4.1430   21.8472 H   0  0  0  0  0  0  0  0  0  0  0  0
    7.6976   -1.9649   21.2878 N   0  0  0  0  0  0  0  0  0  0  0  0
    7.0421   -0.8040   21.5133 N   0  0  0  0  0  0  0  0  0  0  0  0
    6.5731   -0.0086   20.4555 C   0  0  0  0  0  0  0  0  0  0  0  0
    5.5007    0.8822   20.5907 C   0  0  0  0  0  0  0  0  0  0  0  0
    5.0188    1.5012   19.4329 C   0  0  0  0  0  0  0  0  0  0  0  0
    5.6273    1.2480   18.1981 C   0  0  0  0  0  0  0  0  0  0  0  0
    6.6952    0.4415   18.0722 N   0  0  0  0  0  0  0  0  0  0  0  0
    7.1520   -0.1709   19.1821 C   0  0  0  0  0  0  0  0  0  0  0  0
    8.0143   -0.8263   19.0945 H   0  0  0  0  0  0  0  0  0  0  0  0
    5.2163    1.7116   17.3063 H   0  0  0  0  0  0  0  0  0  0  0  0
    4.1616    2.1665   19.4673 H   0  0  0  0  0  0  0  0  0  0  0  0
    5.0220    1.0570   21.5516 H   0  0  0  0  0  0  0  0  0  0  0  0
    5.8112    1.1939   23.1834 H   0  0  0  0  0  0  0  0  0  0  0  0
    6.5920    0.5547   24.6774 H   0  0  0  0  0  0  0  0  0  0  0  0
    7.9088    2.3463   22.2061 C   0  0  0  0  0  0  0  0  0  0  0  0
    9.1014    2.8329   21.7087 C   0  0  0  0  0  0  0  0  0  0  0  0
   10.2952    2.5697   22.2730 N   0  0  0  0  0  0  0  0  0  0  0  0
    8.9910    3.4028   20.8031 H   0  0  0  0  0  0  0  0  0  0  0  0
    6.9837    2.5752   21.6913 H   0  0  0  0  0  0  0  0  0  0  0  0
    9.2396    0.5671   24.7554 H   0  0  0  0  0  0  0  0  0  0  0  0
  1  2  1  0
  2  3  2  0
  3  4  1  0
  4  5  1  0
  5  6  1  0
  6  7  2  0
  7  8  1  0
  8  9  1  0
  9 10  1  0
 10 11  1  0
 11 12  1  0
 12 13  1  0
 12 14  1  0
 10 15  1  0
 10 16  1  0
  9 17  1  0
  8 18  2  0
 18 19  1  0
 19 20  1  0
 20 21  2  0
 21 22  1  0
 22 23  2  0
 23 24  1  0
 24 25  2  0
 25 26  1  0
 23 27  1  0
 22 28  1  0
 21 29  1  0
  5 30  1  0
  5 31  1  0
  4 32  2  0
 32 33  1  0
 33 34  2  0
 33 35  1  0
 32 36  1  0
  3 37  1  0
 34  2  1  0
 19  6  1  0
 25 20  1  0
 12  9  1  0
M  END
>  <cnnaffinity>  (1) 
-6.10593

>  <filename>  (1) 
Brc1cc(Cc2nc(C3CSC3)nn2-c2cccnc2)ccn1

$$$$
