
     RDKit          3D

 37 40  0  0  0  0  0  0  0  0999 V2000
   12.2541    1.3843   23.9914 Br  0  0  0  0  0  0  0  0  0  0  0  0
   10.6172    1.7157   23.0513 C   0  0  0  0  0  0  0  0  0  0  0  0
   10.6343    2.3192   21.7876 C   0  0  0  0  0  0  0  0  0  0  0  0
    9.5081    2.5601   21.0882 N   0  0  0  0  0  0  0  0  0  0  0  0
    8.3222    2.2488   21.6303 C   0  0  0  0  0  0  0  0  0  0  0  0
    8.2201    1.5880   22.8668 C   0  0  0  0  0  0  0  0  0  0  0  0
    6.9119    0.9676   23.3111 C   0  0  0  0  0  0  0  0  0  0  0  0
    7.0494   -0.4398   22.8125 C   0  0  0  0  0  0  0  0  0  0  0  0
    7.5874   -1.3977   23.5119 N   0  0  0  0  0  0  0  0  0  0  0  0
    7.9560   -2.2964   22.5266 C   0  0  0  0  0  0  0  0  0  0  0  0
    8.8821   -3.4455   22.7759 C   0  0  0  0  0  0  0  0  0  0  0  0
    8.6846   -4.2494   24.0672 C   0  0  0  0  0  0  0  0  0  0  0  0
   10.3557   -3.9009   24.7241 S   0  0  0  0  0  0  0  0  0  0  0  0
   10.3059   -2.9806   23.1476 C   0  0  0  0  0  0  0  0  0  0  0  0
   10.4174   -1.8991   23.2811 H   0  0  0  0  0  0  0  0  0  0  0  0
   11.0803   -3.2975   22.4471 H   0  0  0  0  0  0  0  0  0  0  0  0
    7.8836   -3.8777   24.7147 H   0  0  0  0  0  0  0  0  0  0  0  0
    8.5216   -5.3172   23.8809 H   0  0  0  0  0  0  0  0  0  0  0  0
    8.8562   -4.0982   21.9020 H   0  0  0  0  0  0  0  0  0  0  0  0
    7.5992   -1.9843   21.3072 N   0  0  0  0  0  0  0  0  0  0  0  0
    6.9907   -0.7909   21.4682 N   0  0  0  0  0  0  0  0  0  0  0  0
    6.5511   -0.0159   20.3895 C   0  0  0  0  0  0  0  0  0  0  0  0
    5.5201    0.9212   20.5084 C   0  0  0  0  0  0  0  0  0  0  0  0
    5.0606    1.5373   19.3442 C   0  0  0  0  0  0  0  0  0  0  0  0
    5.6483    1.2328   18.1111 C   0  0  0  0  0  0  0  0  0  0  0  0
    6.6859    0.3823   18.0024 N   0  0  0  0  0  0  0  0  0  0  0  0
    7.1256   -0.2240   19.1208 C   0  0  0  0  0  0  0  0  0  0  0  0
    7.9690   -0.9059   19.0521 H   0  0  0  0  0  0  0  0  0  0  0  0
    5.2421    1.6822   17.2104 H   0  0  0  0  0  0  0  0  0  0  0  0
    4.2370    2.2434   19.3736 H   0  0  0  0  0  0  0  0  0  0  0  0
    5.0523    1.1388   21.4674 H   0  0  0  0  0  0  0  0  0  0  0  0
    6.0513    1.4721   22.8577 H   0  0  0  0  0  0  0  0  0  0  0  0
    6.8146    0.9840   24.4009 H   0  0  0  0  0  0  0  0  0  0  0  0
    9.3943    1.3133   23.5881 C   0  0  0  0  0  0  0  0  0  0  0  0
    9.3558    0.7781   24.5355 H   0  0  0  0  0  0  0  0  0  0  0  0
    7.4200    2.4398   21.0534 H   0  0  0  0  0  0  0  0  0  0  0  0
   11.5900    2.6027   21.3583 H   0  0  0  0  0  0  0  0  0  0  0  0
  1  2  1  0
  2  3  2  0
  3  4  1  0
  4  5  2  0
  5  6  1  0
  6  7  1  0
  7  8  1  0
  8  9  2  0
  9 10  1  0
 10 11  1  0
 11 12  1  0
 12 13  1  0
 13 14  1  0
 14 15  1  0
 14 16  1  0
 12 17  1  0
 12 18  1  0
 11 19  1  0
 10 20  2  0
 20 21  1  0
 21 22  1  0
 22 23  2  0
 23 24  1  0
 24 25  2  0
 25 26  1  0
 26 27  2  0
 27 28  1  0
 25 29  1  0
 24 30  1  0
 23 31  1  0
  7 32  1  0
  7 33  1  0
  6 34  2  0
 34 35  1  0
  5 36  1  0
  3 37  1  0
 34  2  1  0
 21  8  1  0
 27 22  1  0
 14 11  1  0
M  END
>  <cnnaffinity>  (1) 
-6.269

>  <filename>  (1) 
Brc1cncc(Cc2nc(C3CSC3)nn2-c2cccnc2)c1

$$$$
