
     RDKit          3D

 40 43  0  0  0  0  0  0  0  0999 V2000
   14.4494    1.2613   22.9592 Br  0  0  0  0  0  0  0  0  0  0  0  0
   13.1910    0.0604   22.2542 C   0  0  0  0  0  0  0  0  0  0  0  0
   13.6256   -1.0785   21.5821 C   0  0  0  0  0  0  0  0  0  0  0  0
   12.6887   -1.8954   20.9739 C   0  0  0  0  0  0  0  0  0  0  0  0
   11.3204   -1.6735   21.1691 C   0  0  0  0  0  0  0  0  0  0  0  0
   10.8796   -0.5171   21.8191 C   0  0  0  0  0  0  0  0  0  0  0  0
    9.4533   -0.2123   21.9137 C   0  0  0  0  0  0  0  0  0  0  0  0
    8.5075   -0.9475   21.3723 N   0  0  0  0  0  0  0  0  0  0  0  0
    7.3865   -0.2638   21.6808 N   0  0  0  0  0  0  0  0  0  0  0  0
    6.0393   -0.5478   21.1712 C   0  0  0  0  0  0  0  0  0  0  0  0
    5.8118    0.1535   19.8557 C   0  0  0  0  0  0  0  0  0  0  0  0
    4.7481    1.0469   19.7095 C   0  0  0  0  0  0  0  0  0  0  0  0
    4.6781    1.7833   18.5302 C   0  0  0  0  0  0  0  0  0  0  0  0
    5.6282    1.5894   17.5257 C   0  0  0  0  0  0  0  0  0  0  0  0
    6.6051    0.6703   17.6322 N   0  0  0  0  0  0  0  0  0  0  0  0
    6.6956   -0.0296   18.7784 C   0  0  0  0  0  0  0  0  0  0  0  0
    7.4974   -0.7574   18.8776 H   0  0  0  0  0  0  0  0  0  0  0  0
    5.5834    2.2152   16.6376 H   0  0  0  0  0  0  0  0  0  0  0  0
    3.9070    2.5303   18.3870 H   0  0  0  0  0  0  0  0  0  0  0  0
    4.0134    1.1904   20.5017 H   0  0  0  0  0  0  0  0  0  0  0  0
    5.8833   -1.6282   21.0870 H   0  0  0  0  0  0  0  0  0  0  0  0
    5.3276   -0.1638   21.8968 H   0  0  0  0  0  0  0  0  0  0  0  0
    7.7157    0.8203   22.4684 C   0  0  0  0  0  0  0  0  0  0  0  0
    6.7513    1.7543   23.1158 C   0  0  0  0  0  0  0  0  0  0  0  0
    6.4908    1.2792   24.5246 C   0  0  0  0  0  0  0  0  0  0  0  0
    5.3968    0.6232   24.9879 C   0  0  0  0  0  0  0  0  0  0  0  0
    5.6628    0.3570   26.3212 N   0  0  0  0  0  0  0  0  0  0  0  0
    6.8824    0.8144   26.7199 N   0  0  0  0  0  0  0  0  0  0  0  0
    7.4023    1.3772   25.6538 C   0  0  0  0  0  0  0  0  0  0  0  0
    8.3834    1.8391   25.6189 H   0  0  0  0  0  0  0  0  0  0  0  0
    5.0260   -0.1503   26.9388 H   0  0  0  0  0  0  0  0  0  0  0  0
    4.5117    0.3543   24.4245 H   0  0  0  0  0  0  0  0  0  0  0  0
    5.8300    1.7682   22.5297 H   0  0  0  0  0  0  0  0  0  0  0  0
    7.1767    2.7603   23.1221 H   0  0  0  0  0  0  0  0  0  0  0  0
    9.0028    0.9001   22.6034 N   0  0  0  0  0  0  0  0  0  0  0  0
   11.8325    0.3595   22.3557 C   0  0  0  0  0  0  0  0  0  0  0  0
   11.5166    1.2795   22.8429 H   0  0  0  0  0  0  0  0  0  0  0  0
   10.5877   -2.3687   20.7664 H   0  0  0  0  0  0  0  0  0  0  0  0
   13.0630   -2.6663   20.3156 H   0  0  0  0  0  0  0  0  0  0  0  0
   14.6780   -1.3207   21.4977 H   0  0  0  0  0  0  0  0  0  0  0  0
  1  2  1  0
  2  3  2  0
  3  4  1  0
  4  5  2  0
  5  6  1  0
  6  7  1  0
  7  8  2  0
  8  9  1  0
  9 10  1  0
 10 11  1  0
 11 12  2  0
 12 13  1  0
 13 14  2  0
 14 15  1  0
 15 16  2  0
 16 17  1  0
 14 18  1  0
 13 19  1  0
 12 20  1  0
 10 21  1  0
 10 22  1  0
  9 23  1  0
 23 24  1  0
 24 25  1  0
 25 26  2  0
 26 27  1  0
 27 28  1  0
 28 29  2  0
 29 30  1  0
 27 31  1  0
 26 32  1  0
 24 33  1  0
 24 34  1  0
 23 35  2  0
  6 36  2  0
 36 37  1  0
  5 38  1  0
  4 39  1  0
  3 40  1  0
 36  2  1  0
 35  7  1  0
 16 11  1  0
 29 25  1  0
M  END
>  <cnnaffinity>  (1) 
-6.22756

>  <filename>  (1) 
Brc1cccc(-c2nc(Cc3cn[nH]c3)n(Cc3cccnc3)n2)c1

$$$$
