
     RDKit          3D

 40 43  0  0  0  0  0  0  0  0999 V2000
    2.7852   -6.5761   22.3841 Br  0  0  0  0  0  0  0  0  0  0  0  0
    3.9672   -5.2637   23.1099 C   0  0  0  0  0  0  0  0  0  0  0  0
    5.3216   -5.3151   22.7588 C   0  0  0  0  0  0  0  0  0  0  0  0
    6.2203   -4.3647   23.2514 C   0  0  0  0  0  0  0  0  0  0  0  0
    5.7158   -3.3946   24.1293 C   0  0  0  0  0  0  0  0  0  0  0  0
    6.5278   -2.4223   24.7278 N   0  0  0  0  0  0  0  0  0  0  0  0
    6.3641   -2.0363   26.0115 N   0  0  0  0  0  0  0  0  0  0  0  0
    7.3661   -1.2113   26.2063 C   0  0  0  0  0  0  0  0  0  0  0  0
    7.6631   -0.5952   27.5474 C   0  0  0  0  0  0  0  0  0  0  0  0
    6.5332   -0.1191   28.4747 C   0  0  0  0  0  0  0  0  0  0  0  0
    7.4805    0.8942   27.8386 C   0  0  0  0  0  0  0  0  0  0  0  0
    7.0606    1.5396   27.0618 H   0  0  0  0  0  0  0  0  0  0  0  0
    8.2301    1.3735   28.4790 H   0  0  0  0  0  0  0  0  0  0  0  0
    5.5039   -0.1310   28.1036 H   0  0  0  0  0  0  0  0  0  0  0  0
    6.6077   -0.2475   29.5594 H   0  0  0  0  0  0  0  0  0  0  0  0
    8.5403   -1.0694   27.9978 H   0  0  0  0  0  0  0  0  0  0  0  0
    8.1671   -0.9881   25.0985 N   0  0  0  0  0  0  0  0  0  0  0  0
    7.6156   -1.7417   24.1954 C   0  0  0  0  0  0  0  0  0  0  0  0
    8.0470   -1.7211   22.7725 C   0  0  0  0  0  0  0  0  0  0  0  0
    7.0500   -0.8636   22.0142 C   0  0  0  0  0  0  0  0  0  0  0  0
    7.5631   -0.7470   20.6890 O   0  0  0  0  0  0  0  0  0  0  0  0
    6.7904   -0.0547   19.7885 C   0  0  0  0  0  0  0  0  0  0  0  0
    5.5842    0.5652   20.1311 C   0  0  0  0  0  0  0  0  0  0  0  0
    4.8964    1.2562   19.1326 C   0  0  0  0  0  0  0  0  0  0  0  0
    5.4192    1.3114   17.8303 C   0  0  0  0  0  0  0  0  0  0  0  0
    6.5684    0.7020   17.4845 N   0  0  0  0  0  0  0  0  0  0  0  0
    7.2297    0.0379   18.4541 C   0  0  0  0  0  0  0  0  0  0  0  0
    8.1565   -0.4609   18.1928 H   0  0  0  0  0  0  0  0  0  0  0  0
    4.8734    1.8604   17.0714 H   0  0  0  0  0  0  0  0  0  0  0  0
    3.9638    1.7585   19.3610 H   0  0  0  0  0  0  0  0  0  0  0  0
    5.2094    0.5098   21.1526 H   0  0  0  0  0  0  0  0  0  0  0  0
    6.0637   -1.3428   22.0071 H   0  0  0  0  0  0  0  0  0  0  0  0
    6.9455    0.1279   22.4775 H   0  0  0  0  0  0  0  0  0  0  0  0
    9.0400   -1.2702   22.6957 H   0  0  0  0  0  0  0  0  0  0  0  0
    8.0878   -2.7319   22.3564 H   0  0  0  0  0  0  0  0  0  0  0  0
    4.3473   -3.4271   24.4535 C   0  0  0  0  0  0  0  0  0  0  0  0
    3.4842   -4.3275   23.9430 N   0  0  0  0  0  0  0  0  0  0  0  0
    3.9633   -2.6636   25.1238 H   0  0  0  0  0  0  0  0  0  0  0  0
    7.2757   -4.4035   22.9811 H   0  0  0  0  0  0  0  0  0  0  0  0
    5.6591   -6.1114   22.1052 H   0  0  0  0  0  0  0  0  0  0  0  0
  1  2  1  0
  2  3  2  0
  3  4  1  0
  4  5  2  0
  5  6  1  0
  6  7  1  0
  7  8  2  0
  8  9  1  0
  9 10  1  0
 10 11  1  0
 11 12  1  0
 11 13  1  0
 10 14  1  0
 10 15  1  0
  9 16  1  0
  8 17  1  0
 17 18  2  0
 18 19  1  0
 19 20  1  0
 20 21  1  0
 21 22  1  0
 22 23  2  0
 23 24  1  0
 24 25  2  0
 25 26  1  0
 26 27  2  0
 27 28  1  0
 25 29  1  0
 24 30  1  0
 23 31  1  0
 20 32  1  0
 20 33  1  0
 19 34  1  0
 19 35  1  0
  5 36  1  0
 36 37  2  0
 36 38  1  0
  4 39  1  0
  3 40  1  0
 37  2  1  0
 18  6  1  0
 27 22  1  0
 11  9  1  0
M  END
>  <cnnaffinity>  (1) 
-5.72342

>  <filename>  (1) 
Brc1ccc(-n2nc(C3CC3)nc2CCOc2cccnc2)cn1

$$$$
