
     RDKit          3D

 40 43  0  0  0  0  0  0  0  0999 V2000
   13.8889   -1.9829   21.2513 Br  0  0  0  0  0  0  0  0  0  0  0  0
   12.6128   -0.7052   21.8700 C   0  0  0  0  0  0  0  0  0  0  0  0
   11.3686   -0.4601   21.3817 C   0  0  0  0  0  0  0  0  0  0  0  0
   10.9245    0.6909   22.0148 N   0  0  0  0  0  0  0  0  0  0  0  0
    9.7741    1.4798   21.5615 C   0  0  0  0  0  0  0  0  0  0  0  0
    8.5969    1.3219   22.4687 C   0  0  0  0  0  0  0  0  0  0  0  0
    8.4758    1.9953   23.5639 N   0  0  0  0  0  0  0  0  0  0  0  0
    7.2847    1.5393   24.1193 C   0  0  0  0  0  0  0  0  0  0  0  0
    6.8837    2.0873   25.4357 C   0  0  0  0  0  0  0  0  0  0  0  0
    7.7041    3.0837   26.0033 C   0  0  0  0  0  0  0  0  0  0  0  0
    7.4456    3.6143   27.2635 C   0  0  0  0  0  0  0  0  0  0  0  0
    6.3469    3.1580   27.9906 C   0  0  0  0  0  0  0  0  0  0  0  0
    5.4999    2.1854   27.4455 C   0  0  0  0  0  0  0  0  0  0  0  0
    5.7563    1.6557   26.1696 C   0  0  0  0  0  0  0  0  0  0  0  0
    5.0826    0.8967   25.7771 H   0  0  0  0  0  0  0  0  0  0  0  0
    4.6580    1.8280   28.0328 H   0  0  0  0  0  0  0  0  0  0  0  0
    6.1660    3.5471   28.9865 H   0  0  0  0  0  0  0  0  0  0  0  0
    8.1161    4.3607   27.6779 H   0  0  0  0  0  0  0  0  0  0  0  0
    8.5727    3.4388   25.4554 H   0  0  0  0  0  0  0  0  0  0  0  0
    6.6752    0.6292   23.3829 N   0  0  0  0  0  0  0  0  0  0  0  0
    7.4912    0.5003   22.2986 N   0  0  0  0  0  0  0  0  0  0  0  0
    7.3332   -0.4793   21.1948 C   0  0  0  0  0  0  0  0  0  0  0  0
    6.6759    0.1370   19.9737 C   0  0  0  0  0  0  0  0  0  0  0  0
    5.4386    0.7756   20.0957 C   0  0  0  0  0  0  0  0  0  0  0  0
    4.8764    1.3419   18.9524 C   0  0  0  0  0  0  0  0  0  0  0  0
    5.5441    1.2484   17.7275 C   0  0  0  0  0  0  0  0  0  0  0  0
    6.7249    0.6166   17.5959 N   0  0  0  0  0  0  0  0  0  0  0  0
    7.2764    0.0772   18.6981 C   0  0  0  0  0  0  0  0  0  0  0  0
    8.2315   -0.4291   18.5884 H   0  0  0  0  0  0  0  0  0  0  0  0
    5.0885    1.6952   16.8489 H   0  0  0  0  0  0  0  0  0  0  0  0
    3.9281    1.8668   18.9990 H   0  0  0  0  0  0  0  0  0  0  0  0
    4.9348    0.8398   21.0610 H   0  0  0  0  0  0  0  0  0  0  0  0
    8.3142   -0.8938   20.9348 H   0  0  0  0  0  0  0  0  0  0  0  0
    6.7235   -1.3201   21.5444 H   0  0  0  0  0  0  0  0  0  0  0  0
    9.4798    1.1715   20.5593 H   0  0  0  0  0  0  0  0  0  0  0  0
   10.0740    2.5306   21.5268 H   0  0  0  0  0  0  0  0  0  0  0  0
   11.8165    1.1226   22.9535 N   0  0  0  0  0  0  0  0  0  0  0  0
   12.8287    0.2867   22.8964 C   0  0  0  0  0  0  0  0  0  0  0  0
   13.7055    0.3204   23.5359 H   0  0  0  0  0  0  0  0  0  0  0  0
   10.8623   -1.0054   20.5966 H   0  0  0  0  0  0  0  0  0  0  0  0
  1  2  1  0
  2  3  2  0
  3  4  1  0
  4  5  1  0
  5  6  1  0
  6  7  2  0
  7  8  1  0
  8  9  1  0
  9 10  2  0
 10 11  1  0
 11 12  2  0
 12 13  1  0
 13 14  2  0
 14 15  1  0
 13 16  1  0
 12 17  1  0
 11 18  1  0
 10 19  1  0
  8 20  2  0
 20 21  1  0
 21 22  1  0
 22 23  1  0
 23 24  2  0
 24 25  1  0
 25 26  2  0
 26 27  1  0
 27 28  2  0
 28 29  1  0
 26 30  1  0
 25 31  1  0
 24 32  1  0
 22 33  1  0
 22 34  1  0
  5 35  1  0
  5 36  1  0
  4 37  1  0
 37 38  2  0
 38 39  1  0
  3 40  1  0
 38  2  1  0
 21  6  1  0
 28 23  1  0
 14  9  1  0
M  END
>  <cnnaffinity>  (1) 
-6.07665

>  <filename>  (1) 
Brc1cnn(Cc2nc(-c3ccccc3)nn2Cc2cccnc2)c1

$$$$
