
     RDKit          3D

 41 44  0  0  0  0  0  0  0  0999 V2000
    2.8252   -6.6698   22.2871 Br  0  0  0  0  0  0  0  0  0  0  0  0
    3.9841   -5.3395   23.0291 C   0  0  0  0  0  0  0  0  0  0  0  0
    5.3532   -5.3621   22.7463 C   0  0  0  0  0  0  0  0  0  0  0  0
    6.2190   -4.4105   23.3016 C   0  0  0  0  0  0  0  0  0  0  0  0
    5.7190   -3.4300   24.1730 C   0  0  0  0  0  0  0  0  0  0  0  0
    6.5615   -2.5190   24.8189 N   0  0  0  0  0  0  0  0  0  0  0  0
    6.4228   -2.1404   26.1119 N   0  0  0  0  0  0  0  0  0  0  0  0
    7.3947   -1.2743   26.2702 C   0  0  0  0  0  0  0  0  0  0  0  0
    7.6883   -0.6269   27.5924 C   0  0  0  0  0  0  0  0  0  0  0  0
    6.5383   -0.1282   28.4768 C   0  0  0  0  0  0  0  0  0  0  0  0
    7.5280    0.8650   27.8713 C   0  0  0  0  0  0  0  0  0  0  0  0
    8.2654    1.3125   28.5456 H   0  0  0  0  0  0  0  0  0  0  0  0
    7.1602    1.5194   27.0733 H   0  0  0  0  0  0  0  0  0  0  0  0
    6.5818   -0.3181   29.5569 H   0  0  0  0  0  0  0  0  0  0  0  0
    5.5254   -0.1584   28.0559 H   0  0  0  0  0  0  0  0  0  0  0  0
    8.5568   -1.1069   28.0561 H   0  0  0  0  0  0  0  0  0  0  0  0
    8.1440   -1.0194   25.1390 N   0  0  0  0  0  0  0  0  0  0  0  0
    7.5926   -1.7844   24.2514 C   0  0  0  0  0  0  0  0  0  0  0  0
    8.0017   -1.6921   22.8231 C   0  0  0  0  0  0  0  0  0  0  0  0
    6.9953   -0.8367   22.0691 C   0  0  0  0  0  0  0  0  0  0  0  0
    7.5203   -0.7241   20.7491 O   0  0  0  0  0  0  0  0  0  0  0  0
    6.7550   -0.0419   19.8369 C   0  0  0  0  0  0  0  0  0  0  0  0
    5.5429    0.5886   20.1533 C   0  0  0  0  0  0  0  0  0  0  0  0
    4.8660    1.2647   19.1338 C   0  0  0  0  0  0  0  0  0  0  0  0
    5.4100    1.3028   17.8434 C   0  0  0  0  0  0  0  0  0  0  0  0
    6.5667    0.6869   17.5310 N   0  0  0  0  0  0  0  0  0  0  0  0
    7.2177    0.0318   18.5148 C   0  0  0  0  0  0  0  0  0  0  0  0
    8.1545   -0.4691   18.2832 H   0  0  0  0  0  0  0  0  0  0  0  0
    4.8900    1.8491   17.0629 H   0  0  0  0  0  0  0  0  0  0  0  0
    3.9306    1.7754   19.3331 H   0  0  0  0  0  0  0  0  0  0  0  0
    5.1544    0.5573   21.1685 H   0  0  0  0  0  0  0  0  0  0  0  0
    6.0067   -1.3070   22.0387 H   0  0  0  0  0  0  0  0  0  0  0  0
    6.8915    0.1507   22.5360 H   0  0  0  0  0  0  0  0  0  0  0  0
    8.0539   -2.6852   22.3779 H   0  0  0  0  0  0  0  0  0  0  0  0
    8.9894   -1.2199   22.7547 H   0  0  0  0  0  0  0  0  0  0  0  0
    4.3414   -3.3870   24.4201 C   0  0  0  0  0  0  0  0  0  0  0  0
    3.4789   -4.3305   23.8557 C   0  0  0  0  0  0  0  0  0  0  0  0
    2.4162   -4.2734   24.0647 H   0  0  0  0  0  0  0  0  0  0  0  0
    3.9472   -2.5991   25.0572 H   0  0  0  0  0  0  0  0  0  0  0  0
    7.2827   -4.4557   23.0895 H   0  0  0  0  0  0  0  0  0  0  0  0
    5.7458   -6.1360   22.0965 H   0  0  0  0  0  0  0  0  0  0  0  0
  1  2  1  0
  2  3  2  0
  3  4  1  0
  4  5  2  0
  5  6  1  0
  6  7  1  0
  7  8  2  0
  8  9  1  0
  9 10  1  0
 10 11  1  0
 11 12  1  0
 11 13  1  0
 10 14  1  0
 10 15  1  0
  9 16  1  0
  8 17  1  0
 17 18  2  0
 18 19  1  0
 19 20  1  0
 20 21  1  0
 21 22  1  0
 22 23  2  0
 23 24  1  0
 24 25  2  0
 25 26  1  0
 26 27  2  0
 27 28  1  0
 25 29  1  0
 24 30  1  0
 23 31  1  0
 20 32  1  0
 20 33  1  0
 19 34  1  0
 19 35  1  0
  5 36  1  0
 36 37  2  0
 37 38  1  0
 36 39  1  0
  4 40  1  0
  3 41  1  0
 37  2  1  0
 18  6  1  0
 27 22  1  0
 11  9  1  0
M  END
>  <cnnaffinity>  (1) 
-5.62055

>  <filename>  (1) 
Brc1ccc(-n2nc(C3CC3)nc2CCOc2cccnc2)cc1

$$$$
