
     RDKit          3D

 38 41  0  0  0  0  0  0  0  0999 V2000
   12.0027    3.0549   23.7188 Br  0  0  0  0  0  0  0  0  0  0  0  0
   10.2419    2.4008   24.0814 C   0  0  0  0  0  0  0  0  0  0  0  0
    9.9123    1.8578   25.2942 C   0  0  0  0  0  0  0  0  0  0  0  0
    8.2785    1.2178   25.3312 S   0  0  0  0  0  0  0  0  0  0  0  0
    8.0563    1.6506   23.6376 C   0  0  0  0  0  0  0  0  0  0  0  0
    6.8891    1.1841   22.8043 C   0  0  0  0  0  0  0  0  0  0  0  0
    7.2172   -0.1774   22.2612 C   0  0  0  0  0  0  0  0  0  0  0  0
    7.5878   -1.1979   22.9835 N   0  0  0  0  0  0  0  0  0  0  0  0
    7.9834   -2.1345   22.0351 C   0  0  0  0  0  0  0  0  0  0  0  0
    8.5727   -3.4983   22.3565 C   0  0  0  0  0  0  0  0  0  0  0  0
    7.6320   -4.3965   23.1678 C   0  0  0  0  0  0  0  0  0  0  0  0
    8.5891   -5.2223   24.0083 C   0  0  0  0  0  0  0  0  0  0  0  0
    9.7272   -4.2511   24.2790 C   0  0  0  0  0  0  0  0  0  0  0  0
    9.8118   -3.4407   23.1016 O   0  0  0  0  0  0  0  0  0  0  0  0
    9.4903   -3.6300   25.1486 H   0  0  0  0  0  0  0  0  0  0  0  0
   10.6751   -4.7627   24.4768 H   0  0  0  0  0  0  0  0  0  0  0  0
    8.1288   -5.5811   24.9333 H   0  0  0  0  0  0  0  0  0  0  0  0
    8.9485   -6.0831   23.4362 H   0  0  0  0  0  0  0  0  0  0  0  0
    6.9852   -3.7952   23.8169 H   0  0  0  0  0  0  0  0  0  0  0  0
    6.9986   -5.0182   22.5233 H   0  0  0  0  0  0  0  0  0  0  0  0
    8.7631   -3.9688   21.3899 H   0  0  0  0  0  0  0  0  0  0  0  0
    7.8190   -1.7419   20.7934 N   0  0  0  0  0  0  0  0  0  0  0  0
    7.2688   -0.5160   20.9209 N   0  0  0  0  0  0  0  0  0  0  0  0
    6.6491    0.1457   19.8599 C   0  0  0  0  0  0  0  0  0  0  0  0
    5.5005    0.9080   20.0831 C   0  0  0  0  0  0  0  0  0  0  0  0
    4.8852    1.4932   18.9791 C   0  0  0  0  0  0  0  0  0  0  0  0
    5.4194    1.3078   17.7020 C   0  0  0  0  0  0  0  0  0  0  0  0
    6.5186    0.5638   17.4844 N   0  0  0  0  0  0  0  0  0  0  0  0
    7.1174   -0.0121   18.5472 C   0  0  0  0  0  0  0  0  0  0  0  0
    7.9947   -0.6318   18.3751 H   0  0  0  0  0  0  0  0  0  0  0  0
    4.9333    1.7872   16.8568 H   0  0  0  0  0  0  0  0  0  0  0  0
    3.9949    2.0955   19.1013 H   0  0  0  0  0  0  0  0  0  0  0  0
    5.0818    1.0090   21.0820 H   0  0  0  0  0  0  0  0  0  0  0  0
    6.7326    1.8626   21.9645 H   0  0  0  0  0  0  0  0  0  0  0  0
    5.9712    1.1513   23.3931 H   0  0  0  0  0  0  0  0  0  0  0  0
    9.1514    2.3050   23.1212 C   0  0  0  0  0  0  0  0  0  0  0  0
    9.2352    2.6345   22.0893 H   0  0  0  0  0  0  0  0  0  0  0  0
   10.6041    1.7792   26.1225 H   0  0  0  0  0  0  0  0  0  0  0  0
  1  2  1  0
  2  3  2  0
  3  4  1  0
  4  5  1  0
  5  6  1  0
  6  7  1  0
  7  8  2  0
  8  9  1  0
  9 10  1  0
 10 11  1  0
 11 12  1  0
 12 13  1  0
 13 14  1  0
 13 15  1  0
 13 16  1  0
 12 17  1  0
 12 18  1  0
 11 19  1  0
 11 20  1  0
 10 21  1  0
  9 22  2  0
 22 23  1  0
 23 24  1  0
 24 25  2  0
 25 26  1  0
 26 27  2  0
 27 28  1  0
 28 29  2  0
 29 30  1  0
 27 31  1  0
 26 32  1  0
 25 33  1  0
  6 34  1  0
  6 35  1  0
  5 36  2  0
 36 37  1  0
  3 38  1  0
 36  2  1  0
 23  7  1  0
 29 24  1  0
 14 10  1  0
M  END
>  <cnnaffinity>  (1) 
-6.28646

>  <filename>  (1) 
Brc1csc(Cc2nc(C3CCCO3)nn2-c2cccnc2)c1

$$$$
