
     RDKit          3D

 42 45  0  0  0  0  0  0  0  0999 V2000
    8.5846    3.5073   22.0583 Br  0  0  0  0  0  0  0  0  0  0  0  0
    7.9926    3.8223   23.8455 C   0  0  0  0  0  0  0  0  0  0  0  0
    7.7775    5.1342   24.2951 C   0  0  0  0  0  0  0  0  0  0  0  0
    7.2997    5.4156   25.5159 N   0  0  0  0  0  0  0  0  0  0  0  0
    7.0169    4.3923   26.3322 C   0  0  0  0  0  0  0  0  0  0  0  0
    7.2279    3.0613   25.9687 C   0  0  0  0  0  0  0  0  0  0  0  0
    7.7215    2.7521   24.7013 C   0  0  0  0  0  0  0  0  0  0  0  0
    7.8890    1.3159   24.2643 C   0  0  0  0  0  0  0  0  0  0  0  0
    6.9182    1.0140   23.0959 C   0  0  0  0  0  0  0  0  0  0  0  0
    7.2467   -0.2625   22.3719 C   0  0  0  0  0  0  0  0  0  0  0  0
    7.6942   -1.3203   22.9863 N   0  0  0  0  0  0  0  0  0  0  0  0
    8.0141   -2.1584   21.9382 C   0  0  0  0  0  0  0  0  0  0  0  0
    8.6331   -3.4942   22.0991 C   0  0  0  0  0  0  0  0  0  0  0  0
    7.6758   -4.5148   22.7121 C   0  0  0  0  0  0  0  0  0  0  0  0
    8.0388   -5.9781   22.5375 C   0  0  0  0  0  0  0  0  0  0  0  0
    6.8611   -5.3860   21.7668 C   0  0  0  0  0  0  0  0  0  0  0  0
    6.9900   -5.2255   20.6916 H   0  0  0  0  0  0  0  0  0  0  0  0
    5.8510   -5.6738   22.0747 H   0  0  0  0  0  0  0  0  0  0  0  0
    8.9509   -6.2001   21.9786 H   0  0  0  0  0  0  0  0  0  0  0  0
    7.8288   -6.6539   23.3699 H   0  0  0  0  0  0  0  0  0  0  0  0
    7.2099   -4.2171   23.6600 H   0  0  0  0  0  0  0  0  0  0  0  0
    8.9231   -3.8250   21.1012 H   0  0  0  0  0  0  0  0  0  0  0  0
    9.5236   -3.3916   22.7247 H   0  0  0  0  0  0  0  0  0  0  0  0
    7.7995   -1.6838   20.7403 N   0  0  0  0  0  0  0  0  0  0  0  0
    7.2394   -0.4858   20.9914 N   0  0  0  0  0  0  0  0  0  0  0  0
    6.6230    0.2285   19.9505 C   0  0  0  0  0  0  0  0  0  0  0  0
    5.4894    1.0315   20.1434 C   0  0  0  0  0  0  0  0  0  0  0  0
    4.8728    1.5726   19.0071 C   0  0  0  0  0  0  0  0  0  0  0  0
    5.4020    1.3330   17.7302 C   0  0  0  0  0  0  0  0  0  0  0  0
    6.5000    0.5772   17.5455 N   0  0  0  0  0  0  0  0  0  0  0  0
    7.0848    0.0335   18.6312 C   0  0  0  0  0  0  0  0  0  0  0  0
    7.9446   -0.6168   18.4792 H   0  0  0  0  0  0  0  0  0  0  0  0
    4.9210    1.7735   16.8601 H   0  0  0  0  0  0  0  0  0  0  0  0
    3.9818    2.1873   19.0874 H   0  0  0  0  0  0  0  0  0  0  0  0
    5.0656    1.1962   21.1362 H   0  0  0  0  0  0  0  0  0  0  0  0
    5.8926    0.9720   23.4747 H   0  0  0  0  0  0  0  0  0  0  0  0
    6.9737    1.8209   22.3650 H   0  0  0  0  0  0  0  0  0  0  0  0
    7.6748    0.6468   25.1072 H   0  0  0  0  0  0  0  0  0  0  0  0
    8.9344    1.1501   23.9695 H   0  0  0  0  0  0  0  0  0  0  0  0
    6.9785    2.2839   26.6785 H   0  0  0  0  0  0  0  0  0  0  0  0
    6.5916    4.6275   27.3012 H   0  0  0  0  0  0  0  0  0  0  0  0
    7.9832    5.9664   23.6300 H   0  0  0  0  0  0  0  0  0  0  0  0
  1  2  1  0
  2  3  2  0
  3  4  1  0
  4  5  2  0
  5  6  1  0
  6  7  2  0
  7  8  1  0
  8  9  1  0
  9 10  1  0
 10 11  2  0
 11 12  1  0
 12 13  1  0
 13 14  1  0
 14 15  1  0
 15 16  1  0
 16 17  1  0
 16 18  1  0
 15 19  1  0
 15 20  1  0
 14 21  1  0
 13 22  1  0
 13 23  1  0
 12 24  2  0
 24 25  1  0
 25 26  1  0
 26 27  2  0
 27 28  1  0
 28 29  2  0
 29 30  1  0
 30 31  2  0
 31 32  1  0
 29 33  1  0
 28 34  1  0
 27 35  1  0
  9 36  1  0
  9 37  1  0
  8 38  1  0
  8 39  1  0
  6 40  1  0
  5 41  1  0
  3 42  1  0
  7  2  1  0
 25 10  1  0
 31 26  1  0
 16 14  1  0
M  END
>  <cnnaffinity>  (1) 
-5.90248

>  <filename>  (1) 
Brc1cnccc1CCc1nc(CC2CC2)nn1-c1cccnc1

$$$$
