
     RDKit          3D

 38 41  0  0  0  0  0  0  0  0999 V2000
    5.2213   -3.1339   18.7980 Br  0  0  0  0  0  0  0  0  0  0  0  0
    5.6955   -4.3320   20.2166 C   0  0  0  0  0  0  0  0  0  0  0  0
    5.9544   -3.9173   21.4945 C   0  0  0  0  0  0  0  0  0  0  0  0
    5.8002   -2.5133   21.9883 C   0  0  0  0  0  0  0  0  0  0  0  0
    7.0703   -1.7489   21.8749 C   0  0  0  0  0  0  0  0  0  0  0  0
    8.0657   -1.9567   22.6823 N   0  0  0  0  0  0  0  0  0  0  0  0
    9.0295   -1.0974   22.1940 C   0  0  0  0  0  0  0  0  0  0  0  0
   10.3839   -1.0058   22.8047 C   0  0  0  0  0  0  0  0  0  0  0  0
   11.1394   -2.2973   22.5708 C   0  0  0  0  0  0  0  0  0  0  0  0
   10.7109   -3.1860   23.7304 C   0  0  0  0  0  0  0  0  0  0  0  0
   10.0110   -2.3379   24.6502 O   0  0  0  0  0  0  0  0  0  0  0  0
   10.2246   -0.9682   24.3058 C   0  0  0  0  0  0  0  0  0  0  0  0
   11.1239   -0.5762   24.7870 H   0  0  0  0  0  0  0  0  0  0  0  0
    9.3780   -0.3483   24.6136 H   0  0  0  0  0  0  0  0  0  0  0  0
   11.5783   -3.6496   24.2103 H   0  0  0  0  0  0  0  0  0  0  0  0
   10.0506   -3.9815   23.3741 H   0  0  0  0  0  0  0  0  0  0  0  0
   10.8647   -2.7284   21.6098 H   0  0  0  0  0  0  0  0  0  0  0  0
   12.2190   -2.1401   22.5870 H   0  0  0  0  0  0  0  0  0  0  0  0
   10.9179   -0.1432   22.4053 H   0  0  0  0  0  0  0  0  0  0  0  0
    8.6927   -0.3929   21.1488 N   0  0  0  0  0  0  0  0  0  0  0  0
    7.4193   -0.7839   20.9338 N   0  0  0  0  0  0  0  0  0  0  0  0
    6.6701   -0.2208   19.8975 C   0  0  0  0  0  0  0  0  0  0  0  0
    5.3317    0.1819   20.0227 C   0  0  0  0  0  0  0  0  0  0  0  0
    4.7746    0.8956   18.9541 C   0  0  0  0  0  0  0  0  0  0  0  0
    5.5342    1.1503   17.8036 C   0  0  0  0  0  0  0  0  0  0  0  0
    6.7936    0.7044   17.6583 N   0  0  0  0  0  0  0  0  0  0  0  0
    7.3434    0.0492   18.6936 C   0  0  0  0  0  0  0  0  0  0  0  0
    8.3753   -0.2786   18.6110 H   0  0  0  0  0  0  0  0  0  0  0  0
    5.0991    1.7326   16.9976 H   0  0  0  0  0  0  0  0  0  0  0  0
    3.7644    1.2906   18.9979 H   0  0  0  0  0  0  0  0  0  0  0  0
    4.7598    0.0109   20.9360 H   0  0  0  0  0  0  0  0  0  0  0  0
    5.5000   -2.5726   23.0357 H   0  0  0  0  0  0  0  0  0  0  0  0
    5.0375   -1.9769   21.4281 H   0  0  0  0  0  0  0  0  0  0  0  0
    6.3870   -5.2324   22.5806 S   0  0  0  0  0  0  0  0  0  0  0  0
    6.1077   -6.3823   21.2909 C   0  0  0  0  0  0  0  0  0  0  0  0
    5.7676   -5.7794   20.1005 C   0  0  0  0  0  0  0  0  0  0  0  0
    5.5315   -6.3195   19.1891 H   0  0  0  0  0  0  0  0  0  0  0  0
    6.1642   -7.4512   21.4622 H   0  0  0  0  0  0  0  0  0  0  0  0
  1  2  1  0
  2  3  2  0
  3  4  1  0
  4  5  1  0
  5  6  2  0
  6  7  1  0
  7  8  1  0
  8  9  1  0
  9 10  1  0
 10 11  1  0
 11 12  1  0
 12 13  1  0
 12 14  1  0
 10 15  1  0
 10 16  1  0
  9 17  1  0
  9 18  1  0
  8 19  1  0
  7 20  2  0
 20 21  1  0
 21 22  1  0
 22 23  2  0
 23 24  1  0
 24 25  2  0
 25 26  1  0
 26 27  2  0
 27 28  1  0
 25 29  1  0
 24 30  1  0
 23 31  1  0
  4 32  1  0
  4 33  1  0
  3 34  1  0
 34 35  1  0
 35 36  2  0
 36 37  1  0
 35 38  1  0
 36  2  1  0
 21  5  1  0
 27 22  1  0
 12  8  1  0
M  END
>  <cnnaffinity>  (1) 
-5.7161

>  <filename>  (1) 
Brc1ccsc1Cc1nc(C2CCOC2)nn1-c1cccnc1

$$$$
