
     RDKit          3D

 38 41  0  0  0  0  0  0  0  0999 V2000
    6.6274    5.6864   21.3026 Br  0  0  0  0  0  0  0  0  0  0  0  0
    7.2089    4.0624   22.1261 C   0  0  0  0  0  0  0  0  0  0  0  0
    8.5295    3.7543   22.3423 C   0  0  0  0  0  0  0  0  0  0  0  0
    8.7427    2.1365   23.0005 S   0  0  0  0  0  0  0  0  0  0  0  0
    6.9866    1.9072   23.0164 C   0  0  0  0  0  0  0  0  0  0  0  0
    6.2579    0.6346   23.3256 C   0  0  0  0  0  0  0  0  0  0  0  0
    6.9529   -0.4343   22.5553 C   0  0  0  0  0  0  0  0  0  0  0  0
    7.6363   -1.3250   23.1972 N   0  0  0  0  0  0  0  0  0  0  0  0
    8.2823   -1.9821   22.1790 C   0  0  0  0  0  0  0  0  0  0  0  0
    9.1681   -3.1390   22.4416 C   0  0  0  0  0  0  0  0  0  0  0  0
    8.7707   -3.9120   23.6975 C   0  0  0  0  0  0  0  0  0  0  0  0
    9.6543   -3.3275   24.7969 C   0  0  0  0  0  0  0  0  0  0  0  0
   10.4413   -2.3097   24.1658 O   0  0  0  0  0  0  0  0  0  0  0  0
   10.5580   -2.6346   22.7829 C   0  0  0  0  0  0  0  0  0  0  0  0
   10.8600   -1.7714   22.1790 H   0  0  0  0  0  0  0  0  0  0  0  0
   11.3057   -3.4185   22.6573 H   0  0  0  0  0  0  0  0  0  0  0  0
    9.0493   -2.9039   25.6042 H   0  0  0  0  0  0  0  0  0  0  0  0
   10.2975   -4.1037   25.2224 H   0  0  0  0  0  0  0  0  0  0  0  0
    7.7068   -3.7889   23.9268 H   0  0  0  0  0  0  0  0  0  0  0  0
    8.9759   -4.9769   23.5769 H   0  0  0  0  0  0  0  0  0  0  0  0
    9.1162   -3.7486   21.5471 H   0  0  0  0  0  0  0  0  0  0  0  0
    8.0528   -1.5469   20.9674 N   0  0  0  0  0  0  0  0  0  0  0  0
    7.1589   -0.5548   21.1771 N   0  0  0  0  0  0  0  0  0  0  0  0
    6.5543    0.1306   20.1133 C   0  0  0  0  0  0  0  0  0  0  0  0
    5.4011    0.9080   20.2636 C   0  0  0  0  0  0  0  0  0  0  0  0
    4.8413    1.4752   19.1162 C   0  0  0  0  0  0  0  0  0  0  0  0
    5.4440    1.2816   17.8681 C   0  0  0  0  0  0  0  0  0  0  0  0
    6.5662    0.5605   17.7227 N   0  0  0  0  0  0  0  0  0  0  0  0
    7.1029   -0.0024   18.8210 C   0  0  0  0  0  0  0  0  0  0  0  0
    8.0051   -0.5948   18.7002 H   0  0  0  0  0  0  0  0  0  0  0  0
    4.9867    1.7161   16.9843 H   0  0  0  0  0  0  0  0  0  0  0  0
    3.9436    2.0756   19.1688 H   0  0  0  0  0  0  0  0  0  0  0  0
    4.9424    1.0563   21.2401 H   0  0  0  0  0  0  0  0  0  0  0  0
    5.2011    0.6893   23.0494 H   0  0  0  0  0  0  0  0  0  0  0  0
    6.3181    0.4193   24.3965 H   0  0  0  0  0  0  0  0  0  0  0  0
    6.3137    2.9928   22.5402 C   0  0  0  0  0  0  0  0  0  0  0  0
    5.2349    2.9967   22.4353 H   0  0  0  0  0  0  0  0  0  0  0  0
    9.3497    4.4320   22.1318 H   0  0  0  0  0  0  0  0  0  0  0  0
  1  2  1  0
  2  3  2  0
  3  4  1  0
  4  5  1  0
  5  6  1  0
  6  7  1  0
  7  8  2  0
  8  9  1  0
  9 10  1  0
 10 11  1  0
 11 12  1  0
 12 13  1  0
 13 14  1  0
 14 15  1  0
 14 16  1  0
 12 17  1  0
 12 18  1  0
 11 19  1  0
 11 20  1  0
 10 21  1  0
  9 22  2  0
 22 23  1  0
 23 24  1  0
 24 25  2  0
 25 26  1  0
 26 27  2  0
 27 28  1  0
 28 29  2  0
 29 30  1  0
 27 31  1  0
 26 32  1  0
 25 33  1  0
  6 34  1  0
  6 35  1  0
  5 36  2  0
 36 37  1  0
  3 38  1  0
 36  2  1  0
 23  7  1  0
 29 24  1  0
 14 10  1  0
M  END
>  <cnnaffinity>  (1) 
-5.9945

>  <filename>  (1) 
Brc1csc(Cc2nc(C3CCOC3)nn2-c2cccnc2)c1

$$$$
