
     RDKit          3D

 38 42  0  0  0  0  0  0  0  0999 V2000
   11.9939    2.3028   24.2091 Br  0  0  0  0  0  0  0  0  0  0  0  0
   10.1111    2.0025   24.2702 C   0  0  0  0  0  0  0  0  0  0  0  0
    9.2417    2.0780   23.2180 C   0  0  0  0  0  0  0  0  0  0  0  0
    8.0251    1.6450   23.7035 N   0  0  0  0  0  0  0  0  0  0  0  0
    6.9384    1.1300   22.8477 C   0  0  0  0  0  0  0  0  0  0  0  0
    7.3576   -0.2062   22.2739 C   0  0  0  0  0  0  0  0  0  0  0  0
    7.8624   -1.1741   22.9842 N   0  0  0  0  0  0  0  0  0  0  0  0
    8.2000   -2.1255   22.0396 C   0  0  0  0  0  0  0  0  0  0  0  0
    8.8793   -3.4166   22.3944 C   0  0  0  0  0  0  0  0  0  0  0  0
    8.2024   -4.7563   22.2540 C   0  0  0  0  0  0  0  0  0  0  0  0
    8.4361   -4.1780   23.6634 C   0  0  0  0  0  0  0  0  0  0  0  0
    8.8705   -5.4263   24.4506 C   0  0  0  0  0  0  0  0  0  0  0  0
    9.7009   -4.1824   24.5474 C   0  0  0  0  0  0  0  0  0  0  0  0
    9.6682   -3.5593   25.4404 H   0  0  0  0  0  0  0  0  0  0  0  0
   10.6869   -4.1931   24.0720 H   0  0  0  0  0  0  0  0  0  0  0  0
    8.1904   -5.7118   25.2616 H   0  0  0  0  0  0  0  0  0  0  0  0
    9.2616   -6.2791   23.8942 H   0  0  0  0  0  0  0  0  0  0  0  0
    8.7973   -5.6259   21.9541 H   0  0  0  0  0  0  0  0  0  0  0  0
    7.1530   -4.8432   21.9622 H   0  0  0  0  0  0  0  0  0  0  0  0
    9.9515   -3.2751   22.2622 H   0  0  0  0  0  0  0  0  0  0  0  0
    7.9257   -1.7914   20.8007 N   0  0  0  0  0  0  0  0  0  0  0  0
    7.3270   -0.5898   20.9387 N   0  0  0  0  0  0  0  0  0  0  0  0
    6.6725    0.0567   19.8888 C   0  0  0  0  0  0  0  0  0  0  0  0
    5.5204    0.8061   20.1266 C   0  0  0  0  0  0  0  0  0  0  0  0
    4.9016    1.4235   19.0410 C   0  0  0  0  0  0  0  0  0  0  0  0
    5.4419    1.2860   17.7582 C   0  0  0  0  0  0  0  0  0  0  0  0
    6.5296    0.5281   17.5214 N   0  0  0  0  0  0  0  0  0  0  0  0
    7.1246   -0.0843   18.5657 C   0  0  0  0  0  0  0  0  0  0  0  0
    7.9979   -0.6988   18.3652 H   0  0  0  0  0  0  0  0  0  0  0  0
    4.9631    1.8038   16.9304 H   0  0  0  0  0  0  0  0  0  0  0  0
    4.0049    2.0137   19.1851 H   0  0  0  0  0  0  0  0  0  0  0  0
    5.1050    0.8757   21.1300 H   0  0  0  0  0  0  0  0  0  0  0  0
    6.0188    1.0009   23.4221 H   0  0  0  0  0  0  0  0  0  0  0  0
    6.7313    1.8408   22.0415 H   0  0  0  0  0  0  0  0  0  0  0  0
    8.2098    1.3932   25.0653 C   0  0  0  0  0  0  0  0  0  0  0  0
    9.4534    1.6056   25.4212 N   0  0  0  0  0  0  0  0  0  0  0  0
    7.4394    1.0432   25.7461 H   0  0  0  0  0  0  0  0  0  0  0  0
    9.4754    2.3561   22.1958 H   0  0  0  0  0  0  0  0  0  0  0  0
  1  2  1  0
  2  3  2  0
  3  4  1  0
  4  5  1  0
  5  6  1  0
  6  7  2  0
  7  8  1  0
  8  9  1  0
  9 10  1  0
 10 11  1  0
 11 12  1  0
 12 13  1  0
 13 14  1  0
 13 15  1  0
 12 16  1  0
 12 17  1  0
 10 18  1  0
 10 19  1  0
  9 20  1  0
  8 21  2  0
 21 22  1  0
 22 23  1  0
 23 24  2  0
 24 25  1  0
 25 26  2  0
 26 27  1  0
 27 28  2  0
 28 29  1  0
 26 30  1  0
 25 31  1  0
 24 32  1  0
  5 33  1  0
  5 34  1  0
  4 35  1  0
 35 36  2  0
 35 37  1  0
  3 38  1  0
 36  2  1  0
 22  6  1  0
 28 23  1  0
 11  9  1  0
 13 11  1  0
M  END
>  <cnnaffinity>  (1) 
-6.2846

>  <filename>  (1) 
Brc1cn(Cc2nc(C3CC34CC4)nn2-c2cccnc2)cn1

$$$$
