
     RDKit          3D

 37 41  0  0  0  0  0  0  0  0999 V2000
   11.8795    3.1561   23.8100 Br  0  0  0  0  0  0  0  0  0  0  0  0
   10.1898    2.3307   24.1312 C   0  0  0  0  0  0  0  0  0  0  0  0
    9.2866    2.1729   23.1910 N   0  0  0  0  0  0  0  0  0  0  0  0
    8.1569    1.5730   23.7119 C   0  0  0  0  0  0  0  0  0  0  0  0
    7.0306    1.1644   22.8236 C   0  0  0  0  0  0  0  0  0  0  0  0
    7.4382   -0.1474   22.2483 C   0  0  0  0  0  0  0  0  0  0  0  0
    7.9655   -1.0885   22.9728 N   0  0  0  0  0  0  0  0  0  0  0  0
    8.2386   -2.0853   22.0511 C   0  0  0  0  0  0  0  0  0  0  0  0
    8.8909   -3.3932   22.4116 C   0  0  0  0  0  0  0  0  0  0  0  0
    8.2052   -4.7251   22.2335 C   0  0  0  0  0  0  0  0  0  0  0  0
    8.4216   -4.1742   23.6601 C   0  0  0  0  0  0  0  0  0  0  0  0
    9.6787   -4.2254   24.5554 C   0  0  0  0  0  0  0  0  0  0  0  0
    8.8253   -5.4515   24.4214 C   0  0  0  0  0  0  0  0  0  0  0  0
    9.2192   -6.2950   23.8501 H   0  0  0  0  0  0  0  0  0  0  0  0
    8.1289   -5.7650   25.2062 H   0  0  0  0  0  0  0  0  0  0  0  0
    9.6618   -3.6175   25.4650 H   0  0  0  0  0  0  0  0  0  0  0  0
   10.6577   -4.2390   24.0614 H   0  0  0  0  0  0  0  0  0  0  0  0
    7.1695   -4.7999   21.9005 H   0  0  0  0  0  0  0  0  0  0  0  0
    8.7849   -5.6039   21.9474 H   0  0  0  0  0  0  0  0  0  0  0  0
    9.9664   -3.2643   22.3142 H   0  0  0  0  0  0  0  0  0  0  0  0
    7.9406   -1.7783   20.8107 N   0  0  0  0  0  0  0  0  0  0  0  0
    7.3600   -0.5641   20.9263 N   0  0  0  0  0  0  0  0  0  0  0  0
    6.6939    0.0675   19.8793 C   0  0  0  0  0  0  0  0  0  0  0  0
    5.5430    0.8160   20.1293 C   0  0  0  0  0  0  0  0  0  0  0  0
    4.9106    1.4171   19.0462 C   0  0  0  0  0  0  0  0  0  0  0  0
    5.4390    1.2743   17.7582 C   0  0  0  0  0  0  0  0  0  0  0  0
    6.5299    0.5241   17.5105 N   0  0  0  0  0  0  0  0  0  0  0  0
    7.1372   -0.0775   18.5518 C   0  0  0  0  0  0  0  0  0  0  0  0
    8.0114   -0.6923   18.3480 H   0  0  0  0  0  0  0  0  0  0  0  0
    4.9519    1.7898   16.9366 H   0  0  0  0  0  0  0  0  0  0  0  0
    4.0138    2.0039   19.1957 H   0  0  0  0  0  0  0  0  0  0  0  0
    5.1439    0.8924   21.1407 H   0  0  0  0  0  0  0  0  0  0  0  0
    6.8711    1.9000   22.0333 H   0  0  0  0  0  0  0  0  0  0  0  0
    6.1052    1.0434   23.3883 H   0  0  0  0  0  0  0  0  0  0  0  0
    8.1972    1.2907   25.0504 C   0  0  0  0  0  0  0  0  0  0  0  0
    9.7357    1.7484   25.7239 S   0  0  0  0  0  0  0  0  0  0  0  0
    7.4049    0.8061   25.6069 H   0  0  0  0  0  0  0  0  0  0  0  0
  1  2  1  0
  2  3  2  0
  3  4  1  0
  4  5  1  0
  5  6  1  0
  6  7  2  0
  7  8  1  0
  8  9  1  0
  9 10  1  0
 10 11  1  0
 11 12  1  0
 12 13  1  0
 13 14  1  0
 13 15  1  0
 12 16  1  0
 12 17  1  0
 10 18  1  0
 10 19  1  0
  9 20  1  0
  8 21  2  0
 21 22  1  0
 22 23  1  0
 23 24  2  0
 24 25  1  0
 25 26  2  0
 26 27  1  0
 27 28  2  0
 28 29  1  0
 26 30  1  0
 25 31  1  0
 24 32  1  0
  5 33  1  0
  5 34  1  0
  4 35  2  0
 35 36  1  0
 35 37  1  0
 36  2  1  0
 22  6  1  0
 28 23  1  0
 11  9  1  0
 13 11  1  0
M  END
>  <cnnaffinity>  (1) 
-6.54361

>  <filename>  (1) 
Brc1nc(Cc2nc(C3CC34CC4)nn2-c2cccnc2)cs1

$$$$
