
     RDKit          3D

 37 41  0  0  0  0  0  0  0  0999 V2000
    6.2930   -0.4114   25.1131 Br  0  0  0  0  0  0  0  0  0  0  0  0
    6.5813    1.1856   24.0974 C   0  0  0  0  0  0  0  0  0  0  0  0
    6.2949    2.3525   24.6901 N   0  0  0  0  0  0  0  0  0  0  0  0
    6.5231    3.4893   24.0204 C   0  0  0  0  0  0  0  0  0  0  0  0
    7.0353    3.5065   22.7215 C   0  0  0  0  0  0  0  0  0  0  0  0
    7.3040    2.3101   22.0689 C   0  0  0  0  0  0  0  0  0  0  0  0
    7.0771    1.1285   22.7865 C   0  0  0  0  0  0  0  0  0  0  0  0
    7.4149   -0.1678   22.2371 C   0  0  0  0  0  0  0  0  0  0  0  0
    7.7896   -1.1583   22.9880 N   0  0  0  0  0  0  0  0  0  0  0  0
    8.1131   -2.1362   22.0643 C   0  0  0  0  0  0  0  0  0  0  0  0
    8.7240   -3.4554   22.4411 C   0  0  0  0  0  0  0  0  0  0  0  0
    8.0330   -4.7829   22.2548 C   0  0  0  0  0  0  0  0  0  0  0  0
    8.2484   -4.2424   23.6858 C   0  0  0  0  0  0  0  0  0  0  0  0
    9.4744   -4.3000   24.6208 C   0  0  0  0  0  0  0  0  0  0  0  0
    8.6547   -5.5437   24.4132 C   0  0  0  0  0  0  0  0  0  0  0  0
    9.0856   -6.3553   23.8214 H   0  0  0  0  0  0  0  0  0  0  0  0
    7.9489   -5.9054   25.1720 H   0  0  0  0  0  0  0  0  0  0  0  0
   10.4594   -4.2112   24.1517 H   0  0  0  0  0  0  0  0  0  0  0  0
    9.3978   -3.7288   25.5515 H   0  0  0  0  0  0  0  0  0  0  0  0
    8.6701   -5.6001   21.9047 H   0  0  0  0  0  0  0  0  0  0  0  0
    6.9860   -4.8988   21.9590 H   0  0  0  0  0  0  0  0  0  0  0  0
    9.8015   -3.3677   22.3180 H   0  0  0  0  0  0  0  0  0  0  0  0
    7.9557   -1.7985   20.8053 N   0  0  0  0  0  0  0  0  0  0  0  0
    7.4480   -0.5534   20.9016 N   0  0  0  0  0  0  0  0  0  0  0  0
    6.7846    0.0728   19.8484 C   0  0  0  0  0  0  0  0  0  0  0  0
    5.6484    0.8350   20.1205 C   0  0  0  0  0  0  0  0  0  0  0  0
    4.9865    1.4206   19.0488 C   0  0  0  0  0  0  0  0  0  0  0  0
    5.4811    1.2583   17.7493 C   0  0  0  0  0  0  0  0  0  0  0  0
    6.5653    0.5053   17.4807 N   0  0  0  0  0  0  0  0  0  0  0  0
    7.1928   -0.0948   18.5112 C   0  0  0  0  0  0  0  0  0  0  0  0
    8.0537   -0.7213   18.2883 H   0  0  0  0  0  0  0  0  0  0  0  0
    4.9650    1.7521   16.9323 H   0  0  0  0  0  0  0  0  0  0  0  0
    4.0905    2.0053   19.2176 H   0  0  0  0  0  0  0  0  0  0  0  0
    5.2813    0.9366   21.1432 H   0  0  0  0  0  0  0  0  0  0  0  0
    7.7119    2.3220   21.0543 H   0  0  0  0  0  0  0  0  0  0  0  0
    7.2256    4.4573   22.2394 H   0  0  0  0  0  0  0  0  0  0  0  0
    6.3058    4.4315   24.5114 H   0  0  0  0  0  0  0  0  0  0  0  0
  1  2  1  0
  2  3  2  0
  3  4  1  0
  4  5  2  0
  5  6  1  0
  6  7  2  0
  7  8  1  0
  8  9  2  0
  9 10  1  0
 10 11  1  0
 11 12  1  0
 12 13  1  0
 13 14  1  0
 14 15  1  0
 15 16  1  0
 15 17  1  0
 14 18  1  0
 14 19  1  0
 12 20  1  0
 12 21  1  0
 11 22  1  0
 10 23  2  0
 23 24  1  0
 24 25  1  0
 25 26  2  0
 26 27  1  0
 27 28  2  0
 28 29  1  0
 29 30  2  0
 30 31  1  0
 28 32  1  0
 27 33  1  0
 26 34  1  0
  6 35  1  0
  5 36  1  0
  4 37  1  0
  7  2  1  0
 24  8  1  0
 30 25  1  0
 13 11  1  0
 15 13  1  0
M  END
>  <cnnaffinity>  (1) 
-6.07563

>  <filename>  (1) 
Brc1ncccc1-c1nc(C2CC23CC3)nn1-c1cccnc1

$$$$
