
     RDKit          3D

 39 42  0  0  0  0  0  0  0  0999 V2000
    7.9604    7.9682   24.0150 Br  0  0  0  0  0  0  0  0  0  0  0  0
    8.1752    6.2082   23.3007 C   0  0  0  0  0  0  0  0  0  0  0  0
    7.1812    5.6958   22.4554 C   0  0  0  0  0  0  0  0  0  0  0  0
    7.3038    4.4098   21.9270 C   0  0  0  0  0  0  0  0  0  0  0  0
    8.4217    3.6522   22.2945 C   0  0  0  0  0  0  0  0  0  0  0  0
    8.5633    2.2107   21.8356 C   0  0  0  0  0  0  0  0  0  0  0  0
    7.5513    1.3535   22.6031 C   0  0  0  0  0  0  0  0  0  0  0  0
    7.6756   -0.0788   22.1701 C   0  0  0  0  0  0  0  0  0  0  0  0
    8.2421   -0.9853   22.9114 N   0  0  0  0  0  0  0  0  0  0  0  0
    8.2922   -2.0841   22.0710 C   0  0  0  0  0  0  0  0  0  0  0  0
    8.9506   -3.3739   22.4978 C   0  0  0  0  0  0  0  0  0  0  0  0
    8.2624   -4.7264   22.2883 C   0  0  0  0  0  0  0  0  0  0  0  0
    8.4793   -4.1927   23.6984 C   0  0  0  0  0  0  0  0  0  0  0  0
    9.2496   -4.6806   24.3074 H   0  0  0  0  0  0  0  0  0  0  0  0
    7.5989   -3.8490   24.2488 H   0  0  0  0  0  0  0  0  0  0  0  0
    8.8570   -5.5998   22.0000 H   0  0  0  0  0  0  0  0  0  0  0  0
    7.2344   -4.7261   21.9116 H   0  0  0  0  0  0  0  0  0  0  0  0
   10.0329   -3.3218   22.3655 H   0  0  0  0  0  0  0  0  0  0  0  0
    7.7994   -1.8856   20.8671 N   0  0  0  0  0  0  0  0  0  0  0  0
    7.3587   -0.6091   20.9246 N   0  0  0  0  0  0  0  0  0  0  0  0
    6.6816    0.0344   19.8799 C   0  0  0  0  0  0  0  0  0  0  0  0
    5.5304    0.7888   20.1358 C   0  0  0  0  0  0  0  0  0  0  0  0
    4.8962    1.4068   19.0575 C   0  0  0  0  0  0  0  0  0  0  0  0
    5.4281    1.2796   17.7701 C   0  0  0  0  0  0  0  0  0  0  0  0
    6.5265    0.5407   17.5187 N   0  0  0  0  0  0  0  0  0  0  0  0
    7.1303   -0.0825   18.5510 C   0  0  0  0  0  0  0  0  0  0  0  0
    8.0150   -0.6808   18.3379 H   0  0  0  0  0  0  0  0  0  0  0  0
    4.9395    1.7964   16.9492 H   0  0  0  0  0  0  0  0  0  0  0  0
    3.9986    1.9977   19.2028 H   0  0  0  0  0  0  0  0  0  0  0  0
    5.1280    0.8719   21.1447 H   0  0  0  0  0  0  0  0  0  0  0  0
    6.5382    1.7153   22.4113 H   0  0  0  0  0  0  0  0  0  0  0  0
    7.7519    1.4316   23.6766 H   0  0  0  0  0  0  0  0  0  0  0  0
    9.5782    1.8368   22.0288 H   0  0  0  0  0  0  0  0  0  0  0  0
    8.3742    2.1243   20.7576 H   0  0  0  0  0  0  0  0  0  0  0  0
    9.3743    4.2452   23.1492 C   0  0  0  0  0  0  0  0  0  0  0  0
    9.2613    5.4957   23.6398 N   0  0  0  0  0  0  0  0  0  0  0  0
   10.2441    3.6724   23.4590 H   0  0  0  0  0  0  0  0  0  0  0  0
    6.5568    4.0225   21.2293 H   0  0  0  0  0  0  0  0  0  0  0  0
    6.3373    6.3222   22.1882 H   0  0  0  0  0  0  0  0  0  0  0  0
  1  2  1  0
  2  3  2  0
  3  4  1  0
  4  5  2  0
  5  6  1  0
  6  7  1  0
  7  8  1  0
  8  9  2  0
  9 10  1  0
 10 11  1  0
 11 12  1  0
 12 13  1  0
 13 14  1  0
 13 15  1  0
 12 16  1  0
 12 17  1  0
 11 18  1  0
 10 19  2  0
 19 20  1  0
 20 21  1  0
 21 22  2  0
 22 23  1  0
 23 24  2  0
 24 25  1  0
 25 26  2  0
 26 27  1  0
 24 28  1  0
 23 29  1  0
 22 30  1  0
  7 31  1  0
  7 32  1  0
  6 33  1  0
  6 34  1  0
  5 35  1  0
 35 36  2  0
 35 37  1  0
  4 38  1  0
  3 39  1  0
 36  2  1  0
 20  8  1  0
 26 21  1  0
 13 11  1  0
M  END
>  <cnnaffinity>  (1) 
-5.80284

>  <filename>  (1) 
Brc1ccc(CCc2nc(C3CC3)nn2-c2cccnc2)cn1

$$$$
