
     RDKit          3D

 39 42  0  0  0  0  0  0  0  0999 V2000
   11.9814    1.3148   24.1377 Br  0  0  0  0  0  0  0  0  0  0  0  0
   10.3163    1.7328   23.2966 C   0  0  0  0  0  0  0  0  0  0  0  0
    9.1325    1.2283   23.8350 C   0  0  0  0  0  0  0  0  0  0  0  0
    7.9146    1.5126   23.2216 C   0  0  0  0  0  0  0  0  0  0  0  0
    6.6807    0.7436   23.5376 C   0  0  0  0  0  0  0  0  0  0  0  0
    6.9734   -0.5587   22.8658 C   0  0  0  0  0  0  0  0  0  0  0  0
    7.5268   -1.5422   23.5164 N   0  0  0  0  0  0  0  0  0  0  0  0
    7.9710   -2.3527   22.4898 C   0  0  0  0  0  0  0  0  0  0  0  0
    8.9248   -3.4899   22.6968 C   0  0  0  0  0  0  0  0  0  0  0  0
   10.3453   -3.0309   23.0785 C   0  0  0  0  0  0  0  0  0  0  0  0
   10.2646   -3.8396   24.3617 C   0  0  0  0  0  0  0  0  0  0  0  0
    8.8589   -4.2944   23.9965 C   0  0  0  0  0  0  0  0  0  0  0  0
    8.7703   -5.3751   23.8429 H   0  0  0  0  0  0  0  0  0  0  0  0
    8.0912   -3.9672   24.7049 H   0  0  0  0  0  0  0  0  0  0  0  0
   11.0019   -4.6436   24.4352 H   0  0  0  0  0  0  0  0  0  0  0  0
   10.3110   -3.2313   25.2667 H   0  0  0  0  0  0  0  0  0  0  0  0
   11.1481   -3.3415   22.4094 H   0  0  0  0  0  0  0  0  0  0  0  0
   10.4388   -1.9525   23.2466 H   0  0  0  0  0  0  0  0  0  0  0  0
    8.8607   -4.1377   21.8224 H   0  0  0  0  0  0  0  0  0  0  0  0
    7.6347   -1.9778   21.2800 N   0  0  0  0  0  0  0  0  0  0  0  0
    6.9855   -0.8155   21.4955 N   0  0  0  0  0  0  0  0  0  0  0  0
    6.5335   -0.0146   20.4344 C   0  0  0  0  0  0  0  0  0  0  0  0
    5.4711    0.8830   20.5645 C   0  0  0  0  0  0  0  0  0  0  0  0
    5.0072    1.5196   19.4109 C   0  0  0  0  0  0  0  0  0  0  0  0
    5.6217    1.2714   18.1794 C   0  0  0  0  0  0  0  0  0  0  0  0
    6.6780    0.4499   18.0598 N   0  0  0  0  0  0  0  0  0  0  0  0
    7.1232   -0.1746   19.1665 C   0  0  0  0  0  0  0  0  0  0  0  0
    7.9781   -0.8380   19.0758 H   0  0  0  0  0  0  0  0  0  0  0  0
    5.2288    1.7543   17.2899 H   0  0  0  0  0  0  0  0  0  0  0  0
    4.1597    2.1940   19.4472 H   0  0  0  0  0  0  0  0  0  0  0  0
    4.9827    1.0472   21.5223 H   0  0  0  0  0  0  0  0  0  0  0  0
    6.5534    0.6164   24.6177 H   0  0  0  0  0  0  0  0  0  0  0  0
    5.8040    1.2312   23.1118 H   0  0  0  0  0  0  0  0  0  0  0  0
    7.9292    2.3195   22.1027 C   0  0  0  0  0  0  0  0  0  0  0  0
    9.1404    2.7587   21.6028 C   0  0  0  0  0  0  0  0  0  0  0  0
   10.3170    2.4876   22.1855 N   0  0  0  0  0  0  0  0  0  0  0  0
    9.0759    3.2938   20.6711 H   0  0  0  0  0  0  0  0  0  0  0  0
    7.0174    2.5720   21.5798 H   0  0  0  0  0  0  0  0  0  0  0  0
    9.2033    0.5704   24.6918 H   0  0  0  0  0  0  0  0  0  0  0  0
  1  2  1  0
  2  3  2  0
  3  4  1  0
  4  5  1  0
  5  6  1  0
  6  7  2  0
  7  8  1  0
  8  9  1  0
  9 10  1  0
 10 11  1  0
 11 12  1  0
 12 13  1  0
 12 14  1  0
 11 15  1  0
 11 16  1  0
 10 17  1  0
 10 18  1  0
  9 19  1  0
  8 20  2  0
 20 21  1  0
 21 22  1  0
 22 23  2  0
 23 24  1  0
 24 25  2  0
 25 26  1  0
 26 27  2  0
 27 28  1  0
 25 29  1  0
 24 30  1  0
 23 31  1  0
  5 32  1  0
  5 33  1  0
  4 34  2  0
 34 35  1  0
 35 36  2  0
 35 37  1  0
 34 38  1  0
  3 39  1  0
 36  2  1  0
 21  6  1  0
 27 22  1  0
 12  9  1  0
M  END
>  <cnnaffinity>  (1) 
-6.29809

>  <filename>  (1) 
Brc1cc(Cc2nc(C3CCC3)nn2-c2cccnc2)ccn1

$$$$
