
     RDKit          3D

 41 44  0  0  0  0  0  0  0  0999 V2000
    9.1817    2.3249   21.0762 Br  0  0  0  0  0  0  0  0  0  0  0  0
    9.4247    1.9448   22.9155 C   0  0  0  0  0  0  0  0  0  0  0  0
   10.6979    1.9989   23.4874 C   0  0  0  0  0  0  0  0  0  0  0  0
   10.8672    1.7251   24.8474 C   0  0  0  0  0  0  0  0  0  0  0  0
    9.7436    1.4173   25.6221 C   0  0  0  0  0  0  0  0  0  0  0  0
    8.4711    1.3611   25.0467 C   0  0  0  0  0  0  0  0  0  0  0  0
    8.3072    1.5907   23.6777 C   0  0  0  0  0  0  0  0  0  0  0  0
    7.0101    1.2711   22.9688 C   0  0  0  0  0  0  0  0  0  0  0  0
    7.2371   -0.0854   22.3550 C   0  0  0  0  0  0  0  0  0  0  0  0
    7.5795   -1.1250   23.0659 N   0  0  0  0  0  0  0  0  0  0  0  0
    7.9253   -2.0762   22.1152 C   0  0  0  0  0  0  0  0  0  0  0  0
    8.5001   -3.4414   22.4537 C   0  0  0  0  0  0  0  0  0  0  0  0
    7.5600   -4.3032   23.3043 C   0  0  0  0  0  0  0  0  0  0  0  0
    8.5319   -5.1541   24.0996 C   0  0  0  0  0  0  0  0  0  0  0  0
    9.6526   -4.1697   24.3743 C   0  0  0  0  0  0  0  0  0  0  0  0
    9.7477   -3.3790   23.1849 O   0  0  0  0  0  0  0  0  0  0  0  0
   10.5927   -4.6884   24.5844 H   0  0  0  0  0  0  0  0  0  0  0  0
    9.3962   -3.5278   25.2268 H   0  0  0  0  0  0  0  0  0  0  0  0
    8.0946   -5.5527   25.0208 H   0  0  0  0  0  0  0  0  0  0  0  0
    8.9075   -5.9867   23.4921 H   0  0  0  0  0  0  0  0  0  0  0  0
    6.8761   -4.9070   22.6968 H   0  0  0  0  0  0  0  0  0  0  0  0
    6.9681   -3.6723   23.9784 H   0  0  0  0  0  0  0  0  0  0  0  0
    8.6769   -3.9534   21.5073 H   0  0  0  0  0  0  0  0  0  0  0  0
    7.7546   -1.6807   20.8729 N   0  0  0  0  0  0  0  0  0  0  0  0
    7.2693   -0.4250   21.0060 N   0  0  0  0  0  0  0  0  0  0  0  0
    6.6773    0.2381   19.9246 C   0  0  0  0  0  0  0  0  0  0  0  0
    5.5560    1.0523   20.1051 C   0  0  0  0  0  0  0  0  0  0  0  0
    4.9341    1.5805   18.9728 C   0  0  0  0  0  0  0  0  0  0  0  0
    5.4475    1.2927   17.7025 C   0  0  0  0  0  0  0  0  0  0  0  0
    6.5303    0.5149   17.5198 N   0  0  0  0  0  0  0  0  0  0  0  0
    7.1259   -0.0023   18.6142 C   0  0  0  0  0  0  0  0  0  0  0  0
    7.9919   -0.6457   18.4819 H   0  0  0  0  0  0  0  0  0  0  0  0
    4.9509    1.7089   16.8317 H   0  0  0  0  0  0  0  0  0  0  0  0
    4.0532    2.2089   19.0610 H   0  0  0  0  0  0  0  0  0  0  0  0
    5.1548    1.2324   21.0995 H   0  0  0  0  0  0  0  0  0  0  0  0
    6.1687    1.2313   23.6665 H   0  0  0  0  0  0  0  0  0  0  0  0
    6.8085    2.0165   22.1882 H   0  0  0  0  0  0  0  0  0  0  0  0
    7.6213    1.0807   25.6588 H   0  0  0  0  0  0  0  0  0  0  0  0
    9.8503    1.1708   26.6670 H   0  0  0  0  0  0  0  0  0  0  0  0
   11.8561    1.7480   25.2948 H   0  0  0  0  0  0  0  0  0  0  0  0
   11.5483    2.2287   22.8519 H   0  0  0  0  0  0  0  0  0  0  0  0
  1  2  1  0
  2  3  2  0
  3  4  1  0
  4  5  2  0
  5  6  1  0
  6  7  2  0
  7  8  1  0
  8  9  1  0
  9 10  2  0
 10 11  1  0
 11 12  1  0
 12 13  1  0
 13 14  1  0
 14 15  1  0
 15 16  1  0
 15 17  1  0
 15 18  1  0
 14 19  1  0
 14 20  1  0
 13 21  1  0
 13 22  1  0
 12 23  1  0
 11 24  2  0
 24 25  1  0
 25 26  1  0
 26 27  2  0
 27 28  1  0
 28 29  2  0
 29 30  1  0
 30 31  2  0
 31 32  1  0
 29 33  1  0
 28 34  1  0
 27 35  1  0
  8 36  1  0
  8 37  1  0
  6 38  1  0
  5 39  1  0
  4 40  1  0
  3 41  1  0
  7  2  1  0
 25  9  1  0
 31 26  1  0
 16 12  1  0
M  END
>  <cnnaffinity>  (1) 
-6.15158

>  <filename>  (1) 
Brc1ccccc1Cc1nc(C2CCCO2)nn1-c1cccnc1

$$$$
