
     RDKit          3D

 41 44  0  0  0  0  0  0  0  0999 V2000
   12.0859    2.7742   23.1946 Br  0  0  0  0  0  0  0  0  0  0  0  0
   10.4162    2.2032   23.9303 C   0  0  0  0  0  0  0  0  0  0  0  0
   10.3465    1.7641   25.2568 C   0  0  0  0  0  0  0  0  0  0  0  0
    9.1521    1.2557   25.7818 C   0  0  0  0  0  0  0  0  0  0  0  0
    8.0300    1.1496   24.9557 C   0  0  0  0  0  0  0  0  0  0  0  0
    8.0806    1.6015   23.6303 C   0  0  0  0  0  0  0  0  0  0  0  0
    6.9290    1.2776   22.7145 C   0  0  0  0  0  0  0  0  0  0  0  0
    7.2256   -0.1130   22.2152 C   0  0  0  0  0  0  0  0  0  0  0  0
    7.5956   -1.1169   22.9631 N   0  0  0  0  0  0  0  0  0  0  0  0
    7.9912   -2.0846   22.0434 C   0  0  0  0  0  0  0  0  0  0  0  0
    8.5824   -3.4468   22.3752 C   0  0  0  0  0  0  0  0  0  0  0  0
    7.6452   -4.3478   23.1813 C   0  0  0  0  0  0  0  0  0  0  0  0
    8.6016   -5.2033   23.9904 C   0  0  0  0  0  0  0  0  0  0  0  0
    9.7452   -4.2459   24.2723 C   0  0  0  0  0  0  0  0  0  0  0  0
    9.8189   -3.3948   23.1232 O   0  0  0  0  0  0  0  0  0  0  0  0
   10.6808   -4.7875   24.4422 H   0  0  0  0  0  0  0  0  0  0  0  0
    9.5366   -3.6391   25.1587 H   0  0  0  0  0  0  0  0  0  0  0  0
    8.1486   -5.5788   24.9108 H   0  0  0  0  0  0  0  0  0  0  0  0
    8.9554   -6.0588   23.4037 H   0  0  0  0  0  0  0  0  0  0  0  0
    7.0018   -4.9574   22.5383 H   0  0  0  0  0  0  0  0  0  0  0  0
    7.0140   -3.7480   23.8464 H   0  0  0  0  0  0  0  0  0  0  0  0
    8.7799   -3.9306   21.4192 H   0  0  0  0  0  0  0  0  0  0  0  0
    7.8263   -1.7265   20.7884 N   0  0  0  0  0  0  0  0  0  0  0  0
    7.2838   -0.4935   20.8847 N   0  0  0  0  0  0  0  0  0  0  0  0
    6.6557    0.1582   19.8220 C   0  0  0  0  0  0  0  0  0  0  0  0
    5.5077    0.9258   20.0493 C   0  0  0  0  0  0  0  0  0  0  0  0
    4.8777    1.5051   18.9491 C   0  0  0  0  0  0  0  0  0  0  0  0
    5.4054    1.3196   17.6651 C   0  0  0  0  0  0  0  0  0  0  0  0
    6.4958    0.5619   17.4383 N   0  0  0  0  0  0  0  0  0  0  0  0
    7.0994   -0.0105   18.4988 C   0  0  0  0  0  0  0  0  0  0  0  0
    7.9752   -0.6278   18.3258 H   0  0  0  0  0  0  0  0  0  0  0  0
    4.9203    1.8039   16.8236 H   0  0  0  0  0  0  0  0  0  0  0  0
    3.9804    2.1040   19.0709 H   0  0  0  0  0  0  0  0  0  0  0  0
    5.0936    1.0374   21.0524 H   0  0  0  0  0  0  0  0  0  0  0  0
    5.9693    1.3132   23.2431 H   0  0  0  0  0  0  0  0  0  0  0  0
    6.8845    1.9810   21.8756 H   0  0  0  0  0  0  0  0  0  0  0  0
    9.2739    2.1404   23.1230 C   0  0  0  0  0  0  0  0  0  0  0  0
    9.3374    2.4389   22.0789 H   0  0  0  0  0  0  0  0  0  0  0  0
    7.1328    0.6533   25.3174 H   0  0  0  0  0  0  0  0  0  0  0  0
    9.0973    0.8825   26.8025 H   0  0  0  0  0  0  0  0  0  0  0  0
   11.2469    1.7831   25.8548 H   0  0  0  0  0  0  0  0  0  0  0  0
  1  2  1  0
  2  3  2  0
  3  4  1  0
  4  5  2  0
  5  6  1  0
  6  7  1  0
  7  8  1  0
  8  9  2  0
  9 10  1  0
 10 11  1  0
 11 12  1  0
 12 13  1  0
 13 14  1  0
 14 15  1  0
 14 16  1  0
 14 17  1  0
 13 18  1  0
 13 19  1  0
 12 20  1  0
 12 21  1  0
 11 22  1  0
 10 23  2  0
 23 24  1  0
 24 25  1  0
 25 26  2  0
 26 27  1  0
 27 28  2  0
 28 29  1  0
 29 30  2  0
 30 31  1  0
 28 32  1  0
 27 33  1  0
 26 34  1  0
  7 35  1  0
  7 36  1  0
  6 37  2  0
 37 38  1  0
  5 39  1  0
  4 40  1  0
  3 41  1  0
 37  2  1  0
 24  8  1  0
 30 25  1  0
 15 11  1  0
M  END
>  <cnnaffinity>  (1) 
-6.14792

>  <filename>  (1) 
Brc1cccc(Cc2nc(C3CCCO3)nn2-c2cccnc2)c1

$$$$
