
     RDKit          3D

 40 43  0  0  0  0  0  0  0  0999 V2000
   14.4309   -0.2071   23.0459 Br  0  0  0  0  0  0  0  0  0  0  0  0
   12.7176    0.5839   22.8507 C   0  0  0  0  0  0  0  0  0  0  0  0
   12.3520    1.6899   23.6259 C   0  0  0  0  0  0  0  0  0  0  0  0
   11.1952    2.3479   23.4339 N   0  0  0  0  0  0  0  0  0  0  0  0
   10.3688    1.9030   22.4660 C   0  0  0  0  0  0  0  0  0  0  0  0
   10.6401    0.7589   21.6845 C   0  0  0  0  0  0  0  0  0  0  0  0
    9.6493    0.2129   20.6765 C   0  0  0  0  0  0  0  0  0  0  0  0
    8.6178   -0.6427   21.3129 C   0  0  0  0  0  0  0  0  0  0  0  0
    8.8590   -1.4782   22.2779 N   0  0  0  0  0  0  0  0  0  0  0  0
    7.6026   -1.9970   22.5356 C   0  0  0  0  0  0  0  0  0  0  0  0
    7.3974   -2.9606   23.6762 C   0  0  0  0  0  0  0  0  0  0  0  0
    6.9160   -2.2212   24.9274 C   0  0  0  0  0  0  0  0  0  0  0  0
    5.9984   -3.2277   25.5960 C   0  0  0  0  0  0  0  0  0  0  0  0
    5.4539   -4.0692   24.4509 C   0  0  0  0  0  0  0  0  0  0  0  0
    6.4148   -3.9861   23.3913 O   0  0  0  0  0  0  0  0  0  0  0  0
    5.3125   -5.1107   24.7589 H   0  0  0  0  0  0  0  0  0  0  0  0
    4.4841   -3.6851   24.1169 H   0  0  0  0  0  0  0  0  0  0  0  0
    5.1980   -2.7336   26.1582 H   0  0  0  0  0  0  0  0  0  0  0  0
    6.5718   -3.8646   26.2786 H   0  0  0  0  0  0  0  0  0  0  0  0
    7.7502   -1.9286   25.5774 H   0  0  0  0  0  0  0  0  0  0  0  0
    6.3580   -1.3142   24.6530 H   0  0  0  0  0  0  0  0  0  0  0  0
    8.3698   -3.4279   23.8693 H   0  0  0  0  0  0  0  0  0  0  0  0
    6.6472   -1.5360   21.7630 N   0  0  0  0  0  0  0  0  0  0  0  0
    7.2854   -0.6819   20.9443 N   0  0  0  0  0  0  0  0  0  0  0  0
    6.6525    0.0063   19.9035 C   0  0  0  0  0  0  0  0  0  0  0  0
    5.4358    0.6401   20.1469 C   0  0  0  0  0  0  0  0  0  0  0  0
    4.8216    1.2973   19.0872 C   0  0  0  0  0  0  0  0  0  0  0  0
    5.4120    1.3009   17.8218 C   0  0  0  0  0  0  0  0  0  0  0  0
    6.5838    0.6863   17.5756 N   0  0  0  0  0  0  0  0  0  0  0  0
    7.1876    0.0584   18.6043 C   0  0  0  0  0  0  0  0  0  0  0  0
    8.1352   -0.4415   18.4191 H   0  0  0  0  0  0  0  0  0  0  0  0
    4.9025    1.8242   17.0173 H   0  0  0  0  0  0  0  0  0  0  0  0
    3.8882    1.8196   19.2359 H   0  0  0  0  0  0  0  0  0  0  0  0
    5.0015    0.6223   21.1447 H   0  0  0  0  0  0  0  0  0  0  0  0
   10.1449   -0.4454   19.9623 H   0  0  0  0  0  0  0  0  0  0  0  0
    9.1623    1.0277   20.1392 H   0  0  0  0  0  0  0  0  0  0  0  0
   11.8387    0.0812   21.8981 C   0  0  0  0  0  0  0  0  0  0  0  0
   12.0913   -0.8170   21.3359 H   0  0  0  0  0  0  0  0  0  0  0  0
    9.4367    2.4317   22.3107 H   0  0  0  0  0  0  0  0  0  0  0  0
   13.0340    2.0382   24.3963 H   0  0  0  0  0  0  0  0  0  0  0  0
  1  2  1  0
  2  3  2  0
  3  4  1  0
  4  5  2  0
  5  6  1  0
  6  7  1  0
  7  8  1  0
  8  9  2  0
  9 10  1  0
 10 11  1  0
 11 12  1  0
 12 13  1  0
 13 14  1  0
 14 15  1  0
 14 16  1  0
 14 17  1  0
 13 18  1  0
 13 19  1  0
 12 20  1  0
 12 21  1  0
 11 22  1  0
 10 23  2  0
 23 24  1  0
 24 25  1  0
 25 26  2  0
 26 27  1  0
 27 28  2  0
 28 29  1  0
 29 30  2  0
 30 31  1  0
 28 32  1  0
 27 33  1  0
 26 34  1  0
  7 35  1  0
  7 36  1  0
  6 37  2  0
 37 38  1  0
  5 39  1  0
  3 40  1  0
 37  2  1  0
 24  8  1  0
 30 25  1  0
 15 11  1  0
M  END
>  <cnnaffinity>  (1) 
-6.72154

>  <filename>  (1) 
Brc1cncc(Cc2nc(C3CCCO3)nn2-c2cccnc2)c1

$$$$
