
     RDKit          3D

 37 40  0  0  0  0  0  0  0  0999 V2000
    9.1436    2.3616   21.0621 Br  0  0  0  0  0  0  0  0  0  0  0  0
    9.4199    1.9495   22.8906 C   0  0  0  0  0  0  0  0  0  0  0  0
   10.7022    2.0414   23.4354 C   0  0  0  0  0  0  0  0  0  0  0  0
   10.9013    1.7689   24.7919 C   0  0  0  0  0  0  0  0  0  0  0  0
    9.8061    1.4242   25.5864 C   0  0  0  0  0  0  0  0  0  0  0  0
    8.5263    1.3224   25.0400 C   0  0  0  0  0  0  0  0  0  0  0  0
    8.3283    1.5547   23.6751 C   0  0  0  0  0  0  0  0  0  0  0  0
    7.0169    1.1873   23.0134 C   0  0  0  0  0  0  0  0  0  0  0  0
    7.2778   -0.1658   22.3844 C   0  0  0  0  0  0  0  0  0  0  0  0
    7.7189   -1.1640   23.0975 N   0  0  0  0  0  0  0  0  0  0  0  0
    8.0765   -2.1068   22.1531 C   0  0  0  0  0  0  0  0  0  0  0  0
    8.7438   -3.4007   22.5536 C   0  0  0  0  0  0  0  0  0  0  0  0
    8.1314   -4.7623   22.2113 C   0  0  0  0  0  0  0  0  0  0  0  0
    8.1486   -4.2761   23.6582 C   0  0  0  0  0  0  0  0  0  0  0  0
    8.8452   -4.7996   24.3262 H   0  0  0  0  0  0  0  0  0  0  0  0
    7.2020   -3.9570   24.1097 H   0  0  0  0  0  0  0  0  0  0  0  0
    8.8092   -5.5918   21.9784 H   0  0  0  0  0  0  0  0  0  0  0  0
    7.1778   -4.7683   21.6727 H   0  0  0  0  0  0  0  0  0  0  0  0
    9.8291   -3.3055   22.5535 H   0  0  0  0  0  0  0  0  0  0  0  0
    7.8483   -1.7576   20.9094 N   0  0  0  0  0  0  0  0  0  0  0  0
    7.2916   -0.5238   21.0342 N   0  0  0  0  0  0  0  0  0  0  0  0
    6.6859    0.1438   19.9566 C   0  0  0  0  0  0  0  0  0  0  0  0
    5.5992    1.0070   20.1468 C   0  0  0  0  0  0  0  0  0  0  0  0
    4.9948    1.5640   19.0151 C   0  0  0  0  0  0  0  0  0  0  0  0
    5.4868    1.2623   17.7414 C   0  0  0  0  0  0  0  0  0  0  0  0
    6.5369    0.4424   17.5486 N   0  0  0  0  0  0  0  0  0  0  0  0
    7.1135   -0.1040   18.6394 C   0  0  0  0  0  0  0  0  0  0  0  0
    7.9633   -0.7635   18.4991 H   0  0  0  0  0  0  0  0  0  0  0  0
    4.9932    1.6905   16.8744 H   0  0  0  0  0  0  0  0  0  0  0  0
    4.1435    2.2316   19.1083 H   0  0  0  0  0  0  0  0  0  0  0  0
    5.2134    1.2141   21.1413 H   0  0  0  0  0  0  0  0  0  0  0  0
    6.7399    1.9296   22.2554 H   0  0  0  0  0  0  0  0  0  0  0  0
    6.2176    1.1225   23.7608 H   0  0  0  0  0  0  0  0  0  0  0  0
    7.7027    1.0028   25.6704 H   0  0  0  0  0  0  0  0  0  0  0  0
    9.9480    1.1723   26.6244 H   0  0  0  0  0  0  0  0  0  0  0  0
   11.8960    1.7995   25.2202 H   0  0  0  0  0  0  0  0  0  0  0  0
   11.5257    2.3073   22.7802 H   0  0  0  0  0  0  0  0  0  0  0  0
  1  2  1  0
  2  3  2  0
  3  4  1  0
  4  5  2  0
  5  6  1  0
  6  7  2  0
  7  8  1  0
  8  9  1  0
  9 10  2  0
 10 11  1  0
 11 12  1  0
 12 13  1  0
 13 14  1  0
 14 15  1  0
 14 16  1  0
 13 17  1  0
 13 18  1  0
 12 19  1  0
 11 20  2  0
 20 21  1  0
 21 22  1  0
 22 23  2  0
 23 24  1  0
 24 25  2  0
 25 26  1  0
 26 27  2  0
 27 28  1  0
 25 29  1  0
 24 30  1  0
 23 31  1  0
  8 32  1  0
  8 33  1  0
  6 34  1  0
  5 35  1  0
  4 36  1  0
  3 37  1  0
  7  2  1  0
 21  9  1  0
 27 22  1  0
 14 12  1  0
M  END
>  <cnnaffinity>  (1) 
-5.74599

>  <filename>  (1) 
Brc1ccccc1Cc1nc(C2CC2)nn1-c1cccnc1

$$$$
