
     RDKit          3D

 40 43  0  0  0  0  0  0  0  0999 V2000
   12.1929    1.3224   24.0267 Br  0  0  0  0  0  0  0  0  0  0  0  0
   10.5693    1.7091   23.0785 C   0  0  0  0  0  0  0  0  0  0  0  0
   10.6005    2.3229   21.8179 C   0  0  0  0  0  0  0  0  0  0  0  0
    9.4828    2.5789   21.1127 N   0  0  0  0  0  0  0  0  0  0  0  0
    8.2944    2.2654   21.6487 C   0  0  0  0  0  0  0  0  0  0  0  0
    8.1768    1.6043   22.8789 C   0  0  0  0  0  0  0  0  0  0  0  0
    6.8758    0.9698   23.3060 C   0  0  0  0  0  0  0  0  0  0  0  0
    7.0384   -0.4389   22.8084 C   0  0  0  0  0  0  0  0  0  0  0  0
    7.5351   -1.3993   23.5348 N   0  0  0  0  0  0  0  0  0  0  0  0
    7.9052   -2.3300   22.5808 C   0  0  0  0  0  0  0  0  0  0  0  0
    8.7646   -3.5132   22.9095 C   0  0  0  0  0  0  0  0  0  0  0  0
    8.3648   -4.2655   24.1767 C   0  0  0  0  0  0  0  0  0  0  0  0
    9.6830   -4.6709   24.8231 C   0  0  0  0  0  0  0  0  0  0  0  0
   10.7283   -3.9755   24.1378 O   0  0  0  0  0  0  0  0  0  0  0  0
   10.1896   -3.0470   23.1954 C   0  0  0  0  0  0  0  0  0  0  0  0
   10.2108   -2.0331   23.6182 H   0  0  0  0  0  0  0  0  0  0  0  0
   10.7919   -3.0421   22.2817 H   0  0  0  0  0  0  0  0  0  0  0  0
    9.6875   -4.3958   25.8809 H   0  0  0  0  0  0  0  0  0  0  0  0
    9.8364   -5.7545   24.7381 H   0  0  0  0  0  0  0  0  0  0  0  0
    7.8063   -3.6154   24.8612 H   0  0  0  0  0  0  0  0  0  0  0  0
    7.7561   -5.1453   23.9429 H   0  0  0  0  0  0  0  0  0  0  0  0
    8.7589   -4.1958   22.0574 H   0  0  0  0  0  0  0  0  0  0  0  0
    7.6087   -2.0234   21.3403 N   0  0  0  0  0  0  0  0  0  0  0  0
    7.0182   -0.8151   21.4672 N   0  0  0  0  0  0  0  0  0  0  0  0
    6.5704   -0.0551   20.3780 C   0  0  0  0  0  0  0  0  0  0  0  0
    5.5408    0.8837   20.4992 C   0  0  0  0  0  0  0  0  0  0  0  0
    5.0871    1.5140   19.3397 C   0  0  0  0  0  0  0  0  0  0  0  0
    5.6722    1.2167   18.1060 C   0  0  0  0  0  0  0  0  0  0  0  0
    6.6979    0.3520   17.9911 N   0  0  0  0  0  0  0  0  0  0  0  0
    7.1337   -0.2667   19.1064 C   0  0  0  0  0  0  0  0  0  0  0  0
    7.9673   -0.9580   19.0311 H   0  0  0  0  0  0  0  0  0  0  0  0
    5.2728    1.6827   17.2102 H   0  0  0  0  0  0  0  0  0  0  0  0
    4.2697    2.2251   19.3787 H   0  0  0  0  0  0  0  0  0  0  0  0
    5.0650    1.0957   21.4535 H   0  0  0  0  0  0  0  0  0  0  0  0
    6.7547    0.9909   24.3970 H   0  0  0  0  0  0  0  0  0  0  0  0
    6.0231    1.4749   22.8495 H   0  0  0  0  0  0  0  0  0  0  0  0
    9.3393    1.3267   23.6049 C   0  0  0  0  0  0  0  0  0  0  0  0
    9.2829    0.7840   24.5433 H   0  0  0  0  0  0  0  0  0  0  0  0
    7.3850    2.4575   21.0869 H   0  0  0  0  0  0  0  0  0  0  0  0
   11.5617    2.5815   21.3858 H   0  0  0  0  0  0  0  0  0  0  0  0
  1  2  1  0
  2  3  2  0
  3  4  1  0
  4  5  2  0
  5  6  1  0
  6  7  1  0
  7  8  1  0
  8  9  2  0
  9 10  1  0
 10 11  1  0
 11 12  1  0
 12 13  1  0
 13 14  1  0
 14 15  1  0
 15 16  1  0
 15 17  1  0
 13 18  1  0
 13 19  1  0
 12 20  1  0
 12 21  1  0
 11 22  1  0
 10 23  2  0
 23 24  1  0
 24 25  1  0
 25 26  2  0
 26 27  1  0
 27 28  2  0
 28 29  1  0
 29 30  2  0
 30 31  1  0
 28 32  1  0
 27 33  1  0
 26 34  1  0
  7 35  1  0
  7 36  1  0
  6 37  2  0
 37 38  1  0
  5 39  1  0
  3 40  1  0
 37  2  1  0
 24  8  1  0
 30 25  1  0
 15 11  1  0
M  END
>  <cnnaffinity>  (1) 
-6.32573

>  <filename>  (1) 
Brc1cncc(Cc2nc(C3CCOC3)nn2-c2cccnc2)c1

$$$$
