
     RDKit          3D

 39 42  0  0  0  0  0  0  0  0999 V2000
   12.2510    1.3560   24.0016 Br  0  0  0  0  0  0  0  0  0  0  0  0
   10.6192    1.7063   23.0505 C   0  0  0  0  0  0  0  0  0  0  0  0
   10.6448    2.3158   21.7881 C   0  0  0  0  0  0  0  0  0  0  0  0
    9.5265    2.5473   21.0742 N   0  0  0  0  0  0  0  0  0  0  0  0
    8.3375    2.2314   21.6054 C   0  0  0  0  0  0  0  0  0  0  0  0
    8.2214    1.5887   22.8497 C   0  0  0  0  0  0  0  0  0  0  0  0
    6.9047    0.9862   23.2930 C   0  0  0  0  0  0  0  0  0  0  0  0
    7.0306   -0.4217   22.7996 C   0  0  0  0  0  0  0  0  0  0  0  0
    7.5726   -1.3738   23.5027 N   0  0  0  0  0  0  0  0  0  0  0  0
    7.9321   -2.2835   22.5194 C   0  0  0  0  0  0  0  0  0  0  0  0
    8.8792   -3.4295   22.7464 C   0  0  0  0  0  0  0  0  0  0  0  0
    8.7958   -4.2451   24.0393 C   0  0  0  0  0  0  0  0  0  0  0  0
   10.2149   -3.8249   24.4093 C   0  0  0  0  0  0  0  0  0  0  0  0
   10.3023   -2.9892   23.1401 C   0  0  0  0  0  0  0  0  0  0  0  0
   10.4241   -1.9184   23.3333 H   0  0  0  0  0  0  0  0  0  0  0  0
   11.0912   -3.2886   22.4488 H   0  0  0  0  0  0  0  0  0  0  0  0
   10.9406   -4.6464   24.4570 H   0  0  0  0  0  0  0  0  0  0  0  0
   10.2660   -3.2278   25.3246 H   0  0  0  0  0  0  0  0  0  0  0  0
    8.0399   -3.8900   24.7498 H   0  0  0  0  0  0  0  0  0  0  0  0
    8.6820   -5.3239   23.8691 H   0  0  0  0  0  0  0  0  0  0  0  0
    8.8548   -4.0757   21.8679 H   0  0  0  0  0  0  0  0  0  0  0  0
    7.5669   -1.9724   21.2997 N   0  0  0  0  0  0  0  0  0  0  0  0
    6.9653   -0.7761   21.4578 N   0  0  0  0  0  0  0  0  0  0  0  0
    6.5317    0.0029   20.3795 C   0  0  0  0  0  0  0  0  0  0  0  0
    5.4983    0.9416   20.4959 C   0  0  0  0  0  0  0  0  0  0  0  0
    5.0436    1.5551   19.3277 C   0  0  0  0  0  0  0  0  0  0  0  0
    5.6389    1.2488   18.0987 C   0  0  0  0  0  0  0  0  0  0  0  0
    6.6760    0.4002   17.9944 N   0  0  0  0  0  0  0  0  0  0  0  0
    7.1100   -0.2049   19.1158 C   0  0  0  0  0  0  0  0  0  0  0  0
    7.9519   -0.8884   19.0483 H   0  0  0  0  0  0  0  0  0  0  0  0
    5.2413    1.7012   17.1960 H   0  0  0  0  0  0  0  0  0  0  0  0
    4.2216    2.2620   19.3503 H   0  0  0  0  0  0  0  0  0  0  0  0
    5.0278    1.1575   21.4530 H   0  0  0  0  0  0  0  0  0  0  0  0
    6.0462    1.4955   22.8455 H   0  0  0  0  0  0  0  0  0  0  0  0
    6.8095    1.0123   24.3804 H   0  0  0  0  0  0  0  0  0  0  0  0
    9.3858    1.3104   23.5791 C   0  0  0  0  0  0  0  0  0  0  0  0
    9.3316    0.7686   24.5222 H   0  0  0  0  0  0  0  0  0  0  0  0
    7.4453    2.4225   21.0168 H   0  0  0  0  0  0  0  0  0  0  0  0
   11.6068    2.6000   21.3703 H   0  0  0  0  0  0  0  0  0  0  0  0
  1  2  1  0
  2  3  2  0
  3  4  1  0
  4  5  2  0
  5  6  1  0
  6  7  1  0
  7  8  1  0
  8  9  2  0
  9 10  1  0
 10 11  1  0
 11 12  1  0
 12 13  1  0
 13 14  1  0
 14 15  1  0
 14 16  1  0
 13 17  1  0
 13 18  1  0
 12 19  1  0
 12 20  1  0
 11 21  1  0
 10 22  2  0
 22 23  1  0
 23 24  1  0
 24 25  2  0
 25 26  1  0
 26 27  2  0
 27 28  1  0
 28 29  2  0
 29 30  1  0
 27 31  1  0
 26 32  1  0
 25 33  1  0
  7 34  1  0
  7 35  1  0
  6 36  2  0
 36 37  1  0
  5 38  1  0
  3 39  1  0
 36  2  1  0
 23  8  1  0
 29 24  1  0
 14 11  1  0
M  END
>  <cnnaffinity>  (1) 
-6.39662

>  <filename>  (1) 
Brc1cncc(Cc2nc(C3CCC3)nn2-c2cccnc2)c1

$$$$
