
     RDKit          3D

 40 43  0  0  0  0  0  0  0  0999 V2000
    7.9876    0.6165   27.6714 Br  0  0  0  0  0  0  0  0  0  0  0  0
    8.4852    1.3120   25.9656 C   0  0  0  0  0  0  0  0  0  0  0  0
    7.5795    1.1988   24.9094 C   0  0  0  0  0  0  0  0  0  0  0  0
    7.9558    1.6231   23.6407 C   0  0  0  0  0  0  0  0  0  0  0  0
    7.0883    1.3115   22.4705 C   0  0  0  0  0  0  0  0  0  0  0  0
    7.3488   -0.1169   22.0687 C   0  0  0  0  0  0  0  0  0  0  0  0
    7.7368   -1.0874   22.8536 N   0  0  0  0  0  0  0  0  0  0  0  0
    8.0158   -2.1318   21.9749 C   0  0  0  0  0  0  0  0  0  0  0  0
    8.5884   -3.4952   22.3435 C   0  0  0  0  0  0  0  0  0  0  0  0
    7.6456   -4.3859   23.1603 C   0  0  0  0  0  0  0  0  0  0  0  0
    8.6045   -5.2243   23.9874 C   0  0  0  0  0  0  0  0  0  0  0  0
    9.7427   -4.2559   24.2599 C   0  0  0  0  0  0  0  0  0  0  0  0
    9.8240   -3.4303   23.0929 O   0  0  0  0  0  0  0  0  0  0  0  0
   10.6844   -4.7872   24.4439 H   0  0  0  0  0  0  0  0  0  0  0  0
    9.5106   -3.6352   25.1320 H   0  0  0  0  0  0  0  0  0  0  0  0
    8.9658   -6.0824   23.4100 H   0  0  0  0  0  0  0  0  0  0  0  0
    8.1467   -5.5916   24.9106 H   0  0  0  0  0  0  0  0  0  0  0  0
    7.0091   -5.0076   22.5181 H   0  0  0  0  0  0  0  0  0  0  0  0
    7.0089   -3.7786   23.8159 H   0  0  0  0  0  0  0  0  0  0  0  0
    8.7898   -3.9968   21.3967 H   0  0  0  0  0  0  0  0  0  0  0  0
    7.7794   -1.8377   20.7125 N   0  0  0  0  0  0  0  0  0  0  0  0
    7.3098   -0.5771   20.7655 N   0  0  0  0  0  0  0  0  0  0  0  0
    6.6519    0.0622   19.7128 C   0  0  0  0  0  0  0  0  0  0  0  0
    5.5076    0.8145   19.9825 C   0  0  0  0  0  0  0  0  0  0  0  0
    4.8744    1.4557   18.9228 C   0  0  0  0  0  0  0  0  0  0  0  0
    5.3893    1.3320   17.6286 C   0  0  0  0  0  0  0  0  0  0  0  0
    6.4702    0.5744   17.3609 N   0  0  0  0  0  0  0  0  0  0  0  0
    7.0856   -0.0593   18.3813 C   0  0  0  0  0  0  0  0  0  0  0  0
    7.9556   -0.6738   18.1641 H   0  0  0  0  0  0  0  0  0  0  0  0
    4.9115    1.8724   16.8158 H   0  0  0  0  0  0  0  0  0  0  0  0
    3.9932    2.0640   19.0876 H   0  0  0  0  0  0  0  0  0  0  0  0
    5.1074    0.8830   20.9947 H   0  0  0  0  0  0  0  0  0  0  0  0
    7.3359    1.9771   21.6390 H   0  0  0  0  0  0  0  0  0  0  0  0
    6.0400    1.4624   22.7238 H   0  0  0  0  0  0  0  0  0  0  0  0
    9.2159    2.1877   23.4756 C   0  0  0  0  0  0  0  0  0  0  0  0
   10.0696    2.2648   24.5779 C   0  0  0  0  0  0  0  0  0  0  0  0
    9.7127    1.8376   25.7996 N   0  0  0  0  0  0  0  0  0  0  0  0
   11.0766    2.6406   24.4257 H   0  0  0  0  0  0  0  0  0  0  0  0
    9.5478    2.5255   22.4987 H   0  0  0  0  0  0  0  0  0  0  0  0
    6.6113    0.7321   25.0724 H   0  0  0  0  0  0  0  0  0  0  0  0
  1  2  1  0
  2  3  2  0
  3  4  1  0
  4  5  1  0
  5  6  1  0
  6  7  2  0
  7  8  1  0
  8  9  1  0
  9 10  1  0
 10 11  1  0
 11 12  1  0
 12 13  1  0
 12 14  1  0
 12 15  1  0
 11 16  1  0
 11 17  1  0
 10 18  1  0
 10 19  1  0
  9 20  1  0
  8 21  2  0
 21 22  1  0
 22 23  1  0
 23 24  2  0
 24 25  1  0
 25 26  2  0
 26 27  1  0
 27 28  2  0
 28 29  1  0
 26 30  1  0
 25 31  1  0
 24 32  1  0
  5 33  1  0
  5 34  1  0
  4 35  2  0
 35 36  1  0
 36 37  2  0
 36 38  1  0
 35 39  1  0
  3 40  1  0
 37  2  1  0
 22  6  1  0
 28 23  1  0
 13  9  1  0
M  END
>  <cnnaffinity>  (1) 
-6.37132

>  <filename>  (1) 
Brc1cc(Cc2nc(C3CCCO3)nn2-c2cccnc2)ccn1

$$$$
