
     RDKit          3D

 40 44  0  0  0  0  0  0  0  0999 V2000
    7.9985    1.1163   27.7145 Br  0  0  0  0  0  0  0  0  0  0  0  0
    8.5219    1.6664   25.9617 C   0  0  0  0  0  0  0  0  0  0  0  0
    7.7528    1.2617   24.8795 C   0  0  0  0  0  0  0  0  0  0  0  0
    8.1127    1.6123   23.5862 C   0  0  0  0  0  0  0  0  0  0  0  0
    7.2540    1.1672   22.4427 C   0  0  0  0  0  0  0  0  0  0  0  0
    7.5671   -0.2419   22.0347 C   0  0  0  0  0  0  0  0  0  0  0  0
    8.1457   -1.1515   22.7637 N   0  0  0  0  0  0  0  0  0  0  0  0
    8.2052   -2.2420   21.9123 C   0  0  0  0  0  0  0  0  0  0  0  0
    8.8552   -3.5317   22.3183 C   0  0  0  0  0  0  0  0  0  0  0  0
    8.1788   -4.8777   22.1858 C   0  0  0  0  0  0  0  0  0  0  0  0
    8.4017   -4.2767   23.5927 C   0  0  0  0  0  0  0  0  0  0  0  0
    8.8481   -5.5120   24.3972 C   0  0  0  0  0  0  0  0  0  0  0  0
    9.6756   -4.2591   24.4679 C   0  0  0  0  0  0  0  0  0  0  0  0
    9.6451   -3.6083   25.3462 H   0  0  0  0  0  0  0  0  0  0  0  0
   10.6491   -4.2452   23.9664 H   0  0  0  0  0  0  0  0  0  0  0  0
    9.1818   -6.3923   23.8386 H   0  0  0  0  0  0  0  0  0  0  0  0
    8.1676   -5.7803   25.2094 H   0  0  0  0  0  0  0  0  0  0  0  0
    8.7632   -5.7662   21.9228 H   0  0  0  0  0  0  0  0  0  0  0  0
    7.1339   -4.9671   21.8714 H   0  0  0  0  0  0  0  0  0  0  0  0
    9.9290   -3.3576   22.2376 H   0  0  0  0  0  0  0  0  0  0  0  0
    7.7188   -2.0346   20.7115 N   0  0  0  0  0  0  0  0  0  0  0  0
    7.2859   -0.7581   20.7797 N   0  0  0  0  0  0  0  0  0  0  0  0
    6.6337   -0.0854   19.7402 C   0  0  0  0  0  0  0  0  0  0  0  0
    5.5245    0.7245   20.0032 C   0  0  0  0  0  0  0  0  0  0  0  0
    4.9313    1.3945   18.9322 C   0  0  0  0  0  0  0  0  0  0  0  0
    5.4613    1.2564   17.6439 C   0  0  0  0  0  0  0  0  0  0  0  0
    6.5152    0.4610   17.3819 N   0  0  0  0  0  0  0  0  0  0  0  0
    7.0781   -0.2051   18.4114 C   0  0  0  0  0  0  0  0  0  0  0  0
    7.9400   -0.8308   18.2047 H   0  0  0  0  0  0  0  0  0  0  0  0
    5.0016    1.8094   16.8300 H   0  0  0  0  0  0  0  0  0  0  0  0
    4.0701    2.0374   19.0823 H   0  0  0  0  0  0  0  0  0  0  0  0
    5.1247    0.8221   21.0124 H   0  0  0  0  0  0  0  0  0  0  0  0
    7.4014    1.8261   21.5825 H   0  0  0  0  0  0  0  0  0  0  0  0
    6.2005    1.2163   22.7355 H   0  0  0  0  0  0  0  0  0  0  0  0
    9.2629    2.3802   23.4283 C   0  0  0  0  0  0  0  0  0  0  0  0
    9.9754    2.7889   24.5593 C   0  0  0  0  0  0  0  0  0  0  0  0
    9.6148    2.4250   25.7980 N   0  0  0  0  0  0  0  0  0  0  0  0
   10.8468    3.4326   24.4475 H   0  0  0  0  0  0  0  0  0  0  0  0
    9.5993    2.6753   22.4447 H   0  0  0  0  0  0  0  0  0  0  0  0
    6.8741    0.6691   25.0677 H   0  0  0  0  0  0  0  0  0  0  0  0
  1  2  1  0
  2  3  2  0
  3  4  1  0
  4  5  1  0
  5  6  1  0
  6  7  2  0
  7  8  1  0
  8  9  1  0
  9 10  1  0
 10 11  1  0
 11 12  1  0
 12 13  1  0
 13 14  1  0
 13 15  1  0
 12 16  1  0
 12 17  1  0
 10 18  1  0
 10 19  1  0
  9 20  1  0
  8 21  2  0
 21 22  1  0
 22 23  1  0
 23 24  2  0
 24 25  1  0
 25 26  2  0
 26 27  1  0
 27 28  2  0
 28 29  1  0
 26 30  1  0
 25 31  1  0
 24 32  1  0
  5 33  1  0
  5 34  1  0
  4 35  2  0
 35 36  1  0
 36 37  2  0
 36 38  1  0
 35 39  1  0
  3 40  1  0
 37  2  1  0
 22  6  1  0
 28 23  1  0
 11  9  1  0
 13 11  1  0
M  END
>  <cnnaffinity>  (1) 
-6.34585

>  <filename>  (1) 
Brc1cc(Cc2nc(C3CC34CC4)nn2-c2cccnc2)ccn1

$$$$
