
     RDKit          3D

 40 43  0  0  0  0  0  0  0  0999 V2000
   10.5346    1.0791   24.4160 Br  0  0  0  0  0  0  0  0  0  0  0  0
    9.4048    2.2525   23.4134 C   0  0  0  0  0  0  0  0  0  0  0  0
    8.9885    3.3713   24.0336 N   0  0  0  0  0  0  0  0  0  0  0  0
    8.1302    4.1723   23.3842 C   0  0  0  0  0  0  0  0  0  0  0  0
    7.6337    3.8598   22.1133 C   0  0  0  0  0  0  0  0  0  0  0  0
    8.0605    2.7044   21.4556 C   0  0  0  0  0  0  0  0  0  0  0  0
    9.0029    1.9157   22.0955 C   0  0  0  0  0  0  0  0  0  0  0  0
    9.5206    0.6911   21.3782 C   0  0  0  0  0  0  0  0  0  0  0  0
    8.5639   -0.4379   21.6106 C   0  0  0  0  0  0  0  0  0  0  0  0
    8.7884   -1.2880   22.5632 N   0  0  0  0  0  0  0  0  0  0  0  0
    7.6517   -2.0659   22.5549 C   0  0  0  0  0  0  0  0  0  0  0  0
    7.4443   -3.1247   23.5987 C   0  0  0  0  0  0  0  0  0  0  0  0
    8.6328   -4.0783   23.7260 C   0  0  0  0  0  0  0  0  0  0  0  0
    9.5344   -3.4202   24.7674 C   0  0  0  0  0  0  0  0  0  0  0  0
    8.7753   -2.3749   25.3813 O   0  0  0  0  0  0  0  0  0  0  0  0
    7.4153   -2.4375   24.9555 C   0  0  0  0  0  0  0  0  0  0  0  0
    6.9898   -1.4302   24.8920 H   0  0  0  0  0  0  0  0  0  0  0  0
    6.8275   -3.0136   25.6762 H   0  0  0  0  0  0  0  0  0  0  0  0
    9.8647   -4.1480   25.5151 H   0  0  0  0  0  0  0  0  0  0  0  0
   10.4172   -2.9850   24.2899 H   0  0  0  0  0  0  0  0  0  0  0  0
    8.3039   -5.0608   24.0797 H   0  0  0  0  0  0  0  0  0  0  0  0
    9.1566   -4.2193   22.7765 H   0  0  0  0  0  0  0  0  0  0  0  0
    6.5181   -3.6648   23.3955 H   0  0  0  0  0  0  0  0  0  0  0  0
    6.7688   -1.7615   21.6306 N   0  0  0  0  0  0  0  0  0  0  0  0
    7.3456   -0.7192   20.9920 N   0  0  0  0  0  0  0  0  0  0  0  0
    6.7124   -0.0038   19.9661 C   0  0  0  0  0  0  0  0  0  0  0  0
    5.4805    0.6218   20.1888 C   0  0  0  0  0  0  0  0  0  0  0  0
    4.8784    1.2763   19.1133 C   0  0  0  0  0  0  0  0  0  0  0  0
    5.5006    1.2887   17.8596 C   0  0  0  0  0  0  0  0  0  0  0  0
    6.6799    0.6785   17.6395 N   0  0  0  0  0  0  0  0  0  0  0  0
    7.2643    0.0488   18.6754 C   0  0  0  0  0  0  0  0  0  0  0  0
    8.2026   -0.4659   18.4926 H   0  0  0  0  0  0  0  0  0  0  0  0
    5.0121    1.7910   17.0311 H   0  0  0  0  0  0  0  0  0  0  0  0
    3.9237    1.7749   19.2327 H   0  0  0  0  0  0  0  0  0  0  0  0
    5.0048    0.5952   21.1700 H   0  0  0  0  0  0  0  0  0  0  0  0
    9.6316    0.8588   20.3047 H   0  0  0  0  0  0  0  0  0  0  0  0
   10.5111    0.4417   21.7685 H   0  0  0  0  0  0  0  0  0  0  0  0
    7.7142    2.3963   20.4645 H   0  0  0  0  0  0  0  0  0  0  0  0
    6.9452    4.5409   21.6248 H   0  0  0  0  0  0  0  0  0  0  0  0
    7.8031    5.0979   23.8582 H   0  0  0  0  0  0  0  0  0  0  0  0
  1  2  1  0
  2  3  2  0
  3  4  1  0
  4  5  2  0
  5  6  1  0
  6  7  2  0
  7  8  1  0
  8  9  1  0
  9 10  2  0
 10 11  1  0
 11 12  1  0
 12 13  1  0
 13 14  1  0
 14 15  1  0
 15 16  1  0
 16 17  1  0
 16 18  1  0
 14 19  1  0
 14 20  1  0
 13 21  1  0
 13 22  1  0
 12 23  1  0
 11 24  2  0
 24 25  1  0
 25 26  1  0
 26 27  2  0
 27 28  1  0
 28 29  2  0
 29 30  1  0
 30 31  2  0
 31 32  1  0
 29 33  1  0
 28 34  1  0
 27 35  1  0
  8 36  1  0
  8 37  1  0
  6 38  1  0
  5 39  1  0
  4 40  1  0
  7  2  1  0
 25  9  1  0
 31 26  1  0
 16 12  1  0
M  END
>  <cnnaffinity>  (1) 
-6.44304

>  <filename>  (1) 
Brc1ncccc1Cc1nc(C2CCOC2)nn1-c1cccnc1

$$$$
