
     RDKit          3D

 32 35  0  0  0  0  0  0  0  0999 V2000
    4.9525    1.8739   16.9734 H   0  0  0  0  0  0  0  0  0  0  0  0
    5.4141    1.3047   17.7729 C   0  0  0  0  0  0  0  0  0  0  0  0
    6.5555    0.6423   17.5146 N   0  0  0  0  0  0  0  0  0  0  0  0
    7.1392   -0.0208   18.5231 C   0  0  0  0  0  0  0  0  0  0  0  0
    8.0797   -0.5342   18.3360 H   0  0  0  0  0  0  0  0  0  0  0  0
    6.6074   -0.0506   19.8133 C   0  0  0  0  0  0  0  0  0  0  0  0
    7.3763   -0.7166   20.8414 C   0  0  0  0  0  0  0  0  0  0  0  0
    8.5113   -1.3621   20.6080 N   0  0  0  0  0  0  0  0  0  0  0  0
    8.9601   -1.6480   21.8622 N   0  0  0  0  0  0  0  0  0  0  0  0
   10.1021   -2.1658   22.4591 C   0  0  0  0  0  0  0  0  0  0  0  0
   10.9454   -2.5977   21.9350 H   0  0  0  0  0  0  0  0  0  0  0  0
    9.9391   -2.0287   23.8339 C   0  0  0  0  0  0  0  0  0  0  0  0
   10.6477   -2.3338   24.6027 H   0  0  0  0  0  0  0  0  0  0  0  0
    8.6888   -1.4371   24.0901 N   0  0  0  0  0  0  0  0  0  0  0  0
    8.1890   -1.0135   25.3246 C   0  0  0  0  0  0  0  0  0  0  0  0
    9.0623   -0.7310   26.3821 C   0  0  0  0  0  0  0  0  0  0  0  0
   10.1305   -0.8460   26.2416 H   0  0  0  0  0  0  0  0  0  0  0  0
    8.5743   -0.2694   27.6036 C   0  0  0  0  0  0  0  0  0  0  0  0
    9.2806   -0.0474   28.3980 H   0  0  0  0  0  0  0  0  0  0  0  0
    7.1961   -0.1028   27.7860 C   0  0  0  0  0  0  0  0  0  0  0  0
    6.7965    0.2913   28.7157 H   0  0  0  0  0  0  0  0  0  0  0  0
    6.3045   -0.4107   26.7509 C   0  0  0  0  0  0  0  0  0  0  0  0
    4.4138   -0.1698   26.9632 Br  0  0  0  0  0  0  0  0  0  0  0  0
    6.8082   -0.8591   25.5242 C   0  0  0  0  0  0  0  0  0  0  0  0
    6.1160   -1.0876   24.7217 H   0  0  0  0  0  0  0  0  0  0  0  0
    8.1365   -1.2116   22.8380 C   0  0  0  0  0  0  0  0  0  0  0  0
    7.0699   -0.6069   22.2666 C   0  0  0  0  0  0  0  0  0  0  0  0
    6.2283   -0.1030   22.7307 H   0  0  0  0  0  0  0  0  0  0  0  0
    5.4136    0.6247   20.0914 C   0  0  0  0  0  0  0  0  0  0  0  0
    4.9775    0.6450   21.0929 H   0  0  0  0  0  0  0  0  0  0  0  0
    4.8160    1.3059   19.0370 C   0  0  0  0  0  0  0  0  0  0  0  0
    3.9017    1.8634   19.1867 H   0  0  0  0  0  0  0  0  0  0  0  0
  1  2  1  0
  2  3  2  0
  3  4  1  0
  4  5  1  0
  4  6  2  0
  6  7  1  0
  7  8  2  0
  8  9  1  0
  9 10  1  0
 10 11  1  0
 10 12  2  0
 12 13  1  0
 12 14  1  0
 14 15  1  0
 15 16  2  0
 16 17  1  0
 16 18  1  0
 18 19  1  0
 18 20  2  0
 20 21  1  0
 20 22  1  0
 22 23  1  0
 22 24  2  0
 24 25  1  0
 14 26  1  0
 26 27  2  0
 27 28  1  0
  6 29  1  0
 29 30  1  0
 29 31  2  0
 31 32  1  0
 31  2  1  0
 27  7  1  0
 26  9  1  0
 24 15  1  0
M  END
>  <cnnaffinity>  (1) 
-5.58424

>  <filename>  (1) 
Brc1cccc(-n2ccn3nc(-c4cccnc4)cc23)c1

$$$$
