
     RDKit          3D

 41 44  0  0  0  0  0  0  0  0999 V2000
    7.6067    5.2010   25.8712 Br  0  0  0  0  0  0  0  0  0  0  0  0
    6.5195    5.0444   24.3013 C   0  0  0  0  0  0  0  0  0  0  0  0
    5.9960    6.2025   23.7257 C   0  0  0  0  0  0  0  0  0  0  0  0
    5.1868    6.1198   22.5904 C   0  0  0  0  0  0  0  0  0  0  0  0
    4.8946    4.8777   22.0213 C   0  0  0  0  0  0  0  0  0  0  0  0
    5.4408    3.7144   22.5835 C   0  0  0  0  0  0  0  0  0  0  0  0
    6.2492    3.7916   23.7340 C   0  0  0  0  0  0  0  0  0  0  0  0
    6.7792    2.6942   24.3661 O   0  0  0  0  0  0  0  0  0  0  0  0
    6.6443    1.4275   23.7286 C   0  0  0  0  0  0  0  0  0  0  0  0
    7.6334    1.3577   22.5716 C   0  0  0  0  0  0  0  0  0  0  0  0
    7.7551   -0.0572   22.1054 C   0  0  0  0  0  0  0  0  0  0  0  0
    8.3261   -0.9711   22.8306 N   0  0  0  0  0  0  0  0  0  0  0  0
    8.2549   -2.0939   22.0170 C   0  0  0  0  0  0  0  0  0  0  0  0
    8.8227   -3.4233   22.4483 C   0  0  0  0  0  0  0  0  0  0  0  0
    8.3688   -4.2118   23.6768 C   0  0  0  0  0  0  0  0  0  0  0  0
    8.0337   -4.7261   22.2743 C   0  0  0  0  0  0  0  0  0  0  0  0
    6.9987   -4.6491   21.9185 H   0  0  0  0  0  0  0  0  0  0  0  0
    8.5841   -5.5952   21.8987 H   0  0  0  0  0  0  0  0  0  0  0  0
    7.5688   -3.7998   24.3010 H   0  0  0  0  0  0  0  0  0  0  0  0
    9.1556   -4.7376   24.2275 H   0  0  0  0  0  0  0  0  0  0  0  0
    9.8969   -3.4475   22.2777 H   0  0  0  0  0  0  0  0  0  0  0  0
    7.7058   -1.9084   20.8399 N   0  0  0  0  0  0  0  0  0  0  0  0
    7.3570   -0.6081   20.8944 N   0  0  0  0  0  0  0  0  0  0  0  0
    6.6653    0.0322   19.8735 C   0  0  0  0  0  0  0  0  0  0  0  0
    5.4718    0.6996   20.1413 C   0  0  0  0  0  0  0  0  0  0  0  0
    4.8249    1.3294   19.0785 C   0  0  0  0  0  0  0  0  0  0  0  0
    5.4052    1.2974   17.8045 C   0  0  0  0  0  0  0  0  0  0  0  0
    6.5465    0.6273   17.5359 N   0  0  0  0  0  0  0  0  0  0  0  0
    7.1514   -0.0059   18.5589 C   0  0  0  0  0  0  0  0  0  0  0  0
    8.0825   -0.5364   18.3799 H   0  0  0  0  0  0  0  0  0  0  0  0
    4.9125    1.8455   17.0103 H   0  0  0  0  0  0  0  0  0  0  0  0
    3.8906    1.8656   19.2319 H   0  0  0  0  0  0  0  0  0  0  0  0
    5.0645    0.7152   21.1508 H   0  0  0  0  0  0  0  0  0  0  0  0
    8.6173    1.6795   22.9203 H   0  0  0  0  0  0  0  0  0  0  0  0
    7.3253    2.0262   21.7609 H   0  0  0  0  0  0  0  0  0  0  0  0
    5.6194    1.2748   23.3723 H   0  0  0  0  0  0  0  0  0  0  0  0
    6.8678    0.6523   24.4716 H   0  0  0  0  0  0  0  0  0  0  0  0
    5.2400    2.7455   22.1399 H   0  0  0  0  0  0  0  0  0  0  0  0
    4.2439    4.8304   21.1508 H   0  0  0  0  0  0  0  0  0  0  0  0
    4.7800    7.0234   22.1492 H   0  0  0  0  0  0  0  0  0  0  0  0
    6.2188    7.1649   24.1756 H   0  0  0  0  0  0  0  0  0  0  0  0
  1  2  1  0
  2  3  2  0
  3  4  1  0
  4  5  2  0
  5  6  1  0
  6  7  2  0
  7  8  1  0
  8  9  1  0
  9 10  1  0
 10 11  1  0
 11 12  2  0
 12 13  1  0
 13 14  1  0
 14 15  1  0
 15 16  1  0
 16 17  1  0
 16 18  1  0
 15 19  1  0
 15 20  1  0
 14 21  1  0
 13 22  2  0
 22 23  1  0
 23 24  1  0
 24 25  2  0
 25 26  1  0
 26 27  2  0
 27 28  1  0
 28 29  2  0
 29 30  1  0
 27 31  1  0
 26 32  1  0
 25 33  1  0
 10 34  1  0
 10 35  1  0
  9 36  1  0
  9 37  1  0
  6 38  1  0
  5 39  1  0
  4 40  1  0
  3 41  1  0
  7  2  1  0
 23 11  1  0
 29 24  1  0
 16 14  1  0
M  END
>  <cnnaffinity>  (1) 
-5.68801

>  <filename>  (1) 
Brc1ccccc1OCCc1nc(C2CC2)nn1-c1cccnc1

$$$$
