
     RDKit          3D

 40 43  0  0  0  0  0  0  0  0999 V2000
    4.1315    1.5756   28.2552 Br  0  0  0  0  0  0  0  0  0  0  0  0
    5.6795    2.0682   27.2480 C   0  0  0  0  0  0  0  0  0  0  0  0
    6.5728    3.0201   27.7544 C   0  0  0  0  0  0  0  0  0  0  0  0
    7.6743    3.4094   27.0929 N   0  0  0  0  0  0  0  0  0  0  0  0
    7.9160    2.8737   25.8907 C   0  0  0  0  0  0  0  0  0  0  0  0
    7.0662    1.9365   25.3023 C   0  0  0  0  0  0  0  0  0  0  0  0
    7.4526    1.4557   23.9952 C   0  0  0  0  0  0  0  0  0  0  0  0
    6.8294    0.5581   23.2716 N   0  0  0  0  0  0  0  0  0  0  0  0
    7.6440    0.4123   22.2000 N   0  0  0  0  0  0  0  0  0  0  0  0
    7.4283   -0.5463   21.1040 C   0  0  0  0  0  0  0  0  0  0  0  0
    6.7224    0.1125   19.9489 C   0  0  0  0  0  0  0  0  0  0  0  0
    5.4942    0.7434   20.1445 C   0  0  0  0  0  0  0  0  0  0  0  0
    4.8821    1.3258   19.0378 C   0  0  0  0  0  0  0  0  0  0  0  0
    5.5013    1.2677   17.7845 C   0  0  0  0  0  0  0  0  0  0  0  0
    6.6848    0.6562   17.5946 N   0  0  0  0  0  0  0  0  0  0  0  0
    7.2797    0.0936   18.6608 C   0  0  0  0  0  0  0  0  0  0  0  0
    8.2326   -0.4065   18.5171 H   0  0  0  0  0  0  0  0  0  0  0  0
    5.0113    1.7347   16.9356 H   0  0  0  0  0  0  0  0  0  0  0  0
    3.9323    1.8372   19.1371 H   0  0  0  0  0  0  0  0  0  0  0  0
    5.0347    0.7818   21.1330 H   0  0  0  0  0  0  0  0  0  0  0  0
    6.8366   -1.3949   21.4687 H   0  0  0  0  0  0  0  0  0  0  0  0
    8.3875   -0.9434   20.7743 H   0  0  0  0  0  0  0  0  0  0  0  0
    8.7335    1.2564   22.3428 C   0  0  0  0  0  0  0  0  0  0  0  0
    9.8911    1.3814   21.4113 C   0  0  0  0  0  0  0  0  0  0  0  0
   10.8280    0.2379   21.6138 C   0  0  0  0  0  0  0  0  0  0  0  0
   10.7322   -1.0002   21.0482 C   0  0  0  0  0  0  0  0  0  0  0  0
   11.8252   -1.7340   21.4948 N   0  0  0  0  0  0  0  0  0  0  0  0
   12.6313   -0.9522   22.3064 C   0  0  0  0  0  0  0  0  0  0  0  0
   12.0274    0.2699   22.4155 C   0  0  0  0  0  0  0  0  0  0  0  0
   12.3668    1.1129   23.0038 H   0  0  0  0  0  0  0  0  0  0  0  0
   13.5594   -1.2560   22.7804 H   0  0  0  0  0  0  0  0  0  0  0  0
   11.9985   -2.7158   21.2887 H   0  0  0  0  0  0  0  0  0  0  0  0
    9.9625   -1.3434   20.3625 H   0  0  0  0  0  0  0  0  0  0  0  0
   10.4108    2.3268   21.5840 H   0  0  0  0  0  0  0  0  0  0  0  0
    9.5310    1.3484   20.3899 H   0  0  0  0  0  0  0  0  0  0  0  0
    8.6223    1.9394   23.4401 N   0  0  0  0  0  0  0  0  0  0  0  0
    5.9308    1.5014   25.9997 C   0  0  0  0  0  0  0  0  0  0  0  0
    5.2522    0.7462   25.6022 H   0  0  0  0  0  0  0  0  0  0  0  0
    8.8136    3.1825   25.3578 H   0  0  0  0  0  0  0  0  0  0  0  0
    6.3705    3.4796   28.7173 H   0  0  0  0  0  0  0  0  0  0  0  0
  1  2  1  0
  2  3  2  0
  3  4  1  0
  4  5  2  0
  5  6  1  0
  6  7  1  0
  7  8  2  0
  8  9  1  0
  9 10  1  0
 10 11  1  0
 11 12  2  0
 12 13  1  0
 13 14  2  0
 14 15  1  0
 15 16  2  0
 16 17  1  0
 14 18  1  0
 13 19  1  0
 12 20  1  0
 10 21  1  0
 10 22  1  0
  9 23  1  0
 23 24  1  0
 24 25  1  0
 25 26  2  0
 26 27  1  0
 27 28  1  0
 28 29  2  0
 29 30  1  0
 28 31  1  0
 27 32  1  0
 26 33  1  0
 24 34  1  0
 24 35  1  0
 23 36  2  0
  6 37  2  0
 37 38  1  0
  5 39  1  0
  3 40  1  0
 37  2  1  0
 36  7  1  0
 16 11  1  0
 29 25  1  0
M  END
>  <cnnaffinity>  (1) 
-6.11386

>  <filename>  (1) 
Brc1cncc(-c2nc(Cc3cc[nH]c3)n(Cc3cccnc3)n2)c1

$$$$
