
     RDKit          3D

 31 33  0  0  0  0  0  0  0  0999 V2000
    4.8865    1.7978   17.0100 H   0  0  0  0  0  0  0  0  0  0  0  0
    5.3989    1.2990   17.8232 C   0  0  0  0  0  0  0  0  0  0  0  0
    6.5630    0.6767   17.5622 N   0  0  0  0  0  0  0  0  0  0  0  0
    7.1737    0.0556   18.5865 C   0  0  0  0  0  0  0  0  0  0  0  0
    8.1219   -0.4412   18.4006 H   0  0  0  0  0  0  0  0  0  0  0  0
    6.6490    0.0267   19.8886 C   0  0  0  0  0  0  0  0  0  0  0  0
    7.3546   -0.6841   20.9366 C   0  0  0  0  0  0  0  0  0  0  0  0
    7.7112   -0.2557   22.1744 C   0  0  0  0  0  0  0  0  0  0  0  0
    7.5259    1.1144   22.7837 C   0  0  0  0  0  0  0  0  0  0  0  0
    8.5038    1.6047   22.8245 H   0  0  0  0  0  0  0  0  0  0  0  0
    6.8759    1.7379   22.1570 H   0  0  0  0  0  0  0  0  0  0  0  0
    6.9621    1.0295   24.1825 C   0  0  0  0  0  0  0  0  0  0  0  0
    7.8120    1.0390   25.3012 C   0  0  0  0  0  0  0  0  0  0  0  0
    8.8875    1.1095   25.1674 H   0  0  0  0  0  0  0  0  0  0  0  0
    7.2845    0.9519   26.5961 C   0  0  0  0  0  0  0  0  0  0  0  0
    7.9470    0.9521   27.4572 H   0  0  0  0  0  0  0  0  0  0  0  0
    5.9022    0.8568   26.7890 C   0  0  0  0  0  0  0  0  0  0  0  0
    5.1804    0.7295   28.5555 Br  0  0  0  0  0  0  0  0  0  0  0  0
    5.0518    0.8522   25.6785 C   0  0  0  0  0  0  0  0  0  0  0  0
    3.9795    0.7716   25.8252 H   0  0  0  0  0  0  0  0  0  0  0  0
    5.5782    0.9412   24.3845 C   0  0  0  0  0  0  0  0  0  0  0  0
    4.9120    0.9319   23.5283 H   0  0  0  0  0  0  0  0  0  0  0  0
    8.4333   -1.3654   22.7650 C   0  0  0  0  0  0  0  0  0  0  0  0
    8.8518   -1.3363   23.7626 H   0  0  0  0  0  0  0  0  0  0  0  0
    8.5289   -2.3828   21.9394 N   0  0  0  0  0  0  0  0  0  0  0  0
    7.8727   -1.9581   20.8242 N   0  0  0  0  0  0  0  0  0  0  0  0
    7.7778   -2.5031   19.9704 H   0  0  0  0  0  0  0  0  0  0  0  0
    5.4436    0.6705   20.1605 C   0  0  0  0  0  0  0  0  0  0  0  0
    5.0115    0.6405   21.1632 H   0  0  0  0  0  0  0  0  0  0  0  0
    4.8158    1.3177   19.0988 C   0  0  0  0  0  0  0  0  0  0  0  0
    3.8779    1.8355   19.2578 H   0  0  0  0  0  0  0  0  0  0  0  0
  1  2  1  0
  2  3  2  0
  3  4  1  0
  4  5  1  0
  4  6  2  0
  6  7  1  0
  7  8  2  0
  8  9  1  0
  9 10  1  0
  9 11  1  0
  9 12  1  0
 12 13  2  0
 13 14  1  0
 13 15  1  0
 15 16  1  0
 15 17  2  0
 17 18  1  0
 17 19  1  0
 19 20  1  0
 19 21  2  0
 21 22  1  0
  8 23  1  0
 23 24  1  0
 23 25  2  0
 25 26  1  0
 26 27  1  0
  6 28  1  0
 28 29  1  0
 28 30  2  0
 30 31  1  0
 30  2  1  0
 26  7  1  0
 21 12  1  0
M  END
>  <cnnaffinity>  (1) 
-5.11843

>  <filename>  (1) 
Brc1ccc(Cc2cn[nH]c2-c2cccnc2)cc1

$$$$
