
     RDKit          3D

 36 40  0  0  0  0  0  0  0  0999 V2000
    6.9652    3.7311   25.8846 Br  0  0  0  0  0  0  0  0  0  0  0  0
    7.1657    2.7619   24.2541 C   0  0  0  0  0  0  0  0  0  0  0  0
    7.2610    1.4046   24.1548 C   0  0  0  0  0  0  0  0  0  0  0  0
    7.3903    1.0776   22.7455 C   0  0  0  0  0  0  0  0  0  0  0  0
    7.5776   -0.2551   22.1989 C   0  0  0  0  0  0  0  0  0  0  0  0
    8.0927   -1.2227   22.8945 N   0  0  0  0  0  0  0  0  0  0  0  0
    8.1724   -2.2396   21.9661 C   0  0  0  0  0  0  0  0  0  0  0  0
    8.7577   -3.5727   22.3130 C   0  0  0  0  0  0  0  0  0  0  0  0
    7.9505   -4.8337   22.1170 C   0  0  0  0  0  0  0  0  0  0  0  0
    8.3067   -4.3752   23.5515 C   0  0  0  0  0  0  0  0  0  0  0  0
    9.6024   -4.5320   24.3718 C   0  0  0  0  0  0  0  0  0  0  0  0
    8.6935   -5.7241   24.1846 C   0  0  0  0  0  0  0  0  0  0  0  0
    8.0125   -6.0579   24.9743 H   0  0  0  0  0  0  0  0  0  0  0  0
    8.9387   -6.5480   23.5015 H   0  0  0  0  0  0  0  0  0  0  0  0
   10.5567   -4.4538   23.8385 H   0  0  0  0  0  0  0  0  0  0  0  0
    9.6212   -3.9636   25.3057 H   0  0  0  0  0  0  0  0  0  0  0  0
    8.4206   -5.7397   21.7070 H   0  0  0  0  0  0  0  0  0  0  0  0
    6.8823   -4.7722   21.8818 H   0  0  0  0  0  0  0  0  0  0  0  0
    9.8345   -3.4480   22.2336 H   0  0  0  0  0  0  0  0  0  0  0  0
    7.7678   -1.9445   20.7525 N   0  0  0  0  0  0  0  0  0  0  0  0
    7.3468   -0.6711   20.8910 N   0  0  0  0  0  0  0  0  0  0  0  0
    6.6751    0.0180   19.8814 C   0  0  0  0  0  0  0  0  0  0  0  0
    5.4794    0.6831   20.1520 C   0  0  0  0  0  0  0  0  0  0  0  0
    4.8340    1.3221   19.0938 C   0  0  0  0  0  0  0  0  0  0  0  0
    5.4072    1.2998   17.8162 C   0  0  0  0  0  0  0  0  0  0  0  0
    6.5572    0.6517   17.5489 N   0  0  0  0  0  0  0  0  0  0  0  0
    7.1700    0.0139   18.5674 C   0  0  0  0  0  0  0  0  0  0  0  0
    8.1059   -0.5016   18.3759 H   0  0  0  0  0  0  0  0  0  0  0  0
    4.8996    1.8271   17.0156 H   0  0  0  0  0  0  0  0  0  0  0  0
    3.8962    1.8437   19.2480 H   0  0  0  0  0  0  0  0  0  0  0  0
    5.0578    0.6784   21.1563 H   0  0  0  0  0  0  0  0  0  0  0  0
    7.3759    2.2545   22.0410 C   0  0  0  0  0  0  0  0  0  0  0  0
    7.2414    3.2799   22.9687 N   0  0  0  0  0  0  0  0  0  0  0  0
    7.2161    4.2740   22.7439 H   0  0  0  0  0  0  0  0  0  0  0  0
    7.4826    2.3598   20.9651 H   0  0  0  0  0  0  0  0  0  0  0  0
    7.2403    0.7008   24.9815 H   0  0  0  0  0  0  0  0  0  0  0  0
  1  2  1  0
  2  3  2  0
  3  4  1  0
  4  5  1  0
  5  6  2  0
  6  7  1  0
  7  8  1  0
  8  9  1  0
  9 10  1  0
 10 11  1  0
 11 12  1  0
 12 13  1  0
 12 14  1  0
 11 15  1  0
 11 16  1  0
  9 17  1  0
  9 18  1  0
  8 19  1  0
  7 20  2  0
 20 21  1  0
 21 22  1  0
 22 23  2  0
 23 24  1  0
 24 25  2  0
 25 26  1  0
 26 27  2  0
 27 28  1  0
 25 29  1  0
 24 30  1  0
 23 31  1  0
  4 32  2  0
 32 33  1  0
 33 34  1  0
 32 35  1  0
  3 36  1  0
 33  2  1  0
 21  5  1  0
 27 22  1  0
 10  8  1  0
 12 10  1  0
M  END
>  <cnnaffinity>  (1) 
-6.10112

>  <filename>  (1) 
Brc1cc(-c2nc(C3CC34CC4)nn2-c2cccnc2)c[nH]1

$$$$
