
     RDKit          3D

 32 34  0  0  0  0  0  0  0  0999 V2000
    9.4312    0.8708   20.1024 H   0  0  0  0  0  0  0  0  0  0  0  0
    9.7023    0.0838   20.7922 C   0  0  0  0  0  0  0  0  0  0  0  0
    8.7356   -0.7834   21.2483 C   0  0  0  0  0  0  0  0  0  0  0  0
    7.3109   -0.7790   20.9504 C   0  0  0  0  0  0  0  0  0  0  0  0
    6.6318   -0.0201   19.9101 C   0  0  0  0  0  0  0  0  0  0  0  0
    7.2165    0.0537   18.6457 C   0  0  0  0  0  0  0  0  0  0  0  0
    8.1653   -0.4453   18.4710 H   0  0  0  0  0  0  0  0  0  0  0  0
    6.6527    0.6990   17.6133 N   0  0  0  0  0  0  0  0  0  0  0  0
    5.4726    1.3126   17.8141 C   0  0  0  0  0  0  0  0  0  0  0  0
    5.0011    1.8337   16.9838 H   0  0  0  0  0  0  0  0  0  0  0  0
    4.8297    1.2997   19.0560 C   0  0  0  0  0  0  0  0  0  0  0  0
    3.8872    1.8240   19.1692 H   0  0  0  0  0  0  0  0  0  0  0  0
    5.4064    0.6246   20.1323 C   0  0  0  0  0  0  0  0  0  0  0  0
    4.9208    0.6187   21.1090 H   0  0  0  0  0  0  0  0  0  0  0  0
    6.6633   -1.5736   21.7649 N   0  0  0  0  0  0  0  0  0  0  0  0
    7.6009   -2.1542   22.7506 C   0  0  0  0  0  0  0  0  0  0  0  0
    7.4066   -1.7359   23.7446 H   0  0  0  0  0  0  0  0  0  0  0  0
    7.4876   -3.2402   22.8203 H   0  0  0  0  0  0  0  0  0  0  0  0
    9.0124   -1.7917   22.2995 C   0  0  0  0  0  0  0  0  0  0  0  0
    9.5330   -2.6554   21.8783 H   0  0  0  0  0  0  0  0  0  0  0  0
    9.6118   -1.3704   23.1118 H   0  0  0  0  0  0  0  0  0  0  0  0
   11.0677    0.0907   21.3109 C   0  0  0  0  0  0  0  0  0  0  0  0
   11.8455   -1.0714   21.3739 C   0  0  0  0  0  0  0  0  0  0  0  0
   11.4239   -2.0183   21.0659 H   0  0  0  0  0  0  0  0  0  0  0  0
   13.1557   -1.0391   21.8621 C   0  0  0  0  0  0  0  0  0  0  0  0
   13.7684   -1.9374   21.8705 H   0  0  0  0  0  0  0  0  0  0  0  0
   13.6707    0.1555   22.3712 C   0  0  0  0  0  0  0  0  0  0  0  0
   14.6749    0.1843   22.7838 H   0  0  0  0  0  0  0  0  0  0  0  0
   12.8890    1.3206   22.3483 C   0  0  0  0  0  0  0  0  0  0  0  0
   13.5572    2.9635   23.0633 Br  0  0  0  0  0  0  0  0  0  0  0  0
   11.6009    1.2873   21.7998 C   0  0  0  0  0  0  0  0  0  0  0  0
   10.9934    2.1866   21.8037 H   0  0  0  0  0  0  0  0  0  0  0  0
  1  2  1  0
  2  3  2  3
  3  4  1  0
  4  5  1  0
  5  6  2  0
  6  7  1  0
  6  8  1  0
  8  9  2  0
  9 10  1  0
  9 11  1  0
 11 12  1  0
 11 13  2  0
 13 14  1  0
  4 15  2  0
 15 16  1  0
 16 17  1  0
 16 18  1  0
 16 19  1  0
 19 20  1  0
 19 21  1  0
  2 22  1  0
 22 23  2  0
 23 24  1  0
 23 25  1  0
 25 26  1  0
 25 27  2  0
 27 28  1  0
 27 29  1  0
 29 30  1  0
 29 31  2  0
 31 32  1  0
 19  3  1  0
 31 22  1  0
 13  5  1  0
M  END
>  <cnnaffinity>  (1) 
-5.85773

>  <filename>  (1) 
Brc1cccc(C=C2CCN=C2c2cccnc2)c1

$$$$
