
     RDKit          3D

 42 45  0  0  0  0  0  0  0  0999 V2000
   10.8500    6.4127   24.5517 Br  0  0  0  0  0  0  0  0  0  0  0  0
    9.3709    5.6040   23.6530 C   0  0  0  0  0  0  0  0  0  0  0  0
    8.2006    6.3383   23.4105 C   0  0  0  0  0  0  0  0  0  0  0  0
    7.1582    5.8392   22.7216 N   0  0  0  0  0  0  0  0  0  0  0  0
    7.2549    4.5803   22.2551 C   0  0  0  0  0  0  0  0  0  0  0  0
    8.3627    3.7535   22.5073 C   0  0  0  0  0  0  0  0  0  0  0  0
    8.3839    2.3336   21.9984 C   0  0  0  0  0  0  0  0  0  0  0  0
    7.2981    1.4803   22.6759 C   0  0  0  0  0  0  0  0  0  0  0  0
    7.5017    0.0373   22.2743 C   0  0  0  0  0  0  0  0  0  0  0  0
    8.0352   -0.8535   23.0505 N   0  0  0  0  0  0  0  0  0  0  0  0
    8.2618   -1.9178   22.1895 C   0  0  0  0  0  0  0  0  0  0  0  0
    9.0062   -3.1384   22.6122 C   0  0  0  0  0  0  0  0  0  0  0  0
    8.6131   -3.7325   23.9577 C   0  0  0  0  0  0  0  0  0  0  0  0
   10.0002   -3.4073   24.5041 C   0  0  0  0  0  0  0  0  0  0  0  0
   10.4056   -2.8335   23.1532 C   0  0  0  0  0  0  0  0  0  0  0  0
   10.6533   -1.7676   23.1967 H   0  0  0  0  0  0  0  0  0  0  0  0
   11.2143   -3.3517   22.6417 H   0  0  0  0  0  0  0  0  0  0  0  0
   10.5646   -4.2833   24.8382 H   0  0  0  0  0  0  0  0  0  0  0  0
   10.0042   -2.6530   25.2926 H   0  0  0  0  0  0  0  0  0  0  0  0
    8.4039   -4.8055   23.9120 H   0  0  0  0  0  0  0  0  0  0  0  0
    7.7810   -3.2042   24.4418 H   0  0  0  0  0  0  0  0  0  0  0  0
    8.9855   -3.8735   21.8062 H   0  0  0  0  0  0  0  0  0  0  0  0
    7.8583   -1.7557   20.9595 N   0  0  0  0  0  0  0  0  0  0  0  0
    7.3178   -0.5240   21.0146 N   0  0  0  0  0  0  0  0  0  0  0  0
    6.6822    0.0571   19.9300 C   0  0  0  0  0  0  0  0  0  0  0  0
    5.5805    0.8791   20.1385 C   0  0  0  0  0  0  0  0  0  0  0  0
    4.9859    1.4516   19.0210 C   0  0  0  0  0  0  0  0  0  0  0  0
    5.5053    1.1993   17.7455 C   0  0  0  0  0  0  0  0  0  0  0  0
    6.5400    0.3625   17.5402 N   0  0  0  0  0  0  0  0  0  0  0  0
    7.1059   -0.2151   18.6185 C   0  0  0  0  0  0  0  0  0  0  0  0
    7.9305   -0.9079   18.4682 H   0  0  0  0  0  0  0  0  0  0  0  0
    5.0513    1.6978   16.8949 H   0  0  0  0  0  0  0  0  0  0  0  0
    4.1303    2.1038   19.1357 H   0  0  0  0  0  0  0  0  0  0  0  0
    5.1917    1.0354   21.1439 H   0  0  0  0  0  0  0  0  0  0  0  0
    6.3116    1.8312   22.3683 H   0  0  0  0  0  0  0  0  0  0  0  0
    7.3703    1.5719   23.7665 H   0  0  0  0  0  0  0  0  0  0  0  0
    9.3665    1.8939   22.1965 H   0  0  0  0  0  0  0  0  0  0  0  0
    8.2331    2.3270   20.9113 H   0  0  0  0  0  0  0  0  0  0  0  0
    9.4474    4.2796   23.2219 C   0  0  0  0  0  0  0  0  0  0  0  0
   10.3336    3.6804   23.4354 H   0  0  0  0  0  0  0  0  0  0  0  0
    6.4432    4.1772   21.6556 H   0  0  0  0  0  0  0  0  0  0  0  0
    8.1395    7.3539   23.7941 H   0  0  0  0  0  0  0  0  0  0  0  0
  1  2  1  0
  2  3  2  0
  3  4  1  0
  4  5  2  0
  5  6  1  0
  6  7  1  0
  7  8  1  0
  8  9  1  0
  9 10  2  0
 10 11  1  0
 11 12  1  0
 12 13  1  0
 13 14  1  0
 14 15  1  0
 15 16  1  0
 15 17  1  0
 14 18  1  0
 14 19  1  0
 13 20  1  0
 13 21  1  0
 12 22  1  0
 11 23  2  0
 23 24  1  0
 24 25  1  0
 25 26  2  0
 26 27  1  0
 27 28  2  0
 28 29  1  0
 29 30  2  0
 30 31  1  0
 28 32  1  0
 27 33  1  0
 26 34  1  0
  8 35  1  0
  8 36  1  0
  7 37  1  0
  7 38  1  0
  6 39  2  0
 39 40  1  0
  5 41  1  0
  3 42  1  0
 39  2  1  0
 24  9  1  0
 30 25  1  0
 15 12  1  0
M  END
>  <cnnaffinity>  (1) 
-6.44425

>  <filename>  (1) 
Brc1cncc(CCc2nc(C3CCC3)nn2-c2cccnc2)c1

$$$$
