
     RDKit          3D

 38 41  0  0  0  0  0  0  0  0999 V2000
    4.6621    0.0553   27.1898 Br  0  0  0  0  0  0  0  0  0  0  0  0
    5.0468    1.0070   25.5790 C   0  0  0  0  0  0  0  0  0  0  0  0
    6.1680    0.7824   24.8232 C   0  0  0  0  0  0  0  0  0  0  0  0
    6.1890    1.5848   23.6090 C   0  0  0  0  0  0  0  0  0  0  0  0
    7.2933    1.4937   22.5913 C   0  0  0  0  0  0  0  0  0  0  0  0
    7.5276    0.0615   22.1650 C   0  0  0  0  0  0  0  0  0  0  0  0
    8.1800   -0.8104   22.8859 N   0  0  0  0  0  0  0  0  0  0  0  0
    8.2663   -1.9259   22.0720 C   0  0  0  0  0  0  0  0  0  0  0  0
    9.0036   -3.1745   22.4733 C   0  0  0  0  0  0  0  0  0  0  0  0
   10.3948   -2.8309   23.0450 C   0  0  0  0  0  0  0  0  0  0  0  0
   10.3939   -3.5244   24.3873 C   0  0  0  0  0  0  0  0  0  0  0  0
    9.0222   -3.4979   24.7726 O   0  0  0  0  0  0  0  0  0  0  0  0
    8.3252   -3.9325   23.6140 C   0  0  0  0  0  0  0  0  0  0  0  0
    7.2446   -3.7493   23.6793 H   0  0  0  0  0  0  0  0  0  0  0  0
    8.4941   -5.0116   23.5056 H   0  0  0  0  0  0  0  0  0  0  0  0
   11.0346   -3.0160   25.0917 H   0  0  0  0  0  0  0  0  0  0  0  0
   10.7417   -4.5584   24.3065 H   0  0  0  0  0  0  0  0  0  0  0  0
   10.4898   -1.7457   23.1832 H   0  0  0  0  0  0  0  0  0  0  0  0
   11.2367   -3.1733   22.4380 H   0  0  0  0  0  0  0  0  0  0  0  0
    9.0457   -3.8157   21.5996 H   0  0  0  0  0  0  0  0  0  0  0  0
    7.7061   -1.7797   20.8955 N   0  0  0  0  0  0  0  0  0  0  0  0
    7.1943   -0.5262   20.9484 N   0  0  0  0  0  0  0  0  0  0  0  0
    6.5348    0.0774   19.8722 C   0  0  0  0  0  0  0  0  0  0  0  0
    5.4522    0.9421   20.0601 C   0  0  0  0  0  0  0  0  0  0  0  0
    4.9036    1.5555   18.9306 C   0  0  0  0  0  0  0  0  0  0  0  0
    5.4387    1.3007   17.6624 C   0  0  0  0  0  0  0  0  0  0  0  0
    6.4520    0.4331   17.4778 N   0  0  0  0  0  0  0  0  0  0  0  0
    6.9731   -0.1756   18.5621 C   0  0  0  0  0  0  0  0  0  0  0  0
    7.8015   -0.8652   18.4210 H   0  0  0  0  0  0  0  0  0  0  0  0
    5.0226    1.8151   16.7994 H   0  0  0  0  0  0  0  0  0  0  0  0
    4.0688    2.2416   19.0211 H   0  0  0  0  0  0  0  0  0  0  0  0
    5.0476    1.1213   21.0563 H   0  0  0  0  0  0  0  0  0  0  0  0
    7.0586    2.1194   21.7231 H   0  0  0  0  0  0  0  0  0  0  0  0
    8.2155    1.8739   23.0428 H   0  0  0  0  0  0  0  0  0  0  0  0
    5.0984    2.4147   23.5144 C   0  0  0  0  0  0  0  0  0  0  0  0
    3.9998    2.2358   24.8792 S   0  0  0  0  0  0  0  0  0  0  0  0
    4.9320    3.1086   22.6954 H   0  0  0  0  0  0  0  0  0  0  0  0
    6.9477    0.0739   25.0924 H   0  0  0  0  0  0  0  0  0  0  0  0
  1  2  1  0
  2  3  2  0
  3  4  1  0
  4  5  1  0
  5  6  1  0
  6  7  2  0
  7  8  1  0
  8  9  1  0
  9 10  1  0
 10 11  1  0
 11 12  1  0
 12 13  1  0
 13 14  1  0
 13 15  1  0
 11 16  1  0
 11 17  1  0
 10 18  1  0
 10 19  1  0
  9 20  1  0
  8 21  2  0
 21 22  1  0
 22 23  1  0
 23 24  2  0
 24 25  1  0
 25 26  2  0
 26 27  1  0
 27 28  2  0
 28 29  1  0
 26 30  1  0
 25 31  1  0
 24 32  1  0
  5 33  1  0
  5 34  1  0
  4 35  2  0
 35 36  1  0
 35 37  1  0
  3 38  1  0
 36  2  1  0
 22  6  1  0
 28 23  1  0
 13  9  1  0
M  END
>  <cnnaffinity>  (1) 
-5.92684

>  <filename>  (1) 
Brc1cc(Cc2nc(C3CCOC3)nn2-c2cccnc2)cs1

$$$$
