
     RDKit          3D

 22 24  0  0  0  0  0  0  0  0999 V2000
    4.8921    1.7911   17.0172 H   0  0  0  0  0  0  0  0  0  0  0  0
    5.4045    1.2923   17.8339 C   0  0  0  0  0  0  0  0  0  0  0  0
    6.5710    0.6727   17.5799 N   0  0  0  0  0  0  0  0  0  0  0  0
    7.1840    0.0498   18.5945 C   0  0  0  0  0  0  0  0  0  0  0  0
    8.1314   -0.4420   18.3980 H   0  0  0  0  0  0  0  0  0  0  0  0
    6.6530    0.0055   19.8858 C   0  0  0  0  0  0  0  0  0  0  0  0
    7.3827   -0.7156   20.9028 C   0  0  0  0  0  0  0  0  0  0  0  0
    8.4555   -1.4506   20.6389 N   0  0  0  0  0  0  0  0  0  0  0  0
    8.8542   -1.8581   21.8759 N   0  0  0  0  0  0  0  0  0  0  0  0
   10.0597   -2.2359   22.4398 C   0  0  0  0  0  0  0  0  0  0  0  0
   10.9347   -2.5649   21.8854 H   0  0  0  0  0  0  0  0  0  0  0  0
    9.9533   -2.0106   23.8144 C   0  0  0  0  0  0  0  0  0  0  0  0
   10.7453   -2.1188   24.5572 H   0  0  0  0  0  0  0  0  0  0  0  0
    8.6608   -1.5509   24.1092 N   0  0  0  0  0  0  0  0  0  0  0  0
    8.1192   -0.5904   25.7407 Br  0  0  0  0  0  0  0  0  0  0  0  0
    8.0888   -1.3555   22.8696 C   0  0  0  0  0  0  0  0  0  0  0  0
    7.0929   -0.6199   22.3340 C   0  0  0  0  0  0  0  0  0  0  0  0
    6.3794    0.0204   22.8479 H   0  0  0  0  0  0  0  0  0  0  0  0
    5.4455    0.6496   20.1644 C   0  0  0  0  0  0  0  0  0  0  0  0
    5.0019    0.6383   21.1643 H   0  0  0  0  0  0  0  0  0  0  0  0
    4.8209    1.3060   19.1079 C   0  0  0  0  0  0  0  0  0  0  0  0
    3.8852    1.8311   19.2615 H   0  0  0  0  0  0  0  0  0  0  0  0
  1  2  1  0
  2  3  2  0
  3  4  1  0
  4  5  1  0
  4  6  2  0
  6  7  1  0
  7  8  2  0
  8  9  1  0
  9 10  1  0
 10 11  1  0
 10 12  2  0
 12 13  1  0
 12 14  1  0
 14 15  1  0
 14 16  1  0
 16 17  2  0
 17 18  1  0
  6 19  1  0
 19 20  1  0
 19 21  2  0
 21 22  1  0
 21  2  1  0
 17  7  1  0
 16  9  1  0
M  END
>  <cnnaffinity>  (1) 
-4.79836

>  <filename>  (1) 
Brn1ccn2nc(-c3cccnc3)cc12

$$$$
