
     RDKit          3D

 30 32  0  0  0  0  0  0  0  0999 V2000
    4.9239    1.7822   16.9956 H   0  0  0  0  0  0  0  0  0  0  0  0
    5.4021    1.2932   17.8380 C   0  0  0  0  0  0  0  0  0  0  0  0
    6.5641    0.6733   17.5755 N   0  0  0  0  0  0  0  0  0  0  0  0
    7.1629    0.0487   18.5906 C   0  0  0  0  0  0  0  0  0  0  0  0
    8.1108   -0.4380   18.3687 H   0  0  0  0  0  0  0  0  0  0  0  0
    6.6493    0.0197   19.8979 C   0  0  0  0  0  0  0  0  0  0  0  0
    7.4015   -0.7046   20.9176 C   0  0  0  0  0  0  0  0  0  0  0  0
    8.0431   -1.8277   20.7196 N   0  0  0  0  0  0  0  0  0  0  0  0
    8.5810   -2.1759   21.9344 C   0  0  0  0  0  0  0  0  0  0  0  0
    9.1650   -3.0785   22.0457 H   0  0  0  0  0  0  0  0  0  0  0  0
    8.2980   -1.2430   22.8839 C   0  0  0  0  0  0  0  0  0  0  0  0
    8.5702   -1.1338   23.9221 H   0  0  0  0  0  0  0  0  0  0  0  0
    7.5267   -0.2849   22.2389 N   0  0  0  0  0  0  0  0  0  0  0  0
    7.1146    0.8944   22.7910 C   0  0  0  0  0  0  0  0  0  0  0  0
    6.7348    1.9442   23.2474 C   0  0  0  0  0  0  0  0  0  0  0  0
    6.2888    3.2044   23.8088 C   0  0  0  0  0  0  0  0  0  0  0  0
    6.7872    3.6629   25.0480 C   0  0  0  0  0  0  0  0  0  0  0  0
    7.5159    3.0615   25.5844 H   0  0  0  0  0  0  0  0  0  0  0  0
    6.3517    4.8787   25.5857 C   0  0  0  0  0  0  0  0  0  0  0  0
    6.7435    5.2229   26.5423 H   0  0  0  0  0  0  0  0  0  0  0  0
    5.4123    5.6577   24.8976 C   0  0  0  0  0  0  0  0  0  0  0  0
    5.0754    6.6047   25.3160 H   0  0  0  0  0  0  0  0  0  0  0  0
    4.9089    5.2166   23.6679 C   0  0  0  0  0  0  0  0  0  0  0  0
    4.1813    5.8217   23.1275 H   0  0  0  0  0  0  0  0  0  0  0  0
    5.3445    4.0019   23.1297 C   0  0  0  0  0  0  0  0  0  0  0  0
    4.9592    3.6626   22.1712 H   0  0  0  0  0  0  0  0  0  0  0  0
    5.4307    0.6648   20.1596 C   0  0  0  0  0  0  0  0  0  0  0  0
    4.9954    0.6333   21.1627 H   0  0  0  0  0  0  0  0  0  0  0  0
    4.8015    1.3139   19.1029 C   0  0  0  0  0  0  0  0  0  0  0  0
    3.8686    1.8451   19.2512 H   0  0  0  0  0  0  0  0  0  0  0  0
  1  2  1  0
  2  3  2  0
  3  4  1  0
  4  5  1  0
  4  6  2  0
  6  7  1  0
  7  8  2  0
  8  9  1  0
  9 10  1  0
  9 11  2  0
 11 12  1  0
 11 13  1  0
 13 14  1  0
 14 15  3  0
 15 16  1  0
 16 17  2  0
 17 18  1  0
 17 19  1  0
 19 20  1  0
 19 21  2  0
 21 22  1  0
 21 23  1  0
 23 24  1  0
 23 25  2  0
 25 26  1  0
  6 27  1  0
 27 28  1  0
 27 29  2  0
 29 30  1  0
 29  2  1  0
 13  7  1  0
 25 16  1  0
M  END
>  <cnnaffinity>  (1) 
-4.74441

>  <filename>  (1) 
C(#Cn1ccnc1-c1cccnc1)c1ccccc1

$$$$
