
     RDKit          3D

 30 32  0  0  0  0  0  0  0  0999 V2000
   10.4701   -1.3298   21.8531 H   0  0  0  0  0  0  0  0  0  0  0  0
    9.3886   -1.3392   21.8921 C   0  0  0  0  0  0  0  0  0  0  0  0
    8.8421   -2.0069   22.9060 N   0  0  0  0  0  0  0  0  0  0  0  0
    7.5040   -2.0235   22.9413 C   0  0  0  0  0  0  0  0  0  0  0  0
    6.8495   -2.7388   24.0221 C   0  0  0  0  0  0  0  0  0  0  0  0
    6.3068   -3.3394   24.9258 C   0  0  0  0  0  0  0  0  0  0  0  0
    5.6366   -4.0567   26.0062 C   0  0  0  0  0  0  0  0  0  0  0  0
    6.4075   -4.6752   26.9258 N   0  0  0  0  0  0  0  0  0  0  0  0
    5.7912   -5.3339   27.9130 C   0  0  0  0  0  0  0  0  0  0  0  0
    6.4368   -5.8238   28.6416 H   0  0  0  0  0  0  0  0  0  0  0  0
    4.4018   -5.4193   28.0509 C   0  0  0  0  0  0  0  0  0  0  0  0
    3.9624   -5.9686   28.8757 H   0  0  0  0  0  0  0  0  0  0  0  0
    3.6025   -4.7798   27.1000 C   0  0  0  0  0  0  0  0  0  0  0  0
    2.5154   -4.8219   27.1716 H   0  0  0  0  0  0  0  0  0  0  0  0
    4.2261   -4.0892   26.0627 C   0  0  0  0  0  0  0  0  0  0  0  0
    3.6403   -3.5786   25.3052 H   0  0  0  0  0  0  0  0  0  0  0  0
    6.7457   -1.3814   21.9738 C   0  0  0  0  0  0  0  0  0  0  0  0
    5.6739   -1.4298   21.9754 H   0  0  0  0  0  0  0  0  0  0  0  0
    7.4246   -0.7072   20.9676 C   0  0  0  0  0  0  0  0  0  0  0  0
    6.6754    0.0108   19.9156 C   0  0  0  0  0  0  0  0  0  0  0  0
    7.1853    0.0606   18.6121 C   0  0  0  0  0  0  0  0  0  0  0  0
    8.1266   -0.4289   18.3793 H   0  0  0  0  0  0  0  0  0  0  0  0
    6.5699    0.6668   17.5918 N   0  0  0  0  0  0  0  0  0  0  0  0
    5.4067    1.2869   17.8481 C   0  0  0  0  0  0  0  0  0  0  0  0
    4.9171    1.7727   17.0047 H   0  0  0  0  0  0  0  0  0  0  0  0
    4.8103    1.3088   19.1140 C   0  0  0  0  0  0  0  0  0  0  0  0
    3.8748    1.8424   19.2647 H   0  0  0  0  0  0  0  0  0  0  0  0
    5.4472    0.6481   20.1622 C   0  0  0  0  0  0  0  0  0  0  0  0
    5.0030    0.6441   21.1595 H   0  0  0  0  0  0  0  0  0  0  0  0
    8.7559   -0.7023   20.9056 N   0  0  0  0  0  0  0  0  0  0  0  0
  1  2  1  0
  2  3  2  0
  3  4  1  0
  4  5  1  0
  5  6  3  0
  6  7  1  0
  7  8  2  0
  8  9  1  0
  9 10  1  0
  9 11  2  0
 11 12  1  0
 11 13  1  0
 13 14  1  0
 13 15  2  0
 15 16  1  0
  4 17  2  0
 17 18  1  0
 17 19  1  0
 19 20  1  0
 20 21  2  0
 21 22  1  0
 21 23  1  0
 23 24  2  0
 24 25  1  0
 24 26  1  0
 26 27  1  0
 26 28  2  0
 28 29  1  0
 19 30  2  0
 30  2  1  0
 15  7  1  0
 28 20  1  0
M  END
>  <cnnaffinity>  (1) 
-5.15067

>  <filename>  (1) 
C(#Cc1cc(-c2cccnc2)ncn1)c1ccccn1

$$$$
