
     RDKit          3D

 37 40  0  0  0  0  0  0  0  0999 V2000
    9.4387    0.8627   20.2422 H   0  0  0  0  0  0  0  0  0  0  0  0
    9.6980    0.0455   20.9200 C   0  0  0  0  0  0  0  0  0  0  0  0
    8.7328   -0.8172   21.3202 C   0  0  0  0  0  0  0  0  0  0  0  0
    7.2797   -0.8229   21.0103 C   0  0  0  0  0  0  0  0  0  0  0  0
    6.6318   -0.0317   19.9321 C   0  0  0  0  0  0  0  0  0  0  0  0
    7.2113    0.0253   18.6594 C   0  0  0  0  0  0  0  0  0  0  0  0
    8.1649   -0.4686   18.4758 H   0  0  0  0  0  0  0  0  0  0  0  0
    6.6713    0.6653   17.6135 N   0  0  0  0  0  0  0  0  0  0  0  0
    5.5072    1.2998   17.8185 C   0  0  0  0  0  0  0  0  0  0  0  0
    5.0750    1.8056   16.9562 H   0  0  0  0  0  0  0  0  0  0  0  0
    4.8430    1.3149   19.0509 C   0  0  0  0  0  0  0  0  0  0  0  0
    3.9086    1.8613   19.1488 H   0  0  0  0  0  0  0  0  0  0  0  0
    5.4055    0.6281   20.1271 C   0  0  0  0  0  0  0  0  0  0  0  0
    4.9130    0.6048   21.1004 H   0  0  0  0  0  0  0  0  0  0  0  0
    6.5906   -1.5938   21.7704 N   0  0  0  0  0  0  0  0  0  0  0  0
    7.4641   -2.2146   22.7680 C   0  0  0  0  0  0  0  0  0  0  0  0
    7.2028   -1.8175   23.7537 H   0  0  0  0  0  0  0  0  0  0  0  0
    7.2953   -3.2931   22.7920 H   0  0  0  0  0  0  0  0  0  0  0  0
    8.9185   -1.8530   22.4040 C   0  0  0  0  0  0  0  0  0  0  0  0
    9.4675   -2.7290   22.0461 H   0  0  0  0  0  0  0  0  0  0  0  0
    9.4798   -1.4405   23.2452 H   0  0  0  0  0  0  0  0  0  0  0  0
   11.0999    0.0344   21.4008 C   0  0  0  0  0  0  0  0  0  0  0  0
   11.8731   -1.1197   21.4004 C   0  0  0  0  0  0  0  0  0  0  0  0
   11.4383   -2.0302   21.0043 H   0  0  0  0  0  0  0  0  0  0  0  0
   13.2083   -1.1531   21.8852 C   0  0  0  0  0  0  0  0  0  0  0  0
   13.7714   -2.0842   21.8354 H   0  0  0  0  0  0  0  0  0  0  0  0
   13.7774   -0.0102   22.4018 C   0  0  0  0  0  0  0  0  0  0  0  0
   14.7932    0.0113   22.7825 H   0  0  0  0  0  0  0  0  0  0  0  0
   13.0468    1.2158   22.4162 C   0  0  0  0  0  0  0  0  0  0  0  0
   13.6788    2.3137   22.9404 N   0  0  0  0  0  0  0  0  0  0  0  0
   13.0633    3.4707   22.8686 C   0  0  0  0  0  0  0  0  0  0  0  0
   13.5928    4.3244   23.2899 H   0  0  0  0  0  0  0  0  0  0  0  0
   11.7740    3.6528   22.3043 C   0  0  0  0  0  0  0  0  0  0  0  0
   11.3495    4.6511   22.2356 H   0  0  0  0  0  0  0  0  0  0  0  0
   11.0959    2.5492   21.8382 C   0  0  0  0  0  0  0  0  0  0  0  0
   10.0775    2.6478   21.4642 H   0  0  0  0  0  0  0  0  0  0  0  0
   11.7161    1.2626   21.8705 C   0  0  0  0  0  0  0  0  0  0  0  0
  1  2  1  0
  2  3  2  3
  3  4  1  0
  4  5  1  0
  5  6  2  0
  6  7  1  0
  6  8  1  0
  8  9  2  0
  9 10  1  0
  9 11  1  0
 11 12  1  0
 11 13  2  0
 13 14  1  0
  4 15  2  0
 15 16  1  0
 16 17  1  0
 16 18  1  0
 16 19  1  0
 19 20  1  0
 19 21  1  0
  2 22  1  0
 22 23  2  0
 23 24  1  0
 23 25  1  0
 25 26  1  0
 25 27  2  0
 27 28  1  0
 27 29  1  0
 29 30  2  0
 30 31  1  0
 31 32  1  0
 31 33  2  0
 33 34  1  0
 33 35  1  0
 35 36  1  0
 35 37  2  0
 19  3  1  0
 37 22  1  0
 13  5  1  0
 37 29  1  0
M  END
>  <cnnaffinity>  (1) 
-6.51188

>  <filename>  (1) 
C(=C1CCN=C1c1cccnc1)c1cccc2ncccc12

$$$$
