
     RDKit          3D

 34 37  0  0  0  0  0  0  0  0999 V2000
    5.2766   -2.3622   20.9650 H   0  0  0  0  0  0  0  0  0  0  0  0
    5.8787   -2.4157   21.8612 C   0  0  0  0  0  0  0  0  0  0  0  0
    7.0428   -1.7456   21.9362 C   0  0  0  0  0  0  0  0  0  0  0  0
    7.5237   -0.7216   20.9641 C   0  0  0  0  0  0  0  0  0  0  0  0
    6.6834   -0.0555   19.9382 C   0  0  0  0  0  0  0  0  0  0  0  0
    7.2228    0.0329   18.6454 C   0  0  0  0  0  0  0  0  0  0  0  0
    8.1891   -0.4185   18.4325 H   0  0  0  0  0  0  0  0  0  0  0  0
    6.6248    0.6441   17.6212 N   0  0  0  0  0  0  0  0  0  0  0  0
    5.4537    1.2498   17.8704 C   0  0  0  0  0  0  0  0  0  0  0  0
    4.9871    1.7518   17.0239 H   0  0  0  0  0  0  0  0  0  0  0  0
    4.8363    1.2441   19.1255 C   0  0  0  0  0  0  0  0  0  0  0  0
    3.9067    1.7834   19.2548 H   0  0  0  0  0  0  0  0  0  0  0  0
    5.4525    0.5728   20.1856 C   0  0  0  0  0  0  0  0  0  0  0  0
    4.9993    0.5684   21.1798 H   0  0  0  0  0  0  0  0  0  0  0  0
    8.7728   -0.4573   21.0722 N   0  0  0  0  0  0  0  0  0  0  0  0
    9.3365   -1.2081   22.2000 C   0  0  0  0  0  0  0  0  0  0  0  0
    9.8527   -0.5283   22.8845 H   0  0  0  0  0  0  0  0  0  0  0  0
   10.0748   -1.9198   21.8059 H   0  0  0  0  0  0  0  0  0  0  0  0
    8.1724   -1.9309   22.9271 C   0  0  0  0  0  0  0  0  0  0  0  0
    7.9324   -1.4314   23.8727 H   0  0  0  0  0  0  0  0  0  0  0  0
    8.4087   -2.9737   23.1590 H   0  0  0  0  0  0  0  0  0  0  0  0
    5.2567   -3.2700   22.8808 C   0  0  0  0  0  0  0  0  0  0  0  0
    4.1606   -3.8990   22.6144 N   0  0  0  0  0  0  0  0  0  0  0  0
    3.6977   -4.5802   23.7250 C   0  0  0  0  0  0  0  0  0  0  0  0
    2.5022   -5.3181   23.7775 C   0  0  0  0  0  0  0  0  0  0  0  0
    1.9078   -5.3676   22.8731 H   0  0  0  0  0  0  0  0  0  0  0  0
    2.1221   -5.9308   24.9678 C   0  0  0  0  0  0  0  0  0  0  0  0
    1.1745   -6.4611   25.0299 H   0  0  0  0  0  0  0  0  0  0  0  0
    2.9461   -5.8336   26.1102 C   0  0  0  0  0  0  0  0  0  0  0  0
    2.6340   -6.2997   27.0389 H   0  0  0  0  0  0  0  0  0  0  0  0
    4.1246   -5.0895   26.0851 C   0  0  0  0  0  0  0  0  0  0  0  0
    4.7132   -4.9439   26.9886 H   0  0  0  0  0  0  0  0  0  0  0  0
    4.4951   -4.4667   24.8831 C   0  0  0  0  0  0  0  0  0  0  0  0
    5.8484   -3.4343   24.5374 S   0  0  0  0  0  0  0  0  0  0  0  0
  1  2  1  0
  2  3  2  3
  3  4  1  0
  4  5  1  0
  5  6  2  0
  6  7  1  0
  6  8  1  0
  8  9  2  0
  9 10  1  0
  9 11  1  0
 11 12  1  0
 11 13  2  0
 13 14  1  0
  4 15  2  0
 15 16  1  0
 16 17  1  0
 16 18  1  0
 16 19  1  0
 19 20  1  0
 19 21  1  0
  2 22  1  0
 22 23  2  0
 23 24  1  0
 24 25  2  0
 25 26  1  0
 25 27  1  0
 27 28  1  0
 27 29  2  0
 29 30  1  0
 29 31  1  0
 31 32  1  0
 31 33  2  0
 33 34  1  0
 19  3  1  0
 34 22  1  0
 13  5  1  0
 33 24  1  0
M  END
>  <cnnaffinity>  (1) 
-5.53664

>  <filename>  (1) 
C(=C1CCN=C1c1cccnc1)c1nc2ccccc2s1

$$$$
