
     RDKit          3D

 29 31  0  0  0  0  0  0  0  0999 V2000
    6.7132   -1.3910   21.6010 H   0  0  0  0  0  0  0  0  0  0  0  0
    7.3259   -0.7097   21.0038 C   0  0  0  0  0  0  0  0  0  0  0  0
    8.6075   -0.4955   21.3542 C   0  0  0  0  0  0  0  0  0  0  0  0
    9.3759   -1.1186   22.4337 C   0  0  0  0  0  0  0  0  0  0  0  0
    8.8792   -2.3114   23.1721 C   0  0  0  0  0  0  0  0  0  0  0  0
    7.8834   -3.1246   22.8543 N   0  0  0  0  0  0  0  0  0  0  0  0
    7.8778   -4.0939   23.8118 C   0  0  0  0  0  0  0  0  0  0  0  0
    7.1660   -4.9058   23.7888 H   0  0  0  0  0  0  0  0  0  0  0  0
    8.8612   -3.8718   24.7379 C   0  0  0  0  0  0  0  0  0  0  0  0
    9.1397   -4.4233   25.6257 H   0  0  0  0  0  0  0  0  0  0  0  0
    9.4870   -2.7300   24.3179 N   0  0  0  0  0  0  0  0  0  0  0  0
   10.2736   -2.2491   24.7255 H   0  0  0  0  0  0  0  0  0  0  0  0
   10.4999   -0.5361   22.6960 N   0  0  0  0  0  0  0  0  0  0  0  0
   10.6897    0.5701   21.7571 C   0  0  0  0  0  0  0  0  0  0  0  0
   10.7322    1.5028   22.3275 H   0  0  0  0  0  0  0  0  0  0  0  0
   11.6510    0.4447   21.2537 H   0  0  0  0  0  0  0  0  0  0  0  0
    9.4917    0.5765   20.7757 C   0  0  0  0  0  0  0  0  0  0  0  0
    8.9850    1.5439   20.7104 H   0  0  0  0  0  0  0  0  0  0  0  0
    9.7288    0.2850   19.7530 H   0  0  0  0  0  0  0  0  0  0  0  0
    6.6465   -0.0094   19.9016 C   0  0  0  0  0  0  0  0  0  0  0  0
    7.1654    0.0671   18.5917 C   0  0  0  0  0  0  0  0  0  0  0  0
    8.1080   -0.4285   18.3720 H   0  0  0  0  0  0  0  0  0  0  0  0
    6.5627    0.6861   17.5690 N   0  0  0  0  0  0  0  0  0  0  0  0
    5.3988    1.3000   17.8327 C   0  0  0  0  0  0  0  0  0  0  0  0
    4.9158    1.7869   16.9902 H   0  0  0  0  0  0  0  0  0  0  0  0
    4.7994    1.3136   19.0985 C   0  0  0  0  0  0  0  0  0  0  0  0
    3.8697    1.8475   19.2533 H   0  0  0  0  0  0  0  0  0  0  0  0
    5.4207    0.6367   20.1462 C   0  0  0  0  0  0  0  0  0  0  0  0
    5.0060    0.6233   21.1569 H   0  0  0  0  0  0  0  0  0  0  0  0
  1  2  1  0
  2  3  2  3
  3  4  1  0
  4  5  1  0
  5  6  2  0
  6  7  1  0
  7  8  1  0
  7  9  2  0
  9 10  1  0
  9 11  1  0
 11 12  1  0
  4 13  2  0
 13 14  1  0
 14 15  1  0
 14 16  1  0
 14 17  1  0
 17 18  1  0
 17 19  1  0
  2 20  1  0
 20 21  2  0
 21 22  1  0
 21 23  1  0
 23 24  2  0
 24 25  1  0
 24 26  1  0
 26 27  1  0
 26 28  2  0
 28 29  1  0
 17  3  1  0
 28 20  1  0
 11  5  1  0
M  END
>  <cnnaffinity>  (1) 
-5.19422

>  <filename>  (1) 
C(=C1CCN=C1c1ncc[nH]1)c1cccnc1

$$$$
