
     RDKit          3D

 34 36  0  0  0  0  0  0  0  0999 V2000
    7.6888   -1.7648   20.6863 H   0  0  0  0  0  0  0  0  0  0  0  0
    7.3973   -0.7377   20.9323 C   0  0  0  0  0  0  0  0  0  0  0  0
    7.7503   -0.1980   22.1039 C   0  0  0  0  0  0  0  0  0  0  0  0
    8.4926   -0.8529   23.1908 C   0  0  0  0  0  0  0  0  0  0  0  0
    8.8075   -2.3253   23.1889 C   0  0  0  0  0  0  0  0  0  0  0  0
    9.5929   -2.4836   23.9326 H   0  0  0  0  0  0  0  0  0  0  0  0
    9.2046   -2.6565   22.2248 H   0  0  0  0  0  0  0  0  0  0  0  0
    7.5725   -3.1045   23.5346 C   0  0  0  0  0  0  0  0  0  0  0  0
    6.9081   -3.6999   22.5326 N   0  0  0  0  0  0  0  0  0  0  0  0
    5.8002   -4.3876   22.8534 C   0  0  0  0  0  0  0  0  0  0  0  0
    5.2798   -4.8697   22.0299 H   0  0  0  0  0  0  0  0  0  0  0  0
    5.2937   -4.5076   24.1495 C   0  0  0  0  0  0  0  0  0  0  0  0
    4.3861   -5.0700   24.3375 H   0  0  0  0  0  0  0  0  0  0  0  0
    5.9823   -3.8774   25.1881 C   0  0  0  0  0  0  0  0  0  0  0  0
    5.6230   -3.9376   26.2169 H   0  0  0  0  0  0  0  0  0  0  0  0
    7.1373   -3.1651   24.8678 C   0  0  0  0  0  0  0  0  0  0  0  0
    7.7103   -2.6524   25.6308 H   0  0  0  0  0  0  0  0  0  0  0  0
    8.8318   -0.0772   24.1457 N   0  0  0  0  0  0  0  0  0  0  0  0
    8.3643    1.2891   23.8471 C   0  0  0  0  0  0  0  0  0  0  0  0
    7.7455    1.6411   24.6740 H   0  0  0  0  0  0  0  0  0  0  0  0
    9.2226    1.9605   23.7727 H   0  0  0  0  0  0  0  0  0  0  0  0
    7.5695    1.2475   22.5202 C   0  0  0  0  0  0  0  0  0  0  0  0
    6.5141    1.5006   22.6698 H   0  0  0  0  0  0  0  0  0  0  0  0
    7.9561    1.9361   21.7601 H   0  0  0  0  0  0  0  0  0  0  0  0
    6.6473   -0.0113   19.8890 C   0  0  0  0  0  0  0  0  0  0  0  0
    7.1576    0.0505   18.5818 C   0  0  0  0  0  0  0  0  0  0  0  0
    8.1113   -0.4286   18.3704 H   0  0  0  0  0  0  0  0  0  0  0  0
    6.5641    0.6830   17.5660 N   0  0  0  0  0  0  0  0  0  0  0  0
    5.3984    1.2980   17.8318 C   0  0  0  0  0  0  0  0  0  0  0  0
    4.9131    1.7858   16.9916 H   0  0  0  0  0  0  0  0  0  0  0  0
    4.8012    1.3146   19.0965 C   0  0  0  0  0  0  0  0  0  0  0  0
    3.8700    1.8461   19.2562 H   0  0  0  0  0  0  0  0  0  0  0  0
    5.4353    0.6538   20.1464 C   0  0  0  0  0  0  0  0  0  0  0  0
    5.0099    0.6243   21.1537 H   0  0  0  0  0  0  0  0  0  0  0  0
  1  2  1  0
  2  3  2  3
  3  4  1  0
  4  5  1  0
  5  6  1  0
  5  7  1  0
  5  8  1  0
  8  9  2  0
  9 10  1  0
 10 11  1  0
 10 12  2  0
 12 13  1  0
 12 14  1  0
 14 15  1  0
 14 16  2  0
 16 17  1  0
  4 18  2  0
 18 19  1  0
 19 20  1  0
 19 21  1  0
 19 22  1  0
 22 23  1  0
 22 24  1  0
  2 25  1  0
 25 26  2  0
 26 27  1  0
 26 28  1  0
 28 29  2  0
 29 30  1  0
 29 31  1  0
 31 32  1  0
 31 33  2  0
 33 34  1  0
 22  3  1  0
 33 25  1  0
 16  8  1  0
M  END
>  <cnnaffinity>  (1) 
-5.14083

>  <filename>  (1) 
C(=C1CCN=C1Cc1ccccn1)c1cccnc1

$$$$
