
     RDKit          3D

 32 34  0  0  0  0  0  0  0  0999 V2000
    9.3936    0.9089   20.2455 H   0  0  0  0  0  0  0  0  0  0  0  0
    9.6855    0.0588   20.8689 C   0  0  0  0  0  0  0  0  0  0  0  0
    8.7432   -0.8021   21.2890 C   0  0  0  0  0  0  0  0  0  0  0  0
    7.2800   -0.8095   20.9997 C   0  0  0  0  0  0  0  0  0  0  0  0
    6.6233   -0.0262   19.9281 C   0  0  0  0  0  0  0  0  0  0  0  0
    7.2006    0.0137   18.6539 C   0  0  0  0  0  0  0  0  0  0  0  0
    8.1480   -0.4915   18.4686 H   0  0  0  0  0  0  0  0  0  0  0  0
    6.6585    0.6510   17.6090 N   0  0  0  0  0  0  0  0  0  0  0  0
    5.5050    1.3004   17.8165 C   0  0  0  0  0  0  0  0  0  0  0  0
    5.0822    1.8107   16.9529 H   0  0  0  0  0  0  0  0  0  0  0  0
    4.8374    1.3176   19.0472 C   0  0  0  0  0  0  0  0  0  0  0  0
    3.9066    1.8672   19.1450 H   0  0  0  0  0  0  0  0  0  0  0  0
    5.3959    0.6288   20.1239 C   0  0  0  0  0  0  0  0  0  0  0  0
    4.9040    0.5952   21.0967 H   0  0  0  0  0  0  0  0  0  0  0  0
    6.6048   -1.5816   21.7661 N   0  0  0  0  0  0  0  0  0  0  0  0
    7.4887   -2.1883   22.7633 C   0  0  0  0  0  0  0  0  0  0  0  0
    7.2812   -3.2593   22.8337 H   0  0  0  0  0  0  0  0  0  0  0  0
    7.2426   -1.7523   23.7371 H   0  0  0  0  0  0  0  0  0  0  0  0
    8.9436   -1.8669   22.3529 C   0  0  0  0  0  0  0  0  0  0  0  0
    9.5633   -1.5157   23.1850 H   0  0  0  0  0  0  0  0  0  0  0  0
    9.4257   -2.7554   21.9314 H   0  0  0  0  0  0  0  0  0  0  0  0
   11.1002    0.0620   21.3438 C   0  0  0  0  0  0  0  0  0  0  0  0
   11.8958   -1.1015   21.3882 C   0  0  0  0  0  0  0  0  0  0  0  0
   11.4821   -2.0337   21.0115 H   0  0  0  0  0  0  0  0  0  0  0  0
   13.1945   -1.0704   21.9092 C   0  0  0  0  0  0  0  0  0  0  0  0
   13.7886   -1.9805   21.9239 H   0  0  0  0  0  0  0  0  0  0  0  0
   13.7178    0.1145   22.4455 C   0  0  0  0  0  0  0  0  0  0  0  0
   14.7009    0.1279   22.9105 H   0  0  0  0  0  0  0  0  0  0  0  0
   12.9423    1.2830   22.3957 C   0  0  0  0  0  0  0  0  0  0  0  0
   13.3357    2.2221   22.7793 H   0  0  0  0  0  0  0  0  0  0  0  0
   11.6641    1.2595   21.8287 C   0  0  0  0  0  0  0  0  0  0  0  0
   11.0777    2.1755   21.8176 H   0  0  0  0  0  0  0  0  0  0  0  0
  1  2  1  0
  2  3  2  3
  3  4  1  0
  4  5  1  0
  5  6  2  0
  6  7  1  0
  6  8  1  0
  8  9  2  0
  9 10  1  0
  9 11  1  0
 11 12  1  0
 11 13  2  0
 13 14  1  0
  4 15  2  0
 15 16  1  0
 16 17  1  0
 16 18  1  0
 16 19  1  0
 19 20  1  0
 19 21  1  0
  2 22  1  0
 22 23  2  0
 23 24  1  0
 23 25  1  0
 25 26  1  0
 25 27  2  0
 27 28  1  0
 27 29  1  0
 29 30  1  0
 29 31  2  0
 31 32  1  0
 19  3  1  0
 31 22  1  0
 13  5  1  0
M  END
>  <cnnaffinity>  (1) 
-5.57471

>  <filename>  (1) 
C(=C1CCN=C1c1cccnc1)c1ccccc1

$$$$
