
     RDKit          3D

 35 37  0  0  0  0  0  0  0  0999 V2000
    6.7277   -2.7279   22.5919 H   0  0  0  0  0  0  0  0  0  0  0  0
    7.6680   -3.0505   23.0368 C   0  0  0  0  0  0  0  0  0  0  0  0
    8.6324   -2.1783   23.3496 C   0  0  0  0  0  0  0  0  0  0  0  0
    8.4330   -0.7035   23.2528 C   0  0  0  0  0  0  0  0  0  0  0  0
    8.8464    0.1090   24.1559 N   0  0  0  0  0  0  0  0  0  0  0  0
    8.3799    1.4594   23.8379 C   0  0  0  0  0  0  0  0  0  0  0  0
    9.2517    2.0969   23.6584 H   0  0  0  0  0  0  0  0  0  0  0  0
    7.8386    1.8636   24.6985 H   0  0  0  0  0  0  0  0  0  0  0  0
    7.4642    1.3641   22.5892 C   0  0  0  0  0  0  0  0  0  0  0  0
    7.6973    2.0981   21.8157 H   0  0  0  0  0  0  0  0  0  0  0  0
    6.4179    1.5009   22.8814 H   0  0  0  0  0  0  0  0  0  0  0  0
    7.7043   -0.0561   22.1332 C   0  0  0  0  0  0  0  0  0  0  0  0
    7.4341   -0.6171   20.9394 C   0  0  0  0  0  0  0  0  0  0  0  0
    7.8833   -1.5858   20.6992 H   0  0  0  0  0  0  0  0  0  0  0  0
    6.6471    0.0007   19.8510 C   0  0  0  0  0  0  0  0  0  0  0  0
    7.1259   -0.0110   18.5248 C   0  0  0  0  0  0  0  0  0  0  0  0
    8.0384   -0.5558   18.2866 H   0  0  0  0  0  0  0  0  0  0  0  0
    6.5440    0.6271   17.5032 N   0  0  0  0  0  0  0  0  0  0  0  0
    5.4096    1.3002   17.7655 C   0  0  0  0  0  0  0  0  0  0  0  0
    4.9649    1.8431   16.9326 H   0  0  0  0  0  0  0  0  0  0  0  0
    4.7988    1.3122   19.0227 C   0  0  0  0  0  0  0  0  0  0  0  0
    3.8686    1.8485   19.1669 H   0  0  0  0  0  0  0  0  0  0  0  0
    5.4242    0.6481   20.0786 C   0  0  0  0  0  0  0  0  0  0  0  0
    4.9742    0.6098   21.0704 H   0  0  0  0  0  0  0  0  0  0  0  0
    9.9964   -2.6787   23.7978 C   0  0  0  0  0  0  0  0  0  0  0  0
   10.6630   -2.6573   22.9252 H   0  0  0  0  0  0  0  0  0  0  0  0
   10.4159   -1.9864   24.5289 H   0  0  0  0  0  0  0  0  0  0  0  0
    9.9496   -4.1079   24.3666 C   0  0  0  0  0  0  0  0  0  0  0  0
   10.9692   -4.5121   24.4295 H   0  0  0  0  0  0  0  0  0  0  0  0
    9.5572   -4.1005   25.3922 H   0  0  0  0  0  0  0  0  0  0  0  0
    9.1362   -5.0235   23.5631 N   0  0  0  0  0  0  0  0  0  0  0  0
    9.6080   -5.1442   22.6740 H   0  0  0  0  0  0  0  0  0  0  0  0
    7.7818   -4.5350   23.3079 C   0  0  0  0  0  0  0  0  0  0  0  0
    7.1367   -4.7741   24.1651 H   0  0  0  0  0  0  0  0  0  0  0  0
    7.3657   -5.0796   22.4516 H   0  0  0  0  0  0  0  0  0  0  0  0
  1  2  1  0
  2  3  2  0
  3  4  1  0
  4  5  2  0
  5  6  1  0
  6  7  1  0
  6  8  1  0
  6  9  1  0
  9 10  1  0
  9 11  1  0
  9 12  1  0
 12 13  2  3
 13 14  1  0
 13 15  1  0
 15 16  2  0
 16 17  1  0
 16 18  1  0
 18 19  2  0
 19 20  1  0
 19 21  1  0
 21 22  1  0
 21 23  2  0
 23 24  1  0
  3 25  1  0
 25 26  1  0
 25 27  1  0
 25 28  1  0
 28 29  1  0
 28 30  1  0
 28 31  1  0
 31 32  1  0
 31 33  1  0
 33 34  1  0
 33 35  1  0
 33  2  1  0
 12  4  1  0
 23 15  1  0
M  END
>  <cnnaffinity>  (1) 
-5.13854

>  <filename>  (1) 
C(=C1CCN=C1C1=CCNCC1)c1cccnc1

$$$$
