
     RDKit          3D

 35 38  0  0  0  0  0  0  0  0999 V2000
    6.7030   -1.4790   21.4332 H   0  0  0  0  0  0  0  0  0  0  0  0
    7.2871   -0.6804   20.9663 C   0  0  0  0  0  0  0  0  0  0  0  0
    8.5069   -0.3501   21.4293 C   0  0  0  0  0  0  0  0  0  0  0  0
    9.2440   -0.9876   22.5505 C   0  0  0  0  0  0  0  0  0  0  0  0
    8.5755   -1.9816   23.4244 C   0  0  0  0  0  0  0  0  0  0  0  0
    7.2593   -1.9341   23.7771 C   0  0  0  0  0  0  0  0  0  0  0  0
    6.5802   -1.0929   23.6896 H   0  0  0  0  0  0  0  0  0  0  0  0
    6.6919   -3.3681   24.5714 S   0  0  0  0  0  0  0  0  0  0  0  0
    8.3202   -3.9907   24.6725 C   0  0  0  0  0  0  0  0  0  0  0  0
    8.7496   -5.1605   25.3308 C   0  0  0  0  0  0  0  0  0  0  0  0
    8.0416   -5.8512   25.7790 H   0  0  0  0  0  0  0  0  0  0  0  0
   10.1104   -5.4344   25.3667 C   0  0  0  0  0  0  0  0  0  0  0  0
   10.5022   -6.2923   25.9097 H   0  0  0  0  0  0  0  0  0  0  0  0
   11.0333   -4.5775   24.7411 C   0  0  0  0  0  0  0  0  0  0  0  0
   12.0733   -4.8249   24.8816 H   0  0  0  0  0  0  0  0  0  0  0  0
   10.6144   -3.4496   24.0500 C   0  0  0  0  0  0  0  0  0  0  0  0
   11.2921   -2.7748   23.5361 H   0  0  0  0  0  0  0  0  0  0  0  0
    9.2380   -3.1265   24.0297 C   0  0  0  0  0  0  0  0  0  0  0  0
   10.4596   -0.5771   22.6672 N   0  0  0  0  0  0  0  0  0  0  0  0
   10.6970    0.5314   21.7437 C   0  0  0  0  0  0  0  0  0  0  0  0
   11.5679    0.2895   21.1264 H   0  0  0  0  0  0  0  0  0  0  0  0
   10.9437    1.4296   22.3239 H   0  0  0  0  0  0  0  0  0  0  0  0
    9.4106    0.7425   20.8956 C   0  0  0  0  0  0  0  0  0  0  0  0
    9.5724    0.6290   19.8216 H   0  0  0  0  0  0  0  0  0  0  0  0
    8.9750    1.7374   21.0378 H   0  0  0  0  0  0  0  0  0  0  0  0
    6.5986   -0.0060   19.8491 C   0  0  0  0  0  0  0  0  0  0  0  0
    7.1299    0.0515   18.5477 C   0  0  0  0  0  0  0  0  0  0  0  0
    8.0598   -0.4748   18.3333 H   0  0  0  0  0  0  0  0  0  0  0  0
    6.5538    0.6996   17.5264 N   0  0  0  0  0  0  0  0  0  0  0  0
    5.3977    1.3318   17.7781 C   0  0  0  0  0  0  0  0  0  0  0  0
    4.9577    1.8662   16.9376 H   0  0  0  0  0  0  0  0  0  0  0  0
    4.7584    1.3108   19.0238 C   0  0  0  0  0  0  0  0  0  0  0  0
    3.8222    1.8418   19.1587 H   0  0  0  0  0  0  0  0  0  0  0  0
    5.3605    0.6123   20.0726 C   0  0  0  0  0  0  0  0  0  0  0  0
    4.9124    0.5620   21.0652 H   0  0  0  0  0  0  0  0  0  0  0  0
  1  2  1  0
  2  3  2  3
  3  4  1  0
  4  5  1  0
  5  6  2  0
  6  7  1  0
  6  8  1  0
  8  9  1  0
  9 10  2  0
 10 11  1  0
 10 12  1  0
 12 13  1  0
 12 14  2  0
 14 15  1  0
 14 16  1  0
 16 17  1  0
 16 18  2  0
  4 19  2  0
 19 20  1  0
 20 21  1  0
 20 22  1  0
 20 23  1  0
 23 24  1  0
 23 25  1  0
  2 26  1  0
 26 27  2  0
 27 28  1  0
 27 29  1  0
 29 30  2  0
 30 31  1  0
 30 32  1  0
 32 33  1  0
 32 34  2  0
 34 35  1  0
 23  3  1  0
 34 26  1  0
 18  5  1  0
 18  9  1  0
M  END
>  <cnnaffinity>  (1) 
-5.7479

>  <filename>  (1) 
C(=C1CCN=C1c1csc2ccccc12)c1cccnc1

$$$$
