
     RDKit          3D

 35 38  0  0  0  0  0  0  0  0999 V2000
    7.0233    1.7373   22.1236 H   0  0  0  0  0  0  0  0  0  0  0  0
    7.2915    0.9232   22.8013 C   0  0  0  0  0  0  0  0  0  0  0  0
    7.5268   -0.3184   22.3207 C   0  0  0  0  0  0  0  0  0  0  0  0
    7.3818   -0.7696   20.9301 C   0  0  0  0  0  0  0  0  0  0  0  0
    6.6385   -0.0019   19.9080 C   0  0  0  0  0  0  0  0  0  0  0  0
    7.1602    0.0400   18.6064 C   0  0  0  0  0  0  0  0  0  0  0  0
    8.1037   -0.4503   18.3791 H   0  0  0  0  0  0  0  0  0  0  0  0
    6.5676    0.6744   17.5915 N   0  0  0  0  0  0  0  0  0  0  0  0
    5.4057    1.2942   17.8417 C   0  0  0  0  0  0  0  0  0  0  0  0
    4.9481    1.7946   16.9915 H   0  0  0  0  0  0  0  0  0  0  0  0
    4.7994    1.3147   19.1023 C   0  0  0  0  0  0  0  0  0  0  0  0
    3.8654    1.8444   19.2349 H   0  0  0  0  0  0  0  0  0  0  0  0
    5.4278    0.6617   20.1623 C   0  0  0  0  0  0  0  0  0  0  0  0
    4.9914    0.6672   21.1634 H   0  0  0  0  0  0  0  0  0  0  0  0
    7.9491   -1.8921   20.6787 N   0  0  0  0  0  0  0  0  0  0  0  0
    8.5443   -2.4305   21.9086 C   0  0  0  0  0  0  0  0  0  0  0  0
    8.1574   -3.4419   22.0858 H   0  0  0  0  0  0  0  0  0  0  0  0
    9.6289   -2.5117   21.7617 H   0  0  0  0  0  0  0  0  0  0  0  0
    8.1874   -1.4525   23.0667 C   0  0  0  0  0  0  0  0  0  0  0  0
    9.0541   -1.1081   23.6408 H   0  0  0  0  0  0  0  0  0  0  0  0
    7.5014   -1.9114   23.7883 H   0  0  0  0  0  0  0  0  0  0  0  0
    7.4892    1.3284   24.1782 C   0  0  0  0  0  0  0  0  0  0  0  0
    7.1530    0.6130   25.2884 C   0  0  0  0  0  0  0  0  0  0  0  0
    6.6701   -0.3577   25.3046 H   0  0  0  0  0  0  0  0  0  0  0  0
    7.5678    1.3990   26.7735 S   0  0  0  0  0  0  0  0  0  0  0  0
    8.1932    2.7818   25.9168 C   0  0  0  0  0  0  0  0  0  0  0  0
    8.6941    3.9728   26.4688 C   0  0  0  0  0  0  0  0  0  0  0  0
    8.5813    4.1725   27.5256 H   0  0  0  0  0  0  0  0  0  0  0  0
    9.2330    4.9245   25.6133 C   0  0  0  0  0  0  0  0  0  0  0  0
    9.6653    5.8199   26.0428 H   0  0  0  0  0  0  0  0  0  0  0  0
    9.1969    4.7501   24.2155 C   0  0  0  0  0  0  0  0  0  0  0  0
    9.5746    5.5317   23.5582 H   0  0  0  0  0  0  0  0  0  0  0  0
    8.6312    3.6038   23.6735 C   0  0  0  0  0  0  0  0  0  0  0  0
    8.5926    3.4641   22.5961 H   0  0  0  0  0  0  0  0  0  0  0  0
    8.1115    2.6023   24.5234 C   0  0  0  0  0  0  0  0  0  0  0  0
  1  2  1  0
  2  3  2  3
  3  4  1  0
  4  5  1  0
  5  6  2  0
  6  7  1  0
  6  8  1  0
  8  9  2  0
  9 10  1  0
  9 11  1  0
 11 12  1  0
 11 13  2  0
 13 14  1  0
  4 15  2  0
 15 16  1  0
 16 17  1  0
 16 18  1  0
 16 19  1  0
 19 20  1  0
 19 21  1  0
  2 22  1  0
 22 23  2  0
 23 24  1  0
 23 25  1  0
 25 26  1  0
 26 27  2  0
 27 28  1  0
 27 29  1  0
 29 30  1  0
 29 31  2  0
 31 32  1  0
 31 33  1  0
 33 34  1  0
 33 35  2  0
 19  3  1  0
 35 22  1  0
 13  5  1  0
 35 26  1  0
M  END
>  <cnnaffinity>  (1) 
-5.53112

>  <filename>  (1) 
C(=C1CCN=C1c1cccnc1)c1csc2ccccc12

$$$$
