
     RDKit          3D

 37 40  0  0  0  0  0  0  0  0999 V2000
    6.5739   -1.3135   21.7031 H   0  0  0  0  0  0  0  0  0  0  0  0
    7.2043   -0.6617   21.0882 C   0  0  0  0  0  0  0  0  0  0  0  0
    8.4718   -0.4296   21.4776 C   0  0  0  0  0  0  0  0  0  0  0  0
    9.1764   -0.9910   22.6632 C   0  0  0  0  0  0  0  0  0  0  0  0
    8.6576   -2.0778   23.5211 C   0  0  0  0  0  0  0  0  0  0  0  0
    8.6895   -1.9190   24.8846 C   0  0  0  0  0  0  0  0  0  0  0  0
    9.1514   -1.0404   25.3265 H   0  0  0  0  0  0  0  0  0  0  0  0
    8.1512   -2.8059   25.7601 N   0  0  0  0  0  0  0  0  0  0  0  0
    7.6188   -3.9107   25.2737 C   0  0  0  0  0  0  0  0  0  0  0  0
    7.1926   -4.6252   25.9816 H   0  0  0  0  0  0  0  0  0  0  0  0
    7.6341   -4.2609   23.8909 C   0  0  0  0  0  0  0  0  0  0  0  0
    7.1589   -5.5200   23.4029 C   0  0  0  0  0  0  0  0  0  0  0  0
    6.5850   -6.1591   24.0683 H   0  0  0  0  0  0  0  0  0  0  0  0
    7.4270   -5.9073   22.1132 C   0  0  0  0  0  0  0  0  0  0  0  0
    7.1630   -6.9029   21.7560 H   0  0  0  0  0  0  0  0  0  0  0  0
    8.0771   -5.0064   21.2315 C   0  0  0  0  0  0  0  0  0  0  0  0
    8.3395   -5.3346   20.2386 H   0  0  0  0  0  0  0  0  0  0  0  0
    8.4280   -3.7381   21.6367 C   0  0  0  0  0  0  0  0  0  0  0  0
    8.9061   -3.0405   20.9564 H   0  0  0  0  0  0  0  0  0  0  0  0
    8.2258   -3.3334   22.9875 C   0  0  0  0  0  0  0  0  0  0  0  0
   10.3059   -0.4505   22.9100 N   0  0  0  0  0  0  0  0  0  0  0  0
   10.6505    0.4862   21.8355 C   0  0  0  0  0  0  0  0  0  0  0  0
   11.5456    0.1124   21.3232 H   0  0  0  0  0  0  0  0  0  0  0  0
   10.9030    1.4461   22.2983 H   0  0  0  0  0  0  0  0  0  0  0  0
    9.4332    0.5719   20.8701 C   0  0  0  0  0  0  0  0  0  0  0  0
    9.6794    0.2813   19.8453 H   0  0  0  0  0  0  0  0  0  0  0  0
    9.0046    1.5788   20.8344 H   0  0  0  0  0  0  0  0  0  0  0  0
    6.5328   -0.0482   19.9251 C   0  0  0  0  0  0  0  0  0  0  0  0
    7.1067   -0.0137   18.6376 C   0  0  0  0  0  0  0  0  0  0  0  0
    8.0172   -0.5832   18.4480 H   0  0  0  0  0  0  0  0  0  0  0  0
    6.5879    0.6526   17.5979 N   0  0  0  0  0  0  0  0  0  0  0  0
    5.4343    1.3068   17.8029 C   0  0  0  0  0  0  0  0  0  0  0  0
    5.0401    1.8599   16.9539 H   0  0  0  0  0  0  0  0  0  0  0  0
    4.7370    1.2830   19.0168 C   0  0  0  0  0  0  0  0  0  0  0  0
    3.7999    1.8209   19.1118 H   0  0  0  0  0  0  0  0  0  0  0  0
    5.2813    0.5707   20.0833 C   0  0  0  0  0  0  0  0  0  0  0  0
    4.7750    0.5092   21.0462 H   0  0  0  0  0  0  0  0  0  0  0  0
  1  2  1  0
  2  3  2  3
  3  4  1  0
  4  5  1  0
  5  6  2  0
  6  7  1  0
  6  8  1  0
  8  9  2  0
  9 10  1  0
  9 11  1  0
 11 12  2  0
 12 13  1  0
 12 14  1  0
 14 15  1  0
 14 16  2  0
 16 17  1  0
 16 18  1  0
 18 19  1  0
 18 20  2  0
  4 21  2  0
 21 22  1  0
 22 23  1  0
 22 24  1  0
 22 25  1  0
 25 26  1  0
 25 27  1  0
  2 28  1  0
 28 29  2  0
 29 30  1  0
 29 31  1  0
 31 32  2  0
 32 33  1  0
 32 34  1  0
 34 35  1  0
 34 36  2  0
 36 37  1  0
 25  3  1  0
 36 28  1  0
 20  5  1  0
 20 11  1  0
M  END
>  <cnnaffinity>  (1) 
-5.71137

>  <filename>  (1) 
C(=C1CCN=C1c1cncc2ccccc12)c1cccnc1

$$$$
