
     RDKit          3D

 37 40  0  0  0  0  0  0  0  0999 V2000
    9.4314    0.8846   20.2016 H   0  0  0  0  0  0  0  0  0  0  0  0
    9.6940    0.0701   20.8776 C   0  0  0  0  0  0  0  0  0  0  0  0
    8.7516   -0.8094   21.2811 C   0  0  0  0  0  0  0  0  0  0  0  0
    7.3018   -0.8111   20.9947 C   0  0  0  0  0  0  0  0  0  0  0  0
    6.6451   -0.0232   19.9226 C   0  0  0  0  0  0  0  0  0  0  0  0
    7.2109    0.0377   18.6446 C   0  0  0  0  0  0  0  0  0  0  0  0
    8.1599   -0.4586   18.4451 H   0  0  0  0  0  0  0  0  0  0  0  0
    6.6518    0.6701   17.6030 N   0  0  0  0  0  0  0  0  0  0  0  0
    5.4835    1.2925   17.8194 C   0  0  0  0  0  0  0  0  0  0  0  0
    5.0328    1.8009   16.9672 H   0  0  0  0  0  0  0  0  0  0  0  0
    4.8414    1.3127   19.0635 C   0  0  0  0  0  0  0  0  0  0  0  0
    3.9081    1.8542   19.1769 H   0  0  0  0  0  0  0  0  0  0  0  0
    5.4235    0.6352   20.1337 C   0  0  0  0  0  0  0  0  0  0  0  0
    4.9450    0.6142   21.1151 H   0  0  0  0  0  0  0  0  0  0  0  0
    6.6216   -1.5705   21.7750 N   0  0  0  0  0  0  0  0  0  0  0  0
    7.5138   -2.1888   22.7585 C   0  0  0  0  0  0  0  0  0  0  0  0
    7.2754   -1.7984   23.7536 H   0  0  0  0  0  0  0  0  0  0  0  0
    7.3698   -3.2714   22.7678 H   0  0  0  0  0  0  0  0  0  0  0  0
    8.9599   -1.8183   22.3802 C   0  0  0  0  0  0  0  0  0  0  0  0
    9.5159   -2.6990   22.0443 H   0  0  0  0  0  0  0  0  0  0  0  0
    9.5136   -1.3762   23.2129 H   0  0  0  0  0  0  0  0  0  0  0  0
   11.0765    0.0589   21.3540 C   0  0  0  0  0  0  0  0  0  0  0  0
   11.8394   -1.1008   21.3996 C   0  0  0  0  0  0  0  0  0  0  0  0
   11.3976   -2.0288   21.0478 H   0  0  0  0  0  0  0  0  0  0  0  0
   13.1190   -1.1888   21.8628 N   0  0  0  0  0  0  0  0  0  0  0  0
   13.6824   -0.0809   22.2982 C   0  0  0  0  0  0  0  0  0  0  0  0
   14.7060   -0.1503   22.6828 H   0  0  0  0  0  0  0  0  0  0  0  0
   13.0268    1.1899   22.2971 C   0  0  0  0  0  0  0  0  0  0  0  0
   13.6907    2.3685   22.7130 C   0  0  0  0  0  0  0  0  0  0  0  0
   14.7442    2.2505   22.8911 H   0  0  0  0  0  0  0  0  0  0  0  0
   13.0441    3.5810   22.7360 C   0  0  0  0  0  0  0  0  0  0  0  0
   13.5645    4.4704   23.0723 H   0  0  0  0  0  0  0  0  0  0  0  0
   11.6996    3.6715   22.3000 C   0  0  0  0  0  0  0  0  0  0  0  0
   11.1950    4.6342   22.2989 H   0  0  0  0  0  0  0  0  0  0  0  0
   11.0429    2.5446   21.8453 C   0  0  0  0  0  0  0  0  0  0  0  0
   10.0062    2.6110   21.5357 H   0  0  0  0  0  0  0  0  0  0  0  0
   11.6872    1.2746   21.8229 C   0  0  0  0  0  0  0  0  0  0  0  0
  1  2  1  0
  2  3  2  3
  3  4  1  0
  4  5  1  0
  5  6  2  0
  6  7  1  0
  6  8  1  0
  8  9  2  0
  9 10  1  0
  9 11  1  0
 11 12  1  0
 11 13  2  0
 13 14  1  0
  4 15  2  0
 15 16  1  0
 16 17  1  0
 16 18  1  0
 16 19  1  0
 19 20  1  0
 19 21  1  0
  2 22  1  0
 22 23  2  0
 23 24  1  0
 23 25  1  0
 25 26  2  0
 26 27  1  0
 26 28  1  0
 28 29  2  0
 29 30  1  0
 29 31  1  0
 31 32  1  0
 31 33  2  0
 33 34  1  0
 33 35  1  0
 35 36  1  0
 35 37  2  0
 19  3  1  0
 37 22  1  0
 13  5  1  0
 37 28  1  0
M  END
>  <cnnaffinity>  (1) 
-6.43222

>  <filename>  (1) 
C(=C1CCN=C1c1cccnc1)c1cncc2ccccc12

$$$$
