
     RDKit          3D

 35 37  0  0  0  0  0  0  0  0999 V2000
    6.6336   -1.3113   21.6280 H   0  0  0  0  0  0  0  0  0  0  0  0
    7.2664   -0.6542   21.0258 C   0  0  0  0  0  0  0  0  0  0  0  0
    8.5086   -0.3576   21.4371 C   0  0  0  0  0  0  0  0  0  0  0  0
    9.2509   -0.9475   22.5854 C   0  0  0  0  0  0  0  0  0  0  0  0
    8.6744   -2.0861   23.4092 C   0  0  0  0  0  0  0  0  0  0  0  0
    7.6682   -1.7922   23.7464 H   0  0  0  0  0  0  0  0  0  0  0  0
    8.5971   -3.3760   22.5777 C   0  0  0  0  0  0  0  0  0  0  0  0
    7.8167   -3.3394   21.8081 H   0  0  0  0  0  0  0  0  0  0  0  0
    9.5709   -3.4551   22.0834 H   0  0  0  0  0  0  0  0  0  0  0  0
    8.4264   -4.5152   23.5878 C   0  0  0  0  0  0  0  0  0  0  0  0
    7.3617   -4.7376   23.7408 H   0  0  0  0  0  0  0  0  0  0  0  0
    8.9029   -5.4342   23.2238 H   0  0  0  0  0  0  0  0  0  0  0  0
    9.0593   -3.9924   24.9039 C   0  0  0  0  0  0  0  0  0  0  0  0
    9.9184   -4.5870   25.2327 H   0  0  0  0  0  0  0  0  0  0  0  0
    8.3184   -4.0468   25.7110 H   0  0  0  0  0  0  0  0  0  0  0  0
    9.5010   -2.5377   24.6292 C   0  0  0  0  0  0  0  0  0  0  0  0
   10.5638   -2.5000   24.3608 H   0  0  0  0  0  0  0  0  0  0  0  0
    9.3622   -1.8875   25.4985 H   0  0  0  0  0  0  0  0  0  0  0  0
   10.4328   -0.4820   22.7329 N   0  0  0  0  0  0  0  0  0  0  0  0
   10.6789    0.5731   21.7422 C   0  0  0  0  0  0  0  0  0  0  0  0
   11.5700    0.3094   21.1646 H   0  0  0  0  0  0  0  0  0  0  0  0
   10.8778    1.5085   22.2764 H   0  0  0  0  0  0  0  0  0  0  0  0
    9.4271    0.6889   20.8437 C   0  0  0  0  0  0  0  0  0  0  0  0
    9.6239    0.4617   19.7948 H   0  0  0  0  0  0  0  0  0  0  0  0
    8.9861    1.6888   20.8787 H   0  0  0  0  0  0  0  0  0  0  0  0
    6.5701   -0.0381   19.8735 C   0  0  0  0  0  0  0  0  0  0  0  0
    7.1003    0.0103   18.5719 C   0  0  0  0  0  0  0  0  0  0  0  0
    8.0253   -0.5249   18.3561 H   0  0  0  0  0  0  0  0  0  0  0  0
    6.5434    0.6649   17.5426 N   0  0  0  0  0  0  0  0  0  0  0  0
    5.3970    1.3217   17.7836 C   0  0  0  0  0  0  0  0  0  0  0  0
    4.9773    1.8848   16.9510 H   0  0  0  0  0  0  0  0  0  0  0  0
    4.7470    1.2980   19.0249 C   0  0  0  0  0  0  0  0  0  0  0  0
    3.8230    1.8508   19.1566 H   0  0  0  0  0  0  0  0  0  0  0  0
    5.3323    0.5921   20.0763 C   0  0  0  0  0  0  0  0  0  0  0  0
    4.8608    0.5517   21.0597 H   0  0  0  0  0  0  0  0  0  0  0  0
  1  2  1  0
  2  3  2  3
  3  4  1  0
  4  5  1  0
  5  6  1  0
  5  7  1  0
  7  8  1  0
  7  9  1  0
  7 10  1  0
 10 11  1  0
 10 12  1  0
 10 13  1  0
 13 14  1  0
 13 15  1  0
 13 16  1  0
 16 17  1  0
 16 18  1  0
  4 19  2  0
 19 20  1  0
 20 21  1  0
 20 22  1  0
 20 23  1  0
 23 24  1  0
 23 25  1  0
  2 26  1  0
 26 27  2  0
 27 28  1  0
 27 29  1  0
 29 30  2  0
 30 31  1  0
 30 32  1  0
 32 33  1  0
 32 34  2  0
 34 35  1  0
 23  3  1  0
 34 26  1  0
 16  5  1  0
M  END
>  <cnnaffinity>  (1) 
-5.14665

>  <filename>  (1) 
C(=C1CCN=C1C1CCCC1)c1cccnc1

$$$$
