
     RDKit          3D

 29 31  0  0  0  0  0  0  0  0999 V2000
    7.0090    1.7556   22.1303 H   0  0  0  0  0  0  0  0  0  0  0  0
    7.3542    0.9744   22.8056 C   0  0  0  0  0  0  0  0  0  0  0  0
    7.5903   -0.2677   22.3200 C   0  0  0  0  0  0  0  0  0  0  0  0
    7.3789   -0.7542   20.9373 C   0  0  0  0  0  0  0  0  0  0  0  0
    6.6529    0.0167   19.9112 C   0  0  0  0  0  0  0  0  0  0  0  0
    7.1693    0.0535   18.6094 C   0  0  0  0  0  0  0  0  0  0  0  0
    8.1116   -0.4375   18.3806 H   0  0  0  0  0  0  0  0  0  0  0  0
    6.5720    0.6757   17.5898 N   0  0  0  0  0  0  0  0  0  0  0  0
    5.4060    1.2915   17.8429 C   0  0  0  0  0  0  0  0  0  0  0  0
    4.9266    1.7794   16.9968 H   0  0  0  0  0  0  0  0  0  0  0  0
    4.8008    1.3105   19.1042 C   0  0  0  0  0  0  0  0  0  0  0  0
    3.8694    1.8442   19.2533 H   0  0  0  0  0  0  0  0  0  0  0  0
    5.4330    0.6612   20.1637 C   0  0  0  0  0  0  0  0  0  0  0  0
    4.9860    0.6380   21.1606 H   0  0  0  0  0  0  0  0  0  0  0  0
    7.8770   -1.9108   20.7003 N   0  0  0  0  0  0  0  0  0  0  0  0
    8.4640   -2.4407   21.9298 C   0  0  0  0  0  0  0  0  0  0  0  0
    9.5271   -2.6131   21.7497 H   0  0  0  0  0  0  0  0  0  0  0  0
    8.0120   -3.4089   22.1569 H   0  0  0  0  0  0  0  0  0  0  0  0
    8.2338   -1.4090   23.0618 C   0  0  0  0  0  0  0  0  0  0  0  0
    7.5807   -1.8038   23.8467 H   0  0  0  0  0  0  0  0  0  0  0  0
    9.1709   -1.1050   23.5368 H   0  0  0  0  0  0  0  0  0  0  0  0
    7.5566    1.4541   24.1725 C   0  0  0  0  0  0  0  0  0  0  0  0
    7.8457    0.4337   25.5552 S   0  0  0  0  0  0  0  0  0  0  0  0
    7.9275    1.7879   26.6026 C   0  0  0  0  0  0  0  0  0  0  0  0
    8.1007    1.6387   27.6589 H   0  0  0  0  0  0  0  0  0  0  0  0
    7.7552    2.9660   25.9462 C   0  0  0  0  0  0  0  0  0  0  0  0
    7.7706    3.9383   26.4315 H   0  0  0  0  0  0  0  0  0  0  0  0
    7.5418    2.7714   24.5518 C   0  0  0  0  0  0  0  0  0  0  0  0
    7.3894    3.5799   23.8410 H   0  0  0  0  0  0  0  0  0  0  0  0
  1  2  1  0
  2  3  2  3
  3  4  1  0
  4  5  1  0
  5  6  2  0
  6  7  1  0
  6  8  1  0
  8  9  2  0
  9 10  1  0
  9 11  1  0
 11 12  1  0
 11 13  2  0
 13 14  1  0
  4 15  2  0
 15 16  1  0
 16 17  1  0
 16 18  1  0
 16 19  1  0
 19 20  1  0
 19 21  1  0
  2 22  1  0
 22 23  1  0
 23 24  1  0
 24 25  1  0
 24 26  2  0
 26 27  1  0
 26 28  1  0
 28 29  1  0
 19  3  1  0
 28 22  2  0
 13  5  1  0
M  END
>  <cnnaffinity>  (1) 
-4.91884

>  <filename>  (1) 
C(=C1CCN=C1c1cccnc1)c1cccs1

$$$$
