
     RDKit          3D

 34 37  0  0  0  0  0  0  0  0999 V2000
    5.2215   -2.2177   21.0434 H   0  0  0  0  0  0  0  0  0  0  0  0
    5.8953   -2.3818   21.8724 C   0  0  0  0  0  0  0  0  0  0  0  0
    7.0757   -1.7364   21.9208 C   0  0  0  0  0  0  0  0  0  0  0  0
    7.5558   -0.6958   20.9622 C   0  0  0  0  0  0  0  0  0  0  0  0
    6.7159   -0.0256   19.9327 C   0  0  0  0  0  0  0  0  0  0  0  0
    7.2449    0.0549   18.6358 C   0  0  0  0  0  0  0  0  0  0  0  0
    8.2060   -0.4013   18.4165 H   0  0  0  0  0  0  0  0  0  0  0  0
    6.6346    0.6509   17.6080 N   0  0  0  0  0  0  0  0  0  0  0  0
    5.4609    1.2528   17.8585 C   0  0  0  0  0  0  0  0  0  0  0  0
    4.9844    1.7421   17.0102 H   0  0  0  0  0  0  0  0  0  0  0  0
    4.8508    1.2617   19.1180 C   0  0  0  0  0  0  0  0  0  0  0  0
    3.9127    1.7941   19.2493 H   0  0  0  0  0  0  0  0  0  0  0  0
    5.4865    0.6100   20.1809 C   0  0  0  0  0  0  0  0  0  0  0  0
    5.0404    0.6120   21.1787 H   0  0  0  0  0  0  0  0  0  0  0  0
    8.8003   -0.4207   21.0848 N   0  0  0  0  0  0  0  0  0  0  0  0
    9.3621   -1.1705   22.2127 C   0  0  0  0  0  0  0  0  0  0  0  0
   10.1368   -1.8428   21.8222 H   0  0  0  0  0  0  0  0  0  0  0  0
    9.8297   -0.4733   22.9143 H   0  0  0  0  0  0  0  0  0  0  0  0
    8.2111   -1.9547   22.8971 C   0  0  0  0  0  0  0  0  0  0  0  0
    8.4523   -3.0053   23.0675 H   0  0  0  0  0  0  0  0  0  0  0  0
    7.9656   -1.5306   23.8753 H   0  0  0  0  0  0  0  0  0  0  0  0
    5.3198   -3.3018   22.8505 C   0  0  0  0  0  0  0  0  0  0  0  0
    4.1454   -3.8339   22.7168 N   0  0  0  0  0  0  0  0  0  0  0  0
    3.9593   -4.5549   23.8893 C   0  0  0  0  0  0  0  0  0  0  0  0
    2.8582   -5.2821   24.3713 C   0  0  0  0  0  0  0  0  0  0  0  0
    1.9608   -5.3430   23.7629 H   0  0  0  0  0  0  0  0  0  0  0  0
    2.9610   -5.8701   25.6360 C   0  0  0  0  0  0  0  0  0  0  0  0
    2.1072   -6.3982   26.0521 H   0  0  0  0  0  0  0  0  0  0  0  0
    4.1404   -5.7445   26.3999 C   0  0  0  0  0  0  0  0  0  0  0  0
    4.1857   -6.1936   27.3900 H   0  0  0  0  0  0  0  0  0  0  0  0
    5.2345   -5.0046   25.9364 C   0  0  0  0  0  0  0  0  0  0  0  0
    6.1052   -4.8319   26.5554 H   0  0  0  0  0  0  0  0  0  0  0  0
    5.1100   -4.4352   24.6729 C   0  0  0  0  0  0  0  0  0  0  0  0
    5.9935   -3.6398   23.9977 O   0  0  0  0  0  0  0  0  0  0  0  0
  1  2  1  0
  2  3  2  3
  3  4  1  0
  4  5  1  0
  5  6  2  0
  6  7  1  0
  6  8  1  0
  8  9  2  0
  9 10  1  0
  9 11  1  0
 11 12  1  0
 11 13  2  0
 13 14  1  0
  4 15  2  0
 15 16  1  0
 16 17  1  0
 16 18  1  0
 16 19  1  0
 19 20  1  0
 19 21  1  0
  2 22  1  0
 22 23  2  0
 23 24  1  0
 24 25  2  0
 25 26  1  0
 25 27  1  0
 27 28  1  0
 27 29  2  0
 29 30  1  0
 29 31  1  0
 31 32  1  0
 31 33  2  0
 33 34  1  0
 19  3  1  0
 34 22  1  0
 13  5  1  0
 33 24  1  0
M  END
>  <cnnaffinity>  (1) 
-5.48673

>  <filename>  (1) 
C(=C1CCN=C1c1cccnc1)c1nc2ccccc2o1

$$$$
