
     RDKit          3D

 37 40  0  0  0  0  0  0  0  0999 V2000
    5.3937   -2.3592   20.9424 H   0  0  0  0  0  0  0  0  0  0  0  0
    5.9107   -2.3765   21.9059 C   0  0  0  0  0  0  0  0  0  0  0  0
    7.0582   -1.6787   21.9989 C   0  0  0  0  0  0  0  0  0  0  0  0
    7.5550   -0.7010   20.9874 C   0  0  0  0  0  0  0  0  0  0  0  0
    6.7223   -0.0251   19.9524 C   0  0  0  0  0  0  0  0  0  0  0  0
    7.2517    0.0490   18.6527 C   0  0  0  0  0  0  0  0  0  0  0  0
    8.2127   -0.4062   18.4299 H   0  0  0  0  0  0  0  0  0  0  0  0
    6.6433    0.6433   17.6224 N   0  0  0  0  0  0  0  0  0  0  0  0
    5.4713    1.2480   17.8700 C   0  0  0  0  0  0  0  0  0  0  0  0
    4.9972    1.7434   17.0227 H   0  0  0  0  0  0  0  0  0  0  0  0
    4.8555    1.2446   19.1258 C   0  0  0  0  0  0  0  0  0  0  0  0
    3.9184    1.7735   19.2538 H   0  0  0  0  0  0  0  0  0  0  0  0
    5.4824    0.5893   20.1904 C   0  0  0  0  0  0  0  0  0  0  0  0
    5.0259    0.5773   21.1832 H   0  0  0  0  0  0  0  0  0  0  0  0
    8.8180   -0.4863   21.0515 N   0  0  0  0  0  0  0  0  0  0  0  0
    9.3904   -1.2463   22.1683 C   0  0  0  0  0  0  0  0  0  0  0  0
   10.0192   -0.6016   22.7873 H   0  0  0  0  0  0  0  0  0  0  0  0
   10.0433   -2.0326   21.7661 H   0  0  0  0  0  0  0  0  0  0  0  0
    8.2094   -1.8353   22.9811 C   0  0  0  0  0  0  0  0  0  0  0  0
    8.0502   -1.2344   23.8856 H   0  0  0  0  0  0  0  0  0  0  0  0
    8.3790   -2.8675   23.2927 H   0  0  0  0  0  0  0  0  0  0  0  0
    5.2667   -3.2185   22.9421 C   0  0  0  0  0  0  0  0  0  0  0  0
    5.3687   -2.9318   24.3471 C   0  0  0  0  0  0  0  0  0  0  0  0
    5.9301   -2.0558   24.6732 H   0  0  0  0  0  0  0  0  0  0  0  0
    4.8027   -3.6372   25.2995 N   0  0  0  0  0  0  0  0  0  0  0  0
    4.0744   -4.7390   24.9338 C   0  0  0  0  0  0  0  0  0  0  0  0
    3.5205   -5.5380   25.9746 C   0  0  0  0  0  0  0  0  0  0  0  0
    3.6830   -5.1931   26.9923 H   0  0  0  0  0  0  0  0  0  0  0  0
    2.8146   -6.6783   25.6699 C   0  0  0  0  0  0  0  0  0  0  0  0
    2.4190   -7.3067   26.4631 H   0  0  0  0  0  0  0  0  0  0  0  0
    2.5918   -7.0588   24.3144 C   0  0  0  0  0  0  0  0  0  0  0  0
    2.0158   -7.9576   24.1020 H   0  0  0  0  0  0  0  0  0  0  0  0
    3.0928   -6.2954   23.2835 C   0  0  0  0  0  0  0  0  0  0  0  0
    2.8972   -6.5759   22.2515 H   0  0  0  0  0  0  0  0  0  0  0  0
    3.8711   -5.1243   23.5675 C   0  0  0  0  0  0  0  0  0  0  0  0
    4.5027   -4.3180   22.5810 C   0  0  0  0  0  0  0  0  0  0  0  0
    4.4568   -4.6152   21.5385 H   0  0  0  0  0  0  0  0  0  0  0  0
  1  2  1  0
  2  3  2  3
  3  4  1  0
  4  5  1  0
  5  6  2  0
  6  7  1  0
  6  8  1  0
  8  9  2  0
  9 10  1  0
  9 11  1  0
 11 12  1  0
 11 13  2  0
 13 14  1  0
  4 15  2  0
 15 16  1  0
 16 17  1  0
 16 18  1  0
 16 19  1  0
 19 20  1  0
 19 21  1  0
  2 22  1  0
 22 23  2  0
 23 24  1  0
 23 25  1  0
 25 26  2  0
 26 27  1  0
 27 28  1  0
 27 29  2  0
 29 30  1  0
 29 31  1  0
 31 32  1  0
 31 33  2  0
 33 34  1  0
 33 35  1  0
 35 36  2  0
 36 37  1  0
 19  3  1  0
 36 22  1  0
 13  5  1  0
 35 26  1  0
M  END
>  <cnnaffinity>  (1) 
-5.45843

>  <filename>  (1) 
C(=C1CCN=C1c1cccnc1)c1cnc2ccccc2c1

$$$$
