
     RDKit          3D

 40 42  0  0  0  0  0  0  0  0999 V2000
    7.6958   -1.7529   20.6807 H   0  0  0  0  0  0  0  0  0  0  0  0
    7.3955   -0.7302   20.9366 C   0  0  0  0  0  0  0  0  0  0  0  0
    7.7535   -0.1829   22.1046 C   0  0  0  0  0  0  0  0  0  0  0  0
    8.5248   -0.8204   23.1804 C   0  0  0  0  0  0  0  0  0  0  0  0
    8.8677   -2.3008   23.1403 C   0  0  0  0  0  0  0  0  0  0  0  0
    9.4642   -2.5072   22.2414 H   0  0  0  0  0  0  0  0  0  0  0  0
    9.5331   -2.4944   23.9935 H   0  0  0  0  0  0  0  0  0  0  0  0
    7.6734   -3.1642   23.1507 N   0  0  0  0  0  0  0  0  0  0  0  0
    6.9745   -3.1606   24.4521 C   0  0  0  0  0  0  0  0  0  0  0  0
    6.8496   -2.1252   24.7849 H   0  0  0  0  0  0  0  0  0  0  0  0
    5.9600   -3.5491   24.2923 H   0  0  0  0  0  0  0  0  0  0  0  0
    7.6731   -3.9964   25.5404 C   0  0  0  0  0  0  0  0  0  0  0  0
    8.6099   -3.4995   25.8260 H   0  0  0  0  0  0  0  0  0  0  0  0
    7.0512   -4.0220   26.4431 H   0  0  0  0  0  0  0  0  0  0  0  0
    7.9648   -5.4186   25.0448 C   0  0  0  0  0  0  0  0  0  0  0  0
    7.0137   -5.9538   24.9237 H   0  0  0  0  0  0  0  0  0  0  0  0
    8.5524   -5.9697   25.7859 H   0  0  0  0  0  0  0  0  0  0  0  0
    8.6939   -5.3910   23.6963 C   0  0  0  0  0  0  0  0  0  0  0  0
    8.8274   -6.4040   23.3019 H   0  0  0  0  0  0  0  0  0  0  0  0
    9.6945   -4.9605   23.8325 H   0  0  0  0  0  0  0  0  0  0  0  0
    7.9269   -4.5308   22.6826 C   0  0  0  0  0  0  0  0  0  0  0  0
    6.9576   -4.9992   22.4628 H   0  0  0  0  0  0  0  0  0  0  0  0
    8.4585   -4.4835   21.7253 H   0  0  0  0  0  0  0  0  0  0  0  0
    8.8696   -0.0454   24.1372 N   0  0  0  0  0  0  0  0  0  0  0  0
    8.3500    1.3014   23.8581 C   0  0  0  0  0  0  0  0  0  0  0  0
    9.1973    1.9839   23.7927 H   0  0  0  0  0  0  0  0  0  0  0  0
    7.7232    1.6130   24.6948 H   0  0  0  0  0  0  0  0  0  0  0  0
    7.5544    1.2516   22.5346 C   0  0  0  0  0  0  0  0  0  0  0  0
    6.4964    1.4885   22.6864 H   0  0  0  0  0  0  0  0  0  0  0  0
    7.9394    1.9406   21.7766 H   0  0  0  0  0  0  0  0  0  0  0  0
    6.6473   -0.0087   19.8901 C   0  0  0  0  0  0  0  0  0  0  0  0
    7.1588    0.0517   18.5825 C   0  0  0  0  0  0  0  0  0  0  0  0
    8.1126   -0.4286   18.3713 H   0  0  0  0  0  0  0  0  0  0  0  0
    6.5647    0.6831   17.5663 N   0  0  0  0  0  0  0  0  0  0  0  0
    5.3985    1.2976   17.8329 C   0  0  0  0  0  0  0  0  0  0  0  0
    4.9127    1.7849   16.9929 H   0  0  0  0  0  0  0  0  0  0  0  0
    4.8013    1.3145   19.0975 C   0  0  0  0  0  0  0  0  0  0  0  0
    3.8702    1.8460   19.2569 H   0  0  0  0  0  0  0  0  0  0  0  0
    5.4358    0.6543   20.1474 C   0  0  0  0  0  0  0  0  0  0  0  0
    5.0117    0.6234   21.1546 H   0  0  0  0  0  0  0  0  0  0  0  0
  1  2  1  0
  2  3  2  3
  3  4  1  0
  4  5  1  0
  5  6  1  0
  5  7  1  0
  5  8  1  0
  8  9  1  0
  9 10  1  0
  9 11  1  0
  9 12  1  0
 12 13  1  0
 12 14  1  0
 12 15  1  0
 15 16  1  0
 15 17  1  0
 15 18  1  0
 18 19  1  0
 18 20  1  0
 18 21  1  0
 21 22  1  0
 21 23  1  0
  4 24  2  0
 24 25  1  0
 25 26  1  0
 25 27  1  0
 25 28  1  0
 28 29  1  0
 28 30  1  0
  2 31  1  0
 31 32  2  0
 32 33  1  0
 32 34  1  0
 34 35  2  0
 35 36  1  0
 35 37  1  0
 37 38  1  0
 37 39  2  0
 39 40  1  0
 28  3  1  0
 39 31  1  0
 21  8  1  0
M  END
>  <cnnaffinity>  (1) 
-5.29969

>  <filename>  (1) 
C(=C1CCN=C1CN1CCCCC1)c1cccnc1

$$$$
