
     RDKit          3D

 37 40  0  0  0  0  0  0  0  0999 V2000
    9.3228    1.0263   20.4593 H   0  0  0  0  0  0  0  0  0  0  0  0
    9.6455    0.1098   20.9605 C   0  0  0  0  0  0  0  0  0  0  0  0
    8.7277   -0.8095   21.3316 C   0  0  0  0  0  0  0  0  0  0  0  0
    7.2816   -0.8222   21.0112 C   0  0  0  0  0  0  0  0  0  0  0  0
    6.6435   -0.0302   19.9341 C   0  0  0  0  0  0  0  0  0  0  0  0
    7.2322    0.0213   18.6653 C   0  0  0  0  0  0  0  0  0  0  0  0
    8.1831   -0.4789   18.4793 H   0  0  0  0  0  0  0  0  0  0  0  0
    6.6911    0.6594   17.6197 N   0  0  0  0  0  0  0  0  0  0  0  0
    5.5291    1.2969   17.8194 C   0  0  0  0  0  0  0  0  0  0  0  0
    5.1025    1.7984   16.9527 H   0  0  0  0  0  0  0  0  0  0  0  0
    4.8559    1.3119   19.0482 C   0  0  0  0  0  0  0  0  0  0  0  0
    3.9186    1.8521   19.1412 H   0  0  0  0  0  0  0  0  0  0  0  0
    5.4148    0.6224   20.1230 C   0  0  0  0  0  0  0  0  0  0  0  0
    4.9167    0.5812   21.0934 H   0  0  0  0  0  0  0  0  0  0  0  0
    6.5952   -1.6088   21.7558 N   0  0  0  0  0  0  0  0  0  0  0  0
    7.4658   -2.2195   22.7632 C   0  0  0  0  0  0  0  0  0  0  0  0
    7.2091   -1.7844   23.7360 H   0  0  0  0  0  0  0  0  0  0  0  0
    7.2695   -3.2930   22.8262 H   0  0  0  0  0  0  0  0  0  0  0  0
    8.9245   -1.8884   22.3758 C   0  0  0  0  0  0  0  0  0  0  0  0
    9.4172   -2.7602   21.9341 H   0  0  0  0  0  0  0  0  0  0  0  0
    9.5293   -1.5545   23.2254 H   0  0  0  0  0  0  0  0  0  0  0  0
   11.0579    0.0696   21.3500 C   0  0  0  0  0  0  0  0  0  0  0  0
   11.8173   -1.1073   21.3786 C   0  0  0  0  0  0  0  0  0  0  0  0
   11.3892   -2.0342   21.0019 H   0  0  0  0  0  0  0  0  0  0  0  0
   13.1397   -1.1345   21.8863 C   0  0  0  0  0  0  0  0  0  0  0  0
   13.6871   -2.0758   21.9116 H   0  0  0  0  0  0  0  0  0  0  0  0
   13.7281    0.0144   22.3644 C   0  0  0  0  0  0  0  0  0  0  0  0
   14.7318    0.0096   22.7889 H   0  0  0  0  0  0  0  0  0  0  0  0
   13.0131    1.2451   22.3162 C   0  0  0  0  0  0  0  0  0  0  0  0
   13.6195    2.4694   22.7057 C   0  0  0  0  0  0  0  0  0  0  0  0
   14.6898    2.4557   22.8533 H   0  0  0  0  0  0  0  0  0  0  0  0
   12.8869    3.6240   22.6972 C   0  0  0  0  0  0  0  0  0  0  0  0
   13.3109    4.5720   23.0142 H   0  0  0  0  0  0  0  0  0  0  0  0
   11.5524    3.5745   22.2138 C   0  0  0  0  0  0  0  0  0  0  0  0
   10.9692    4.4945   22.1986 H   0  0  0  0  0  0  0  0  0  0  0  0
   10.9696    2.4780   21.7691 N   0  0  0  0  0  0  0  0  0  0  0  0
   11.6738    1.3034   21.8057 C   0  0  0  0  0  0  0  0  0  0  0  0
  1  2  1  0
  2  3  2  3
  3  4  1  0
  4  5  1  0
  5  6  2  0
  6  7  1  0
  6  8  1  0
  8  9  2  0
  9 10  1  0
  9 11  1  0
 11 12  1  0
 11 13  2  0
 13 14  1  0
  4 15  2  0
 15 16  1  0
 16 17  1  0
 16 18  1  0
 16 19  1  0
 19 20  1  0
 19 21  1  0
  2 22  1  0
 22 23  2  0
 23 24  1  0
 23 25  1  0
 25 26  1  0
 25 27  2  0
 27 28  1  0
 27 29  1  0
 29 30  2  0
 30 31  1  0
 30 32  1  0
 32 33  1  0
 32 34  2  0
 34 35  1  0
 34 36  1  0
 36 37  2  0
 19  3  1  0
 37 22  1  0
 13  5  1  0
 37 29  1  0
M  END
>  <cnnaffinity>  (1) 
-6.45481

>  <filename>  (1) 
C(=C1CCN=C1c1cccnc1)c1cccc2cccnc12

$$$$
