
     RDKit          3D

 27 28  0  0  0  0  0  0  0  0999 V2000
    5.9748   -0.8545   22.1581 H   0  0  0  0  0  0  0  0  0  0  0  0
    7.0365   -1.0152   21.9260 C   0  0  0  0  0  0  0  0  0  0  0  0
    7.4915   -0.6737   20.7896 N   0  0  0  0  0  0  0  0  0  0  0  0
    6.6759   -0.0017   19.8506 C   0  0  0  0  0  0  0  0  0  0  0  0
    7.1583    0.0509   18.5257 C   0  0  0  0  0  0  0  0  0  0  0  0
    8.1038   -0.4503   18.3348 H   0  0  0  0  0  0  0  0  0  0  0  0
    6.5459    0.6779   17.5185 N   0  0  0  0  0  0  0  0  0  0  0  0
    5.3903    1.3130   17.7969 C   0  0  0  0  0  0  0  0  0  0  0  0
    4.9264    1.8537   16.9729 H   0  0  0  0  0  0  0  0  0  0  0  0
    4.8087    1.3048   19.0679 C   0  0  0  0  0  0  0  0  0  0  0  0
    3.8700    1.8276   19.2252 H   0  0  0  0  0  0  0  0  0  0  0  0
    5.4542    0.6443   20.1201 C   0  0  0  0  0  0  0  0  0  0  0  0
    5.0388    0.6748   21.1288 H   0  0  0  0  0  0  0  0  0  0  0  0
    7.8655   -1.6943   22.9956 C   0  0  0  0  0  0  0  0  0  0  0  0
    7.1580   -1.9075   23.7959 H   0  0  0  0  0  0  0  0  0  0  0  0
    9.0473   -0.8485   23.5077 C   0  0  0  0  0  0  0  0  0  0  0  0
    8.7767    0.2020   23.6564 H   0  0  0  0  0  0  0  0  0  0  0  0
    9.3688   -1.2335   24.4829 H   0  0  0  0  0  0  0  0  0  0  0  0
   10.1640   -1.0723   22.4785 C   0  0  0  0  0  0  0  0  0  0  0  0
   11.1611   -0.9390   22.9190 H   0  0  0  0  0  0  0  0  0  0  0  0
   10.0631   -0.3429   21.6749 H   0  0  0  0  0  0  0  0  0  0  0  0
    9.9327   -2.4979   21.9396 C   0  0  0  0  0  0  0  0  0  0  0  0
   10.7288   -3.1618   22.2773 H   0  0  0  0  0  0  0  0  0  0  0  0
    9.9322   -2.5312   20.8453 H   0  0  0  0  0  0  0  0  0  0  0  0
    8.5759   -2.9725   22.5026 C   0  0  0  0  0  0  0  0  0  0  0  0
    8.7225   -3.6688   23.3408 H   0  0  0  0  0  0  0  0  0  0  0  0
    7.9770   -3.4950   21.7538 H   0  0  0  0  0  0  0  0  0  0  0  0
  1  2  1  0
  2  3  2  3
  3  4  1  0
  4  5  2  0
  5  6  1  0
  5  7  1  0
  7  8  2  0
  8  9  1  0
  8 10  1  0
 10 11  1  0
 10 12  2  0
 12 13  1  0
  2 14  1  0
 14 15  1  0
 14 16  1  0
 16 17  1  0
 16 18  1  0
 16 19  1  0
 19 20  1  0
 19 21  1  0
 19 22  1  0
 22 23  1  0
 22 24  1  0
 22 25  1  0
 25 26  1  0
 25 27  1  0
 12  4  1  0
 25 14  1  0
M  END
>  <cnnaffinity>  (1) 
-4.40106

>  <filename>  (1) 
C(=Nc1cccnc1)C1CCCC1

$$$$
