
     RDKit          3D

 46 49  0  0  0  0  0  0  0  0999 V2000
    8.2508   -4.5214   25.9658 C   0  0  0  0  0  0  0  0  0  0  0  0
    7.5960   -3.3746   26.1406 C   0  0  0  0  0  0  0  0  0  0  0  0
    7.6412   -2.3202   25.0532 C   0  0  0  0  0  0  0  0  0  0  0  0
    7.4025   -2.9774   23.6570 C   0  0  0  0  0  0  0  0  0  0  0  0
    7.6221   -1.9958   22.5490 C   0  0  0  0  0  0  0  0  0  0  0  0
    6.6702   -1.5500   21.7585 N   0  0  0  0  0  0  0  0  0  0  0  0
    7.3300   -0.6879   20.9390 N   0  0  0  0  0  0  0  0  0  0  0  0
    6.6504    0.0024   19.9015 C   0  0  0  0  0  0  0  0  0  0  0  0
    5.4356    0.6458   20.1654 C   0  0  0  0  0  0  0  0  0  0  0  0
    4.8118    1.3119   19.1085 C   0  0  0  0  0  0  0  0  0  0  0  0
    5.4011    1.2955   17.8369 C   0  0  0  0  0  0  0  0  0  0  0  0
    6.5592    0.6716   17.5769 N   0  0  0  0  0  0  0  0  0  0  0  0
    7.1660    0.0506   18.5930 C   0  0  0  0  0  0  0  0  0  0  0  0
    8.1136   -0.4298   18.3644 H   0  0  0  0  0  0  0  0  0  0  0  0
    4.9211    1.7849   16.9926 H   0  0  0  0  0  0  0  0  0  0  0  0
    3.8800    1.8407   19.2597 H   0  0  0  0  0  0  0  0  0  0  0  0
    5.0167    0.6088   21.1740 H   0  0  0  0  0  0  0  0  0  0  0  0
    8.6327   -0.6228   21.3420 C   0  0  0  0  0  0  0  0  0  0  0  0
    9.6576    0.2382   20.6861 C   0  0  0  0  0  0  0  0  0  0  0  0
   10.7340    0.7140   21.6244 C   0  0  0  0  0  0  0  0  0  0  0  0
   11.7391   -0.0855   21.9826 C   0  0  0  0  0  0  0  0  0  0  0  0
   12.7245    0.3350   23.0471 C   0  0  0  0  0  0  0  0  0  0  0  0
   12.7711    1.7414   23.2183 O   0  0  0  0  0  0  0  0  0  0  0  0
   11.4792    2.2753   23.4586 C   0  0  0  0  0  0  0  0  0  0  0  0
   10.5796    2.0943   22.2299 C   0  0  0  0  0  0  0  0  0  0  0  0
   10.8531    2.8330   21.4681 H   0  0  0  0  0  0  0  0  0  0  0  0
    9.5366    2.2930   22.5022 H   0  0  0  0  0  0  0  0  0  0  0  0
   11.0352    1.7801   24.3392 H   0  0  0  0  0  0  0  0  0  0  0  0
   11.6140    3.3330   23.6979 H   0  0  0  0  0  0  0  0  0  0  0  0
   12.4621   -0.1387   24.0097 H   0  0  0  0  0  0  0  0  0  0  0  0
   13.7329    0.0103   22.7869 H   0  0  0  0  0  0  0  0  0  0  0  0
   11.8163   -1.0924   21.5807 H   0  0  0  0  0  0  0  0  0  0  0  0
    9.1761    1.0929   20.2073 H   0  0  0  0  0  0  0  0  0  0  0  0
   10.0670   -0.4070   19.8999 H   0  0  0  0  0  0  0  0  0  0  0  0
    8.8519   -1.4827   22.3112 N   0  0  0  0  0  0  0  0  0  0  0  0
    8.2173   -4.2996   23.4462 C   0  0  0  0  0  0  0  0  0  0  0  0
    9.0354   -4.7365   24.6852 C   0  0  0  0  0  0  0  0  0  0  0  0
    9.9661   -4.1481   24.7193 H   0  0  0  0  0  0  0  0  0  0  0  0
    9.3439   -5.7806   24.5879 H   0  0  0  0  0  0  0  0  0  0  0  0
    8.8882   -4.2207   22.5833 H   0  0  0  0  0  0  0  0  0  0  0  0
    7.5037   -5.0978   23.2100 H   0  0  0  0  0  0  0  0  0  0  0  0
    6.3424   -3.2246   23.6029 H   0  0  0  0  0  0  0  0  0  0  0  0
    8.6218   -1.8194   25.0446 H   0  0  0  0  0  0  0  0  0  0  0  0
    6.8965   -1.5414   25.2415 H   0  0  0  0  0  0  0  0  0  0  0  0
    7.0240   -3.1866   27.0505 H   0  0  0  0  0  0  0  0  0  0  0  0
    8.2338   -5.3026   26.7286 H   0  0  0  0  0  0  0  0  0  0  0  0
  1  2  2  0
  2  3  1  0
  3  4  1  0
  4  5  1  0
  5  6  2  0
  6  7  1  0
  7  8  1  0
  8  9  2  0
  9 10  1  0
 10 11  2  0
 11 12  1  0
 12 13  2  0
 13 14  1  0
 11 15  1  0
 10 16  1  0
  9 17  1  0
  7 18  1  0
 18 19  1  0
 19 20  1  0
 20 21  2  0
 21 22  1  0
 22 23  1  0
 23 24  1  0
 24 25  1  0
 25 26  1  0
 25 27  1  0
 24 28  1  0
 24 29  1  0
 22 30  1  0
 22 31  1  0
 21 32  1  0
 19 33  1  0
 19 34  1  0
 18 35  2  0
  4 36  1  0
 36 37  1  0
 37 38  1  0
 37 39  1  0
 36 40  1  0
 36 41  1  0
  4 42  1  0
  3 43  1  0
  3 44  1  0
  2 45  1  0
  1 46  1  0
 37  1  1  0
 35  5  1  0
 13  8  1  0
 25 20  1  0
M  END
>  <cnnaffinity>  (1) 
-6.5032

>  <filename>  (1) 
C1=CCC(c2nc(CC3=CCOCC3)n(-c3cccnc3)n2)CC1

$$$$
