
     RDKit          3D

 46 50  0  0  0  0  0  0  0  0999 V2000
    4.3493   -3.6675   24.4085 C   0  0  0  0  0  0  0  0  0  0  0  0
    4.8448   -4.3329   23.3663 C   0  0  0  0  0  0  0  0  0  0  0  0
    6.3463   -4.4495   23.2108 C   0  0  0  0  0  0  0  0  0  0  0  0
    7.0932   -3.1173   23.5143 C   0  0  0  0  0  0  0  0  0  0  0  0
    7.2250   -2.2189   22.3041 C   0  0  0  0  0  0  0  0  0  0  0  0
    6.2381   -1.8432   21.5127 N   0  0  0  0  0  0  0  0  0  0  0  0
    6.8609   -1.0358   20.6149 N   0  0  0  0  0  0  0  0  0  0  0  0
    6.1348   -0.3291   19.6167 C   0  0  0  0  0  0  0  0  0  0  0  0
    5.0669    0.5097   19.9524 C   0  0  0  0  0  0  0  0  0  0  0  0
    4.5873    1.3787   18.9659 C   0  0  0  0  0  0  0  0  0  0  0  0
    5.1614    1.3460   17.6875 C   0  0  0  0  0  0  0  0  0  0  0  0
    6.1110    0.4657   17.3362 N   0  0  0  0  0  0  0  0  0  0  0  0
    6.5508   -0.3776   18.2741 C   0  0  0  0  0  0  0  0  0  0  0  0
    7.2834   -1.1154   17.9522 H   0  0  0  0  0  0  0  0  0  0  0  0
    4.8550    2.0516   16.9193 H   0  0  0  0  0  0  0  0  0  0  0  0
    3.8070    2.1002   19.1836 H   0  0  0  0  0  0  0  0  0  0  0  0
    4.6652    0.4959   20.9667 H   0  0  0  0  0  0  0  0  0  0  0  0
    8.1854   -0.9252   20.9505 C   0  0  0  0  0  0  0  0  0  0  0  0
    9.2052   -0.1045   20.2065 C   0  0  0  0  0  0  0  0  0  0  0  0
   10.2713    0.4898   21.1158 C   0  0  0  0  0  0  0  0  0  0  0  0
   11.4298   -0.2648   21.4852 C   0  0  0  0  0  0  0  0  0  0  0  0
   12.3659    0.2064   22.3995 C   0  0  0  0  0  0  0  0  0  0  0  0
   12.0914    1.4646   22.9771 C   0  0  0  0  0  0  0  0  0  0  0  0
   12.6806    2.2298   23.9294 N   0  0  0  0  0  0  0  0  0  0  0  0
   11.9843    3.3691   24.1416 N   0  0  0  0  0  0  0  0  0  0  0  0
   10.9628    3.3827   23.3697 N   0  0  0  0  0  0  0  0  0  0  0  0
   10.9645    2.2211   22.6255 C   0  0  0  0  0  0  0  0  0  0  0  0
   10.0679    1.7544   21.6466 C   0  0  0  0  0  0  0  0  0  0  0  0
    9.2693    2.4233   21.3386 H   0  0  0  0  0  0  0  0  0  0  0  0
   13.4870    2.0429   24.4980 H   0  0  0  0  0  0  0  0  0  0  0  0
   13.2733   -0.3465   22.6339 H   0  0  0  0  0  0  0  0  0  0  0  0
   11.5647   -1.2554   21.0518 H   0  0  0  0  0  0  0  0  0  0  0  0
    8.7057    0.6926   19.6428 H   0  0  0  0  0  0  0  0  0  0  0  0
    9.6504   -0.7663   19.4594 H   0  0  0  0  0  0  0  0  0  0  0  0
    8.4358   -1.6971   21.9885 N   0  0  0  0  0  0  0  0  0  0  0  0
    6.4991   -2.3381   24.7430 C   0  0  0  0  0  0  0  0  0  0  0  0
    5.2797   -3.0172   25.4158 C   0  0  0  0  0  0  0  0  0  0  0  0
    4.7385   -2.2745   26.0111 H   0  0  0  0  0  0  0  0  0  0  0  0
    5.6324   -3.7874   26.1209 H   0  0  0  0  0  0  0  0  0  0  0  0
    7.2886   -2.1932   25.4924 H   0  0  0  0  0  0  0  0  0  0  0  0
    6.1947   -1.3310   24.4281 H   0  0  0  0  0  0  0  0  0  0  0  0
    8.1300   -3.3793   23.7375 H   0  0  0  0  0  0  0  0  0  0  0  0
    6.7000   -5.1940   23.9456 H   0  0  0  0  0  0  0  0  0  0  0  0
    6.6233   -4.8329   22.2242 H   0  0  0  0  0  0  0  0  0  0  0  0
    4.1927   -4.8461   22.6570 H   0  0  0  0  0  0  0  0  0  0  0  0
    3.2737   -3.6278   24.5825 H   0  0  0  0  0  0  0  0  0  0  0  0
  1  2  2  0
  2  3  1  0
  3  4  1  0
  4  5  1  0
  5  6  2  0
  6  7  1  0
  7  8  1  0
  8  9  2  0
  9 10  1  0
 10 11  2  0
 11 12  1  0
 12 13  2  0
 13 14  1  0
 11 15  1  0
 10 16  1  0
  9 17  1  0
  7 18  1  0
 18 19  1  0
 19 20  1  0
 20 21  2  0
 21 22  1  0
 22 23  2  0
 23 24  1  0
 24 25  1  0
 25 26  2  0
 26 27  1  0
 27 28  2  0
 28 29  1  0
 24 30  1  0
 22 31  1  0
 21 32  1  0
 19 33  1  0
 19 34  1  0
 18 35  2  0
  4 36  1  0
 36 37  1  0
 37 38  1  0
 37 39  1  0
 36 40  1  0
 36 41  1  0
  4 42  1  0
  3 43  1  0
  3 44  1  0
  2 45  1  0
  1 46  1  0
 37  1  1  0
 35  5  1  0
 13  8  1  0
 28 20  1  0
 27 23  1  0
M  END
>  <cnnaffinity>  (1) 
-6.58572

>  <filename>  (1) 
C1=CCC(c2nc(Cc3ccc4[nH]nnc4c3)n(-c3cccnc3)n2)CC1

$$$$
