
     RDKit          3D

 36 39  0  0  0  0  0  0  0  0999 V2000
    6.6972    0.4032   22.7640 H   0  0  0  0  0  0  0  0  0  0  0  0
    7.3231   -0.3559   22.2992 C   0  0  0  0  0  0  0  0  0  0  0  0
    7.4320   -0.5944   20.9910 C   0  0  0  0  0  0  0  0  0  0  0  0
    6.6735    0.0486   19.9026 C   0  0  0  0  0  0  0  0  0  0  0  0
    7.1572    0.0657   18.5790 C   0  0  0  0  0  0  0  0  0  0  0  0
    8.1021   -0.4214   18.3395 H   0  0  0  0  0  0  0  0  0  0  0  0
    6.5458    0.6704   17.5545 N   0  0  0  0  0  0  0  0  0  0  0  0
    5.3886    1.3004   17.8118 C   0  0  0  0  0  0  0  0  0  0  0  0
    4.9215    1.8094   16.9698 H   0  0  0  0  0  0  0  0  0  0  0  0
    4.7909    1.3142   19.0778 C   0  0  0  0  0  0  0  0  0  0  0  0
    3.8591    1.8503   19.2289 H   0  0  0  0  0  0  0  0  0  0  0  0
    5.4335    0.6690   20.1332 C   0  0  0  0  0  0  0  0  0  0  0  0
    4.9875    0.6367   21.1278 H   0  0  0  0  0  0  0  0  0  0  0  0
    8.3161   -1.7948   20.7359 C   0  0  0  0  0  0  0  0  0  0  0  0
    9.1749   -1.5628   20.0953 H   0  0  0  0  0  0  0  0  0  0  0  0
    7.6750   -2.5191   20.2338 H   0  0  0  0  0  0  0  0  0  0  0  0
    8.7036   -2.3373   22.1245 C   0  0  0  0  0  0  0  0  0  0  0  0
    9.7784   -2.4976   22.2619 H   0  0  0  0  0  0  0  0  0  0  0  0
    8.2405   -3.3205   22.2728 H   0  0  0  0  0  0  0  0  0  0  0  0
    8.1326   -1.3069   23.1461 C   0  0  2  0  0  0  0  0  0  0  0  0
    8.9547   -0.7416   23.6103 H   0  0  0  0  0  0  0  0  0  0  0  0
    7.3163   -1.9541   24.2504 C   0  0  0  0  0  0  0  0  0  0  0  0
    7.7881   -1.9308   25.5841 C   0  0  0  0  0  0  0  0  0  0  0  0
    8.7374   -1.4363   25.7820 H   0  0  0  0  0  0  0  0  0  0  0  0
    7.0713   -2.5223   26.6164 C   0  0  0  0  0  0  0  0  0  0  0  0
    7.4606   -2.4838   27.6262 H   0  0  0  0  0  0  0  0  0  0  0  0
    5.8552   -3.1542   26.2899 C   0  0  0  0  0  0  0  0  0  0  0  0
    5.3570   -3.2067   24.9618 C   0  0  0  0  0  0  0  0  0  0  0  0
    6.1160   -2.5974   23.9431 C   0  0  0  0  0  0  0  0  0  0  0  0
    5.7701   -2.5892   22.9129 H   0  0  0  0  0  0  0  0  0  0  0  0
    4.1060   -3.9178   25.0100 C   0  0  0  0  0  0  0  0  0  0  0  0
    3.4491   -4.1379   24.1753 H   0  0  0  0  0  0  0  0  0  0  0  0
    3.8988   -4.2578   26.3148 C   0  0  0  0  0  0  0  0  0  0  0  0
    3.0816   -4.7996   26.7720 H   0  0  0  0  0  0  0  0  0  0  0  0
    4.9460   -3.8018   27.0894 N   0  0  0  0  0  0  0  0  0  0  0  0
    5.0483   -3.9176   28.0819 H   0  0  0  0  0  0  0  0  0  0  0  0
  1  2  1  0
  2  3  2  0
  3  4  1  0
  4  5  2  0
  5  6  1  0
  5  7  1  0
  7  8  2  0
  8  9  1  0
  8 10  1  0
 10 11  1  0
 10 12  2  0
 12 13  1  0
  3 14  1  0
 14 15  1  0
 14 16  1  0
 14 17  1  0
 17 18  1  0
 17 19  1  0
 17 20  1  0
 20 21  1  1
 20 22  1  0
 22 23  2  0
 23 24  1  0
 23 25  1  0
 25 26  1  0
 25 27  2  0
 27 28  1  0
 28 29  2  0
 29 30  1  0
 28 31  1  0
 31 32  1  0
 31 33  2  0
 33 34  1  0
 33 35  1  0
 35 36  1  0
 20  2  1  0
 29 22  1  0
 12  4  1  0
 35 27  1  0
M  END
>  <cnnaffinity>  (1) 
-4.89727

>  <filename>  (1) 
C1=C(c2cccnc2)CC[C@@H]1c1ccc2[nH]ccc2c1

$$$$
