
     RDKit          3D

 45 48  0  0  0  0  0  0  0  0999 V2000
    5.3898   -4.6584   22.1990 C   0  0  0  0  0  0  0  0  0  0  0  0
    5.0342   -3.8479   23.2018 C   0  0  0  0  0  0  0  0  0  0  0  0
    6.0294   -3.1647   24.1173 C   0  0  0  0  0  0  0  0  0  0  0  0
    7.4604   -3.1337   23.5251 C   0  0  0  0  0  0  0  0  0  0  0  0
    7.6469   -2.0483   22.4942 C   0  0  0  0  0  0  0  0  0  0  0  0
    6.7141   -1.6238   21.6647 N   0  0  0  0  0  0  0  0  0  0  0  0
    7.3599   -0.6844   20.9306 N   0  0  0  0  0  0  0  0  0  0  0  0
    6.6632    0.0019   19.8975 C   0  0  0  0  0  0  0  0  0  0  0  0
    5.4466    0.6387   20.1635 C   0  0  0  0  0  0  0  0  0  0  0  0
    4.8130    1.3091   19.1109 C   0  0  0  0  0  0  0  0  0  0  0  0
    5.3946    1.2960   17.8394 C   0  0  0  0  0  0  0  0  0  0  0  0
    6.5462    0.6645   17.5741 N   0  0  0  0  0  0  0  0  0  0  0  0
    7.1623    0.0388   18.5828 C   0  0  0  0  0  0  0  0  0  0  0  0
    8.1022   -0.4521   18.3376 H   0  0  0  0  0  0  0  0  0  0  0  0
    4.9287    1.8017   16.9965 H   0  0  0  0  0  0  0  0  0  0  0  0
    3.8809    1.8380   19.2580 H   0  0  0  0  0  0  0  0  0  0  0  0
    5.0244    0.5985   21.1690 H   0  0  0  0  0  0  0  0  0  0  0  0
    8.6370   -0.5629   21.3995 C   0  0  0  0  0  0  0  0  0  0  0  0
    9.5949    0.4853   20.9546 C   0  0  0  0  0  0  0  0  0  0  0  0
    9.7905    1.8731   22.1119 S   0  0  0  0  0  0  0  0  0  0  0  0
    8.1010    2.5683   21.9557 C   0  0  0  0  0  0  0  0  0  0  0  0
    7.9519    3.8025   22.7693 C   0  0  0  0  0  0  0  0  0  0  0  0
    7.4570    3.8596   23.9812 N   0  0  0  0  0  0  0  0  0  0  0  0
    7.6018    5.1598   24.3866 C   0  0  0  0  0  0  0  0  0  0  0  0
    8.1835    5.9063   23.3983 C   0  0  0  0  0  0  0  0  0  0  0  0
    8.3955    5.0227   22.3577 N   0  0  0  0  0  0  0  0  0  0  0  0
    8.8547    5.1868   21.4704 H   0  0  0  0  0  0  0  0  0  0  0  0
    8.4392    6.9538   23.3367 H   0  0  0  0  0  0  0  0  0  0  0  0
    7.2815    5.4474   25.3836 H   0  0  0  0  0  0  0  0  0  0  0  0
    7.9283    2.7616   20.8960 H   0  0  0  0  0  0  0  0  0  0  0  0
    7.3492    1.8431   22.2819 H   0  0  0  0  0  0  0  0  0  0  0  0
    9.2865    0.8760   19.9874 H   0  0  0  0  0  0  0  0  0  0  0  0
   10.5847    0.0372   20.8580 H   0  0  0  0  0  0  0  0  0  0  0  0
    8.8527   -1.4463   22.3503 N   0  0  0  0  0  0  0  0  0  0  0  0
    7.8217   -4.5193   22.9306 C   0  0  0  0  0  0  0  0  0  0  0  0
    6.8334   -4.9179   21.8153 C   0  0  0  0  0  0  0  0  0  0  0  0
    6.9592   -5.9779   21.5621 H   0  0  0  0  0  0  0  0  0  0  0  0
    7.0574   -4.3629   20.8902 H   0  0  0  0  0  0  0  0  0  0  0  0
    7.7973   -5.2595   23.7431 H   0  0  0  0  0  0  0  0  0  0  0  0
    8.8515   -4.4991   22.5546 H   0  0  0  0  0  0  0  0  0  0  0  0
    8.1836   -2.8728   24.3036 H   0  0  0  0  0  0  0  0  0  0  0  0
    5.6866   -2.1483   24.3466 H   0  0  0  0  0  0  0  0  0  0  0  0
    6.0526   -3.6849   25.0896 H   0  0  0  0  0  0  0  0  0  0  0  0
    3.9810   -3.6458   23.3990 H   0  0  0  0  0  0  0  0  0  0  0  0
    4.6230   -5.1391   21.5889 H   0  0  0  0  0  0  0  0  0  0  0  0
  1  2  2  0
  2  3  1  0
  3  4  1  0
  4  5  1  0
  5  6  2  0
  6  7  1  0
  7  8  1  0
  8  9  2  0
  9 10  1  0
 10 11  2  0
 11 12  1  0
 12 13  2  0
 13 14  1  0
 11 15  1  0
 10 16  1  0
  9 17  1  0
  7 18  1  0
 18 19  1  0
 19 20  1  0
 20 21  1  0
 21 22  1  0
 22 23  2  0
 23 24  1  0
 24 25  2  0
 25 26  1  0
 26 27  1  0
 25 28  1  0
 24 29  1  0
 21 30  1  0
 21 31  1  0
 19 32  1  0
 19 33  1  0
 18 34  2  0
  4 35  1  0
 35 36  1  0
 36 37  1  0
 36 38  1  0
 35 39  1  0
 35 40  1  0
  4 41  1  0
  3 42  1  0
  3 43  1  0
  2 44  1  0
  1 45  1  0
 36  1  1  0
 34  5  1  0
 13  8  1  0
 26 22  1  0
M  END
>  <cnnaffinity>  (1) 
-5.98736

>  <filename>  (1) 
C1=CCC(c2nc(CSCc3ncc[nH]3)n(-c3cccnc3)n2)CC1

$$$$
