
     RDKit          3D

 47 51  0  0  0  0  0  0  0  0999 V2000
    7.8401   -4.8822   25.7805 C   0  0  0  0  0  0  0  0  0  0  0  0
    8.0931   -5.3186   24.5469 C   0  0  0  0  0  0  0  0  0  0  0  0
    7.9923   -4.4453   23.3209 C   0  0  0  0  0  0  0  0  0  0  0  0
    7.1845   -3.1378   23.5702 C   0  0  0  0  0  0  0  0  0  0  0  0
    7.2829   -2.2169   22.3830 C   0  0  0  0  0  0  0  0  0  0  0  0
    6.2600   -1.7552   21.6845 N   0  0  0  0  0  0  0  0  0  0  0  0
    6.8579   -1.0292   20.7021 N   0  0  0  0  0  0  0  0  0  0  0  0
    6.1265   -0.3468   19.6839 C   0  0  0  0  0  0  0  0  0  0  0  0
    5.0446    0.4856   20.0000 C   0  0  0  0  0  0  0  0  0  0  0  0
    4.5820    1.3681   19.0166 C   0  0  0  0  0  0  0  0  0  0  0  0
    5.1794    1.3525   17.7486 C   0  0  0  0  0  0  0  0  0  0  0  0
    6.1235    0.4634   17.4007 N   0  0  0  0  0  0  0  0  0  0  0  0
    6.5475   -0.3911   18.3376 C   0  0  0  0  0  0  0  0  0  0  0  0
    7.2782   -1.1315   18.0134 H   0  0  0  0  0  0  0  0  0  0  0  0
    4.8721    2.0572   16.9781 H   0  0  0  0  0  0  0  0  0  0  0  0
    3.7891    2.0839   19.2216 H   0  0  0  0  0  0  0  0  0  0  0  0
    4.5978    0.4459   20.9933 H   0  0  0  0  0  0  0  0  0  0  0  0
    8.2099   -1.0406   20.9082 C   0  0  0  0  0  0  0  0  0  0  0  0
    9.1998   -0.2421   20.1124 C   0  0  0  0  0  0  0  0  0  0  0  0
   10.2547    0.3629   21.0160 C   0  0  0  0  0  0  0  0  0  0  0  0
   11.4709   -0.3218   21.3097 C   0  0  0  0  0  0  0  0  0  0  0  0
   12.3636    0.1655   22.2506 C   0  0  0  0  0  0  0  0  0  0  0  0
   12.0169    1.3393   22.9671 C   0  0  0  0  0  0  0  0  0  0  0  0
   12.5560    2.0857   24.0610 C   0  0  0  0  0  0  0  0  0  0  0  0
   11.8036    3.1288   24.3522 N   0  0  0  0  0  0  0  0  0  0  0  0
   10.7619    3.0841   23.4903 N   0  0  0  0  0  0  0  0  0  0  0  0
   10.8318    2.0320   22.6343 C   0  0  0  0  0  0  0  0  0  0  0  0
    9.9515    1.5642   21.6371 C   0  0  0  0  0  0  0  0  0  0  0  0
    9.0531    2.1079   21.3629 H   0  0  0  0  0  0  0  0  0  0  0  0
   10.0703    3.8193   23.4955 H   0  0  0  0  0  0  0  0  0  0  0  0
   13.4484    1.8528   24.6296 H   0  0  0  0  0  0  0  0  0  0  0  0
   13.3086   -0.3349   22.4378 H   0  0  0  0  0  0  0  0  0  0  0  0
   11.6850   -1.2615   20.8041 H   0  0  0  0  0  0  0  0  0  0  0  0
    8.6675    0.5604   19.5943 H   0  0  0  0  0  0  0  0  0  0  0  0
    9.6192   -0.8821   19.3323 H   0  0  0  0  0  0  0  0  0  0  0  0
    8.4990   -1.8177   21.9281 N   0  0  0  0  0  0  0  0  0  0  0  0
    7.6877   -2.4983   24.8949 C   0  0  0  0  0  0  0  0  0  0  0  0
    7.4745   -3.4499   26.0922 C   0  0  0  0  0  0  0  0  0  0  0  0
    8.0631   -3.1107   26.9547 H   0  0  0  0  0  0  0  0  0  0  0  0
    6.4259   -3.4167   26.4227 H   0  0  0  0  0  0  0  0  0  0  0  0
    8.7598   -2.2770   24.7904 H   0  0  0  0  0  0  0  0  0  0  0  0
    7.1866   -1.5419   25.0854 H   0  0  0  0  0  0  0  0  0  0  0  0
    6.1185   -3.3713   23.6710 H   0  0  0  0  0  0  0  0  0  0  0  0
    9.0097   -4.1721   23.0024 H   0  0  0  0  0  0  0  0  0  0  0  0
    7.5611   -5.0186   22.4912 H   0  0  0  0  0  0  0  0  0  0  0  0
    8.4360   -6.3415   24.3959 H   0  0  0  0  0  0  0  0  0  0  0  0
    7.8881   -5.5785   26.6196 H   0  0  0  0  0  0  0  0  0  0  0  0
  1  2  2  0
  2  3  1  0
  3  4  1  0
  4  5  1  0
  5  6  2  0
  6  7  1  0
  7  8  1  0
  8  9  2  0
  9 10  1  0
 10 11  2  0
 11 12  1  0
 12 13  2  0
 13 14  1  0
 11 15  1  0
 10 16  1  0
  9 17  1  0
  7 18  1  0
 18 19  1  0
 19 20  1  0
 20 21  2  0
 21 22  1  0
 22 23  2  0
 23 24  1  0
 24 25  2  0
 25 26  1  0
 26 27  1  0
 27 28  2  0
 28 29  1  0
 26 30  1  0
 24 31  1  0
 22 32  1  0
 21 33  1  0
 19 34  1  0
 19 35  1  0
 18 36  2  0
  4 37  1  0
 37 38  1  0
 38 39  1  0
 38 40  1  0
 37 41  1  0
 37 42  1  0
  4 43  1  0
  3 44  1  0
  3 45  1  0
  2 46  1  0
  1 47  1  0
 38  1  1  0
 36  5  1  0
 13  8  1  0
 28 20  1  0
 27 23  1  0
M  END
>  <cnnaffinity>  (1) 
-6.75939

>  <filename>  (1) 
C1=CCC(c2nc(Cc3ccc4cn[nH]c4c3)n(-c3cccnc3)n2)CC1

$$$$
