
     RDKit          3D

 33 35  0  0  0  0  0  0  0  0999 V2000
    5.6602   -1.8094   21.5137 H   0  0  0  0  0  0  0  0  0  0  0  0
    6.7088   -1.5865   21.7101 C   0  0  0  0  0  0  0  0  0  0  0  0
    7.3512   -0.6757   20.9621 C   0  0  0  0  0  0  0  0  0  0  0  0
    6.6390    0.0371   19.8667 C   0  0  0  0  0  0  0  0  0  0  0  0
    7.1645    0.0888   18.5626 C   0  0  0  0  0  0  0  0  0  0  0  0
    8.1075   -0.4121   18.3435 H   0  0  0  0  0  0  0  0  0  0  0  0
    6.5764    0.7046   17.5272 N   0  0  0  0  0  0  0  0  0  0  0  0
    5.4138    1.3293   17.7685 C   0  0  0  0  0  0  0  0  0  0  0  0
    4.9550    1.8389   16.9236 H   0  0  0  0  0  0  0  0  0  0  0  0
    4.7931    1.3422   19.0222 C   0  0  0  0  0  0  0  0  0  0  0  0
    3.8559    1.8686   19.1525 H   0  0  0  0  0  0  0  0  0  0  0  0
    5.4066    0.6796   20.0845 C   0  0  0  0  0  0  0  0  0  0  0  0
    4.9640    0.6795   21.0825 H   0  0  0  0  0  0  0  0  0  0  0  0
    8.7938   -0.2672   21.2542 C   0  0  0  0  0  0  0  0  0  0  0  0
    9.3252   -0.0872   20.3123 H   0  0  0  0  0  0  0  0  0  0  0  0
    8.7686    0.7052   21.7717 H   0  0  0  0  0  0  0  0  0  0  0  0
    9.5520   -1.2957   22.1132 C   0  0  0  0  0  0  0  0  0  0  0  0
   10.4980   -0.8714   22.4676 H   0  0  0  0  0  0  0  0  0  0  0  0
    9.8068   -2.1614   21.4848 H   0  0  0  0  0  0  0  0  0  0  0  0
    8.6851   -1.7399   23.3098 C   0  0  2  0  0  0  0  0  0  0  0  0
    8.4356   -0.8425   23.8883 H   0  0  0  0  0  0  0  0  0  0  0  0
    9.3645   -2.6582   24.2321 N   0  0  0  0  0  0  0  0  0  0  0  0
    9.9498   -3.8331   23.8398 C   0  0  0  0  0  0  0  0  0  0  0  0
   10.0785   -4.0354   22.7926 H   0  0  0  0  0  0  0  0  0  0  0  0
   10.2734   -4.5655   24.9496 C   0  0  0  0  0  0  0  0  0  0  0  0
   10.7633   -5.5323   24.9700 H   0  0  0  0  0  0  0  0  0  0  0  0
    9.8447   -3.8156   26.0744 C   0  0  0  0  0  0  0  0  0  0  0  0
    9.9170   -4.1173   27.1112 H   0  0  0  0  0  0  0  0  0  0  0  0
    9.2881   -2.6541   25.6062 C   0  0  0  0  0  0  0  0  0  0  0  0
    8.8629   -1.8254   26.1559 H   0  0  0  0  0  0  0  0  0  0  0  0
    7.3702   -2.3769   22.8054 C   0  0  0  0  0  0  0  0  0  0  0  0
    6.6817   -2.5134   23.6452 H   0  0  0  0  0  0  0  0  0  0  0  0
    7.5857   -3.3856   22.4219 H   0  0  0  0  0  0  0  0  0  0  0  0
  1  2  1  0
  2  3  2  0
  3  4  1  0
  4  5  2  0
  5  6  1  0
  5  7  1  0
  7  8  2  0
  8  9  1  0
  8 10  1  0
 10 11  1  0
 10 12  2  0
 12 13  1  0
  3 14  1  0
 14 15  1  0
 14 16  1  0
 14 17  1  0
 17 18  1  0
 17 19  1  0
 17 20  1  0
 20 21  1  1
 20 22  1  0
 22 23  1  0
 23 24  1  0
 23 25  2  0
 25 26  1  0
 25 27  1  0
 27 28  1  0
 27 29  2  0
 29 30  1  0
 20 31  1  0
 31 32  1  0
 31 33  1  0
 31  2  1  0
 12  4  1  0
 29 22  1  0
M  END
>  <cnnaffinity>  (1) 
-4.82772

>  <filename>  (1) 
C1=C(c2cccnc2)CC[C@H](n2cccc2)C1

$$$$
