
     RDKit          3D

 36 39  0  0  0  0  0  0  0  0999 V2000
    6.0987   -2.5768   21.2798 H   0  0  0  0  0  0  0  0  0  0  0  0
    6.6095   -1.7719   21.8019 C   0  0  0  0  0  0  0  0  0  0  0  0
    6.5373   -1.5812   23.1342 C   0  0  0  0  0  0  0  0  0  0  0  0
    5.7928   -2.4340   24.0944 C   0  0  0  0  0  0  0  0  0  0  0  0
    4.9963   -1.8789   25.1166 C   0  0  0  0  0  0  0  0  0  0  0  0
    5.0801   -0.8116   25.3123 H   0  0  0  0  0  0  0  0  0  0  0  0
    4.0151   -2.6406   25.7879 C   0  0  0  0  0  0  0  0  0  0  0  0
    3.3298   -2.1453   26.4753 H   0  0  0  0  0  0  0  0  0  0  0  0
    3.8958   -4.0111   25.5726 C   0  0  0  0  0  0  0  0  0  0  0  0
    3.1412   -4.6075   26.0814 H   0  0  0  0  0  0  0  0  0  0  0  0
    4.8088   -4.6080   24.6919 C   0  0  0  0  0  0  0  0  0  0  0  0
    5.7308   -3.8509   23.9244 C   0  0  0  0  0  0  0  0  0  0  0  0
    6.4379   -4.8010   23.1121 C   0  0  0  0  0  0  0  0  0  0  0  0
    7.2181   -4.5370   22.4110 H   0  0  0  0  0  0  0  0  0  0  0  0
    5.9766   -6.0476   23.4182 C   0  0  0  0  0  0  0  0  0  0  0  0
    6.2455   -7.0079   22.9945 H   0  0  0  0  0  0  0  0  0  0  0  0
    4.9961   -5.9346   24.3804 N   0  0  0  0  0  0  0  0  0  0  0  0
    4.5292   -6.6984   24.8448 H   0  0  0  0  0  0  0  0  0  0  0  0
    7.0724   -0.1967   23.4634 C   0  0  0  0  0  0  0  0  0  0  0  0
    7.6889   -0.1782   24.3685 H   0  0  0  0  0  0  0  0  0  0  0  0
    6.2253    0.4892   23.6397 H   0  0  0  0  0  0  0  0  0  0  0  0
    7.8615    0.2246   22.1950 C   0  0  0  0  0  0  0  0  0  0  0  0
    8.9370    0.0950   22.3661 H   0  0  0  0  0  0  0  0  0  0  0  0
    7.7038    1.2812   21.9540 H   0  0  0  0  0  0  0  0  0  0  0  0
    7.3952   -0.7296   21.0439 C   0  0  2  0  0  0  0  0  0  0  0  0
    8.2750   -1.2196   20.5974 H   0  0  0  0  0  0  0  0  0  0  0  0
    6.6519   -0.0318   19.8925 C   0  0  0  0  0  0  0  0  0  0  0  0
    7.1647    0.0293   18.5800 C   0  0  0  0  0  0  0  0  0  0  0  0
    8.1094   -0.4546   18.3267 H   0  0  0  0  0  0  0  0  0  0  0  0
    6.5719    0.6642   17.5582 N   0  0  0  0  0  0  0  0  0  0  0  0
    5.4152    1.2940   17.8119 C   0  0  0  0  0  0  0  0  0  0  0  0
    4.9572    1.8256   16.9786 H   0  0  0  0  0  0  0  0  0  0  0  0
    4.8077    1.2957   19.0706 C   0  0  0  0  0  0  0  0  0  0  0  0
    3.8834    1.8383   19.2189 H   0  0  0  0  0  0  0  0  0  0  0  0
    5.4348    0.6262   20.1216 C   0  0  0  0  0  0  0  0  0  0  0  0
    4.9862    0.6162   21.1165 H   0  0  0  0  0  0  0  0  0  0  0  0
  1  2  1  0
  2  3  2  0
  3  4  1  0
  4  5  2  0
  5  6  1  0
  5  7  1  0
  7  8  1  0
  7  9  2  0
  9 10  1  0
  9 11  1  0
 11 12  2  0
 12 13  1  0
 13 14  1  0
 13 15  2  0
 15 16  1  0
 15 17  1  0
 17 18  1  0
  3 19  1  0
 19 20  1  0
 19 21  1  0
 19 22  1  0
 22 23  1  0
 22 24  1  0
 22 25  1  0
 25 26  1  6
 25 27  1  0
 27 28  2  0
 28 29  1  0
 28 30  1  0
 30 31  2  0
 31 32  1  0
 31 33  1  0
 33 34  1  0
 33 35  2  0
 35 36  1  0
 25  2  1  0
 35 27  1  0
 12  4  1  0
 17 11  1  0
M  END
>  <cnnaffinity>  (1) 
-5.24232

>  <filename>  (1) 
C1=C(c2cccc3[nH]ccc23)CC[C@@H]1c1cccnc1

$$$$
