
     RDKit          3D

 41 44  0  0  0  0  0  0  0  0999 V2000
    5.1275   -4.3917   22.5027 C   0  0  0  0  0  0  0  0  0  0  0  0
    4.9081   -3.5196   23.4914 C   0  0  0  0  0  0  0  0  0  0  0  0
    6.0140   -2.8890   24.3057 C   0  0  0  0  0  0  0  0  0  0  0  0
    7.4035   -3.0182   23.6435 C   0  0  0  0  0  0  0  0  0  0  0  0
    7.6182   -1.9924   22.5612 C   0  0  0  0  0  0  0  0  0  0  0  0
    6.6786   -1.5285   21.7591 N   0  0  0  0  0  0  0  0  0  0  0  0
    7.3515   -0.6855   20.9396 N   0  0  0  0  0  0  0  0  0  0  0  0
    6.6615    0.0056   19.9041 C   0  0  0  0  0  0  0  0  0  0  0  0
    5.4409    0.6411   20.1691 C   0  0  0  0  0  0  0  0  0  0  0  0
    4.8143    1.3084   19.1116 C   0  0  0  0  0  0  0  0  0  0  0  0
    5.4023    1.2950   17.8389 C   0  0  0  0  0  0  0  0  0  0  0  0
    6.5606    0.6722   17.5784 N   0  0  0  0  0  0  0  0  0  0  0  0
    7.1699    0.0531   18.5938 C   0  0  0  0  0  0  0  0  0  0  0  0
    8.1127   -0.4314   18.3601 H   0  0  0  0  0  0  0  0  0  0  0  0
    4.9226    1.7849   16.9937 H   0  0  0  0  0  0  0  0  0  0  0  0
    3.8820    1.8388   19.2607 H   0  0  0  0  0  0  0  0  0  0  0  0
    5.0175    0.6072   21.1770 H   0  0  0  0  0  0  0  0  0  0  0  0
    8.6510   -0.6321   21.3627 C   0  0  0  0  0  0  0  0  0  0  0  0
    9.6802    0.1994   20.6903 C   0  0  0  0  0  0  0  0  0  0  0  0
   10.7536    0.5923   21.5754 N   0  0  0  0  0  0  0  0  0  0  0  0
   11.8996   -0.0836   21.8361 C   0  0  0  0  0  0  0  0  0  0  0  0
   12.5207    0.5664   22.8750 C   0  0  0  0  0  0  0  0  0  0  0  0
   11.6440    1.6326   23.1904 C   0  0  0  0  0  0  0  0  0  0  0  0
   10.5766    1.6297   22.4057 N   0  0  0  0  0  0  0  0  0  0  0  0
   11.7513    2.3960   23.9545 H   0  0  0  0  0  0  0  0  0  0  0  0
   13.4675    0.3228   23.3355 H   0  0  0  0  0  0  0  0  0  0  0  0
   12.1595   -0.9723   21.2700 H   0  0  0  0  0  0  0  0  0  0  0  0
    9.2486    1.1036   20.2599 H   0  0  0  0  0  0  0  0  0  0  0  0
   10.0881   -0.4194   19.8922 H   0  0  0  0  0  0  0  0  0  0  0  0
    8.8549   -1.5045   22.3244 N   0  0  0  0  0  0  0  0  0  0  0  0
    7.6024   -4.4493   23.0900 C   0  0  0  0  0  0  0  0  0  0  0  0
    6.5137   -4.8049   22.0614 C   0  0  0  0  0  0  0  0  0  0  0  0
    6.7281   -4.3158   21.1023 H   0  0  0  0  0  0  0  0  0  0  0  0
    6.5332   -5.8816   21.8555 H   0  0  0  0  0  0  0  0  0  0  0  0
    8.6010   -4.5465   22.6484 H   0  0  0  0  0  0  0  0  0  0  0  0
    7.5652   -5.1541   23.9303 H   0  0  0  0  0  0  0  0  0  0  0  0
    8.1855   -2.8113   24.3799 H   0  0  0  0  0  0  0  0  0  0  0  0
    5.7891   -1.8358   24.5119 H   0  0  0  0  0  0  0  0  0  0  0  0
    6.0402   -3.3717   25.2918 H   0  0  0  0  0  0  0  0  0  0  0  0
    3.8933   -3.2072   23.7296 H   0  0  0  0  0  0  0  0  0  0  0  0
    4.2813   -4.8279   21.9738 H   0  0  0  0  0  0  0  0  0  0  0  0
  1  2  2  0
  2  3  1  0
  3  4  1  0
  4  5  1  0
  5  6  2  0
  6  7  1  0
  7  8  1  0
  8  9  2  0
  9 10  1  0
 10 11  2  0
 11 12  1  0
 12 13  2  0
 13 14  1  0
 11 15  1  0
 10 16  1  0
  9 17  1  0
  7 18  1  0
 18 19  1  0
 19 20  1  0
 20 21  1  0
 21 22  2  0
 22 23  1  0
 23 24  2  0
 23 25  1  0
 22 26  1  0
 21 27  1  0
 19 28  1  0
 19 29  1  0
 18 30  2  0
  4 31  1  0
 31 32  1  0
 32 33  1  0
 32 34  1  0
 31 35  1  0
 31 36  1  0
  4 37  1  0
  3 38  1  0
  3 39  1  0
  2 40  1  0
  1 41  1  0
 32  1  1  0
 30  5  1  0
 13  8  1  0
 24 20  1  0
M  END
>  <cnnaffinity>  (1) 
-5.87377

>  <filename>  (1) 
C1=CCC(c2nc(Cn3cccn3)n(-c3cccnc3)n2)CC1

$$$$
