
     RDKit          3D

 40 43  0  0  0  0  0  0  0  0999 V2000
    6.0657   -4.9617   25.2808 C   0  0  0  0  0  0  0  0  0  0  0  0
    6.4858   -5.3415   24.0715 C   0  0  0  0  0  0  0  0  0  0  0  0
    6.9982   -4.3818   23.0311 C   0  0  0  0  0  0  0  0  0  0  0  0
    7.3887   -3.0076   23.6275 C   0  0  0  0  0  0  0  0  0  0  0  0
    7.6372   -2.0080   22.5438 C   0  0  0  0  0  0  0  0  0  0  0  0
    6.6781   -1.5607   21.7484 N   0  0  0  0  0  0  0  0  0  0  0  0
    7.3342   -0.6979   20.9323 N   0  0  0  0  0  0  0  0  0  0  0  0
    6.6498   -0.0018   19.9013 C   0  0  0  0  0  0  0  0  0  0  0  0
    5.4371    0.6428   20.1686 C   0  0  0  0  0  0  0  0  0  0  0  0
    4.8128    1.3102   19.1109 C   0  0  0  0  0  0  0  0  0  0  0  0
    5.4020    1.2943   17.8393 C   0  0  0  0  0  0  0  0  0  0  0  0
    6.5621    0.6726   17.5785 N   0  0  0  0  0  0  0  0  0  0  0  0
    7.1672    0.0514   18.5952 C   0  0  0  0  0  0  0  0  0  0  0  0
    8.1145   -0.4305   18.3667 H   0  0  0  0  0  0  0  0  0  0  0  0
    4.9178    1.7822   16.9957 H   0  0  0  0  0  0  0  0  0  0  0  0
    3.8801    1.8403   19.2628 H   0  0  0  0  0  0  0  0  0  0  0  0
    5.0134    0.6139   21.1750 H   0  0  0  0  0  0  0  0  0  0  0  0
    8.6353   -0.6354   21.3265 C   0  0  0  0  0  0  0  0  0  0  0  0
    9.6696    0.2266   20.6790 C   0  0  0  0  0  0  0  0  0  0  0  0
   10.7108    0.7310   21.6377 C   0  0  0  0  0  0  0  0  0  0  0  0
   11.8788    0.1454   22.0048 C   0  0  0  0  0  0  0  0  0  0  0  0
   12.5748    0.7242   23.0396 N   0  0  0  0  0  0  0  0  0  0  0  0
   11.9116    1.7532   23.4655 C   0  0  0  0  0  0  0  0  0  0  0  0
   10.4238    2.0860   22.6592 S   0  0  0  0  0  0  0  0  0  0  0  0
   12.2464    2.3956   24.2656 H   0  0  0  0  0  0  0  0  0  0  0  0
   12.2566   -0.7576   21.5409 H   0  0  0  0  0  0  0  0  0  0  0  0
    9.1893    1.0629   20.1615 H   0  0  0  0  0  0  0  0  0  0  0  0
   10.1163   -0.4288   19.9228 H   0  0  0  0  0  0  0  0  0  0  0  0
    8.8618   -1.4957   22.2982 N   0  0  0  0  0  0  0  0  0  0  0  0
    6.3120   -2.5243   24.6208 C   0  0  0  0  0  0  0  0  0  0  0  0
    6.1232   -3.5310   25.7624 C   0  0  0  0  0  0  0  0  0  0  0  0
    5.2210   -3.2815   26.3331 H   0  0  0  0  0  0  0  0  0  0  0  0
    6.9560   -3.4384   26.4725 H   0  0  0  0  0  0  0  0  0  0  0  0
    5.3741   -2.4052   24.0710 H   0  0  0  0  0  0  0  0  0  0  0  0
    6.5719   -1.5386   25.0246 H   0  0  0  0  0  0  0  0  0  0  0  0
    8.3359   -3.1129   24.1663 H   0  0  0  0  0  0  0  0  0  0  0  0
    6.2135   -4.2293   22.2782 H   0  0  0  0  0  0  0  0  0  0  0  0
    7.8479   -4.8195   22.4917 H   0  0  0  0  0  0  0  0  0  0  0  0
    6.4506   -6.3891   23.7860 H   0  0  0  0  0  0  0  0  0  0  0  0
    5.6681   -5.7035   25.9722 H   0  0  0  0  0  0  0  0  0  0  0  0
  1  2  2  0
  2  3  1  0
  3  4  1  0
  4  5  1  0
  5  6  2  0
  6  7  1  0
  7  8  1  0
  8  9  2  0
  9 10  1  0
 10 11  2  0
 11 12  1  0
 12 13  2  0
 13 14  1  0
 11 15  1  0
 10 16  1  0
  9 17  1  0
  7 18  1  0
 18 19  1  0
 19 20  1  0
 20 21  2  0
 21 22  1  0
 22 23  2  0
 23 24  1  0
 23 25  1  0
 21 26  1  0
 19 27  1  0
 19 28  1  0
 18 29  2  0
  4 30  1  0
 30 31  1  0
 31 32  1  0
 31 33  1  0
 30 34  1  0
 30 35  1  0
  4 36  1  0
  3 37  1  0
  3 38  1  0
  2 39  1  0
  1 40  1  0
 31  1  1  0
 29  5  1  0
 13  8  1  0
 24 20  1  0
M  END
>  <cnnaffinity>  (1) 
-6.57076

>  <filename>  (1) 
C1=CCC(c2nc(Cc3cncs3)n(-c3cccnc3)n2)CC1

$$$$
