
     RDKit          3D

 38 41  0  0  0  0  0  0  0  0999 V2000
    8.7543   -0.6320   21.0551 C   0  0  0  0  0  0  0  0  0  0  0  0
    7.4179   -0.7123   20.9525 C   0  0  0  0  0  0  0  0  0  0  0  0
    6.6555   -0.0161   19.8778 C   0  0  0  0  0  0  0  0  0  0  0  0
    5.4235    0.6207   20.1073 C   0  0  0  0  0  0  0  0  0  0  0  0
    4.7998    1.2979   19.0581 C   0  0  0  0  0  0  0  0  0  0  0  0
    5.4026    1.3110   17.7980 C   0  0  0  0  0  0  0  0  0  0  0  0
    6.5603    0.6820   17.5405 N   0  0  0  0  0  0  0  0  0  0  0  0
    7.1610    0.0568   18.5600 C   0  0  0  0  0  0  0  0  0  0  0  0
    8.1016   -0.4340   18.3168 H   0  0  0  0  0  0  0  0  0  0  0  0
    4.9407    1.8450   16.9667 H   0  0  0  0  0  0  0  0  0  0  0  0
    3.8679    1.8264   19.2054 H   0  0  0  0  0  0  0  0  0  0  0  0
    4.9817    0.6217   21.1033 H   0  0  0  0  0  0  0  0  0  0  0  0
    6.6065   -1.4618   22.0179 C   0  0  0  0  0  0  0  0  0  0  0  0
    7.4017   -2.4291   22.7873 N   0  0  0  0  0  0  0  0  0  0  0  0
    7.3043   -3.7585   22.4522 C   0  0  0  0  0  0  0  0  0  0  0  0
    8.3519   -4.3217   21.8811 N   0  0  0  0  0  0  0  0  0  0  0  0
    8.2321   -5.6238   21.5776 C   0  0  0  0  0  0  0  0  0  0  0  0
    7.2351   -6.4160   21.8321 N   0  0  0  0  0  0  0  0  0  0  0  0
    6.1765   -5.8402   22.4769 C   0  0  0  0  0  0  0  0  0  0  0  0
    5.1295   -6.7056   22.8667 C   0  0  0  0  0  0  0  0  0  0  0  0
    3.9907   -6.2150   23.4483 C   0  0  0  0  0  0  0  0  0  0  0  0
    3.8880   -4.8330   23.7354 C   0  0  0  0  0  0  0  0  0  0  0  0
    4.9212   -3.9680   23.4388 C   0  0  0  0  0  0  0  0  0  0  0  0
    6.0920   -4.4658   22.7789 C   0  0  0  0  0  0  0  0  0  0  0  0
    4.8490   -2.9297   23.7551 H   0  0  0  0  0  0  0  0  0  0  0  0
    2.9932   -4.4641   24.2178 H   0  0  0  0  0  0  0  0  0  0  0  0
    3.1742   -6.8836   23.6979 H   0  0  0  0  0  0  0  0  0  0  0  0
    5.3160   -7.7541   22.7014 H   0  0  0  0  0  0  0  0  0  0  0  0
    9.0878   -6.0580   21.0675 H   0  0  0  0  0  0  0  0  0  0  0  0
    8.6924   -1.9002   23.2276 C   0  0  0  0  0  0  0  0  0  0  0  0
    9.5715   -1.3968   22.0731 C   0  0  0  0  0  0  0  0  0  0  0  0
   10.0810   -2.2400   21.5961 H   0  0  0  0  0  0  0  0  0  0  0  0
   10.3606   -0.7552   22.4847 H   0  0  0  0  0  0  0  0  0  0  0  0
    8.4818   -1.0497   23.8891 H   0  0  0  0  0  0  0  0  0  0  0  0
    9.2122   -2.6571   23.8288 H   0  0  0  0  0  0  0  0  0  0  0  0
    5.7461   -1.9580   21.5511 H   0  0  0  0  0  0  0  0  0  0  0  0
    6.1890   -0.7162   22.7106 H   0  0  0  0  0  0  0  0  0  0  0  0
    9.3016    0.0497   20.4071 H   0  0  0  0  0  0  0  0  0  0  0  0
  1  2  2  0
  2  3  1  0
  3  4  2  0
  4  5  1  0
  5  6  2  0
  6  7  1  0
  7  8  2  0
  8  9  1  0
  6 10  1  0
  5 11  1  0
  4 12  1  0
  2 13  1  0
 13 14  1  0
 14 15  1  0
 15 16  2  0
 16 17  1  0
 17 18  2  0
 18 19  1  0
 19 20  2  0
 20 21  1  0
 21 22  2  0
 22 23  1  0
 23 24  2  0
 23 25  1  0
 22 26  1  0
 21 27  1  0
 20 28  1  0
 17 29  1  0
 14 30  1  0
 30 31  1  0
 31 32  1  0
 31 33  1  0
 30 34  1  0
 30 35  1  0
 13 36  1  0
 13 37  1  0
  1 38  1  0
 31  1  1  0
  8  3  1  0
 24 15  1  0
 24 19  1  0
M  END
>  <cnnaffinity>  (1) 
-5.66285

>  <filename>  (1) 
C1=C(c2cccnc2)CN(c2ncnc3ccccc23)CC1

$$$$
