
     RDKit          3D

 38 40  0  0  0  0  0  0  0  0999 V2000
   10.2909   -0.5147   22.7360 H   0  0  0  0  0  0  0  0  0  0  0  0
    9.2471   -0.7376   22.5252 C   0  0  0  0  0  0  0  0  0  0  0  0
    8.4261   -1.1252   23.5090 C   0  0  0  0  0  0  0  0  0  0  0  0
    8.8774   -1.1478   24.8063 N   0  0  0  0  0  0  0  0  0  0  0  0
    9.8771   -1.0416   24.8744 H   0  0  0  0  0  0  0  0  0  0  0  0
    8.1761   -1.7126   25.9470 C   0  0  0  0  0  0  0  0  0  0  0  0
    8.7181   -1.3905   26.8426 H   0  0  0  0  0  0  0  0  0  0  0  0
    7.1760   -1.2640   25.9997 H   0  0  0  0  0  0  0  0  0  0  0  0
    8.0226   -3.2382   25.9780 C   0  0  0  0  0  0  0  0  0  0  0  0
    9.1350   -4.0861   25.8724 C   0  0  0  0  0  0  0  0  0  0  0  0
   10.1367   -3.6842   25.7714 H   0  0  0  0  0  0  0  0  0  0  0  0
    8.9536   -5.4679   25.8789 C   0  0  0  0  0  0  0  0  0  0  0  0
    9.8143   -6.1315   25.7860 H   0  0  0  0  0  0  0  0  0  0  0  0
    7.7587   -6.0601   25.9872 N   0  0  0  0  0  0  0  0  0  0  0  0
    6.6969   -5.2589   26.1145 C   0  0  0  0  0  0  0  0  0  0  0  0
    5.7303   -5.7565   26.2073 H   0  0  0  0  0  0  0  0  0  0  0  0
    6.7723   -3.8638   26.1203 C   0  0  0  0  0  0  0  0  0  0  0  0
    5.8612   -3.2823   26.2119 H   0  0  0  0  0  0  0  0  0  0  0  0
    6.9619   -1.4159   23.2512 C   0  0  0  0  0  0  0  0  0  0  0  0
    6.6146   -2.2564   23.8581 H   0  0  0  0  0  0  0  0  0  0  0  0
    6.3973   -0.5288   23.5671 H   0  0  0  0  0  0  0  0  0  0  0  0
    6.7067   -1.6746   21.7649 C   0  0  0  0  0  0  0  0  0  0  0  0
    7.0856   -2.6741   21.4784 H   0  0  0  0  0  0  0  0  0  0  0  0
    5.6319   -1.6816   21.5577 H   0  0  0  0  0  0  0  0  0  0  0  0
    7.3454   -0.6336   20.9742 N   0  0  0  0  0  0  0  0  0  0  0  0
    6.6781    0.0076   19.9131 C   0  0  0  0  0  0  0  0  0  0  0  0
    7.1792    0.0725   18.5882 C   0  0  0  0  0  0  0  0  0  0  0  0
    8.1253   -0.4134   18.3502 H   0  0  0  0  0  0  0  0  0  0  0  0
    6.5581    0.6831   17.5657 N   0  0  0  0  0  0  0  0  0  0  0  0
    5.3926    1.2984   17.8257 C   0  0  0  0  0  0  0  0  0  0  0  0
    4.9151    1.7965   16.9826 H   0  0  0  0  0  0  0  0  0  0  0  0
    4.8052    1.3087   19.0938 C   0  0  0  0  0  0  0  0  0  0  0  0
    3.8736    1.8376   19.2527 H   0  0  0  0  0  0  0  0  0  0  0  0
    5.4416    0.6409   20.1465 C   0  0  0  0  0  0  0  0  0  0  0  0
    5.0282    0.6217   21.1519 H   0  0  0  0  0  0  0  0  0  0  0  0
    8.7935   -0.5487   21.1066 C   0  0  0  0  0  0  0  0  0  0  0  0
    9.3305   -1.2693   20.4562 H   0  0  0  0  0  0  0  0  0  0  0  0
    9.1091    0.4464   20.7636 H   0  0  0  0  0  0  0  0  0  0  0  0
  1  2  1  0
  2  3  2  0
  3  4  1  0
  4  5  1  0
  4  6  1  0
  6  7  1  0
  6  8  1  0
  6  9  1  0
  9 10  2  0
 10 11  1  0
 10 12  1  0
 12 13  1  0
 12 14  2  0
 14 15  1  0
 15 16  1  0
 15 17  2  0
 17 18  1  0
  3 19  1  0
 19 20  1  0
 19 21  1  0
 19 22  1  0
 22 23  1  0
 22 24  1  0
 22 25  1  0
 25 26  1  0
 26 27  2  0
 27 28  1  0
 27 29  1  0
 29 30  2  0
 30 31  1  0
 30 32  1  0
 32 33  1  0
 32 34  2  0
 34 35  1  0
 25 36  1  0
 36 37  1  0
 36 38  1  0
 36  2  1  0
 17  9  1  0
 34 26  1  0
M  END
>  <cnnaffinity>  (1) 
-4.96418

>  <filename>  (1) 
C1=C(NCc2ccncc2)CCN(c2cccnc2)C1

$$$$
