
     RDKit          3D

 53 56  0  0  0  0  0  0  0  0999 V2000
    8.0989   -3.5240   25.3441 C   0  0  0  0  0  0  0  0  0  0  0  0
    9.3675   -3.3090   24.9847 C   0  0  0  0  0  0  0  0  0  0  0  0
    9.8285   -3.1838   23.5496 C   0  0  0  0  0  0  0  0  0  0  0  0
    8.6915   -3.3614   22.4983 C   0  0  0  0  0  0  0  0  0  0  0  0
    8.1129   -2.0344   22.0760 C   0  0  0  0  0  0  0  0  0  0  0  0
    7.5380   -1.8524   20.8998 N   0  0  0  0  0  0  0  0  0  0  0  0
    7.1538   -0.5437   20.9479 N   0  0  0  0  0  0  0  0  0  0  0  0
    6.4980    0.0826   19.8491 C   0  0  0  0  0  0  0  0  0  0  0  0
    5.3379    0.8559   20.0078 C   0  0  0  0  0  0  0  0  0  0  0  0
    4.7964    1.4726   18.8745 C   0  0  0  0  0  0  0  0  0  0  0  0
    5.4258    1.2943   17.6391 C   0  0  0  0  0  0  0  0  0  0  0  0
    6.5347    0.5480   17.4841 N   0  0  0  0  0  0  0  0  0  0  0  0
    7.0488   -0.0470   18.5622 C   0  0  0  0  0  0  0  0  0  0  0  0
    7.9599   -0.6271   18.4217 H   0  0  0  0  0  0  0  0  0  0  0  0
    5.0246    1.7550   16.7389 H   0  0  0  0  0  0  0  0  0  0  0  0
    3.9081    2.0919   18.9359 H   0  0  0  0  0  0  0  0  0  0  0  0
    4.8621    0.9662   20.9851 H   0  0  0  0  0  0  0  0  0  0  0  0
    7.5618   -0.0128   22.1324 C   0  0  0  0  0  0  0  0  0  0  0  0
    7.3867    1.3726   22.6531 C   0  0  0  0  0  0  0  0  0  0  0  0
    6.4828    1.3679   23.9004 C   0  0  0  0  0  0  0  0  0  0  0  0
    6.3313    2.7009   24.6121 C   0  0  0  0  0  0  0  0  0  0  0  0
    5.6780    3.7283   23.7706 N   0  0  0  0  0  4  0  0  0  0  0  0
    4.2552    3.3999   23.3870 C   0  0  0  0  0  0  0  0  0  0  0  0
    3.6076    4.7412   23.0212 C   0  0  0  0  0  0  0  0  0  0  0  0
    4.6052    5.8249   23.4809 C   0  0  0  0  0  0  0  0  0  0  0  0
    5.5850    5.0908   24.3909 C   0  0  0  0  0  0  0  0  0  0  0  0
    6.5713    5.5600   24.4531 H   0  0  0  0  0  0  0  0  0  0  0  0
    5.1920    4.9918   25.4129 H   0  0  0  0  0  0  0  0  0  0  0  0
    5.1486    6.2313   22.6200 H   0  0  0  0  0  0  0  0  0  0  0  0
    4.1223    6.6680   23.9822 H   0  0  0  0  0  0  0  0  0  0  0  0
    3.4256    4.8057   21.9440 H   0  0  0  0  0  0  0  0  0  0  0  0
    2.6376    4.8285   23.5180 H   0  0  0  0  0  0  0  0  0  0  0  0
    4.2346    2.6794   22.5657 H   0  0  0  0  0  0  0  0  0  0  0  0
    3.7692    2.9443   24.2581 H   0  0  0  0  0  0  0  0  0  0  0  0
    6.2338    3.8336   22.8887 H   0  0  0  0  0  0  0  0  0  0  0  0
    5.7141    2.5488   25.5132 H   0  0  0  0  0  0  0  0  0  0  0  0
    7.3125    3.0564   24.9549 H   0  0  0  0  0  0  0  0  0  0  0  0
    6.8802    0.6453   24.6221 H   0  0  0  0  0  0  0  0  0  0  0  0
    5.4893    0.9970   23.6216 H   0  0  0  0  0  0  0  0  0  0  0  0
    7.0161    2.0351   21.8635 H   0  0  0  0  0  0  0  0  0  0  0  0
    8.3879    1.7235   22.9304 H   0  0  0  0  0  0  0  0  0  0  0  0
    8.1626   -0.9337   22.8582 N   0  0  0  0  0  0  0  0  0  0  0  0
    7.6065   -4.3541   23.0038 C   0  0  0  0  0  0  0  0  0  0  0  0
    7.0233   -3.9031   24.3532 C   0  0  0  0  0  0  0  0  0  0  0  0
    6.4012   -4.6963   24.7871 H   0  0  0  0  0  0  0  0  0  0  0  0
    6.3474   -3.0500   24.2026 H   0  0  0  0  0  0  0  0  0  0  0  0
    6.8086   -4.4620   22.2566 H   0  0  0  0  0  0  0  0  0  0  0  0
    8.0797   -5.3409   23.1192 H   0  0  0  0  0  0  0  0  0  0  0  0
    9.0890   -3.7559   21.5667 H   0  0  0  0  0  0  0  0  0  0  0  0
   10.6434   -3.8968   23.3819 H   0  0  0  0  0  0  0  0  0  0  0  0
   10.2909   -2.1955   23.4344 H   0  0  0  0  0  0  0  0  0  0  0  0
   10.1349   -3.2508   25.7526 H   0  0  0  0  0  0  0  0  0  0  0  0
    7.8012   -3.3955   26.3853 H   0  0  0  0  0  0  0  0  0  0  0  0
  1  2  2  0
  2  3  1  0
  3  4  1  0
  4  5  1  0
  5  6  2  0
  6  7  1  0
  7  8  1  0
  8  9  2  0
  9 10  1  0
 10 11  2  0
 11 12  1  0
 12 13  2  0
 13 14  1  0
 11 15  1  0
 10 16  1  0
  9 17  1  0
  7 18  1  0
 18 19  1  0
 19 20  1  0
 20 21  1  0
 21 22  1  0
 22 23  1  0
 23 24  1  0
 24 25  1  0
 25 26  1  0
 26 27  1  0
 26 28  1  0
 25 29  1  0
 25 30  1  0
 24 31  1  0
 24 32  1  0
 23 33  1  0
 23 34  1  0
 22 35  1  0
 21 36  1  0
 21 37  1  0
 20 38  1  0
 20 39  1  0
 19 40  1  0
 19 41  1  0
 18 42  2  0
  4 43  1  0
 43 44  1  0
 44 45  1  0
 44 46  1  0
 43 47  1  0
 43 48  1  0
  4 49  1  0
  3 50  1  0
  3 51  1  0
  2 52  1  0
  1 53  1  0
 44  1  1  0
 42  5  1  0
 13  8  1  0
 26 22  1  0
M  CHG  1  22   1
M  END
>  <cnnaffinity>  (1) 
-5.93787

>  <filename>  (1) 
C1=CCC(c2nc(CCC[NH+]3CCCC3)n(-c3cccnc3)n2)CC1

$$$$
