
     RDKit          3D

 41 44  0  0  0  0  0  0  0  0999 V2000
    7.8468   -3.4163   25.4324 C   0  0  0  0  0  0  0  0  0  0  0  0
    9.1289   -3.1847   25.1404 C   0  0  0  0  0  0  0  0  0  0  0  0
    9.6881   -3.1883   23.7320 C   0  0  0  0  0  0  0  0  0  0  0  0
    8.6017   -3.3065   22.6243 C   0  0  0  0  0  0  0  0  0  0  0  0
    8.0714   -1.9567   22.1920 C   0  0  0  0  0  0  0  0  0  0  0  0
    7.5288   -1.7792   21.0007 N   0  0  0  0  0  0  0  0  0  0  0  0
    7.1518   -0.4674   21.0255 N   0  0  0  0  0  0  0  0  0  0  0  0
    6.5005    0.1318   19.9104 C   0  0  0  0  0  0  0  0  0  0  0  0
    5.3621    0.9407   20.0466 C   0  0  0  0  0  0  0  0  0  0  0  0
    4.8228    1.5133   18.8857 C   0  0  0  0  0  0  0  0  0  0  0  0
    5.4396    1.2664   17.6563 C   0  0  0  0  0  0  0  0  0  0  0  0
    6.5276    0.4861   17.5234 N   0  0  0  0  0  0  0  0  0  0  0  0
    7.0329   -0.0733   18.6267 C   0  0  0  0  0  0  0  0  0  0  0  0
    7.9210   -0.6914   18.5114 H   0  0  0  0  0  0  0  0  0  0  0  0
    5.0378    1.6905   16.7365 H   0  0  0  0  0  0  0  0  0  0  0  0
    3.9423    2.1489   18.9273 H   0  0  0  0  0  0  0  0  0  0  0  0
    4.9122    1.1197   21.0257 H   0  0  0  0  0  0  0  0  0  0  0  0
    7.5340    0.0761   22.2116 C   0  0  0  0  0  0  0  0  0  0  0  0
    7.2945    1.4789   22.6879 C   0  0  0  0  0  0  0  0  0  0  0  0
    6.1524    1.5445   23.6875 C   0  0  0  0  0  0  0  0  0  0  0  0
    6.0357    0.7555   24.7894 C   0  0  0  0  0  0  0  0  0  0  0  0
    4.8701    0.9947   25.4326 O   0  0  0  0  0  0  0  0  0  0  0  0
    4.2326    1.9710   24.7456 C   0  0  0  0  0  0  0  0  0  0  0  0
    4.9745    2.3576   23.6720 C   0  0  0  0  0  0  0  0  0  0  0  0
    4.7440    3.1566   22.9781 H   0  0  0  0  0  0  0  0  0  0  0  0
    3.2754    2.2660   25.1517 H   0  0  0  0  0  0  0  0  0  0  0  0
    6.6949    0.0098   25.2155 H   0  0  0  0  0  0  0  0  0  0  0  0
    8.2282    1.7938   23.1719 H   0  0  0  0  0  0  0  0  0  0  0  0
    7.1357    2.1536   21.8414 H   0  0  0  0  0  0  0  0  0  0  0  0
    8.1216   -0.8400   22.9582 N   0  0  0  0  0  0  0  0  0  0  0  0
    7.4810   -4.2909   23.0750 C   0  0  0  0  0  0  0  0  0  0  0  0
    6.8343   -3.8600   24.4037 C   0  0  0  0  0  0  0  0  0  0  0  0
    6.1146   -3.0487   24.2300 H   0  0  0  0  0  0  0  0  0  0  0  0
    6.2427   -4.6861   24.8193 H   0  0  0  0  0  0  0  0  0  0  0  0
    7.9396   -5.2829   23.2037 H   0  0  0  0  0  0  0  0  0  0  0  0
    6.7196   -4.3872   22.2893 H   0  0  0  0  0  0  0  0  0  0  0  0
    9.0537   -3.7077   21.7142 H   0  0  0  0  0  0  0  0  0  0  0  0
   10.2794   -2.2739   23.5919 H   0  0  0  0  0  0  0  0  0  0  0  0
   10.4089   -4.0135   23.6386 H   0  0  0  0  0  0  0  0  0  0  0  0
    9.8288   -3.0070   25.9553 H   0  0  0  0  0  0  0  0  0  0  0  0
    7.4846   -3.2446   26.4482 H   0  0  0  0  0  0  0  0  0  0  0  0
  1  2  2  0
  2  3  1  0
  3  4  1  0
  4  5  1  0
  5  6  2  0
  6  7  1  0
  7  8  1  0
  8  9  2  0
  9 10  1  0
 10 11  2  0
 11 12  1  0
 12 13  2  0
 13 14  1  0
 11 15  1  0
 10 16  1  0
  9 17  1  0
  7 18  1  0
 18 19  1  0
 19 20  1  0
 20 21  2  0
 21 22  1  0
 22 23  1  0
 23 24  2  0
 24 25  1  0
 23 26  1  0
 21 27  1  0
 19 28  1  0
 19 29  1  0
 18 30  2  0
  4 31  1  0
 31 32  1  0
 32 33  1  0
 32 34  1  0
 31 35  1  0
 31 36  1  0
  4 37  1  0
  3 38  1  0
  3 39  1  0
  2 40  1  0
  1 41  1  0
 32  1  1  0
 30  5  1  0
 13  8  1  0
 24 20  1  0
M  END
>  <cnnaffinity>  (1) 
-5.89092

>  <filename>  (1) 
C1=CCC(c2nc(Cc3ccoc3)n(-c3cccnc3)n2)CC1

$$$$
