
     RDKit          3D

 48 52  0  0  0  0  0  0  0  0999 V2000
    5.8935   -5.4672   25.3805 C   0  0  0  0  0  0  0  0  0  0  0  0
    6.1589   -5.7877   24.1119 C   0  0  0  0  0  0  0  0  0  0  0  0
    6.6935   -4.8149   23.0917 C   0  0  0  0  0  0  0  0  0  0  0  0
    7.0557   -3.4550   23.7393 C   0  0  0  0  0  0  0  0  0  0  0  0
    7.4164   -2.4296   22.7085 C   0  0  0  0  0  0  0  0  0  0  0  0
    6.5509   -1.8092   21.9338 N   0  0  0  0  0  0  0  0  0  0  0  0
    7.3394   -1.0009   21.1730 N   0  0  0  0  0  0  0  0  0  0  0  0
    6.7769   -0.1987   20.1358 C   0  0  0  0  0  0  0  0  0  0  0  0
    5.5763    0.4959   20.3386 C   0  0  0  0  0  0  0  0  0  0  0  0
    5.0702    1.2544   19.2777 C   0  0  0  0  0  0  0  0  0  0  0  0
    5.7662    1.2890   18.0624 C   0  0  0  0  0  0  0  0  0  0  0  0
    6.9189    0.6292   17.8656 N   0  0  0  0  0  0  0  0  0  0  0  0
    7.4007   -0.0994   18.8800 C   0  0  0  0  0  0  0  0  0  0  0  0
    8.3314   -0.6309   18.6856 H   0  0  0  0  0  0  0  0  0  0  0  0
    5.3789    1.8589   17.2183 H   0  0  0  0  0  0  0  0  0  0  0  0
    4.1400    1.8059   19.3789 H   0  0  0  0  0  0  0  0  0  0  0  0
    5.0632    0.4253   21.3017 H   0  0  0  0  0  0  0  0  0  0  0  0
    8.6340   -1.1762   21.5561 C   0  0  0  0  0  0  0  0  0  0  0  0
    9.7417   -0.2426   21.1575 C   0  0  0  0  0  0  0  0  0  0  0  0
    9.4420    1.2143   21.5776 N   0  0  0  0  0  4  0  0  0  0  0  0
    9.2787    1.2859   23.1274 C   0  0  0  0  0  0  0  0  0  0  0  0
   10.2741    2.3066   23.6219 C   0  0  0  0  0  0  0  0  0  0  0  0
   10.0427    3.7382   23.2361 C   0  0  0  0  0  0  0  0  0  0  0  0
   11.0034    2.8844   22.4502 C   0  0  0  0  0  0  0  0  0  0  0  0
   10.5115    2.2246   21.1768 C   0  0  0  0  0  0  0  0  0  0  0  0
   11.3345    1.7065   20.6802 H   0  0  0  0  0  0  0  0  0  0  0  0
   10.0805    2.9340   20.4660 H   0  0  0  0  0  0  0  0  0  0  0  0
   12.0636    3.0944   22.5160 H   0  0  0  0  0  0  0  0  0  0  0  0
    9.0775    4.0077   22.8121 H   0  0  0  0  0  0  0  0  0  0  0  0
   10.4505    4.5046   23.8917 H   0  0  0  0  0  0  0  0  0  0  0  0
   10.8010    2.0923   24.5437 H   0  0  0  0  0  0  0  0  0  0  0  0
    9.5139    0.2973   23.5236 H   0  0  0  0  0  0  0  0  0  0  0  0
    8.2380    1.5216   23.3734 H   0  0  0  0  0  0  0  0  0  0  0  0
    8.5394    1.5107   21.1532 H   0  0  0  0  0  0  0  0  0  0  0  0
   10.6396   -0.5943   21.6782 H   0  0  0  0  0  0  0  0  0  0  0  0
    9.9510   -0.3089   20.0876 H   0  0  0  0  0  0  0  0  0  0  0  0
    8.7188   -2.0984   22.4964 N   0  0  0  0  0  0  0  0  0  0  0  0
    5.9533   -3.0290   24.7365 C   0  0  0  0  0  0  0  0  0  0  0  0
    5.9245   -4.0441   25.8942 C   0  0  0  0  0  0  0  0  0  0  0  0
    6.8163   -3.9118   26.5256 H   0  0  0  0  0  0  0  0  0  0  0  0
    5.0711   -3.8625   26.5592 H   0  0  0  0  0  0  0  0  0  0  0  0
    4.9803   -3.0235   24.2248 H   0  0  0  0  0  0  0  0  0  0  0  0
    6.1254   -2.0153   25.1148 H   0  0  0  0  0  0  0  0  0  0  0  0
    7.9788   -3.5985   24.3125 H   0  0  0  0  0  0  0  0  0  0  0  0
    7.5791   -5.2396   22.5975 H   0  0  0  0  0  0  0  0  0  0  0  0
    5.9418   -4.6759   22.3005 H   0  0  0  0  0  0  0  0  0  0  0  0
    5.9377   -6.7865   23.7434 H   0  0  0  0  0  0  0  0  0  0  0  0
    5.6585   -6.2511   26.1003 H   0  0  0  0  0  0  0  0  0  0  0  0
  1  2  2  0
  2  3  1  0
  3  4  1  0
  4  5  1  0
  5  6  2  0
  6  7  1  0
  7  8  1  0
  8  9  2  0
  9 10  1  0
 10 11  2  0
 11 12  1  0
 12 13  2  0
 13 14  1  0
 11 15  1  0
 10 16  1  0
  9 17  1  0
  7 18  1  0
 18 19  1  0
 19 20  1  0
 20 21  1  0
 21 22  1  0
 22 23  1  0
 23 24  1  0
 24 25  1  0
 25 26  1  0
 25 27  1  0
 24 28  1  0
 23 29  1  0
 23 30  1  0
 22 31  1  0
 21 32  1  0
 21 33  1  0
 20 34  1  0
 19 35  1  0
 19 36  1  0
 18 37  2  0
  4 38  1  0
 38 39  1  0
 39 40  1  0
 39 41  1  0
 38 42  1  0
 38 43  1  0
  4 44  1  0
  3 45  1  0
  3 46  1  0
  2 47  1  0
  1 48  1  0
 39  1  1  0
 37  5  1  0
 13  8  1  0
 25 20  1  0
 24 22  1  0
M  CHG  1  20   1
M  END
>  <cnnaffinity>  (1) 
-5.99429

>  <filename>  (1) 
C1=CCC(c2nc(C[NH+]3CC4CC4C3)n(-c3cccnc3)n2)CC1

$$$$
