
     RDKit          3D

 51 55  0  0  0  0  0  0  0  0999 V2000
    5.4416   -4.7430   22.0325 C   0  0  0  0  0  0  0  0  0  0  0  0
    5.0633   -4.0041   23.0783 C   0  0  0  0  0  0  0  0  0  0  0  0
    6.0382   -3.3112   24.0008 C   0  0  0  0  0  0  0  0  0  0  0  0
    7.4686   -3.2224   23.4145 C   0  0  0  0  0  0  0  0  0  0  0  0
    7.6579   -2.0950   22.4207 C   0  0  0  0  0  0  0  0  0  0  0  0
    6.7275   -1.6221   21.6172 N   0  0  0  0  0  0  0  0  0  0  0  0
    7.3700   -0.6391   20.9336 N   0  0  0  0  0  0  0  0  0  0  0  0
    6.6816    0.0198   19.8768 C   0  0  0  0  0  0  0  0  0  0  0  0
    5.4498    0.6295   20.1360 C   0  0  0  0  0  0  0  0  0  0  0  0
    4.8141    1.3090   19.0964 C   0  0  0  0  0  0  0  0  0  0  0  0
    5.4105    1.3111   17.8283 C   0  0  0  0  0  0  0  0  0  0  0  0
    6.5592    0.6717   17.5567 N   0  0  0  0  0  0  0  0  0  0  0  0
    7.1792    0.0358   18.5587 C   0  0  0  0  0  0  0  0  0  0  0  0
    8.0965   -0.4969   18.3012 H   0  0  0  0  0  0  0  0  0  0  0  0
    4.9372    1.8408   17.0061 H   0  0  0  0  0  0  0  0  0  0  0  0
    3.8764    1.8303   19.2591 H   0  0  0  0  0  0  0  0  0  0  0  0
    5.0144    0.5550   21.1352 H   0  0  0  0  0  0  0  0  0  0  0  0
    8.6437   -0.5239   21.4121 C   0  0  0  0  0  0  0  0  0  0  0  0
    9.5834    0.6096   21.0162 C   0  0  0  0  0  0  0  0  0  0  0  0
    9.4664    1.9116   21.8181 N   0  0  0  0  0  4  0  0  0  0  0  0
    9.8478    1.6833   23.3004 C   0  0  0  0  0  0  0  0  0  0  0  0
    8.6916    2.3427   24.0508 C   0  0  0  0  0  0  0  0  0  0  0  0
    8.7578    3.8699   23.8244 C   0  0  0  0  0  0  0  0  0  0  0  0
    8.2244    4.0039   22.3647 C   0  0  0  0  0  0  0  0  0  0  0  0
    8.0607    2.5531   21.9120 C   0  0  0  0  0  0  0  0  0  0  0  0
    7.4973    1.9123   23.1761 C   0  0  0  0  0  0  0  0  0  0  0  0
    7.3964    0.8294   23.0842 H   0  0  0  0  0  0  0  0  0  0  0  0
    6.5279    2.3329   23.4710 H   0  0  0  0  0  0  0  0  0  0  0  0
    7.5225    2.3945   20.9755 H   0  0  0  0  0  0  0  0  0  0  0  0
    7.2473    4.4922   22.3262 H   0  0  0  0  0  0  0  0  0  0  0  0
    8.8640    4.6042   21.7262 H   0  0  0  0  0  0  0  0  0  0  0  0
    9.7763    4.2669   23.9348 H   0  0  0  0  0  0  0  0  0  0  0  0
    8.1171    4.4052   24.5345 H   0  0  0  0  0  0  0  0  0  0  0  0
    8.6566    2.0405   25.0994 H   0  0  0  0  0  0  0  0  0  0  0  0
    9.8558    0.6062   23.4791 H   0  0  0  0  0  0  0  0  0  0  0  0
   10.8307    2.1081   23.5197 H   0  0  0  0  0  0  0  0  0  0  0  0
   10.0847    2.6502   21.4133 H   0  0  0  0  0  0  0  0  0  0  0  0
   10.5979    0.2116   21.1333 H   0  0  0  0  0  0  0  0  0  0  0  0
    9.4213    0.8170   19.9570 H   0  0  0  0  0  0  0  0  0  0  0  0
    8.8680   -1.4806   22.3024 N   0  0  0  0  0  0  0  0  0  0  0  0
    7.8521   -4.5852   22.7849 C   0  0  0  0  0  0  0  0  0  0  0  0
    6.8860   -4.9567   21.6484 C   0  0  0  0  0  0  0  0  0  0  0  0
    7.0361   -5.9983   21.3359 H   0  0  0  0  0  0  0  0  0  0  0  0
    7.0949   -4.3426   20.7636 H   0  0  0  0  0  0  0  0  0  0  0  0
    8.8863   -4.5497   22.4297 H   0  0  0  0  0  0  0  0  0  0  0  0
    7.8089   -5.3574   23.5649 H   0  0  0  0  0  0  0  0  0  0  0  0
    8.1756   -2.9879   24.2164 H   0  0  0  0  0  0  0  0  0  0  0  0
    6.0850   -3.8687   24.9485 H   0  0  0  0  0  0  0  0  0  0  0  0
    5.6554   -2.3200   24.2685 H   0  0  0  0  0  0  0  0  0  0  0  0
    4.0042   -3.8608   23.2816 H   0  0  0  0  0  0  0  0  0  0  0  0
    4.6847   -5.2101   21.4067 H   0  0  0  0  0  0  0  0  0  0  0  0
  1  2  2  0
  2  3  1  0
  3  4  1  0
  4  5  1  0
  5  6  2  0
  6  7  1  0
  7  8  1  0
  8  9  2  0
  9 10  1  0
 10 11  2  0
 11 12  1  0
 12 13  2  0
 13 14  1  0
 11 15  1  0
 10 16  1  0
  9 17  1  0
  7 18  1  0
 18 19  1  0
 19 20  1  0
 20 21  1  0
 21 22  1  0
 22 23  1  0
 23 24  1  0
 24 25  1  0
 25 26  1  0
 26 27  1  0
 26 28  1  0
 25 29  1  0
 24 30  1  0
 24 31  1  0
 23 32  1  0
 23 33  1  0
 22 34  1  0
 21 35  1  0
 21 36  1  0
 20 37  1  0
 19 38  1  0
 19 39  1  0
 18 40  2  0
  4 41  1  0
 41 42  1  0
 42 43  1  0
 42 44  1  0
 41 45  1  0
 41 46  1  0
  4 47  1  0
  3 48  1  0
  3 49  1  0
  2 50  1  0
  1 51  1  0
 42  1  1  0
 40  5  1  0
 13  8  1  0
 25 20  1  0
 26 22  1  0
M  CHG  1  20   1
M  END
>  <cnnaffinity>  (1) 
-5.7477

>  <filename>  (1) 
C1=CCC(c2nc(C[NH+]3CC4CCC3C4)n(-c3cccnc3)n2)CC1

$$$$
