
     RDKit          3D

 43 46  0  0  0  0  0  0  0  0999 V2000
    5.1444   -4.4347   22.4322 C   0  0  0  0  0  0  0  0  0  0  0  0
    4.9149   -3.5754   23.4304 C   0  0  0  0  0  0  0  0  0  0  0  0
    6.0142   -2.9522   24.2596 C   0  0  0  0  0  0  0  0  0  0  0  0
    7.4105   -3.0618   23.6038 C   0  0  0  0  0  0  0  0  0  0  0  0
    7.6274   -2.0134   22.5398 C   0  0  0  0  0  0  0  0  0  0  0  0
    6.6783   -1.5546   21.7447 N   0  0  0  0  0  0  0  0  0  0  0  0
    7.3391   -0.6959   20.9322 N   0  0  0  0  0  0  0  0  0  0  0  0
    6.6532    0.0006   19.9006 C   0  0  0  0  0  0  0  0  0  0  0  0
    5.4380    0.6418   20.1677 C   0  0  0  0  0  0  0  0  0  0  0  0
    4.8127    1.3102   19.1111 C   0  0  0  0  0  0  0  0  0  0  0  0
    5.4008    1.2951   17.8390 C   0  0  0  0  0  0  0  0  0  0  0  0
    6.5600    0.6725   17.5777 N   0  0  0  0  0  0  0  0  0  0  0  0
    7.1672    0.0511   18.5930 C   0  0  0  0  0  0  0  0  0  0  0  0
    8.1142   -0.4300   18.3645 H   0  0  0  0  0  0  0  0  0  0  0  0
    4.9192    1.7837   16.9948 H   0  0  0  0  0  0  0  0  0  0  0  0
    3.8806    1.8402   19.2616 H   0  0  0  0  0  0  0  0  0  0  0  0
    5.0164    0.6092   21.1754 H   0  0  0  0  0  0  0  0  0  0  0  0
    8.6421   -0.6436   21.3323 C   0  0  0  0  0  0  0  0  0  0  0  0
    9.6640    0.2053   20.6683 C   0  0  0  0  0  0  0  0  0  0  0  0
   10.6834    0.7187   21.6401 C   0  0  0  0  0  0  0  0  0  0  0  0
   11.8712    0.0357   21.8775 C   0  0  0  0  0  0  0  0  0  0  0  0
   12.7279    0.5051   22.8737 C   0  0  0  0  0  0  0  0  0  0  0  0
   12.4733    1.5752   23.6338 N   0  0  0  0  0  0  0  0  0  0  0  0
   11.3162    2.2095   23.4095 C   0  0  0  0  0  0  0  0  0  0  0  0
   10.3918    1.8227   22.4399 C   0  0  0  0  0  0  0  0  0  0  0  0
    9.4600    2.3640   22.3239 H   0  0  0  0  0  0  0  0  0  0  0  0
   11.1180    3.0743   24.0343 H   0  0  0  0  0  0  0  0  0  0  0  0
   13.6666   -0.0049   23.0641 H   0  0  0  0  0  0  0  0  0  0  0  0
   12.1188   -0.8550   21.3125 H   0  0  0  0  0  0  0  0  0  0  0  0
   10.1132   -0.4416   19.9104 H   0  0  0  0  0  0  0  0  0  0  0  0
    9.1900    1.0523   20.1683 H   0  0  0  0  0  0  0  0  0  0  0  0
    8.8570   -1.5042   22.3070 N   0  0  0  0  0  0  0  0  0  0  0  0
    7.6168   -4.4853   23.0285 C   0  0  0  0  0  0  0  0  0  0  0  0
    6.5346   -4.8317   21.9903 C   0  0  0  0  0  0  0  0  0  0  0  0
    6.5628   -5.9053   21.7686 H   0  0  0  0  0  0  0  0  0  0  0  0
    6.7495   -4.3238   21.0409 H   0  0  0  0  0  0  0  0  0  0  0  0
    8.6168   -4.5688   22.5879 H   0  0  0  0  0  0  0  0  0  0  0  0
    7.5794   -5.2042   23.8572 H   0  0  0  0  0  0  0  0  0  0  0  0
    8.1822   -2.8709   24.3544 H   0  0  0  0  0  0  0  0  0  0  0  0
    5.7813   -1.9044   24.4831 H   0  0  0  0  0  0  0  0  0  0  0  0
    6.0370   -3.4553   25.2362 H   0  0  0  0  0  0  0  0  0  0  0  0
    3.8963   -3.2770   23.6699 H   0  0  0  0  0  0  0  0  0  0  0  0
    4.3029   -4.8686   21.8950 H   0  0  0  0  0  0  0  0  0  0  0  0
  1  2  2  0
  2  3  1  0
  3  4  1  0
  4  5  1  0
  5  6  2  0
  6  7  1  0
  7  8  1  0
  8  9  2  0
  9 10  1  0
 10 11  2  0
 11 12  1  0
 12 13  2  0
 13 14  1  0
 11 15  1  0
 10 16  1  0
  9 17  1  0
  7 18  1  0
 18 19  1  0
 19 20  1  0
 20 21  2  0
 21 22  1  0
 22 23  2  0
 23 24  1  0
 24 25  2  0
 25 26  1  0
 24 27  1  0
 22 28  1  0
 21 29  1  0
 19 30  1  0
 19 31  1  0
 18 32  2  0
  4 33  1  0
 33 34  1  0
 34 35  1  0
 34 36  1  0
 33 37  1  0
 33 38  1  0
  4 39  1  0
  3 40  1  0
  3 41  1  0
  2 42  1  0
  1 43  1  0
 34  1  1  0
 32  5  1  0
 13  8  1  0
 25 20  1  0
M  END
>  <cnnaffinity>  (1) 
-6.43831

>  <filename>  (1) 
C1=CCC(c2nc(Cc3ccncc3)n(-c3cccnc3)n2)CC1

$$$$
