
     RDKit          3D

 42 45  0  0  0  0  0  0  0  0999 V2000
    6.0925   -4.9031   25.6241 C   0  0  0  0  0  0  0  0  0  0  0  0
    5.9845   -3.5848   25.8017 C   0  0  0  0  0  0  0  0  0  0  0  0
    6.4661   -2.5696   24.7944 C   0  0  0  0  0  0  0  0  0  0  0  0
    7.3570   -3.2043   23.6864 C   0  0  0  0  0  0  0  0  0  0  0  0
    7.6838   -2.1979   22.6235 C   0  0  0  0  0  0  0  0  0  0  0  0
    6.8417   -1.8037   21.6878 N   0  0  0  0  0  0  0  0  0  0  0  0
    7.5252   -0.8105   21.0501 N   0  0  0  0  0  0  0  0  0  0  0  0
    6.8672   -0.0946   19.9924 C   0  0  0  0  0  0  0  0  0  0  0  0
    5.6537    0.5650   20.2412 C   0  0  0  0  0  0  0  0  0  0  0  0
    5.0364    1.2407   19.1835 C   0  0  0  0  0  0  0  0  0  0  0  0
    5.6233    1.2056   17.9122 C   0  0  0  0  0  0  0  0  0  0  0  0
    6.7696    0.5563   17.6570 N   0  0  0  0  0  0  0  0  0  0  0  0
    7.3738   -0.0676   18.6793 C   0  0  0  0  0  0  0  0  0  0  0  0
    8.3009   -0.5859   18.4367 H   0  0  0  0  0  0  0  0  0  0  0  0
    5.1547    1.7158   17.0714 H   0  0  0  0  0  0  0  0  0  0  0  0
    4.1051    1.7797   19.3274 H   0  0  0  0  0  0  0  0  0  0  0  0
    5.2124    0.5408   21.2412 H   0  0  0  0  0  0  0  0  0  0  0  0
    8.7412   -0.6604   21.6641 C   0  0  0  0  0  0  0  0  0  0  0  0
    9.7399    0.4141   21.3686 C   0  0  0  0  0  0  0  0  0  0  0  0
    9.3009    1.7233   21.9700 C   0  0  0  0  0  0  0  0  0  0  0  0
    9.5290    2.1752   23.2399 C   0  0  0  0  0  0  0  0  0  0  0  0
    8.7453    3.2815   23.4391 N   0  0  0  0  0  0  0  0  0  0  0  0
    8.0036    3.5413   22.3140 C   0  0  0  0  0  0  0  0  0  0  0  0
    8.3361    2.5820   21.3897 C   0  0  0  0  0  0  0  0  0  0  0  0
    7.9111    2.4074   20.4150 H   0  0  0  0  0  0  0  0  0  0  0  0
    7.3027    4.3651   22.2694 H   0  0  0  0  0  0  0  0  0  0  0  0
    8.7074    3.8008   24.3023 H   0  0  0  0  0  0  0  0  0  0  0  0
   10.1615    1.7657   24.0174 H   0  0  0  0  0  0  0  0  0  0  0  0
    9.8333    0.4926   20.2843 H   0  0  0  0  0  0  0  0  0  0  0  0
   10.7013    0.0841   21.7736 H   0  0  0  0  0  0  0  0  0  0  0  0
    8.8647   -1.5267   22.6451 N   0  0  0  0  0  0  0  0  0  0  0  0
    6.7214   -4.5186   23.1865 C   0  0  0  0  0  0  0  0  0  0  0  0
    6.6303   -5.5218   24.3535 C   0  0  0  0  0  0  0  0  0  0  0  0
    6.0090   -6.3776   24.0691 H   0  0  0  0  0  0  0  0  0  0  0  0
    7.6269   -5.9411   24.5614 H   0  0  0  0  0  0  0  0  0  0  0  0
    5.7209   -4.3091   22.7825 H   0  0  0  0  0  0  0  0  0  0  0  0
    7.3040   -4.9538   22.3670 H   0  0  0  0  0  0  0  0  0  0  0  0
    8.3317   -3.4433   24.1307 H   0  0  0  0  0  0  0  0  0  0  0  0
    7.0243   -1.7760   25.3072 H   0  0  0  0  0  0  0  0  0  0  0  0
    5.5987   -2.0703   24.3375 H   0  0  0  0  0  0  0  0  0  0  0  0
    5.4979   -3.1903   26.6935 H   0  0  0  0  0  0  0  0  0  0  0  0
    5.8233   -5.5853   26.4313 H   0  0  0  0  0  0  0  0  0  0  0  0
  1  2  2  0
  2  3  1  0
  3  4  1  0
  4  5  1  0
  5  6  2  0
  6  7  1  0
  7  8  1  0
  8  9  2  0
  9 10  1  0
 10 11  2  0
 11 12  1  0
 12 13  2  0
 13 14  1  0
 11 15  1  0
 10 16  1  0
  9 17  1  0
  7 18  1  0
 18 19  1  0
 19 20  1  0
 20 21  2  0
 21 22  1  0
 22 23  1  0
 23 24  2  0
 24 25  1  0
 23 26  1  0
 22 27  1  0
 21 28  1  0
 19 29  1  0
 19 30  1  0
 18 31  2  0
  4 32  1  0
 32 33  1  0
 33 34  1  0
 33 35  1  0
 32 36  1  0
 32 37  1  0
  4 38  1  0
  3 39  1  0
  3 40  1  0
  2 41  1  0
  1 42  1  0
 33  1  1  0
 31  5  1  0
 13  8  1  0
 24 20  1  0
M  END
>  <cnnaffinity>  (1) 
-6.07121

>  <filename>  (1) 
C1=CCC(c2nc(Cc3cc[nH]c3)n(-c3cccnc3)n2)CC1

$$$$
