
     RDKit          3D

 48 51  0  0  0  0  0  0  0  0999 V2000
    7.7523   -4.5648   26.0541 C   0  0  0  0  0  0  0  0  0  0  0  0
    7.5390   -3.2586   26.2083 C   0  0  0  0  0  0  0  0  0  0  0  0
    7.5028   -2.2796   25.0653 C   0  0  0  0  0  0  0  0  0  0  0  0
    7.3514   -2.9861   23.6909 C   0  0  0  0  0  0  0  0  0  0  0  0
    7.5595   -2.0075   22.5765 C   0  0  0  0  0  0  0  0  0  0  0  0
    6.6272   -1.6132   21.7365 N   0  0  0  0  0  0  0  0  0  0  0  0
    7.2829   -0.7268   20.9376 N   0  0  0  0  0  0  0  0  0  0  0  0
    6.6094   -0.0476   19.8830 C   0  0  0  0  0  0  0  0  0  0  0  0
    5.4000    0.6150   20.1358 C   0  0  0  0  0  0  0  0  0  0  0  0
    4.7960    1.3094   19.0854 C   0  0  0  0  0  0  0  0  0  0  0  0
    5.4033    1.3035   17.8256 C   0  0  0  0  0  0  0  0  0  0  0  0
    6.5445    0.6460   17.5644 N   0  0  0  0  0  0  0  0  0  0  0  0
    7.1297   -0.0097   18.5745 C   0  0  0  0  0  0  0  0  0  0  0  0
    8.0689   -0.5129   18.3398 H   0  0  0  0  0  0  0  0  0  0  0  0
    4.9585    1.8444   16.9948 H   0  0  0  0  0  0  0  0  0  0  0  0
    3.8756    1.8620   19.2372 H   0  0  0  0  0  0  0  0  0  0  0  0
    4.9752    0.5855   21.1374 H   0  0  0  0  0  0  0  0  0  0  0  0
    8.5759   -0.6152   21.3757 C   0  0  0  0  0  0  0  0  0  0  0  0
    9.6043    0.2594   20.7356 C   0  0  0  0  0  0  0  0  0  0  0  0
   10.7120    0.7316   21.7015 C   0  0  0  0  0  0  0  0  0  0  0  0
   11.4599    1.9937   21.2574 C   0  0  0  0  0  0  0  0  0  0  0  0
   12.4293    2.4164   22.3707 C   0  0  0  0  0  0  0  0  0  0  0  0
   13.2674    1.2215   22.8952 C   0  0  0  0  0  0  0  0  0  0  0  0
   13.0678    0.0286   22.1625 O   0  0  0  0  0  0  0  0  0  0  0  0
   11.7199   -0.4018   22.0557 C   0  0  0  0  0  0  0  0  0  0  0  0
   11.7419   -1.1736   21.2743 H   0  0  0  0  0  0  0  0  0  0  0  0
   11.3954   -0.8840   22.9901 H   0  0  0  0  0  0  0  0  0  0  0  0
   13.0594    1.0556   23.9650 H   0  0  0  0  0  0  0  0  0  0  0  0
   14.3376    1.4203   22.8031 H   0  0  0  0  0  0  0  0  0  0  0  0
   11.8582    2.8358   23.2067 H   0  0  0  0  0  0  0  0  0  0  0  0
   13.0949    3.2066   22.0092 H   0  0  0  0  0  0  0  0  0  0  0  0
   12.0206    1.8170   20.3385 H   0  0  0  0  0  0  0  0  0  0  0  0
   10.7436    2.7918   21.0332 H   0  0  0  0  0  0  0  0  0  0  0  0
   10.2047    1.0089   22.6371 H   0  0  0  0  0  0  0  0  0  0  0  0
    9.0919    1.1168   20.2877 H   0  0  0  0  0  0  0  0  0  0  0  0
   10.0278   -0.3272   19.9132 H   0  0  0  0  0  0  0  0  0  0  0  0
    8.7716   -1.4229   22.3926 N   0  0  0  0  0  0  0  0  0  0  0  0
    8.3229   -4.1931   23.6147 C   0  0  0  0  0  0  0  0  0  0  0  0
    8.0010   -5.2183   24.7151 C   0  0  0  0  0  0  0  0  0  0  0  0
    7.1097   -5.7964   24.4320 H   0  0  0  0  0  0  0  0  0  0  0  0
    8.8097   -5.9544   24.8131 H   0  0  0  0  0  0  0  0  0  0  0  0
    9.3487   -3.8250   23.7501 H   0  0  0  0  0  0  0  0  0  0  0  0
    8.2841   -4.6715   22.6288 H   0  0  0  0  0  0  0  0  0  0  0  0
    6.3227   -3.3540   23.6032 H   0  0  0  0  0  0  0  0  0  0  0  0
    6.6897   -1.5585   25.2181 H   0  0  0  0  0  0  0  0  0  0  0  0
    8.4303   -1.6883   25.0726 H   0  0  0  0  0  0  0  0  0  0  0  0
    7.3896   -2.8480   27.2055 H   0  0  0  0  0  0  0  0  0  0  0  0
    7.7289   -5.2177   26.9257 H   0  0  0  0  0  0  0  0  0  0  0  0
  1  2  2  0
  2  3  1  0
  3  4  1  0
  4  5  1  0
  5  6  2  0
  6  7  1  0
  7  8  1  0
  8  9  2  0
  9 10  1  0
 10 11  2  0
 11 12  1  0
 12 13  2  0
 13 14  1  0
 11 15  1  0
 10 16  1  0
  9 17  1  0
  7 18  1  0
 18 19  1  0
 19 20  1  0
 20 21  1  0
 21 22  1  0
 22 23  1  0
 23 24  1  0
 24 25  1  0
 25 26  1  0
 25 27  1  0
 23 28  1  0
 23 29  1  0
 22 30  1  0
 22 31  1  0
 21 32  1  0
 21 33  1  0
 20 34  1  0
 19 35  1  0
 19 36  1  0
 18 37  2  0
  4 38  1  0
 38 39  1  0
 39 40  1  0
 39 41  1  0
 38 42  1  0
 38 43  1  0
  4 44  1  0
  3 45  1  0
  3 46  1  0
  2 47  1  0
  1 48  1  0
 39  1  1  0
 37  5  1  0
 13  8  1  0
 25 20  1  0
M  END
>  <cnnaffinity>  (1) 
-6.41611

>  <filename>  (1) 
C1=CCC(c2nc(CC3CCCOC3)n(-c3cccnc3)n2)CC1

$$$$
