
     RDKit          3D

 32 34  0  0  0  0  0  0  0  0999 V2000
    6.7645   -3.3193   22.9261 H   0  0  0  0  0  0  0  0  0  0  0  0
    7.3467   -2.4940   22.5292 C   0  0  0  0  0  0  0  0  0  0  0  0
    8.6491   -2.3532   22.8085 C   0  0  0  0  0  0  0  0  0  0  0  0
    9.3551   -3.3315   23.5511 N   0  0  0  0  0  0  0  0  0  0  0  0
    8.9714   -4.6590   23.6231 C   0  0  0  0  0  0  0  0  0  0  0  0
    8.2198   -5.0446   22.9488 H   0  0  0  0  0  0  0  0  0  0  0  0
    9.7429   -5.2872   24.5541 C   0  0  0  0  0  0  0  0  0  0  0  0
    9.6385   -6.3182   24.8595 H   0  0  0  0  0  0  0  0  0  0  0  0
   10.6579   -4.3251   25.0673 C   0  0  0  0  0  0  0  0  0  0  0  0
   11.4268   -4.4897   25.8136 H   0  0  0  0  0  0  0  0  0  0  0  0
   10.3931   -3.1424   24.4458 C   0  0  0  0  0  0  0  0  0  0  0  0
   10.8163   -2.1641   24.6158 H   0  0  0  0  0  0  0  0  0  0  0  0
    9.3215   -1.0614   22.4002 C   0  0  0  0  0  0  0  0  0  0  0  0
   10.4110   -1.1444   22.3855 H   0  0  0  0  0  0  0  0  0  0  0  0
    9.0540   -0.2890   23.1371 H   0  0  0  0  0  0  0  0  0  0  0  0
    8.8210   -0.6104   21.0151 C   0  0  0  0  0  0  0  0  0  0  0  0
    9.2278   -1.2721   20.2330 H   0  0  0  0  0  0  0  0  0  0  0  0
    9.2038    0.3978   20.8083 H   0  0  0  0  0  0  0  0  0  0  0  0
    7.3610   -0.5858   20.9529 N   0  0  0  0  0  0  0  0  0  0  0  0
    6.7016    0.0407   19.8915 C   0  0  0  0  0  0  0  0  0  0  0  0
    7.2176    0.1168   18.5678 C   0  0  0  0  0  0  0  0  0  0  0  0
    8.1699   -0.3564   18.3391 H   0  0  0  0  0  0  0  0  0  0  0  0
    6.6035    0.7223   17.5387 N   0  0  0  0  0  0  0  0  0  0  0  0
    5.4246    1.3172   17.7816 C   0  0  0  0  0  0  0  0  0  0  0  0
    4.9527    1.8291   16.9445 H   0  0  0  0  0  0  0  0  0  0  0  0
    4.8103    1.2948   19.0392 C   0  0  0  0  0  0  0  0  0  0  0  0
    3.8574    1.7926   19.1853 H   0  0  0  0  0  0  0  0  0  0  0  0
    5.4426    0.6417   20.1000 C   0  0  0  0  0  0  0  0  0  0  0  0
    4.9979    0.6031   21.0944 H   0  0  0  0  0  0  0  0  0  0  0  0
    6.5755   -1.3669   21.9128 C   0  0  0  0  0  0  0  0  0  0  0  0
    6.2040   -0.7175   22.7262 H   0  0  0  0  0  0  0  0  0  0  0  0
    5.6875   -1.7826   21.4179 H   0  0  0  0  0  0  0  0  0  0  0  0
  1  2  1  0
  2  3  2  0
  3  4  1  0
  4  5  1  0
  5  6  1  0
  5  7  2  0
  7  8  1  0
  7  9  1  0
  9 10  1  0
  9 11  2  0
 11 12  1  0
  3 13  1  0
 13 14  1  0
 13 15  1  0
 13 16  1  0
 16 17  1  0
 16 18  1  0
 16 19  1  0
 19 20  1  0
 20 21  2  0
 21 22  1  0
 21 23  1  0
 23 24  2  0
 24 25  1  0
 24 26  1  0
 26 27  1  0
 26 28  2  0
 28 29  1  0
 19 30  1  0
 30 31  1  0
 30 32  1  0
 30  2  1  0
 11  4  1  0
 28 20  1  0
M  END
>  <cnnaffinity>  (1) 
-4.78703

>  <filename>  (1) 
C1=C(n2cccc2)CCN(c2cccnc2)C1

$$$$
