
     RDKit          3D

 45 48  0  0  0  0  0  0  0  0999 V2000
    7.6822    1.0771   25.1450 C   0  0  0  0  0  0  0  0  0  0  0  0
    6.9941    1.3198   24.0243 C   0  0  0  0  0  0  0  0  0  0  0  0
    7.6640    1.2548   22.6620 C   0  0  0  0  0  0  0  0  0  0  0  0
    7.7317   -0.1462   22.1303 C   0  0  0  0  0  0  0  0  0  0  0  0
    8.3278   -1.1238   22.7814 N   0  0  0  0  0  0  0  0  0  0  0  0
    8.2202   -2.1796   21.9468 C   0  0  0  0  0  0  0  0  0  0  0  0
    8.8175   -3.4903   22.3277 C   0  0  0  0  0  0  0  0  0  0  0  0
    8.7979   -3.8603   23.8363 C   0  0  0  0  0  0  0  0  0  0  0  0
    8.7119   -5.4033   23.8100 C   0  0  0  0  0  0  0  0  0  0  0  0
    8.7274   -5.7994   22.4448 O   0  0  0  0  0  0  0  0  0  0  0  0
    8.1777   -4.7373   21.6920 C   0  0  0  0  0  0  0  0  0  0  0  0
    7.0823   -4.7484   21.8019 H   0  0  0  0  0  0  0  0  0  0  0  0
    8.4124   -4.8933   20.6295 H   0  0  0  0  0  0  0  0  0  0  0  0
    9.5507   -5.9038   24.3122 H   0  0  0  0  0  0  0  0  0  0  0  0
    7.7750   -5.7386   24.2736 H   0  0  0  0  0  0  0  0  0  0  0  0
    9.6982   -3.4950   24.3360 H   0  0  0  0  0  0  0  0  0  0  0  0
    7.9339   -3.4309   24.3567 H   0  0  0  0  0  0  0  0  0  0  0  0
    9.8704   -3.3822   22.0477 H   0  0  0  0  0  0  0  0  0  0  0  0
    7.6459   -1.9174   20.7870 N   0  0  0  0  0  0  0  0  0  0  0  0
    7.3060   -0.6070   20.9181 N   0  0  0  0  0  0  0  0  0  0  0  0
    6.6028    0.0459   19.8736 C   0  0  0  0  0  0  0  0  0  0  0  0
    5.3958    0.7088   20.1175 C   0  0  0  0  0  0  0  0  0  0  0  0
    4.7782    1.3530   19.0416 C   0  0  0  0  0  0  0  0  0  0  0  0
    5.3899    1.3170   17.7864 C   0  0  0  0  0  0  0  0  0  0  0  0
    6.5376    0.6552   17.5460 N   0  0  0  0  0  0  0  0  0  0  0  0
    7.1175    0.0213   18.5680 C   0  0  0  0  0  0  0  0  0  0  0  0
    8.0404   -0.5179   18.3565 H   0  0  0  0  0  0  0  0  0  0  0  0
    4.9461    1.8293   16.9361 H   0  0  0  0  0  0  0  0  0  0  0  0
    3.8441    1.8871   19.1694 H   0  0  0  0  0  0  0  0  0  0  0  0
    4.9546    0.7002   21.1156 H   0  0  0  0  0  0  0  0  0  0  0  0
    8.6992    1.6093   22.7420 H   0  0  0  0  0  0  0  0  0  0  0  0
    7.1615    1.9008   21.9397 H   0  0  0  0  0  0  0  0  0  0  0  0
    5.4861    1.4620   24.0166 C   0  0  0  0  0  0  0  0  0  0  0  0
    4.8790    1.7318   25.4041 C   0  0  0  0  0  0  0  0  0  0  0  0
    5.5236    0.8228   26.4608 C   0  0  0  0  0  0  0  0  0  0  0  0
    7.0498    1.0296   26.5201 C   0  0  0  0  0  0  0  0  0  0  0  0
    7.5188    0.2341   27.1138 H   0  0  0  0  0  0  0  0  0  0  0  0
    7.2859    1.9667   27.0469 H   0  0  0  0  0  0  0  0  0  0  0  0
    5.3122   -0.2281   26.2114 H   0  0  0  0  0  0  0  0  0  0  0  0
    5.0820    0.9995   27.4487 H   0  0  0  0  0  0  0  0  0  0  0  0
    3.7942    1.5714   25.3739 H   0  0  0  0  0  0  0  0  0  0  0  0
    5.0372    2.7840   25.6791 H   0  0  0  0  0  0  0  0  0  0  0  0
    5.0835    0.5183   23.6343 H   0  0  0  0  0  0  0  0  0  0  0  0
    5.1785    2.2356   23.3020 H   0  0  0  0  0  0  0  0  0  0  0  0
    8.7482    0.8586   25.0752 H   0  0  0  0  0  0  0  0  0  0  0  0
  1  2  2  0
  2  3  1  0
  3  4  1  0
  4  5  2  0
  5  6  1  0
  6  7  1  0
  7  8  1  0
  8  9  1  0
  9 10  1  0
 10 11  1  0
 11 12  1  0
 11 13  1  0
  9 14  1  0
  9 15  1  0
  8 16  1  0
  8 17  1  0
  7 18  1  0
  6 19  2  0
 19 20  1  0
 20 21  1  0
 21 22  2  0
 22 23  1  0
 23 24  2  0
 24 25  1  0
 25 26  2  0
 26 27  1  0
 24 28  1  0
 23 29  1  0
 22 30  1  0
  3 31  1  0
  3 32  1  0
  2 33  1  0
 33 34  1  0
 34 35  1  0
 35 36  1  0
 36 37  1  0
 36 38  1  0
 35 39  1  0
 35 40  1  0
 34 41  1  0
 34 42  1  0
 33 43  1  0
 33 44  1  0
  1 45  1  0
 36  1  1  0
 20  4  1  0
 26 21  1  0
 11  7  1  0
M  END
>  <cnnaffinity>  (1) 
-6.35057

>  <filename>  (1) 
C1=C(Cc2nc(C3CCOC3)nn2-c2cccnc2)CCCC1

$$$$
