
     RDKit          3D

 47 50  0  0  0  0  0  0  0  0999 V2000
    7.8866   -4.7037   25.9103 C   0  0  0  0  0  0  0  0  0  0  0  0
    8.4244   -5.0607   24.7404 C   0  0  0  0  0  0  0  0  0  0  0  0
    8.4674   -4.1523   23.5361 C   0  0  0  0  0  0  0  0  0  0  0  0
    7.4597   -2.9785   23.6394 C   0  0  0  0  0  0  0  0  0  0  0  0
    7.6678   -1.9663   22.5555 C   0  0  0  0  0  0  0  0  0  0  0  0
    6.7423   -1.6190   21.6896 N   0  0  0  0  0  0  0  0  0  0  0  0
    7.3614   -0.6690   20.9383 N   0  0  0  0  0  0  0  0  0  0  0  0
    6.6605    0.0089   19.9016 C   0  0  0  0  0  0  0  0  0  0  0  0
    5.4402    0.6441   20.1654 C   0  0  0  0  0  0  0  0  0  0  0  0
    4.8120    1.3105   19.1088 C   0  0  0  0  0  0  0  0  0  0  0  0
    5.4012    1.2962   17.8372 C   0  0  0  0  0  0  0  0  0  0  0  0
    6.5607    0.6741   17.5759 N   0  0  0  0  0  0  0  0  0  0  0  0
    7.1704    0.0560   18.5928 C   0  0  0  0  0  0  0  0  0  0  0  0
    8.1142   -0.4338   18.3691 H   0  0  0  0  0  0  0  0  0  0  0  0
    4.9189    1.7852   16.9930 H   0  0  0  0  0  0  0  0  0  0  0  0
    3.8793    1.8405   19.2606 H   0  0  0  0  0  0  0  0  0  0  0  0
    5.0170    0.6087   21.1730 H   0  0  0  0  0  0  0  0  0  0  0  0
    8.6232   -0.4796   21.4260 C   0  0  0  0  0  0  0  0  0  0  0  0
    9.5205    0.6163   20.9546 C   0  0  0  0  0  0  0  0  0  0  0  0
    9.0440    2.0155   21.3847 C   0  0  0  0  0  0  0  0  0  0  0  0
    9.0197    2.1883   22.9097 C   0  0  0  0  0  0  0  0  0  0  0  0
    8.6414    3.5274   23.3259 N   0  0  0  0  0  0  0  0  0  0  0  0
    9.4626    4.5985   23.4453 C   0  0  0  0  0  0  0  0  0  0  0  0
    8.6654    5.6856   23.7150 C   0  0  0  0  0  0  0  0  0  0  0  0
    7.3552    5.1613   23.7214 C   0  0  0  0  0  0  0  0  0  0  0  0
    7.3528    3.8580   23.4787 N   0  0  0  0  0  0  0  0  0  0  0  0
    6.4186    5.6813   23.8977 H   0  0  0  0  0  0  0  0  0  0  0  0
    8.9738    6.7071   23.8858 H   0  0  0  0  0  0  0  0  0  0  0  0
   10.5349    4.5053   23.3106 H   0  0  0  0  0  0  0  0  0  0  0  0
   10.0105    1.9905   23.3233 H   0  0  0  0  0  0  0  0  0  0  0  0
    8.3362    1.4756   23.3749 H   0  0  0  0  0  0  0  0  0  0  0  0
    8.0423    2.2061   20.9822 H   0  0  0  0  0  0  0  0  0  0  0  0
    9.7177    2.7618   20.9539 H   0  0  0  0  0  0  0  0  0  0  0  0
   10.5245    0.4107   21.3397 H   0  0  0  0  0  0  0  0  0  0  0  0
    9.5902    0.5828   19.8637 H   0  0  0  0  0  0  0  0  0  0  0  0
    8.8481   -1.2975   22.4315 N   0  0  0  0  0  0  0  0  0  0  0  0
    7.5353   -2.3387   25.0453 C   0  0  0  0  0  0  0  0  0  0  0  0
    7.2035   -3.3738   26.1322 C   0  0  0  0  0  0  0  0  0  0  0  0
    6.1180   -3.5441   26.1568 H   0  0  0  0  0  0  0  0  0  0  0  0
    7.4530   -2.9755   27.1228 H   0  0  0  0  0  0  0  0  0  0  0  0
    8.5465   -1.9388   25.1948 H   0  0  0  0  0  0  0  0  0  0  0  0
    6.8503   -1.4857   25.1189 H   0  0  0  0  0  0  0  0  0  0  0  0
    6.4473   -3.3639   23.4884 H   0  0  0  0  0  0  0  0  0  0  0  0
    8.2894   -4.7297   22.6208 H   0  0  0  0  0  0  0  0  0  0  0  0
    9.4836   -3.7475   23.4345 H   0  0  0  0  0  0  0  0  0  0  0  0
    8.8720   -6.0478   24.6314 H   0  0  0  0  0  0  0  0  0  0  0  0
    7.9256   -5.3908   26.7559 H   0  0  0  0  0  0  0  0  0  0  0  0
  1  2  2  0
  2  3  1  0
  3  4  1  0
  4  5  1  0
  5  6  2  0
  6  7  1  0
  7  8  1  0
  8  9  2  0
  9 10  1  0
 10 11  2  0
 11 12  1  0
 12 13  2  0
 13 14  1  0
 11 15  1  0
 10 16  1  0
  9 17  1  0
  7 18  1  0
 18 19  1  0
 19 20  1  0
 20 21  1  0
 21 22  1  0
 22 23  1  0
 23 24  2  0
 24 25  1  0
 25 26  2  0
 25 27  1  0
 24 28  1  0
 23 29  1  0
 21 30  1  0
 21 31  1  0
 20 32  1  0
 20 33  1  0
 19 34  1  0
 19 35  1  0
 18 36  2  0
  4 37  1  0
 37 38  1  0
 38 39  1  0
 38 40  1  0
 37 41  1  0
 37 42  1  0
  4 43  1  0
  3 44  1  0
  3 45  1  0
  2 46  1  0
  1 47  1  0
 38  1  1  0
 36  5  1  0
 13  8  1  0
 26 22  1  0
M  END
>  <cnnaffinity>  (1) 
-6.20191

>  <filename>  (1) 
C1=CCC(c2nc(CCCn3cccn3)n(-c3cccnc3)n2)CC1

$$$$
