
     RDKit          3D

 36 39  0  0  0  0  0  0  0  0999 V2000
    5.8017   -1.3173   22.1878 H   0  0  0  0  0  0  0  0  0  0  0  0
    6.8624   -1.2121   22.0230 C   0  0  0  0  0  0  0  0  0  0  0  0
    7.4164   -0.6610   20.9390 C   0  0  0  0  0  0  0  0  0  0  0  0
    6.6728    0.0275   19.8781 C   0  0  0  0  0  0  0  0  0  0  0  0
    7.1668    0.0792   18.5614 C   0  0  0  0  0  0  0  0  0  0  0  0
    8.1162   -0.4011   18.3205 H   0  0  0  0  0  0  0  0  0  0  0  0
    6.5499    0.6907   17.5438 N   0  0  0  0  0  0  0  0  0  0  0  0
    5.3865    1.3057   17.8051 C   0  0  0  0  0  0  0  0  0  0  0  0
    4.9159    1.8137   16.9648 H   0  0  0  0  0  0  0  0  0  0  0  0
    4.7946    1.3185   19.0731 C   0  0  0  0  0  0  0  0  0  0  0  0
    3.8608    1.8483   19.2256 H   0  0  0  0  0  0  0  0  0  0  0  0
    5.4409    0.6664   20.1220 C   0  0  0  0  0  0  0  0  0  0  0  0
    5.0130    0.6737   21.1243 H   0  0  0  0  0  0  0  0  0  0  0  0
    8.9179   -0.9091   20.9211 C   0  0  0  0  0  0  0  0  0  0  0  0
    9.1865   -1.5943   20.1035 H   0  0  0  0  0  0  0  0  0  0  0  0
    9.4729    0.0171   20.7356 H   0  0  0  0  0  0  0  0  0  0  0  0
    9.2172   -1.5229   22.3187 C   0  0  0  0  0  0  0  0  0  0  0  0
    9.8762   -2.3987   22.2643 H   0  0  0  0  0  0  0  0  0  0  0  0
    9.7105   -0.7922   22.9675 H   0  0  0  0  0  0  0  0  0  0  0  0
    7.8293   -1.8966   22.9357 C   0  0  2  0  0  0  0  0  0  0  0  0
    7.7092   -1.5212   23.9648 H   0  0  0  0  0  0  0  0  0  0  0  0
    7.5809   -3.3940   23.0016 C   0  0  0  0  0  0  0  0  0  0  0  0
    7.4609   -4.1416   21.8320 C   0  0  0  0  0  0  0  0  0  0  0  0
    7.4929   -3.6134   20.8829 H   0  0  0  0  0  0  0  0  0  0  0  0
    7.2720   -5.5337   21.8773 C   0  0  0  0  0  0  0  0  0  0  0  0
    7.1796   -6.0904   20.9498 H   0  0  0  0  0  0  0  0  0  0  0  0
    7.1931   -6.2110   23.0877 C   0  0  0  0  0  0  0  0  0  0  0  0
    7.0255   -7.2808   23.0421 H   0  0  0  0  0  0  0  0  0  0  0  0
    7.3181   -5.4628   24.2823 C   0  0  0  0  0  0  0  0  0  0  0  0
    7.5095   -4.0569   24.2504 C   0  0  0  0  0  0  0  0  0  0  0  0
    7.6091   -3.6095   25.6163 C   0  0  0  0  0  0  0  0  0  0  0  0
    7.7703   -2.5926   25.9629 H   0  0  0  0  0  0  0  0  0  0  0  0
    7.4817   -4.7143   26.4028 C   0  0  0  0  0  0  0  0  0  0  0  0
    7.5060   -4.8018   27.4815 H   0  0  0  0  0  0  0  0  0  0  0  0
    7.3043   -5.8298   25.6140 N   0  0  0  0  0  0  0  0  0  0  0  0
    7.1987   -6.7683   25.9682 H   0  0  0  0  0  0  0  0  0  0  0  0
  1  2  1  0
  2  3  2  0
  3  4  1  0
  4  5  2  0
  5  6  1  0
  5  7  1  0
  7  8  2  0
  8  9  1  0
  8 10  1  0
 10 11  1  0
 10 12  2  0
 12 13  1  0
  3 14  1  0
 14 15  1  0
 14 16  1  0
 14 17  1  0
 17 18  1  0
 17 19  1  0
 17 20  1  0
 20 21  1  1
 20 22  1  0
 22 23  2  0
 23 24  1  0
 23 25  1  0
 25 26  1  0
 25 27  2  0
 27 28  1  0
 27 29  1  0
 29 30  2  0
 30 31  1  0
 31 32  1  0
 31 33  2  0
 33 34  1  0
 33 35  1  0
 35 36  1  0
 20  2  1  0
 30 22  1  0
 12  4  1  0
 35 29  1  0
M  END
>  <cnnaffinity>  (1) 
-5.41261

>  <filename>  (1) 
C1=C(c2cccnc2)CC[C@@H]1c1cccc2[nH]ccc12

$$$$
