
     RDKit          3D

 48 51  0  0  0  0  0  0  0  0999 V2000
    7.6878   -4.3781   26.1597 C   0  0  0  0  0  0  0  0  0  0  0  0
    7.1591   -3.1514   26.1918 C   0  0  0  0  0  0  0  0  0  0  0  0
    7.1699   -2.2106   25.0077 C   0  0  0  0  0  0  0  0  0  0  0  0
    7.4386   -2.9538   23.6625 C   0  0  0  0  0  0  0  0  0  0  0  0
    7.6757   -1.9770   22.5520 C   0  0  0  0  0  0  0  0  0  0  0  0
    6.7394   -1.6088   21.7043 N   0  0  0  0  0  0  0  0  0  0  0  0
    7.3600   -0.6612   20.9502 N   0  0  0  0  0  0  0  0  0  0  0  0
    6.6635    0.0083   19.9037 C   0  0  0  0  0  0  0  0  0  0  0  0
    5.4438    0.6440   20.1612 C   0  0  0  0  0  0  0  0  0  0  0  0
    4.8119    1.3102   19.1071 C   0  0  0  0  0  0  0  0  0  0  0  0
    5.4000    1.2953   17.8371 C   0  0  0  0  0  0  0  0  0  0  0  0
    6.5565    0.6678   17.5776 N   0  0  0  0  0  0  0  0  0  0  0  0
    7.1696    0.0483   18.5921 C   0  0  0  0  0  0  0  0  0  0  0  0
    8.1111   -0.4449   18.3570 H   0  0  0  0  0  0  0  0  0  0  0  0
    4.9290    1.7976   16.9943 H   0  0  0  0  0  0  0  0  0  0  0  0
    3.8780    1.8402   19.2558 H   0  0  0  0  0  0  0  0  0  0  0  0
    5.0212    0.5994   21.1646 H   0  0  0  0  0  0  0  0  0  0  0  0
    8.6313   -0.4843   21.4198 C   0  0  0  0  0  0  0  0  0  0  0  0
    9.5290    0.6104   20.9530 C   0  0  0  0  0  0  0  0  0  0  0  0
    9.0584    2.0084   21.3896 C   0  0  0  0  0  0  0  0  0  0  0  0
    8.9886    2.1747   22.9212 C   0  0  0  0  0  0  0  0  0  0  0  0
   10.2650    1.9803   23.5903 N   0  0  0  0  0  0  0  0  0  0  0  0
   10.6302    0.9079   24.3613 C   0  0  0  0  0  0  0  0  0  0  0  0
   11.9573    1.0351   24.7006 C   0  0  0  0  0  0  0  0  0  0  0  0
   12.4274    2.2210   24.0708 C   0  0  0  0  0  0  0  0  0  0  0  0
   11.3576    2.7830   23.4242 C   0  0  0  0  0  0  0  0  0  0  0  0
   11.2673    3.6952   22.8506 H   0  0  0  0  0  0  0  0  0  0  0  0
   13.4448    2.5946   24.0141 H   0  0  0  0  0  0  0  0  0  0  0  0
   12.5258    0.3660   25.3373 H   0  0  0  0  0  0  0  0  0  0  0  0
    9.9164    0.1085   24.5033 H   0  0  0  0  0  0  0  0  0  0  0  0
    8.2976    1.4387   23.3499 H   0  0  0  0  0  0  0  0  0  0  0  0
    8.6160    3.1763   23.1700 H   0  0  0  0  0  0  0  0  0  0  0  0
    9.7445    2.7557   20.9766 H   0  0  0  0  0  0  0  0  0  0  0  0
    8.0710    2.2230   20.9633 H   0  0  0  0  0  0  0  0  0  0  0  0
   10.5338    0.4148   21.3418 H   0  0  0  0  0  0  0  0  0  0  0  0
    9.5783    0.5614   19.8640 H   0  0  0  0  0  0  0  0  0  0  0  0
    8.8624   -1.3219   22.4086 N   0  0  0  0  0  0  0  0  0  0  0  0
    8.6118   -3.9465   23.8328 C   0  0  0  0  0  0  0  0  0  0  0  0
    8.2869   -4.9943   24.9132 C   0  0  0  0  0  0  0  0  0  0  0  0
    7.5796   -5.7384   24.5118 H   0  0  0  0  0  0  0  0  0  0  0  0
    9.1870   -5.5655   25.1756 H   0  0  0  0  0  0  0  0  0  0  0  0
    9.5158   -3.3819   24.1077 H   0  0  0  0  0  0  0  0  0  0  0  0
    8.8335   -4.4445   22.8817 H   0  0  0  0  0  0  0  0  0  0  0  0
    6.5301   -3.5065   23.3819 H   0  0  0  0  0  0  0  0  0  0  0  0
    7.9465   -1.4418   25.1764 H   0  0  0  0  0  0  0  0  0  0  0  0
    6.2210   -1.6591   24.9565 H   0  0  0  0  0  0  0  0  0  0  0  0
    6.7171   -2.7708   27.1139 H   0  0  0  0  0  0  0  0  0  0  0  0
    7.6773   -4.9979   27.0577 H   0  0  0  0  0  0  0  0  0  0  0  0
  1  2  2  0
  2  3  1  0
  3  4  1  0
  4  5  1  0
  5  6  2  0
  6  7  1  0
  7  8  1  0
  8  9  2  0
  9 10  1  0
 10 11  2  0
 11 12  1  0
 12 13  2  0
 13 14  1  0
 11 15  1  0
 10 16  1  0
  9 17  1  0
  7 18  1  0
 18 19  1  0
 19 20  1  0
 20 21  1  0
 21 22  1  0
 22 23  1  0
 23 24  2  0
 24 25  1  0
 25 26  2  0
 26 27  1  0
 25 28  1  0
 24 29  1  0
 23 30  1  0
 21 31  1  0
 21 32  1  0
 20 33  1  0
 20 34  1  0
 19 35  1  0
 19 36  1  0
 18 37  2  0
  4 38  1  0
 38 39  1  0
 39 40  1  0
 39 41  1  0
 38 42  1  0
 38 43  1  0
  4 44  1  0
  3 45  1  0
  3 46  1  0
  2 47  1  0
  1 48  1  0
 39  1  1  0
 37  5  1  0
 13  8  1  0
 26 22  1  0
M  END
>  <cnnaffinity>  (1) 
-6.37864

>  <filename>  (1) 
C1=CCC(c2nc(CCCn3cccc3)n(-c3cccnc3)n2)CC1

$$$$
