
     RDKit          3D

 40 43  0  0  0  0  0  0  0  0999 V2000
    7.7616   -4.5961   26.0173 C   0  0  0  0  0  0  0  0  0  0  0  0
    7.5450   -3.2892   26.1859 C   0  0  0  0  0  0  0  0  0  0  0  0
    7.5525   -2.2939   25.0501 C   0  0  0  0  0  0  0  0  0  0  0  0
    7.3972   -2.9704   23.6612 C   0  0  0  0  0  0  0  0  0  0  0  0
    7.6266   -1.9986   22.5470 C   0  0  0  0  0  0  0  0  0  0  0  0
    6.6711   -1.5558   21.7569 N   0  0  0  0  0  0  0  0  0  0  0  0
    7.3253   -0.6929   20.9355 N   0  0  0  0  0  0  0  0  0  0  0  0
    6.6488    0.0019   19.9005 C   0  0  0  0  0  0  0  0  0  0  0  0
    5.4357    0.6456   20.1664 C   0  0  0  0  0  0  0  0  0  0  0  0
    4.8122    1.3115   19.1089 C   0  0  0  0  0  0  0  0  0  0  0  0
    5.4019    1.2953   17.8372 C   0  0  0  0  0  0  0  0  0  0  0  0
    6.5600    0.6710   17.5773 N   0  0  0  0  0  0  0  0  0  0  0  0
    7.1660    0.0512   18.5936 C   0  0  0  0  0  0  0  0  0  0  0  0
    8.1135   -0.4283   18.3646 H   0  0  0  0  0  0  0  0  0  0  0  0
    4.9212    1.7844   16.9929 H   0  0  0  0  0  0  0  0  0  0  0  0
    3.8799    1.8409   19.2603 H   0  0  0  0  0  0  0  0  0  0  0  0
    5.0163    0.6095   21.1752 H   0  0  0  0  0  0  0  0  0  0  0  0
    8.6258   -0.6261   21.3326 C   0  0  0  0  0  0  0  0  0  0  0  0
    9.6459    0.2280   20.6804 C   0  0  0  0  0  0  0  0  0  0  0  0
   10.6786    0.6908   21.6506 C   0  0  0  0  0  0  0  0  0  0  0  0
   10.4833    1.7470   22.3882 N   0  0  0  0  0  0  0  0  0  0  0  0
   11.5737    1.8288   23.2311 O   0  0  0  0  0  0  0  0  0  0  0  0
   12.4008    0.8067   22.9726 C   0  0  0  0  0  0  0  0  0  0  0  0
   11.9016    0.0448   21.9720 C   0  0  0  0  0  0  0  0  0  0  0  0
   12.2967   -0.8586   21.5367 H   0  0  0  0  0  0  0  0  0  0  0  0
   13.2944    0.7593   23.5800 H   0  0  0  0  0  0  0  0  0  0  0  0
    9.1858    1.0858   20.1857 H   0  0  0  0  0  0  0  0  0  0  0  0
   10.0994   -0.4188   19.9282 H   0  0  0  0  0  0  0  0  0  0  0  0
    8.8563   -1.4744   22.3068 N   0  0  0  0  0  0  0  0  0  0  0  0
    8.3251   -4.2006   23.5679 C   0  0  0  0  0  0  0  0  0  0  0  0
    7.9774   -5.2263   24.6603 C   0  0  0  0  0  0  0  0  0  0  0  0
    7.0601   -5.7637   24.3821 H   0  0  0  0  0  0  0  0  0  0  0  0
    8.7534   -5.9990   24.7175 H   0  0  0  0  0  0  0  0  0  0  0  0
    9.3650   -3.8658   23.6748 H   0  0  0  0  0  0  0  0  0  0  0  0
    8.2504   -4.6673   22.5793 H   0  0  0  0  0  0  0  0  0  0  0  0
    6.3614   -3.2982   23.5459 H   0  0  0  0  0  0  0  0  0  0  0  0
    6.7663   -1.5436   25.2008 H   0  0  0  0  0  0  0  0  0  0  0  0
    8.4984   -1.7342   25.0725 H   0  0  0  0  0  0  0  0  0  0  0  0
    7.3572   -2.8954   27.1844 H   0  0  0  0  0  0  0  0  0  0  0  0
    7.7847   -5.2593   26.8831 H   0  0  0  0  0  0  0  0  0  0  0  0
  1  2  2  0
  2  3  1  0
  3  4  1  0
  4  5  1  0
  5  6  2  0
  6  7  1  0
  7  8  1  0
  8  9  2  0
  9 10  1  0
 10 11  2  0
 11 12  1  0
 12 13  2  0
 13 14  1  0
 11 15  1  0
 10 16  1  0
  9 17  1  0
  7 18  1  0
 18 19  1  0
 19 20  1  0
 20 21  2  0
 21 22  1  0
 22 23  1  0
 23 24  2  0
 24 25  1  0
 23 26  1  0
 19 27  1  0
 19 28  1  0
 18 29  2  0
  4 30  1  0
 30 31  1  0
 31 32  1  0
 31 33  1  0
 30 34  1  0
 30 35  1  0
  4 36  1  0
  3 37  1  0
  3 38  1  0
  2 39  1  0
  1 40  1  0
 31  1  1  0
 29  5  1  0
 13  8  1  0
 24 20  1  0
M  END
>  <cnnaffinity>  (1) 
-6.24722

>  <filename>  (1) 
C1=CCC(c2nc(Cc3ccon3)n(-c3cccnc3)n2)CC1

$$$$
