
     RDKit          3D

 42 45  0  0  0  0  0  0  0  0999 V2000
    6.0028   -5.3263   25.3520 C   0  0  0  0  0  0  0  0  0  0  0  0
    6.3233   -5.6611   24.1008 C   0  0  0  0  0  0  0  0  0  0  0  0
    6.9704   -4.7196   23.1171 C   0  0  0  0  0  0  0  0  0  0  0  0
    7.3559   -3.3433   23.7288 C   0  0  0  0  0  0  0  0  0  0  0  0
    7.6221   -2.3205   22.6574 C   0  0  0  0  0  0  0  0  0  0  0  0
    6.7504   -2.0669   21.6949 N   0  0  0  0  0  0  0  0  0  0  0  0
    7.3555   -1.0914   20.9771 N   0  0  0  0  0  0  0  0  0  0  0  0
    6.6968   -0.5332   19.8476 C   0  0  0  0  0  0  0  0  0  0  0  0
    5.4208    0.0231   19.9968 C   0  0  0  0  0  0  0  0  0  0  0  0
    4.8611    0.6918   18.9059 C   0  0  0  0  0  0  0  0  0  0  0  0
    5.5680    0.7371   17.6993 C   0  0  0  0  0  0  0  0  0  0  0  0
    6.7584    0.1418   17.5302 N   0  0  0  0  0  0  0  0  0  0  0  0
    7.2955   -0.4952   18.5774 C   0  0  0  0  0  0  0  0  0  0  0  0
    8.2544   -0.9869   18.4062 H   0  0  0  0  0  0  0  0  0  0  0  0
    5.1671    1.2606   16.8363 H   0  0  0  0  0  0  0  0  0  0  0  0
    3.9043    1.1959   18.9874 H   0  0  0  0  0  0  0  0  0  0  0  0
    4.9188   -0.0464   20.9623 H   0  0  0  0  0  0  0  0  0  0  0  0
    8.5354   -0.7639   21.5804 C   0  0  0  0  0  0  0  0  0  0  0  0
    9.3981    0.3686   21.1020 C   0  0  0  0  0  0  0  0  0  0  0  0
    8.8232    1.7276   21.4763 C   0  0  0  0  0  0  0  0  0  0  0  0
    9.3900    2.1807   22.8593 C   0  0  0  0  0  0  0  0  0  0  0  0
    8.7933    3.3005   23.1626 C   0  0  0  0  0  0  0  0  0  0  0  0
    8.9335    3.6198   23.0295 C   0  0  0  0  0  0  0  0  0  0  0  0
    7.8108    2.2528   20.9405 N   0  0  0  0  0  0  0  0  0  0  0  0
    7.5423    1.8298   20.0446 H   0  0  0  0  0  0  0  0  0  0  0  0
    9.3080    4.4308   22.3153 H   0  0  0  0  0  0  0  0  0  0  0  0
    8.1747    4.0186   23.9123 H   0  0  0  0  0  0  0  0  0  0  0  0
    8.7251    1.7715   23.5925 H   0  0  0  0  0  0  0  0  0  0  0  0
    9.5424    0.2753   20.0144 H   0  0  0  0  0  0  0  0  0  0  0  0
   10.3708    0.2610   21.5816 H   0  0  0  0  0  0  0  0  0  0  0  0
    8.7487   -1.5619   22.6125 N   0  0  0  0  0  0  0  0  0  0  0  0
    6.2713   -2.8843   24.7443 C   0  0  0  0  0  0  0  0  0  0  0  0
    6.1250   -3.9152   25.8811 C   0  0  0  0  0  0  0  0  0  0  0  0
    5.2527   -3.6751   26.5037 H   0  0  0  0  0  0  0  0  0  0  0  0
    6.9905   -3.8605   26.5599 H   0  0  0  0  0  0  0  0  0  0  0  0
    5.3125   -2.7739   24.2185 H   0  0  0  0  0  0  0  0  0  0  0  0
    6.5149   -1.9009   25.1641 H   0  0  0  0  0  0  0  0  0  0  0  0
    8.3020   -3.4428   24.2757 H   0  0  0  0  0  0  0  0  0  0  0  0
    7.8582   -5.1997   22.6828 H   0  0  0  0  0  0  0  0  0  0  0  0
    6.2769   -4.5639   22.2795 H   0  0  0  0  0  0  0  0  0  0  0  0
    6.0740   -6.6493   23.7142 H   0  0  0  0  0  0  0  0  0  0  0  0
    5.6453   -6.0901   26.0434 H   0  0  0  0  0  0  0  0  0  0  0  0
  1  2  2  0
  2  3  1  0
  3  4  1  0
  4  5  1  0
  5  6  2  0
  6  7  1  0
  7  8  1  0
  8  9  2  0
  9 10  1  0
 10 11  2  0
 11 12  1  0
 12 13  2  0
 13 14  1  0
 11 15  1  0
 10 16  1  0
  9 17  1  0
  7 18  1  0
 18 19  1  0
 19 20  1  0
 20 21  2  0
 21 22  1  0
 22 23  2  0
 23 24  1  0
 24 25  1  0
 23 26  1  0
 22 27  1  0
 21 28  1  0
 19 29  1  0
 19 30  1  0
 18 31  2  0
  4 32  1  0
 32 33  1  0
 33 34  1  0
 33 35  1  0
 32 36  1  0
 32 37  1  0
  4 38  1  0
  3 39  1  0
  3 40  1  0
  2 41  1  0
  1 42  1  0
 33  1  1  0
 31  5  1  0
 13  8  1  0
 24 20  1  0
M  END
>  <cnnaffinity>  (1) 
-5.80183

>  <filename>  (1) 
C1=CCC(c2nc(Cc3ccc[nH]3)n(-c3cccnc3)n2)CC1

$$$$
