
     RDKit          3D

 43 46  0  0  0  0  0  0  0  0999 V2000
    7.7623   -4.5859   26.0245 C   0  0  0  0  0  0  0  0  0  0  0  0
    7.5334   -3.2801   26.1883 C   0  0  0  0  0  0  0  0  0  0  0  0
    7.5415   -2.2879   25.0501 C   0  0  0  0  0  0  0  0  0  0  0  0
    7.3999   -2.9681   23.6608 C   0  0  0  0  0  0  0  0  0  0  0  0
    7.6362   -1.9952   22.5459 C   0  0  0  0  0  0  0  0  0  0  0  0
    6.6845   -1.5545   21.7519 N   0  0  0  0  0  0  0  0  0  0  0  0
    7.3373   -0.6832   20.9374 N   0  0  0  0  0  0  0  0  0  0  0  0
    6.6519    0.0034   19.9012 C   0  0  0  0  0  0  0  0  0  0  0  0
    5.4364    0.6455   20.1669 C   0  0  0  0  0  0  0  0  0  0  0  0
    4.8123    1.3111   19.1092 C   0  0  0  0  0  0  0  0  0  0  0  0
    5.4019    1.2947   17.8377 C   0  0  0  0  0  0  0  0  0  0  0  0
    6.5609    0.6715   17.5771 N   0  0  0  0  0  0  0  0  0  0  0  0
    7.1673    0.0515   18.5938 C   0  0  0  0  0  0  0  0  0  0  0  0
    8.1152   -0.4290   18.3677 H   0  0  0  0  0  0  0  0  0  0  0  0
    4.9200    1.7836   16.9939 H   0  0  0  0  0  0  0  0  0  0  0  0
    3.8802    1.8409   19.2600 H   0  0  0  0  0  0  0  0  0  0  0  0
    5.0160    0.6103   21.1755 H   0  0  0  0  0  0  0  0  0  0  0  0
    8.6378   -0.6040   21.3489 C   0  0  0  0  0  0  0  0  0  0  0  0
    9.6684    0.2380   20.6986 C   0  0  0  0  0  0  0  0  0  0  0  0
   10.6879    0.7115   21.6918 C   0  0  0  0  0  0  0  0  0  0  0  0
   11.8614   -0.0176   21.9275 C   0  0  0  0  0  0  0  0  0  0  0  0
   12.7595    0.4129   22.9044 C   0  0  0  0  0  0  0  0  0  0  0  0
   12.4404    1.5765   23.6061 C   0  0  0  0  0  0  0  0  0  0  0  0
   11.2493    2.2413   23.2949 C   0  0  0  0  0  0  0  0  0  0  0  0
   10.3786    1.8258   22.3620 N   0  0  0  0  0  0  0  0  0  0  0  0
   10.9786    3.1485   23.8295 H   0  0  0  0  0  0  0  0  0  0  0  0
   13.0962    1.9608   24.3760 H   0  0  0  0  0  0  0  0  0  0  0  0
   13.6724   -0.1460   23.1145 H   0  0  0  0  0  0  0  0  0  0  0  0
   12.0302   -0.9219   21.3579 H   0  0  0  0  0  0  0  0  0  0  0  0
   10.1051   -0.4075   19.9335 H   0  0  0  0  0  0  0  0  0  0  0  0
    9.2070    1.0992   20.2154 H   0  0  0  0  0  0  0  0  0  0  0  0
    8.8653   -1.4624   22.3141 N   0  0  0  0  0  0  0  0  0  0  0  0
    8.3353   -4.1935   23.5768 C   0  0  0  0  0  0  0  0  0  0  0  0
    7.9881   -5.2185   24.6702 C   0  0  0  0  0  0  0  0  0  0  0  0
    8.7696   -5.9849   24.7333 H   0  0  0  0  0  0  0  0  0  0  0  0
    7.0744   -5.7613   24.3889 H   0  0  0  0  0  0  0  0  0  0  0  0
    9.3727   -3.8523   23.6896 H   0  0  0  0  0  0  0  0  0  0  0  0
    8.2670   -4.6632   22.5893 H   0  0  0  0  0  0  0  0  0  0  0  0
    6.3660   -3.3038   23.5421 H   0  0  0  0  0  0  0  0  0  0  0  0
    8.4851   -1.7246   25.0786 H   0  0  0  0  0  0  0  0  0  0  0  0
    6.7492   -1.5426   25.1933 H   0  0  0  0  0  0  0  0  0  0  0  0
    7.3396   -2.8853   27.1852 H   0  0  0  0  0  0  0  0  0  0  0  0
    7.7841   -5.2459   26.8925 H   0  0  0  0  0  0  0  0  0  0  0  0
  1  2  2  0
  2  3  1  0
  3  4  1  0
  4  5  1  0
  5  6  2  0
  6  7  1  0
  7  8  1  0
  8  9  2  0
  9 10  1  0
 10 11  2  0
 11 12  1  0
 12 13  2  0
 13 14  1  0
 11 15  1  0
 10 16  1  0
  9 17  1  0
  7 18  1  0
 18 19  1  0
 19 20  1  0
 20 21  2  0
 21 22  1  0
 22 23  2  0
 23 24  1  0
 24 25  2  0
 24 26  1  0
 23 27  1  0
 22 28  1  0
 21 29  1  0
 19 30  1  0
 19 31  1  0
 18 32  2  0
  4 33  1  0
 33 34  1  0
 34 35  1  0
 34 36  1  0
 33 37  1  0
 33 38  1  0
  4 39  1  0
  3 40  1  0
  3 41  1  0
  2 42  1  0
  1 43  1  0
 34  1  1  0
 32  5  1  0
 13  8  1  0
 25 20  1  0
M  END
>  <cnnaffinity>  (1) 
-6.60487

>  <filename>  (1) 
C1=CCC(c2nc(Cc3ccccn3)n(-c3cccnc3)n2)CC1

$$$$
