
     RDKit          3D

 45 48  0  0  0  0  0  0  0  0999 V2000
   10.7751    3.4546   22.6331 C   0  0  0  0  0  0  0  0  0  0  0  0
   10.6130    2.6586   21.5839 C   0  0  0  0  0  0  0  0  0  0  0  0
    9.3574    1.8415   21.6893 C   0  0  0  0  0  0  0  0  0  0  0  0
    9.5186    0.4516   21.0327 C   0  0  0  0  0  0  0  0  0  0  0  0
    8.5251   -0.5793   21.4399 C   0  0  0  0  0  0  0  0  0  0  0  0
    8.7413   -1.4248   22.4239 N   0  0  0  0  0  0  0  0  0  0  0  0
    7.5542   -2.0789   22.5512 C   0  0  0  0  0  0  0  0  0  0  0  0
    7.3722   -3.0861   23.6462 C   0  0  0  0  0  0  0  0  0  0  0  0
    8.4139   -4.2330   23.5226 C   0  0  0  0  0  0  0  0  0  0  0  0
    8.4369   -5.1284   24.7381 C   0  0  0  0  0  0  0  0  0  0  0  0
    7.8941   -4.7848   25.9107 C   0  0  0  0  0  0  0  0  0  0  0  0
    7.2273   -3.4484   26.1585 C   0  0  0  0  0  0  0  0  0  0  0  0
    7.5164   -2.4272   25.0438 C   0  0  0  0  0  0  0  0  0  0  0  0
    8.5413   -2.0368   25.1397 H   0  0  0  0  0  0  0  0  0  0  0  0
    6.8463   -1.5642   25.1402 H   0  0  0  0  0  0  0  0  0  0  0  0
    6.1402   -3.6085   26.2399 H   0  0  0  0  0  0  0  0  0  0  0  0
    7.5399   -3.0458   27.1326 H   0  0  0  0  0  0  0  0  0  0  0  0
    7.9027   -5.4938   26.7394 H   0  0  0  0  0  0  0  0  0  0  0  0
    8.9514   -6.0846   24.6372 H   0  0  0  0  0  0  0  0  0  0  0  0
    9.4137   -3.7921   23.3871 H   0  0  0  0  0  0  0  0  0  0  0  0
    8.2260   -4.8257   22.6185 H   0  0  0  0  0  0  0  0  0  0  0  0
    6.3578   -3.4974   23.5498 H   0  0  0  0  0  0  0  0  0  0  0  0
    6.6291   -1.7090   21.6890 N   0  0  0  0  0  0  0  0  0  0  0  0
    7.2696   -0.7658   20.9391 N   0  0  0  0  0  0  0  0  0  0  0  0
    6.5996   -0.0779   19.8862 C   0  0  0  0  0  0  0  0  0  0  0  0
    5.3994    0.5928   20.1393 C   0  0  0  0  0  0  0  0  0  0  0  0
    4.8054    1.2972   19.0906 C   0  0  0  0  0  0  0  0  0  0  0  0
    5.4184    1.2909   17.8332 C   0  0  0  0  0  0  0  0  0  0  0  0
    6.5577    0.6303   17.5775 N   0  0  0  0  0  0  0  0  0  0  0  0
    7.1323   -0.0336   18.5855 C   0  0  0  0  0  0  0  0  0  0  0  0
    8.0567   -0.5627   18.3538 H   0  0  0  0  0  0  0  0  0  0  0  0
    4.9855    1.8397   17.0011 H   0  0  0  0  0  0  0  0  0  0  0  0
    3.8898    1.8562   19.2425 H   0  0  0  0  0  0  0  0  0  0  0  0
    4.9626    0.5414   21.1363 H   0  0  0  0  0  0  0  0  0  0  0  0
    9.5181    0.5682   19.9463 H   0  0  0  0  0  0  0  0  0  0  0  0
   10.4986    0.0520   21.3106 H   0  0  0  0  0  0  0  0  0  0  0  0
    9.0582    1.9004   23.2027 C   0  0  0  0  0  0  0  0  0  0  0  0
    9.7470    3.1905   23.6990 C   0  0  0  0  0  0  0  0  0  0  0  0
   10.1870    3.1064   24.7020 H   0  0  0  0  0  0  0  0  0  0  0  0
    9.0235    4.0122   23.7577 H   0  0  0  0  0  0  0  0  0  0  0  0
    7.9819    1.9076   23.3986 H   0  0  0  0  0  0  0  0  0  0  0  0
    9.4892    1.0393   23.7166 H   0  0  0  0  0  0  0  0  0  0  0  0
    8.5484    2.3901   21.1800 H   0  0  0  0  0  0  0  0  0  0  0  0
   11.2354    2.6493   20.6919 H   0  0  0  0  0  0  0  0  0  0  0  0
   11.5007    4.2595   22.6926 H   0  0  0  0  0  0  0  0  0  0  0  0
  1  2  2  0
  2  3  1  0
  3  4  1  0
  4  5  1  0
  5  6  2  0
  6  7  1  0
  7  8  1  0
  8  9  1  0
  9 10  1  0
 10 11  2  0
 11 12  1  0
 12 13  1  0
 13 14  1  0
 13 15  1  0
 12 16  1  0
 12 17  1  0
 11 18  1  0
 10 19  1  0
  9 20  1  0
  9 21  1  0
  8 22  1  0
  7 23  2  0
 23 24  1  0
 24 25  1  0
 25 26  2  0
 26 27  1  0
 27 28  2  0
 28 29  1  0
 29 30  2  0
 30 31  1  0
 28 32  1  0
 27 33  1  0
 26 34  1  0
  4 35  1  0
  4 36  1  0
  3 37  1  0
 37 38  1  0
 38 39  1  0
 38 40  1  0
 37 41  1  0
 37 42  1  0
  3 43  1  0
  2 44  1  0
  1 45  1  0
 38  1  1  0
 24  5  1  0
 30 25  1  0
 13  8  1  0
M  END
>  <cnnaffinity>  (1) 
-6.38082

>  <filename>  (1) 
C1=CC(Cc2nc(C3CC=CCC3)nn2-c2cccnc2)CC1

$$$$
