
     RDKit          3D

 47 50  0  0  0  0  0  0  0  0999 V2000
    5.6513   -4.5645   25.2800 C   0  0  0  0  0  0  0  0  0  0  0  0
    6.0906   -3.3934   25.7444 C   0  0  0  0  0  0  0  0  0  0  0  0
    6.5375   -2.3324   24.7648 C   0  0  0  0  0  0  0  0  0  0  0  0
    7.4369   -2.9554   23.6520 C   0  0  0  0  0  0  0  0  0  0  0  0
    7.6825   -1.9621   22.5585 C   0  0  0  0  0  0  0  0  0  0  0  0
    6.7481   -1.5994   21.6993 N   0  0  0  0  0  0  0  0  0  0  0  0
    7.3754   -0.6594   20.9435 N   0  0  0  0  0  0  0  0  0  0  0  0
    6.6639    0.0091   19.9039 C   0  0  0  0  0  0  0  0  0  0  0  0
    5.4420    0.6407   20.1697 C   0  0  0  0  0  0  0  0  0  0  0  0
    4.8136    1.3082   19.1110 C   0  0  0  0  0  0  0  0  0  0  0  0
    5.4023    1.2953   17.8382 C   0  0  0  0  0  0  0  0  0  0  0  0
    6.5626    0.6747   17.5759 N   0  0  0  0  0  0  0  0  0  0  0  0
    7.1705    0.0566   18.5943 C   0  0  0  0  0  0  0  0  0  0  0  0
    8.1132   -0.4343   18.3704 H   0  0  0  0  0  0  0  0  0  0  0  0
    4.9170    1.7839   16.9944 H   0  0  0  0  0  0  0  0  0  0  0  0
    3.8795    1.8396   19.2620 H   0  0  0  0  0  0  0  0  0  0  0  0
    5.0162    0.6107   21.1766 H   0  0  0  0  0  0  0  0  0  0  0  0
    8.6434   -0.4879   21.4167 C   0  0  0  0  0  0  0  0  0  0  0  0
    9.5455    0.5914   20.9274 C   0  0  0  0  0  0  0  0  0  0  0  0
    9.0620    2.0065   21.2917 C   0  0  0  0  0  0  0  0  0  0  0  0
    8.8932    2.2220   22.8009 C   0  0  0  0  0  0  0  0  0  0  0  0
   10.1152    1.9997   23.5594 N   0  0  0  0  0  0  0  0  0  0  0  0
   10.3933    0.9563   24.4214 C   0  0  0  0  0  0  0  0  0  0  0  0
   11.6794    1.1520   24.8368 C   0  0  0  0  0  0  0  0  0  0  0  0
   12.2044    2.2790   24.2546 N   0  0  0  0  0  0  0  0  0  0  0  0
   11.2501    2.7508   23.4940 C   0  0  0  0  0  0  0  0  0  0  0  0
   11.3198    3.6434   22.8764 H   0  0  0  0  0  0  0  0  0  0  0  0
   12.2538    0.5453   25.5300 H   0  0  0  0  0  0  0  0  0  0  0  0
    9.6718    0.1707   24.6142 H   0  0  0  0  0  0  0  0  0  0  0  0
    8.1422    1.5323   23.1954 H   0  0  0  0  0  0  0  0  0  0  0  0
    8.5256    3.2339   22.9970 H   0  0  0  0  0  0  0  0  0  0  0  0
    8.1091    2.2156   20.7873 H   0  0  0  0  0  0  0  0  0  0  0  0
    9.7887    2.7329   20.9180 H   0  0  0  0  0  0  0  0  0  0  0  0
   10.5290    0.4062   21.3671 H   0  0  0  0  0  0  0  0  0  0  0  0
    9.6353    0.5113   19.8416 H   0  0  0  0  0  0  0  0  0  0  0  0
    8.8674   -1.3153   22.4234 N   0  0  0  0  0  0  0  0  0  0  0  0
    6.9143   -4.3257   23.1079 C   0  0  0  0  0  0  0  0  0  0  0  0
    5.6087   -4.8000   23.7830 C   0  0  0  0  0  0  0  0  0  0  0  0
    4.7642   -4.2457   23.3436 H   0  0  0  0  0  0  0  0  0  0  0  0
    5.4309   -5.8547   23.5592 H   0  0  0  0  0  0  0  0  0  0  0  0
    7.6887   -5.0825   23.2852 H   0  0  0  0  0  0  0  0  0  0  0  0
    6.7651   -4.2848   22.0228 H   0  0  0  0  0  0  0  0  0  0  0  0
    8.4105   -3.1324   24.1115 H   0  0  0  0  0  0  0  0  0  0  0  0
    7.0672   -1.5229   25.2777 H   0  0  0  0  0  0  0  0  0  0  0  0
    5.6649   -1.8722   24.2842 H   0  0  0  0  0  0  0  0  0  0  0  0
    6.1356   -3.1930   26.8149 H   0  0  0  0  0  0  0  0  0  0  0  0
    5.3304   -5.3503   25.9634 H   0  0  0  0  0  0  0  0  0  0  0  0
  1  2  2  0
  2  3  1  0
  3  4  1  0
  4  5  1  0
  5  6  2  0
  6  7  1  0
  7  8  1  0
  8  9  2  0
  9 10  1  0
 10 11  2  0
 11 12  1  0
 12 13  2  0
 13 14  1  0
 11 15  1  0
 10 16  1  0
  9 17  1  0
  7 18  1  0
 18 19  1  0
 19 20  1  0
 20 21  1  0
 21 22  1  0
 22 23  1  0
 23 24  2  0
 24 25  1  0
 25 26  2  0
 26 27  1  0
 24 28  1  0
 23 29  1  0
 21 30  1  0
 21 31  1  0
 20 32  1  0
 20 33  1  0
 19 34  1  0
 19 35  1  0
 18 36  2  0
  4 37  1  0
 37 38  1  0
 38 39  1  0
 38 40  1  0
 37 41  1  0
 37 42  1  0
  4 43  1  0
  3 44  1  0
  3 45  1  0
  2 46  1  0
  1 47  1  0
 38  1  1  0
 36  5  1  0
 13  8  1  0
 26 22  1  0
M  END
>  <cnnaffinity>  (1) 
-6.28578

>  <filename>  (1) 
C1=CCC(c2nc(CCCn3ccnc3)n(-c3cccnc3)n2)CC1

$$$$
