
     RDKit          3D

 43 46  0  0  0  0  0  0  0  0999 V2000
    8.1959    1.4163   25.0907 C   0  0  0  0  0  0  0  0  0  0  0  0
    8.2560    1.6938   23.7890 C   0  0  0  0  0  0  0  0  0  0  0  0
    7.1672    1.2568   22.8335 C   0  0  0  0  0  0  0  0  0  0  0  0
    7.4212   -0.1130   22.2702 C   0  0  0  0  0  0  0  0  0  0  0  0
    7.9131   -1.1233   22.9657 N   0  0  0  0  0  0  0  0  0  0  0  0
    8.0703   -2.1004   22.0428 C   0  0  0  0  0  0  0  0  0  0  0  0
    8.5924   -3.4885   22.3373 C   0  0  0  0  0  0  0  0  0  0  0  0
    7.6105   -4.3733   23.1607 C   0  0  0  0  0  0  0  0  0  0  0  0
    8.5795   -5.2339   23.9859 C   0  0  0  0  0  0  0  0  0  0  0  0
    9.7058   -4.2358   24.2649 C   0  0  0  0  0  0  0  0  0  0  0  0
    9.8201   -3.4792   23.0660 O   0  0  0  0  0  0  0  0  0  0  0  0
   10.6895   -4.6759   24.4583 H   0  0  0  0  0  0  0  0  0  0  0  0
    9.4648   -3.5707   25.1107 H   0  0  0  0  0  0  0  0  0  0  0  0
    8.9579   -6.0693   23.3831 H   0  0  0  0  0  0  0  0  0  0  0  0
    8.1313   -5.6453   24.8961 H   0  0  0  0  0  0  0  0  0  0  0  0
    6.9906   -3.7360   23.8119 H   0  0  0  0  0  0  0  0  0  0  0  0
    6.9303   -4.9451   22.5173 H   0  0  0  0  0  0  0  0  0  0  0  0
    8.7774   -3.9201   21.3446 H   0  0  0  0  0  0  0  0  0  0  0  0
    7.6688   -1.7783   20.8282 N   0  0  0  0  0  0  0  0  0  0  0  0
    7.2149   -0.5099   20.9763 N   0  0  0  0  0  0  0  0  0  0  0  0
    6.5745    0.1395   19.8890 C   0  0  0  0  0  0  0  0  0  0  0  0
    5.3720    0.8313   20.0591 C   0  0  0  0  0  0  0  0  0  0  0  0
    4.7964    1.4208   18.9292 C   0  0  0  0  0  0  0  0  0  0  0  0
    5.4508    1.3097   17.6994 C   0  0  0  0  0  0  0  0  0  0  0  0
    6.5991    0.6289   17.5307 N   0  0  0  0  0  0  0  0  0  0  0  0
    7.1301    0.0326   18.6034 C   0  0  0  0  0  0  0  0  0  0  0  0
    8.0213   -0.5747   18.4528 H   0  0  0  0  0  0  0  0  0  0  0  0
    5.0436    1.7689   16.8016 H   0  0  0  0  0  0  0  0  0  0  0  0
    3.8584    1.9616   18.9980 H   0  0  0  0  0  0  0  0  0  0  0  0
    4.8881    0.8680   21.0379 H   0  0  0  0  0  0  0  0  0  0  0  0
    6.2086    1.2328   23.3686 H   0  0  0  0  0  0  0  0  0  0  0  0
    7.0652    1.9735   22.0145 H   0  0  0  0  0  0  0  0  0  0  0  0
    9.5351    2.2374   23.1870 C   0  0  0  0  0  0  0  0  0  0  0  0
   10.4524    2.8328   24.2604 C   0  0  0  0  0  0  0  0  0  0  0  0
   10.5898    1.9224   25.3392 O   0  0  0  0  0  0  0  0  0  0  0  0
    9.3766    1.6272   26.0106 C   0  0  0  0  0  0  0  0  0  0  0  0
    9.1159    2.4104   26.7400 H   0  0  0  0  0  0  0  0  0  0  0  0
    9.5862    0.7187   26.5828 H   0  0  0  0  0  0  0  0  0  0  0  0
   10.0873    3.8137   24.6138 H   0  0  0  0  0  0  0  0  0  0  0  0
   11.4606    2.9721   23.8615 H   0  0  0  0  0  0  0  0  0  0  0  0
    9.3305    2.9700   22.3979 H   0  0  0  0  0  0  0  0  0  0  0  0
   10.0707    1.3967   22.7272 H   0  0  0  0  0  0  0  0  0  0  0  0
    7.3070    0.9727   25.5347 H   0  0  0  0  0  0  0  0  0  0  0  0
  1  2  2  0
  2  3  1  0
  3  4  1  0
  4  5  2  0
  5  6  1  0
  6  7  1  0
  7  8  1  0
  8  9  1  0
  9 10  1  0
 10 11  1  0
 10 12  1  0
 10 13  1  0
  9 14  1  0
  9 15  1  0
  8 16  1  0
  8 17  1  0
  7 18  1  0
  6 19  2  0
 19 20  1  0
 20 21  1  0
 21 22  2  0
 22 23  1  0
 23 24  2  0
 24 25  1  0
 25 26  2  0
 26 27  1  0
 24 28  1  0
 23 29  1  0
 22 30  1  0
  3 31  1  0
  3 32  1  0
  2 33  1  0
 33 34  1  0
 34 35  1  0
 35 36  1  0
 36 37  1  0
 36 38  1  0
 34 39  1  0
 34 40  1  0
 33 41  1  0
 33 42  1  0
  1 43  1  0
 36  1  1  0
 20  4  1  0
 26 21  1  0
 11  7  1  0
M  END
>  <cnnaffinity>  (1) 
-5.87961

>  <filename>  (1) 
C1=C(Cc2nc(C3CCCO3)nn2-c2cccnc2)CCOC1

$$$$
