
     RDKit          3D

 36 39  0  0  0  0  0  0  0  0999 V2000
    6.5436    3.3700   26.4286 H   0  0  0  0  0  0  0  0  0  0  0  0
    6.3576    2.3611   26.0636 C   0  0  0  0  0  0  0  0  0  0  0  0
    6.5854    2.1829   24.7620 N   0  0  0  0  0  0  0  0  0  0  0  0
    6.4315    0.9451   24.2830 C   0  0  0  0  0  0  0  0  0  0  0  0
    6.6800    0.9255   22.9246 N   0  0  0  0  0  0  0  0  0  0  0  0
    7.0226    1.8736   22.7870 H   0  0  0  0  0  0  0  0  0  0  0  0
    7.3937   -0.1226   22.2954 C   0  0  0  0  0  0  0  0  0  0  0  0
    7.3555   -0.5653   20.9219 C   0  0  0  0  0  0  0  0  0  0  0  0
    6.5925    0.0443   19.8169 C   0  0  0  0  0  0  0  0  0  0  0  0
    7.0984    0.0322   18.5028 C   0  0  0  0  0  0  0  0  0  0  0  0
    8.0175   -0.5061   18.2700 H   0  0  0  0  0  0  0  0  0  0  0  0
    6.5164    0.6611   17.4764 N   0  0  0  0  0  0  0  0  0  0  0  0
    5.3725    1.3202   17.7205 C   0  0  0  0  0  0  0  0  0  0  0  0
    4.9335    1.8409   16.8716 H   0  0  0  0  0  0  0  0  0  0  0  0
    4.7567    1.3542   18.9742 C   0  0  0  0  0  0  0  0  0  0  0  0
    3.8219    1.8882   19.0992 H   0  0  0  0  0  0  0  0  0  0  0  0
    5.3766    0.7141   20.0455 C   0  0  0  0  0  0  0  0  0  0  0  0
    4.9433    0.7301   21.0461 H   0  0  0  0  0  0  0  0  0  0  0  0
    8.1964   -1.5866   20.7265 N   0  0  0  0  0  0  0  0  0  0  0  0
    8.7237   -1.7920   21.9293 N   0  0  0  0  0  0  0  0  0  0  0  0
    8.3348   -0.9428   22.8867 C   0  0  0  0  0  0  0  0  0  0  0  0
    9.0918   -1.2157   24.1557 C   0  0  0  0  0  0  0  0  0  0  0  0
    8.4222   -1.6554   24.8986 H   0  0  0  0  0  0  0  0  0  0  0  0
    9.5276   -0.3262   24.6183 H   0  0  0  0  0  0  0  0  0  0  0  0
   10.1727   -2.2192   23.6773 C   0  0  0  0  0  0  0  0  0  0  0  0
   11.0988   -1.6840   23.4759 H   0  0  0  0  0  0  0  0  0  0  0  0
   10.3691   -2.9973   24.4131 H   0  0  0  0  0  0  0  0  0  0  0  0
    9.6852   -2.7859   22.3278 C   0  0  0  0  0  0  0  0  0  0  0  0
    9.2004   -3.7634   22.4183 H   0  0  0  0  0  0  0  0  0  0  0  0
   10.4802   -2.8312   21.5832 H   0  0  0  0  0  0  0  0  0  0  0  0
    6.0269   -0.1566   25.0520 C   0  0  0  0  0  0  0  0  0  0  0  0
    5.9447   -1.1294   24.5810 H   0  0  0  0  0  0  0  0  0  0  0  0
    5.7706    0.0575   26.4058 C   0  0  0  0  0  0  0  0  0  0  0  0
    5.4651   -0.7687   27.0500 H   0  0  0  0  0  0  0  0  0  0  0  0
    5.9321    1.3473   26.9237 C   0  0  0  0  0  0  0  0  0  0  0  0
    5.7585    1.5733   27.9683 H   0  0  0  0  0  0  0  0  0  0  0  0
  1  2  1  0
  2  3  2  0
  3  4  1  0
  4  5  1  0
  5  6  1  0
  5  7  1  0
  7  8  1  0
  8  9  1  0
  9 10  2  0
 10 11  1  0
 10 12  1  0
 12 13  2  0
 13 14  1  0
 13 15  1  0
 15 16  1  0
 15 17  2  0
 17 18  1  0
  8 19  2  0
 19 20  1  0
 20 21  1  0
 21 22  1  0
 22 23  1  0
 22 24  1  0
 22 25  1  0
 25 26  1  0
 25 27  1  0
 25 28  1  0
 28 29  1  0
 28 30  1  0
  4 31  2  0
 31 32  1  0
 31 33  1  0
 33 34  1  0
 33 35  2  0
 35 36  1  0
 35  2  1  0
 21  7  2  0
 17  9  1  0
 28 20  1  0
M  END
>  <cnnaffinity>  (1) 
-5.78875

>  <filename>  (1) 
c1ccc(Nc2c(-c3cccnc3)nn3c2CCC3)nc1

$$$$
