
     RDKit          3D

 42 44  0  0  0  0  0  0  0  0999 V2000
    5.0036    1.7695   16.9589 H   0  0  0  0  0  0  0  0  0  0  0  0
    5.4153    1.3295   17.8640 C   0  0  0  0  0  0  0  0  0  0  0  0
    6.5944    0.7093   17.7155 N   0  0  0  0  0  0  0  0  0  0  0  0
    7.1365    0.1642   18.8113 C   0  0  0  0  0  0  0  0  0  0  0  0
    8.0851   -0.3564   18.6535 H   0  0  0  0  0  0  0  0  0  0  0  0
    6.5658    0.1947   20.0996 C   0  0  0  0  0  0  0  0  0  0  0  0
    7.2914   -0.5247   21.2353 C   0  0  1  0  0  0  0  0  0  0  0  0
    6.7693   -0.3427   22.1875 H   0  0  0  0  0  0  0  0  0  0  0  0
    7.2887   -2.0363   20.9420 C   0  0  0  0  0  0  0  0  0  0  0  0
    7.7632   -2.0994   19.9651 H   0  0  0  0  0  0  0  0  0  0  0  0
    6.2668   -2.4081   20.8190 H   0  0  0  0  0  0  0  0  0  0  0  0
    8.0740   -2.8858   21.9496 C   0  0  0  0  0  0  0  0  0  0  0  0
    8.1180   -3.9273   21.6004 H   0  0  0  0  0  0  0  0  0  0  0  0
    7.5418   -2.8910   22.9142 H   0  0  0  0  0  0  0  0  0  0  0  0
    9.4997   -2.3466   22.1422 C   0  0  0  0  0  0  0  0  0  0  0  0
   10.0530   -2.4677   21.1969 H   0  0  0  0  0  0  0  0  0  0  0  0
   10.0434   -2.9300   22.8951 H   0  0  0  0  0  0  0  0  0  0  0  0
    9.4996   -0.8538   22.5006 C   0  0  0  0  0  0  0  0  0  0  0  0
   10.5367   -0.4989   22.6049 H   0  0  0  0  0  0  0  0  0  0  0  0
    9.0195   -0.6935   23.4794 H   0  0  0  0  0  0  0  0  0  0  0  0
    8.7728   -0.0490   21.3980 C   0  0  2  0  0  0  0  0  0  0  0  0
    9.3026   -0.2995   20.4634 H   0  0  0  0  0  0  0  0  0  0  0  0
    8.9006    1.4835   21.5433 C   0  0  0  0  0  0  0  0  0  0  0  0
    8.7192    1.9426   20.5659 H   0  0  0  0  0  0  0  0  0  0  0  0
    9.9324    1.7593   21.7922 H   0  0  0  0  0  0  0  0  0  0  0  0
    7.9894    2.1251   22.4747 N   0  0  0  0  0  0  0  0  0  0  0  0
    7.0318    2.0370   22.1616 H   0  0  0  0  0  0  0  0  0  0  0  0
    8.0930    1.9719   23.8512 C   0  0  0  0  0  0  0  0  0  0  0  0
    6.9212    2.0054   24.6302 C   0  0  0  0  0  0  0  0  0  0  0  0
    5.9661    2.1299   24.1249 H   0  0  0  0  0  0  0  0  0  0  0  0
    6.9882    1.8856   26.0193 C   0  0  0  0  0  0  0  0  0  0  0  0
    6.0688    1.9097   26.6034 H   0  0  0  0  0  0  0  0  0  0  0  0
    8.2254    1.7280   26.6546 C   0  0  0  0  0  0  0  0  0  0  0  0
    8.2768    1.6416   27.7382 H   0  0  0  0  0  0  0  0  0  0  0  0
    9.3916    1.6828   25.8795 C   0  0  0  0  0  0  0  0  0  0  0  0
   10.3598    1.5345   26.3515 H   0  0  0  0  0  0  0  0  0  0  0  0
    9.3354    1.8122   24.4909 C   0  0  0  0  0  0  0  0  0  0  0  0
   10.2442    1.7575   23.8945 H   0  0  0  0  0  0  0  0  0  0  0  0
    5.3213    0.8382   20.2236 C   0  0  0  0  0  0  0  0  0  0  0  0
    4.7991    0.8814   21.1825 H   0  0  0  0  0  0  0  0  0  0  0  0
    4.7381    1.4111   19.0835 C   0  0  0  0  0  0  0  0  0  0  0  0
    3.7865    1.9297   19.1238 H   0  0  0  0  0  0  0  0  0  0  0  0
  1  2  1  0
  2  3  2  0
  3  4  1  0
  4  5  1  0
  4  6  2  0
  6  7  1  0
  7  8  1  1
  7  9  1  0
  9 10  1  0
  9 11  1  0
  9 12  1  0
 12 13  1  0
 12 14  1  0
 12 15  1  0
 15 16  1  0
 15 17  1  0
 15 18  1  0
 18 19  1  0
 18 20  1  0
 18 21  1  0
 21 22  1  6
 21 23  1  0
 23 24  1  0
 23 25  1  0
 23 26  1  0
 26 27  1  0
 26 28  1  0
 28 29  2  0
 29 30  1  0
 29 31  1  0
 31 32  1  0
 31 33  2  0
 33 34  1  0
 33 35  1  0
 35 36  1  0
 35 37  2  0
 37 38  1  0
  6 39  1  0
 39 40  1  0
 39 41  2  0
 41 42  1  0
 41  2  1  0
 21  7  1  0
 37 28  1  0
M  END
>  <cnnaffinity>  (1) 
-5.06231

>  <filename>  (1) 
c1ccc(NC[C@H]2CCCC[C@@H]2c2cccnc2)cc1

$$$$
