
     RDKit          3D

 45 48  0  0  0  0  0  0  0  0999 V2000
   14.1596   -1.1840   21.2690 C   0  0  0  0  0  0  0  0  0  0  0  0
   13.1194   -1.9577   20.7776 C   0  0  0  0  0  0  0  0  0  0  0  0
   11.8102   -1.6504   21.1152 C   0  0  0  0  0  0  0  0  0  0  0  0
   11.5078   -0.4825   21.8321 C   0  0  0  0  0  0  0  0  0  0  0  0
   10.0816   -0.1259   21.9780 C   0  0  0  0  0  0  0  0  0  0  0  0
    9.1240   -0.8669   21.4361 N   0  0  0  0  0  0  0  0  0  0  0  0
    7.9956   -0.1999   21.7372 N   0  0  0  0  0  0  0  0  0  0  0  0
    6.7184   -0.6542   21.1918 C   0  0  0  0  0  0  0  0  0  0  0  0
    6.2549    0.1295   19.9776 C   0  0  0  0  0  0  0  0  0  0  0  0
    5.0370    0.8148   19.9415 C   0  0  0  0  0  0  0  0  0  0  0  0
    4.6710    1.4873   18.7717 C   0  0  0  0  0  0  0  0  0  0  0  0
    5.5344    1.4361   17.6738 C   0  0  0  0  0  0  0  0  0  0  0  0
    6.7115    0.7920   17.6867 N   0  0  0  0  0  0  0  0  0  0  0  0
    7.0571    0.1712   18.8218 C   0  0  0  0  0  0  0  0  0  0  0  0
    8.0159   -0.3452   18.8097 H   0  0  0  0  0  0  0  0  0  0  0  0
    5.2739    1.9416   16.7448 H   0  0  0  0  0  0  0  0  0  0  0  0
    3.7408    2.0422   18.6990 H   0  0  0  0  0  0  0  0  0  0  0  0
    4.3788    0.8245   20.8136 H   0  0  0  0  0  0  0  0  0  0  0  0
    5.9570   -0.6270   21.9807 H   0  0  0  0  0  0  0  0  0  0  0  0
    6.8725   -1.7063   20.9298 H   0  0  0  0  0  0  0  0  0  0  0  0
    8.3118    0.9064   22.4528 C   0  0  0  0  0  0  0  0  0  0  0  0
    7.3168    1.8144   23.1096 C   0  0  0  0  0  0  0  0  0  0  0  0
    6.9728    1.3017   24.5384 C   0  0  0  0  0  0  0  0  0  0  0  0
    5.9771    2.0956   25.3505 C   0  0  0  0  0  0  0  0  0  0  0  0
    6.3953    3.1344   26.1990 C   0  0  0  0  0  0  0  0  0  0  0  0
    5.4686    3.7395   27.0503 C   0  0  0  0  0  0  0  0  0  0  0  0
    4.1425    3.3030   26.9939 C   0  0  0  0  0  0  0  0  0  0  0  0
    3.8092    2.3034   26.0773 C   0  0  0  0  0  0  0  0  0  0  0  0
    4.6947    1.7135   25.2662 N   0  0  0  0  0  0  0  0  0  0  0  0
    2.7851    1.9397   26.0022 H   0  0  0  0  0  0  0  0  0  0  0  0
    3.3781    3.7076   27.6469 H   0  0  0  0  0  0  0  0  0  0  0  0
    5.7772    4.5226   27.7448 H   0  0  0  0  0  0  0  0  0  0  0  0
    7.4398    3.4289   26.2056 H   0  0  0  0  0  0  0  0  0  0  0  0
    6.5746    0.2834   24.4512 H   0  0  0  0  0  0  0  0  0  0  0  0
    7.9124    1.2345   25.1025 H   0  0  0  0  0  0  0  0  0  0  0  0
    6.4130    1.8927   22.4905 H   0  0  0  0  0  0  0  0  0  0  0  0
    7.7729    2.8097   23.1555 H   0  0  0  0  0  0  0  0  0  0  0  0
    9.6217    0.9805   22.6140 N   0  0  0  0  0  0  0  0  0  0  0  0
   12.5661    0.3286   22.2965 C   0  0  0  0  0  0  0  0  0  0  0  0
   13.8939   -0.0351   22.0300 C   0  0  0  0  0  0  0  0  0  0  0  0
   14.7141    0.5949   22.3686 H   0  0  0  0  0  0  0  0  0  0  0  0
   12.3574    1.2628   22.8145 H   0  0  0  0  0  0  0  0  0  0  0  0
   10.9923   -2.2814   20.7898 H   0  0  0  0  0  0  0  0  0  0  0  0
   13.3407   -2.7738   20.0941 H   0  0  0  0  0  0  0  0  0  0  0  0
   15.1383   -1.5209   20.9862 H   0  0  0  0  0  0  0  0  0  0  0  0
  1  2  2  0
  2  3  1  0
  3  4  2  0
  4  5  1  0
  5  6  2  0
  6  7  1  0
  7  8  1  0
  8  9  1  0
  9 10  2  0
 10 11  1  0
 11 12  2  0
 12 13  1  0
 13 14  2  0
 14 15  1  0
 12 16  1  0
 11 17  1  0
 10 18  1  0
  8 19  1  0
  8 20  1  0
  7 21  1  0
 21 22  1  0
 22 23  1  0
 23 24  1  0
 24 25  2  0
 25 26  1  0
 26 27  2  0
 27 28  1  0
 28 29  2  0
 28 30  1  0
 27 31  1  0
 26 32  1  0
 25 33  1  0
 23 34  1  0
 23 35  1  0
 22 36  1  0
 22 37  1  0
 21 38  2  0
  4 39  1  0
 39 40  2  0
 40 41  1  0
 39 42  1  0
  3 43  1  0
  2 44  1  0
  1 45  1  0
 40  1  1  0
 38  5  1  0
 14  9  1  0
 29 24  1  0
M  END
>  <cnnaffinity>  (1) 
-6.41188

>  <filename>  (1) 
c1ccc(-c2nc(CCc3ccccn3)n(Cc3cccnc3)n2)cc1

$$$$
