
     RDKit          3D

 42 45  0  0  0  0  0  0  0  0999 V2000
    6.7189    3.4154   27.3612 C   0  0  0  0  0  0  0  0  0  0  0  0
    5.8604    2.4947   26.7513 C   0  0  0  0  0  0  0  0  0  0  0  0
    6.2294    1.8783   25.5569 C   0  0  0  0  0  0  0  0  0  0  0  0
    7.4676    2.1823   24.9573 C   0  0  0  0  0  0  0  0  0  0  0  0
    7.8561    1.5341   23.6903 C   0  0  0  0  0  0  0  0  0  0  0  0
    7.1560    0.5615   23.1224 N   0  0  0  0  0  0  0  0  0  0  0  0
    7.8844    0.2534   22.0318 N   0  0  0  0  0  0  0  0  0  0  0  0
    7.3856   -0.6842   21.0314 C   0  0  0  0  0  0  0  0  0  0  0  0
    6.6538   -0.0044   19.8850 C   0  0  0  0  0  0  0  0  0  0  0  0
    5.4411    0.6506   20.1335 C   0  0  0  0  0  0  0  0  0  0  0  0
    4.7965    1.3082   19.0832 C   0  0  0  0  0  0  0  0  0  0  0  0
    5.3920    1.2979   17.8190 C   0  0  0  0  0  0  0  0  0  0  0  0
    6.5514    0.6742   17.5592 N   0  0  0  0  0  0  0  0  0  0  0  0
    7.1592    0.0503   18.5764 C   0  0  0  0  0  0  0  0  0  0  0  0
    8.1047   -0.4347   18.3224 H   0  0  0  0  0  0  0  0  0  0  0  0
    4.9259    1.8118   16.9781 H   0  0  0  0  0  0  0  0  0  0  0  0
    3.8657    1.8467   19.2309 H   0  0  0  0  0  0  0  0  0  0  0  0
    5.0283    0.6479   21.1439 H   0  0  0  0  0  0  0  0  0  0  0  0
    6.7221   -1.3573   21.5818 H   0  0  0  0  0  0  0  0  0  0  0  0
    8.2264   -1.2791   20.6530 H   0  0  0  0  0  0  0  0  0  0  0  0
    8.9852    1.0331   21.9919 C   0  0  0  0  0  0  0  0  0  0  0  0
   10.0740    0.8448   20.9935 C   0  0  0  0  0  0  0  0  0  0  0  0
   11.0693   -0.2954   21.3600 C   0  0  0  0  0  0  0  0  0  0  0  0
   11.8778    0.0445   22.5793 C   0  0  0  0  0  0  0  0  0  0  0  0
   12.9411    0.8509   22.8106 C   0  0  0  0  0  0  0  0  0  0  0  0
   13.1928    0.9296   24.1753 N   0  0  0  0  0  0  0  0  0  0  0  0
   12.2739    0.1886   24.6954 C   0  0  0  0  0  0  0  0  0  0  0  0
   11.4361   -0.3801   23.8014 O   0  0  0  0  0  0  0  0  0  0  0  0
   12.1010   -0.0488   25.7381 H   0  0  0  0  0  0  0  0  0  0  0  0
   13.5328    1.4077   22.0938 H   0  0  0  0  0  0  0  0  0  0  0  0
   11.7596   -0.4778   20.5349 H   0  0  0  0  0  0  0  0  0  0  0  0
   10.5337   -1.2396   21.5219 H   0  0  0  0  0  0  0  0  0  0  0  0
    9.6083    0.6585   20.0207 H   0  0  0  0  0  0  0  0  0  0  0  0
   10.5947    1.8030   20.9105 H   0  0  0  0  0  0  0  0  0  0  0  0
    8.9819    1.8732   23.0048 N   0  0  0  0  0  0  0  0  0  0  0  0
    8.3301    3.1054   25.5815 C   0  0  0  0  0  0  0  0  0  0  0  0
    7.9514    3.7203   26.7743 C   0  0  0  0  0  0  0  0  0  0  0  0
    8.6159    4.4425   27.2383 H   0  0  0  0  0  0  0  0  0  0  0  0
    9.2893    3.3367   25.1227 H   0  0  0  0  0  0  0  0  0  0  0  0
    5.5719    1.1576   25.0750 H   0  0  0  0  0  0  0  0  0  0  0  0
    4.9023    2.2550   27.2026 H   0  0  0  0  0  0  0  0  0  0  0  0
    6.4281    3.8931   28.2910 H   0  0  0  0  0  0  0  0  0  0  0  0
  1  2  2  0
  2  3  1  0
  3  4  2  0
  4  5  1  0
  5  6  2  0
  6  7  1  0
  7  8  1  0
  8  9  1  0
  9 10  2  0
 10 11  1  0
 11 12  2  0
 12 13  1  0
 13 14  2  0
 14 15  1  0
 12 16  1  0
 11 17  1  0
 10 18  1  0
  8 19  1  0
  8 20  1  0
  7 21  1  0
 21 22  1  0
 22 23  1  0
 23 24  1  0
 24 25  2  0
 25 26  1  0
 26 27  2  0
 27 28  1  0
 27 29  1  0
 25 30  1  0
 23 31  1  0
 23 32  1  0
 22 33  1  0
 22 34  1  0
 21 35  2  0
  4 36  1  0
 36 37  2  0
 37 38  1  0
 36 39  1  0
  3 40  1  0
  2 41  1  0
  1 42  1  0
 37  1  1  0
 35  5  1  0
 14  9  1  0
 28 24  1  0
M  END
>  <cnnaffinity>  (1) 
-5.30479

>  <filename>  (1) 
c1ccc(-c2nc(CCc3cnco3)n(Cc3cccnc3)n2)cc1

$$$$
