
     RDKit          3D

 46 49  0  0  0  0  0  0  0  0999 V2000
   14.6430    4.4157   23.2505 H   0  0  0  0  0  0  0  0  0  0  0  0
   13.6214    4.3522   23.6214 C   0  0  0  0  0  0  0  0  0  0  0  0
   12.8920    3.3191   23.1873 N   0  0  0  0  0  0  0  0  0  0  0  0
   11.6221    3.2401   23.6127 C   0  0  0  0  0  0  0  0  0  0  0  0
   10.9019    2.1178   23.2490 N   0  0  0  0  0  0  0  0  0  0  0  0
   11.0659    1.4933   21.9205 C   0  0  0  0  0  0  0  0  0  0  0  0
   10.4298    1.9914   21.1718 H   0  0  0  0  0  0  0  0  0  0  0  0
   12.1060    1.5959   21.5992 H   0  0  0  0  0  0  0  0  0  0  0  0
   10.6702   -0.0005   21.9512 C   0  0  0  0  0  0  0  0  0  0  0  0
   10.7145   -0.4342   20.9445 H   0  0  0  0  0  0  0  0  0  0  0  0
   11.3824   -0.5457   22.5801 H   0  0  0  0  0  0  0  0  0  0  0  0
    9.3175   -0.2572   22.5113 N   0  0  0  0  0  0  0  0  0  0  0  0
    8.3443    0.3444   21.6240 N   0  0  0  0  0  0  0  0  0  0  0  0
    7.8467    1.1101   22.0885 H   0  0  0  0  0  0  0  0  0  0  0  0
    7.3138   -0.5439   21.0734 C   0  0  0  0  0  0  0  0  0  0  0  0
    6.5945    0.2390   20.0018 C   0  0  0  0  0  0  0  0  0  0  0  0
    7.2092    0.3404   18.7407 C   0  0  0  0  0  0  0  0  0  0  0  0
    8.1995   -0.0884   18.5842 H   0  0  0  0  0  0  0  0  0  0  0  0
    6.6459    0.8999   17.6633 N   0  0  0  0  0  0  0  0  0  0  0  0
    5.4277    1.4364   17.8246 C   0  0  0  0  0  0  0  0  0  0  0  0
    4.9817    1.8831   16.9382 H   0  0  0  0  0  0  0  0  0  0  0  0
    4.7473    1.4516   19.0463 C   0  0  0  0  0  0  0  0  0  0  0  0
    3.7761    1.9272   19.1142 H   0  0  0  0  0  0  0  0  0  0  0  0
    5.3396    0.8476   20.1575 C   0  0  0  0  0  0  0  0  0  0  0  0
    4.8403    0.8481   21.1279 H   0  0  0  0  0  0  0  0  0  0  0  0
    6.4643   -1.3140   22.1306 C   0  0  0  0  0  0  0  0  0  0  0  0
    6.3845   -0.8823   23.1354 H   0  0  0  0  0  0  0  0  0  0  0  0
    5.4769   -1.4929   21.6979 H   0  0  0  0  0  0  0  0  0  0  0  0
    7.3355   -2.5750   21.9346 C   0  0  0  0  0  0  0  0  0  0  0  0
    6.7997   -3.5273   21.8422 H   0  0  0  0  0  0  0  0  0  0  0  0
    8.1314   -2.6497   22.6812 H   0  0  0  0  0  0  0  0  0  0  0  0
    7.8266   -1.9389   20.6234 C   0  0  0  0  0  0  0  0  0  0  0  0
    8.8884   -2.0161   20.3665 H   0  0  0  0  0  0  0  0  0  0  0  0
    7.1763   -2.2591   19.8048 H   0  0  0  0  0  0  0  0  0  0  0  0
    9.2667    0.3298   23.8679 C   0  0  0  0  0  0  0  0  0  0  0  0
    9.9740   -0.2456   24.4725 H   0  0  0  0  0  0  0  0  0  0  0  0
    8.2708    0.1967   24.3101 H   0  0  0  0  0  0  0  0  0  0  0  0
    9.6497    1.8158   23.9543 C   0  0  0  0  0  0  0  0  0  0  0  0
    8.8198    2.4381   23.5769 H   0  0  0  0  0  0  0  0  0  0  0  0
    9.7792    2.0390   25.0198 H   0  0  0  0  0  0  0  0  0  0  0  0
   11.0322    4.2310   24.4404 C   0  0  0  0  0  0  0  0  0  0  0  0
    9.9985    4.1415   24.7450 H   0  0  0  0  0  0  0  0  0  0  0  0
   11.8096    5.2884   24.8800 C   0  0  0  0  0  0  0  0  0  0  0  0
   11.3852    6.0295   25.5568 H   0  0  0  0  0  0  0  0  0  0  0  0
   13.1447    5.3412   24.4819 C   0  0  0  0  0  0  0  0  0  0  0  0
   13.7831    6.1344   24.8312 H   0  0  0  0  0  0  0  0  0  0  0  0
  1  2  1  0
  2  3  2  0
  3  4  1  0
  4  5  1  0
  5  6  1  0
  6  7  1  0
  6  8  1  0
  6  9  1  0
  9 10  1  0
  9 11  1  0
  9 12  1  0
 12 13  1  0
 13 14  1  0
 13 15  1  0
 15 16  1  0
 16 17  2  0
 17 18  1  0
 17 19  1  0
 19 20  2  0
 20 21  1  0
 20 22  1  0
 22 23  1  0
 22 24  2  0
 24 25  1  0
 15 26  1  0
 26 27  1  0
 26 28  1  0
 26 29  1  0
 29 30  1  0
 29 31  1  0
 29 32  1  0
 32 33  1  0
 32 34  1  0
 12 35  1  0
 35 36  1  0
 35 37  1  0
 35 38  1  0
 38 39  1  0
 38 40  1  0
  4 41  2  0
 41 42  1  0
 41 43  1  0
 43 44  1  0
 43 45  2  0
 45 46  1  0
 45  2  1  0
 38  5  1  0
 32 15  1  0
 24 16  1  0
M  END
>  <cnnaffinity>  (1) 
-5.70093

>  <filename>  (1) 
c1ccc(N2CCN(NC3(c4cccnc4)CCC3)CC2)nc1

$$$$
