
     RDKit          3D

 42 45  0  0  0  0  0  0  0  0999 V2000
    5.4726    6.0985   25.3948 H   0  0  0  0  0  0  0  0  0  0  0  0
    6.5384    5.8873   25.4633 C   0  0  0  0  0  0  0  0  0  0  0  0
    7.0008    5.0496   24.5387 N   0  0  0  0  0  0  0  0  0  0  0  0
    8.2892    4.6927   24.6160 C   0  0  0  0  0  0  0  0  0  0  0  0
    8.6806    3.7223   23.7135 N   0  0  0  0  0  0  0  0  0  0  0  0
    8.2528    3.8357   22.3055 C   0  0  0  0  0  0  0  0  0  0  0  0
    8.9214    4.5378   21.7898 H   0  0  0  0  0  0  0  0  0  0  0  0
    7.2474    4.2685   22.2773 H   0  0  0  0  0  0  0  0  0  0  0  0
    8.2329    2.4558   21.6181 C   0  0  0  0  0  0  0  0  0  0  0  0
    7.4261    1.8692   22.0946 H   0  0  0  0  0  0  0  0  0  0  0  0
    7.9807    2.5369   20.5573 H   0  0  0  0  0  0  0  0  0  0  0  0
    9.5371    1.7675   21.7368 N   0  0  0  0  0  0  0  0  0  0  0  0
    9.6020    0.5038   20.9885 C   0  0  0  0  0  0  0  0  0  0  0  0
   10.6144    0.0950   21.0854 H   0  0  0  0  0  0  0  0  0  0  0  0
    9.4569    0.7245   19.9268 H   0  0  0  0  0  0  0  0  0  0  0  0
    8.6302   -0.5759   21.3954 C   0  0  0  0  0  0  0  0  0  0  0  0
    8.8019   -1.4727   22.3389 N   0  0  0  0  0  0  0  0  0  0  0  0
    7.6111   -2.0901   22.4940 N   0  0  0  0  0  0  0  0  0  0  0  0
    6.7357   -1.6233   21.6828 N   0  0  0  0  0  0  0  0  0  0  0  0
    7.3520   -0.6708   20.9459 N   0  0  0  0  0  0  0  0  0  0  0  0
    6.6651    0.0076   19.8969 C   0  0  0  0  0  0  0  0  0  0  0  0
    7.1697    0.0448   18.5845 C   0  0  0  0  0  0  0  0  0  0  0  0
    8.1067   -0.4567   18.3407 H   0  0  0  0  0  0  0  0  0  0  0  0
    6.5544    0.6661   17.5723 N   0  0  0  0  0  0  0  0  0  0  0  0
    5.4003    1.2984   17.8369 C   0  0  0  0  0  0  0  0  0  0  0  0
    4.9307    1.8075   16.9970 H   0  0  0  0  0  0  0  0  0  0  0  0
    4.8092    1.3119   19.1066 C   0  0  0  0  0  0  0  0  0  0  0  0
    3.8745    1.8415   19.2549 H   0  0  0  0  0  0  0  0  0  0  0  0
    5.4491    0.6457   20.1590 C   0  0  0  0  0  0  0  0  0  0  0  0
    5.0258    0.6023   21.1648 H   0  0  0  0  0  0  0  0  0  0  0  0
    9.8323    1.5992   23.1742 C   0  0  0  0  0  0  0  0  0  0  0  0
   10.7903    1.0732   23.2843 H   0  0  0  0  0  0  0  0  0  0  0  0
    9.0530    0.9881   23.6660 H   0  0  0  0  0  0  0  0  0  0  0  0
    9.9201    2.9596   23.8840 C   0  0  0  0  0  0  0  0  0  0  0  0
   10.0876    2.7709   24.9522 H   0  0  0  0  0  0  0  0  0  0  0  0
   10.7898    3.5107   23.4842 H   0  0  0  0  0  0  0  0  0  0  0  0
    9.1853    5.2520   25.5591 C   0  0  0  0  0  0  0  0  0  0  0  0
   10.2294    4.9680   25.4920 H   0  0  0  0  0  0  0  0  0  0  0  0
    8.6905    6.1590   26.4946 C   0  0  0  0  0  0  0  0  0  0  0  0
    9.3506    6.6090   27.2389 H   0  0  0  0  0  0  0  0  0  0  0  0
    7.3228    6.4739   26.4569 C   0  0  0  0  0  0  0  0  0  0  0  0
    6.8580    7.1592   27.1546 H   0  0  0  0  0  0  0  0  0  0  0  0
  1  2  1  0
  2  3  2  0
  3  4  1  0
  4  5  1  0
  5  6  1  0
  6  7  1  0
  6  8  1  0
  6  9  1  0
  9 10  1  0
  9 11  1  0
  9 12  1  0
 12 13  1  0
 13 14  1  0
 13 15  1  0
 13 16  1  0
 16 17  2  0
 17 18  1  0
 18 19  2  0
 19 20  1  0
 20 21  1  0
 21 22  2  0
 22 23  1  0
 22 24  1  0
 24 25  2  0
 25 26  1  0
 25 27  1  0
 27 28  1  0
 27 29  2  0
 29 30  1  0
 12 31  1  0
 31 32  1  0
 31 33  1  0
 31 34  1  0
 34 35  1  0
 34 36  1  0
  4 37  2  0
 37 38  1  0
 37 39  1  0
 39 40  1  0
 39 41  2  0
 41 42  1  0
 41  2  1  0
 34  5  1  0
 20 16  1  0
 29 21  1  0
M  END
>  <cnnaffinity>  (1) 
-5.31988

>  <filename>  (1) 
c1ccc(N2CCN(Cc3nnnn3-c3cccnc3)CC2)nc1

$$$$
