
     RDKit          3D

 43 46  0  0  0  0  0  0  0  0999 V2000
   12.9773    2.3403   23.7091 C   0  0  0  0  0  0  0  0  0  0  0  0
   12.3511    1.1196   23.9681 C   0  0  0  0  0  0  0  0  0  0  0  0
   10.9567    1.0764   23.8888 C   0  0  0  0  0  0  0  0  0  0  0  0
   10.2599    2.2509   23.5686 C   0  0  0  0  0  0  0  0  0  0  0  0
    8.5493    2.1888   23.0589 S   0  0  0  0  0  0  0  0  0  0  0  0
    8.9023    2.0047   21.2755 C   0  0  0  0  0  0  0  0  0  0  0  0
    9.4955    0.6280   20.9196 C   0  0  0  0  0  0  0  0  0  0  0  0
    8.6456   -0.5060   21.4002 C   0  0  0  0  0  0  0  0  0  0  0  0
    8.8798   -1.3669   22.3726 N   0  0  0  0  0  0  0  0  0  0  0  0
    7.6797   -1.9930   22.5274 C   0  0  0  0  0  0  0  0  0  0  0  0
    7.4492   -3.0125   23.5914 C   0  0  0  0  0  0  0  0  0  0  0  0
    6.2588   -2.7481   24.5741 C   0  0  0  0  0  0  0  0  0  0  0  0
    5.5501   -4.0231   24.0579 C   0  0  0  0  0  0  0  0  0  0  0  0
    6.7658   -4.3495   23.1565 C   0  0  0  0  0  0  0  0  0  0  0  0
    6.5478   -4.4243   22.0833 H   0  0  0  0  0  0  0  0  0  0  0  0
    7.3297   -5.2366   23.4637 H   0  0  0  0  0  0  0  0  0  0  0  0
    4.6376   -3.8113   23.4908 H   0  0  0  0  0  0  0  0  0  0  0  0
    5.3083   -4.7708   24.8230 H   0  0  0  0  0  0  0  0  0  0  0  0
    6.5541   -2.7884   25.6277 H   0  0  0  0  0  0  0  0  0  0  0  0
    5.7216   -1.8064   24.4061 H   0  0  0  0  0  0  0  0  0  0  0  0
    8.4156   -3.1352   24.0887 H   0  0  0  0  0  0  0  0  0  0  0  0
    6.7395   -1.5968   21.6929 N   0  0  0  0  0  0  0  0  0  0  0  0
    7.3743   -0.6649   20.9385 N   0  0  0  0  0  0  0  0  0  0  0  0
    6.6821   -0.0058   19.8901 C   0  0  0  0  0  0  0  0  0  0  0  0
    5.4663    0.6276   20.1574 C   0  0  0  0  0  0  0  0  0  0  0  0
    4.8385    1.3037   19.1077 C   0  0  0  0  0  0  0  0  0  0  0  0
    5.4276    1.3062   17.8362 C   0  0  0  0  0  0  0  0  0  0  0  0
    6.5735    0.6630   17.5658 N   0  0  0  0  0  0  0  0  0  0  0  0
    7.1755    0.0218   18.5745 C   0  0  0  0  0  0  0  0  0  0  0  0
    8.0926   -0.5071   18.3300 H   0  0  0  0  0  0  0  0  0  0  0  0
    4.9572    1.8250   17.0024 H   0  0  0  0  0  0  0  0  0  0  0  0
    3.9003    1.8213   19.2637 H   0  0  0  0  0  0  0  0  0  0  0  0
    5.0454    0.5797   21.1631 H   0  0  0  0  0  0  0  0  0  0  0  0
    9.5936    0.5571   19.8327 H   0  0  0  0  0  0  0  0  0  0  0  0
   10.4899    0.5141   21.3564 H   0  0  0  0  0  0  0  0  0  0  0  0
    7.9617    2.1778   20.7420 H   0  0  0  0  0  0  0  0  0  0  0  0
    9.5969    2.7992   20.9857 H   0  0  0  0  0  0  0  0  0  0  0  0
   10.8533    3.4393   23.4387 N   0  0  0  0  0  0  0  0  0  0  0  0
   12.1870    3.4678   23.4864 C   0  0  0  0  0  0  0  0  0  0  0  0
   12.6368    4.4464   23.3229 H   0  0  0  0  0  0  0  0  0  0  0  0
   10.4199    0.1408   23.9307 H   0  0  0  0  0  0  0  0  0  0  0  0
   12.9349    0.2253   24.1889 H   0  0  0  0  0  0  0  0  0  0  0  0
   14.0490    2.4246   23.6700 H   0  0  0  0  0  0  0  0  0  0  0  0
  1  2  2  0
  2  3  1  0
  3  4  2  0
  4  5  1  0
  5  6  1  0
  6  7  1  0
  7  8  1  0
  8  9  2  0
  9 10  1  0
 10 11  1  0
 11 12  1  0
 12 13  1  0
 13 14  1  0
 14 15  1  0
 14 16  1  0
 13 17  1  0
 13 18  1  0
 12 19  1  0
 12 20  1  0
 11 21  1  0
 10 22  2  0
 22 23  1  0
 23 24  1  0
 24 25  2  0
 25 26  1  0
 26 27  2  0
 27 28  1  0
 28 29  2  0
 29 30  1  0
 27 31  1  0
 26 32  1  0
 25 33  1  0
  7 34  1  0
  7 35  1  0
  6 36  1  0
  6 37  1  0
  4 38  1  0
 38 39  2  0
 39 40  1  0
  3 41  1  0
  2 42  1  0
  1 43  1  0
 39  1  1  0
 23  8  1  0
 29 24  1  0
 14 11  1  0
M  END
>  <cnnaffinity>  (1) 
-6.28404

>  <filename>  (1) 
c1ccc(SCCc2nc(C3CCC3)nn2-c2cccnc2)nc1

$$$$
