
     RDKit          3D

 43 46  0  0  0  0  0  0  0  0999 V2000
    7.4003    6.2776   23.4116 C   0  0  0  0  0  0  0  0  0  0  0  0
    8.7780    6.0307   23.4209 C   0  0  0  0  0  0  0  0  0  0  0  0
    9.2540    4.7307   23.2240 C   0  0  0  0  0  0  0  0  0  0  0  0
    8.3641    3.6655   23.0244 C   0  0  0  0  0  0  0  0  0  0  0  0
    8.8754    2.2752   22.7447 C   0  0  0  0  0  0  0  0  0  0  0  0
    9.0305    2.0207   21.2398 C   0  0  0  0  0  0  0  0  0  0  0  0
    9.5362    0.6049   20.9238 C   0  0  0  0  0  0  0  0  0  0  0  0
    8.6318   -0.4627   21.4313 C   0  0  0  0  0  0  0  0  0  0  0  0
    8.8545   -1.2541   22.4594 N   0  0  0  0  0  0  0  0  0  0  0  0
    7.6738   -1.9165   22.5915 C   0  0  0  0  0  0  0  0  0  0  0  0
    7.4753   -2.9610   23.6249 C   0  0  0  0  0  0  0  0  0  0  0  0
    8.4459   -4.1120   23.7092 C   0  0  0  0  0  0  0  0  0  0  0  0
    7.0513   -4.3423   23.2024 C   0  0  0  0  0  0  0  0  0  0  0  0
    6.9093   -4.4915   22.1342 H   0  0  0  0  0  0  0  0  0  0  0  0
    6.3451   -4.8814   23.8284 H   0  0  0  0  0  0  0  0  0  0  0  0
    8.7172   -4.4960   24.6899 H   0  0  0  0  0  0  0  0  0  0  0  0
    9.2659   -4.1115   22.9933 H   0  0  0  0  0  0  0  0  0  0  0  0
    7.0854   -2.5662   24.5603 H   0  0  0  0  0  0  0  0  0  0  0  0
    6.7415   -1.5791   21.7216 N   0  0  0  0  0  0  0  0  0  0  0  0
    7.3693   -0.6596   20.9441 N   0  0  0  0  0  0  0  0  0  0  0  0
    6.6636    0.0095   19.9042 C   0  0  0  0  0  0  0  0  0  0  0  0
    5.4418    0.6412   20.1651 C   0  0  0  0  0  0  0  0  0  0  0  0
    4.8126    1.3084   19.1095 C   0  0  0  0  0  0  0  0  0  0  0  0
    5.4002    1.2960   17.8380 C   0  0  0  0  0  0  0  0  0  0  0  0
    6.5599    0.6739   17.5773 N   0  0  0  0  0  0  0  0  0  0  0  0
    7.1712    0.0552   18.5944 C   0  0  0  0  0  0  0  0  0  0  0  0
    8.1144   -0.4359   18.3683 H   0  0  0  0  0  0  0  0  0  0  0  0
    4.9197    1.7861   16.9942 H   0  0  0  0  0  0  0  0  0  0  0  0
    3.8801    1.8384   19.2596 H   0  0  0  0  0  0  0  0  0  0  0  0
    5.0178    0.6044   21.1719 H   0  0  0  0  0  0  0  0  0  0  0  0
   10.5175    0.4401   21.3793 H   0  0  0  0  0  0  0  0  0  0  0  0
    9.6431    0.4956   19.8433 H   0  0  0  0  0  0  0  0  0  0  0  0
    9.7373    2.7486   20.8324 H   0  0  0  0  0  0  0  0  0  0  0  0
    8.0734    2.1977   20.7305 H   0  0  0  0  0  0  0  0  0  0  0  0
    9.8430    2.1175   23.2386 H   0  0  0  0  0  0  0  0  0  0  0  0
    8.1968    1.5256   23.1728 H   0  0  0  0  0  0  0  0  0  0  0  0
    6.9871    3.9289   22.9997 C   0  0  0  0  0  0  0  0  0  0  0  0
    6.5035    5.2251   23.1961 C   0  0  0  0  0  0  0  0  0  0  0  0
    5.4321    5.4111   23.1742 H   0  0  0  0  0  0  0  0  0  0  0  0
    6.2937    3.1099   22.8093 H   0  0  0  0  0  0  0  0  0  0  0  0
   10.3259    4.5381   23.2117 H   0  0  0  0  0  0  0  0  0  0  0  0
    9.4815    6.8442   23.5794 H   0  0  0  0  0  0  0  0  0  0  0  0
    7.0257    7.2859   23.5668 H   0  0  0  0  0  0  0  0  0  0  0  0
  1  2  2  0
  2  3  1  0
  3  4  2  0
  4  5  1  0
  5  6  1  0
  6  7  1  0
  7  8  1  0
  8  9  2  0
  9 10  1  0
 10 11  1  0
 11 12  1  0
 12 13  1  0
 13 14  1  0
 13 15  1  0
 12 16  1  0
 12 17  1  0
 11 18  1  0
 10 19  2  0
 19 20  1  0
 20 21  1  0
 21 22  2  0
 22 23  1  0
 23 24  2  0
 24 25  1  0
 25 26  2  0
 26 27  1  0
 24 28  1  0
 23 29  1  0
 22 30  1  0
  7 31  1  0
  7 32  1  0
  6 33  1  0
  6 34  1  0
  5 35  1  0
  5 36  1  0
  4 37  1  0
 37 38  2  0
 38 39  1  0
 37 40  1  0
  3 41  1  0
  2 42  1  0
  1 43  1  0
 38  1  1  0
 20  8  1  0
 26 21  1  0
 13 11  1  0
M  END
>  <cnnaffinity>  (1) 
-5.74853

>  <filename>  (1) 
c1ccc(CCCc2nc(C3CC3)nn2-c2cccnc2)cc1

$$$$
