
     RDKit          3D

 46 50  0  0  0  0  0  0  0  0999 V2000
   13.8078   -0.3983   22.5022 C   0  0  0  0  0  0  0  0  0  0  0  0
   13.0477   -1.4468   21.9706 C   0  0  0  0  0  0  0  0  0  0  0  0
   11.6756   -1.2952   21.7787 C   0  0  0  0  0  0  0  0  0  0  0  0
   11.0540   -0.0749   22.1194 C   0  0  0  0  0  0  0  0  0  0  0  0
    9.5815    0.0597   22.0128 C   0  0  0  0  0  0  0  0  0  0  0  0
    8.7891   -0.8535   21.4718 N   0  0  0  0  0  0  0  0  0  0  0  0
    7.5529   -0.3208   21.6179 N   0  0  0  0  0  0  0  0  0  0  0  0
    6.4007   -0.9030   20.9287 C   0  0  0  0  0  0  0  0  0  0  0  0
    5.9971   -0.1185   19.6923 C   0  0  0  0  0  0  0  0  0  0  0  0
    4.7942    0.5879   19.5807 C   0  0  0  0  0  0  0  0  0  0  0  0
    4.5848    1.3939   18.4568 C   0  0  0  0  0  0  0  0  0  0  0  0
    5.5791    1.4535   17.4767 C   0  0  0  0  0  0  0  0  0  0  0  0
    6.7117    0.7371   17.5367 N   0  0  0  0  0  0  0  0  0  0  0  0
    6.9020   -0.0275   18.6188 C   0  0  0  0  0  0  0  0  0  0  0  0
    7.8265   -0.6068   18.6311 H   0  0  0  0  0  0  0  0  0  0  0  0
    5.4605    2.0963   16.6039 H   0  0  0  0  0  0  0  0  0  0  0  0
    3.6786    1.9761   18.3321 H   0  0  0  0  0  0  0  0  0  0  0  0
    4.0231    0.5060   20.3515 H   0  0  0  0  0  0  0  0  0  0  0  0
    5.5794   -0.9530   21.6493 H   0  0  0  0  0  0  0  0  0  0  0  0
    6.6949   -1.9267   20.6746 H   0  0  0  0  0  0  0  0  0  0  0  0
    7.6561    0.8707   22.2419 C   0  0  0  0  0  0  0  0  0  0  0  0
    6.5249    1.6105   22.8763 C   0  0  0  0  0  0  0  0  0  0  0  0
    6.3590    1.0656   24.2658 C   0  0  0  0  0  0  0  0  0  0  0  0
    5.3355    0.3222   24.5846 N   0  0  0  0  0  0  0  0  0  0  0  0
    5.6028   -0.1738   25.8453 O   0  0  0  0  0  0  0  0  0  0  0  0
    6.7966    0.2807   26.2608 C   0  0  0  0  0  0  0  0  0  0  0  0
    7.3487   -0.2367   27.5152 C   0  0  0  0  0  0  0  0  0  0  0  0
    8.8576   -0.3008   27.6592 C   0  0  0  0  0  0  0  0  0  0  0  0
    8.0827    0.6990   28.4499 C   0  0  0  0  0  0  0  0  0  0  0  0
    8.1506    1.7423   28.1483 H   0  0  0  0  0  0  0  0  0  0  0  0
    7.9500    0.5519   29.5172 H   0  0  0  0  0  0  0  0  0  0  0  0
    9.2935   -1.1655   28.1468 H   0  0  0  0  0  0  0  0  0  0  0  0
    9.4467    0.0760   26.8227 H   0  0  0  0  0  0  0  0  0  0  0  0
    6.7652   -1.0373   27.9603 H   0  0  0  0  0  0  0  0  0  0  0  0
    7.3053    1.1125   25.3157 C   0  0  0  0  0  0  0  0  0  0  0  0
    8.2463    1.6419   25.2839 H   0  0  0  0  0  0  0  0  0  0  0  0
    6.8063    2.6658   22.9072 H   0  0  0  0  0  0  0  0  0  0  0  0
    5.6028    1.4912   22.3042 H   0  0  0  0  0  0  0  0  0  0  0  0
    8.9188    1.1517   22.4779 N   0  0  0  0  0  0  0  0  0  0  0  0
   11.8311    0.9945   22.6131 C   0  0  0  0  0  0  0  0  0  0  0  0
   13.2017    0.8271   22.8163 C   0  0  0  0  0  0  0  0  0  0  0  0
   13.7837    1.6473   23.2362 H   0  0  0  0  0  0  0  0  0  0  0  0
   11.3490    1.9486   22.8370 H   0  0  0  0  0  0  0  0  0  0  0  0
   11.0569   -2.0964   21.3732 H   0  0  0  0  0  0  0  0  0  0  0  0
   13.5255   -2.3965   21.7322 H   0  0  0  0  0  0  0  0  0  0  0  0
   14.8729   -0.5429   22.6484 H   0  0  0  0  0  0  0  0  0  0  0  0
  1  2  2  0
  2  3  1  0
  3  4  2  0
  4  5  1  0
  5  6  2  0
  6  7  1  0
  7  8  1  0
  8  9  1  0
  9 10  2  0
 10 11  1  0
 11 12  2  0
 12 13  1  0
 13 14  2  0
 14 15  1  0
 12 16  1  0
 11 17  1  0
 10 18  1  0
  8 19  1  0
  8 20  1  0
  7 21  1  0
 21 22  1  0
 22 23  1  0
 23 24  2  0
 24 25  1  0
 25 26  1  0
 26 27  1  0
 27 28  1  0
 28 29  1  0
 29 30  1  0
 29 31  1  0
 28 32  1  0
 28 33  1  0
 27 34  1  0
 26 35  2  0
 35 36  1  0
 22 37  1  0
 22 38  1  0
 21 39  2  0
  4 40  1  0
 40 41  2  0
 41 42  1  0
 40 43  1  0
  3 44  1  0
  2 45  1  0
  1 46  1  0
 41  1  1  0
 39  5  1  0
 14  9  1  0
 35 23  1  0
 29 27  1  0
M  END
>  <cnnaffinity>  (1) 
-5.74925

>  <filename>  (1) 
c1ccc(-c2nc(Cc3cc(C4CC4)on3)n(Cc3cccnc3)n2)cc1

$$$$
