
     RDKit          3D

 45 48  0  0  0  0  0  0  0  0999 V2000
    8.3027    4.0393   23.0329 C   0  0  0  0  0  0  0  0  0  0  0  0
    8.3936    4.2525   22.8533 C   0  0  0  0  0  0  0  0  0  0  0  0
    8.0618    2.6145   21.6706 C   0  0  0  0  0  0  0  0  0  0  0  0
    9.0792    1.7557   22.0127 C   0  0  0  0  0  0  0  0  0  0  0  0
    9.5108    0.4996   21.2720 C   0  0  0  0  0  0  0  0  0  0  0  0
    8.6245   -0.6391   21.6314 C   0  0  0  0  0  0  0  0  0  0  0  0
    8.7826   -1.3888   22.6961 N   0  0  0  0  0  0  0  0  0  0  0  0
    7.6986   -2.2159   22.6692 C   0  0  0  0  0  0  0  0  0  0  0  0
    7.4051   -3.2198   23.7601 C   0  0  0  0  0  0  0  0  0  0  0  0
    7.0622   -2.4663   25.0902 C   0  0  0  0  0  0  0  0  0  0  0  0
    7.4390   -3.2648   26.3477 C   0  0  0  0  0  0  0  0  0  0  0  0
    8.9503   -3.6125   26.3913 C   0  0  0  0  0  0  0  0  0  0  0  0
    9.5869   -3.7745   24.9882 C   0  0  0  0  0  0  0  0  0  0  0  0
    8.5595   -4.2514   23.9511 C   0  0  0  0  0  0  0  0  0  0  0  0
    8.1267   -5.2043   24.2924 H   0  0  0  0  0  0  0  0  0  0  0  0
    9.0414   -4.4654   22.9901 H   0  0  0  0  0  0  0  0  0  0  0  0
   10.4304   -4.4724   25.0349 H   0  0  0  0  0  0  0  0  0  0  0  0
    9.9918   -2.8125   24.6481 H   0  0  0  0  0  0  0  0  0  0  0  0
    9.4965   -2.8328   26.9370 H   0  0  0  0  0  0  0  0  0  0  0  0
    9.0777   -4.5373   26.9693 H   0  0  0  0  0  0  0  0  0  0  0  0
    7.1599   -2.6973   27.2438 H   0  0  0  0  0  0  0  0  0  0  0  0
    6.8476   -4.1907   26.3803 H   0  0  0  0  0  0  0  0  0  0  0  0
    5.9937   -2.2170   25.1000 H   0  0  0  0  0  0  0  0  0  0  0  0
    7.6042   -1.5086   25.1134 H   0  0  0  0  0  0  0  0  0  0  0  0
    6.5196   -3.7668   23.4185 H   0  0  0  0  0  0  0  0  0  0  0  0
    6.8811   -2.0084   21.6602 N   0  0  0  0  0  0  0  0  0  0  0  0
    7.4811   -0.9921   20.9763 N   0  0  0  0  0  0  0  0  0  0  0  0
    6.7990   -0.3480   19.8984 C   0  0  0  0  0  0  0  0  0  0  0  0
    5.6088    0.3453   20.1444 C   0  0  0  0  0  0  0  0  0  0  0  0
    5.0106    1.0296   19.0829 C   0  0  0  0  0  0  0  0  0  0  0  0
    5.6111    0.9811   17.8182 C   0  0  0  0  0  0  0  0  0  0  0  0
    6.7271    0.2813   17.5651 N   0  0  0  0  0  0  0  0  0  0  0  0
    7.2965   -0.3777   18.5838 C   0  0  0  0  0  0  0  0  0  0  0  0
    8.1892   -0.9564   18.3457 H   0  0  0  0  0  0  0  0  0  0  0  0
    5.1752    1.5185   16.9785 H   0  0  0  0  0  0  0  0  0  0  0  0
    4.0961    1.5958   19.2262 H   0  0  0  0  0  0  0  0  0  0  0  0
    5.1710    0.3334   21.1450 H   0  0  0  0  0  0  0  0  0  0  0  0
   10.5199    0.2345   21.6043 H   0  0  0  0  0  0  0  0  0  0  0  0
    9.5214    0.6196   20.1809 H   0  0  0  0  0  0  0  0  0  0  0  0
    9.8017    2.0609   23.1443 N   0  0  0  0  0  0  0  0  0  0  0  0
    9.2324    3.2025   23.7436 C   0  0  0  0  0  0  0  0  0  0  0  0
    8.3957    2.9639   24.3436 H   0  0  0  0  0  0  0  0  0  0  0  0
    7.3153    2.4807   20.8919 H   0  0  0  0  0  0  0  0  0  0  0  0
    8.7495    4.9285   21.8911 H   0  0  0  0  0  0  0  0  0  0  0  0
    7.3320    4.6817   23.4072 H   0  0  0  0  0  0  0  0  0  0  0  0
  1  2  2  0
  2  3  1  0
  3  4  2  0
  4  5  1  0
  5  6  1  0
  6  7  2  0
  7  8  1  0
  8  9  1  0
  9 10  1  0
 10 11  1  0
 11 12  1  0
 12 13  1  0
 13 14  1  0
 14 15  1  0
 14 16  1  0
 13 17  1  0
 13 18  1  0
 12 19  1  0
 12 20  1  0
 11 21  1  0
 11 22  1  0
 10 23  1  0
 10 24  1  0
  9 25  1  0
  8 26  2  0
 26 27  1  0
 27 28  1  0
 28 29  2  0
 29 30  1  0
 30 31  2  0
 31 32  1  0
 32 33  2  0
 33 34  1  0
 31 35  1  0
 30 36  1  0
 29 37  1  0
  5 38  1  0
  5 39  1  0
  4 40  1  0
 40 41  2  0
 41 42  1  0
  3 43  1  0
  2 44  1  0
  1 45  1  0
 41  1  1  0
 27  6  1  0
 33 28  1  0
 14  9  1  0
M  END
>  <cnnaffinity>  (1) 
-6.20288

>  <filename>  (1) 
c1ccc(Cc2nc(C3CCCCC3)nn2-c2cccnc2)nc1

$$$$
