
     RDKit          3D

 42 46  0  0  0  0  0  0  0  0999 V2000
    4.9420    1.8003   16.9450 H   0  0  0  0  0  0  0  0  0  0  0  0
    5.4238    1.3072   17.7822 C   0  0  0  0  0  0  0  0  0  0  0  0
    6.5880    0.6949   17.5203 N   0  0  0  0  0  0  0  0  0  0  0  0
    7.2177    0.1040   18.5405 C   0  0  0  0  0  0  0  0  0  0  0  0
    8.1546   -0.3970   18.2984 H   0  0  0  0  0  0  0  0  0  0  0  0
    6.7173    0.0825   19.8551 C   0  0  0  0  0  0  0  0  0  0  0  0
    7.4129   -0.6669   20.9168 C   0  0  0  0  0  0  0  0  0  0  0  0
    8.6349   -1.1985   20.7513 N   0  0  0  0  0  0  0  0  0  0  0  0
    8.8130   -1.8917   21.9008 N   0  0  0  0  0  0  0  0  0  0  0  0
    9.7754   -2.7680   22.3846 C   0  0  0  0  0  0  0  0  0  0  0  0
   10.7199   -2.8770   21.8811 H   0  0  0  0  0  0  0  0  0  0  0  0
    9.2485   -3.3310   23.5001 C   0  0  0  0  0  0  0  0  0  0  0  0
    9.6450   -4.1079   24.1380 H   0  0  0  0  0  0  0  0  0  0  0  0
    7.9947   -2.7588   23.7540 N   0  0  0  0  0  0  0  0  0  0  0  0
    7.0699   -3.0478   24.7965 C   0  0  0  0  0  0  0  0  0  0  0  0
    6.8735   -4.3698   25.2198 C   0  0  0  0  0  0  0  0  0  0  0  0
    7.4565   -5.1689   24.7703 H   0  0  0  0  0  0  0  0  0  0  0  0
    5.8914   -4.6570   26.1704 C   0  0  0  0  0  0  0  0  0  0  0  0
    5.7197   -5.6883   26.4693 H   0  0  0  0  0  0  0  0  0  0  0  0
    5.1131   -3.6322   26.7158 C   0  0  0  0  0  0  0  0  0  0  0  0
    4.3253   -3.8759   27.4255 H   0  0  0  0  0  0  0  0  0  0  0  0
    5.2999   -2.2942   26.3138 C   0  0  0  0  0  0  0  0  0  0  0  0
    4.4421   -1.2047   26.8898 C   0  0  0  0  0  0  0  0  0  0  0  0
    3.9107   -0.1769   26.0843 C   0  0  0  0  0  0  0  0  0  0  0  0
    4.1142   -0.1728   25.0173 H   0  0  0  0  0  0  0  0  0  0  0  0
    3.1086    0.8312   26.6305 C   0  0  0  0  0  0  0  0  0  0  0  0
    2.7135    1.6191   25.9937 H   0  0  0  0  0  0  0  0  0  0  0  0
    2.8242    0.8360   27.9994 C   0  0  0  0  0  0  0  0  0  0  0  0
    2.2095    1.6236   28.4283 H   0  0  0  0  0  0  0  0  0  0  0  0
    3.3382   -0.1756   28.8167 C   0  0  0  0  0  0  0  0  0  0  0  0
    3.1197   -0.1786   29.8820 H   0  0  0  0  0  0  0  0  0  0  0  0
    4.1320   -1.1862   28.2653 C   0  0  0  0  0  0  0  0  0  0  0  0
    4.5354   -1.9587   28.9166 H   0  0  0  0  0  0  0  0  0  0  0  0
    6.2857   -2.0183   25.3492 C   0  0  0  0  0  0  0  0  0  0  0  0
    6.4425   -1.0004   24.9976 H   0  0  0  0  0  0  0  0  0  0  0  0
    7.7568   -1.8456   22.7374 C   0  0  0  0  0  0  0  0  0  0  0  0
    6.8408   -0.9798   22.1674 C   0  0  0  0  0  0  0  0  0  0  0  0
    5.9398   -0.5478   22.5524 H   0  0  0  0  0  0  0  0  0  0  0  0
    5.4826    0.7131   20.1009 C   0  0  0  0  0  0  0  0  0  0  0  0
    5.0277    0.7126   21.0930 H   0  0  0  0  0  0  0  0  0  0  0  0
    4.8283    1.3328   19.0461 C   0  0  0  0  0  0  0  0  0  0  0  0
    3.8782    1.8320   19.1949 H   0  0  0  0  0  0  0  0  0  0  0  0
  1  2  1  0
  2  3  2  0
  3  4  1  0
  4  5  1  0
  4  6  2  0
  6  7  1  0
  7  8  2  0
  8  9  1  0
  9 10  1  0
 10 11  1  0
 10 12  2  0
 12 13  1  0
 12 14  1  0
 14 15  1  0
 15 16  2  0
 16 17  1  0
 16 18  1  0
 18 19  1  0
 18 20  2  0
 20 21  1  0
 20 22  1  0
 22 23  1  0
 23 24  2  0
 24 25  1  0
 24 26  1  0
 26 27  1  0
 26 28  2  0
 28 29  1  0
 28 30  1  0
 30 31  1  0
 30 32  2  0
 32 33  1  0
 22 34  2  0
 34 35  1  0
 14 36  1  0
 36 37  2  0
 37 38  1  0
  6 39  1  0
 39 40  1  0
 39 41  2  0
 41 42  1  0
 41  2  1  0
 37  7  1  0
 36  9  1  0
 34 15  1  0
 32 23  1  0
M  END
>  <cnnaffinity>  (1) 
-5.81571

>  <filename>  (1) 
c1ccc(-c2cccc(-n3ccn4nc(-c5cccnc5)cc34)c2)cc1

$$$$
