
     RDKit          3D

 30 32  0  0  0  0  0  0  0  0999 V2000
    6.5692   -3.1398   23.1610 H   0  0  0  0  0  0  0  0  0  0  0  0
    7.1778   -2.4232   22.6150 C   0  0  0  0  0  0  0  0  0  0  0  0
    8.4604   -2.3229   22.9621 N   0  0  0  0  0  0  0  0  0  0  0  0
    9.1752   -1.4018   22.3240 C   0  0  0  0  0  0  0  0  0  0  0  0
   10.2229   -1.3016   22.6157 H   0  0  0  0  0  0  0  0  0  0  0  0
    8.6467   -0.5683   21.3388 C   0  0  0  0  0  0  0  0  0  0  0  0
    9.6606    0.7820   20.7878 S   0  0  0  0  0  0  0  0  0  0  0  0
    9.0723    2.0652   21.8985 C   0  0  0  0  0  0  0  0  0  0  0  0
    9.7778    2.4032   23.0614 C   0  0  0  0  0  0  0  0  0  0  0  0
   10.6990    1.8799   23.3156 H   0  0  0  0  0  0  0  0  0  0  0  0
    9.3006    3.4350   23.8808 C   0  0  0  0  0  0  0  0  0  0  0  0
    9.8433    3.6929   24.7866 H   0  0  0  0  0  0  0  0  0  0  0  0
    8.1495    4.1518   23.5243 C   0  0  0  0  0  0  0  0  0  0  0  0
    7.8295    4.9996   24.1282 H   0  0  0  0  0  0  0  0  0  0  0  0
    7.4380    3.8054   22.3683 C   0  0  0  0  0  0  0  0  0  0  0  0
    6.5400    4.3537   22.0777 H   0  0  0  0  0  0  0  0  0  0  0  0
    7.8939    2.7501   21.5689 C   0  0  0  0  0  0  0  0  0  0  0  0
    7.3522    2.4313   20.6810 H   0  0  0  0  0  0  0  0  0  0  0  0
    7.2970   -0.8163   21.0050 C   0  0  0  0  0  0  0  0  0  0  0  0
    6.5958   -0.0789   19.9321 C   0  0  0  0  0  0  0  0  0  0  0  0
    7.1754   -0.0180   18.6619 C   0  0  0  0  0  0  0  0  0  0  0  0
    8.1141   -0.5282   18.4591 H   0  0  0  0  0  0  0  0  0  0  0  0
    6.6405    0.6377   17.6261 N   0  0  0  0  0  0  0  0  0  0  0  0
    5.4835    1.2809   17.8367 C   0  0  0  0  0  0  0  0  0  0  0  0
    5.0545    1.8065   16.9841 H   0  0  0  0  0  0  0  0  0  0  0  0
    4.8184    1.2768   19.0683 C   0  0  0  0  0  0  0  0  0  0  0  0
    3.8857    1.8170   19.1736 H   0  0  0  0  0  0  0  0  0  0  0  0
    5.3640    0.5634   20.1332 C   0  0  0  0  0  0  0  0  0  0  0  0
    4.8548    0.5089   21.1010 H   0  0  0  0  0  0  0  0  0  0  0  0
    6.5707   -1.7273   21.6589 N   0  0  0  0  0  0  0  0  0  0  0  0
  1  2  1  0
  2  3  2  0
  3  4  1  0
  4  5  1  0
  4  6  2  0
  6  7  1  0
  7  8  1  0
  8  9  2  0
  9 10  1  0
  9 11  1  0
 11 12  1  0
 11 13  2  0
 13 14  1  0
 13 15  1  0
 15 16  1  0
 15 17  2  0
 17 18  1  0
  6 19  1  0
 19 20  1  0
 20 21  2  0
 21 22  1  0
 21 23  1  0
 23 24  2  0
 24 25  1  0
 24 26  1  0
 26 27  1  0
 26 28  2  0
 28 29  1  0
 19 30  2  0
 30  2  1  0
 17  8  1  0
 28 20  1  0
M  END
>  <cnnaffinity>  (1) 
-5.34297

>  <filename>  (1) 
c1ccc(Sc2cncnc2-c2cccnc2)cc1

$$$$
