
     RDKit          3D

 48 51  0  0  0  0  0  0  0  0999 V2000
   12.7551    1.5404   24.3348 C   0  0  0  0  0  0  0  0  0  0  0  0
   11.7708    0.6379   24.7291 C   0  0  0  0  0  0  0  0  0  0  0  0
   10.4556    0.8979   24.3431 C   0  0  0  0  0  0  0  0  0  0  0  0
   10.1642    2.0291   23.5700 C   0  0  0  0  0  0  0  0  0  0  0  0
    8.8322    2.2229   22.8705 C   0  0  0  0  0  0  0  0  0  0  0  0
    8.9704    2.0255   21.3404 C   0  0  0  0  0  0  0  0  0  0  0  0
    9.4894    0.6254   20.9519 C   0  0  0  0  0  0  0  0  0  0  0  0
    8.6084   -0.4868   21.4159 C   0  0  0  0  0  0  0  0  0  0  0  0
    8.8450   -1.3337   22.3974 N   0  0  0  0  0  0  0  0  0  0  0  0
    7.6570   -1.9909   22.5423 C   0  0  0  0  0  0  0  0  0  0  0  0
    7.4290   -2.9658   23.6576 C   0  0  0  0  0  0  0  0  0  0  0  0
    8.5934   -3.9471   23.8899 C   0  0  0  0  0  0  0  0  0  0  0  0
    8.4191   -4.4440   25.3329 C   0  0  0  0  0  0  0  0  0  0  0  0
    7.6806   -3.3187   26.0943 C   0  0  0  0  0  0  0  0  0  0  0  0
    7.2649   -2.2735   25.0379 C   0  0  0  0  0  0  0  0  0  0  0  0
    7.9435   -1.4079   25.0927 H   0  0  0  0  0  0  0  0  0  0  0  0
    6.2449   -1.9011   25.1880 H   0  0  0  0  0  0  0  0  0  0  0  0
    8.3224   -2.8572   26.8529 H   0  0  0  0  0  0  0  0  0  0  0  0
    6.8118   -3.7235   26.6250 H   0  0  0  0  0  0  0  0  0  0  0  0
    9.3862   -4.6813   25.7899 H   0  0  0  0  0  0  0  0  0  0  0  0
    7.8278   -5.3678   25.3585 H   0  0  0  0  0  0  0  0  0  0  0  0
    9.5418   -3.4030   23.7938 H   0  0  0  0  0  0  0  0  0  0  0  0
    8.5986   -4.7683   23.1636 H   0  0  0  0  0  0  0  0  0  0  0  0
    6.5091   -3.5130   23.4124 H   0  0  0  0  0  0  0  0  0  0  0  0
    6.7197   -1.6212   21.6947 N   0  0  0  0  0  0  0  0  0  0  0  0
    7.3427   -0.6754   20.9423 N   0  0  0  0  0  0  0  0  0  0  0  0
    6.6504   -0.0125   19.8868 C   0  0  0  0  0  0  0  0  0  0  0  0
    5.4352    0.6274   20.1439 C   0  0  0  0  0  0  0  0  0  0  0  0
    4.8192    1.3090   19.0920 C   0  0  0  0  0  0  0  0  0  0  0  0
    5.4151    1.3080   17.8258 C   0  0  0  0  0  0  0  0  0  0  0  0
    6.5616    0.6635   17.5627 N   0  0  0  0  0  0  0  0  0  0  0  0
    7.1573    0.0212   18.5749 C   0  0  0  0  0  0  0  0  0  0  0  0
    8.0847   -0.4984   18.3367 H   0  0  0  0  0  0  0  0  0  0  0  0
    4.9521    1.8313   16.9908 H   0  0  0  0  0  0  0  0  0  0  0  0
    3.8883    1.8410   19.2429 H   0  0  0  0  0  0  0  0  0  0  0  0
    5.0050    0.5847   21.1461 H   0  0  0  0  0  0  0  0  0  0  0  0
    9.5755    0.5630   19.8645 H   0  0  0  0  0  0  0  0  0  0  0  0
   10.4934    0.4634   21.3595 H   0  0  0  0  0  0  0  0  0  0  0  0
    9.6869    2.7675   20.9713 H   0  0  0  0  0  0  0  0  0  0  0  0
    8.0089    2.2218   20.8470 H   0  0  0  0  0  0  0  0  0  0  0  0
    8.4685    3.2346   23.0851 H   0  0  0  0  0  0  0  0  0  0  0  0
    8.0902    1.5181   23.2706 H   0  0  0  0  0  0  0  0  0  0  0  0
   11.0942    2.9692   23.3345 N   0  0  0  0  0  0  0  0  0  0  0  0
   12.3563    2.7085   23.6894 C   0  0  0  0  0  0  0  0  0  0  0  0
   13.0928    3.4629   23.4260 H   0  0  0  0  0  0  0  0  0  0  0  0
    9.6654    0.1993   24.5807 H   0  0  0  0  0  0  0  0  0  0  0  0
   12.0154   -0.2450   25.3146 H   0  0  0  0  0  0  0  0  0  0  0  0
   13.8052    1.3594   24.5048 H   0  0  0  0  0  0  0  0  0  0  0  0
  1  2  2  0
  2  3  1  0
  3  4  2  0
  4  5  1  0
  5  6  1  0
  6  7  1  0
  7  8  1  0
  8  9  2  0
  9 10  1  0
 10 11  1  0
 11 12  1  0
 12 13  1  0
 13 14  1  0
 14 15  1  0
 15 16  1  0
 15 17  1  0
 14 18  1  0
 14 19  1  0
 13 20  1  0
 13 21  1  0
 12 22  1  0
 12 23  1  0
 11 24  1  0
 10 25  2  0
 25 26  1  0
 26 27  1  0
 27 28  2  0
 28 29  1  0
 29 30  2  0
 30 31  1  0
 31 32  2  0
 32 33  1  0
 30 34  1  0
 29 35  1  0
 28 36  1  0
  7 37  1  0
  7 38  1  0
  6 39  1  0
  6 40  1  0
  5 41  1  0
  5 42  1  0
  4 43  1  0
 43 44  2  0
 44 45  1  0
  3 46  1  0
  2 47  1  0
  1 48  1  0
 44  1  1  0
 26  8  1  0
 32 27  1  0
 15 11  1  0
M  END
>  <cnnaffinity>  (1) 
-6.4228

>  <filename>  (1) 
c1ccc(CCCc2nc(C3CCCC3)nn2-c2cccnc2)nc1

$$$$
