
     RDKit          3D

 42 45  0  0  0  0  0  0  0  0999 V2000
    7.0090   -5.1173   25.4650 C   0  0  0  0  0  0  0  0  0  0  0  0
    5.9694   -4.7742   24.5927 C   0  0  0  0  0  0  0  0  0  0  0  0
    6.1576   -3.7863   23.6268 C   0  0  0  0  0  0  0  0  0  0  0  0
    7.4038   -3.1381   23.5203 C   0  0  0  0  0  0  0  0  0  0  0  0
    7.6122   -2.1000   22.4896 C   0  0  0  0  0  0  0  0  0  0  0  0
    6.6858   -1.7116   21.6256 N   0  0  0  0  0  0  0  0  0  0  0  0
    7.3187   -0.7547   20.9039 N   0  0  0  0  0  0  0  0  0  0  0  0
    6.6390   -0.0517   19.8687 C   0  0  0  0  0  0  0  0  0  0  0  0
    5.4319    0.6018   20.1414 C   0  0  0  0  0  0  0  0  0  0  0  0
    4.8181    1.2993   19.0980 C   0  0  0  0  0  0  0  0  0  0  0  0
    5.4115    1.2987   17.8316 C   0  0  0  0  0  0  0  0  0  0  0  0
    6.5545    0.6508   17.5578 N   0  0  0  0  0  0  0  0  0  0  0  0
    7.1515   -0.0044   18.5613 C   0  0  0  0  0  0  0  0  0  0  0  0
    8.0789   -0.5265   18.3197 H   0  0  0  0  0  0  0  0  0  0  0  0
    4.9436    1.8301   17.0057 H   0  0  0  0  0  0  0  0  0  0  0  0
    3.8956    1.8432   19.2605 H   0  0  0  0  0  0  0  0  0  0  0  0
    5.0054    0.5700   21.1448 H   0  0  0  0  0  0  0  0  0  0  0  0
    8.5723   -0.5804   21.4094 C   0  0  0  0  0  0  0  0  0  0  0  0
    9.5620    0.4564   21.0246 C   0  0  0  0  0  0  0  0  0  0  0  0
    9.6790    1.5940   22.0609 C   0  0  0  0  0  0  0  0  0  0  0  0
   10.9127    2.4412   21.7648 C   0  0  0  0  0  0  0  0  0  0  0  0
   11.2914    3.7577   22.9669 S   0  0  0  0  0  0  0  0  0  0  0  0
    9.6709    3.9860   23.7680 C   0  0  0  0  0  0  0  0  0  0  0  0
    8.5058    4.0808   22.7887 C   0  0  0  0  0  0  0  0  0  0  0  0
    8.0849    2.4965   21.9937 S   0  0  0  0  0  0  0  0  0  0  0  0
    8.7214    4.8260   22.0188 H   0  0  0  0  0  0  0  0  0  0  0  0
    7.5974    4.4012   23.3122 H   0  0  0  0  0  0  0  0  0  0  0  0
    9.5111    3.1726   24.4830 H   0  0  0  0  0  0  0  0  0  0  0  0
    9.7673    4.9209   24.3293 H   0  0  0  0  0  0  0  0  0  0  0  0
   10.8436    2.8737   20.7627 H   0  0  0  0  0  0  0  0  0  0  0  0
   11.7750    1.7626   21.7740 H   0  0  0  0  0  0  0  0  0  0  0  0
    9.7899    1.1753   23.0736 H   0  0  0  0  0  0  0  0  0  0  0  0
   10.5216   -0.0642   20.9485 H   0  0  0  0  0  0  0  0  0  0  0  0
    9.3279    0.8687   20.0420 H   0  0  0  0  0  0  0  0  0  0  0  0
    8.7912   -1.4364   22.3768 N   0  0  0  0  0  0  0  0  0  0  0  0
    8.4468   -3.4789   24.4076 C   0  0  0  0  0  0  0  0  0  0  0  0
    8.2452   -4.4651   25.3735 C   0  0  0  0  0  0  0  0  0  0  0  0
    9.0505   -4.7229   26.0577 H   0  0  0  0  0  0  0  0  0  0  0  0
    9.4063   -2.9650   24.3375 H   0  0  0  0  0  0  0  0  0  0  0  0
    5.3512   -3.4978   22.9523 H   0  0  0  0  0  0  0  0  0  0  0  0
    5.0068   -5.2725   24.6649 H   0  0  0  0  0  0  0  0  0  0  0  0
    6.8562   -5.8871   26.2169 H   0  0  0  0  0  0  0  0  0  0  0  0
  1  2  2  0
  2  3  1  0
  3  4  2  0
  4  5  1  0
  5  6  2  0
  6  7  1  0
  7  8  1  0
  8  9  2  0
  9 10  1  0
 10 11  2  0
 11 12  1  0
 12 13  2  0
 13 14  1  0
 11 15  1  0
 10 16  1  0
  9 17  1  0
  7 18  1  0
 18 19  1  0
 19 20  1  0
 20 21  1  0
 21 22  1  0
 22 23  1  0
 23 24  1  0
 24 25  1  0
 24 26  1  0
 24 27  1  0
 23 28  1  0
 23 29  1  0
 21 30  1  0
 21 31  1  0
 20 32  1  0
 19 33  1  0
 19 34  1  0
 18 35  2  0
  4 36  1  0
 36 37  2  0
 37 38  1  0
 36 39  1  0
  3 40  1  0
  2 41  1  0
  1 42  1  0
 37  1  1  0
 35  5  1  0
 13  8  1  0
 25 20  1  0
M  END
>  <cnnaffinity>  (1) 
-5.72192

>  <filename>  (1) 
c1ccc(-c2nc(CC3CSCCS3)n(-c3cccnc3)n2)cc1

$$$$
