
     RDKit          3D

 37 40  0  0  0  0  0  0  0  0999 V2000
    5.0111    1.8027   16.9189 H   0  0  0  0  0  0  0  0  0  0  0  0
    5.4511    1.2941   17.7756 C   0  0  0  0  0  0  0  0  0  0  0  0
    6.6111    0.6560   17.5529 N   0  0  0  0  0  0  0  0  0  0  0  0
    7.1796    0.0308   18.5871 C   0  0  0  0  0  0  0  0  0  0  0  0
    8.1186   -0.4866   18.4017 H   0  0  0  0  0  0  0  0  0  0  0  0
    6.6357    0.0119   19.8800 C   0  0  0  0  0  0  0  0  0  0  0  0
    7.3462   -0.6660   20.9600 C   0  0  0  0  0  0  0  0  0  0  0  0
    8.4926   -1.3882   20.7762 N   0  0  0  0  0  0  0  0  0  0  0  0
    8.8747   -1.8830   21.9033 N   0  0  0  0  0  0  0  0  0  0  0  0
    7.9960   -1.4974   22.8477 N   0  0  0  0  0  0  0  0  0  0  0  0
    8.0775   -1.9756   24.1973 C   0  0  0  0  0  0  0  0  0  0  0  0
    9.2298   -2.6298   24.6590 C   0  0  0  0  0  0  0  0  0  0  0  0
   10.0922   -2.7464   24.0069 H   0  0  0  0  0  0  0  0  0  0  0  0
    9.2514   -3.1182   25.9677 C   0  0  0  0  0  0  0  0  0  0  0  0
   10.1360   -3.6440   26.3141 H   0  0  0  0  0  0  0  0  0  0  0  0
    8.1599   -2.9394   26.8204 C   0  0  0  0  0  0  0  0  0  0  0  0
    8.2062   -3.3262   27.8358 H   0  0  0  0  0  0  0  0  0  0  0  0
    7.0104   -2.2564   26.3764 C   0  0  0  0  0  0  0  0  0  0  0  0
    5.8471   -2.0136   27.2848 C   0  0  0  0  0  0  0  0  0  0  0  0
    5.4323   -3.0405   28.1507 C   0  0  0  0  0  0  0  0  0  0  0  0
    5.8953   -4.0204   28.0557 H   0  0  0  0  0  0  0  0  0  0  0  0
    4.4400   -2.8232   29.1081 C   0  0  0  0  0  0  0  0  0  0  0  0
    4.1899   -3.6116   29.8122 H   0  0  0  0  0  0  0  0  0  0  0  0
    3.8093   -1.5783   29.1801 C   0  0  0  0  0  0  0  0  0  0  0  0
    3.0456   -1.4001   29.9327 H   0  0  0  0  0  0  0  0  0  0  0  0
    4.1614   -0.5626   28.2815 C   0  0  0  0  0  0  0  0  0  0  0  0
    3.6239    0.3810   28.2969 H   0  0  0  0  0  0  0  0  0  0  0  0
    5.1677   -0.7785   27.3329 C   0  0  0  0  0  0  0  0  0  0  0  0
    5.4382    0.0219   26.6409 H   0  0  0  0  0  0  0  0  0  0  0  0
    6.9820   -1.7942   25.0548 C   0  0  0  0  0  0  0  0  0  0  0  0
    6.0825   -1.2976   24.7063 H   0  0  0  0  0  0  0  0  0  0  0  0
    7.0351   -0.7245   22.2891 C   0  0  0  0  0  0  0  0  0  0  0  0
    6.2430   -0.2877   22.8696 H   0  0  0  0  0  0  0  0  0  0  0  0
    5.4179    0.6721   20.1000 C   0  0  0  0  0  0  0  0  0  0  0  0
    4.9585    0.6872   21.0900 H   0  0  0  0  0  0  0  0  0  0  0  0
    4.8186    1.3207   19.0234 C   0  0  0  0  0  0  0  0  0  0  0  0
    3.8836    1.8530   19.1353 H   0  0  0  0  0  0  0  0  0  0  0  0
  1  2  1  0
  2  3  2  0
  3  4  1  0
  4  5  1  0
  4  6  2  0
  6  7  1  0
  7  8  1  0
  8  9  2  0
  9 10  1  0
 10 11  1  0
 11 12  2  0
 12 13  1  0
 12 14  1  0
 14 15  1  0
 14 16  2  0
 16 17  1  0
 16 18  1  0
 18 19  1  0
 19 20  2  0
 20 21  1  0
 20 22  1  0
 22 23  1  0
 22 24  2  0
 24 25  1  0
 24 26  1  0
 26 27  1  0
 26 28  2  0
 28 29  1  0
 18 30  2  0
 30 31  1  0
 10 32  1  0
 32 33  1  0
  6 34  1  0
 34 35  1  0
 34 36  2  0
 36 37  1  0
 36  2  1  0
 32  7  2  0
 30 11  1  0
 28 19  1  0
M  END
>  <cnnaffinity>  (1) 
-4.99884

>  <filename>  (1) 
c1ccc(-c2cccc(-n3cc(-c4cccnc4)nn3)c2)cc1

$$$$
