
     RDKit          3D

 37 40  0  0  0  0  0  0  0  0999 V2000
   11.2579    2.8742   23.8289 H   0  0  0  0  0  0  0  0  0  0  0  0
   11.5094    1.9992   23.2304 C   0  0  0  0  0  0  0  0  0  0  0  0
   10.5702    1.5748   22.3759 N   0  0  0  0  0  0  0  0  0  0  0  0
   10.8458    0.5067   21.6149 C   0  0  0  0  0  0  0  0  0  0  0  0
    9.7703    0.0766   20.6471 C   0  0  0  0  0  0  0  0  0  0  0  0
    9.3605    0.9747   20.1841 H   0  0  0  0  0  0  0  0  0  0  0  0
   10.2070   -0.5443   19.8605 H   0  0  0  0  0  0  0  0  0  0  0  0
    8.6735   -0.7335   21.2689 C   0  0  0  0  0  0  0  0  0  0  0  0
    7.2700   -0.7737   20.9985 C   0  0  0  0  0  0  0  0  0  0  0  0
    6.5432   -0.0316   19.9482 C   0  0  0  0  0  0  0  0  0  0  0  0
    7.1031    0.0112   18.6585 C   0  0  0  0  0  0  0  0  0  0  0  0
    8.0505   -0.4926   18.4605 H   0  0  0  0  0  0  0  0  0  0  0  0
    6.5612    0.6432   17.6110 N   0  0  0  0  0  0  0  0  0  0  0  0
    5.4118    1.3022   17.8220 C   0  0  0  0  0  0  0  0  0  0  0  0
    4.9978    1.8375   16.9686 H   0  0  0  0  0  0  0  0  0  0  0  0
    4.7595    1.3309   19.0585 C   0  0  0  0  0  0  0  0  0  0  0  0
    3.8446    1.9066   19.1629 H   0  0  0  0  0  0  0  0  0  0  0  0
    5.3234    0.6484   20.1407 C   0  0  0  0  0  0  0  0  0  0  0  0
    4.8444    0.6685   21.1209 H   0  0  0  0  0  0  0  0  0  0  0  0
    6.6563   -1.6423   21.8039 N   0  0  0  0  0  0  0  0  0  0  0  0
    7.6481   -2.1447   22.5415 N   0  0  0  0  0  0  0  0  0  0  0  0
    8.8634   -1.6706   22.2571 C   0  0  0  0  0  0  0  0  0  0  0  0
    9.9071   -2.3661   23.0807 C   0  0  0  0  0  0  0  0  0  0  0  0
   10.6582   -2.8537   22.4542 H   0  0  0  0  0  0  0  0  0  0  0  0
   10.4397   -1.6464   23.7040 H   0  0  0  0  0  0  0  0  0  0  0  0
    9.0811   -3.3770   23.9233 C   0  0  0  0  0  0  0  0  0  0  0  0
    9.2203   -3.1931   24.9868 H   0  0  0  0  0  0  0  0  0  0  0  0
    9.3857   -4.4035   23.7227 H   0  0  0  0  0  0  0  0  0  0  0  0
    7.5859   -3.1803   23.5398 C   0  0  0  0  0  0  0  0  0  0  0  0
    6.9607   -2.8480   24.3706 H   0  0  0  0  0  0  0  0  0  0  0  0
    7.1327   -4.0698   23.1003 H   0  0  0  0  0  0  0  0  0  0  0  0
   12.0602   -0.1885   21.7114 C   0  0  0  0  0  0  0  0  0  0  0  0
   12.2139   -1.0782   21.1062 H   0  0  0  0  0  0  0  0  0  0  0  0
   13.0499    0.2792   22.5765 C   0  0  0  0  0  0  0  0  0  0  0  0
   14.0198   -0.2120   22.6264 H   0  0  0  0  0  0  0  0  0  0  0  0
   12.7637    1.3987   23.3590 C   0  0  0  0  0  0  0  0  0  0  0  0
   13.4872    1.8099   24.0505 H   0  0  0  0  0  0  0  0  0  0  0  0
  1  2  1  0
  2  3  2  0
  3  4  1  0
  4  5  1  0
  5  6  1  0
  5  7  1  0
  5  8  1  0
  8  9  1  0
  9 10  1  0
 10 11  2  0
 11 12  1  0
 11 13  1  0
 13 14  2  0
 14 15  1  0
 14 16  1  0
 16 17  1  0
 16 18  2  0
 18 19  1  0
  9 20  2  0
 20 21  1  0
 21 22  1  0
 22 23  1  0
 23 24  1  0
 23 25  1  0
 23 26  1  0
 26 27  1  0
 26 28  1  0
 26 29  1  0
 29 30  1  0
 29 31  1  0
  4 32  2  0
 32 33  1  0
 32 34  1  0
 34 35  1  0
 34 36  2  0
 36 37  1  0
 36  2  1  0
 22  8  2  0
 18 10  1  0
 29 21  1  0
M  END
>  <cnnaffinity>  (1) 
-5.92756

>  <filename>  (1) 
c1ccc(Cc2c(-c3cccnc3)nn3c2CCC3)nc1

$$$$
