
     RDKit          3D

 45 48  0  0  0  0  0  0  0  0999 V2000
   12.9866    2.2402   23.7137 C   0  0  0  0  0  0  0  0  0  0  0  0
   12.3145    3.4465   23.4876 C   0  0  0  0  0  0  0  0  0  0  0  0
   10.9182    3.4585   23.4221 C   0  0  0  0  0  0  0  0  0  0  0  0
   10.2003    2.2645   23.5655 C   0  0  0  0  0  0  0  0  0  0  0  0
    8.5004    2.2270   23.0241 S   0  0  0  0  0  0  0  0  0  0  0  0
    8.8846    1.9925   21.2446 C   0  0  0  0  0  0  0  0  0  0  0  0
    9.4685    0.6045   20.9025 C   0  0  0  0  0  0  0  0  0  0  0  0
    8.6169   -0.5258   21.3914 C   0  0  0  0  0  0  0  0  0  0  0  0
    8.8592   -1.3828   22.3683 N   0  0  0  0  0  0  0  0  0  0  0  0
    7.6603   -2.0027   22.5454 C   0  0  0  0  0  0  0  0  0  0  0  0
    7.4713   -3.0134   23.6335 C   0  0  0  0  0  0  0  0  0  0  0  0
    6.8660   -4.3549   23.1552 C   0  0  0  0  0  0  0  0  0  0  0  0
    5.3489   -4.1118   23.2662 C   0  0  0  0  0  0  0  0  0  0  0  0
    5.1716   -3.0004   24.1246 O   0  0  0  0  0  0  0  0  0  0  0  0
    6.4049   -2.5677   24.6526 C   0  0  0  0  0  0  0  0  0  0  0  0
    6.6121   -3.0252   25.6365 H   0  0  0  0  0  0  0  0  0  0  0  0
    6.3421   -1.4832   24.7954 H   0  0  0  0  0  0  0  0  0  0  0  0
    4.8205   -4.9877   23.6705 H   0  0  0  0  0  0  0  0  0  0  0  0
    4.9102   -3.8649   22.2920 H   0  0  0  0  0  0  0  0  0  0  0  0
    7.1680   -4.6280   22.1369 H   0  0  0  0  0  0  0  0  0  0  0  0
    7.1894   -5.1617   23.8277 H   0  0  0  0  0  0  0  0  0  0  0  0
    8.4543   -3.1229   24.0921 H   0  0  0  0  0  0  0  0  0  0  0  0
    6.7047   -1.6053   21.7300 N   0  0  0  0  0  0  0  0  0  0  0  0
    7.3373   -0.6868   20.9529 N   0  0  0  0  0  0  0  0  0  0  0  0
    6.6502   -0.0312   19.8980 C   0  0  0  0  0  0  0  0  0  0  0  0
    5.4387    0.6119   20.1588 C   0  0  0  0  0  0  0  0  0  0  0  0
    4.8249    1.2990   19.1069 C   0  0  0  0  0  0  0  0  0  0  0  0
    5.4240    1.3030   17.8403 C   0  0  0  0  0  0  0  0  0  0  0  0
    6.5670    0.6529   17.5770 N   0  0  0  0  0  0  0  0  0  0  0  0
    7.1565    0.0029   18.5867 C   0  0  0  0  0  0  0  0  0  0  0  0
    8.0778   -0.5216   18.3467 H   0  0  0  0  0  0  0  0  0  0  0  0
    4.9665    1.8332   17.0060 H   0  0  0  0  0  0  0  0  0  0  0  0
    3.8943    1.8311   19.2573 H   0  0  0  0  0  0  0  0  0  0  0  0
    5.0137    0.5683   21.1631 H   0  0  0  0  0  0  0  0  0  0  0  0
    9.5736    0.5261   19.8151 H   0  0  0  0  0  0  0  0  0  0  0  0
   10.4618    0.4906   21.3436 H   0  0  0  0  0  0  0  0  0  0  0  0
    9.6047    2.7692   20.9641 H   0  0  0  0  0  0  0  0  0  0  0  0
    7.9634    2.1821   20.6856 H   0  0  0  0  0  0  0  0  0  0  0  0
   10.8713    1.0717   23.8768 C   0  0  0  0  0  0  0  0  0  0  0  0
   12.2688    1.0660   23.9532 C   0  0  0  0  0  0  0  0  0  0  0  0
   12.7977    0.1389   24.1670 H   0  0  0  0  0  0  0  0  0  0  0  0
   10.3132    0.1393   23.9284 H   0  0  0  0  0  0  0  0  0  0  0  0
   10.3823    4.3726   23.1832 H   0  0  0  0  0  0  0  0  0  0  0  0
   12.8627    4.3687   23.3267 H   0  0  0  0  0  0  0  0  0  0  0  0
   14.0697    2.2094   23.6778 H   0  0  0  0  0  0  0  0  0  0  0  0
  1  2  2  0
  2  3  1  0
  3  4  2  0
  4  5  1  0
  5  6  1  0
  6  7  1  0
  7  8  1  0
  8  9  2  0
  9 10  1  0
 10 11  1  0
 11 12  1  0
 12 13  1  0
 13 14  1  0
 14 15  1  0
 15 16  1  0
 15 17  1  0
 13 18  1  0
 13 19  1  0
 12 20  1  0
 12 21  1  0
 11 22  1  0
 10 23  2  0
 23 24  1  0
 24 25  1  0
 25 26  2  0
 26 27  1  0
 27 28  2  0
 28 29  1  0
 29 30  2  0
 30 31  1  0
 28 32  1  0
 27 33  1  0
 26 34  1  0
  7 35  1  0
  7 36  1  0
  6 37  1  0
  6 38  1  0
  4 39  1  0
 39 40  2  0
 40 41  1  0
 39 42  1  0
  3 43  1  0
  2 44  1  0
  1 45  1  0
 40  1  1  0
 24  8  1  0
 30 25  1  0
 15 11  1  0
M  END
>  <cnnaffinity>  (1) 
-6.08025

>  <filename>  (1) 
c1ccc(SCCc2nc(C3CCOC3)nn2-c2cccnc2)cc1

$$$$
