
     RDKit          3D

 44 47  0  0  0  0  0  0  0  0999 V2000
   14.3341   -1.2088   21.0115 C   0  0  0  0  0  0  0  0  0  0  0  0
   14.1474   -0.1130   21.8700 C   0  0  0  0  0  0  0  0  0  0  0  0
   12.8482    0.2375   22.2556 C   0  0  0  0  0  0  0  0  0  0  0  0
   11.7703   -0.5584   21.8211 C   0  0  0  0  0  0  0  0  0  0  0  0
   10.3502   -0.1559   21.8754 C   0  0  0  0  0  0  0  0  0  0  0  0
    9.3948   -0.9502   21.4049 N   0  0  0  0  0  0  0  0  0  0  0  0
    8.2767   -0.2181   21.5379 N   0  0  0  0  0  0  0  0  0  0  0  0
    7.0026   -0.7354   21.0377 C   0  0  0  0  0  0  0  0  0  0  0  0
    6.3878    0.0516   19.8951 C   0  0  0  0  0  0  0  0  0  0  0  0
    5.1652    0.7245   20.0067 C   0  0  0  0  0  0  0  0  0  0  0  0
    4.6695    1.4164   18.8986 C   0  0  0  0  0  0  0  0  0  0  0  0
    5.4078    1.3993   17.7128 C   0  0  0  0  0  0  0  0  0  0  0  0
    6.5703    0.7425   17.5760 N   0  0  0  0  0  0  0  0  0  0  0  0
    7.0397    0.0955   18.6496 C   0  0  0  0  0  0  0  0  0  0  0  0
    7.9766   -0.4429   18.5048 H   0  0  0  0  0  0  0  0  0  0  0  0
    5.0552    1.9388   16.8358 H   0  0  0  0  0  0  0  0  0  0  0  0
    3.7416    1.9751   18.9454 H   0  0  0  0  0  0  0  0  0  0  0  0
    4.6015    0.7036   20.9423 H   0  0  0  0  0  0  0  0  0  0  0  0
    6.3018   -0.8108   21.8774 H   0  0  0  0  0  0  0  0  0  0  0  0
    7.2307   -1.7560   20.7187 H   0  0  0  0  0  0  0  0  0  0  0  0
    8.5907    0.9575   22.1245 C   0  0  0  0  0  0  0  0  0  0  0  0
    7.5918    1.7990   22.8302 C   0  0  0  0  0  0  0  0  0  0  0  0
    7.4558    1.2422   24.2709 C   0  0  0  0  0  0  0  0  0  0  0  0
    6.4136    1.9337   25.0902 C   0  0  0  0  0  0  0  0  0  0  0  0
    5.0625    1.5973   25.0216 C   0  0  0  0  0  0  0  0  0  0  0  0
    4.1050    2.2451   25.6899 N   0  0  0  0  0  0  0  0  0  0  0  0
    4.5074    3.2528   26.4632 C   0  0  0  0  0  0  0  0  0  0  0  0
    5.7642    3.6628   26.6299 N   0  0  0  0  0  0  0  0  0  0  0  0
    6.6977    2.9989   25.9443 C   0  0  0  0  0  0  0  0  0  0  0  0
    7.7313    3.3258   26.0964 H   0  0  0  0  0  0  0  0  0  0  0  0
    3.7350    3.7929   27.0128 H   0  0  0  0  0  0  0  0  0  0  0  0
    4.7324    0.7516   24.4093 H   0  0  0  0  0  0  0  0  0  0  0  0
    7.2243    0.1669   24.2070 H   0  0  0  0  0  0  0  0  0  0  0  0
    8.4425    1.3166   24.7503 H   0  0  0  0  0  0  0  0  0  0  0  0
    7.9520    2.8307   22.8329 H   0  0  0  0  0  0  0  0  0  0  0  0
    6.6346    1.7845   22.2966 H   0  0  0  0  0  0  0  0  0  0  0  0
    9.8996    1.0403   22.3163 N   0  0  0  0  0  0  0  0  0  0  0  0
   12.0229   -1.7738   21.1739 C   0  0  0  0  0  0  0  0  0  0  0  0
   13.2853   -2.0493   20.6760 C   0  0  0  0  0  0  0  0  0  0  0  0
   13.4731   -2.8705   19.9906 H   0  0  0  0  0  0  0  0  0  0  0  0
   11.1639   -2.4141   21.0327 H   0  0  0  0  0  0  0  0  0  0  0  0
   12.6599    1.1370   22.8371 H   0  0  0  0  0  0  0  0  0  0  0  0
   14.9939    0.4988   22.1723 H   0  0  0  0  0  0  0  0  0  0  0  0
   15.2593   -1.4364   20.5176 H   0  0  0  0  0  0  0  0  0  0  0  0
  1  2  2  0
  2  3  1  0
  3  4  2  0
  4  5  1  0
  5  6  2  0
  6  7  1  0
  7  8  1  0
  8  9  1  0
  9 10  2  0
 10 11  1  0
 11 12  2  0
 12 13  1  0
 13 14  2  0
 14 15  1  0
 12 16  1  0
 11 17  1  0
 10 18  1  0
  8 19  1  0
  8 20  1  0
  7 21  1  0
 21 22  1  0
 22 23  1  0
 23 24  1  0
 24 25  2  0
 25 26  1  0
 26 27  2  0
 27 28  1  0
 28 29  2  0
 29 30  1  0
 27 31  1  0
 25 32  1  0
 23 33  1  0
 23 34  1  0
 22 35  1  0
 22 36  1  0
 21 37  2  0
  4 38  1  0
 38 39  2  0
 39 40  1  0
 38 41  1  0
  3 42  1  0
  2 43  1  0
  1 44  1  0
 39  1  1  0
 37  5  1  0
 14  9  1  0
 29 24  1  0
M  END
>  <cnnaffinity>  (1) 
-6.46374

>  <filename>  (1) 
c1ccc(-c2nc(CCc3cncnc3)n(Cc3cccnc3)n2)cc1

$$$$
