
     RDKit          3D

 51 55  0  0  0  0  0  0  0  0999 V2000
   13.3755    5.3548   21.9704 H   0  0  0  0  0  0  0  0  0  0  0  0
   12.5545    5.1296   22.6522 C   0  0  0  0  0  0  0  0  0  0  0  0
   11.8183    4.0667   22.3434 N   0  0  0  0  0  0  0  0  0  0  0  0
   10.7977    3.7560   23.1599 C   0  0  0  0  0  0  0  0  0  0  0  0
   10.0015    2.7016   22.7712 N   0  0  0  0  0  0  0  0  0  0  0  0
    8.8096    2.2740   23.5273 C   0  0  0  0  0  0  0  0  0  0  0  0
    9.0920    1.5862   24.3398 H   0  0  0  0  0  0  0  0  0  0  0  0
    8.3229    3.1484   23.9661 H   0  0  0  0  0  0  0  0  0  0  0  0
    7.7266    1.5619   22.6716 C   0  0  0  0  0  0  0  0  0  0  0  0
    6.9834    1.1566   23.3708 H   0  0  0  0  0  0  0  0  0  0  0  0
    7.2065    2.2991   22.0322 H   0  0  0  0  0  0  0  0  0  0  0  0
    8.3419    0.5065   21.8628 N   0  0  0  0  0  0  0  0  0  0  0  0
    7.4920   -0.5138   21.2032 C   0  0  1  0  0  0  0  0  0  0  0  0
    6.6899    0.1303   20.0559 C   0  0  0  0  0  0  0  0  0  0  0  0
    7.2398    0.2018   18.7646 C   0  0  0  0  0  0  0  0  0  0  0  0
    8.2380   -0.1899   18.5698 H   0  0  0  0  0  0  0  0  0  0  0  0
    6.6393    0.7498   17.7014 N   0  0  0  0  0  0  0  0  0  0  0  0
    5.4475    1.3312   17.8998 C   0  0  0  0  0  0  0  0  0  0  0  0
    4.9754    1.7638   17.0207 H   0  0  0  0  0  0  0  0  0  0  0  0
    4.8361    1.3979   19.1552 C   0  0  0  0  0  0  0  0  0  0  0  0
    3.8872    1.9102   19.2584 H   0  0  0  0  0  0  0  0  0  0  0  0
    5.4725    0.8108   20.2535 C   0  0  0  0  0  0  0  0  0  0  0  0
    5.0354    0.9056   21.2501 H   0  0  0  0  0  0  0  0  0  0  0  0
    8.4768   -1.6751   20.7892 C   0  0  0  0  0  0  0  0  0  0  0  0
    9.4863   -1.4375   21.1414 H   0  0  0  0  0  0  0  0  0  0  0  0
    8.5383   -1.7666   19.7127 H   0  0  0  0  0  0  0  0  0  0  0  0
    8.0299   -2.9321   21.5690 C   0  0  2  0  0  0  0  0  0  0  0  0
    8.8187   -3.6895   21.6280 H   0  0  0  0  0  0  0  0  0  0  0  0
    6.6789   -3.4734   21.0669 C   0  0  0  0  0  0  0  0  0  0  0  0
    6.4364   -4.4056   21.5943 H   0  0  0  0  0  0  0  0  0  0  0  0
    6.6399   -3.7049   19.9978 H   0  0  0  0  0  0  0  0  0  0  0  0
    5.7022   -2.3306   21.4568 C   0  0  0  0  0  0  0  0  0  0  0  0
    5.2914   -1.8586   20.5630 H   0  0  0  0  0  0  0  0  0  0  0  0
    4.8718   -2.7017   22.0666 H   0  0  0  0  0  0  0  0  0  0  0  0
    6.6078   -1.3191   22.2215 C   0  0  1  0  0  0  0  0  0  0  0  0
    6.0771   -0.6373   22.8870 H   0  0  0  0  0  0  0  0  0  0  0  0
    7.6094   -2.2713   22.8984 C   0  0  0  0  0  0  0  0  0  0  0  0
    7.1370   -2.9543   23.6190 H   0  0  0  0  0  0  0  0  0  0  0  0
    8.4273   -1.7393   23.3968 H   0  0  0  0  0  0  0  0  0  0  0  0
    9.3156    1.1689   20.9719 C   0  0  0  0  0  0  0  0  0  0  0  0
    9.6873    0.4803   20.2014 H   0  0  0  0  0  0  0  0  0  0  0  0
    8.8283    2.0126   20.4559 H   0  0  0  0  0  0  0  0  0  0  0  0
   10.4817    1.7156   21.7892 C   0  0  0  0  0  0  0  0  0  0  0  0
   10.9870    0.8754   22.2942 H   0  0  0  0  0  0  0  0  0  0  0  0
   11.1954    2.1945   21.1161 H   0  0  0  0  0  0  0  0  0  0  0  0
   10.5288    4.4888   24.3460 C   0  0  0  0  0  0  0  0  0  0  0  0
    9.7540    4.1399   25.0119 H   0  0  0  0  0  0  0  0  0  0  0  0
   11.2848    5.6164   24.6231 C   0  0  0  0  0  0  0  0  0  0  0  0
   11.0406    6.2487   25.4784 H   0  0  0  0  0  0  0  0  0  0  0  0
   12.3379    5.9422   23.7634 C   0  0  0  0  0  0  0  0  0  0  0  0
   12.9731    6.7999   23.9369 H   0  0  0  0  0  0  0  0  0  0  0  0
  1  2  1  0
  2  3  2  0
  3  4  1  0
  4  5  1  0
  5  6  1  0
  6  7  1  0
  6  8  1  0
  6  9  1  0
  9 10  1  0
  9 11  1  0
  9 12  1  0
 13 12  1  1
 13 14  1  0
 14 15  2  0
 15 16  1  0
 15 17  1  0
 17 18  2  0
 18 19  1  0
 18 20  1  0
 20 21  1  0
 20 22  2  0
 22 23  1  0
 13 24  1  0
 24 25  1  0
 24 26  1  0
 24 27  1  0
 27 28  1  1
 27 29  1  0
 29 30  1  0
 29 31  1  0
 29 32  1  0
 32 33  1  0
 32 34  1  0
 32 35  1  0
 35 36  1  1
 35 37  1  0
 37 38  1  0
 37 39  1  0
 12 40  1  0
 40 41  1  0
 40 42  1  0
 40 43  1  0
 43 44  1  0
 43 45  1  0
  4 46  2  0
 46 47  1  0
 46 48  1  0
 48 49  1  0
 48 50  2  0
 50 51  1  0
 50  2  1  0
 43  5  1  0
 35 13  1  0
 22 14  1  0
 37 27  1  0
M  END
>  <cnnaffinity>  (1) 
-5.84029

>  <filename>  (1) 
c1ccc(N2CCN([C@@]3(c4cccnc4)C[C@@H]4CC[C@H]3C4)CC2)nc1

$$$$
