
     RDKit          3D

 37 40  0  0  0  0  0  0  0  0999 V2000
    7.1875    3.6689   23.7715 C   0  0  0  0  0  0  0  0  0  0  0  0
    7.2709    2.6031   24.6698 C   0  0  0  0  0  0  0  0  0  0  0  0
    7.4249    1.3160   24.1642 C   0  0  0  0  0  0  0  0  0  0  0  0
    7.4821    1.1376   22.7675 C   0  0  0  0  0  0  0  0  0  0  0  0
    7.6280   -0.2346   22.2210 C   0  0  0  0  0  0  0  0  0  0  0  0
    8.1238   -1.2671   22.8889 N   0  0  0  0  0  0  0  0  0  0  0  0
    8.1399   -2.2518   21.9757 C   0  0  0  0  0  0  0  0  0  0  0  0
    8.7271   -3.5798   22.3008 C   0  0  0  0  0  0  0  0  0  0  0  0
    8.6214   -4.0534   23.7724 C   0  0  0  0  0  0  0  0  0  0  0  0
    8.5278   -5.5881   23.6422 C   0  0  0  0  0  0  0  0  0  0  0  0
    8.5918   -5.8812   22.2550 O   0  0  0  0  0  0  0  0  0  0  0  0
    8.0994   -4.7602   21.5544 C   0  0  0  0  0  0  0  0  0  0  0  0
    8.4027   -4.8483   20.5049 H   0  0  0  0  0  0  0  0  0  0  0  0
    6.9989   -4.7172   21.6239 H   0  0  0  0  0  0  0  0  0  0  0  0
    7.5703   -5.9476   24.0581 H   0  0  0  0  0  0  0  0  0  0  0  0
    9.3585   -6.1167   24.1123 H   0  0  0  0  0  0  0  0  0  0  0  0
    7.7185   -3.6569   24.2412 H   0  0  0  0  0  0  0  0  0  0  0  0
    9.4750   -3.7141   24.3680 H   0  0  0  0  0  0  0  0  0  0  0  0
    9.7836   -3.4656   22.0534 H   0  0  0  0  0  0  0  0  0  0  0  0
    7.6869   -1.9116   20.7819 N   0  0  0  0  0  0  0  0  0  0  0  0
    7.3156   -0.6201   20.9473 N   0  0  0  0  0  0  0  0  0  0  0  0
    6.6102    0.0316   19.8908 C   0  0  0  0  0  0  0  0  0  0  0  0
    5.3731    0.6497   20.1041 C   0  0  0  0  0  0  0  0  0  0  0  0
    4.7690    1.3025   19.0278 C   0  0  0  0  0  0  0  0  0  0  0  0
    5.4041    1.2915   17.7845 C   0  0  0  0  0  0  0  0  0  0  0  0
    6.5604    0.6394   17.5632 N   0  0  0  0  0  0  0  0  0  0  0  0
    7.1416    0.0167   18.5913 C   0  0  0  0  0  0  0  0  0  0  0  0
    8.0743   -0.5083   18.3877 H   0  0  0  0  0  0  0  0  0  0  0  0
    4.9757    1.8259   16.9380 H   0  0  0  0  0  0  0  0  0  0  0  0
    3.8280    1.8262   19.1500 H   0  0  0  0  0  0  0  0  0  0  0  0
    4.9232    0.6557   21.0959 H   0  0  0  0  0  0  0  0  0  0  0  0
    7.4276    2.1720   21.9011 N   0  0  0  0  0  0  0  0  0  0  0  0
    7.2717    3.3992   22.4005 C   0  0  0  0  0  0  0  0  0  0  0  0
    7.1948    4.2065   21.6762 H   0  0  0  0  0  0  0  0  0  0  0  0
    7.5005    0.4557   24.8217 H   0  0  0  0  0  0  0  0  0  0  0  0
    7.2110    2.7716   25.7444 H   0  0  0  0  0  0  0  0  0  0  0  0
    7.0570    4.6895   24.1055 H   0  0  0  0  0  0  0  0  0  0  0  0
  1  2  2  0
  2  3  1  0
  3  4  2  0
  4  5  1  0
  5  6  2  0
  6  7  1  0
  7  8  1  0
  8  9  1  0
  9 10  1  0
 10 11  1  0
 11 12  1  0
 12 13  1  0
 12 14  1  0
 10 15  1  0
 10 16  1  0
  9 17  1  0
  9 18  1  0
  8 19  1  0
  7 20  2  0
 20 21  1  0
 21 22  1  0
 22 23  2  0
 23 24  1  0
 24 25  2  0
 25 26  1  0
 26 27  2  0
 27 28  1  0
 25 29  1  0
 24 30  1  0
 23 31  1  0
  4 32  1  0
 32 33  2  0
 33 34  1  0
  3 35  1  0
  2 36  1  0
  1 37  1  0
 33  1  1  0
 21  5  1  0
 27 22  1  0
 12  8  1  0
M  END
>  <cnnaffinity>  (1) 
-5.63326

>  <filename>  (1) 
c1ccc(-c2nc(C3CCOC3)nn2-c2cccnc2)nc1

$$$$
