
     RDKit          3D

 40 43  0  0  0  0  0  0  0  0999 V2000
    6.4579    3.0730   27.7507 C   0  0  0  0  0  0  0  0  0  0  0  0
    5.6579    2.0836   27.1653 C   0  0  0  0  0  0  0  0  0  0  0  0
    5.9887    1.5477   25.9143 C   0  0  0  0  0  0  0  0  0  0  0  0
    7.1356    2.0047   25.2286 C   0  0  0  0  0  0  0  0  0  0  0  0
    7.5633    1.4765   23.9061 C   0  0  0  0  0  0  0  0  0  0  0  0
    6.9654    0.5102   23.2283 N   0  0  0  0  0  0  0  0  0  0  0  0
    7.7574    0.3477   22.1386 N   0  0  0  0  0  0  0  0  0  0  0  0
    7.3887   -0.6057   21.0926 C   0  0  0  0  0  0  0  0  0  0  0  0
    6.6802    0.0444   19.9226 C   0  0  0  0  0  0  0  0  0  0  0  0
    5.4667    0.7149   20.1206 C   0  0  0  0  0  0  0  0  0  0  0  0
    4.8594    1.3336   19.0266 C   0  0  0  0  0  0  0  0  0  0  0  0
    5.4830    1.2678   17.7771 C   0  0  0  0  0  0  0  0  0  0  0  0
    6.6342    0.6132   17.5669 N   0  0  0  0  0  0  0  0  0  0  0  0
    7.2073    0.0239   18.6241 C   0  0  0  0  0  0  0  0  0  0  0  0
    8.1340   -0.5125   18.4129 H   0  0  0  0  0  0  0  0  0  0  0  0
    5.0352    1.7548   16.9097 H   0  0  0  0  0  0  0  0  0  0  0  0
    3.9290    1.8792   19.1271 H   0  0  0  0  0  0  0  0  0  0  0  0
    5.0166    0.7529   21.1158 H   0  0  0  0  0  0  0  0  0  0  0  0
    8.2777   -1.1484   20.7484 H   0  0  0  0  0  0  0  0  0  0  0  0
    6.7435   -1.3428   21.5785 H   0  0  0  0  0  0  0  0  0  0  0  0
    8.7812    1.2215   22.2066 C   0  0  0  0  0  0  0  0  0  0  0  0
    9.9347    1.2729   21.2522 C   0  0  0  0  0  0  0  0  0  0  0  0
   11.0566    0.3342   21.6151 C   0  0  0  0  0  0  0  0  0  0  0  0
   11.9954    0.3593   22.6171 C   0  0  0  0  0  0  0  0  0  0  0  0
   12.8294   -0.7277   22.5363 N   0  0  0  0  0  0  0  0  0  0  0  0
   12.4062   -1.4165   21.5120 C   0  0  0  0  0  0  0  0  0  0  0  0
   11.3217   -0.8298   20.9326 N   0  0  0  0  0  0  0  0  0  0  0  0
   10.8877   -1.1643   20.0887 H   0  0  0  0  0  0  0  0  0  0  0  0
   12.8332   -2.3354   21.1301 H   0  0  0  0  0  0  0  0  0  0  0  0
   12.1654    1.1159   23.3725 H   0  0  0  0  0  0  0  0  0  0  0  0
   10.3100    2.2990   21.2784 H   0  0  0  0  0  0  0  0  0  0  0  0
    9.5949    1.0645   20.2323 H   0  0  0  0  0  0  0  0  0  0  0  0
    8.6859    1.9539   23.2914 N   0  0  0  0  0  0  0  0  0  0  0  0
    7.9362    2.9929   25.8416 C   0  0  0  0  0  0  0  0  0  0  0  0
    7.6029    3.5227   27.0865 C   0  0  0  0  0  0  0  0  0  0  0  0
    8.2495    4.2688   27.5432 H   0  0  0  0  0  0  0  0  0  0  0  0
    8.8395    3.3232   25.3353 H   0  0  0  0  0  0  0  0  0  0  0  0
    5.3711    0.7589   25.4882 H   0  0  0  0  0  0  0  0  0  0  0  0
    4.7862    1.7136   27.7025 H   0  0  0  0  0  0  0  0  0  0  0  0
    6.1998    3.4836   28.7240 H   0  0  0  0  0  0  0  0  0  0  0  0
  1  2  2  0
  2  3  1  0
  3  4  2  0
  4  5  1  0
  5  6  2  0
  6  7  1  0
  7  8  1  0
  8  9  1  0
  9 10  2  0
 10 11  1  0
 11 12  2  0
 12 13  1  0
 13 14  2  0
 14 15  1  0
 12 16  1  0
 11 17  1  0
 10 18  1  0
  8 19  1  0
  8 20  1  0
  7 21  1  0
 21 22  1  0
 22 23  1  0
 23 24  2  0
 24 25  1  0
 25 26  2  0
 26 27  1  0
 27 28  1  0
 26 29  1  0
 24 30  1  0
 22 31  1  0
 22 32  1  0
 21 33  2  0
  4 34  1  0
 34 35  2  0
 35 36  1  0
 34 37  1  0
  3 38  1  0
  2 39  1  0
  1 40  1  0
 35  1  1  0
 33  5  1  0
 14  9  1  0
 27 23  1  0
M  END
>  <cnnaffinity>  (1) 
-6.33217

>  <filename>  (1) 
c1ccc(-c2nc(Cc3cnc[nH]3)n(Cc3cccnc3)n2)cc1

$$$$
