
     RDKit          3D

 45 48  0  0  0  0  0  0  0  0999 V2000
   12.8820    0.4967   25.0128 C   0  0  0  0  0  0  0  0  0  0  0  0
   13.3965    0.9561   23.7972 C   0  0  0  0  0  0  0  0  0  0  0  0
   12.7300    0.6661   22.6089 C   0  0  0  0  0  0  0  0  0  0  0  0
   11.5665   -0.1170   22.6136 C   0  0  0  0  0  0  0  0  0  0  0  0
   10.8694   -0.3881   21.2969 C   0  0  0  0  0  0  0  0  0  0  0  0
   10.0037    0.8343   20.8800 C   0  0  0  0  0  0  0  0  0  0  0  0
    8.9118    1.1212   21.8661 C   0  0  0  0  0  0  0  0  0  0  0  0
    8.9080    2.0189   22.8304 N   0  0  0  0  0  0  0  0  0  0  0  0
    7.8795    1.6233   23.6429 C   0  0  0  0  0  0  0  0  0  0  0  0
    7.4984    2.2698   24.9659 C   0  0  0  0  0  0  0  0  0  0  0  0
    6.2698    1.9383   25.5888 C   0  0  0  0  0  0  0  0  0  0  0  0
    5.9153    2.5597   26.7854 C   0  0  0  0  0  0  0  0  0  0  0  0
    6.8011    3.4794   27.3494 C   0  0  0  0  0  0  0  0  0  0  0  0
    8.0074    3.7255   26.6871 C   0  0  0  0  0  0  0  0  0  0  0  0
    8.3546    3.1501   25.5355 N   0  0  0  0  0  0  0  0  0  0  0  0
    8.7316    4.4248   27.0967 H   0  0  0  0  0  0  0  0  0  0  0  0
    6.5737    3.9873   28.2780 H   0  0  0  0  0  0  0  0  0  0  0  0
    4.9655    2.3288   27.2680 H   0  0  0  0  0  0  0  0  0  0  0  0
    5.6171    1.2031   25.1273 H   0  0  0  0  0  0  0  0  0  0  0  0
    7.2271    0.5608   23.1696 N   0  0  0  0  0  0  0  0  0  0  0  0
    7.8835    0.2576   22.0330 N   0  0  0  0  0  0  0  0  0  0  0  0
    7.3371   -0.6888   21.0647 C   0  0  0  0  0  0  0  0  0  0  0  0
    6.6421   -0.0154   19.8955 C   0  0  0  0  0  0  0  0  0  0  0  0
    5.4449    0.6710   20.1247 C   0  0  0  0  0  0  0  0  0  0  0  0
    4.8240    1.3204   19.0551 C   0  0  0  0  0  0  0  0  0  0  0  0
    5.4344    1.2908   17.7978 C   0  0  0  0  0  0  0  0  0  0  0  0
    6.5756    0.6295   17.5550 N   0  0  0  0  0  0  0  0  0  0  0  0
    7.1502   -0.0061   18.5866 C   0  0  0  0  0  0  0  0  0  0  0  0
    8.0642   -0.5484   18.3446 H   0  0  0  0  0  0  0  0  0  0  0  0
    4.9839    1.8144   16.9527 H   0  0  0  0  0  0  0  0  0  0  0  0
    3.8869    1.8496   19.1851 H   0  0  0  0  0  0  0  0  0  0  0  0
    5.0083    0.6933   21.1260 H   0  0  0  0  0  0  0  0  0  0  0  0
    8.1447   -1.3384   20.7120 H   0  0  0  0  0  0  0  0  0  0  0  0
    6.6236   -1.3051   21.6200 H   0  0  0  0  0  0  0  0  0  0  0  0
    9.5560    0.6755   19.8935 H   0  0  0  0  0  0  0  0  0  0  0  0
   10.6454    1.7202   20.8196 H   0  0  0  0  0  0  0  0  0  0  0  0
   10.2560   -1.2984   21.3652 H   0  0  0  0  0  0  0  0  0  0  0  0
   11.6190   -0.5763   20.5188 H   0  0  0  0  0  0  0  0  0  0  0  0
   11.0104   -0.4992   23.8481 C   0  0  0  0  0  0  0  0  0  0  0  0
   11.6547   -0.1748   25.0468 C   0  0  0  0  0  0  0  0  0  0  0  0
   11.2031   -0.4394   26.0016 H   0  0  0  0  0  0  0  0  0  0  0  0
   10.0709   -1.0494   23.8695 H   0  0  0  0  0  0  0  0  0  0  0  0
   13.0873    1.0899   21.6734 H   0  0  0  0  0  0  0  0  0  0  0  0
   14.2814    1.5809   23.7628 H   0  0  0  0  0  0  0  0  0  0  0  0
   13.4533    0.6268   25.9236 H   0  0  0  0  0  0  0  0  0  0  0  0
  1  2  2  0
  2  3  1  0
  3  4  2  0
  4  5  1  0
  5  6  1  0
  6  7  1  0
  7  8  2  0
  8  9  1  0
  9 10  1  0
 10 11  2  0
 11 12  1  0
 12 13  2  0
 13 14  1  0
 14 15  2  0
 14 16  1  0
 13 17  1  0
 12 18  1  0
 11 19  1  0
  9 20  2  0
 20 21  1  0
 21 22  1  0
 22 23  1  0
 23 24  2  0
 24 25  1  0
 25 26  2  0
 26 27  1  0
 27 28  2  0
 28 29  1  0
 26 30  1  0
 25 31  1  0
 24 32  1  0
 22 33  1  0
 22 34  1  0
  6 35  1  0
  6 36  1  0
  5 37  1  0
  5 38  1  0
  4 39  1  0
 39 40  2  0
 40 41  1  0
 39 42  1  0
  3 43  1  0
  2 44  1  0
  1 45  1  0
 40  1  1  0
 21  7  1  0
 28 23  1  0
 15 10  1  0
M  END
>  <cnnaffinity>  (1) 
-5.96666

>  <filename>  (1) 
c1ccc(CCc2nc(-c3ccccn3)nn2Cc2cccnc2)cc1

$$$$
