
     RDKit          3D

 42 45  0  0  0  0  0  0  0  0999 V2000
    6.5422    6.3951   22.8528 C   0  0  0  0  0  0  0  0  0  0  0  0
    5.9312    5.6271   21.8553 C   0  0  0  0  0  0  0  0  0  0  0  0
    6.5082    4.4212   21.4572 C   0  0  0  0  0  0  0  0  0  0  0  0
    7.7088    3.9887   22.0345 C   0  0  0  0  0  0  0  0  0  0  0  0
    8.4119    2.4425   21.5285 S   0  0  0  0  0  0  0  0  0  0  0  0
    7.4516    1.3792   22.6688 C   0  0  0  0  0  0  0  0  0  0  0  0
    7.5833   -0.0448   22.2639 C   0  0  0  0  0  0  0  0  0  0  0  0
    8.1319   -0.9621   23.0310 N   0  0  0  0  0  0  0  0  0  0  0  0
    8.3026   -2.0059   22.1805 C   0  0  0  0  0  0  0  0  0  0  0  0
    8.9921   -3.2536   22.6310 C   0  0  0  0  0  0  0  0  0  0  0  0
    8.3626   -3.9666   23.8588 C   0  0  0  0  0  0  0  0  0  0  0  0
    9.5600   -4.6500   24.5501 C   0  0  0  0  0  0  0  0  0  0  0  0
   10.7331   -4.0779   23.9957 O   0  0  0  0  0  0  0  0  0  0  0  0
   10.4325   -3.0049   23.1254 C   0  0  0  0  0  0  0  0  0  0  0  0
   11.1941   -3.0091   22.3381 H   0  0  0  0  0  0  0  0  0  0  0  0
   10.5070   -2.0373   23.6445 H   0  0  0  0  0  0  0  0  0  0  0  0
    9.5526   -4.4923   25.6417 H   0  0  0  0  0  0  0  0  0  0  0  0
    9.5789   -5.7373   24.3730 H   0  0  0  0  0  0  0  0  0  0  0  0
    7.9092   -3.2497   24.5575 H   0  0  0  0  0  0  0  0  0  0  0  0
    7.5873   -4.6791   23.5564 H   0  0  0  0  0  0  0  0  0  0  0  0
    8.9870   -3.9199   21.7651 H   0  0  0  0  0  0  0  0  0  0  0  0
    7.8717   -1.8044   20.9532 N   0  0  0  0  0  0  0  0  0  0  0  0
    7.3523   -0.5427   21.0179 N   0  0  0  0  0  0  0  0  0  0  0  0
    6.6498    0.0457   19.9229 C   0  0  0  0  0  0  0  0  0  0  0  0
    5.4361    0.7205   20.1261 C   0  0  0  0  0  0  0  0  0  0  0  0
    4.8368    1.3454   19.0320 C   0  0  0  0  0  0  0  0  0  0  0  0
    5.4535    1.2673   17.7800 C   0  0  0  0  0  0  0  0  0  0  0  0
    6.5933    0.5851   17.5677 N   0  0  0  0  0  0  0  0  0  0  0  0
    7.1663   -0.0218   18.6142 C   0  0  0  0  0  0  0  0  0  0  0  0
    8.0822   -0.5721   18.4136 H   0  0  0  0  0  0  0  0  0  0  0  0
    5.0146    1.7617   16.9149 H   0  0  0  0  0  0  0  0  0  0  0  0
    3.9078    1.8989   19.1462 H   0  0  0  0  0  0  0  0  0  0  0  0
    4.9585    0.7369   21.1068 H   0  0  0  0  0  0  0  0  0  0  0  0
    7.8561    1.4775   23.6761 H   0  0  0  0  0  0  0  0  0  0  0  0
    6.4103    1.7091   22.6805 H   0  0  0  0  0  0  0  0  0  0  0  0
    8.3148    4.7480   23.0455 C   0  0  0  0  0  0  0  0  0  0  0  0
    7.7289    5.9519   23.4508 C   0  0  0  0  0  0  0  0  0  0  0  0
    8.1979    6.5389   24.2349 H   0  0  0  0  0  0  0  0  0  0  0  0
    9.2282    4.3863   23.5091 H   0  0  0  0  0  0  0  0  0  0  0  0
    6.0402    3.8030   20.6906 H   0  0  0  0  0  0  0  0  0  0  0  0
    5.0066    5.9583   21.3876 H   0  0  0  0  0  0  0  0  0  0  0  0
    6.0946    7.3352   23.1616 H   0  0  0  0  0  0  0  0  0  0  0  0
  1  2  2  0
  2  3  1  0
  3  4  2  0
  4  5  1  0
  5  6  1  0
  6  7  1  0
  7  8  2  0
  8  9  1  0
  9 10  1  0
 10 11  1  0
 11 12  1  0
 12 13  1  0
 13 14  1  0
 14 15  1  0
 14 16  1  0
 12 17  1  0
 12 18  1  0
 11 19  1  0
 11 20  1  0
 10 21  1  0
  9 22  2  0
 22 23  1  0
 23 24  1  0
 24 25  2  0
 25 26  1  0
 26 27  2  0
 27 28  1  0
 28 29  2  0
 29 30  1  0
 27 31  1  0
 26 32  1  0
 25 33  1  0
  6 34  1  0
  6 35  1  0
  4 36  1  0
 36 37  2  0
 37 38  1  0
 36 39  1  0
  3 40  1  0
  2 41  1  0
  1 42  1  0
 37  1  1  0
 23  7  1  0
 29 24  1  0
 14 10  1  0
M  END
>  <cnnaffinity>  (1) 
-5.75731

>  <filename>  (1) 
c1ccc(SCc2nc(C3CCOC3)nn2-c2cccnc2)cc1

$$$$
