
     RDKit          3D

 43 46  0  0  0  0  0  0  0  0999 V2000
    4.5582    6.4860   26.2979 H   0  0  0  0  0  0  0  0  0  0  0  0
    4.6493    6.2274   25.2419 C   0  0  0  0  0  0  0  0  0  0  0  0
    5.2958    5.0879   24.9959 N   0  0  0  0  0  0  0  0  0  0  0  0
    5.4715    4.7377   23.7117 C   0  0  0  0  0  0  0  0  0  0  0  0
    6.1673    3.5731   23.4797 N   0  0  0  0  0  0  0  0  0  0  0  0
    6.7927    3.3255   22.1705 C   0  0  0  0  0  0  0  0  0  0  0  0
    7.3586    4.2113   21.8458 H   0  0  0  0  0  0  0  0  0  0  0  0
    6.0104    3.1177   21.4251 H   0  0  0  0  0  0  0  0  0  0  0  0
    7.7593    2.1285   22.1847 C   0  0  0  0  0  0  0  0  0  0  0  0
    8.6563    2.3945   22.7722 H   0  0  0  0  0  0  0  0  0  0  0  0
    8.0685    1.9357   21.1549 H   0  0  0  0  0  0  0  0  0  0  0  0
    7.1021    0.9545   22.7656 N   0  0  0  0  0  0  0  0  0  0  0  0
    7.3615   -0.3292   22.3581 C   0  0  0  0  0  0  0  0  0  0  0  0
    7.6069   -1.3129   23.1428 N   0  0  0  0  0  0  0  0  0  0  0  0
    7.8912   -2.4855   22.3196 C   0  0  0  0  0  0  0  0  0  0  0  0
    8.8998   -2.8821   22.5195 H   0  0  0  0  0  0  0  0  0  0  0  0
    7.1890   -3.3021   22.5549 H   0  0  0  0  0  0  0  0  0  0  0  0
    7.7668   -2.0167   20.8513 C   0  0  0  0  0  0  0  0  0  0  0  0
    8.7138   -2.0968   20.3039 H   0  0  0  0  0  0  0  0  0  0  0  0
    6.9923   -2.5589   20.2932 H   0  0  0  0  0  0  0  0  0  0  0  0
    7.3958   -0.6092   20.9850 N   0  0  0  0  0  0  0  0  0  0  0  0
    6.6901    0.0486   19.9416 C   0  0  0  0  0  0  0  0  0  0  0  0
    7.1760    0.0689   18.6101 C   0  0  0  0  0  0  0  0  0  0  0  0
    8.1158   -0.4244   18.3692 H   0  0  0  0  0  0  0  0  0  0  0  0
    6.5598    0.6717   17.5817 N   0  0  0  0  0  0  0  0  0  0  0  0
    5.3999    1.3000   17.8340 C   0  0  0  0  0  0  0  0  0  0  0  0
    4.9358    1.8032   16.9892 H   0  0  0  0  0  0  0  0  0  0  0  0
    4.8103    1.3219   19.1023 C   0  0  0  0  0  0  0  0  0  0  0  0
    3.8656    1.8360   19.2391 H   0  0  0  0  0  0  0  0  0  0  0  0
    5.4588    0.6844   20.1678 C   0  0  0  0  0  0  0  0  0  0  0  0
    5.0273    0.6485   21.1672 H   0  0  0  0  0  0  0  0  0  0  0  0
    6.3906    1.1402   24.0343 C   0  0  0  0  0  0  0  0  0  0  0  0
    5.3394    0.8307   23.9042 H   0  0  0  0  0  0  0  0  0  0  0  0
    6.8393    0.4803   24.7869 H   0  0  0  0  0  0  0  0  0  0  0  0
    6.4455    2.5986   24.5467 C   0  0  0  0  0  0  0  0  0  0  0  0
    7.4413    2.7950   24.9762 H   0  0  0  0  0  0  0  0  0  0  0  0
    5.7140    2.7201   25.3484 H   0  0  0  0  0  0  0  0  0  0  0  0
    4.9542    5.5102   22.6389 C   0  0  0  0  0  0  0  0  0  0  0  0
    5.1182    5.1480   21.6316 H   0  0  0  0  0  0  0  0  0  0  0  0
    4.2525    6.6781   22.9207 C   0  0  0  0  0  0  0  0  0  0  0  0
    3.8315    7.2814   22.1096 H   0  0  0  0  0  0  0  0  0  0  0  0
    4.1022    7.0547   24.2639 C   0  0  0  0  0  0  0  0  0  0  0  0
    3.5778    7.9541   24.5647 H   0  0  0  0  0  0  0  0  0  0  0  0
  1  2  1  0
  2  3  2  0
  3  4  1  0
  4  5  1  0
  5  6  1  0
  6  7  1  0
  6  8  1  0
  6  9  1  0
  9 10  1  0
  9 11  1  0
  9 12  1  0
 12 13  1  0
 13 14  2  0
 14 15  1  0
 15 16  1  0
 15 17  1  0
 15 18  1  0
 18 19  1  0
 18 20  1  0
 18 21  1  0
 21 22  1  0
 22 23  2  0
 23 24  1  0
 23 25  1  0
 25 26  2  0
 26 27  1  0
 26 28  1  0
 28 29  1  0
 28 30  2  0
 30 31  1  0
 12 32  1  0
 32 33  1  0
 32 34  1  0
 32 35  1  0
 35 36  1  0
 35 37  1  0
  4 38  2  0
 38 39  1  0
 38 40  1  0
 40 41  1  0
 40 42  2  0
 42 43  1  0
 42  2  1  0
 35  5  1  0
 21 13  1  0
 30 22  1  0
M  END
>  <cnnaffinity>  (1) 
-5.10819

>  <filename>  (1) 
c1ccc(N2CCN(C3=NCCN3c3cccnc3)CC2)nc1

$$$$
