
     RDKit          3D

 49 52  0  0  0  0  0  0  0  0999 V2000
    6.9259    8.3524   23.8820 H   0  0  0  0  0  0  0  0  0  0  0  0
    7.5925    7.5795   24.2625 C   0  0  0  0  0  0  0  0  0  0  0  0
    7.5491    6.4099   23.6234 N   0  0  0  0  0  0  0  0  0  0  0  0
    8.3159    5.4223   24.0985 C   0  0  0  0  0  0  0  0  0  0  0  0
    8.2137    4.2021   23.4881 N   0  0  0  0  0  0  0  0  0  0  0  0
    7.7340    4.0594   22.0980 C   0  0  0  0  0  0  0  0  0  0  0  0
    6.6385    4.0661   22.0617 H   0  0  0  0  0  0  0  0  0  0  0  0
    8.0710    4.9178   21.5119 H   0  0  0  0  0  0  0  0  0  0  0  0
    8.2867    2.7684   21.4679 C   0  0  0  0  0  0  0  0  0  0  0  0
    9.3746    2.9189   21.3443 H   0  0  0  0  0  0  0  0  0  0  0  0
    7.8752    2.5579   20.4791 H   0  0  0  0  0  0  0  0  0  0  0  0
    7.9933    1.5664   22.2409 N   0  0  0  0  0  0  0  0  0  0  0  0
    8.5318    0.3521   21.6850 C   0  0  0  0  0  0  0  0  0  0  0  0
    9.2452    0.5925   20.8767 H   0  0  0  0  0  0  0  0  0  0  0  0
    9.1322   -0.1855   22.4376 H   0  0  0  0  0  0  0  0  0  0  0  0
    7.4528   -0.5952   21.0803 C   0  0  1  0  0  0  0  0  0  0  0  0
    6.6715    0.0702   19.9191 C   0  0  0  0  0  0  0  0  0  0  0  0
    7.1622    0.0959   18.5924 C   0  0  0  0  0  0  0  0  0  0  0  0
    8.0940   -0.4098   18.3330 H   0  0  0  0  0  0  0  0  0  0  0  0
    6.5556    0.6921   17.5546 N   0  0  0  0  0  0  0  0  0  0  0  0
    5.3922    1.3124   17.7982 C   0  0  0  0  0  0  0  0  0  0  0  0
    4.9195    1.8012   16.9489 H   0  0  0  0  0  0  0  0  0  0  0  0
    4.7951    1.3435   19.0588 C   0  0  0  0  0  0  0  0  0  0  0  0
    3.8424    1.8449   19.1912 H   0  0  0  0  0  0  0  0  0  0  0  0
    5.4414    0.7190   20.1294 C   0  0  0  0  0  0  0  0  0  0  0  0
    4.9906    0.7248   21.1220 H   0  0  0  0  0  0  0  0  0  0  0  0
    8.1289   -1.9090   20.6361 C   0  0  0  0  0  0  0  0  0  0  0  0
    7.3659   -2.4273   20.0410 H   0  0  0  0  0  0  0  0  0  0  0  0
    9.0283   -1.7500   20.0279 H   0  0  0  0  0  0  0  0  0  0  0  0
    8.3970   -2.7275   21.8145 N   0  0  0  0  0  0  0  0  0  0  0  0
    9.3394   -2.5736   22.1602 H   0  0  0  0  0  0  0  0  0  0  0  0
    7.3948   -2.3583   22.8280 C   0  0  0  0  0  0  0  0  0  0  0  0
    6.7589   -3.2219   23.0697 H   0  0  0  0  0  0  0  0  0  0  0  0
    7.8747   -2.0397   23.7666 H   0  0  0  0  0  0  0  0  0  0  0  0
    6.5590   -1.2187   22.1962 C   0  0  0  0  0  0  0  0  0  0  0  0
    5.6774   -1.6576   21.7134 H   0  0  0  0  0  0  0  0  0  0  0  0
    6.2088   -0.4942   22.9409 H   0  0  0  0  0  0  0  0  0  0  0  0
    7.7928    1.7655   23.6713 C   0  0  0  0  0  0  0  0  0  0  0  0
    6.7244    1.9555   23.8855 H   0  0  0  0  0  0  0  0  0  0  0  0
    8.0736    0.8719   24.2460 H   0  0  0  0  0  0  0  0  0  0  0  0
    8.6036    2.9680   24.1836 C   0  0  0  0  0  0  0  0  0  0  0  0
    9.6740    2.7530   24.0319 H   0  0  0  0  0  0  0  0  0  0  0  0
    8.4287    3.0668   25.2569 H   0  0  0  0  0  0  0  0  0  0  0  0
    9.2051    5.5957   25.1910 C   0  0  0  0  0  0  0  0  0  0  0  0
    9.8248    4.7652   25.4974 H   0  0  0  0  0  0  0  0  0  0  0  0
    9.2591    6.8317   25.8139 C   0  0  0  0  0  0  0  0  0  0  0  0
    9.9309    6.9901   26.6593 H   0  0  0  0  0  0  0  0  0  0  0  0
    8.4222    7.8479   25.3485 C   0  0  0  0  0  0  0  0  0  0  0  0
    8.4060    8.8269   25.8086 H   0  0  0  0  0  0  0  0  0  0  0  0
  1  2  1  0
  2  3  2  0
  3  4  1  0
  4  5  1  0
  5  6  1  0
  6  7  1  0
  6  8  1  0
  6  9  1  0
  9 10  1  0
  9 11  1  0
  9 12  1  0
 12 13  1  0
 13 14  1  0
 13 15  1  0
 16 13  1  1
 16 17  1  0
 17 18  2  0
 18 19  1  0
 18 20  1  0
 20 21  2  0
 21 22  1  0
 21 23  1  0
 23 24  1  0
 23 25  2  0
 25 26  1  0
 16 27  1  0
 27 28  1  0
 27 29  1  0
 27 30  1  0
 30 31  1  0
 30 32  1  0
 32 33  1  0
 32 34  1  0
 32 35  1  0
 35 36  1  0
 35 37  1  0
 12 38  1  0
 38 39  1  0
 38 40  1  0
 38 41  1  0
 41 42  1  0
 41 43  1  0
  4 44  2  0
 44 45  1  0
 44 46  1  0
 46 47  1  0
 46 48  2  0
 48 49  1  0
 48  2  1  0
 41  5  1  0
 35 16  1  0
 25 17  1  0
M  END
>  <cnnaffinity>  (1) 
-4.67095

>  <filename>  (1) 
c1ccc(N2CCN(C[C@]3(c4cccnc4)CCNC3)CC2)nc1

$$$$
