
     RDKit          3D

 46 50  0  0  0  0  0  0  0  0999 V2000
   14.1179   -1.1483   21.4271 C   0  0  0  0  0  0  0  0  0  0  0  0
   13.8374    0.0043   22.1705 C   0  0  0  0  0  0  0  0  0  0  0  0
   12.5099    0.4210   22.3244 C   0  0  0  0  0  0  0  0  0  0  0  0
   11.4644   -0.3434   21.7683 C   0  0  0  0  0  0  0  0  0  0  0  0
   10.0416    0.0564   21.8289 C   0  0  0  0  0  0  0  0  0  0  0  0
    9.0770   -0.7570   21.4083 N   0  0  0  0  0  0  0  0  0  0  0  0
    7.9540   -0.0571   21.6426 N   0  0  0  0  0  0  0  0  0  0  0  0
    6.6542   -0.5650   21.2131 C   0  0  0  0  0  0  0  0  0  0  0  0
    6.1375    0.1451   19.9782 C   0  0  0  0  0  0  0  0  0  0  0  0
    4.9258    0.8370   19.9399 C   0  0  0  0  0  0  0  0  0  0  0  0
    4.5766    1.5168   18.7661 C   0  0  0  0  0  0  0  0  0  0  0  0
    5.4457    1.4597   17.6748 C   0  0  0  0  0  0  0  0  0  0  0  0
    6.6018    0.7818   17.6824 N   0  0  0  0  0  0  0  0  0  0  0  0
    6.9318    0.1540   18.8171 C   0  0  0  0  0  0  0  0  0  0  0  0
    7.8836   -0.3727   18.8134 H   0  0  0  0  0  0  0  0  0  0  0  0
    5.2052    1.9793   16.7485 H   0  0  0  0  0  0  0  0  0  0  0  0
    3.6612    2.0915   18.6890 H   0  0  0  0  0  0  0  0  0  0  0  0
    4.2634    0.8549   20.8074 H   0  0  0  0  0  0  0  0  0  0  0  0
    5.9559   -0.4659   22.0518 H   0  0  0  0  0  0  0  0  0  0  0  0
    6.8011   -1.6342   21.0265 H   0  0  0  0  0  0  0  0  0  0  0  0
    8.2787    1.1462   22.1573 C   0  0  0  0  0  0  0  0  0  0  0  0
    7.2687    2.0051   22.8558 C   0  0  0  0  0  0  0  0  0  0  0  0
    7.0426    1.3982   24.2142 C   0  0  0  0  0  0  0  0  0  0  0  0
    7.9508    0.9270   25.0975 C   0  0  0  0  0  0  0  0  0  0  0  0
    7.1759    0.2286   26.0546 C   0  0  0  0  0  0  0  0  0  0  0  0
    7.6714   -0.6476   27.1442 C   0  0  0  0  0  0  0  0  0  0  0  0
    8.1397   -2.0628   26.8539 C   0  0  0  0  0  0  0  0  0  0  0  0
    9.1354   -1.0043   27.2162 C   0  0  0  0  0  0  0  0  0  0  0  0
    9.7718   -0.6431   26.4088 H   0  0  0  0  0  0  0  0  0  0  0  0
    9.6198   -1.0118   28.1878 H   0  0  0  0  0  0  0  0  0  0  0  0
    7.8948   -2.8336   27.5790 H   0  0  0  0  0  0  0  0  0  0  0  0
    8.1257   -2.4154   25.8243 H   0  0  0  0  0  0  0  0  0  0  0  0
    7.1354   -0.5091   28.0788 H   0  0  0  0  0  0  0  0  0  0  0  0
    5.8913    0.3636   25.8107 N   0  0  0  0  0  0  0  0  0  0  0  0
    5.8106    1.1071   24.6431 O   0  0  0  0  0  0  0  0  0  0  0  0
    9.0240    1.0095   25.0235 H   0  0  0  0  0  0  0  0  0  0  0  0
    7.7092    2.9964   22.9614 H   0  0  0  0  0  0  0  0  0  0  0  0
    6.3366    2.0828   22.2938 H   0  0  0  0  0  0  0  0  0  0  0  0
    9.5858    1.2537   22.2874 N   0  0  0  0  0  0  0  0  0  0  0  0
   11.7727   -1.5364   21.1009 C   0  0  0  0  0  0  0  0  0  0  0  0
   13.0878   -1.8924   20.8713 C   0  0  0  0  0  0  0  0  0  0  0  0
   13.3313   -2.7393   20.2401 H   0  0  0  0  0  0  0  0  0  0  0  0
   10.9580   -2.1599   20.7536 H   0  0  0  0  0  0  0  0  0  0  0  0
   12.2984    1.3325   22.8764 H   0  0  0  0  0  0  0  0  0  0  0  0
   14.6415    0.6086   22.5815 H   0  0  0  0  0  0  0  0  0  0  0  0
   15.0970   -1.5278   21.2146 H   0  0  0  0  0  0  0  0  0  0  0  0
  1  2  2  0
  2  3  1  0
  3  4  2  0
  4  5  1  0
  5  6  2  0
  6  7  1  0
  7  8  1  0
  8  9  1  0
  9 10  2  0
 10 11  1  0
 11 12  2  0
 12 13  1  0
 13 14  2  0
 14 15  1  0
 12 16  1  0
 11 17  1  0
 10 18  1  0
  8 19  1  0
  8 20  1  0
  7 21  1  0
 21 22  1  0
 22 23  1  0
 23 24  2  0
 24 25  1  0
 25 26  1  0
 26 27  1  0
 27 28  1  0
 28 29  1  0
 28 30  1  0
 27 31  1  0
 27 32  1  0
 26 33  1  0
 25 34  2  0
 34 35  1  0
 24 36  1  0
 22 37  1  0
 22 38  1  0
 21 39  2  0
  4 40  1  0
 40 41  2  0
 41 42  1  0
 40 43  1  0
  3 44  1  0
  2 45  1  0
  1 46  1  0
 41  1  1  0
 39  5  1  0
 14  9  1  0
 35 23  1  0
 28 26  1  0
M  END
>  <cnnaffinity>  (1) 
-6.67305

>  <filename>  (1) 
c1ccc(-c2nc(Cc3cc(C4CC4)no3)n(Cc3cccnc3)n2)cc1

$$$$
