
     RDKit          3D

 40 43  0  0  0  0  0  0  0  0999 V2000
    5.1133    5.0095   28.0183 H   0  0  0  0  0  0  0  0  0  0  0  0
    5.0292    5.1293   26.9384 C   0  0  0  0  0  0  0  0  0  0  0  0
    5.3449    4.0506   26.2217 N   0  0  0  0  0  0  0  0  0  0  0  0
    5.3189    4.1708   24.8865 C   0  0  0  0  0  0  0  0  0  0  0  0
    5.7430    3.0622   24.1791 N   0  0  0  0  0  0  0  0  0  0  0  0
    5.2962    1.7145   24.5561 C   0  0  0  0  0  0  0  0  0  0  0  0
    4.9995    1.7016   25.6087 H   0  0  0  0  0  0  0  0  0  0  0  0
    4.4234    1.4239   23.9448 H   0  0  0  0  0  0  0  0  0  0  0  0
    6.3973    0.6761   24.3103 C   0  0  0  0  0  0  0  0  0  0  0  0
    7.2297    0.8369   25.0170 H   0  0  0  0  0  0  0  0  0  0  0  0
    5.9875   -0.3259   24.4703 H   0  0  0  0  0  0  0  0  0  0  0  0
    6.8333    0.7586   22.9204 N   0  0  0  0  0  0  0  0  0  0  0  0
    7.4429   -0.3586   22.3441 C   0  0  0  0  0  0  0  0  0  0  0  0
    7.4009   -0.7155   20.9434 C   0  0  0  0  0  0  0  0  0  0  0  0
    6.6636   -0.0059   19.8865 C   0  0  0  0  0  0  0  0  0  0  0  0
    7.1739    0.0421   18.5825 C   0  0  0  0  0  0  0  0  0  0  0  0
    8.1194   -0.4408   18.3417 H   0  0  0  0  0  0  0  0  0  0  0  0
    6.5677    0.6760   17.5743 N   0  0  0  0  0  0  0  0  0  0  0  0
    5.4068    1.2959   17.8359 C   0  0  0  0  0  0  0  0  0  0  0  0
    4.9328    1.7978   16.9949 H   0  0  0  0  0  0  0  0  0  0  0  0
    4.8090    1.3078   19.1008 C   0  0  0  0  0  0  0  0  0  0  0  0
    3.8736    1.8383   19.2465 H   0  0  0  0  0  0  0  0  0  0  0  0
    5.4494    0.6502   20.1471 C   0  0  0  0  0  0  0  0  0  0  0  0
    5.0241    0.6416   21.1509 H   0  0  0  0  0  0  0  0  0  0  0  0
    8.0727   -1.8162   20.7155 N   0  0  0  0  0  0  0  0  0  0  0  0
    8.5492   -2.2355   21.9286 O   0  0  0  0  0  0  0  0  0  0  0  0
    8.1694   -1.3772   22.8859 C   0  0  0  0  0  0  0  0  0  0  0  0
    8.4987   -1.6195   23.8872 H   0  0  0  0  0  0  0  0  0  0  0  0
    7.3536    2.0837   22.5662 C   0  0  0  0  0  0  0  0  0  0  0  0
    8.2647    2.3167   23.1442 H   0  0  0  0  0  0  0  0  0  0  0  0
    7.6105    2.0836   21.5032 H   0  0  0  0  0  0  0  0  0  0  0  0
    6.2729    3.1487   22.8152 C   0  0  0  0  0  0  0  0  0  0  0  0
    5.4738    2.9805   22.0703 H   0  0  0  0  0  0  0  0  0  0  0  0
    6.7062    4.1417   22.6392 H   0  0  0  0  0  0  0  0  0  0  0  0
    4.8889    5.3469   24.2321 C   0  0  0  0  0  0  0  0  0  0  0  0
    4.8415    5.3330   23.1501 H   0  0  0  0  0  0  0  0  0  0  0  0
    4.5154    6.4463   24.9976 C   0  0  0  0  0  0  0  0  0  0  0  0
    4.1679    7.3656   24.5199 H   0  0  0  0  0  0  0  0  0  0  0  0
    4.6013    6.3399   26.3926 C   0  0  0  0  0  0  0  0  0  0  0  0
    4.3324    7.1545   27.0534 H   0  0  0  0  0  0  0  0  0  0  0  0
  1  2  1  0
  2  3  2  0
  3  4  1  0
  4  5  1  0
  5  6  1  0
  6  7  1  0
  6  8  1  0
  6  9  1  0
  9 10  1  0
  9 11  1  0
  9 12  1  0
 12 13  1  0
 13 14  1  0
 14 15  1  0
 15 16  2  0
 16 17  1  0
 16 18  1  0
 18 19  2  0
 19 20  1  0
 19 21  1  0
 21 22  1  0
 21 23  2  0
 23 24  1  0
 14 25  2  0
 25 26  1  0
 26 27  1  0
 27 28  1  0
 12 29  1  0
 29 30  1  0
 29 31  1  0
 29 32  1  0
 32 33  1  0
 32 34  1  0
  4 35  2  0
 35 36  1  0
 35 37  1  0
 37 38  1  0
 37 39  2  0
 39 40  1  0
 39  2  1  0
 32  5  1  0
 27 13  2  0
 23 15  1  0
M  END
>  <cnnaffinity>  (1) 
-5.36329

>  <filename>  (1) 
c1ccc(N2CCN(c3conc3-c3cccnc3)CC2)nc1

$$$$
