
     RDKit          3D

 44 47  0  0  0  0  0  0  0  0999 V2000
   12.6465    1.6028   24.4020 C   0  0  0  0  0  0  0  0  0  0  0  0
   11.6058    0.7329   24.7275 C   0  0  0  0  0  0  0  0  0  0  0  0
   10.3094    1.0104   24.2847 C   0  0  0  0  0  0  0  0  0  0  0  0
   10.0372    2.1444   23.5037 C   0  0  0  0  0  0  0  0  0  0  0  0
    8.7358    2.2806   22.7352 C   0  0  0  0  0  0  0  0  0  0  0  0
    8.9548    2.0024   21.2285 C   0  0  0  0  0  0  0  0  0  0  0  0
    9.5040    0.5883   20.9323 C   0  0  0  0  0  0  0  0  0  0  0  0
    8.6154   -0.5100   21.4168 C   0  0  0  0  0  0  0  0  0  0  0  0
    8.8285   -1.3624   22.4057 N   0  0  0  0  0  0  0  0  0  0  0  0
    7.6323   -1.9890   22.5397 C   0  0  0  0  0  0  0  0  0  0  0  0
    7.4017   -2.9945   23.6160 C   0  0  0  0  0  0  0  0  0  0  0  0
    6.7618   -4.3256   23.1413 C   0  0  0  0  0  0  0  0  0  0  0  0
    5.2875   -4.0791   24.1891 S   0  0  0  0  0  0  0  0  0  0  0  0
    6.2836   -2.6124   24.6277 C   0  0  0  0  0  0  0  0  0  0  0  0
    6.6173   -2.6190   25.6686 H   0  0  0  0  0  0  0  0  0  0  0  0
    5.7771   -1.6648   24.4157 H   0  0  0  0  0  0  0  0  0  0  0  0
    6.5253   -4.3619   22.0725 H   0  0  0  0  0  0  0  0  0  0  0  0
    7.3392   -5.2093   23.4243 H   0  0  0  0  0  0  0  0  0  0  0  0
    8.3717   -3.1361   24.1001 H   0  0  0  0  0  0  0  0  0  0  0  0
    6.7046   -1.6062   21.6876 N   0  0  0  0  0  0  0  0  0  0  0  0
    7.3513   -0.6778   20.9343 N   0  0  0  0  0  0  0  0  0  0  0  0
    6.6630   -0.0134   19.8853 C   0  0  0  0  0  0  0  0  0  0  0  0
    5.4474    0.6221   20.1486 C   0  0  0  0  0  0  0  0  0  0  0  0
    4.8232    1.3059   19.1023 C   0  0  0  0  0  0  0  0  0  0  0  0
    5.4173    1.3092   17.8341 C   0  0  0  0  0  0  0  0  0  0  0  0
    6.5664    0.6706   17.5676 N   0  0  0  0  0  0  0  0  0  0  0  0
    7.1665    0.0254   18.5746 C   0  0  0  0  0  0  0  0  0  0  0  0
    8.0934   -0.4925   18.3363 H   0  0  0  0  0  0  0  0  0  0  0  0
    4.9495    1.8270   16.9983 H   0  0  0  0  0  0  0  0  0  0  0  0
    3.8895    1.8316   19.2576 H   0  0  0  0  0  0  0  0  0  0  0  0
    5.0258    0.5733   21.1533 H   0  0  0  0  0  0  0  0  0  0  0  0
    9.6233    0.4678   19.8521 H   0  0  0  0  0  0  0  0  0  0  0  0
   10.4860    0.4466   21.3947 H   0  0  0  0  0  0  0  0  0  0  0  0
    9.6873    2.7279   20.8568 H   0  0  0  0  0  0  0  0  0  0  0  0
    8.0273    2.1680   20.6637 H   0  0  0  0  0  0  0  0  0  0  0  0
    7.9885    1.5794   23.1321 H   0  0  0  0  0  0  0  0  0  0  0  0
    8.3229    3.2904   22.8502 H   0  0  0  0  0  0  0  0  0  0  0  0
   11.0775    3.0679   23.2878 C   0  0  0  0  0  0  0  0  0  0  0  0
   12.3785    2.7873   23.7138 C   0  0  0  0  0  0  0  0  0  0  0  0
   13.1917    3.4709   23.4921 H   0  0  0  0  0  0  0  0  0  0  0  0
   10.8758    3.9969   22.7542 H   0  0  0  0  0  0  0  0  0  0  0  0
    9.5138    0.3008   24.5038 H   0  0  0  0  0  0  0  0  0  0  0  0
   11.8057   -0.1624   25.3090 H   0  0  0  0  0  0  0  0  0  0  0  0
   13.6676    1.3549   24.6688 H   0  0  0  0  0  0  0  0  0  0  0  0
  1  2  2  0
  2  3  1  0
  3  4  2  0
  4  5  1  0
  5  6  1  0
  6  7  1  0
  7  8  1  0
  8  9  2  0
  9 10  1  0
 10 11  1  0
 11 12  1  0
 12 13  1  0
 13 14  1  0
 14 15  1  0
 14 16  1  0
 12 17  1  0
 12 18  1  0
 11 19  1  0
 10 20  2  0
 20 21  1  0
 21 22  1  0
 22 23  2  0
 23 24  1  0
 24 25  2  0
 25 26  1  0
 26 27  2  0
 27 28  1  0
 25 29  1  0
 24 30  1  0
 23 31  1  0
  7 32  1  0
  7 33  1  0
  6 34  1  0
  6 35  1  0
  5 36  1  0
  5 37  1  0
  4 38  1  0
 38 39  2  0
 39 40  1  0
 38 41  1  0
  3 42  1  0
  2 43  1  0
  1 44  1  0
 39  1  1  0
 21  8  1  0
 27 22  1  0
 14 11  1  0
M  END
>  <cnnaffinity>  (1) 
-6.08251

>  <filename>  (1) 
c1ccc(CCCc2nc(C3CSC3)nn2-c2cccnc2)cc1

$$$$
