
     RDKit          3D

 38 40  0  0  0  0  0  0  0  0999 V2000
    0.8069   -5.3147   24.3078 H   0  0  0  0  0  0  0  0  0  0  0  0
    1.6736   -5.8849   23.9816 C   0  0  0  0  0  0  0  0  0  0  0  0
    2.7301   -5.1642   23.5916 N   0  0  0  0  0  0  0  0  0  0  0  0
    3.8095   -5.8460   23.2014 C   0  0  0  0  0  0  0  0  0  0  0  0
    4.9281   -5.1226   22.8308 N   0  0  0  0  0  0  0  0  0  0  0  0
    5.5739   -5.4080   21.5347 C   0  0  0  0  0  0  0  0  0  0  0  0
    5.5988   -6.4855   21.3383 H   0  0  0  0  0  0  0  0  0  0  0  0
    5.0066   -4.9521   20.7044 H   0  0  0  0  0  0  0  0  0  0  0  0
    7.0190   -4.8480   21.5200 C   0  0  0  0  0  0  0  0  0  0  0  0
    7.6133   -5.4152   22.2533 H   0  0  0  0  0  0  0  0  0  0  0  0
    7.4792   -5.0099   20.5376 H   0  0  0  0  0  0  0  0  0  0  0  0
    7.1024   -3.4201   21.8977 N   0  0  0  0  0  0  0  0  0  0  0  0
    6.6570   -2.4586   20.9069 C   0  0  0  0  0  0  0  0  0  0  0  0
    6.8417   -2.8410   19.9004 H   0  0  0  0  0  0  0  0  0  0  0  0
    5.5781   -2.2435   20.9705 H   0  0  0  0  0  0  0  0  0  0  0  0
    7.5502   -0.8788   21.1104 S   0  0  0  0  0  0  0  0  0  0  0  0
    6.6935    0.0579   19.8614 C   0  0  0  0  0  0  0  0  0  0  0  0
    7.2103    0.1291   18.5537 C   0  0  0  0  0  0  0  0  0  0  0  0
    8.1657   -0.3423   18.3342 H   0  0  0  0  0  0  0  0  0  0  0  0
    6.5957    0.7401   17.5323 N   0  0  0  0  0  0  0  0  0  0  0  0
    5.4195    1.3337   17.7901 C   0  0  0  0  0  0  0  0  0  0  0  0
    4.9327    1.8229   16.9472 H   0  0  0  0  0  0  0  0  0  0  0  0
    4.8272    1.3450   19.0587 C   0  0  0  0  0  0  0  0  0  0  0  0
    3.8785    1.8460   19.2038 H   0  0  0  0  0  0  0  0  0  0  0  0
    5.4803    0.7126   20.1216 C   0  0  0  0  0  0  0  0  0  0  0  0
    5.0645    0.7387   21.1301 H   0  0  0  0  0  0  0  0  0  0  0  0
    6.4728   -3.2437   23.2177 C   0  0  0  0  0  0  0  0  0  0  0  0
    6.5541   -2.2028   23.5508 H   0  0  0  0  0  0  0  0  0  0  0  0
    7.0205   -3.8728   23.9352 H   0  0  0  0  0  0  0  0  0  0  0  0
    5.0044   -3.7098   23.2363 C   0  0  0  0  0  0  0  0  0  0  0  0
    4.5898   -3.5960   24.2419 H   0  0  0  0  0  0  0  0  0  0  0  0
    4.3819   -3.0885   22.5682 H   0  0  0  0  0  0  0  0  0  0  0  0
    3.8869   -7.2499   23.1954 C   0  0  0  0  0  0  0  0  0  0  0  0
    4.8335   -7.6893   22.9165 H   0  0  0  0  0  0  0  0  0  0  0  0
    2.7831   -7.9845   23.6002 C   0  0  0  0  0  0  0  0  0  0  0  0
    2.8134   -9.0744   23.5863 H   0  0  0  0  0  0  0  0  0  0  0  0
    1.6450   -7.2791   24.0103 C   0  0  0  0  0  0  0  0  0  0  0  0
    0.7639   -7.7942   24.3648 H   0  0  0  0  0  0  0  0  0  0  0  0
  1  2  1  0
  2  3  2  0
  3  4  1  0
  4  5  1  0
  5  6  1  0
  6  7  1  0
  6  8  1  0
  6  9  1  0
  9 10  1  0
  9 11  1  0
  9 12  1  0
 12 13  1  0
 13 14  1  0
 13 15  1  0
 13 16  1  0
 16 17  1  0
 17 18  2  0
 18 19  1  0
 18 20  1  0
 20 21  2  0
 21 22  1  0
 21 23  1  0
 23 24  1  0
 23 25  2  0
 25 26  1  0
 12 27  1  0
 27 28  1  0
 27 29  1  0
 27 30  1  0
 30 31  1  0
 30 32  1  0
  4 33  2  0
 33 34  1  0
 33 35  1  0
 35 36  1  0
 35 37  2  0
 37 38  1  0
 37  2  1  0
 30  5  1  0
 25 17  1  0
M  END
>  <cnnaffinity>  (1) 
-4.58644

>  <filename>  (1) 
c1ccc(N2CCN(CSc3cccnc3)CC2)nc1

$$$$
