
     RDKit          3D

 46 50  0  0  0  0  0  0  0  0999 V2000
   14.3097   -1.2693   21.0278 C   0  0  0  0  0  0  0  0  0  0  0  0
   14.1454   -0.1803   21.8930 C   0  0  0  0  0  0  0  0  0  0  0  0
   12.8418    0.1936   22.2334 C   0  0  0  0  0  0  0  0  0  0  0  0
   11.7674   -0.5623   21.7080 C   0  0  0  0  0  0  0  0  0  0  0  0
   10.3395   -0.1159   21.7943 C   0  0  0  0  0  0  0  0  0  0  0  0
    9.3661   -0.8546   21.2836 N   0  0  0  0  0  0  0  0  0  0  0  0
    8.2635   -0.1295   21.4992 N   0  0  0  0  0  0  0  0  0  0  0  0
    6.9684   -0.6557   21.0867 C   0  0  0  0  0  0  0  0  0  0  0  0
    6.3474    0.0896   19.9272 C   0  0  0  0  0  0  0  0  0  0  0  0
    5.1255    0.7614   20.0170 C   0  0  0  0  0  0  0  0  0  0  0  0
    4.6350    1.4292   18.8912 C   0  0  0  0  0  0  0  0  0  0  0  0
    5.3850    1.3896   17.7116 C   0  0  0  0  0  0  0  0  0  0  0  0
    6.5503    0.7325   17.5974 N   0  0  0  0  0  0  0  0  0  0  0  0
    7.0117    0.1098   18.6882 C   0  0  0  0  0  0  0  0  0  0  0  0
    7.9620   -0.4130   18.5771 H   0  0  0  0  0  0  0  0  0  0  0  0
    5.0360    1.9068   16.8190 H   0  0  0  0  0  0  0  0  0  0  0  0
    3.7025    1.9823   18.9182 H   0  0  0  0  0  0  0  0  0  0  0  0
    4.5616    0.7612   20.9527 H   0  0  0  0  0  0  0  0  0  0  0  0
    7.1713   -1.6941   20.8077 H   0  0  0  0  0  0  0  0  0  0  0  0
    6.2959   -0.6760   21.9505 H   0  0  0  0  0  0  0  0  0  0  0  0
    8.5971    1.0203   22.1209 C   0  0  0  0  0  0  0  0  0  0  0  0
    7.5412    1.8783   22.7576 C   0  0  0  0  0  0  0  0  0  0  0  0
    6.9619    1.1483   23.9444 C   0  0  0  0  0  0  0  0  0  0  0  0
    5.7478    0.6392   24.3382 C   0  0  0  0  0  0  0  0  0  0  0  0
    5.8868   -0.1762   25.4320 N   0  0  0  0  0  0  0  0  0  0  0  0
    7.1682   -0.1701   25.7214 C   0  0  0  0  0  0  0  0  0  0  0  0
    7.8294   -0.8874   26.8203 C   0  0  0  0  0  0  0  0  0  0  0  0
    8.9535   -0.1977   27.5590 C   0  0  0  0  0  0  0  0  0  0  0  0
    9.2589   -1.3789   26.7042 C   0  0  0  0  0  0  0  0  0  0  0  0
    9.5046   -2.3167   27.1939 H   0  0  0  0  0  0  0  0  0  0  0  0
    9.7889   -1.2085   25.7663 H   0  0  0  0  0  0  0  0  0  0  0  0
    9.0158   -0.2657   28.6402 H   0  0  0  0  0  0  0  0  0  0  0  0
    9.2229    0.7741   27.1550 H   0  0  0  0  0  0  0  0  0  0  0  0
    7.1393   -1.5134   27.3772 H   0  0  0  0  0  0  0  0  0  0  0  0
    7.8474    0.6475   24.8658 N   0  0  0  0  0  0  0  0  0  0  0  0
    8.8456    0.6584   24.7282 H   0  0  0  0  0  0  0  0  0  0  0  0
    4.7794    0.7725   23.8749 H   0  0  0  0  0  0  0  0  0  0  0  0
    6.7729    2.1088   22.0154 H   0  0  0  0  0  0  0  0  0  0  0  0
    8.0241    2.8064   23.0778 H   0  0  0  0  0  0  0  0  0  0  0  0
    9.9004    1.0620   22.3379 N   0  0  0  0  0  0  0  0  0  0  0  0
   11.9698   -1.7032   21.0246 N   0  0  0  0  0  0  0  0  0  0  0  0
   13.2008   -2.0102   20.6390 C   0  0  0  0  0  0  0  0  0  0  0  0
   13.3036   -2.8558   19.9599 H   0  0  0  0  0  0  0  0  0  0  0  0
   12.6586    1.0882   22.8226 H   0  0  0  0  0  0  0  0  0  0  0  0
   14.9934    0.4204   22.2343 H   0  0  0  0  0  0  0  0  0  0  0  0
   15.2374   -1.5436   20.5652 H   0  0  0  0  0  0  0  0  0  0  0  0
  1  2  2  0
  2  3  1  0
  3  4  2  0
  4  5  1  0
  5  6  2  0
  6  7  1  0
  7  8  1  0
  8  9  1  0
  9 10  2  0
 10 11  1  0
 11 12  2  0
 12 13  1  0
 13 14  2  0
 14 15  1  0
 12 16  1  0
 11 17  1  0
 10 18  1  0
  8 19  1  0
  8 20  1  0
  7 21  1  0
 21 22  1  0
 22 23  1  0
 23 24  2  0
 24 25  1  0
 25 26  2  0
 26 27  1  0
 27 28  1  0
 28 29  1  0
 29 30  1  0
 29 31  1  0
 28 32  1  0
 28 33  1  0
 27 34  1  0
 26 35  1  0
 35 36  1  0
 24 37  1  0
 22 38  1  0
 22 39  1  0
 21 40  2  0
  4 41  1  0
 41 42  2  0
 42 43  1  0
  3 44  1  0
  2 45  1  0
  1 46  1  0
 42  1  1  0
 40  5  1  0
 14  9  1  0
 35 23  1  0
 29 27  1  0
M  END
>  <cnnaffinity>  (1) 
-6.75819

>  <filename>  (1) 
c1ccc(-c2nc(Cc3cnc(C4CC4)[nH]3)n(Cc3cccnc3)n2)nc1

$$$$
