
     RDKit          3D

 44 47  0  0  0  0  0  0  0  0999 V2000
    7.7920    4.9016   25.6272 C   0  0  0  0  0  0  0  0  0  0  0  0
    7.8002    5.1540   24.2554 C   0  0  0  0  0  0  0  0  0  0  0  0
    8.2106    4.1716   23.3411 C   0  0  0  0  0  0  0  0  0  0  0  0
    8.6190    2.9127   23.8069 C   0  0  0  0  0  0  0  0  0  0  0  0
    9.0422    1.8860   23.0131 O   0  0  0  0  0  0  0  0  0  0  0  0
    9.0490    2.0003   21.5926 C   0  0  0  0  0  0  0  0  0  0  0  0
    9.4956    0.6522   21.0208 C   0  0  0  0  0  0  0  0  0  0  0  0
    8.6058   -0.4603   21.4467 C   0  0  0  0  0  0  0  0  0  0  0  0
    8.8331   -1.2921   22.4346 N   0  0  0  0  0  0  0  0  0  0  0  0
    7.6523   -1.9602   22.5573 C   0  0  0  0  0  0  0  0  0  0  0  0
    7.4235   -2.9282   23.6634 C   0  0  0  0  0  0  0  0  0  0  0  0
    8.6023   -3.8977   23.9788 C   0  0  0  0  0  0  0  0  0  0  0  0
    8.7323   -3.2799   25.3913 C   0  0  0  0  0  0  0  0  0  0  0  0
    7.5448   -2.3320   25.1050 C   0  0  0  0  0  0  0  0  0  0  0  0
    6.6650   -2.4812   25.7357 H   0  0  0  0  0  0  0  0  0  0  0  0
    7.7886   -1.2617   25.1243 H   0  0  0  0  0  0  0  0  0  0  0  0
    9.6817   -2.7680   25.5704 H   0  0  0  0  0  0  0  0  0  0  0  0
    8.5810   -3.9754   26.2224 H   0  0  0  0  0  0  0  0  0  0  0  0
    8.3308   -4.9561   23.9632 H   0  0  0  0  0  0  0  0  0  0  0  0
    9.4757   -3.7672   23.3310 H   0  0  0  0  0  0  0  0  0  0  0  0
    6.4700   -3.4209   23.4657 H   0  0  0  0  0  0  0  0  0  0  0  0
    6.7307   -1.6209   21.6807 N   0  0  0  0  0  0  0  0  0  0  0  0
    7.3526   -0.6630   20.9397 N   0  0  0  0  0  0  0  0  0  0  0  0
    6.6583    0.0137   19.8997 C   0  0  0  0  0  0  0  0  0  0  0  0
    5.4388    0.6471   20.1642 C   0  0  0  0  0  0  0  0  0  0  0  0
    4.8118    1.3120   19.1076 C   0  0  0  0  0  0  0  0  0  0  0  0
    5.4006    1.2967   17.8364 C   0  0  0  0  0  0  0  0  0  0  0  0
    6.5587    0.6721   17.5743 N   0  0  0  0  0  0  0  0  0  0  0  0
    7.1686    0.0525   18.5903 C   0  0  0  0  0  0  0  0  0  0  0  0
    8.1127   -0.4373   18.3641 H   0  0  0  0  0  0  0  0  0  0  0  0
    4.9212    1.7866   16.9923 H   0  0  0  0  0  0  0  0  0  0  0  0
    3.8791    1.8403   19.2587 H   0  0  0  0  0  0  0  0  0  0  0  0
    5.0148    0.6085   21.1720 H   0  0  0  0  0  0  0  0  0  0  0  0
    9.5169    0.7201   19.9317 H   0  0  0  0  0  0  0  0  0  0  0  0
   10.5123    0.4201   21.3409 H   0  0  0  0  0  0  0  0  0  0  0  0
    8.0469    2.2522   21.2163 H   0  0  0  0  0  0  0  0  0  0  0  0
    9.7440    2.7875   21.2711 H   0  0  0  0  0  0  0  0  0  0  0  0
    8.6127    2.6545   25.1940 C   0  0  0  0  0  0  0  0  0  0  0  0
    8.2023    3.6446   26.0897 C   0  0  0  0  0  0  0  0  0  0  0  0
    8.1951    3.4396   27.1579 H   0  0  0  0  0  0  0  0  0  0  0  0
    8.9258    1.6765   25.5493 H   0  0  0  0  0  0  0  0  0  0  0  0
    8.2161    4.3842   22.2754 H   0  0  0  0  0  0  0  0  0  0  0  0
    7.4821    6.1242   23.8798 H   0  0  0  0  0  0  0  0  0  0  0  0
    7.4671    5.6699   26.3274 H   0  0  0  0  0  0  0  0  0  0  0  0
  1  2  2  0
  2  3  1  0
  3  4  2  0
  4  5  1  0
  5  6  1  0
  6  7  1  0
  7  8  1  0
  8  9  2  0
  9 10  1  0
 10 11  1  0
 11 12  1  0
 12 13  1  0
 13 14  1  0
 14 15  1  0
 14 16  1  0
 13 17  1  0
 13 18  1  0
 12 19  1  0
 12 20  1  0
 11 21  1  0
 10 22  2  0
 22 23  1  0
 23 24  1  0
 24 25  2  0
 25 26  1  0
 26 27  2  0
 27 28  1  0
 28 29  2  0
 29 30  1  0
 27 31  1  0
 26 32  1  0
 25 33  1  0
  7 34  1  0
  7 35  1  0
  6 36  1  0
  6 37  1  0
  4 38  1  0
 38 39  2  0
 39 40  1  0
 38 41  1  0
  3 42  1  0
  2 43  1  0
  1 44  1  0
 39  1  1  0
 23  8  1  0
 29 24  1  0
 14 11  1  0
M  END
>  <cnnaffinity>  (1) 
-6.10781

>  <filename>  (1) 
c1ccc(OCCc2nc(C3CCC3)nn2-c2cccnc2)cc1

$$$$
