
     RDKit          3D

 47 50  0  0  0  0  0  0  0  0999 V2000
    5.0533    1.9589   16.9405 H   0  0  0  0  0  0  0  0  0  0  0  0
    5.4790    1.5258   17.8448 C   0  0  0  0  0  0  0  0  0  0  0  0
    6.7056    0.9978   17.7247 N   0  0  0  0  0  0  0  0  0  0  0  0
    7.2472    0.4552   18.8230 C   0  0  0  0  0  0  0  0  0  0  0  0
    8.2555    0.0644   18.6857 H   0  0  0  0  0  0  0  0  0  0  0  0
    6.5940    0.3309   20.0638 C   0  0  0  0  0  0  0  0  0  0  0  0
    7.2572   -0.4699   21.1653 C   0  0  0  0  0  0  0  0  0  0  0  0
    8.1483    0.4461   21.8805 N   0  0  0  0  0  0  0  0  0  0  0  0
    8.7421    0.9041   21.1893 H   0  0  0  0  0  0  0  0  0  0  0  0
    8.9009   -0.0709   22.9949 N   0  0  0  0  0  0  0  0  0  0  0  0
    8.6695    0.8089   24.1624 C   0  0  0  0  0  0  0  0  0  0  0  0
    7.5906    0.8995   24.3104 H   0  0  0  0  0  0  0  0  0  0  0  0
    9.0949    0.3182   25.0463 H   0  0  0  0  0  0  0  0  0  0  0  0
    9.2822    2.1997   23.9660 C   0  0  0  0  0  0  0  0  0  0  0  0
    8.7490    2.6780   23.1287 H   0  0  0  0  0  0  0  0  0  0  0  0
    9.1095    2.8222   24.8562 H   0  0  0  0  0  0  0  0  0  0  0  0
   10.7151    2.1280   23.6582 N   0  0  0  0  0  0  0  0  0  0  0  0
   11.4151    3.3080   23.4255 C   0  0  0  0  0  0  0  0  0  0  0  0
   12.8278    3.3332   23.4175 C   0  0  0  0  0  0  0  0  0  0  0  0
   13.3724    2.4205   23.6337 H   0  0  0  0  0  0  0  0  0  0  0  0
   13.5185    4.5213   23.1578 C   0  0  0  0  0  0  0  0  0  0  0  0
   14.6059    4.5228   23.1418 H   0  0  0  0  0  0  0  0  0  0  0  0
   12.8295    5.7116   22.9081 C   0  0  0  0  0  0  0  0  0  0  0  0
   13.3736    6.6252   22.6842 H   0  0  0  0  0  0  0  0  0  0  0  0
   11.4325    5.7093   22.9590 C   0  0  0  0  0  0  0  0  0  0  0  0
   10.8626    6.6240   22.8002 H   0  0  0  0  0  0  0  0  0  0  0  0
   10.7371    4.5301   23.2169 C   0  0  0  0  0  0  0  0  0  0  0  0
    9.6545    4.5410   23.2369 H   0  0  0  0  0  0  0  0  0  0  0  0
   11.3051    0.8038   23.4156 C   0  0  0  0  0  0  0  0  0  0  0  0
   12.1839    0.9135   22.7763 H   0  0  0  0  0  0  0  0  0  0  0  0
   11.6526    0.3426   24.3559 H   0  0  0  0  0  0  0  0  0  0  0  0
   10.3481   -0.1993   22.6981 C   0  0  0  0  0  0  0  0  0  0  0  0
   10.6643   -1.2083   22.9896 H   0  0  0  0  0  0  0  0  0  0  0  0
   10.4972   -0.1229   21.6144 H   0  0  0  0  0  0  0  0  0  0  0  0
    6.3695   -1.3194   22.1124 C   0  0  0  0  0  0  0  0  0  0  0  0
    6.2134   -0.9025   23.1109 H   0  0  0  0  0  0  0  0  0  0  0  0
    5.4192   -1.5384   21.6210 H   0  0  0  0  0  0  0  0  0  0  0  0
    7.3431   -2.5110   21.9756 C   0  0  0  0  0  0  0  0  0  0  0  0
    8.0793   -2.5086   22.7828 H   0  0  0  0  0  0  0  0  0  0  0  0
    6.9033   -3.5087   21.8623 H   0  0  0  0  0  0  0  0  0  0  0  0
    7.8862   -1.8246   20.7083 C   0  0  0  0  0  0  0  0  0  0  0  0
    7.3063   -2.1374   19.8381 H   0  0  0  0  0  0  0  0  0  0  0  0
    8.9632   -1.8481   20.4938 H   0  0  0  0  0  0  0  0  0  0  0  0
    5.3307    0.9311   20.1751 C   0  0  0  0  0  0  0  0  0  0  0  0
    4.8013    0.9264   21.1298 H   0  0  0  0  0  0  0  0  0  0  0  0
    4.7672    1.5374   19.0482 C   0  0  0  0  0  0  0  0  0  0  0  0
    3.7970    2.0158   19.0902 H   0  0  0  0  0  0  0  0  0  0  0  0
  1  2  1  0
  2  3  2  0
  3  4  1  0
  4  5  1  0
  4  6  2  0
  6  7  1  0
  7  8  1  0
  8  9  1  0
  8 10  1  0
 10 11  1  0
 11 12  1  0
 11 13  1  0
 11 14  1  0
 14 15  1  0
 14 16  1  0
 14 17  1  0
 17 18  1  0
 18 19  2  0
 19 20  1  0
 19 21  1  0
 21 22  1  0
 21 23  2  0
 23 24  1  0
 23 25  1  0
 25 26  1  0
 25 27  2  0
 27 28  1  0
 17 29  1  0
 29 30  1  0
 29 31  1  0
 29 32  1  0
 32 33  1  0
 32 34  1  0
  7 35  1  0
 35 36  1  0
 35 37  1  0
 35 38  1  0
 38 39  1  0
 38 40  1  0
 38 41  1  0
 41 42  1  0
 41 43  1  0
  6 44  1  0
 44 45  1  0
 44 46  2  0
 46 47  1  0
 46  2  1  0
 41  7  1  0
 32 10  1  0
 27 18  1  0
M  END
>  <cnnaffinity>  (1) 
-5.28482

>  <filename>  (1) 
c1ccc(N2CCN(NC3(c4cccnc4)CCC3)CC2)cc1

$$$$
