
     RDKit          3D

 42 45  0  0  0  0  0  0  0  0999 V2000
    6.7279    3.4597   27.3363 C   0  0  0  0  0  0  0  0  0  0  0  0
    5.8702    2.5351   26.7316 C   0  0  0  0  0  0  0  0  0  0  0  0
    6.2392    1.9082   25.5423 C   0  0  0  0  0  0  0  0  0  0  0  0
    7.4763    2.2080   24.9385 C   0  0  0  0  0  0  0  0  0  0  0  0
    7.8592    1.5541   23.6696 C   0  0  0  0  0  0  0  0  0  0  0  0
    7.1648    0.5693   23.1167 N   0  0  0  0  0  0  0  0  0  0  0  0
    7.8936    0.2495   22.0275 N   0  0  0  0  0  0  0  0  0  0  0  0
    7.3868   -0.6847   21.0273 C   0  0  0  0  0  0  0  0  0  0  0  0
    6.6524   -0.0025   19.8854 C   0  0  0  0  0  0  0  0  0  0  0  0
    5.4392    0.6480   20.1372 C   0  0  0  0  0  0  0  0  0  0  0  0
    4.7984    1.3075   19.0855 C   0  0  0  0  0  0  0  0  0  0  0  0
    5.3929    1.2983   17.8199 C   0  0  0  0  0  0  0  0  0  0  0  0
    6.5523    0.6769   17.5586 N   0  0  0  0  0  0  0  0  0  0  0  0
    7.1585    0.0528   18.5766 C   0  0  0  0  0  0  0  0  0  0  0  0
    8.1050   -0.4304   18.3264 H   0  0  0  0  0  0  0  0  0  0  0  0
    4.9243    1.8078   16.9781 H   0  0  0  0  0  0  0  0  0  0  0  0
    3.8703    1.8450   19.2340 H   0  0  0  0  0  0  0  0  0  0  0  0
    5.0310    0.6446   21.1506 H   0  0  0  0  0  0  0  0  0  0  0  0
    6.7263   -1.3559   21.5836 H   0  0  0  0  0  0  0  0  0  0  0  0
    8.2284   -1.2790   20.6503 H   0  0  0  0  0  0  0  0  0  0  0  0
    8.9815    1.0474   21.9684 C   0  0  0  0  0  0  0  0  0  0  0  0
   10.0776    0.8440   20.9793 C   0  0  0  0  0  0  0  0  0  0  0  0
   11.0706   -0.2995   21.3607 C   0  0  0  0  0  0  0  0  0  0  0  0
   11.8497    0.0233   22.6102 C   0  0  0  0  0  0  0  0  0  0  0  0
   12.9180    0.8699   22.7704 C   0  0  0  0  0  0  0  0  0  0  0  0
   13.1303    0.8980   24.1058 N   0  0  0  0  0  0  0  0  0  0  0  0
   12.2504    0.1248   24.7484 N   0  0  0  0  0  0  0  0  0  0  0  0
   11.4726   -0.3951   23.8535 N   0  0  0  0  0  0  0  0  0  0  0  0
   13.8220    1.3894   24.6551 H   0  0  0  0  0  0  0  0  0  0  0  0
   13.4649    1.4579   22.0542 H   0  0  0  0  0  0  0  0  0  0  0  0
   11.7736   -0.4844   20.5451 H   0  0  0  0  0  0  0  0  0  0  0  0
   10.5347   -1.2486   21.5072 H   0  0  0  0  0  0  0  0  0  0  0  0
   10.6069    1.7979   20.8935 H   0  0  0  0  0  0  0  0  0  0  0  0
    9.6210    0.6529   20.0038 H   0  0  0  0  0  0  0  0  0  0  0  0
    8.9755    1.9001   22.9718 N   0  0  0  0  0  0  0  0  0  0  0  0
    8.3397    3.1346   25.5585 C   0  0  0  0  0  0  0  0  0  0  0  0
    7.9613    3.7573   26.7480 C   0  0  0  0  0  0  0  0  0  0  0  0
    8.6279    4.4802   27.2092 H   0  0  0  0  0  0  0  0  0  0  0  0
    9.2978    3.3666   25.0982 H   0  0  0  0  0  0  0  0  0  0  0  0
    5.5823    1.1833   25.0650 H   0  0  0  0  0  0  0  0  0  0  0  0
    4.9109    2.2989   27.1833 H   0  0  0  0  0  0  0  0  0  0  0  0
    6.4354    3.9453   28.2629 H   0  0  0  0  0  0  0  0  0  0  0  0
  1  2  2  0
  2  3  1  0
  3  4  2  0
  4  5  1  0
  5  6  2  0
  6  7  1  0
  7  8  1  0
  8  9  1  0
  9 10  2  0
 10 11  1  0
 11 12  2  0
 12 13  1  0
 13 14  2  0
 14 15  1  0
 12 16  1  0
 11 17  1  0
 10 18  1  0
  8 19  1  0
  8 20  1  0
  7 21  1  0
 21 22  1  0
 22 23  1  0
 23 24  1  0
 24 25  2  0
 25 26  1  0
 26 27  1  0
 27 28  2  0
 26 29  1  0
 25 30  1  0
 23 31  1  0
 23 32  1  0
 22 33  1  0
 22 34  1  0
 21 35  2  0
  4 36  1  0
 36 37  2  0
 37 38  1  0
 36 39  1  0
  3 40  1  0
  2 41  1  0
  1 42  1  0
 37  1  1  0
 35  5  1  0
 14  9  1  0
 28 24  1  0
M  END
>  <cnnaffinity>  (1) 
-6.3012

>  <filename>  (1) 
c1ccc(-c2nc(CCc3c[nH]nn3)n(Cc3cccnc3)n2)cc1

$$$$
