
     RDKit          3D

 38 40  0  0  0  0  0  0  0  0999 V2000
    7.2559   -6.6502   19.9261 H   0  0  0  0  0  0  0  0  0  0  0  0
    6.7122   -6.0832   20.6711 C   0  0  0  0  0  0  0  0  0  0  0  0
    7.3801   -5.0244   21.1265 N   0  0  0  0  0  0  0  0  0  0  0  0
    6.7625   -4.2458   22.0302 C   0  0  0  0  0  0  0  0  0  0  0  0
    7.3701   -2.8929   22.2416 C   0  0  0  0  0  0  0  0  0  0  0  0
    8.4550   -3.0038   22.1477 H   0  0  0  0  0  0  0  0  0  0  0  0
    7.1502   -2.5208   23.2491 H   0  0  0  0  0  0  0  0  0  0  0  0
    6.8107   -1.9354   21.1504 C   0  0  0  0  0  0  0  0  0  0  0  0
    5.7203   -1.8562   21.2831 H   0  0  0  0  0  0  0  0  0  0  0  0
    6.9559   -2.3783   20.1541 H   0  0  0  0  0  0  0  0  0  0  0  0
    7.3723   -0.4951   21.0763 C   0  0  1  0  0  0  0  0  0  0  0  0
    6.6519    0.2164   19.9167 C   0  0  0  0  0  0  0  0  0  0  0  0
    7.1639    0.1764   18.6009 C   0  0  0  0  0  0  0  0  0  0  0  0
    8.1124   -0.3189   18.3977 H   0  0  0  0  0  0  0  0  0  0  0  0
    6.5781    0.7184   17.5231 N   0  0  0  0  0  0  0  0  0  0  0  0
    5.4079    1.3438   17.7165 C   0  0  0  0  0  0  0  0  0  0  0  0
    4.9554    1.7967   16.8364 H   0  0  0  0  0  0  0  0  0  0  0  0
    4.7760    1.4153   18.9623 C   0  0  0  0  0  0  0  0  0  0  0  0
    3.8227    1.9272   19.0543 H   0  0  0  0  0  0  0  0  0  0  0  0
    5.4024    0.8430   20.0751 C   0  0  0  0  0  0  0  0  0  0  0  0
    4.9206    0.8937   21.0542 H   0  0  0  0  0  0  0  0  0  0  0  0
    7.2476    0.2162   22.4453 C   0  0  0  0  0  0  0  0  0  0  0  0
    6.3004   -0.0302   22.9462 H   0  0  0  0  0  0  0  0  0  0  0  0
    7.2817    1.3115   22.2832 H   0  0  0  0  0  0  0  0  0  0  0  0
    8.3685   -0.3110   23.2179 N   0  0  0  0  0  0  0  0  0  0  0  0
    8.5760    0.2249   24.0466 H   0  0  0  0  0  0  0  0  0  0  0  0
    9.5103   -0.5285   22.3346 C   0  0  0  0  0  0  0  0  0  0  0  0
   10.2921    0.2365   22.4542 H   0  0  0  0  0  0  0  0  0  0  0  0
    9.9829   -1.4994   22.5487 H   0  0  0  0  0  0  0  0  0  0  0  0
    8.9144   -0.4946   20.9146 C   0  0  0  0  0  0  0  0  0  0  0  0
    9.2572   -1.3333   20.2995 H   0  0  0  0  0  0  0  0  0  0  0  0
    9.2133    0.4317   20.4129 H   0  0  0  0  0  0  0  0  0  0  0  0
    5.5279   -4.5888   22.6037 C   0  0  0  0  0  0  0  0  0  0  0  0
    5.1468   -3.9750   23.4136 H   0  0  0  0  0  0  0  0  0  0  0  0
    4.8188   -5.6794   22.0878 C   0  0  0  0  0  0  0  0  0  0  0  0
    3.8077   -5.9117   22.4252 H   0  0  0  0  0  0  0  0  0  0  0  0
    5.4182   -6.4351   21.0763 C   0  0  0  0  0  0  0  0  0  0  0  0
    4.9104   -7.2847   20.6347 H   0  0  0  0  0  0  0  0  0  0  0  0
  1  2  1  0
  2  3  2  0
  3  4  1  0
  4  5  1  0
  5  6  1  0
  5  7  1  0
  5  8  1  0
  8  9  1  0
  8 10  1  0
 11  8  1  1
 11 12  1  0
 12 13  2  0
 13 14  1  0
 13 15  1  0
 15 16  2  0
 16 17  1  0
 16 18  1  0
 18 19  1  0
 18 20  2  0
 20 21  1  0
 11 22  1  0
 22 23  1  0
 22 24  1  0
 22 25  1  0
 25 26  1  0
 25 27  1  0
 27 28  1  0
 27 29  1  0
 27 30  1  0
 30 31  1  0
 30 32  1  0
  4 33  2  0
 33 34  1  0
 33 35  1  0
 35 36  1  0
 35 37  2  0
 37 38  1  0
 37  2  1  0
 30 11  1  0
 20 12  1  0
M  END
>  <cnnaffinity>  (1) 
-5.24791

>  <filename>  (1) 
c1ccc(CC[C@]2(c3cccnc3)CCNC2)nc1

$$$$
