
     RDKit          3D

 45 49  0  0  0  0  0  0  0  0999 V2000
    8.2370    2.5183   30.8677 H   0  0  0  0  0  0  0  0  0  0  0  0
    7.4260    2.5018   30.1387 C   0  0  0  0  0  0  0  0  0  0  0  0
    7.7438    1.9934   28.9484 N   0  0  0  0  0  0  0  0  0  0  0  0
    6.7610    1.8493   28.0487 C   0  0  0  0  0  0  0  0  0  0  0  0
    7.1109    1.2500   26.8474 N   0  0  0  0  0  0  0  0  0  0  0  0
    8.4339    1.4252   26.2465 C   0  0  0  0  0  0  0  0  0  0  0  0
    8.3242    1.8308   25.2279 H   0  0  0  0  0  0  0  0  0  0  0  0
    9.0126    2.1413   26.8334 H   0  0  0  0  0  0  0  0  0  0  0  0
    9.2144    0.0948   26.1630 C   0  0  0  0  0  0  0  0  0  0  0  0
    9.4517   -0.2363   27.1826 H   0  0  0  0  0  0  0  0  0  0  0  0
   10.1621    0.2796   25.6433 H   0  0  0  0  0  0  0  0  0  0  0  0
    8.4723   -1.0012   25.5058 N   0  0  0  0  0  0  0  0  0  0  0  0
    8.7760   -1.2725   24.1884 N   0  0  0  0  0  0  0  0  0  0  0  0
    9.8728   -2.0637   23.8572 C   0  0  0  0  0  0  0  0  0  0  0  0
   10.4487   -2.5006   24.6545 H   0  0  0  0  0  0  0  0  0  0  0  0
    9.9800   -2.1243   22.5078 C   0  0  0  0  0  0  0  0  0  0  0  0
   10.6632   -2.5724   21.8095 H   0  0  0  0  0  0  0  0  0  0  0  0
    8.9102   -1.3986   22.0186 N   0  0  0  0  0  0  0  0  0  0  0  0
    8.4844   -1.1347   20.7756 N   0  0  0  0  0  0  0  0  0  0  0  0
    7.3473   -0.4611   20.9783 C   0  0  0  0  0  0  0  0  0  0  0  0
    6.6095    0.0382   19.8035 C   0  0  0  0  0  0  0  0  0  0  0  0
    7.1683   -0.0420   18.5061 C   0  0  0  0  0  0  0  0  0  0  0  0
    8.0889   -0.5974   18.3308 H   0  0  0  0  0  0  0  0  0  0  0  0
    6.6224    0.5390   17.4306 N   0  0  0  0  0  0  0  0  0  0  0  0
    5.4749    1.2120   17.6059 C   0  0  0  0  0  0  0  0  0  0  0  0
    5.0776    1.7154   16.7283 H   0  0  0  0  0  0  0  0  0  0  0  0
    4.7971    1.2752   18.8279 C   0  0  0  0  0  0  0  0  0  0  0  0
    3.8653    1.8220   18.8982 H   0  0  0  0  0  0  0  0  0  0  0  0
    5.3646    0.6651   19.9413 C   0  0  0  0  0  0  0  0  0  0  0  0
    4.8520    0.6802   20.9063 H   0  0  0  0  0  0  0  0  0  0  0  0
    7.0585   -0.2845   22.3603 C   0  0  0  0  0  0  0  0  0  0  0  0
    6.2030    0.2018   22.7885 H   0  0  0  0  0  0  0  0  0  0  0  0
    8.1407   -0.8991   23.0066 C   0  0  0  0  0  0  0  0  0  0  0  0
    7.0696   -1.1183   25.9471 C   0  0  0  0  0  0  0  0  0  0  0  0
    7.0875   -1.6926   26.8815 H   0  0  0  0  0  0  0  0  0  0  0  0
    6.5057   -1.7063   25.2141 H   0  0  0  0  0  0  0  0  0  0  0  0
    6.3061    0.2279   26.1825 C   0  0  0  0  0  0  0  0  0  0  0  0
    5.4142    0.0024   26.7800 H   0  0  0  0  0  0  0  0  0  0  0  0
    5.9565    0.6054   25.2096 H   0  0  0  0  0  0  0  0  0  0  0  0
    5.4429    2.3046   28.2851 C   0  0  0  0  0  0  0  0  0  0  0  0
    4.7029    2.1983   27.4999 H   0  0  0  0  0  0  0  0  0  0  0  0
    5.1512    2.9115   29.5043 C   0  0  0  0  0  0  0  0  0  0  0  0
    4.1498    3.2858   29.7226 H   0  0  0  0  0  0  0  0  0  0  0  0
    6.1688    2.9993   30.4656 C   0  0  0  0  0  0  0  0  0  0  0  0
    6.0078    3.4502   31.4364 H   0  0  0  0  0  0  0  0  0  0  0  0
  1  2  1  0
  2  3  2  0
  3  4  1  0
  4  5  1  0
  5  6  1  0
  6  7  1  0
  6  8  1  0
  6  9  1  0
  9 10  1  0
  9 11  1  0
  9 12  1  0
 12 13  1  0
 13 14  1  0
 14 15  1  0
 14 16  2  0
 16 17  1  0
 16 18  1  0
 18 19  1  0
 19 20  2  0
 20 21  1  0
 21 22  2  0
 22 23  1  0
 22 24  1  0
 24 25  2  0
 25 26  1  0
 25 27  1  0
 27 28  1  0
 27 29  2  0
 29 30  1  0
 20 31  1  0
 31 32  1  0
 31 33  2  0
 12 34  1  0
 34 35  1  0
 34 36  1  0
 34 37  1  0
 37 38  1  0
 37 39  1  0
  4 40  2  0
 40 41  1  0
 40 42  1  0
 42 43  1  0
 42 44  2  0
 44 45  1  0
 44  2  1  0
 37  5  1  0
 33 13  1  0
 33 18  1  0
 29 21  1  0
M  END
>  <cnnaffinity>  (1) 
-5.61092

>  <filename>  (1) 
c1ccc(N2CCN(n3ccn4nc(-c5cccnc5)cc34)CC2)nc1

$$$$
