
     RDKit          3D

 40 43  0  0  0  0  0  0  0  0999 V2000
    9.5280   -0.8578   20.3492 H   0  0  0  0  0  0  0  0  0  0  0  0
    8.7818   -1.1079   21.0975 C   0  0  0  0  0  0  0  0  0  0  0  0
    9.1769   -1.7869   22.2246 N   0  0  0  0  0  0  0  0  0  0  0  0
    8.1558   -1.9533   23.0162 C   0  0  0  0  0  0  0  0  0  0  0  0
    8.2119   -2.5874   24.2214 N   0  0  0  0  0  0  0  0  0  0  0  0
    7.0781   -2.5422   25.1545 C   0  0  0  0  0  0  0  0  0  0  0  0
    6.6335   -1.5388   25.1799 H   0  0  0  0  0  0  0  0  0  0  0  0
    6.2886   -3.2371   24.8343 H   0  0  0  0  0  0  0  0  0  0  0  0
    7.4998   -2.9089   26.5824 C   0  0  0  0  0  0  0  0  0  0  0  0
    8.2002   -2.1569   26.9803 H   0  0  0  0  0  0  0  0  0  0  0  0
    6.6216   -2.9064   27.2263 H   0  0  0  0  0  0  0  0  0  0  0  0
    8.1232   -4.2461   26.6334 N   0  0  0  0  0  0  0  0  0  0  0  0
    7.8100   -5.1115   27.6573 C   0  0  0  0  0  0  0  0  0  0  0  0
    7.0020   -4.6053   28.5978 N   0  0  0  0  0  0  0  0  0  0  0  0
    6.6358   -5.3525   29.6279 C   0  0  0  0  0  0  0  0  0  0  0  0
    5.9823   -4.8723   30.3521 H   0  0  0  0  0  0  0  0  0  0  0  0
    7.0329   -6.6708   29.7929 C   0  0  0  0  0  0  0  0  0  0  0  0
    6.7232   -7.2218   30.6702 H   0  0  0  0  0  0  0  0  0  0  0  0
    7.8524   -7.2323   28.8130 C   0  0  0  0  0  0  0  0  0  0  0  0
    8.1994   -8.2632   28.9152 H   0  0  0  0  0  0  0  0  0  0  0  0
    8.2519   -6.4539   27.7236 C   0  0  0  0  0  0  0  0  0  0  0  0
    8.8632   -6.8489   26.9230 H   0  0  0  0  0  0  0  0  0  0  0  0
    9.0767   -4.5420   25.5469 C   0  0  0  0  0  0  0  0  0  0  0  0
    8.6808   -5.3044   24.8573 H   0  0  0  0  0  0  0  0  0  0  0  0
   10.0150   -4.9289   25.9686 H   0  0  0  0  0  0  0  0  0  0  0  0
    9.4233   -3.2752   24.7037 C   0  0  0  0  0  0  0  0  0  0  0  0
   10.0517   -3.5434   23.8531 H   0  0  0  0  0  0  0  0  0  0  0  0
    9.9980   -2.5817   25.3310 H   0  0  0  0  0  0  0  0  0  0  0  0
    6.6427   -1.3086   22.4162 S   0  0  0  0  0  0  0  0  0  0  0  0
    7.4636   -0.7584   20.9769 C   0  0  0  0  0  0  0  0  0  0  0  0
    6.7313   -0.0369   19.9071 C   0  0  0  0  0  0  0  0  0  0  0  0
    7.2064    0.0141   18.5747 C   0  0  0  0  0  0  0  0  0  0  0  0
    8.1245   -0.5044   18.3112 H   0  0  0  0  0  0  0  0  0  0  0  0
    6.6007    0.6472   17.5611 N   0  0  0  0  0  0  0  0  0  0  0  0
    5.4506    1.2827   17.8349 C   0  0  0  0  0  0  0  0  0  0  0  0
    4.9782    1.8011   17.0026 H   0  0  0  0  0  0  0  0  0  0  0  0
    4.8619    1.2902   19.1053 C   0  0  0  0  0  0  0  0  0  0  0  0
    3.9241    1.8158   19.2640 H   0  0  0  0  0  0  0  0  0  0  0  0
    5.5090    0.6279   20.1520 C   0  0  0  0  0  0  0  0  0  0  0  0
    5.0839    0.6152   21.1566 H   0  0  0  0  0  0  0  0  0  0  0  0
  1  2  1  0
  2  3  1  0
  3  4  2  0
  4  5  1  0
  5  6  1  0
  6  7  1  0
  6  8  1  0
  6  9  1  0
  9 10  1  0
  9 11  1  0
  9 12  1  0
 12 13  1  0
 13 14  2  0
 14 15  1  0
 15 16  1  0
 15 17  2  0
 17 18  1  0
 17 19  1  0
 19 20  1  0
 19 21  2  0
 21 22  1  0
 12 23  1  0
 23 24  1  0
 23 25  1  0
 23 26  1  0
 26 27  1  0
 26 28  1  0
  4 29  1  0
 29 30  1  0
 30 31  1  0
 31 32  2  0
 32 33  1  0
 32 34  1  0
 34 35  2  0
 35 36  1  0
 35 37  1  0
 37 38  1  0
 37 39  2  0
 39 40  1  0
 30  2  2  0
 39 31  1  0
 26  5  1  0
 21 13  1  0
M  END
>  <cnnaffinity>  (1) 
-5.3007

>  <filename>  (1) 
c1ccc(N2CCN(c3ncc(-c4cccnc4)s3)CC2)nc1

$$$$
