
     RDKit          3D

 43 46  0  0  0  0  0  0  0  0999 V2000
    7.1565   -0.1323   26.6542 C   0  0  0  0  0  0  0  0  0  0  0  0
    8.3414    0.5440   26.3434 C   0  0  0  0  0  0  0  0  0  0  0  0
    8.4454    1.2448   25.1428 C   0  0  0  0  0  0  0  0  0  0  0  0
    7.3784    1.2739   24.2253 C   0  0  0  0  0  0  0  0  0  0  0  0
    7.6220    1.8883   22.8455 C   0  0  0  0  0  0  0  0  0  0  0  0
    8.6104    1.0276   22.1204 C   0  0  0  0  0  0  0  0  0  0  0  0
    9.9243    1.1256   22.2497 N   0  0  0  0  0  0  0  0  0  0  0  0
   10.3651   -0.0926   21.8576 C   0  0  0  0  0  0  0  0  0  0  0  0
   11.7775   -0.5137   21.8081 C   0  0  0  0  0  0  0  0  0  0  0  0
   12.8626    0.2756   22.2428 C   0  0  0  0  0  0  0  0  0  0  0  0
   14.1593   -0.0943   21.8624 C   0  0  0  0  0  0  0  0  0  0  0  0
   14.3426   -1.1897   21.0033 C   0  0  0  0  0  0  0  0  0  0  0  0
   13.2900   -2.0305   20.6835 C   0  0  0  0  0  0  0  0  0  0  0  0
   12.0233   -1.7321   21.1578 C   0  0  0  0  0  0  0  0  0  0  0  0
   11.1736   -2.3828   21.0059 H   0  0  0  0  0  0  0  0  0  0  0  0
   13.4659   -2.8588   20.0038 H   0  0  0  0  0  0  0  0  0  0  0  0
   15.2651   -1.4188   20.4966 H   0  0  0  0  0  0  0  0  0  0  0  0
   15.0094    0.5099   22.1672 H   0  0  0  0  0  0  0  0  0  0  0  0
   12.6919    1.1858   22.8152 H   0  0  0  0  0  0  0  0  0  0  0  0
    9.3960   -0.9025   21.4452 N   0  0  0  0  0  0  0  0  0  0  0  0
    8.2815   -0.1640   21.5811 N   0  0  0  0  0  0  0  0  0  0  0  0
    7.0088   -0.6985   21.0956 C   0  0  0  0  0  0  0  0  0  0  0  0
    6.3924    0.0667   19.9411 C   0  0  0  0  0  0  0  0  0  0  0  0
    5.1732    0.7429   20.0435 C   0  0  0  0  0  0  0  0  0  0  0  0
    4.6716    1.4151   18.9251 C   0  0  0  0  0  0  0  0  0  0  0  0
    5.4086    1.3790   17.7380 C   0  0  0  0  0  0  0  0  0  0  0  0
    6.5708    0.7211   17.6111 N   0  0  0  0  0  0  0  0  0  0  0  0
    7.0437    0.0920   18.6946 C   0  0  0  0  0  0  0  0  0  0  0  0
    7.9851   -0.4394   18.5617 H   0  0  0  0  0  0  0  0  0  0  0  0
    5.0521    1.9005   16.8506 H   0  0  0  0  0  0  0  0  0  0  0  0
    3.7436    1.9731   18.9634 H   0  0  0  0  0  0  0  0  0  0  0  0
    4.6184    0.7457   20.9845 H   0  0  0  0  0  0  0  0  0  0  0  0
    7.2400   -1.7246   20.7912 H   0  0  0  0  0  0  0  0  0  0  0  0
    6.3180   -0.7532   21.9434 H   0  0  0  0  0  0  0  0  0  0  0  0
    6.7021    1.9845   22.2617 H   0  0  0  0  0  0  0  0  0  0  0  0
    8.0703    2.8806   22.9352 H   0  0  0  0  0  0  0  0  0  0  0  0
    6.1934    0.6139   24.5564 C   0  0  0  0  0  0  0  0  0  0  0  0
    6.0778   -0.0911   25.7632 C   0  0  0  0  0  0  0  0  0  0  0  0
    5.1544   -0.6108   26.0007 H   0  0  0  0  0  0  0  0  0  0  0  0
    5.3515    0.6371   23.8663 H   0  0  0  0  0  0  0  0  0  0  0  0
    9.3827    1.7258   24.8716 H   0  0  0  0  0  0  0  0  0  0  0  0
    9.1920    0.5043   27.0213 H   0  0  0  0  0  0  0  0  0  0  0  0
    7.0771   -0.6831   27.5874 H   0  0  0  0  0  0  0  0  0  0  0  0
  1  2  2  0
  2  3  1  0
  3  4  2  0
  4  5  1  0
  5  6  1  0
  6  7  2  0
  7  8  1  0
  8  9  1  0
  9 10  2  0
 10 11  1  0
 11 12  2  0
 12 13  1  0
 13 14  2  0
 14 15  1  0
 13 16  1  0
 12 17  1  0
 11 18  1  0
 10 19  1  0
  8 20  2  0
 20 21  1  0
 21 22  1  0
 22 23  1  0
 23 24  2  0
 24 25  1  0
 25 26  2  0
 26 27  1  0
 27 28  2  0
 28 29  1  0
 26 30  1  0
 25 31  1  0
 24 32  1  0
 22 33  1  0
 22 34  1  0
  5 35  1  0
  5 36  1  0
  4 37  1  0
 37 38  2  0
 38 39  1  0
 37 40  1  0
  3 41  1  0
  2 42  1  0
  1 43  1  0
 38  1  1  0
 21  6  1  0
 28 23  1  0
 14  9  1  0
M  END
>  <cnnaffinity>  (1) 
-6.2853

>  <filename>  (1) 
c1ccc(Cc2nc(-c3ccccc3)nn2Cc2cccnc2)cc1

$$$$
