
     RDKit          3D

 39 42  0  0  0  0  0  0  0  0999 V2000
    4.9306   -5.0871   29.8341 H   0  0  0  0  0  0  0  0  0  0  0  0
    5.7883   -5.2003   29.1744 C   0  0  0  0  0  0  0  0  0  0  0  0
    6.0042   -4.2010   28.3119 N   0  0  0  0  0  0  0  0  0  0  0  0
    7.0856   -4.2914   27.5192 C   0  0  0  0  0  0  0  0  0  0  0  0
    7.3412   -3.2206   26.6664 N   0  0  0  0  0  0  0  0  0  0  0  0
    8.6768   -2.7159   26.3382 C   0  0  0  0  0  0  0  0  0  0  0  0
    8.8446   -1.7435   26.8266 H   0  0  0  0  0  0  0  0  0  0  0  0
    9.4555   -3.3740   26.7258 H   0  0  0  0  0  0  0  0  0  0  0  0
    8.8849   -2.5327   24.8166 C   0  0  0  0  0  0  0  0  0  0  0  0
    9.0033   -3.5194   24.3527 H   0  0  0  0  0  0  0  0  0  0  0  0
    9.8279   -1.9967   24.6459 H   0  0  0  0  0  0  0  0  0  0  0  0
    7.7767   -1.7994   24.1708 N   0  0  0  0  0  0  0  0  0  0  0  0
    7.8907   -1.5131   22.8470 C   0  0  0  0  0  0  0  0  0  0  0  0
    8.8518   -1.8618   22.0487 N   0  0  0  0  0  0  0  0  0  0  0  0
    8.5262   -1.3311   20.8031 N   0  0  0  0  0  0  0  0  0  0  0  0
    7.4077   -0.7104   20.9398 C   0  0  0  0  0  0  0  0  0  0  0  0
    6.6513    0.0104   19.9165 C   0  0  0  0  0  0  0  0  0  0  0  0
    7.1741    0.0575   18.6121 C   0  0  0  0  0  0  0  0  0  0  0  0
    8.1198   -0.4296   18.3872 H   0  0  0  0  0  0  0  0  0  0  0  0
    6.5689    0.6719   17.5922 N   0  0  0  0  0  0  0  0  0  0  0  0
    5.4045    1.2883   17.8470 C   0  0  0  0  0  0  0  0  0  0  0  0
    4.9226    1.7754   17.0016 H   0  0  0  0  0  0  0  0  0  0  0  0
    4.8035    1.3102   19.1116 C   0  0  0  0  0  0  0  0  0  0  0  0
    3.8716    1.8450   19.2576 H   0  0  0  0  0  0  0  0  0  0  0  0
    5.4296    0.6555   20.1704 C   0  0  0  0  0  0  0  0  0  0  0  0
    4.9925    0.6393   21.1711 H   0  0  0  0  0  0  0  0  0  0  0  0
    6.9285   -0.7810   22.2238 O   0  0  0  0  0  0  0  0  0  0  0  0
    6.6660   -1.3881   25.0389 C   0  0  0  0  0  0  0  0  0  0  0  0
    5.8124   -1.0886   24.4302 H   0  0  0  0  0  0  0  0  0  0  0  0
    6.9560   -0.5048   25.6255 H   0  0  0  0  0  0  0  0  0  0  0  0
    6.2242   -2.5195   26.0053 C   0  0  0  0  0  0  0  0  0  0  0  0
    5.6165   -3.2317   25.4307 H   0  0  0  0  0  0  0  0  0  0  0  0
    5.5634   -2.0880   26.7654 H   0  0  0  0  0  0  0  0  0  0  0  0
    7.9245   -5.4305   27.5194 C   0  0  0  0  0  0  0  0  0  0  0  0
    8.7347   -5.4875   26.8063 H   0  0  0  0  0  0  0  0  0  0  0  0
    7.6488   -6.4781   28.3915 C   0  0  0  0  0  0  0  0  0  0  0  0
    8.2710   -7.3723   28.4028 H   0  0  0  0  0  0  0  0  0  0  0  0
    6.5586   -6.3579   29.2561 C   0  0  0  0  0  0  0  0  0  0  0  0
    6.3035   -7.1499   29.9495 H   0  0  0  0  0  0  0  0  0  0  0  0
  1  2  1  0
  2  3  2  0
  3  4  1  0
  4  5  1  0
  5  6  1  0
  6  7  1  0
  6  8  1  0
  6  9  1  0
  9 10  1  0
  9 11  1  0
  9 12  1  0
 12 13  1  0
 13 14  2  0
 14 15  1  0
 15 16  2  0
 16 17  1  0
 17 18  2  0
 18 19  1  0
 18 20  1  0
 20 21  2  0
 21 22  1  0
 21 23  1  0
 23 24  1  0
 23 25  2  0
 25 26  1  0
 16 27  1  0
 12 28  1  0
 28 29  1  0
 28 30  1  0
 28 31  1  0
 31 32  1  0
 31 33  1  0
  4 34  2  0
 34 35  1  0
 34 36  1  0
 36 37  1  0
 36 38  2  0
 38 39  1  0
 38  2  1  0
 31  5  1  0
 27 13  1  0
 25 17  1  0
M  END
>  <cnnaffinity>  (1) 
-4.96937

>  <filename>  (1) 
c1ccc(N2CCN(c3nnc(-c4cccnc4)o3)CC2)nc1

$$$$
