
     RDKit          3D

 47 50  0  0  0  0  0  0  0  0999 V2000
    8.9718    3.2153   25.0525 C   0  0  0  0  0  0  0  0  0  0  0  0
    7.6635    2.9378   25.4698 C   0  0  0  0  0  0  0  0  0  0  0  0
    7.2180    1.6158   25.5758 C   0  0  0  0  0  0  0  0  0  0  0  0
    8.0840    0.5587   25.2551 C   0  0  0  0  0  0  0  0  0  0  0  0
    7.6115   -0.7910   25.3497 N   0  0  0  0  0  0  0  0  0  0  0  0
    7.0040   -1.2589   26.4778 N   0  0  0  0  0  0  0  0  0  0  0  0
    6.7038   -2.4975   26.1627 C   0  0  0  0  0  0  0  0  0  0  0  0
    5.9808   -3.4331   27.0879 C   0  0  0  0  0  0  0  0  0  0  0  0
    6.6843   -4.7878   27.2976 C   0  0  0  0  0  0  0  0  0  0  0  0
    5.5795   -5.7669   27.7312 C   0  0  0  0  0  0  0  0  0  0  0  0
    4.2341   -5.1537   27.2774 C   0  0  0  0  0  0  0  0  0  0  0  0
    4.5620   -3.8080   26.6069 C   0  0  0  0  0  0  0  0  0  0  0  0
    3.8321   -3.0284   26.8554 H   0  0  0  0  0  0  0  0  0  0  0  0
    4.5604   -3.9104   25.5159 H   0  0  0  0  0  0  0  0  0  0  0  0
    3.7000   -5.8132   26.5854 H   0  0  0  0  0  0  0  0  0  0  0  0
    3.5694   -5.0142   28.1375 H   0  0  0  0  0  0  0  0  0  0  0  0
    5.5853   -5.9082   28.8181 H   0  0  0  0  0  0  0  0  0  0  0  0
    5.7420   -6.7591   27.2968 H   0  0  0  0  0  0  0  0  0  0  0  0
    7.1390   -5.1133   26.3550 H   0  0  0  0  0  0  0  0  0  0  0  0
    7.4919   -4.7185   28.0363 H   0  0  0  0  0  0  0  0  0  0  0  0
    5.8959   -2.9144   28.0467 H   0  0  0  0  0  0  0  0  0  0  0  0
    7.0491   -2.8614   24.8941 N   0  0  0  0  0  0  0  0  0  0  0  0
    7.6083   -1.7735   24.4075 C   0  0  0  0  0  0  0  0  0  0  0  0
    8.0089   -1.5899   22.9795 C   0  0  0  0  0  0  0  0  0  0  0  0
    6.9709   -0.7768   22.2055 C   0  0  0  0  0  0  0  0  0  0  0  0
    7.4179   -0.6838   20.8552 O   0  0  0  0  0  0  0  0  0  0  0  0
    6.6683   -0.0022   19.9375 C   0  0  0  0  0  0  0  0  0  0  0  0
    5.4462    0.6417   20.1829 C   0  0  0  0  0  0  0  0  0  0  0  0
    4.8159    1.3022   19.1123 C   0  0  0  0  0  0  0  0  0  0  0  0
    5.4026    1.2901   17.8443 C   0  0  0  0  0  0  0  0  0  0  0  0
    6.5699    0.6682   17.5969 N   0  0  0  0  0  0  0  0  0  0  0  0
    7.1784    0.0547   18.6158 C   0  0  0  0  0  0  0  0  0  0  0  0
    8.1232   -0.4348   18.3986 H   0  0  0  0  0  0  0  0  0  0  0  0
    4.9185    1.7803   16.9966 H   0  0  0  0  0  0  0  0  0  0  0  0
    3.8819    1.8365   19.2629 H   0  0  0  0  0  0  0  0  0  0  0  0
    4.9999    0.6313   21.1792 H   0  0  0  0  0  0  0  0  0  0  0  0
    6.8524    0.2227   22.6505 H   0  0  0  0  0  0  0  0  0  0  0  0
    6.0029   -1.2903   22.2450 H   0  0  0  0  0  0  0  0  0  0  0  0
    8.9773   -1.0906   22.9046 H   0  0  0  0  0  0  0  0  0  0  0  0
    8.1199   -2.5739   22.5203 H   0  0  0  0  0  0  0  0  0  0  0  0
    9.3982    0.8323   24.8422 C   0  0  0  0  0  0  0  0  0  0  0  0
    9.8343    2.1588   24.7448 C   0  0  0  0  0  0  0  0  0  0  0  0
   10.8521    2.3606   24.4218 H   0  0  0  0  0  0  0  0  0  0  0  0
   10.0808    0.0151   24.6272 H   0  0  0  0  0  0  0  0  0  0  0  0
    6.2107    1.3912   25.9165 H   0  0  0  0  0  0  0  0  0  0  0  0
    6.9916    3.7545   25.7235 H   0  0  0  0  0  0  0  0  0  0  0  0
    9.3148    4.2459   24.9693 H   0  0  0  0  0  0  0  0  0  0  0  0
  1  2  2  0
  2  3  1  0
  3  4  2  0
  4  5  1  0
  5  6  1  0
  6  7  2  0
  7  8  1  0
  8  9  1  0
  9 10  1  0
 10 11  1  0
 11 12  1  0
 12 13  1  0
 12 14  1  0
 11 15  1  0
 11 16  1  0
 10 17  1  0
 10 18  1  0
  9 19  1  0
  9 20  1  0
  8 21  1  0
  7 22  1  0
 22 23  2  0
 23 24  1  0
 24 25  1  0
 25 26  1  0
 26 27  1  0
 27 28  2  0
 28 29  1  0
 29 30  2  0
 30 31  1  0
 31 32  2  0
 32 33  1  0
 30 34  1  0
 29 35  1  0
 28 36  1  0
 25 37  1  0
 25 38  1  0
 24 39  1  0
 24 40  1  0
  4 41  1  0
 41 42  2  0
 42 43  1  0
 41 44  1  0
  3 45  1  0
  2 46  1  0
  1 47  1  0
 42  1  1  0
 23  5  1  0
 32 27  1  0
 12  8  1  0
M  END
>  <cnnaffinity>  (1) 
-5.58638

>  <filename>  (1) 
c1ccc(-n2nc(C3CCCC3)nc2CCOc2cccnc2)cc1

$$$$
