
     RDKit          3D

 42 45  0  0  0  0  0  0  0  0999 V2000
   14.3500   -1.2639   21.0046 C   0  0  0  0  0  0  0  0  0  0  0  0
   14.1645   -0.1716   21.8600 C   0  0  0  0  0  0  0  0  0  0  0  0
   12.8554    0.1980   22.1801 C   0  0  0  0  0  0  0  0  0  0  0  0
   11.7932   -0.5728   21.6461 C   0  0  0  0  0  0  0  0  0  0  0  0
   10.3575   -0.1334   21.6818 C   0  0  0  0  0  0  0  0  0  0  0  0
    9.3778   -0.8927   21.2067 N   0  0  0  0  0  0  0  0  0  0  0  0
    8.2752   -0.1765   21.4443 N   0  0  0  0  0  0  0  0  0  0  0  0
    6.9837   -0.7205   21.0272 C   0  0  0  0  0  0  0  0  0  0  0  0
    6.3487    0.0341   19.8826 C   0  0  0  0  0  0  0  0  0  0  0  0
    5.1364    0.7191   20.0040 C   0  0  0  0  0  0  0  0  0  0  0  0
    4.6439    1.4150   18.8979 C   0  0  0  0  0  0  0  0  0  0  0  0
    5.3793    1.3921   17.7094 C   0  0  0  0  0  0  0  0  0  0  0  0
    6.5353    0.7241   17.5676 N   0  0  0  0  0  0  0  0  0  0  0  0
    7.0021    0.0745   18.6397 C   0  0  0  0  0  0  0  0  0  0  0  0
    7.9502   -0.4492   18.5114 H   0  0  0  0  0  0  0  0  0  0  0  0
    5.0250    1.9276   16.8309 H   0  0  0  0  0  0  0  0  0  0  0  0
    3.7215    1.9826   18.9489 H   0  0  0  0  0  0  0  0  0  0  0  0
    4.5911    0.7201   20.9509 H   0  0  0  0  0  0  0  0  0  0  0  0
    7.1973   -1.7548   20.7417 H   0  0  0  0  0  0  0  0  0  0  0  0
    6.3143   -0.7545   21.8940 H   0  0  0  0  0  0  0  0  0  0  0  0
    8.6105    0.9836   22.0552 C   0  0  0  0  0  0  0  0  0  0  0  0
    7.6340    1.8247   22.8041 C   0  0  0  0  0  0  0  0  0  0  0  0
    7.4760    1.2536   24.2417 C   0  0  0  0  0  0  0  0  0  0  0  0
    6.4938    1.9601   25.1149 C   0  0  0  0  0  0  0  0  0  0  0  0
    6.6384    2.9901   26.0233 C   0  0  0  0  0  0  0  0  0  0  0  0
    5.3371    3.2454   26.4994 C   0  0  0  0  0  0  0  0  0  0  0  0
    4.4437    2.4326   25.9483 N   0  0  0  0  0  0  0  0  0  0  0  0
    5.1686    1.6695   25.1186 N   0  0  0  0  0  0  0  0  0  0  0  0
    4.7130    0.9249   24.6107 H   0  0  0  0  0  0  0  0  0  0  0  0
    5.0158    3.9899   27.2178 H   0  0  0  0  0  0  0  0  0  0  0  0
    7.5567    3.4819   26.3122 H   0  0  0  0  0  0  0  0  0  0  0  0
    7.2011    0.1905   24.1704 H   0  0  0  0  0  0  0  0  0  0  0  0
    8.4587    1.2815   24.7275 H   0  0  0  0  0  0  0  0  0  0  0  0
    6.6777    1.8489   22.2702 H   0  0  0  0  0  0  0  0  0  0  0  0
    8.0175    2.8467   22.8383 H   0  0  0  0  0  0  0  0  0  0  0  0
    9.9243    1.0501   22.1979 N   0  0  0  0  0  0  0  0  0  0  0  0
   12.0216   -1.7339   21.0092 N   0  0  0  0  0  0  0  0  0  0  0  0
   13.2569   -2.0311   20.6333 C   0  0  0  0  0  0  0  0  0  0  0  0
   13.3764   -2.8909   19.9806 H   0  0  0  0  0  0  0  0  0  0  0  0
   12.6548    1.0773   22.7822 H   0  0  0  0  0  0  0  0  0  0  0  0
   15.0051    0.4333   22.1925 H   0  0  0  0  0  0  0  0  0  0  0  0
   15.2724   -1.5015   20.5149 H   0  0  0  0  0  0  0  0  0  0  0  0
  1  2  2  0
  2  3  1  0
  3  4  2  0
  4  5  1  0
  5  6  2  0
  6  7  1  0
  7  8  1  0
  8  9  1  0
  9 10  2  0
 10 11  1  0
 11 12  2  0
 12 13  1  0
 13 14  2  0
 14 15  1  0
 12 16  1  0
 11 17  1  0
 10 18  1  0
  8 19  1  0
  8 20  1  0
  7 21  1  0
 21 22  1  0
 22 23  1  0
 23 24  1  0
 24 25  2  0
 25 26  1  0
 26 27  2  0
 27 28  1  0
 28 29  1  0
 26 30  1  0
 25 31  1  0
 23 32  1  0
 23 33  1  0
 22 34  1  0
 22 35  1  0
 21 36  2  0
  4 37  1  0
 37 38  2  0
 38 39  1  0
  3 40  1  0
  2 41  1  0
  1 42  1  0
 38  1  1  0
 36  5  1  0
 14  9  1  0
 28 24  1  0
M  END
>  <cnnaffinity>  (1) 
-6.34277

>  <filename>  (1) 
c1ccc(-c2nc(CCc3ccn[nH]3)n(Cc3cccnc3)n2)nc1

$$$$
