
     RDKit          3D

 39 42  0  0  0  0  0  0  0  0999 V2000
    6.5702    3.2013   27.5674 C   0  0  0  0  0  0  0  0  0  0  0  0
    5.7529    2.2276   26.9836 C   0  0  0  0  0  0  0  0  0  0  0  0
    6.1061    1.6390   25.7675 C   0  0  0  0  0  0  0  0  0  0  0  0
    7.2944    2.0361   25.1163 C   0  0  0  0  0  0  0  0  0  0  0  0
    7.7059    1.4677   23.8135 C   0  0  0  0  0  0  0  0  0  0  0  0
    7.0877    0.4685   23.2047 N   0  0  0  0  0  0  0  0  0  0  0  0
    7.8267    0.2754   22.0857 N   0  0  0  0  0  0  0  0  0  0  0  0
    7.3646   -0.6612   21.0562 C   0  0  0  0  0  0  0  0  0  0  0  0
    6.6740    0.0172   19.8899 C   0  0  0  0  0  0  0  0  0  0  0  0
    5.4625    0.6864   20.1096 C   0  0  0  0  0  0  0  0  0  0  0  0
    4.8434    1.3282   19.0367 C   0  0  0  0  0  0  0  0  0  0  0  0
    5.4657    1.2822   17.7854 C   0  0  0  0  0  0  0  0  0  0  0  0
    6.6125    0.6274   17.5488 N   0  0  0  0  0  0  0  0  0  0  0  0
    7.1899    0.0064   18.5854 C   0  0  0  0  0  0  0  0  0  0  0  0
    8.1068   -0.5457   18.3580 H   0  0  0  0  0  0  0  0  0  0  0  0
    5.0223    1.7862   16.9315 H   0  0  0  0  0  0  0  0  0  0  0  0
    3.9036    1.8573   19.1567 H   0  0  0  0  0  0  0  0  0  0  0  0
    5.0269    0.6973   21.1100 H   0  0  0  0  0  0  0  0  0  0  0  0
    8.2121   -1.2662   20.7250 H   0  0  0  0  0  0  0  0  0  0  0  0
    6.6664   -1.3219   21.5781 H   0  0  0  0  0  0  0  0  0  0  0  0
    8.8314    1.1723   22.0660 C   0  0  0  0  0  0  0  0  0  0  0  0
    9.9731    1.1709   21.1083 C   0  0  0  0  0  0  0  0  0  0  0  0
   10.9817    0.1482   21.5074 C   0  0  0  0  0  0  0  0  0  0  0  0
   12.0896    0.1630   22.2912 C   0  0  0  0  0  0  0  0  0  0  0  0
   12.5236   -1.1876   22.2575 C   0  0  0  0  0  0  0  0  0  0  0  0
   11.7327   -1.9409   21.5390 N   0  0  0  0  0  0  0  0  0  0  0  0
   10.7498   -1.0955   21.0756 O   0  0  0  0  0  0  0  0  0  0  0  0
   13.4071   -1.6351   22.6929 H   0  0  0  0  0  0  0  0  0  0  0  0
   12.5221    1.0015   22.8239 H   0  0  0  0  0  0  0  0  0  0  0  0
   10.4362    2.1575   21.1562 H   0  0  0  0  0  0  0  0  0  0  0  0
    9.6176    0.9697   20.0973 H   0  0  0  0  0  0  0  0  0  0  0  0
    8.7897    1.9368   23.1291 N   0  0  0  0  0  0  0  0  0  0  0  0
    8.1210    3.0035   25.7222 C   0  0  0  0  0  0  0  0  0  0  0  0
    7.7556    3.5870   26.9337 C   0  0  0  0  0  0  0  0  0  0  0  0
    8.3892    4.3516   27.3713 H   0  0  0  0  0  0  0  0  0  0  0  0
    9.0496    3.2850   25.2288 H   0  0  0  0  0  0  0  0  0  0  0  0
    5.4728    0.8695   25.3265 H   0  0  0  0  0  0  0  0  0  0  0  0
    4.8296    1.9313   27.4753 H   0  0  0  0  0  0  0  0  0  0  0  0
    6.2809    3.6650   28.5070 H   0  0  0  0  0  0  0  0  0  0  0  0
  1  2  2  0
  2  3  1  0
  3  4  2  0
  4  5  1  0
  5  6  2  0
  6  7  1  0
  7  8  1  0
  8  9  1  0
  9 10  2  0
 10 11  1  0
 11 12  2  0
 12 13  1  0
 13 14  2  0
 14 15  1  0
 12 16  1  0
 11 17  1  0
 10 18  1  0
  8 19  1  0
  8 20  1  0
  7 21  1  0
 21 22  1  0
 22 23  1  0
 23 24  2  0
 24 25  1  0
 25 26  2  0
 26 27  1  0
 25 28  1  0
 24 29  1  0
 22 30  1  0
 22 31  1  0
 21 32  2  0
  4 33  1  0
 33 34  2  0
 34 35  1  0
 33 36  1  0
  3 37  1  0
  2 38  1  0
  1 39  1  0
 34  1  1  0
 32  5  1  0
 14  9  1  0
 27 23  1  0
M  END
>  <cnnaffinity>  (1) 
-6.12738

>  <filename>  (1) 
c1ccc(-c2nc(Cc3ccno3)n(Cc3cccnc3)n2)cc1

$$$$
