
     RDKit          3D

 41 44  0  0  0  0  0  0  0  0999 V2000
    5.2405   -3.2044   30.6585 H   0  0  0  0  0  0  0  0  0  0  0  0
    5.3266   -3.9569   29.8719 C   0  0  0  0  0  0  0  0  0  0  0  0
    5.5084   -3.4763   28.6398 N   0  0  0  0  0  0  0  0  0  0  0  0
    5.8867   -4.3434   27.6904 C   0  0  0  0  0  0  0  0  0  0  0  0
    6.3409   -3.7777   26.5120 N   0  0  0  0  0  0  0  0  0  0  0  0
    5.6640   -2.6034   25.9437 C   0  0  0  0  0  0  0  0  0  0  0  0
    5.1742   -2.0503   26.7518 H   0  0  0  0  0  0  0  0  0  0  0  0
    4.8916   -2.9382   25.2285 H   0  0  0  0  0  0  0  0  0  0  0  0
    6.6547   -1.6821   25.2057 C   0  0  0  0  0  0  0  0  0  0  0  0
    6.0965   -0.8854   24.7028 H   0  0  0  0  0  0  0  0  0  0  0  0
    7.3240   -1.2114   25.9488 H   0  0  0  0  0  0  0  0  0  0  0  0
    7.4156   -2.4241   24.2006 N   0  0  0  0  0  0  0  0  0  0  0  0
    7.8091   -1.8422   22.9942 C   0  0  0  0  0  0  0  0  0  0  0  0
    9.0618   -1.8647   22.4457 C   0  0  0  0  0  0  0  0  0  0  0  0
    9.9462   -2.2851   22.8985 H   0  0  0  0  0  0  0  0  0  0  0  0
    9.1192   -1.0759   20.9122 S   0  0  0  0  0  0  0  0  0  0  0  0
    7.4223   -0.7001   20.9727 C   0  0  0  0  0  0  0  0  0  0  0  0
    6.6847    0.0090   19.8990 C   0  0  0  0  0  0  0  0  0  0  0  0
    7.1794    0.0621   18.5786 C   0  0  0  0  0  0  0  0  0  0  0  0
    8.1233   -0.4212   18.3361 H   0  0  0  0  0  0  0  0  0  0  0  0
    6.5587    0.6773   17.5650 N   0  0  0  0  0  0  0  0  0  0  0  0
    5.3984    1.2925   17.8343 C   0  0  0  0  0  0  0  0  0  0  0  0
    4.9263    1.7941   16.9924 H   0  0  0  0  0  0  0  0  0  0  0  0
    4.8090    1.3054   19.1031 C   0  0  0  0  0  0  0  0  0  0  0  0
    3.8768    1.8369   19.2520 H   0  0  0  0  0  0  0  0  0  0  0  0
    5.4567    0.6464   20.1515 C   0  0  0  0  0  0  0  0  0  0  0  0
    5.0243    0.6452   21.1527 H   0  0  0  0  0  0  0  0  0  0  0  0
    6.8914   -1.1725   22.1304 C   0  0  0  0  0  0  0  0  0  0  0  0
    5.8487   -1.1095   22.3588 H   0  0  0  0  0  0  0  0  0  0  0  0
    8.1267   -3.5606   24.7668 C   0  0  0  0  0  0  0  0  0  0  0  0
    8.5740   -4.1327   23.9455 H   0  0  0  0  0  0  0  0  0  0  0  0
    8.9380   -3.2370   25.4456 H   0  0  0  0  0  0  0  0  0  0  0  0
    7.1610   -4.5011   25.5345 C   0  0  0  0  0  0  0  0  0  0  0  0
    6.5137   -4.9972   24.7913 H   0  0  0  0  0  0  0  0  0  0  0  0
    7.7696   -5.2682   26.0318 H   0  0  0  0  0  0  0  0  0  0  0  0
    5.8460   -5.7421   27.8897 C   0  0  0  0  0  0  0  0  0  0  0  0
    6.0572   -6.3796   27.0437 H   0  0  0  0  0  0  0  0  0  0  0  0
    5.5307   -6.2385   29.1517 C   0  0  0  0  0  0  0  0  0  0  0  0
    5.4443   -7.3141   29.3271 H   0  0  0  0  0  0  0  0  0  0  0  0
    5.2991   -5.3155   30.1826 C   0  0  0  0  0  0  0  0  0  0  0  0
    5.0949   -5.6181   31.2026 H   0  0  0  0  0  0  0  0  0  0  0  0
  1  2  1  0
  2  3  2  0
  3  4  1  0
  4  5  1  0
  5  6  1  0
  6  7  1  0
  6  8  1  0
  6  9  1  0
  9 10  1  0
  9 11  1  0
  9 12  1  0
 12 13  1  0
 13 14  2  0
 14 15  1  0
 14 16  1  0
 16 17  1  0
 17 18  1  0
 18 19  2  0
 19 20  1  0
 19 21  1  0
 21 22  2  0
 22 23  1  0
 22 24  1  0
 24 25  1  0
 24 26  2  0
 26 27  1  0
 17 28  2  0
 28 29  1  0
 12 30  1  0
 30 31  1  0
 30 32  1  0
 30 33  1  0
 33 34  1  0
 33 35  1  0
  4 36  2  0
 36 37  1  0
 36 38  1  0
 38 39  1  0
 38 40  2  0
 40 41  1  0
 40  2  1  0
 33  5  1  0
 28 13  1  0
 26 18  1  0
M  END
>  <cnnaffinity>  (1) 
-5.48478

>  <filename>  (1) 
c1ccc(N2CCN(c3csc(-c4cccnc4)c3)CC2)nc1

$$$$
