
     RDKit          3D

 42 45  0  0  0  0  0  0  0  0999 V2000
   12.4511    0.5672   24.7081 C   0  0  0  0  0  0  0  0  0  0  0  0
   12.7109    0.1713   23.3888 C   0  0  0  0  0  0  0  0  0  0  0  0
   11.8256    0.5120   22.3674 C   0  0  0  0  0  0  0  0  0  0  0  0
   10.6817    1.2857   22.6438 C   0  0  0  0  0  0  0  0  0  0  0  0
    9.8696    1.5154   21.5772 O   0  0  0  0  0  0  0  0  0  0  0  0
    8.6614    2.2572   21.7102 C   0  0  0  0  0  0  0  0  0  0  0  0
    7.5636    1.5442   22.5350 C   0  0  0  0  0  0  0  0  0  0  0  0
    7.5532    0.0705   22.2760 C   0  0  0  0  0  0  0  0  0  0  0  0
    8.1056   -0.8493   23.0466 N   0  0  0  0  0  0  0  0  0  0  0  0
    8.2567   -1.9057   22.1995 C   0  0  0  0  0  0  0  0  0  0  0  0
    9.1379   -3.0668   22.5096 C   0  0  0  0  0  0  0  0  0  0  0  0
    9.0068   -3.7631   23.8829 C   0  0  0  0  0  0  0  0  0  0  0  0
   10.8205   -3.7870   24.0985 S   0  0  0  0  0  0  0  0  0  0  0  0
   10.6138   -2.6220   22.7199 C   0  0  0  0  0  0  0  0  0  0  0  0
   11.3165   -2.7234   21.8876 H   0  0  0  0  0  0  0  0  0  0  0  0
   10.6338   -1.5988   23.1056 H   0  0  0  0  0  0  0  0  0  0  0  0
    8.5876   -4.7705   23.8709 H   0  0  0  0  0  0  0  0  0  0  0  0
    8.4919   -3.1550   24.6333 H   0  0  0  0  0  0  0  0  0  0  0  0
    9.0032   -3.7826   21.6958 H   0  0  0  0  0  0  0  0  0  0  0  0
    7.7698   -1.7240   20.9904 N   0  0  0  0  0  0  0  0  0  0  0  0
    7.2797   -0.4556   21.0505 N   0  0  0  0  0  0  0  0  0  0  0  0
    6.6044    0.1244   19.9448 C   0  0  0  0  0  0  0  0  0  0  0  0
    5.4005    0.8179   20.1078 C   0  0  0  0  0  0  0  0  0  0  0  0
    4.8206    1.3951   18.9742 C   0  0  0  0  0  0  0  0  0  0  0  0
    5.4610    1.2598   17.7397 C   0  0  0  0  0  0  0  0  0  0  0  0
    6.6032    0.5695   17.5761 N   0  0  0  0  0  0  0  0  0  0  0  0
    7.1509    0.0019   18.6550 C   0  0  0  0  0  0  0  0  0  0  0  0
    8.0684   -0.5671   18.5091 H   0  0  0  0  0  0  0  0  0  0  0  0
    5.0397    1.7116   16.8436 H   0  0  0  0  0  0  0  0  0  0  0  0
    3.8901    1.9462   19.0438 H   0  0  0  0  0  0  0  0  0  0  0  0
    4.9255    0.8830   21.0884 H   0  0  0  0  0  0  0  0  0  0  0  0
    7.7212    1.6845   23.6060 H   0  0  0  0  0  0  0  0  0  0  0  0
    6.6025    2.0054   22.2910 H   0  0  0  0  0  0  0  0  0  0  0  0
    8.8731    3.2603   22.1128 H   0  0  0  0  0  0  0  0  0  0  0  0
    8.3259    2.3735   20.6767 H   0  0  0  0  0  0  0  0  0  0  0  0
   10.4533    1.7264   23.9546 C   0  0  0  0  0  0  0  0  0  0  0  0
   11.3154    1.3316   24.9820 C   0  0  0  0  0  0  0  0  0  0  0  0
   11.0642    1.6018   26.0050 H   0  0  0  0  0  0  0  0  0  0  0  0
    9.6064    2.3630   24.1757 H   0  0  0  0  0  0  0  0  0  0  0  0
   11.9400    0.1420   21.3548 H   0  0  0  0  0  0  0  0  0  0  0  0
   13.5861   -0.4398   23.1696 H   0  0  0  0  0  0  0  0  0  0  0  0
   13.1252    0.2773   25.5079 H   0  0  0  0  0  0  0  0  0  0  0  0
  1  2  2  0
  2  3  1  0
  3  4  2  0
  4  5  1  0
  5  6  1  0
  6  7  1  0
  7  8  1  0
  8  9  2  0
  9 10  1  0
 10 11  1  0
 11 12  1  0
 12 13  1  0
 13 14  1  0
 14 15  1  0
 14 16  1  0
 12 17  1  0
 12 18  1  0
 11 19  1  0
 10 20  2  0
 20 21  1  0
 21 22  1  0
 22 23  2  0
 23 24  1  0
 24 25  2  0
 25 26  1  0
 26 27  2  0
 27 28  1  0
 25 29  1  0
 24 30  1  0
 23 31  1  0
  7 32  1  0
  7 33  1  0
  6 34  1  0
  6 35  1  0
  4 36  1  0
 36 37  2  0
 37 38  1  0
 36 39  1  0
  3 40  1  0
  2 41  1  0
  1 42  1  0
 37  1  1  0
 21  8  1  0
 27 22  1  0
 14 11  1  0
M  END
>  <cnnaffinity>  (1) 
-6.04099

>  <filename>  (1) 
c1ccc(OCCc2nc(C3CSC3)nn2-c2cccnc2)cc1

$$$$
