
     RDKit          3D

 34 37  0  0  0  0  0  0  0  0999 V2000
    5.0074    1.8046   16.9641 H   0  0  0  0  0  0  0  0  0  0  0  0
    5.4656    1.3013   17.8115 C   0  0  0  0  0  0  0  0  0  0  0  0
    6.6194    0.6592   17.5570 N   0  0  0  0  0  0  0  0  0  0  0  0
    7.2120    0.0190   18.5650 C   0  0  0  0  0  0  0  0  0  0  0  0
    8.1233   -0.5350   18.3450 H   0  0  0  0  0  0  0  0  0  0  0  0
    6.7075    0.0129   19.8747 C   0  0  0  0  0  0  0  0  0  0  0  0
    7.4404   -0.6554   20.8921 N   0  0  0  0  0  0  0  0  0  0  0  0
    7.9605   -1.8804   20.6842 N   0  0  0  0  0  0  0  0  0  0  0  0
    8.5750   -2.2432   21.7610 N   0  0  0  0  0  0  0  0  0  0  0  0
    8.4592   -1.2535   22.6861 C   0  0  0  0  0  0  0  0  0  0  0  0
    8.9176   -1.3369   23.6570 H   0  0  0  0  0  0  0  0  0  0  0  0
    7.7318   -0.2130   22.1563 C   0  0  0  0  0  0  0  0  0  0  0  0
    7.2946    1.1032   22.6545 C   0  0  1  0  0  0  0  0  0  0  0  0
    7.4677    1.9120   21.9360 H   0  0  0  0  0  0  0  0  0  0  0  0
    6.0622    1.2464   23.5142 C   0  0  0  0  0  0  0  0  0  0  0  0
    5.5339    0.3331   23.7822 H   0  0  0  0  0  0  0  0  0  0  0  0
    5.4347    2.1111   23.3175 H   0  0  0  0  0  0  0  0  0  0  0  0
    7.4200    1.4822   24.1153 C   0  0  2  0  0  0  0  0  0  0  0  0
    7.7668    0.6825   24.7706 H   0  0  0  0  0  0  0  0  0  0  0  0
    7.8651    2.8637   24.4916 C   0  0  0  0  0  0  0  0  0  0  0  0
    8.6275    3.0881   25.6514 C   0  0  0  0  0  0  0  0  0  0  0  0
    8.9338    2.2577   26.2879 H   0  0  0  0  0  0  0  0  0  0  0  0
    8.9986    4.3810   26.0287 C   0  0  0  0  0  0  0  0  0  0  0  0
    9.5824    4.5332   26.9325 H   0  0  0  0  0  0  0  0  0  0  0  0
    8.6254    5.4787   25.2435 C   0  0  0  0  0  0  0  0  0  0  0  0
    8.9218    6.4825   25.5252 H   0  0  0  0  0  0  0  0  0  0  0  0
    7.8756    5.2717   24.0807 C   0  0  0  0  0  0  0  0  0  0  0  0
    7.5756    6.1169   23.4651 H   0  0  0  0  0  0  0  0  0  0  0  0
    7.5026    3.9793   23.7076 C   0  0  0  0  0  0  0  0  0  0  0  0
    6.9046    3.8563   22.8061 H   0  0  0  0  0  0  0  0  0  0  0  0
    5.4943    0.6625   20.1337 C   0  0  0  0  0  0  0  0  0  0  0  0
    5.0488    0.6469   21.1264 H   0  0  0  0  0  0  0  0  0  0  0  0
    4.8596    1.3104   19.0706 C   0  0  0  0  0  0  0  0  0  0  0  0
    3.9104    1.8188   19.2045 H   0  0  0  0  0  0  0  0  0  0  0  0
  1  2  1  0
  2  3  2  0
  3  4  1  0
  4  5  1  0
  4  6  2  0
  6  7  1  0
  7  8  1  0
  8  9  2  0
  9 10  1  0
 10 11  1  0
 10 12  2  0
 12 13  1  0
 13 14  1  6
 13 15  1  0
 15 16  1  0
 15 17  1  0
 15 18  1  0
 18 19  1  1
 18 20  1  0
 20 21  2  0
 21 22  1  0
 21 23  1  0
 23 24  1  0
 23 25  2  0
 25 26  1  0
 25 27  1  0
 27 28  1  0
 27 29  2  0
 29 30  1  0
  6 31  1  0
 31 32  1  0
 31 33  2  0
 33 34  1  0
 33  2  1  0
 12  7  1  0
 18 13  1  0
 29 20  1  0
M  END
>  <cnnaffinity>  (1) 
-5.13002

>  <filename>  (1) 
c1ccc([C@H]2C[C@@H]2c2cnnn2-c2cccnc2)cc1

$$$$
