
     RDKit          3D

 42 45  0  0  0  0  0  0  0  0999 V2000
   14.0726   -1.1542   21.4300 C   0  0  0  0  0  0  0  0  0  0  0  0
   13.7914    0.0206   22.1349 C   0  0  0  0  0  0  0  0  0  0  0  0
   12.4621    0.4229   22.3078 C   0  0  0  0  0  0  0  0  0  0  0  0
   11.4191   -0.3799   21.7973 C   0  0  0  0  0  0  0  0  0  0  0  0
    9.9991   -0.0146   21.9539 C   0  0  0  0  0  0  0  0  0  0  0  0
    9.0185   -0.7823   21.4940 N   0  0  0  0  0  0  0  0  0  0  0  0
    7.9052   -0.0939   21.8166 N   0  0  0  0  0  0  0  0  0  0  0  0
    6.5922   -0.5232   21.3410 C   0  0  0  0  0  0  0  0  0  0  0  0
    6.1485    0.1793   20.0734 C   0  0  0  0  0  0  0  0  0  0  0  0
    4.9471    0.8882   19.9713 C   0  0  0  0  0  0  0  0  0  0  0  0
    4.6363    1.5107   18.7590 C   0  0  0  0  0  0  0  0  0  0  0  0
    5.5320    1.3960   17.6940 C   0  0  0  0  0  0  0  0  0  0  0  0
    6.6871    0.7173   17.7682 N   0  0  0  0  0  0  0  0  0  0  0  0
    6.9792    0.1392   18.9382 C   0  0  0  0  0  0  0  0  0  0  0  0
    7.9349   -0.3789   18.9974 H   0  0  0  0  0  0  0  0  0  0  0  0
    5.3129    1.8649   16.7368 H   0  0  0  0  0  0  0  0  0  0  0  0
    3.7254    2.0857   18.6339 H   0  0  0  0  0  0  0  0  0  0  0  0
    4.2697    0.9668   20.8240 H   0  0  0  0  0  0  0  0  0  0  0  0
    6.6677   -1.6032   21.1896 H   0  0  0  0  0  0  0  0  0  0  0  0
    5.8946   -0.3516   22.1633 H   0  0  0  0  0  0  0  0  0  0  0  0
    8.2590    1.0485   22.4394 C   0  0  0  0  0  0  0  0  0  0  0  0
    7.3325    1.9277   23.1994 C   0  0  0  0  0  0  0  0  0  0  0  0
    7.1325    1.2519   24.5267 C   0  0  0  0  0  0  0  0  0  0  0  0
    8.0521    1.4214   25.5715 C   0  0  0  0  0  0  0  0  0  0  0  0
    7.9488    0.6107   26.7005 C   0  0  0  0  0  0  0  0  0  0  0  0
    6.9133   -0.3289   26.7418 C   0  0  0  0  0  0  0  0  0  0  0  0
    6.0311   -0.4015   25.6597 C   0  0  0  0  0  0  0  0  0  0  0  0
    6.1292    0.3721   24.5685 N   0  0  0  0  0  0  0  0  0  0  0  0
    5.2208   -1.1255   25.6558 H   0  0  0  0  0  0  0  0  0  0  0  0
    6.7971   -1.0112   27.5731 H   0  0  0  0  0  0  0  0  0  0  0  0
    8.6728    0.6888   27.5120 H   0  0  0  0  0  0  0  0  0  0  0  0
    8.8511    2.1450   25.4442 H   0  0  0  0  0  0  0  0  0  0  0  0
    6.3781    2.0481   22.6865 H   0  0  0  0  0  0  0  0  0  0  0  0
    7.8139    2.8985   23.3123 H   0  0  0  0  0  0  0  0  0  0  0  0
    9.5686    1.1298   22.5424 N   0  0  0  0  0  0  0  0  0  0  0  0
   11.7282   -1.5628   21.1122 C   0  0  0  0  0  0  0  0  0  0  0  0
   13.0509   -1.9046   20.8690 C   0  0  0  0  0  0  0  0  0  0  0  0
   13.2925   -2.7335   20.2114 H   0  0  0  0  0  0  0  0  0  0  0  0
   10.9126   -2.1994   20.7765 H   0  0  0  0  0  0  0  0  0  0  0  0
   12.2370    1.3463   22.8414 H   0  0  0  0  0  0  0  0  0  0  0  0
   14.6037    0.6425   22.5028 H   0  0  0  0  0  0  0  0  0  0  0  0
   15.0606   -1.5392   21.2631 H   0  0  0  0  0  0  0  0  0  0  0  0
  1  2  2  0
  2  3  1  0
  3  4  2  0
  4  5  1  0
  5  6  2  0
  6  7  1  0
  7  8  1  0
  8  9  1  0
  9 10  2  0
 10 11  1  0
 11 12  2  0
 12 13  1  0
 13 14  2  0
 14 15  1  0
 12 16  1  0
 11 17  1  0
 10 18  1  0
  8 19  1  0
  8 20  1  0
  7 21  1  0
 21 22  1  0
 22 23  1  0
 23 24  2  0
 24 25  1  0
 25 26  2  0
 26 27  1  0
 27 28  2  0
 27 29  1  0
 26 30  1  0
 25 31  1  0
 24 32  1  0
 22 33  1  0
 22 34  1  0
 21 35  2  0
  4 36  1  0
 36 37  2  0
 37 38  1  0
 36 39  1  0
  3 40  1  0
  2 41  1  0
  1 42  1  0
 37  1  1  0
 35  5  1  0
 14  9  1  0
 28 23  1  0
M  END
>  <cnnaffinity>  (1) 
-6.38483

>  <filename>  (1) 
c1ccc(-c2nc(Cc3ccccn3)n(Cc3cccnc3)n2)cc1

$$$$
