
     RDKit          3D

 41 44  0  0  0  0  0  0  0  0999 V2000
    6.4696    5.9041   23.1560 C   0  0  0  0  0  0  0  0  0  0  0  0
    5.7799    5.1854   22.1744 C   0  0  0  0  0  0  0  0  0  0  0  0
    6.3238    4.0188   21.6261 C   0  0  0  0  0  0  0  0  0  0  0  0
    7.5822    3.5509   22.0529 C   0  0  0  0  0  0  0  0  0  0  0  0
    8.0336    2.3994   21.4629 O   0  0  0  0  0  0  0  0  0  0  0  0
    9.3173    1.8717   21.7880 C   0  0  0  0  0  0  0  0  0  0  0  0
    9.5213    0.5829   20.9879 C   0  0  0  0  0  0  0  0  0  0  0  0
    8.5994   -0.4990   21.4189 C   0  0  0  0  0  0  0  0  0  0  0  0
    8.8272   -1.3205   22.4229 N   0  0  0  0  0  0  0  0  0  0  0  0
    7.6466   -1.9846   22.5426 C   0  0  0  0  0  0  0  0  0  0  0  0
    7.4329   -3.0607   23.5425 C   0  0  0  0  0  0  0  0  0  0  0  0
    8.3738   -4.2378   23.5945 C   0  0  0  0  0  0  0  0  0  0  0  0
    6.9708   -4.4213   23.0877 C   0  0  0  0  0  0  0  0  0  0  0  0
    6.8126   -4.5422   22.0182 H   0  0  0  0  0  0  0  0  0  0  0  0
    6.2511   -4.9636   23.6969 H   0  0  0  0  0  0  0  0  0  0  0  0
    9.1947   -4.2372   22.8811 H   0  0  0  0  0  0  0  0  0  0  0  0
    8.6468   -4.6539   24.5619 H   0  0  0  0  0  0  0  0  0  0  0  0
    7.0520   -2.6826   24.4878 H   0  0  0  0  0  0  0  0  0  0  0  0
    6.7101   -1.6166   21.6883 N   0  0  0  0  0  0  0  0  0  0  0  0
    7.3406   -0.6814   20.9326 N   0  0  0  0  0  0  0  0  0  0  0  0
    6.6538    0.0051   19.8984 C   0  0  0  0  0  0  0  0  0  0  0  0
    5.4366    0.6397   20.1641 C   0  0  0  0  0  0  0  0  0  0  0  0
    4.8098    1.3050   19.1075 C   0  0  0  0  0  0  0  0  0  0  0  0
    5.3986    1.2940   17.8370 C   0  0  0  0  0  0  0  0  0  0  0  0
    6.5563    0.6691   17.5722 N   0  0  0  0  0  0  0  0  0  0  0  0
    7.1658    0.0524   18.5914 C   0  0  0  0  0  0  0  0  0  0  0  0
    8.1116   -0.4326   18.3630 H   0  0  0  0  0  0  0  0  0  0  0  0
    4.9205    1.7874   16.9953 H   0  0  0  0  0  0  0  0  0  0  0  0
    3.8801    1.8408   19.2563 H   0  0  0  0  0  0  0  0  0  0  0  0
    5.0198    0.6129   21.1756 H   0  0  0  0  0  0  0  0  0  0  0  0
   10.5377    0.2181   21.1461 H   0  0  0  0  0  0  0  0  0  0  0  0
    9.4125    0.7884   19.9245 H   0  0  0  0  0  0  0  0  0  0  0  0
    9.3704    1.6333   22.8591 H   0  0  0  0  0  0  0  0  0  0  0  0
   10.1109    2.5945   21.5504 H   0  0  0  0  0  0  0  0  0  0  0  0
    8.2775    4.2755   23.0366 C   0  0  0  0  0  0  0  0  0  0  0  0
    7.7156    5.4415   23.5785 C   0  0  0  0  0  0  0  0  0  0  0  0
    8.2643    5.9916   24.3399 H   0  0  0  0  0  0  0  0  0  0  0  0
    9.2513    3.9353   23.3738 H   0  0  0  0  0  0  0  0  0  0  0  0
    5.7949    3.4714   20.8542 H   0  0  0  0  0  0  0  0  0  0  0  0
    4.8125    5.5421   21.8275 H   0  0  0  0  0  0  0  0  0  0  0  0
    6.0404    6.8123   23.5791 H   0  0  0  0  0  0  0  0  0  0  0  0
  1  2  2  0
  2  3  1  0
  3  4  2  0
  4  5  1  0
  5  6  1  0
  6  7  1  0
  7  8  1  0
  8  9  2  0
  9 10  1  0
 10 11  1  0
 11 12  1  0
 12 13  1  0
 13 14  1  0
 13 15  1  0
 12 16  1  0
 12 17  1  0
 11 18  1  0
 10 19  2  0
 19 20  1  0
 20 21  1  0
 21 22  2  0
 22 23  1  0
 23 24  2  0
 24 25  1  0
 25 26  2  0
 26 27  1  0
 24 28  1  0
 23 29  1  0
 22 30  1  0
  7 31  1  0
  7 32  1  0
  6 33  1  0
  6 34  1  0
  4 35  1  0
 35 36  2  0
 36 37  1  0
 35 38  1  0
  3 39  1  0
  2 40  1  0
  1 41  1  0
 36  1  1  0
 20  8  1  0
 26 21  1  0
 13 11  1  0
M  END
>  <cnnaffinity>  (1) 
-5.60131

>  <filename>  (1) 
c1ccc(OCCc2nc(C3CC3)nn2-c2cccnc2)cc1

$$$$
