
     RDKit          3D

 39 42  0  0  0  0  0  0  0  0999 V2000
    6.4541    3.0449   27.6684 C   0  0  0  0  0  0  0  0  0  0  0  0
    5.6666    2.0538   27.0693 C   0  0  0  0  0  0  0  0  0  0  0  0
    6.0363    1.4958   25.8410 C   0  0  0  0  0  0  0  0  0  0  0  0
    7.2082    1.9368   25.1899 C   0  0  0  0  0  0  0  0  0  0  0  0
    7.6520    1.3945   23.8780 C   0  0  0  0  0  0  0  0  0  0  0  0
    7.0366    0.4358   23.2050 N   0  0  0  0  0  0  0  0  0  0  0  0
    7.8238    0.2640   22.1116 N   0  0  0  0  0  0  0  0  0  0  0  0
    7.4309   -0.6521   21.0412 C   0  0  0  0  0  0  0  0  0  0  0  0
    6.7041    0.0207   19.8897 C   0  0  0  0  0  0  0  0  0  0  0  0
    5.4872    0.6786   20.1156 C   0  0  0  0  0  0  0  0  0  0  0  0
    4.8552    1.3175   19.0460 C   0  0  0  0  0  0  0  0  0  0  0  0
    5.4671    1.2742   17.7893 C   0  0  0  0  0  0  0  0  0  0  0  0
    6.6170    0.6258   17.5454 N   0  0  0  0  0  0  0  0  0  0  0  0
    7.2060    0.0132   18.5806 C   0  0  0  0  0  0  0  0  0  0  0  0
    8.1275   -0.5293   18.3532 H   0  0  0  0  0  0  0  0  0  0  0  0
    5.0169    1.7694   16.9321 H   0  0  0  0  0  0  0  0  0  0  0  0
    3.9161    1.8490   19.1707 H   0  0  0  0  0  0  0  0  0  0  0  0
    5.0621    0.6863   21.1211 H   0  0  0  0  0  0  0  0  0  0  0  0
    8.3282   -1.1736   20.6843 H   0  0  0  0  0  0  0  0  0  0  0  0
    6.7843   -1.3901   21.5230 H   0  0  0  0  0  0  0  0  0  0  0  0
    8.8459    1.1403   22.1664 C   0  0  0  0  0  0  0  0  0  0  0  0
    9.9495    1.2961   21.1874 C   0  0  0  0  0  0  0  0  0  0  0  0
   11.1229    0.4481   21.5769 C   0  0  0  0  0  0  0  0  0  0  0  0
   12.0542    0.7199   22.5291 C   0  0  0  0  0  0  0  0  0  0  0  0
   13.2260   -0.5418   22.5682 S   0  0  0  0  0  0  0  0  0  0  0  0
   12.3222   -1.3836   21.3614 C   0  0  0  0  0  0  0  0  0  0  0  0
   11.2597   -0.7642   20.9418 N   0  0  0  0  0  0  0  0  0  0  0  0
   12.6676   -2.3460   20.9936 H   0  0  0  0  0  0  0  0  0  0  0  0
   12.0767    1.5400   23.2389 H   0  0  0  0  0  0  0  0  0  0  0  0
   10.1993    2.3641   21.1779 H   0  0  0  0  0  0  0  0  0  0  0  0
    9.6237    1.0029   20.1891 H   0  0  0  0  0  0  0  0  0  0  0  0
    8.7782    1.8529   23.2618 N   0  0  0  0  0  0  0  0  0  0  0  0
    8.0011    2.9224   25.8148 C   0  0  0  0  0  0  0  0  0  0  0  0
    7.6230    3.4749   27.0358 C   0  0  0  0  0  0  0  0  0  0  0  0
    8.2374    4.2506   27.4831 H   0  0  0  0  0  0  0  0  0  0  0  0
    8.9189    3.2465   25.3292 H   0  0  0  0  0  0  0  0  0  0  0  0
    5.4190    0.7156   25.3968 H   0  0  0  0  0  0  0  0  0  0  0  0
    4.7577    1.7249   27.5643 H   0  0  0  0  0  0  0  0  0  0  0  0
    6.1578    3.4848   28.6169 H   0  0  0  0  0  0  0  0  0  0  0  0
  1  2  2  0
  2  3  1  0
  3  4  2  0
  4  5  1  0
  5  6  2  0
  6  7  1  0
  7  8  1  0
  8  9  1  0
  9 10  2  0
 10 11  1  0
 11 12  2  0
 12 13  1  0
 13 14  2  0
 14 15  1  0
 12 16  1  0
 11 17  1  0
 10 18  1  0
  8 19  1  0
  8 20  1  0
  7 21  1  0
 21 22  1  0
 22 23  1  0
 23 24  2  0
 24 25  1  0
 25 26  1  0
 26 27  2  0
 26 28  1  0
 24 29  1  0
 22 30  1  0
 22 31  1  0
 21 32  2  0
  4 33  1  0
 33 34  2  0
 34 35  1  0
 33 36  1  0
  3 37  1  0
  2 38  1  0
  1 39  1  0
 34  1  1  0
 32  5  1  0
 14  9  1  0
 27 23  1  0
M  END
>  <cnnaffinity>  (1) 
-6.36243

>  <filename>  (1) 
c1ccc(-c2nc(Cc3cscn3)n(Cc3cccnc3)n2)cc1

$$$$
