
     RDKit          3D

 48 51  0  0  0  0  0  0  0  0999 V2000
    4.9807    1.8639   17.0187 H   0  0  0  0  0  0  0  0  0  0  0  0
    5.4555    1.3223   17.8351 C   0  0  0  0  0  0  0  0  0  0  0  0
    6.6261    0.7268   17.5542 N   0  0  0  0  0  0  0  0  0  0  0  0
    7.2362    0.0741   18.5520 C   0  0  0  0  0  0  0  0  0  0  0  0
    8.1744   -0.4155   18.3022 H   0  0  0  0  0  0  0  0  0  0  0  0
    6.7363   -0.0539   19.8794 C   0  0  0  0  0  0  0  0  0  0  0  0
    7.3974   -0.8372   20.8380 N   0  0  0  0  0  0  0  0  0  0  0  0
    6.8348   -1.1315   22.1616 C   0  0  1  0  0  0  0  0  0  0  0  0
    5.7986   -1.4560   22.0477 H   0  0  0  0  0  0  0  0  0  0  0  0
    7.7373   -2.3052   22.5950 C   0  0  0  0  0  0  0  0  0  0  0  0
    7.3205   -3.2423   22.2161 H   0  0  0  0  0  0  0  0  0  0  0  0
    7.8046   -2.3803   23.6842 H   0  0  0  0  0  0  0  0  0  0  0  0
    9.0900   -2.0006   21.9208 C   0  0  0  0  0  0  0  0  0  0  0  0
    9.3580   -2.8082   21.2345 H   0  0  0  0  0  0  0  0  0  0  0  0
    9.9038   -1.8704   22.6403 H   0  0  0  0  0  0  0  0  0  0  0  0
    8.8330   -0.7077   21.1126 C   0  0  2  0  0  0  0  0  0  0  0  0
    9.4065   -0.7137   20.1799 H   0  0  0  0  0  0  0  0  0  0  0  0
    9.1387    0.5974   21.9071 C   0  0  0  0  0  0  0  0  0  0  0  0
    9.5079    1.3604   21.2129 H   0  0  0  0  0  0  0  0  0  0  0  0
    9.9672    0.3867   22.5965 H   0  0  0  0  0  0  0  0  0  0  0  0
    7.9353    1.1809   22.7091 C   0  0  2  0  0  0  0  0  0  0  0  0
    7.3865    1.8600   22.0438 H   0  0  0  0  0  0  0  0  0  0  0  0
    8.4450    2.0290   23.8907 C   0  0  0  0  0  0  0  0  0  0  0  0
    9.0670    1.3854   24.5506 H   0  0  0  0  0  0  0  0  0  0  0  0
    9.1212    2.7973   23.4921 H   0  0  0  0  0  0  0  0  0  0  0  0
    7.3626    2.7079   24.6042 N   0  0  0  0  0  0  0  0  0  0  0  0
    6.7697    2.0318   25.0719 H   0  0  0  0  0  0  0  0  0  0  0  0
    7.7732    3.7550   25.5453 C   0  0  0  0  0  0  0  0  0  0  0  0
    6.8855    4.0593   26.1159 H   0  0  0  0  0  0  0  0  0  0  0  0
    8.5147    3.4236   26.2982 H   0  0  0  0  0  0  0  0  0  0  0  0
    8.3205    4.9576   24.7984 C   0  0  0  0  0  0  0  0  0  0  0  0
    7.4621    5.7503   24.0127 C   0  0  0  0  0  0  0  0  0  0  0  0
    6.3932    5.5608   24.0128 H   0  0  0  0  0  0  0  0  0  0  0  0
    7.9773    6.7546   23.1893 C   0  0  0  0  0  0  0  0  0  0  0  0
    7.3237    7.3682   22.5736 H   0  0  0  0  0  0  0  0  0  0  0  0
    9.3569    6.9610   23.1395 C   0  0  0  0  0  0  0  0  0  0  0  0
    9.7515    7.6973   22.4654 H   0  0  0  0  0  0  0  0  0  0  0  0
   10.2216    6.2122   23.9317 C   0  0  0  0  0  0  0  0  0  0  0  0
   11.2981    6.3738   23.9031 H   0  0  0  0  0  0  0  0  0  0  0  0
    9.6975    5.2240   24.7668 C   0  0  0  0  0  0  0  0  0  0  0  0
   10.3679    4.6289   25.3738 H   0  0  0  0  0  0  0  0  0  0  0  0
    6.9342    0.0755   23.1454 C   0  0  0  0  0  0  0  0  0  0  0  0
    5.9388    0.5119   23.2974 H   0  0  0  0  0  0  0  0  0  0  0  0
    7.2349   -0.3093   24.1297 H   0  0  0  0  0  0  0  0  0  0  0  0
    5.5076    0.5833   20.1401 C   0  0  0  0  0  0  0  0  0  0  0  0
    5.0732    0.5300   21.1365 H   0  0  0  0  0  0  0  0  0  0  0  0
    4.8730    1.2757   19.1055 C   0  0  0  0  0  0  0  0  0  0  0  0
    3.9347    1.7866   19.2793 H   0  0  0  0  0  0  0  0  0  0  0  0
  1  2  1  0
  2  3  2  0
  3  4  1  0
  4  5  1  0
  4  6  2  0
  6  7  1  0
  7  8  1  0
  8  9  1  6
  8 10  1  0
 10 11  1  0
 10 12  1  0
 10 13  1  0
 13 14  1  0
 13 15  1  0
 13 16  1  0
 16 17  1  6
 16 18  1  0
 18 19  1  0
 18 20  1  0
 18 21  1  0
 21 22  1  6
 21 23  1  0
 23 24  1  0
 23 25  1  0
 23 26  1  0
 26 27  1  0
 26 28  1  0
 28 29  1  0
 28 30  1  0
 28 31  1  0
 31 32  2  0
 32 33  1  0
 32 34  1  0
 34 35  1  0
 34 36  2  0
 36 37  1  0
 36 38  1  0
 38 39  1  0
 38 40  2  0
 40 41  1  0
 21 42  1  0
 42 43  1  0
 42 44  1  0
  6 45  1  0
 45 46  1  0
 45 47  2  0
 47 48  1  0
 47  2  1  0
 16  7  1  0
 40 31  1  0
 42  8  1  0
M  END
>  <cnnaffinity>  (1) 
-5.1003

>  <filename>  (1) 
c1ccc(CNC[C@H]2C[C@H]3CC[C@@H](C2)N3c2cccnc2)cc1

$$$$
