
     RDKit          3D

 38 41  0  0  0  0  0  0  0  0999 V2000
    5.3306    1.6439   17.0665 H   0  0  0  0  0  0  0  0  0  0  0  0
    5.8912    1.2446   17.9117 C   0  0  0  0  0  0  0  0  0  0  0  0
    7.0852    0.7004   17.6299 N   0  0  0  0  0  0  0  0  0  0  0  0
    7.7789    0.1629   18.6391 C   0  0  0  0  0  0  0  0  0  0  0  0
    8.7559   -0.2425   18.3784 H   0  0  0  0  0  0  0  0  0  0  0  0
    7.3086    0.0942   19.9622 C   0  0  0  0  0  0  0  0  0  0  0  0
    8.0708   -0.6491   20.9759 C   0  0  0  0  0  0  0  0  0  0  0  0
    9.4031   -0.5786   21.0168 N   0  0  0  0  0  0  0  0  0  0  0  0
    9.7130   -1.3779   22.0362 N   0  0  0  0  0  0  0  0  0  0  0  0
    8.6758   -1.9925   22.6191 C   0  0  0  0  0  0  0  0  0  0  0  0
    7.5513   -1.5540   21.9617 C   0  0  0  0  0  0  0  0  0  0  0  0
    6.1540   -2.0840   22.1325 C   0  0  0  0  0  0  0  0  0  0  0  0
    5.4768   -1.3079   21.7692 H   0  0  0  0  0  0  0  0  0  0  0  0
    5.9387   -2.2766   23.1925 H   0  0  0  0  0  0  0  0  0  0  0  0
    5.8720   -3.2985   21.2808 C   0  0  0  0  0  0  0  0  0  0  0  0
    5.7564   -3.0646   19.9065 C   0  0  0  0  0  0  0  0  0  0  0  0
    5.8850   -2.0461   19.5409 H   0  0  0  0  0  0  0  0  0  0  0  0
    5.5245   -4.1108   19.0286 C   0  0  0  0  0  0  0  0  0  0  0  0
    5.3843   -3.8463   17.9858 H   0  0  0  0  0  0  0  0  0  0  0  0
    5.4621   -5.4276   19.5138 C   0  0  0  0  0  0  0  0  0  0  0  0
    5.3504   -6.2622   18.8290 H   0  0  0  0  0  0  0  0  0  0  0  0
    5.5148   -5.6659   20.8912 C   0  0  0  0  0  0  0  0  0  0  0  0
    5.3835   -6.6755   21.2851 H   0  0  0  0  0  0  0  0  0  0  0  0
    5.7295   -4.5998   21.7737 C   0  0  0  0  0  0  0  0  0  0  0  0
    5.7774   -4.7757   22.8478 H   0  0  0  0  0  0  0  0  0  0  0  0
    9.1610   -2.9709   23.6461 C   0  0  0  0  0  0  0  0  0  0  0  0
    9.0048   -4.0021   23.3098 H   0  0  0  0  0  0  0  0  0  0  0  0
    8.6314   -2.8691   24.5965 H   0  0  0  0  0  0  0  0  0  0  0  0
   10.6595   -2.5978   23.7646 C   0  0  0  0  0  0  0  0  0  0  0  0
   10.7872   -1.9707   24.6490 H   0  0  0  0  0  0  0  0  0  0  0  0
   11.3063   -3.4703   23.8642 H   0  0  0  0  0  0  0  0  0  0  0  0
   11.0164   -1.7737   22.4962 C   0  0  0  0  0  0  0  0  0  0  0  0
   11.5133   -2.3652   21.7231 H   0  0  0  0  0  0  0  0  0  0  0  0
   11.6264   -0.8909   22.6975 H   0  0  0  0  0  0  0  0  0  0  0  0
    6.0824    0.7175   20.2465 C   0  0  0  0  0  0  0  0  0  0  0  0
    5.7081    0.7566   21.2699 H   0  0  0  0  0  0  0  0  0  0  0  0
    5.3617    1.2942   19.2036 C   0  0  0  0  0  0  0  0  0  0  0  0
    4.4027    1.7666   19.3790 H   0  0  0  0  0  0  0  0  0  0  0  0
  1  2  1  0
  2  3  2  0
  3  4  1  0
  4  5  1  0
  4  6  2  0
  6  7  1  0
  7  8  2  0
  8  9  1  0
  9 10  1  0
 10 11  2  0
 11 12  1  0
 12 13  1  0
 12 14  1  0
 12 15  1  0
 15 16  2  0
 16 17  1  0
 16 18  1  0
 18 19  1  0
 18 20  2  0
 20 21  1  0
 20 22  1  0
 22 23  1  0
 22 24  2  0
 24 25  1  0
 10 26  1  0
 26 27  1  0
 26 28  1  0
 26 29  1  0
 29 30  1  0
 29 31  1  0
 29 32  1  0
 32 33  1  0
 32 34  1  0
  6 35  1  0
 35 36  1  0
 35 37  2  0
 37 38  1  0
 37  2  1  0
 11  7  1  0
 24 15  1  0
 32  9  1  0
M  END
>  <cnnaffinity>  (1) 
-5.55967

>  <filename>  (1) 
c1ccc(Cc2c(-c3cccnc3)nn3c2CCC3)cc1

$$$$
