
     RDKit          3D

 45 48  0  0  0  0  0  0  0  0999 V2000
    8.3306    4.0575   22.8933 C   0  0  0  0  0  0  0  0  0  0  0  0
    8.4068    4.2639   22.7017 C   0  0  0  0  0  0  0  0  0  0  0  0
    8.0498    2.5752   21.6078 C   0  0  0  0  0  0  0  0  0  0  0  0
    9.0989    1.7453   21.9462 C   0  0  0  0  0  0  0  0  0  0  0  0
    9.4882    0.4611   21.2221 C   0  0  0  0  0  0  0  0  0  0  0  0
    8.5660   -0.6398   21.4873 N   0  0  0  0  0  0  0  0  0  0  0  0
    8.8205   -1.4133   22.5667 N   0  0  0  0  0  0  0  0  0  0  0  0
    7.7389   -2.1693   22.6683 C   0  0  0  0  0  0  0  0  0  0  0  0
    7.5633   -3.1470   23.8048 C   0  0  0  0  0  0  0  0  0  0  0  0
    8.6794   -4.2263   23.8408 C   0  0  0  0  0  0  0  0  0  0  0  0
    8.5534   -5.1471   25.0656 C   0  0  0  0  0  0  0  0  0  0  0  0
    8.5165   -4.3501   26.3785 C   0  0  0  0  0  0  0  0  0  0  0  0
    7.3837   -3.3146   26.3671 C   0  0  0  0  0  0  0  0  0  0  0  0
    7.4879   -2.3788   25.1572 C   0  0  0  0  0  0  0  0  0  0  0  0
    8.3931   -1.7592   25.2472 H   0  0  0  0  0  0  0  0  0  0  0  0
    6.6364   -1.6854   25.1396 H   0  0  0  0  0  0  0  0  0  0  0  0
    6.4135   -3.8335   26.3470 H   0  0  0  0  0  0  0  0  0  0  0  0
    7.3973   -2.7227   27.2905 H   0  0  0  0  0  0  0  0  0  0  0  0
    9.4783   -3.8314   26.5134 H   0  0  0  0  0  0  0  0  0  0  0  0
    8.4094   -5.0260   27.2362 H   0  0  0  0  0  0  0  0  0  0  0  0
    7.6323   -5.7439   24.9800 H   0  0  0  0  0  0  0  0  0  0  0  0
    9.3838   -5.8639   25.0799 H   0  0  0  0  0  0  0  0  0  0  0  0
    8.6523   -4.8266   22.9216 H   0  0  0  0  0  0  0  0  0  0  0  0
    9.6562   -3.7205   23.8581 H   0  0  0  0  0  0  0  0  0  0  0  0
    6.5996   -3.6430   23.6274 H   0  0  0  0  0  0  0  0  0  0  0  0
    6.7858   -1.9048   21.7392 N   0  0  0  0  0  0  0  0  0  0  0  0
    7.3257   -0.9341   21.0215 C   0  0  0  0  0  0  0  0  0  0  0  0
    6.6795   -0.2233   19.9114 C   0  0  0  0  0  0  0  0  0  0  0  0
    5.4476    0.4263   20.0700 C   0  0  0  0  0  0  0  0  0  0  0  0
    4.9250    1.1243   18.9835 C   0  0  0  0  0  0  0  0  0  0  0  0
    5.6326    1.1246   17.7752 C   0  0  0  0  0  0  0  0  0  0  0  0
    6.7885    0.4658   17.5974 N   0  0  0  0  0  0  0  0  0  0  0  0
    7.2871   -0.1934   18.6490 C   0  0  0  0  0  0  0  0  0  0  0  0
    8.2207   -0.7305   18.4774 H   0  0  0  0  0  0  0  0  0  0  0  0
    5.2500    1.6687   16.9133 H   0  0  0  0  0  0  0  0  0  0  0  0
    3.9925    1.6717   19.0610 H   0  0  0  0  0  0  0  0  0  0  0  0
    4.9241    0.3811   21.0286 H   0  0  0  0  0  0  0  0  0  0  0  0
    9.5828    0.5800   20.1355 H   0  0  0  0  0  0  0  0  0  0  0  0
   10.4571    0.1265   21.5990 H   0  0  0  0  0  0  0  0  0  0  0  0
    9.8827    2.1287   23.0076 N   0  0  0  0  0  0  0  0  0  0  0  0
    9.3180    3.2742   23.5899 C   0  0  0  0  0  0  0  0  0  0  0  0
    8.5270    3.0406   24.2519 H   0  0  0  0  0  0  0  0  0  0  0  0
    7.2854    2.3969   20.8573 H   0  0  0  0  0  0  0  0  0  0  0  0
    8.6810    4.9207   21.6963 H   0  0  0  0  0  0  0  0  0  0  0  0
    7.3588    4.6875   23.2836 H   0  0  0  0  0  0  0  0  0  0  0  0
  1  2  2  0
  2  3  1  0
  3  4  2  0
  4  5  1  0
  5  6  1  0
  6  7  1  0
  7  8  2  0
  8  9  1  0
  9 10  1  0
 10 11  1  0
 11 12  1  0
 12 13  1  0
 13 14  1  0
 14 15  1  0
 14 16  1  0
 13 17  1  0
 13 18  1  0
 12 19  1  0
 12 20  1  0
 11 21  1  0
 11 22  1  0
 10 23  1  0
 10 24  1  0
  9 25  1  0
  8 26  1  0
 26 27  2  0
 27 28  1  0
 28 29  2  0
 29 30  1  0
 30 31  2  0
 31 32  1  0
 32 33  2  0
 33 34  1  0
 31 35  1  0
 30 36  1  0
 29 37  1  0
  5 38  1  0
  5 39  1  0
  4 40  1  0
 40 41  2  0
 41 42  1  0
  3 43  1  0
  2 44  1  0
  1 45  1  0
 41  1  1  0
 27  6  1  0
 33 28  1  0
 14  9  1  0
M  END
>  <cnnaffinity>  (1) 
-6.17348

>  <filename>  (1) 
c1ccc(Cn2nc(C3CCCCC3)nc2-c2cccnc2)nc1

$$$$
