
     RDKit          3D

 31 33  0  0  0  0  0  0  0  0999 V2000
   10.4613   -1.3767   21.8886 H   0  0  0  0  0  0  0  0  0  0  0  0
    9.3736   -1.3951   21.8986 C   0  0  0  0  0  0  0  0  0  0  0  0
    8.7493   -0.7389   20.9173 N   0  0  0  0  0  0  0  0  0  0  0  0
    7.4124   -0.7317   20.9598 C   0  0  0  0  0  0  0  0  0  0  0  0
    6.6781    0.0106   19.9196 C   0  0  0  0  0  0  0  0  0  0  0  0
    7.1943    0.0538   18.6145 C   0  0  0  0  0  0  0  0  0  0  0  0
    8.1419   -0.4185   18.3698 H   0  0  0  0  0  0  0  0  0  0  0  0
    6.5761    0.6537   17.5926 N   0  0  0  0  0  0  0  0  0  0  0  0
    5.4163    1.2754   17.8480 C   0  0  0  0  0  0  0  0  0  0  0  0
    4.9549    1.7799   17.0026 H   0  0  0  0  0  0  0  0  0  0  0  0
    4.8183    1.3038   19.1118 C   0  0  0  0  0  0  0  0  0  0  0  0
    3.8842    1.8303   19.2507 H   0  0  0  0  0  0  0  0  0  0  0  0
    5.4522    0.6550   20.1673 C   0  0  0  0  0  0  0  0  0  0  0  0
    5.0044    0.6639   21.1666 H   0  0  0  0  0  0  0  0  0  0  0  0
    6.7130   -1.4266   21.9387 C   0  0  0  0  0  0  0  0  0  0  0  0
    5.6422   -1.5040   21.9159 H   0  0  0  0  0  0  0  0  0  0  0  0
    7.4613   -2.0589   22.9177 C   0  0  0  0  0  0  0  0  0  0  0  0
    6.7971   -2.7994   24.0250 C   0  0  0  0  0  0  0  0  0  0  0  0
    7.4888   -2.8648   24.8691 H   0  0  0  0  0  0  0  0  0  0  0  0
    5.8707   -2.3060   24.3284 H   0  0  0  0  0  0  0  0  0  0  0  0
    6.4621   -4.1592   23.5127 C   0  0  0  0  0  0  0  0  0  0  0  0
    5.2309   -4.3166   23.0147 N   0  0  0  0  0  0  0  0  0  0  0  0
    4.9016   -5.5383   22.5783 C   0  0  0  0  0  0  0  0  0  0  0  0
    3.8759   -5.6439   22.2236 H   0  0  0  0  0  0  0  0  0  0  0  0
    5.7890   -6.6161   22.5577 C   0  0  0  0  0  0  0  0  0  0  0  0
    5.4514   -7.5725   22.1919 H   0  0  0  0  0  0  0  0  0  0  0  0
    7.0989   -6.4258   23.0129 C   0  0  0  0  0  0  0  0  0  0  0  0
    7.8334   -7.2328   22.9769 H   0  0  0  0  0  0  0  0  0  0  0  0
    7.4280   -5.1718   23.5233 C   0  0  0  0  0  0  0  0  0  0  0  0
    8.3944   -4.9331   23.9542 H   0  0  0  0  0  0  0  0  0  0  0  0
    8.7957   -2.0769   22.8913 N   0  0  0  0  0  0  0  0  0  0  0  0
  1  2  1  0
  2  3  2  0
  3  4  1  0
  4  5  1  0
  5  6  2  0
  6  7  1  0
  6  8  1  0
  8  9  2  0
  9 10  1  0
  9 11  1  0
 11 12  1  0
 11 13  2  0
 13 14  1  0
  4 15  2  0
 15 16  1  0
 15 17  1  0
 17 18  1  0
 18 19  1  0
 18 20  1  0
 18 21  1  0
 21 22  2  0
 22 23  1  0
 23 24  1  0
 23 25  2  0
 25 26  1  0
 25 27  1  0
 27 28  1  0
 27 29  2  0
 29 30  1  0
 17 31  2  0
 31  2  1  0
 13  5  1  0
 29 21  1  0
M  END
>  <cnnaffinity>  (1) 
-5.32126

>  <filename>  (1) 
c1ccc(Cc2cc(-c3cccnc3)ncn2)nc1

$$$$
