
     RDKit          3D

 45 48  0  0  0  0  0  0  0  0999 V2000
    7.7557    4.9463   25.5615 C   0  0  0  0  0  0  0  0  0  0  0  0
    7.7753    5.1841   24.1874 C   0  0  0  0  0  0  0  0  0  0  0  0
    8.1931    4.1918   23.2872 C   0  0  0  0  0  0  0  0  0  0  0  0
    8.5968    2.9383   23.7707 C   0  0  0  0  0  0  0  0  0  0  0  0
    9.0261    1.9028   22.9930 O   0  0  0  0  0  0  0  0  0  0  0  0
    9.0461    2.0024   21.5721 C   0  0  0  0  0  0  0  0  0  0  0  0
    9.4974    0.6469   21.0217 C   0  0  0  0  0  0  0  0  0  0  0  0
    8.6072   -0.4622   21.4560 C   0  0  0  0  0  0  0  0  0  0  0  0
    8.8287   -1.2934   22.4488 N   0  0  0  0  0  0  0  0  0  0  0  0
    7.6469   -1.9573   22.5613 C   0  0  0  0  0  0  0  0  0  0  0  0
    7.4241   -2.9376   23.6552 C   0  0  0  0  0  0  0  0  0  0  0  0
    8.5173   -4.0195   23.7951 C   0  0  0  0  0  0  0  0  0  0  0  0
    8.4672   -4.3747   25.2854 C   0  0  0  0  0  0  0  0  0  0  0  0
    7.8479   -3.2807   25.9458 O   0  0  0  0  0  0  0  0  0  0  0  0
    7.4256   -2.2753   25.0469 C   0  0  0  0  0  0  0  0  0  0  0  0
    6.4276   -1.9413   25.3610 H   0  0  0  0  0  0  0  0  0  0  0  0
    8.1028   -1.4022   25.0948 H   0  0  0  0  0  0  0  0  0  0  0  0
    7.8780   -5.2837   25.4805 H   0  0  0  0  0  0  0  0  0  0  0  0
    9.4654   -4.5392   25.7158 H   0  0  0  0  0  0  0  0  0  0  0  0
    9.4949   -3.6018   23.5277 H   0  0  0  0  0  0  0  0  0  0  0  0
    8.3373   -4.8897   23.1579 H   0  0  0  0  0  0  0  0  0  0  0  0
    6.4488   -3.3934   23.4754 H   0  0  0  0  0  0  0  0  0  0  0  0
    6.7265   -1.6134   21.6904 N   0  0  0  0  0  0  0  0  0  0  0  0
    7.3548   -0.6611   20.9452 N   0  0  0  0  0  0  0  0  0  0  0  0
    6.6596    0.0133   19.9020 C   0  0  0  0  0  0  0  0  0  0  0  0
    5.4393    0.6462   20.1656 C   0  0  0  0  0  0  0  0  0  0  0  0
    4.8132    1.3111   19.1080 C   0  0  0  0  0  0  0  0  0  0  0  0
    5.4009    1.2967   17.8364 C   0  0  0  0  0  0  0  0  0  0  0  0
    6.5585    0.6710   17.5739 N   0  0  0  0  0  0  0  0  0  0  0  0
    7.1676    0.0515   18.5911 C   0  0  0  0  0  0  0  0  0  0  0  0
    8.1113   -0.4377   18.3638 H   0  0  0  0  0  0  0  0  0  0  0  0
    4.9222    1.7877   16.9921 H   0  0  0  0  0  0  0  0  0  0  0  0
    3.8808    1.8391   19.2584 H   0  0  0  0  0  0  0  0  0  0  0  0
    5.0145    0.6072   21.1731 H   0  0  0  0  0  0  0  0  0  0  0  0
    9.5246    0.7040   19.9322 H   0  0  0  0  0  0  0  0  0  0  0  0
   10.5123    0.4199   21.3495 H   0  0  0  0  0  0  0  0  0  0  0  0
    8.0479    2.2516   21.1838 H   0  0  0  0  0  0  0  0  0  0  0  0
    9.7442    2.7865   21.2493 H   0  0  0  0  0  0  0  0  0  0  0  0
    8.5792    2.6941   25.1600 C   0  0  0  0  0  0  0  0  0  0  0  0
    8.1619    3.6943   26.0409 C   0  0  0  0  0  0  0  0  0  0  0  0
    8.1466    3.5005   27.1110 H   0  0  0  0  0  0  0  0  0  0  0  0
    8.8907    1.7199   25.5265 H   0  0  0  0  0  0  0  0  0  0  0  0
    8.2080    4.3924   22.2190 H   0  0  0  0  0  0  0  0  0  0  0  0
    7.4605    6.1501   23.7985 H   0  0  0  0  0  0  0  0  0  0  0  0
    7.4253    5.7220   26.2510 H   0  0  0  0  0  0  0  0  0  0  0  0
  1  2  2  0
  2  3  1  0
  3  4  2  0
  4  5  1  0
  5  6  1  0
  6  7  1  0
  7  8  1  0
  8  9  2  0
  9 10  1  0
 10 11  1  0
 11 12  1  0
 12 13  1  0
 13 14  1  0
 14 15  1  0
 15 16  1  0
 15 17  1  0
 13 18  1  0
 13 19  1  0
 12 20  1  0
 12 21  1  0
 11 22  1  0
 10 23  2  0
 23 24  1  0
 24 25  1  0
 25 26  2  0
 26 27  1  0
 27 28  2  0
 28 29  1  0
 29 30  2  0
 30 31  1  0
 28 32  1  0
 27 33  1  0
 26 34  1  0
  7 35  1  0
  7 36  1  0
  6 37  1  0
  6 38  1  0
  4 39  1  0
 39 40  2  0
 40 41  1  0
 39 42  1  0
  3 43  1  0
  2 44  1  0
  1 45  1  0
 40  1  1  0
 24  8  1  0
 30 25  1  0
 15 11  1  0
M  END
>  <cnnaffinity>  (1) 
-5.84363

>  <filename>  (1) 
c1ccc(OCCc2nc(C3CCOC3)nn2-c2cccnc2)cc1

$$$$
