
     RDKit          3D

 45 49  0  0  0  0  0  0  0  0999 V2000
   14.3672   -1.1881   20.9795 C   0  0  0  0  0  0  0  0  0  0  0  0
   14.1786   -0.0896   21.8344 C   0  0  0  0  0  0  0  0  0  0  0  0
   12.8826    0.2683   22.2321 C   0  0  0  0  0  0  0  0  0  0  0  0
   11.7919   -0.5109   21.7998 C   0  0  0  0  0  0  0  0  0  0  0  0
   10.3816   -0.0867   21.8503 C   0  0  0  0  0  0  0  0  0  0  0  0
    9.4186   -0.9062   21.4462 N   0  0  0  0  0  0  0  0  0  0  0  0
    8.3014   -0.1687   21.5607 N   0  0  0  0  0  0  0  0  0  0  0  0
    7.0320   -0.7092   21.0712 C   0  0  0  0  0  0  0  0  0  0  0  0
    6.4032    0.0555   19.9227 C   0  0  0  0  0  0  0  0  0  0  0  0
    5.1810    0.7283   20.0335 C   0  0  0  0  0  0  0  0  0  0  0  0
    4.6733    1.4081   18.9221 C   0  0  0  0  0  0  0  0  0  0  0  0
    5.4053    1.3819   17.7316 C   0  0  0  0  0  0  0  0  0  0  0  0
    6.5669    0.7231   17.5958 N   0  0  0  0  0  0  0  0  0  0  0  0
    7.0437    0.0866   18.6726 C   0  0  0  0  0  0  0  0  0  0  0  0
    7.9871   -0.4398   18.5348 H   0  0  0  0  0  0  0  0  0  0  0  0
    5.0450    1.9051   16.8460 H   0  0  0  0  0  0  0  0  0  0  0  0
    3.7449    1.9677   18.9672 H   0  0  0  0  0  0  0  0  0  0  0  0
    4.6330    0.7293   20.9781 H   0  0  0  0  0  0  0  0  0  0  0  0
    7.2630   -1.7332   20.7593 H   0  0  0  0  0  0  0  0  0  0  0  0
    6.3379   -0.7727   21.9152 H   0  0  0  0  0  0  0  0  0  0  0  0
    8.6251    1.0323   22.0855 C   0  0  0  0  0  0  0  0  0  0  0  0
    7.6371    1.8891   22.8173 C   0  0  0  0  0  0  0  0  0  0  0  0
    7.3830    1.2706   24.1965 C   0  0  0  0  0  0  0  0  0  0  0  0
    8.4778    1.2308   25.1159 C   0  0  0  0  0  0  0  0  0  0  0  0
    8.4122    0.5708   26.3318 C   0  0  0  0  0  0  0  0  0  0  0  0
    7.1850   -0.0555   26.6318 C   0  0  0  0  0  0  0  0  0  0  0  0
    6.7219   -0.7804   27.6800 N   0  0  0  0  0  0  0  0  0  0  0  0
    5.4482   -1.1749   27.4759 N   0  0  0  0  0  0  0  0  0  0  0  0
    5.0579   -0.7392   26.3321 N   0  0  0  0  0  0  0  0  0  0  0  0
    6.0902   -0.0277   25.7561 C   0  0  0  0  0  0  0  0  0  0  0  0
    6.1867    0.6472   24.5171 C   0  0  0  0  0  0  0  0  0  0  0  0
    5.3324    0.6476   23.8493 H   0  0  0  0  0  0  0  0  0  0  0  0
    7.1726   -1.0029   28.5509 H   0  0  0  0  0  0  0  0  0  0  0  0
    9.2654    0.5082   27.0009 H   0  0  0  0  0  0  0  0  0  0  0  0
    9.4160    1.6910   24.8145 H   0  0  0  0  0  0  0  0  0  0  0  0
    8.0841    2.8806   22.9210 H   0  0  0  0  0  0  0  0  0  0  0  0
    6.7166    1.9993   22.2378 H   0  0  0  0  0  0  0  0  0  0  0  0
    9.9385    1.1353   22.2249 N   0  0  0  0  0  0  0  0  0  0  0  0
   12.0348   -1.7325   21.1585 C   0  0  0  0  0  0  0  0  0  0  0  0
   13.3055   -2.0310   20.6910 C   0  0  0  0  0  0  0  0  0  0  0  0
   13.4729   -2.8788   20.0411 H   0  0  0  0  0  0  0  0  0  0  0  0
   11.1903   -2.3947   21.0154 H   0  0  0  0  0  0  0  0  0  0  0  0
   12.7210    1.1586   22.8332 H   0  0  0  0  0  0  0  0  0  0  0  0
   15.0217    0.5298   22.1295 H   0  0  0  0  0  0  0  0  0  0  0  0
   15.2877   -1.4046   20.4522 H   0  0  0  0  0  0  0  0  0  0  0  0
  1  2  2  0
  2  3  1  0
  3  4  2  0
  4  5  1  0
  5  6  2  0
  6  7  1  0
  7  8  1  0
  8  9  1  0
  9 10  2  0
 10 11  1  0
 11 12  2  0
 12 13  1  0
 13 14  2  0
 14 15  1  0
 12 16  1  0
 11 17  1  0
 10 18  1  0
  8 19  1  0
  8 20  1  0
  7 21  1  0
 21 22  1  0
 22 23  1  0
 23 24  2  0
 24 25  1  0
 25 26  2  0
 26 27  1  0
 27 28  1  0
 28 29  2  0
 29 30  1  0
 30 31  2  0
 31 32  1  0
 27 33  1  0
 25 34  1  0
 24 35  1  0
 22 36  1  0
 22 37  1  0
 21 38  2  0
  4 39  1  0
 39 40  2  0
 40 41  1  0
 39 42  1  0
  3 43  1  0
  2 44  1  0
  1 45  1  0
 40  1  1  0
 38  5  1  0
 14  9  1  0
 31 23  1  0
 30 26  1  0
M  END
>  <cnnaffinity>  (1) 
-6.61051

>  <filename>  (1) 
c1ccc(-c2nc(Cc3ccc4[nH]nnc4c3)n(Cc3cccnc3)n2)cc1

$$$$
