
     RDKit          3D

 48 51  0  0  0  0  0  0  0  0999 V2000
    8.7457   -7.2766   27.2234 H   0  0  0  0  0  0  0  0  0  0  0  0
    8.3994   -6.2600   27.3548 C   0  0  0  0  0  0  0  0  0  0  0  0
    8.9425   -5.3921   26.5141 N   0  0  0  0  0  0  0  0  0  0  0  0
    8.5346   -4.1180   26.5808 C   0  0  0  0  0  0  0  0  0  0  0  0
    9.1788   -3.2594   25.7046 N   0  0  0  0  0  0  0  0  0  0  0  0
    9.3703   -3.7755   24.3280 C   0  0  0  0  0  0  0  0  0  0  0  0
    9.8196   -4.7694   24.3916 H   0  0  0  0  0  0  0  0  0  0  0  0
    8.4113   -3.8658   23.7907 H   0  0  0  0  0  0  0  0  0  0  0  0
   10.3304   -2.8827   23.5490 C   0  0  0  0  0  0  0  0  0  0  0  0
   11.2668   -2.9322   24.0945 H   0  0  0  0  0  0  0  0  0  0  0  0
   10.5417   -3.2710   22.5497 H   0  0  0  0  0  0  0  0  0  0  0  0
    9.9185   -1.4581   23.4960 N   0  0  0  0  0  0  0  0  0  0  0  0
    8.5947   -1.3053   22.8935 N   0  0  0  0  0  0  0  0  0  0  0  0
    8.3346    0.1363   22.6949 C   0  0  0  0  0  0  0  0  0  0  0  0
    8.3363    0.6487   23.6600 H   0  0  0  0  0  0  0  0  0  0  0  0
    9.1215    0.5861   22.0711 H   0  0  0  0  0  0  0  0  0  0  0  0
    6.9589    0.3694   22.0665 C   0  0  0  0  0  0  0  0  0  0  0  0
    6.1846    0.0332   22.7784 H   0  0  0  0  0  0  0  0  0  0  0  0
    6.8124    1.4428   21.8954 H   0  0  0  0  0  0  0  0  0  0  0  0
    6.8596   -0.3336   20.7960 N   0  0  0  0  0  0  0  0  0  0  0  0
    6.2630    0.2557   19.6671 C   0  0  0  0  0  0  0  0  0  0  0  0
    6.8414    0.1908   18.3741 C   0  0  0  0  0  0  0  0  0  0  0  0
    7.7594   -0.3765   18.2260 H   0  0  0  0  0  0  0  0  0  0  0  0
    6.3568    0.8174   17.2910 N   0  0  0  0  0  0  0  0  0  0  0  0
    5.2431    1.5536   17.4408 C   0  0  0  0  0  0  0  0  0  0  0  0
    4.8871    2.0686   16.5513 H   0  0  0  0  0  0  0  0  0  0  0  0
    4.5706    1.6712   18.6605 C   0  0  0  0  0  0  0  0  0  0  0  0
    3.6803    2.2875   18.7272 H   0  0  0  0  0  0  0  0  0  0  0  0
    5.0827    1.0154   19.7838 C   0  0  0  0  0  0  0  0  0  0  0  0
    4.6059    1.0815   20.7592 H   0  0  0  0  0  0  0  0  0  0  0  0
    7.1277   -1.7586   20.9425 C   0  0  0  0  0  0  0  0  0  0  0  0
    6.3743   -2.2382   21.5935 H   0  0  0  0  0  0  0  0  0  0  0  0
    7.0608   -2.2421   19.9624 H   0  0  0  0  0  0  0  0  0  0  0  0
    8.5053   -1.9921   21.5745 C   0  0  0  0  0  0  0  0  0  0  0  0
    9.3165   -1.6607   20.9054 H   0  0  0  0  0  0  0  0  0  0  0  0
    8.6126   -3.0716   21.7128 H   0  0  0  0  0  0  0  0  0  0  0  0
    9.9065   -1.0008   24.9098 C   0  0  0  0  0  0  0  0  0  0  0  0
   10.9429   -1.0974   25.2467 H   0  0  0  0  0  0  0  0  0  0  0  0
    9.6808    0.0684   24.9839 H   0  0  0  0  0  0  0  0  0  0  0  0
    8.9399   -1.8078   25.8000 C   0  0  0  0  0  0  0  0  0  0  0  0
    7.9116   -1.5673   25.4832 H   0  0  0  0  0  0  0  0  0  0  0  0
    9.0835   -1.4815   26.8390 H   0  0  0  0  0  0  0  0  0  0  0  0
    7.4982   -3.7071   27.4494 C   0  0  0  0  0  0  0  0  0  0  0  0
    7.1684   -2.6784   27.4050 H   0  0  0  0  0  0  0  0  0  0  0  0
    6.9451   -4.6364   28.3258 C   0  0  0  0  0  0  0  0  0  0  0  0
    6.1409   -4.3506   29.0111 H   0  0  0  0  0  0  0  0  0  0  0  0
    7.4246   -5.9460   28.2989 C   0  0  0  0  0  0  0  0  0  0  0  0
    7.0535   -6.6979   28.9816 H   0  0  0  0  0  0  0  0  0  0  0  0
  1  2  1  0
  2  3  2  0
  3  4  1  0
  4  5  1  0
  5  6  1  0
  6  7  1  0
  6  8  1  0
  6  9  1  0
  9 10  1  0
  9 11  1  0
  9 12  1  0
 12 13  1  0
 13 14  1  0
 14 15  1  0
 14 16  1  0
 14 17  1  0
 17 18  1  0
 17 19  1  0
 17 20  1  0
 20 21  1  0
 21 22  2  0
 22 23  1  0
 22 24  1  0
 24 25  2  0
 25 26  1  0
 25 27  1  0
 27 28  1  0
 27 29  2  0
 29 30  1  0
 20 31  1  0
 31 32  1  0
 31 33  1  0
 31 34  1  0
 34 35  1  0
 34 36  1  0
 12 37  1  0
 37 38  1  0
 37 39  1  0
 37 40  1  0
 40 41  1  0
 40 42  1  0
  4 43  2  0
 43 44  1  0
 43 45  1  0
 45 46  1  0
 45 47  2  0
 47 48  1  0
 47  2  1  0
 40  5  1  0
 34 13  1  0
 29 21  1  0
M  END
>  <cnnaffinity>  (1) 
-5.14706

>  <filename>  (1) 
c1ccc(N2CCN(N3CCN(c4cccnc4)CC3)CC2)nc1

$$$$
