
     RDKit          3D

 34 36  0  0  0  0  0  0  0  0999 V2000
    4.9594    1.7910   16.8900 H   0  0  0  0  0  0  0  0  0  0  0  0
    5.4398    1.3320   17.7530 C   0  0  0  0  0  0  0  0  0  0  0  0
    6.6035    0.7085   17.5142 N   0  0  0  0  0  0  0  0  0  0  0  0
    7.2155    0.1340   18.5570 C   0  0  0  0  0  0  0  0  0  0  0  0
    8.1424   -0.3919   18.3190 H   0  0  0  0  0  0  0  0  0  0  0  0
    6.7401    0.1668   19.8745 C   0  0  0  0  0  0  0  0  0  0  0  0
    7.4791   -0.6319   20.9331 C   0  0  0  0  0  0  0  0  0  0  0  0
    7.1434   -2.0551   20.7684 N   0  0  0  0  0  0  0  0  0  0  0  0
    7.2663   -2.3075   19.7867 H   0  0  0  0  0  0  0  0  0  0  0  0
    5.5480   -2.4905   21.2575 S   0  0  0  0  0  0  0  0  0  0  0  0
    5.8106   -4.1178   21.9499 C   0  0  0  0  0  0  0  0  0  0  0  0
    5.6697   -5.2387   21.1188 C   0  0  0  0  0  0  0  0  0  0  0  0
    5.6220   -5.1225   20.0397 H   0  0  0  0  0  0  0  0  0  0  0  0
    5.5860   -6.5133   21.6789 C   0  0  0  0  0  0  0  0  0  0  0  0
    5.3866   -7.3581   21.0302 H   0  0  0  0  0  0  0  0  0  0  0  0
    5.7227   -6.6957   23.0603 C   0  0  0  0  0  0  0  0  0  0  0  0
    5.6451   -7.6937   23.4805 H   0  0  0  0  0  0  0  0  0  0  0  0
    5.9263   -5.5867   23.8910 C   0  0  0  0  0  0  0  0  0  0  0  0
    6.0613   -5.7054   24.9657 H   0  0  0  0  0  0  0  0  0  0  0  0
    5.9645   -4.3008   23.3330 C   0  0  0  0  0  0  0  0  0  0  0  0
    6.0979   -3.4256   23.9613 H   0  0  0  0  0  0  0  0  0  0  0  0
    9.0197   -0.4483   21.0056 C   0  0  0  0  0  0  0  0  0  0  0  0
    9.5570   -1.3876   20.8384 H   0  0  0  0  0  0  0  0  0  0  0  0
    9.4108    0.3164   20.3300 H   0  0  0  0  0  0  0  0  0  0  0  0
    8.9169   -0.0219   22.4946 C   0  0  0  0  0  0  0  0  0  0  0  0
    9.2788    0.9848   22.7281 H   0  0  0  0  0  0  0  0  0  0  0  0
    9.3954   -0.7119   23.1991 H   0  0  0  0  0  0  0  0  0  0  0  0
    7.3746   -0.1579   22.4104 C   0  0  0  0  0  0  0  0  0  0  0  0
    6.8143    0.7696   22.5609 H   0  0  0  0  0  0  0  0  0  0  0  0
    6.9459   -0.9259   23.0615 H   0  0  0  0  0  0  0  0  0  0  0  0
    5.5058    0.7960   20.0991 C   0  0  0  0  0  0  0  0  0  0  0  0
    5.0645    0.7907   21.0988 H   0  0  0  0  0  0  0  0  0  0  0  0
    4.8485    1.3916   19.0203 C   0  0  0  0  0  0  0  0  0  0  0  0
    3.8993    1.9009   19.1441 H   0  0  0  0  0  0  0  0  0  0  0  0
  1  2  1  0
  2  3  2  0
  3  4  1  0
  4  5  1  0
  4  6  2  0
  6  7  1  0
  7  8  1  0
  8  9  1  0
  8 10  1  0
 10 11  1  0
 11 12  2  0
 12 13  1  0
 12 14  1  0
 14 15  1  0
 14 16  2  0
 16 17  1  0
 16 18  1  0
 18 19  1  0
 18 20  2  0
 20 21  1  0
  7 22  1  0
 22 23  1  0
 22 24  1  0
 22 25  1  0
 25 26  1  0
 25 27  1  0
 25 28  1  0
 28 29  1  0
 28 30  1  0
  6 31  1  0
 31 32  1  0
 31 33  2  0
 33 34  1  0
 33  2  1  0
 28  7  1  0
 20 11  1  0
M  END
>  <cnnaffinity>  (1) 
-4.88332

>  <filename>  (1) 
c1ccc(SNC2(c3cccnc3)CCC2)cc1

$$$$
