
     RDKit          3D

 39 42  0  0  0  0  0  0  0  0999 V2000
    6.3923    2.9772   27.7634 C   0  0  0  0  0  0  0  0  0  0  0  0
    7.5415    3.4651   27.1431 C   0  0  0  0  0  0  0  0  0  0  0  0
    7.8865    2.9525   25.8952 C   0  0  0  0  0  0  0  0  0  0  0  0
    7.0684    1.9711   25.2881 C   0  0  0  0  0  0  0  0  0  0  0  0
    7.5072    1.4260   23.9434 C   0  0  0  0  0  0  0  0  0  0  0  0
    6.9088    0.4697   23.2462 N   0  0  0  0  0  0  0  0  0  0  0  0
    7.7125    0.3115   22.1712 N   0  0  0  0  0  0  0  0  0  0  0  0
    7.3744   -0.6218   21.0968 C   0  0  0  0  0  0  0  0  0  0  0  0
    6.6914    0.0475   19.9192 C   0  0  0  0  0  0  0  0  0  0  0  0
    5.4894    0.7349   20.1229 C   0  0  0  0  0  0  0  0  0  0  0  0
    4.8771    1.3524   19.0312 C   0  0  0  0  0  0  0  0  0  0  0  0
    5.4904    1.2697   17.7778 C   0  0  0  0  0  0  0  0  0  0  0  0
    6.6418    0.6185   17.5625 N   0  0  0  0  0  0  0  0  0  0  0  0
    7.2172    0.0276   18.6187 C   0  0  0  0  0  0  0  0  0  0  0  0
    8.1489   -0.4987   18.4058 H   0  0  0  0  0  0  0  0  0  0  0  0
    5.0415    1.7504   16.9101 H   0  0  0  0  0  0  0  0  0  0  0  0
    3.9543    1.9085   19.1386 H   0  0  0  0  0  0  0  0  0  0  0  0
    5.0670    0.7879   21.1288 H   0  0  0  0  0  0  0  0  0  0  0  0
    6.7252   -1.3724   21.5595 H   0  0  0  0  0  0  0  0  0  0  0  0
    8.2970   -1.1182   20.7750 H   0  0  0  0  0  0  0  0  0  0  0  0
    8.7444    1.1735   22.2520 C   0  0  0  0  0  0  0  0  0  0  0  0
    9.8839    1.2285   21.2882 C   0  0  0  0  0  0  0  0  0  0  0  0
   10.9669    0.2278   21.5803 C   0  0  0  0  0  0  0  0  0  0  0  0
   12.0026    0.3307   22.4752 C   0  0  0  0  0  0  0  0  0  0  0  0
   12.7016   -0.8894   22.3665 C   0  0  0  0  0  0  0  0  0  0  0  0
   12.1344   -1.7078   21.4949 N   0  0  0  0  0  0  0  0  0  0  0  0
   11.0647   -1.0217   21.0503 N   0  0  0  0  0  0  0  0  0  0  0  0
   10.5936   -1.3834   20.2290 H   0  0  0  0  0  0  0  0  0  0  0  0
   13.6269   -1.1721   22.8499 H   0  0  0  0  0  0  0  0  0  0  0  0
   12.2150    1.1830   23.1085 H   0  0  0  0  0  0  0  0  0  0  0  0
    9.5066    1.1187   20.2736 H   0  0  0  0  0  0  0  0  0  0  0  0
   10.2897    2.2388   21.3691 H   0  0  0  0  0  0  0  0  0  0  0  0
    8.6500    1.8958   23.3396 N   0  0  0  0  0  0  0  0  0  0  0  0
    5.9489    1.5116   25.8931 N   0  0  0  0  0  0  0  0  0  0  0  0
    5.6410    2.0006   27.1007 C   0  0  0  0  0  0  0  0  0  0  0  0
    4.7533    1.5789   27.5712 H   0  0  0  0  0  0  0  0  0  0  0  0
    8.7795    3.2803   25.3754 H   0  0  0  0  0  0  0  0  0  0  0  0
    8.1643    4.2243   27.6165 H   0  0  0  0  0  0  0  0  0  0  0  0
    6.0800    3.3321   28.7409 H   0  0  0  0  0  0  0  0  0  0  0  0
  1  2  2  0
  2  3  1  0
  3  4  2  0
  4  5  1  0
  5  6  2  0
  6  7  1  0
  7  8  1  0
  8  9  1  0
  9 10  2  0
 10 11  1  0
 11 12  2  0
 12 13  1  0
 13 14  2  0
 14 15  1  0
 12 16  1  0
 11 17  1  0
 10 18  1  0
  8 19  1  0
  8 20  1  0
  7 21  1  0
 21 22  1  0
 22 23  1  0
 23 24  2  0
 24 25  1  0
 25 26  2  0
 26 27  1  0
 27 28  1  0
 25 29  1  0
 24 30  1  0
 22 31  1  0
 22 32  1  0
 21 33  2  0
  4 34  1  0
 34 35  2  0
 35 36  1  0
  3 37  1  0
  2 38  1  0
  1 39  1  0
 35  1  1  0
 33  5  1  0
 14  9  1  0
 27 23  1  0
M  END
>  <cnnaffinity>  (1) 
-6.04961

>  <filename>  (1) 
c1ccc(-c2nc(Cc3ccn[nH]3)n(Cc3cccnc3)n2)nc1

$$$$
