
     RDKit          3D

 38 41  0  0  0  0  0  0  0  0999 V2000
   10.7595    1.3760   26.3089 H   0  0  0  0  0  0  0  0  0  0  0  0
   10.1248    1.7368   25.5032 C   0  0  0  0  0  0  0  0  0  0  0  0
    8.8757    1.2630   25.4616 N   0  0  0  0  0  0  0  0  0  0  0  0
    8.1144    1.6453   24.4215 C   0  0  0  0  0  0  0  0  0  0  0  0
    6.7670    0.9516   24.2928 C   0  0  0  0  0  0  0  0  0  0  0  0
    6.7707    0.0794   24.9509 H   0  0  0  0  0  0  0  0  0  0  0  0
    5.9388    1.5985   24.5963 H   0  0  0  0  0  0  0  0  0  0  0  0
    6.4526    0.5610   22.9485 O   0  0  0  0  0  0  0  0  0  0  0  0
    7.2573   -0.3958   22.3944 C   0  0  0  0  0  0  0  0  0  0  0  0
    7.3565   -0.6629   20.9877 C   0  0  0  0  0  0  0  0  0  0  0  0
    6.6491    0.0156   19.8898 C   0  0  0  0  0  0  0  0  0  0  0  0
    7.1688    0.0324   18.5789 C   0  0  0  0  0  0  0  0  0  0  0  0
    8.1057   -0.4689   18.3417 H   0  0  0  0  0  0  0  0  0  0  0  0
    6.5700    0.6574   17.5563 N   0  0  0  0  0  0  0  0  0  0  0  0
    5.4129    1.2894   17.8017 C   0  0  0  0  0  0  0  0  0  0  0  0
    4.9515    1.8034   16.9599 H   0  0  0  0  0  0  0  0  0  0  0  0
    4.8012    1.3132   19.0579 C   0  0  0  0  0  0  0  0  0  0  0  0
    3.8672    1.8419   19.1987 H   0  0  0  0  0  0  0  0  0  0  0  0
    5.4282    0.6716   20.1207 C   0  0  0  0  0  0  0  0  0  0  0  0
    4.9994    0.6769   21.1213 H   0  0  0  0  0  0  0  0  0  0  0  0
    8.2088   -1.6693   20.7657 N   0  0  0  0  0  0  0  0  0  0  0  0
    8.6149   -2.0177   21.9786 N   0  0  0  0  0  0  0  0  0  0  0  0
    8.1105   -1.3081   22.9967 C   0  0  0  0  0  0  0  0  0  0  0  0
    8.6418   -1.8463   24.2937 C   0  0  0  0  0  0  0  0  0  0  0  0
    7.8306   -2.1246   24.9718 H   0  0  0  0  0  0  0  0  0  0  0  0
    9.2264   -1.0817   24.8078 H   0  0  0  0  0  0  0  0  0  0  0  0
    9.5124   -3.0624   23.8733 C   0  0  0  0  0  0  0  0  0  0  0  0
    9.1189   -3.9843   24.3018 H   0  0  0  0  0  0  0  0  0  0  0  0
   10.5446   -2.9503   24.2078 H   0  0  0  0  0  0  0  0  0  0  0  0
    9.4622   -3.1282   22.3260 C   0  0  0  0  0  0  0  0  0  0  0  0
   10.4390   -2.9915   21.8588 H   0  0  0  0  0  0  0  0  0  0  0  0
    9.0008   -4.0494   21.9627 H   0  0  0  0  0  0  0  0  0  0  0  0
    8.5392    2.5857   23.4662 C   0  0  0  0  0  0  0  0  0  0  0  0
    7.8604    2.8497   22.6576 H   0  0  0  0  0  0  0  0  0  0  0  0
    9.8344    3.1040   23.5413 C   0  0  0  0  0  0  0  0  0  0  0  0
   10.1837    3.8359   22.8065 H   0  0  0  0  0  0  0  0  0  0  0  0
   10.6527    2.6274   24.5652 C   0  0  0  0  0  0  0  0  0  0  0  0
   11.7008    2.8771   24.6473 H   0  0  0  0  0  0  0  0  0  0  0  0
  1  2  1  0
  2  3  2  0
  3  4  1  0
  4  5  1  0
  5  6  1  0
  5  7  1  0
  5  8  1  0
  8  9  1  0
  9 10  1  0
 10 11  1  0
 11 12  2  0
 12 13  1  0
 12 14  1  0
 14 15  2  0
 15 16  1  0
 15 17  1  0
 17 18  1  0
 17 19  2  0
 19 20  1  0
 10 21  2  0
 21 22  1  0
 22 23  1  0
 23 24  1  0
 24 25  1  0
 24 26  1  0
 24 27  1  0
 27 28  1  0
 27 29  1  0
 27 30  1  0
 30 31  1  0
 30 32  1  0
  4 33  2  0
 33 34  1  0
 33 35  1  0
 35 36  1  0
 35 37  2  0
 37 38  1  0
 37  2  1  0
 23  9  2  0
 19 11  1  0
 30 22  1  0
M  END
>  <cnnaffinity>  (1) 
-5.67261

>  <filename>  (1) 
c1ccc(COc2c(-c3cccnc3)nn3c2CCC3)nc1

$$$$
