
     RDKit          3D

 41 44  0  0  0  0  0  0  0  0999 V2000
    7.1665   -0.2305   26.5531 C   0  0  0  0  0  0  0  0  0  0  0  0
    8.3172    0.5532   26.4095 C   0  0  0  0  0  0  0  0  0  0  0  0
    8.4573    1.2965   25.2379 C   0  0  0  0  0  0  0  0  0  0  0  0
    7.4563    1.2210   24.2528 C   0  0  0  0  0  0  0  0  0  0  0  0
    7.6473    1.8831   22.9112 C   0  0  0  0  0  0  0  0  0  0  0  0
    8.5859    1.0066   22.1668 C   0  0  0  0  0  0  0  0  0  0  0  0
    9.8958    1.0617   22.3053 N   0  0  0  0  0  0  0  0  0  0  0  0
   10.3171   -0.1116   21.7552 C   0  0  0  0  0  0  0  0  0  0  0  0
   11.7458   -0.5568   21.6820 C   0  0  0  0  0  0  0  0  0  0  0  0
   12.8165    0.1940   22.2231 C   0  0  0  0  0  0  0  0  0  0  0  0
   14.1201   -0.1802   21.8929 C   0  0  0  0  0  0  0  0  0  0  0  0
   14.3014   -1.2717   21.0340 C   0  0  0  0  0  0  0  0  0  0  0  0
   13.1940   -2.0130   20.6463 C   0  0  0  0  0  0  0  0  0  0  0  0
   11.9590   -1.6998   21.0065 N   0  0  0  0  0  0  0  0  0  0  0  0
   13.3127   -2.8610   19.9769 H   0  0  0  0  0  0  0  0  0  0  0  0
   15.2300   -1.5447   20.5783 H   0  0  0  0  0  0  0  0  0  0  0  0
   14.9669    0.4136   22.2269 H   0  0  0  0  0  0  0  0  0  0  0  0
   12.6283    1.0909   22.8082 H   0  0  0  0  0  0  0  0  0  0  0  0
    9.3302   -0.8586   21.2813 N   0  0  0  0  0  0  0  0  0  0  0  0
    8.2308   -0.1371   21.5426 N   0  0  0  0  0  0  0  0  0  0  0  0
    6.9273   -0.6476   21.1264 C   0  0  0  0  0  0  0  0  0  0  0  0
    6.3282    0.0848   19.9455 C   0  0  0  0  0  0  0  0  0  0  0  0
    5.1091    0.7665   20.0206 C   0  0  0  0  0  0  0  0  0  0  0  0
    4.6331    1.4267   18.8837 C   0  0  0  0  0  0  0  0  0  0  0  0
    5.3919    1.3711   17.7104 C   0  0  0  0  0  0  0  0  0  0  0  0
    6.5521    0.7031   17.6096 N   0  0  0  0  0  0  0  0  0  0  0  0
    7.0007    0.0861   18.7103 C   0  0  0  0  0  0  0  0  0  0  0  0
    7.9451   -0.4487   18.6078 H   0  0  0  0  0  0  0  0  0  0  0  0
    5.0560    1.8883   16.8124 H   0  0  0  0  0  0  0  0  0  0  0  0
    3.7054    1.9898   18.8994 H   0  0  0  0  0  0  0  0  0  0  0  0
    4.5400    0.7801   20.9544 H   0  0  0  0  0  0  0  0  0  0  0  0
    7.1108   -1.6987   20.8768 H   0  0  0  0  0  0  0  0  0  0  0  0
    6.2587   -0.6157   21.9923 H   0  0  0  0  0  0  0  0  0  0  0  0
    8.1138    2.8659   23.0183 H   0  0  0  0  0  0  0  0  0  0  0  0
    6.6956    1.9703   22.3828 H   0  0  0  0  0  0  0  0  0  0  0  0
    6.3650    0.4637   24.3817 N   0  0  0  0  0  0  0  0  0  0  0  0
    6.2237   -0.2363   25.5214 C   0  0  0  0  0  0  0  0  0  0  0  0
    5.3202   -0.8366   25.6018 H   0  0  0  0  0  0  0  0  0  0  0  0
    9.3493    1.8723   25.0169 H   0  0  0  0  0  0  0  0  0  0  0  0
    9.0932    0.5640   27.1764 H   0  0  0  0  0  0  0  0  0  0  0  0
    7.0033   -0.8406   27.4344 H   0  0  0  0  0  0  0  0  0  0  0  0
  1  2  2  0
  2  3  1  0
  3  4  2  0
  4  5  1  0
  5  6  1  0
  6  7  2  0
  7  8  1  0
  8  9  1  0
  9 10  2  0
 10 11  1  0
 11 12  2  0
 12 13  1  0
 13 14  2  0
 13 15  1  0
 12 16  1  0
 11 17  1  0
 10 18  1  0
  8 19  2  0
 19 20  1  0
 20 21  1  0
 21 22  1  0
 22 23  2  0
 23 24  1  0
 24 25  2  0
 25 26  1  0
 26 27  2  0
 27 28  1  0
 25 29  1  0
 24 30  1  0
 23 31  1  0
 21 32  1  0
 21 33  1  0
  5 34  1  0
  5 35  1  0
  4 36  1  0
 36 37  2  0
 37 38  1  0
  3 39  1  0
  2 40  1  0
  1 41  1  0
 37  1  1  0
 20  6  1  0
 27 22  1  0
 14  9  1  0
M  END
>  <cnnaffinity>  (1) 
-6.47613

>  <filename>  (1) 
c1ccc(Cc2nc(-c3ccccn3)nn2Cc2cccnc2)nc1

$$$$
