
     RDKit          3D

 45 49  0  0  0  0  0  0  0  0999 V2000
    1.9272   -8.8986   27.6430 H   0  0  0  0  0  0  0  0  0  0  0  0
    1.9855   -8.7392   26.5655 C   0  0  0  0  0  0  0  0  0  0  0  0
    2.7161   -7.6910   26.1824 N   0  0  0  0  0  0  0  0  0  0  0  0
    2.8186   -7.4459   24.8702 C   0  0  0  0  0  0  0  0  0  0  0  0
    3.5721   -6.3623   24.4972 N   0  0  0  0  0  0  0  0  0  0  0  0
    3.4205   -5.7643   23.1663 C   0  0  0  0  0  0  0  0  0  0  0  0
    3.9957   -6.3182   22.4142 H   0  0  0  0  0  0  0  0  0  0  0  0
    2.3746   -5.7695   22.8373 H   0  0  0  0  0  0  0  0  0  0  0  0
    3.8950   -4.3130   23.1361 C   0  0  0  0  0  0  0  0  0  0  0  0
    3.2385   -3.7042   23.7724 H   0  0  0  0  0  0  0  0  0  0  0  0
    3.7972   -3.9745   22.1086 H   0  0  0  0  0  0  0  0  0  0  0  0
    5.2733   -4.1993   23.5909 N   0  0  0  0  0  0  0  0  0  0  0  0
    6.1491   -3.3775   22.9439 C   0  0  0  0  0  0  0  0  0  0  0  0
    7.4515   -3.3141   23.2465 N   0  0  0  0  0  0  0  0  0  0  0  0
    7.8825   -2.3649   22.3654 N   0  0  0  0  0  0  0  0  0  0  0  0
    9.0847   -1.7449   22.1037 C   0  0  0  0  0  0  0  0  0  0  0  0
    9.9556   -1.9771   22.6912 H   0  0  0  0  0  0  0  0  0  0  0  0
    8.8406   -0.8572   21.0995 C   0  0  0  0  0  0  0  0  0  0  0  0
    9.4798   -0.1414   20.6092 H   0  0  0  0  0  0  0  0  0  0  0  0
    7.4932   -0.9067   20.7506 N   0  0  0  0  0  0  0  0  0  0  0  0
    6.8239   -0.1005   19.7906 C   0  0  0  0  0  0  0  0  0  0  0  0
    7.3133    0.0309   18.4755 C   0  0  0  0  0  0  0  0  0  0  0  0
    8.2554   -0.4332   18.1768 H   0  0  0  0  0  0  0  0  0  0  0  0
    6.6669    0.6998   17.5132 N   0  0  0  0  0  0  0  0  0  0  0  0
    5.5095    1.3034   17.8306 C   0  0  0  0  0  0  0  0  0  0  0  0
    5.0163    1.8426   17.0257 H   0  0  0  0  0  0  0  0  0  0  0  0
    4.9591    1.2712   19.1168 C   0  0  0  0  0  0  0  0  0  0  0  0
    4.0412    1.8144   19.3240 H   0  0  0  0  0  0  0  0  0  0  0  0
    5.6272    0.5631   20.1187 C   0  0  0  0  0  0  0  0  0  0  0  0
    5.2565    0.5452   21.1440 H   0  0  0  0  0  0  0  0  0  0  0  0
    6.9137   -1.8677   21.5653 C   0  0  0  0  0  0  0  0  0  0  0  0
    5.7539   -2.5227   21.8876 C   0  0  0  0  0  0  0  0  0  0  0  0
    4.7469   -2.3455   21.6007 H   0  0  0  0  0  0  0  0  0  0  0  0
    5.6383   -4.9695   24.7826 C   0  0  0  0  0  0  0  0  0  0  0  0
    6.3448   -5.7630   24.5085 H   0  0  0  0  0  0  0  0  0  0  0  0
    6.1398   -4.3133   25.5060 H   0  0  0  0  0  0  0  0  0  0  0  0
    4.3890   -5.5916   25.4563 C   0  0  0  0  0  0  0  0  0  0  0  0
    3.7857   -4.7790   25.8885 H   0  0  0  0  0  0  0  0  0  0  0  0
    4.6931   -6.2302   26.2826 H   0  0  0  0  0  0  0  0  0  0  0  0
    2.1910   -8.2610   23.8930 C   0  0  0  0  0  0  0  0  0  0  0  0
    2.3164   -8.0104   22.8474 H   0  0  0  0  0  0  0  0  0  0  0  0
    1.4476   -9.3540   24.3143 C   0  0  0  0  0  0  0  0  0  0  0  0
    0.9432   -9.9970   23.5920 H   0  0  0  0  0  0  0  0  0  0  0  0
    1.3398   -9.6070   25.6869 C   0  0  0  0  0  0  0  0  0  0  0  0
    0.7707  -10.4431   26.0745 H   0  0  0  0  0  0  0  0  0  0  0  0
  1  2  1  0
  2  3  2  0
  3  4  1  0
  4  5  1  0
  5  6  1  0
  6  7  1  0
  6  8  1  0
  6  9  1  0
  9 10  1  0
  9 11  1  0
  9 12  1  0
 12 13  1  0
 13 14  2  0
 14 15  1  0
 15 16  1  0
 16 17  1  0
 16 18  2  0
 18 19  1  0
 18 20  1  0
 20 21  1  0
 21 22  2  0
 22 23  1  0
 22 24  1  0
 24 25  2  0
 25 26  1  0
 25 27  1  0
 27 28  1  0
 27 29  2  0
 29 30  1  0
 20 31  1  0
 31 32  2  0
 32 33  1  0
 12 34  1  0
 34 35  1  0
 34 36  1  0
 34 37  1  0
 37 38  1  0
 37 39  1  0
  4 40  2  0
 40 41  1  0
 40 42  1  0
 42 43  1  0
 42 44  2  0
 44 45  1  0
 44  2  1  0
 37  5  1  0
 32 13  1  0
 31 15  1  0
 29 21  1  0
M  END
>  <cnnaffinity>  (1) 
-5.40665

>  <filename>  (1) 
c1ccc(N2CCN(c3cc4n(-c5cccnc5)ccn4n3)CC2)nc1

$$$$
