
     RDKit          3D

 40 43  0  0  0  0  0  0  0  0999 V2000
    8.7893    1.9896   25.7047 C   0  0  0  0  0  0  0  0  0  0  0  0
    7.6174    1.7692   24.9814 C   0  0  0  0  0  0  0  0  0  0  0  0
    7.6981    1.8130   23.5897 C   0  0  0  0  0  0  0  0  0  0  0  0
    8.9296    2.0742   22.9620 C   0  0  0  0  0  0  0  0  0  0  0  0
    9.0571    2.0097   21.4554 C   0  0  0  0  0  0  0  0  0  0  0  0
    9.5271    0.6086   20.9511 C   0  0  0  0  0  0  0  0  0  0  0  0
    8.6467   -0.5166   21.4013 C   0  0  0  0  0  0  0  0  0  0  0  0
    8.8654   -1.3264   22.4257 N   0  0  0  0  0  0  0  0  0  0  0  0
    7.6603   -1.9218   22.6027 C   0  0  0  0  0  0  0  0  0  0  0  0
    7.3756   -2.8127   23.7681 C   0  0  0  0  0  0  0  0  0  0  0  0
    6.4718   -4.0299   23.4519 C   0  0  0  0  0  0  0  0  0  0  0  0
    5.1833   -3.4577   24.6107 S   0  0  0  0  0  0  0  0  0  0  0  0
    6.4474   -2.1621   24.8392 C   0  0  0  0  0  0  0  0  0  0  0  0
    6.8643   -2.1448   25.8511 H   0  0  0  0  0  0  0  0  0  0  0  0
    6.0875   -1.1615   24.5777 H   0  0  0  0  0  0  0  0  0  0  0  0
    6.8986   -4.9951   23.7393 H   0  0  0  0  0  0  0  0  0  0  0  0
    6.1173   -4.0653   22.4169 H   0  0  0  0  0  0  0  0  0  0  0  0
    8.3409   -3.0981   24.1833 H   0  0  0  0  0  0  0  0  0  0  0  0
    6.7329   -1.5741   21.7337 N   0  0  0  0  0  0  0  0  0  0  0  0
    7.3708   -0.6748   20.9400 N   0  0  0  0  0  0  0  0  0  0  0  0
    6.6609    0.0009   19.9041 C   0  0  0  0  0  0  0  0  0  0  0  0
    5.4438    0.6411   20.1679 C   0  0  0  0  0  0  0  0  0  0  0  0
    4.8140    1.3092   19.1118 C   0  0  0  0  0  0  0  0  0  0  0  0
    5.4006    1.2955   17.8394 C   0  0  0  0  0  0  0  0  0  0  0  0
    6.5601    0.6728   17.5785 N   0  0  0  0  0  0  0  0  0  0  0  0
    7.1688    0.0511   18.5942 C   0  0  0  0  0  0  0  0  0  0  0  0
    8.1140   -0.4352   18.3686 H   0  0  0  0  0  0  0  0  0  0  0  0
    4.9183    1.7849   16.9950 H   0  0  0  0  0  0  0  0  0  0  0  0
    3.8808    1.8387   19.2633 H   0  0  0  0  0  0  0  0  0  0  0  0
    5.0145    0.6098   21.1735 H   0  0  0  0  0  0  0  0  0  0  0  0
   10.5303    0.3970   21.3284 H   0  0  0  0  0  0  0  0  0  0  0  0
    9.5846    0.6154   19.8595 H   0  0  0  0  0  0  0  0  0  0  0  0
    9.7720    2.7687   21.1293 H   0  0  0  0  0  0  0  0  0  0  0  0
    8.0915    2.2465   20.9984 H   0  0  0  0  0  0  0  0  0  0  0  0
   10.0566    2.2615   23.6566 N   0  0  0  0  0  0  0  0  0  0  0  0
    9.9717    2.2041   24.9906 C   0  0  0  0  0  0  0  0  0  0  0  0
   10.9210    2.2977   25.4984 H   0  0  0  0  0  0  0  0  0  0  0  0
    6.8351    1.6064   22.9727 H   0  0  0  0  0  0  0  0  0  0  0  0
    6.6703    1.5609   25.4876 H   0  0  0  0  0  0  0  0  0  0  0  0
    8.8011    1.9820   26.7896 H   0  0  0  0  0  0  0  0  0  0  0  0
  1  2  2  0
  2  3  1  0
  3  4  2  0
  4  5  1  0
  5  6  1  0
  6  7  1  0
  7  8  2  0
  8  9  1  0
  9 10  1  0
 10 11  1  0
 11 12  1  0
 12 13  1  0
 13 14  1  0
 13 15  1  0
 11 16  1  0
 11 17  1  0
 10 18  1  0
  9 19  2  0
 19 20  1  0
 20 21  1  0
 21 22  2  0
 22 23  1  0
 23 24  2  0
 24 25  1  0
 25 26  2  0
 26 27  1  0
 24 28  1  0
 23 29  1  0
 22 30  1  0
  6 31  1  0
  6 32  1  0
  5 33  1  0
  5 34  1  0
  4 35  1  0
 35 36  2  0
 36 37  1  0
  3 38  1  0
  2 39  1  0
  1 40  1  0
 36  1  1  0
 20  7  1  0
 26 21  1  0
 13 10  1  0
M  END
>  <cnnaffinity>  (1) 
-5.87792

>  <filename>  (1) 
c1ccc(CCc2nc(C3CSC3)nn2-c2cccnc2)nc1

$$$$
