
     RDKit          3D

 43 46  0  0  0  0  0  0  0  0999 V2000
    8.3945    1.4211   31.2710 H   0  0  0  0  0  0  0  0  0  0  0  0
    7.8701    1.9273   30.4664 C   0  0  0  0  0  0  0  0  0  0  0  0
    7.9651    1.3561   29.2664 N   0  0  0  0  0  0  0  0  0  0  0  0
    7.3259    1.9492   28.2492 C   0  0  0  0  0  0  0  0  0  0  0  0
    7.4032    1.2913   27.0334 N   0  0  0  0  0  0  0  0  0  0  0  0
    8.6808    0.6872   26.6296 C   0  0  0  0  0  0  0  0  0  0  0  0
    9.3577    1.4425   26.1838 H   0  0  0  0  0  0  0  0  0  0  0  0
    9.1771    0.2845   27.5163 H   0  0  0  0  0  0  0  0  0  0  0  0
    8.5035   -0.4921   25.6489 C   0  0  0  0  0  0  0  0  0  0  0  0
    8.1748   -1.3776   26.2191 H   0  0  0  0  0  0  0  0  0  0  0  0
    9.5028   -0.7006   25.2463 H   0  0  0  0  0  0  0  0  0  0  0  0
    7.5646   -0.2043   24.5576 N   0  0  0  0  0  0  0  0  0  0  0  0
    7.7043   -0.7434   23.2996 C   0  0  0  0  0  0  0  0  0  0  0  0
    7.0169   -0.1581   22.3118 N   0  0  0  0  0  0  0  0  0  0  0  0
    7.3309   -0.4996   21.0562 C   0  0  0  0  0  0  0  0  0  0  0  0
    6.6049    0.2056   19.9630 C   0  0  0  0  0  0  0  0  0  0  0  0
    7.1713    0.2715   18.6787 C   0  0  0  0  0  0  0  0  0  0  0  0
    8.1724   -0.1065   18.4815 H   0  0  0  0  0  0  0  0  0  0  0  0
    6.5768    0.8130   17.6109 N   0  0  0  0  0  0  0  0  0  0  0  0
    5.3745    1.3750   17.7976 C   0  0  0  0  0  0  0  0  0  0  0  0
    4.9117    1.8220   16.9186 H   0  0  0  0  0  0  0  0  0  0  0  0
    4.7313    1.4076   19.0374 C   0  0  0  0  0  0  0  0  0  0  0  0
    3.7696    1.9037   19.1292 H   0  0  0  0  0  0  0  0  0  0  0  0
    5.3498    0.8166   20.1383 C   0  0  0  0  0  0  0  0  0  0  0  0
    4.8718    0.8321   21.1203 H   0  0  0  0  0  0  0  0  0  0  0  0
    8.2922   -1.4824   20.7529 C   0  0  0  0  0  0  0  0  0  0  0  0
    8.5544   -1.6894   19.7295 H   0  0  0  0  0  0  0  0  0  0  0  0
    8.8920   -2.1940   21.7949 C   0  0  0  0  0  0  0  0  0  0  0  0
    9.6137   -2.9896   21.6070 H   0  0  0  0  0  0  0  0  0  0  0  0
    8.5708   -1.8380   23.0926 C   0  0  0  0  0  0  0  0  0  0  0  0
    8.9542   -2.3733   23.9513 H   0  0  0  0  0  0  0  0  0  0  0  0
    6.2930    0.3538   25.0115 C   0  0  0  0  0  0  0  0  0  0  0  0
    5.6820    0.6334   24.1457 H   0  0  0  0  0  0  0  0  0  0  0  0
    5.7463   -0.4008   25.6062 H   0  0  0  0  0  0  0  0  0  0  0  0
    6.5183    1.5970   25.9020 C   0  0  0  0  0  0  0  0  0  0  0  0
    6.9372    2.4049   25.2749 H   0  0  0  0  0  0  0  0  0  0  0  0
    5.5342    1.9085   26.2726 H   0  0  0  0  0  0  0  0  0  0  0  0
    6.6231    3.1685   28.3925 C   0  0  0  0  0  0  0  0  0  0  0  0
    6.1950    3.6217   27.5069 H   0  0  0  0  0  0  0  0  0  0  0  0
    6.5427    3.7545   29.6524 C   0  0  0  0  0  0  0  0  0  0  0  0
    5.9970    4.6877   29.7992 H   0  0  0  0  0  0  0  0  0  0  0  0
    7.1819    3.1123   30.7199 C   0  0  0  0  0  0  0  0  0  0  0  0
    7.1618    3.5110   31.7240 H   0  0  0  0  0  0  0  0  0  0  0  0
  1  2  1  0
  2  3  2  0
  3  4  1  0
  4  5  1  0
  5  6  1  0
  6  7  1  0
  6  8  1  0
  6  9  1  0
  9 10  1  0
  9 11  1  0
  9 12  1  0
 12 13  1  0
 13 14  2  0
 14 15  1  0
 15 16  1  0
 16 17  2  0
 17 18  1  0
 17 19  1  0
 19 20  2  0
 20 21  1  0
 20 22  1  0
 22 23  1  0
 22 24  2  0
 24 25  1  0
 15 26  2  0
 26 27  1  0
 26 28  1  0
 28 29  1  0
 28 30  2  0
 30 31  1  0
 12 32  1  0
 32 33  1  0
 32 34  1  0
 32 35  1  0
 35 36  1  0
 35 37  1  0
  4 38  2  0
 38 39  1  0
 38 40  1  0
 40 41  1  0
 40 42  2  0
 42 43  1  0
 42  2  1  0
 35  5  1  0
 30 13  1  0
 24 16  1  0
M  END
>  <cnnaffinity>  (1) 
-5.09551

>  <filename>  (1) 
c1ccc(N2CCN(c3cccc(-c4cccnc4)n3)CC2)nc1

$$$$
