
     RDKit          3D

 31 33  0  0  0  0  0  0  0  0999 V2000
   11.9175    3.2002   22.4244 H   0  0  0  0  0  0  0  0  0  0  0  0
   11.6498    2.3427   23.0390 C   0  0  0  0  0  0  0  0  0  0  0  0
   11.4418    1.2004   22.3739 N   0  0  0  0  0  0  0  0  0  0  0  0
   11.1543    0.1157   23.1008 C   0  0  0  0  0  0  0  0  0  0  0  0
   10.9170   -1.1376   22.3215 C   0  0  0  0  0  0  0  0  0  0  0  0
   11.4545   -1.0698   21.3730 H   0  0  0  0  0  0  0  0  0  0  0  0
   11.2753   -2.0194   22.8557 H   0  0  0  0  0  0  0  0  0  0  0  0
    9.4353   -1.2492   22.1185 C   0  0  0  0  0  0  0  0  0  0  0  0
    8.7773   -1.9987   23.0121 N   0  0  0  0  0  0  0  0  0  0  0  0
    7.4485   -2.1585   22.8991 N   0  0  0  0  0  0  0  0  0  0  0  0
    6.7789   -1.5326   21.9277 C   0  0  0  0  0  0  0  0  0  0  0  0
    5.7212   -1.7673   21.8970 H   0  0  0  0  0  0  0  0  0  0  0  0
    7.3974   -0.6826   20.9669 C   0  0  0  0  0  0  0  0  0  0  0  0
    6.6471    0.0204   19.8802 C   0  0  0  0  0  0  0  0  0  0  0  0
    7.1588    0.0794   18.5630 C   0  0  0  0  0  0  0  0  0  0  0  0
    8.1000   -0.4175   18.3285 H   0  0  0  0  0  0  0  0  0  0  0  0
    6.5550    0.6880   17.5337 N   0  0  0  0  0  0  0  0  0  0  0  0
    5.3961    1.3137   17.7967 C   0  0  0  0  0  0  0  0  0  0  0  0
    4.9284    1.8224   16.9587 H   0  0  0  0  0  0  0  0  0  0  0  0
    4.7898    1.3262   19.0575 C   0  0  0  0  0  0  0  0  0  0  0  0
    3.8533    1.8556   19.2002 H   0  0  0  0  0  0  0  0  0  0  0  0
    5.4165    0.6632   20.1139 C   0  0  0  0  0  0  0  0  0  0  0  0
    4.9886    0.6768   21.1197 H   0  0  0  0  0  0  0  0  0  0  0  0
    8.7766   -0.5486   21.0935 C   0  0  0  0  0  0  0  0  0  0  0  0
    9.3498    0.1231   20.4531 H   0  0  0  0  0  0  0  0  0  0  0  0
   10.9822    0.1362   24.4929 C   0  0  0  0  0  0  0  0  0  0  0  0
   10.7128   -0.7860   25.0022 H   0  0  0  0  0  0  0  0  0  0  0  0
   11.1680    1.3400   25.1703 C   0  0  0  0  0  0  0  0  0  0  0  0
   10.9935    1.4136   26.2431 H   0  0  0  0  0  0  0  0  0  0  0  0
   11.5505    2.4618   24.4261 C   0  0  0  0  0  0  0  0  0  0  0  0
   11.7973    3.4096   24.8803 H   0  0  0  0  0  0  0  0  0  0  0  0
  1  2  1  0
  2  3  2  0
  3  4  1  0
  4  5  1  0
  5  6  1  0
  5  7  1  0
  5  8  1  0
  8  9  2  0
  9 10  1  0
 10 11  2  0
 11 12  1  0
 11 13  1  0
 13 14  1  0
 14 15  2  0
 15 16  1  0
 15 17  1  0
 17 18  2  0
 18 19  1  0
 18 20  1  0
 20 21  1  0
 20 22  2  0
 22 23  1  0
 13 24  2  0
 24 25  1  0
  4 26  2  0
 26 27  1  0
 26 28  1  0
 28 29  1  0
 28 30  2  0
 30 31  1  0
 30  2  1  0
 24  8  1  0
 22 14  1  0
M  END
>  <cnnaffinity>  (1) 
-5.26831

>  <filename>  (1) 
c1ccc(Cc2cc(-c3cccnc3)cnn2)nc1

$$$$
