
     RDKit          3D

 45 48  0  0  0  0  0  0  0  0999 V2000
    8.3503    6.4414   23.0734 C   0  0  0  0  0  0  0  0  0  0  0  0
    7.2896    5.9236   22.3288 C   0  0  0  0  0  0  0  0  0  0  0  0
    7.3450    4.5798   21.9590 C   0  0  0  0  0  0  0  0  0  0  0  0
    8.4448    3.7938   22.3428 C   0  0  0  0  0  0  0  0  0  0  0  0
    8.5276    2.3388   21.9157 C   0  0  0  0  0  0  0  0  0  0  0  0
    7.5811    1.3838   22.6960 C   0  0  0  0  0  0  0  0  0  0  0  0
    7.6100   -0.0468   22.2468 C   0  0  0  0  0  0  0  0  0  0  0  0
    8.0586   -1.0402   22.9882 N   0  0  0  0  0  0  0  0  0  0  0  0
    8.0529   -2.1007   22.1406 C   0  0  0  0  0  0  0  0  0  0  0  0
    8.5111   -3.4814   22.5440 C   0  0  0  0  0  0  0  0  0  0  0  0
    8.6239   -3.7371   24.0660 C   0  0  0  0  0  0  0  0  0  0  0  0
    8.4483   -5.2625   24.2616 C   0  0  0  0  0  0  0  0  0  0  0  0
    7.9823   -5.8411   22.9056 C   0  0  0  0  0  0  0  0  0  0  0  0
    7.6240   -4.6359   22.0254 C   0  0  0  0  0  0  0  0  0  0  0  0
    6.5704   -4.3625   22.1564 H   0  0  0  0  0  0  0  0  0  0  0  0
    7.7650   -4.8317   20.9569 H   0  0  0  0  0  0  0  0  0  0  0  0
    8.7821   -6.4285   22.4384 H   0  0  0  0  0  0  0  0  0  0  0  0
    7.1367   -6.5267   23.0306 H   0  0  0  0  0  0  0  0  0  0  0  0
    7.7111   -5.4753   25.0458 H   0  0  0  0  0  0  0  0  0  0  0  0
    9.3802   -5.7459   24.5782 H   0  0  0  0  0  0  0  0  0  0  0  0
    9.5823   -3.3749   24.4536 H   0  0  0  0  0  0  0  0  0  0  0  0
    7.8542   -3.1806   24.6085 H   0  0  0  0  0  0  0  0  0  0  0  0
    9.5179   -3.5725   22.1262 H   0  0  0  0  0  0  0  0  0  0  0  0
    7.6400   -1.8227   20.9147 N   0  0  0  0  0  0  0  0  0  0  0  0
    7.3053   -0.5060   20.9955 N   0  0  0  0  0  0  0  0  0  0  0  0
    6.6330    0.1140   19.9009 C   0  0  0  0  0  0  0  0  0  0  0  0
    5.4321    0.8132   20.0868 C   0  0  0  0  0  0  0  0  0  0  0  0
    4.8422    1.4204   18.9738 C   0  0  0  0  0  0  0  0  0  0  0  0
    5.4722    1.3204   17.7312 C   0  0  0  0  0  0  0  0  0  0  0  0
    6.6022    0.6159   17.5385 N   0  0  0  0  0  0  0  0  0  0  0  0
    7.1516    0.0073   18.5961 C   0  0  0  0  0  0  0  0  0  0  0  0
    8.0404   -0.5875   18.3955 H   0  0  0  0  0  0  0  0  0  0  0  0
    5.0467    1.8021   16.8528 H   0  0  0  0  0  0  0  0  0  0  0  0
    3.9081    1.9658   19.0669 H   0  0  0  0  0  0  0  0  0  0  0  0
    4.9638    0.8538   21.0708 H   0  0  0  0  0  0  0  0  0  0  0  0
    7.8644    1.3674   23.7535 H   0  0  0  0  0  0  0  0  0  0  0  0
    6.5517    1.7532   22.6538 H   0  0  0  0  0  0  0  0  0  0  0  0
    9.5617    2.0072   22.0509 H   0  0  0  0  0  0  0  0  0  0  0  0
    8.2976    2.2695   20.8443 H   0  0  0  0  0  0  0  0  0  0  0  0
    9.4388    4.2834   23.1035 N   0  0  0  0  0  0  0  0  0  0  0  0
    9.3864    5.5790   23.4438 C   0  0  0  0  0  0  0  0  0  0  0  0
   10.2030    5.9380   24.0687 H   0  0  0  0  0  0  0  0  0  0  0  0
    6.5452    4.1319   21.3765 H   0  0  0  0  0  0  0  0  0  0  0  0
    6.4534    6.5577   22.0286 H   0  0  0  0  0  0  0  0  0  0  0  0
    8.3933    7.4898   23.3448 H   0  0  0  0  0  0  0  0  0  0  0  0
  1  2  2  0
  2  3  1  0
  3  4  2  0
  4  5  1  0
  5  6  1  0
  6  7  1  0
  7  8  2  0
  8  9  1  0
  9 10  1  0
 10 11  1  0
 11 12  1  0
 12 13  1  0
 13 14  1  0
 14 15  1  0
 14 16  1  0
 13 17  1  0
 13 18  1  0
 12 19  1  0
 12 20  1  0
 11 21  1  0
 11 22  1  0
 10 23  1  0
  9 24  2  0
 24 25  1  0
 25 26  1  0
 26 27  2  0
 27 28  1  0
 28 29  2  0
 29 30  1  0
 30 31  2  0
 31 32  1  0
 29 33  1  0
 28 34  1  0
 27 35  1  0
  6 36  1  0
  6 37  1  0
  5 38  1  0
  5 39  1  0
  4 40  1  0
 40 41  2  0
 41 42  1  0
  3 43  1  0
  2 44  1  0
  1 45  1  0
 41  1  1  0
 25  7  1  0
 31 26  1  0
 14 10  1  0
M  END
>  <cnnaffinity>  (1) 
-6.07331

>  <filename>  (1) 
c1ccc(CCc2nc(C3CCCC3)nn2-c2cccnc2)nc1

$$$$
