
     RDKit          3D

 36 38  0  0  0  0  0  0  0  0999 V2000
    4.9429    1.8281   16.9420 H   0  0  0  0  0  0  0  0  0  0  0  0
    5.4050    1.3184   17.7840 C   0  0  0  0  0  0  0  0  0  0  0  0
    6.5668    0.6942   17.5319 N   0  0  0  0  0  0  0  0  0  0  0  0
    7.1688    0.0934   18.5662 C   0  0  0  0  0  0  0  0  0  0  0  0
    8.1064   -0.4179   18.3402 H   0  0  0  0  0  0  0  0  0  0  0  0
    6.6628    0.0664   19.8803 C   0  0  0  0  0  0  0  0  0  0  0  0
    7.3268   -0.7484   20.9708 C   0  0  0  0  0  0  0  0  0  0  0  0
    6.6759   -2.1508   20.9291 C   0  0  0  0  0  0  0  0  0  0  0  0
    5.5949   -2.0178   21.1217 H   0  0  0  0  0  0  0  0  0  0  0  0
    6.7409   -2.5543   19.9062 H   0  0  0  0  0  0  0  0  0  0  0  0
    7.2766   -3.0498   21.8702 N   0  0  0  0  0  0  0  0  0  0  0  0
    7.9799   -2.6833   22.4867 H   0  0  0  0  0  0  0  0  0  0  0  0
    7.0574   -4.3975   21.9330 C   0  0  0  0  0  0  0  0  0  0  0  0
    7.8448   -5.1387   22.8259 C   0  0  0  0  0  0  0  0  0  0  0  0
    8.6087   -4.6279   23.4036 H   0  0  0  0  0  0  0  0  0  0  0  0
    7.6461   -6.5021   22.9632 C   0  0  0  0  0  0  0  0  0  0  0  0
    8.2917   -7.0048   23.6703 H   0  0  0  0  0  0  0  0  0  0  0  0
    6.6570   -7.1603   22.2205 C   0  0  0  0  0  0  0  0  0  0  0  0
    6.4878   -8.2273   22.3218 H   0  0  0  0  0  0  0  0  0  0  0  0
    5.8621   -6.4134   21.3436 C   0  0  0  0  0  0  0  0  0  0  0  0
    5.0368   -6.8880   20.8240 H   0  0  0  0  0  0  0  0  0  0  0  0
    6.0638   -5.0413   21.1797 C   0  0  0  0  0  0  0  0  0  0  0  0
    5.4567   -4.4584   20.4953 H   0  0  0  0  0  0  0  0  0  0  0  0
    7.3302   -0.1064   22.3990 C   0  0  0  0  0  0  0  0  0  0  0  0
    6.9012    0.8988   22.4382 H   0  0  0  0  0  0  0  0  0  0  0  0
    6.8561   -0.7154   23.1766 H   0  0  0  0  0  0  0  0  0  0  0  0
    8.8740   -0.1151   22.4218 C   0  0  0  0  0  0  0  0  0  0  0  0
    9.3139    0.8839   22.5002 H   0  0  0  0  0  0  0  0  0  0  0  0
    9.3339   -0.7470   23.1922 H   0  0  0  0  0  0  0  0  0  0  0  0
    8.8899   -0.6884   20.9867 C   0  0  0  0  0  0  0  0  0  0  0  0
    9.2954    0.0288   20.2682 H   0  0  0  0  0  0  0  0  0  0  0  0
    9.4101   -1.6438   20.8579 H   0  0  0  0  0  0  0  0  0  0  0  0
    5.4244    0.6870   20.1033 C   0  0  0  0  0  0  0  0  0  0  0  0
    4.9723    0.6521   21.0972 H   0  0  0  0  0  0  0  0  0  0  0  0
    4.7913    1.3307   19.0412 C   0  0  0  0  0  0  0  0  0  0  0  0
    3.8467    1.8462   19.1782 H   0  0  0  0  0  0  0  0  0  0  0  0
  1  2  1  0
  2  3  2  0
  3  4  1  0
  4  5  1  0
  4  6  2  0
  6  7  1  0
  7  8  1  0
  8  9  1  0
  8 10  1  0
  8 11  1  0
 11 12  1  0
 11 13  1  0
 13 14  2  0
 14 15  1  0
 14 16  1  0
 16 17  1  0
 16 18  2  0
 18 19  1  0
 18 20  1  0
 20 21  1  0
 20 22  2  0
 22 23  1  0
  7 24  1  0
 24 25  1  0
 24 26  1  0
 24 27  1  0
 27 28  1  0
 27 29  1  0
 27 30  1  0
 30 31  1  0
 30 32  1  0
  6 33  1  0
 33 34  1  0
 33 35  2  0
 35 36  1  0
 35  2  1  0
 30  7  1  0
 22 13  1  0
M  END
>  <cnnaffinity>  (1) 
-4.93962

>  <filename>  (1) 
c1ccc(NCC2(c3cccnc3)CCC2)cc1

$$$$
