
     RDKit          3D

 39 42  0  0  0  0  0  0  0  0999 V2000
    7.1868    3.7984   23.8089 C   0  0  0  0  0  0  0  0  0  0  0  0
    7.2449    2.7306   24.7073 C   0  0  0  0  0  0  0  0  0  0  0  0
    7.3945    1.4403   24.1958 C   0  0  0  0  0  0  0  0  0  0  0  0
    7.4480    1.2522   22.7968 C   0  0  0  0  0  0  0  0  0  0  0  0
    7.5571   -0.1460   22.2596 C   0  0  0  0  0  0  0  0  0  0  0  0
    8.0214   -1.1783   22.9559 N   0  0  0  0  0  0  0  0  0  0  0  0
    8.0007   -2.2064   22.0837 C   0  0  0  0  0  0  0  0  0  0  0  0
    8.4794   -3.5924   22.4597 C   0  0  0  0  0  0  0  0  0  0  0  0
    8.3619   -3.9673   23.9633 C   0  0  0  0  0  0  0  0  0  0  0  0
    8.2811   -5.5155   24.0212 C   0  0  0  0  0  0  0  0  0  0  0  0
    8.2090   -5.9898   22.5495 C   0  0  0  0  0  0  0  0  0  0  0  0
    7.7683   -4.7597   21.7435 C   0  0  0  0  0  0  0  0  0  0  0  0
    7.9943   -4.8196   20.6703 H   0  0  0  0  0  0  0  0  0  0  0  0
    6.6819   -4.6190   21.8344 H   0  0  0  0  0  0  0  0  0  0  0  0
    7.5355   -6.8423   22.4248 H   0  0  0  0  0  0  0  0  0  0  0  0
    9.1800   -6.3374   22.1872 H   0  0  0  0  0  0  0  0  0  0  0  0
    9.1279   -5.9538   24.5706 H   0  0  0  0  0  0  0  0  0  0  0  0
    7.3715   -5.8241   24.5524 H   0  0  0  0  0  0  0  0  0  0  0  0
    9.2077   -3.5772   24.5412 H   0  0  0  0  0  0  0  0  0  0  0  0
    7.4522   -3.5238   24.3821 H   0  0  0  0  0  0  0  0  0  0  0  0
    9.5497   -3.5891   22.2214 H   0  0  0  0  0  0  0  0  0  0  0  0
    7.5602   -1.8822   20.8810 N   0  0  0  0  0  0  0  0  0  0  0  0
    7.2217   -0.5750   21.0004 N   0  0  0  0  0  0  0  0  0  0  0  0
    6.5472    0.0326   19.8968 C   0  0  0  0  0  0  0  0  0  0  0  0
    5.3090    0.6730   20.0458 C   0  0  0  0  0  0  0  0  0  0  0  0
    4.7600    1.3007   18.9230 C   0  0  0  0  0  0  0  0  0  0  0  0
    5.4544    1.2622   17.7117 C   0  0  0  0  0  0  0  0  0  0  0  0
    6.6110    0.5929   17.5531 N   0  0  0  0  0  0  0  0  0  0  0  0
    7.1222   -0.0356   18.6155 C   0  0  0  0  0  0  0  0  0  0  0  0
    8.0233   -0.6228   18.4380 H   0  0  0  0  0  0  0  0  0  0  0  0
    5.0678    1.7645   16.8272 H   0  0  0  0  0  0  0  0  0  0  0  0
    3.8110    1.8240   18.9782 H   0  0  0  0  0  0  0  0  0  0  0  0
    4.8194    0.7238   21.0190 H   0  0  0  0  0  0  0  0  0  0  0  0
    7.4389    2.2917   21.9356 N   0  0  0  0  0  0  0  0  0  0  0  0
    7.3106    3.5236   22.4420 C   0  0  0  0  0  0  0  0  0  0  0  0
    7.3025    4.3288   21.7123 H   0  0  0  0  0  0  0  0  0  0  0  0
    7.4860    0.5822   24.8533 H   0  0  0  0  0  0  0  0  0  0  0  0
    7.1711    2.8993   25.7828 H   0  0  0  0  0  0  0  0  0  0  0  0
    7.0493    4.8220   24.1407 H   0  0  0  0  0  0  0  0  0  0  0  0
  1  2  2  0
  2  3  1  0
  3  4  2  0
  4  5  1  0
  5  6  2  0
  6  7  1  0
  7  8  1  0
  8  9  1  0
  9 10  1  0
 10 11  1  0
 11 12  1  0
 12 13  1  0
 12 14  1  0
 11 15  1  0
 11 16  1  0
 10 17  1  0
 10 18  1  0
  9 19  1  0
  9 20  1  0
  8 21  1  0
  7 22  2  0
 22 23  1  0
 23 24  1  0
 24 25  2  0
 25 26  1  0
 26 27  2  0
 27 28  1  0
 28 29  2  0
 29 30  1  0
 27 31  1  0
 26 32  1  0
 25 33  1  0
  4 34  1  0
 34 35  2  0
 35 36  1  0
  3 37  1  0
  2 38  1  0
  1 39  1  0
 35  1  1  0
 23  5  1  0
 29 24  1  0
 12  8  1  0
M  END
>  <cnnaffinity>  (1) 
-5.79969

>  <filename>  (1) 
c1ccc(-c2nc(C3CCCC3)nn2-c2cccnc2)nc1

$$$$
