
     RDKit          3D

 39 41  0  0  0  0  0  0  0  0999 V2000
    4.9482    1.8306   16.9690 H   0  0  0  0  0  0  0  0  0  0  0  0
    5.4053    1.3157   17.8124 C   0  0  0  0  0  0  0  0  0  0  0  0
    6.5684    0.6947   17.5679 N   0  0  0  0  0  0  0  0  0  0  0  0
    7.1549    0.0743   18.5982 C   0  0  0  0  0  0  0  0  0  0  0  0
    8.0998   -0.4209   18.3733 H   0  0  0  0  0  0  0  0  0  0  0  0
    6.6313    0.0144   19.9022 C   0  0  0  0  0  0  0  0  0  0  0  0
    7.4140   -0.6903   20.9906 C   0  0  0  0  0  0  0  0  0  0  0  0
    6.8043   -0.7930   21.8960 H   0  0  0  0  0  0  0  0  0  0  0  0
    7.6726   -1.7102   20.6871 H   0  0  0  0  0  0  0  0  0  0  0  0
    8.6563   -0.0046   21.3413 N   0  0  0  0  0  0  0  0  0  0  0  0
    9.9133   -0.2368   20.8612 C   0  0  0  0  0  0  0  0  0  0  0  0
   10.1615   -1.0838   20.2486 H   0  0  0  0  0  0  0  0  0  0  0  0
   10.7531    0.6664   21.2821 N   0  0  0  0  0  0  0  0  0  0  0  0
   10.0505    1.5279   22.0784 N   0  0  0  0  0  0  0  0  0  0  0  0
    8.8048    1.1175   22.1125 C   0  0  0  0  0  0  0  0  0  0  0  0
    7.7014    1.6684   22.9496 C   0  0  0  0  0  0  0  0  0  0  0  0
    7.9171    2.7180   23.1628 H   0  0  0  0  0  0  0  0  0  0  0  0
    6.7798    1.6673   22.3614 H   0  0  0  0  0  0  0  0  0  0  0  0
    7.5000    0.9122   24.2818 C   0  0  0  0  0  0  0  0  0  0  0  0
    6.5911    1.2910   24.7651 H   0  0  0  0  0  0  0  0  0  0  0  0
    7.3232   -0.1560   24.1019 H   0  0  0  0  0  0  0  0  0  0  0  0
    8.6872    1.0860   25.2480 C   0  0  0  0  0  0  0  0  0  0  0  0
    9.6083    0.7294   24.7687 H   0  0  0  0  0  0  0  0  0  0  0  0
    8.5449    0.4603   26.1414 H   0  0  0  0  0  0  0  0  0  0  0  0
    8.8499    2.5331   25.6615 C   0  0  0  0  0  0  0  0  0  0  0  0
    8.0875    3.0330   26.7271 C   0  0  0  0  0  0  0  0  0  0  0  0
    7.3500    2.3816   27.1936 H   0  0  0  0  0  0  0  0  0  0  0  0
    8.2059    4.3600   27.1359 C   0  0  0  0  0  0  0  0  0  0  0  0
    7.5837    4.7340   27.9463 H   0  0  0  0  0  0  0  0  0  0  0  0
    9.0966    5.2139   26.4767 C   0  0  0  0  0  0  0  0  0  0  0  0
    9.2086    6.2428   26.8061 H   0  0  0  0  0  0  0  0  0  0  0  0
    9.8151    4.7528   25.3676 C   0  0  0  0  0  0  0  0  0  0  0  0
   10.4782    5.4207   24.8252 H   0  0  0  0  0  0  0  0  0  0  0  0
    9.6855    3.4184   24.9572 C   0  0  0  0  0  0  0  0  0  0  0  0
   10.2039    3.0623   24.0662 H   0  0  0  0  0  0  0  0  0  0  0  0
    5.4012    0.6476   20.1266 C   0  0  0  0  0  0  0  0  0  0  0  0
    4.9284    0.6375   21.1139 H   0  0  0  0  0  0  0  0  0  0  0  0
    4.7841    1.3122   19.0637 C   0  0  0  0  0  0  0  0  0  0  0  0
    3.8493    1.8392   19.1979 H   0  0  0  0  0  0  0  0  0  0  0  0
  1  2  1  0
  2  3  2  0
  3  4  1  0
  4  5  1  0
  4  6  2  0
  6  7  1  0
  7  8  1  0
  7  9  1  0
  7 10  1  0
 10 11  1  0
 11 12  1  0
 11 13  2  0
 13 14  1  0
 14 15  2  0
 15 16  1  0
 16 17  1  0
 16 18  1  0
 16 19  1  0
 19 20  1  0
 19 21  1  0
 19 22  1  0
 22 23  1  0
 22 24  1  0
 22 25  1  0
 25 26  2  0
 26 27  1  0
 26 28  1  0
 28 29  1  0
 28 30  2  0
 30 31  1  0
 30 32  1  0
 32 33  1  0
 32 34  2  0
 34 35  1  0
  6 36  1  0
 36 37  1  0
 36 38  2  0
 38 39  1  0
 38  2  1  0
 15 10  1  0
 34 25  1  0
M  END
>  <cnnaffinity>  (1) 
-4.98396

>  <filename>  (1) 
c1ccc(CCCc2nncn2Cc2cccnc2)cc1

$$$$
