
     RDKit          3D

 43 47  0  0  0  0  0  0  0  0999 V2000
    7.0204   -4.8705   25.5873 C   0  0  0  0  0  0  0  0  0  0  0  0
    8.2548   -4.2279   25.5479 C   0  0  0  0  0  0  0  0  0  0  0  0
    8.5016   -3.2642   24.5740 C   0  0  0  0  0  0  0  0  0  0  0  0
    7.4752   -2.9690   23.6492 C   0  0  0  0  0  0  0  0  0  0  0  0
    7.6911   -1.9301   22.5724 C   0  0  0  0  0  0  0  0  0  0  0  0
    6.7611   -1.5987   21.6897 N   0  0  0  0  0  0  0  0  0  0  0  0
    7.3683   -0.6567   20.9360 N   0  0  0  0  0  0  0  0  0  0  0  0
    6.6570    0.0061   19.9007 C   0  0  0  0  0  0  0  0  0  0  0  0
    5.4427    0.6505   20.1593 C   0  0  0  0  0  0  0  0  0  0  0  0
    4.8052    1.3136   19.1123 C   0  0  0  0  0  0  0  0  0  0  0  0
    5.3971    1.2918   17.8467 C   0  0  0  0  0  0  0  0  0  0  0  0
    6.5698    0.6848   17.5904 N   0  0  0  0  0  0  0  0  0  0  0  0
    7.1829    0.0589   18.6011 C   0  0  0  0  0  0  0  0  0  0  0  0
    8.1329   -0.4401   18.3827 H   0  0  0  0  0  0  0  0  0  0  0  0
    4.9038    1.7704   17.0071 H   0  0  0  0  0  0  0  0  0  0  0  0
    3.8737    1.8441   19.2689 H   0  0  0  0  0  0  0  0  0  0  0  0
    5.0127    0.6203   21.1582 H   0  0  0  0  0  0  0  0  0  0  0  0
    8.6298   -0.4549   21.4123 C   0  0  0  0  0  0  0  0  0  0  0  0
    9.5637    0.5483   20.9312 C   0  0  0  0  0  0  0  0  0  0  0  0
    9.0127    1.8688   21.2608 C   0  0  0  0  0  0  0  0  0  0  0  0
    8.5932    2.8192   20.4638 C   0  0  0  0  0  0  0  0  0  0  0  0
    8.1415    3.7384   22.1294 N   0  0  0  0  0  0  0  0  0  0  0  0
    8.1417    3.7382   22.1295 C   0  0  0  0  0  0  0  0  0  0  0  0
    7.8007    4.6432   23.3534 C   0  0  0  0  0  0  0  0  0  0  0  0
    8.2660    6.0444   23.4387 C   0  0  0  0  0  0  0  0  0  0  0  0
    8.7928    5.0089   24.4118 C   0  0  0  0  0  0  0  0  0  0  0  0
    9.7924    4.6010   24.1612 H   0  0  0  0  0  0  0  0  0  0  0  0
    8.4642    5.1222   25.4065 H   0  0  0  0  0  0  0  0  0  0  0  0
    7.5920    6.7599   23.7896 H   0  0  0  0  0  0  0  0  0  0  0  0
    8.9354    6.2353   22.5614 H   0  0  0  0  0  0  0  0  0  0  0  0
    6.7182    4.4168   23.7812 H   0  0  0  0  0  0  0  0  0  0  0  0
    8.7832    2.4106   22.5042 N   0  0  0  0  0  0  0  0  0  0  0  0
    8.9404    2.0306   23.3864 H   0  0  0  0  0  0  0  0  0  0  0  0
    8.3505    2.5384   19.3835 H   0  0  0  0  0  0  0  0  0  0  0  0
    9.6951    0.5226   19.8408 H   0  0  0  0  0  0  0  0  0  0  0  0
   10.5010    0.5144   21.4341 H   0  0  0  0  0  0  0  0  0  0  0  0
    8.8633   -1.2304   22.4274 N   0  0  0  0  0  0  0  0  0  0  0  0
    6.2781   -3.6028   23.6949 N   0  0  0  0  0  0  0  0  0  0  0  0
    6.0595   -4.5215   24.6375 C   0  0  0  0  0  0  0  0  0  0  0  0
    5.0815   -5.0132   24.6481 H   0  0  0  0  0  0  0  0  0  0  0  0
    9.4622   -2.7565   24.5353 H   0  0  0  0  0  0  0  0  0  0  0  0
    9.0223   -4.4757   26.2719 H   0  0  0  0  0  0  0  0  0  0  0  0
    6.8088   -5.6232   26.3372 H   0  0  0  0  0  0  0  0  0  0  0  0
  1  2  2  0
  2  3  1  0
  3  4  2  0
  4  5  1  0
  5  6  2  0
  6  7  1  0
  7  8  1  0
  8  9  2  0
  9 10  1  0
 10 11  2  0
 11 12  1  0
 12 13  2  0
 13 14  1  0
 11 15  1  0
 10 16  1  0
  9 17  1  0
  7 18  1  0
 18 19  1  0
 19 20  1  0
 20 21  2  0
 21 22  1  0
 22 23  2  0
 23 24  1  0
 24 25  1  0
 25 26  1  0
 26 27  1  0
 26 28  1  0
 25 29  1  0
 25 30  1  0
 24 31  1  0
 23 32  1  0
 32 33  1  0
 21 34  1  0
 19 35  1  0
 19 36  1  0
 18 37  2  0
  4 38  1  0
 38 39  2  0
 39 40  1  0
  3 41  1  0
  2 42  1  0
  1 43  1  0
 39  1  1  0
 37  5  1  0
 13  8  1  0
 32 20  1  0
 26 24  1  0
M  END
>  <cnnaffinity>  (1) 
-6.05463

>  <filename>  (1) 
c1ccc(-c2nc(Cc3cnc(C4CC4)[nH]3)n(-c3cccnc3)n2)nc1

$$$$
