
     RDKit          3D

 42 45  0  0  0  0  0  0  0  0999 V2000
   12.4742    1.5338   23.5969 C   0  0  0  0  0  0  0  0  0  0  0  0
   11.2664    2.2269   23.4898 C   0  0  0  0  0  0  0  0  0  0  0  0
   10.3634    1.7994   22.5158 C   0  0  0  0  0  0  0  0  0  0  0  0
   10.6889    0.7076   21.6945 C   0  0  0  0  0  0  0  0  0  0  0  0
    9.6815    0.2135   20.6970 C   0  0  0  0  0  0  0  0  0  0  0  0
    8.6438   -0.6199   21.3417 C   0  0  0  0  0  0  0  0  0  0  0  0
    8.8557   -1.4649   22.3217 N   0  0  0  0  0  0  0  0  0  0  0  0
    7.6235   -1.9947   22.5449 C   0  0  0  0  0  0  0  0  0  0  0  0
    7.3907   -2.9783   23.6462 C   0  0  0  0  0  0  0  0  0  0  0  0
    8.2466   -4.2582   23.5287 C   0  0  0  0  0  0  0  0  0  0  0  0
    8.3401   -4.8245   24.9579 C   0  0  0  0  0  0  0  0  0  0  0  0
    8.0189   -3.6566   25.9249 C   0  0  0  0  0  0  0  0  0  0  0  0
    7.7237   -2.4232   25.0506 C   0  0  0  0  0  0  0  0  0  0  0  0
    6.9034   -1.8148   25.4486 H   0  0  0  0  0  0  0  0  0  0  0  0
    8.6033   -1.7706   24.9890 H   0  0  0  0  0  0  0  0  0  0  0  0
    8.8466   -3.4589   26.6136 H   0  0  0  0  0  0  0  0  0  0  0  0
    7.1590   -3.9099   26.5553 H   0  0  0  0  0  0  0  0  0  0  0  0
    9.3314   -5.2487   25.1473 H   0  0  0  0  0  0  0  0  0  0  0  0
    7.6295   -5.6459   25.1048 H   0  0  0  0  0  0  0  0  0  0  0  0
    9.2421   -4.0016   23.1473 H   0  0  0  0  0  0  0  0  0  0  0  0
    7.8074   -4.9732   22.8240 H   0  0  0  0  0  0  0  0  0  0  0  0
    6.3296   -3.2389   23.6010 H   0  0  0  0  0  0  0  0  0  0  0  0
    6.6783   -1.5508   21.7440 N   0  0  0  0  0  0  0  0  0  0  0  0
    7.3401   -0.6829   20.9350 N   0  0  0  0  0  0  0  0  0  0  0  0
    6.6535    0.0064   19.9005 C   0  0  0  0  0  0  0  0  0  0  0  0
    5.4374    0.6464   20.1649 C   0  0  0  0  0  0  0  0  0  0  0  0
    4.8124    1.3118   19.1087 C   0  0  0  0  0  0  0  0  0  0  0  0
    5.4002    1.2956   17.8367 C   0  0  0  0  0  0  0  0  0  0  0  0
    6.5584    0.6718   17.5753 N   0  0  0  0  0  0  0  0  0  0  0  0
    7.1665    0.0516   18.5918 C   0  0  0  0  0  0  0  0  0  0  0  0
    8.1139   -0.4302   18.3640 H   0  0  0  0  0  0  0  0  0  0  0  0
    4.9212    1.7853   16.9930 H   0  0  0  0  0  0  0  0  0  0  0  0
    3.8803    1.8402   19.2601 H   0  0  0  0  0  0  0  0  0  0  0  0
    5.0165    0.6094   21.1727 H   0  0  0  0  0  0  0  0  0  0  0  0
    9.2121    1.0613   20.1964 H   0  0  0  0  0  0  0  0  0  0  0  0
   10.1517   -0.4350   19.9564 H   0  0  0  0  0  0  0  0  0  0  0  0
   11.8473    0.0524   21.7879 N   0  0  0  0  0  0  0  0  0  0  0  0
   12.7113    0.4653   22.7280 C   0  0  0  0  0  0  0  0  0  0  0  0
   13.6406   -0.0959   22.7926 H   0  0  0  0  0  0  0  0  0  0  0  0
    9.4055    2.2852   22.3821 H   0  0  0  0  0  0  0  0  0  0  0  0
   11.0327    3.0688   24.1447 H   0  0  0  0  0  0  0  0  0  0  0  0
   13.2219    1.8077   24.3302 H   0  0  0  0  0  0  0  0  0  0  0  0
  1  2  2  0
  2  3  1  0
  3  4  2  0
  4  5  1  0
  5  6  1  0
  6  7  2  0
  7  8  1  0
  8  9  1  0
  9 10  1  0
 10 11  1  0
 11 12  1  0
 12 13  1  0
 13 14  1  0
 13 15  1  0
 12 16  1  0
 12 17  1  0
 11 18  1  0
 11 19  1  0
 10 20  1  0
 10 21  1  0
  9 22  1  0
  8 23  2  0
 23 24  1  0
 24 25  1  0
 25 26  2  0
 26 27  1  0
 27 28  2  0
 28 29  1  0
 29 30  2  0
 30 31  1  0
 28 32  1  0
 27 33  1  0
 26 34  1  0
  5 35  1  0
  5 36  1  0
  4 37  1  0
 37 38  2  0
 38 39  1  0
  3 40  1  0
  2 41  1  0
  1 42  1  0
 38  1  1  0
 24  6  1  0
 30 25  1  0
 13  9  1  0
M  END
>  <cnnaffinity>  (1) 
-6.52736

>  <filename>  (1) 
c1ccc(Cc2nc(C3CCCC3)nn2-c2cccnc2)nc1

$$$$
