
     RDKit          3D

 35 37  0  0  0  0  0  0  0  0999 V2000
    4.9197    1.7801   16.9968 H   0  0  0  0  0  0  0  0  0  0  0  0
    5.4016    1.2946   17.8400 C   0  0  0  0  0  0  0  0  0  0  0  0
    6.5670    0.6814   17.5796 N   0  0  0  0  0  0  0  0  0  0  0  0
    7.1672    0.0595   18.5942 C   0  0  0  0  0  0  0  0  0  0  0  0
    8.1130   -0.4341   18.3804 H   0  0  0  0  0  0  0  0  0  0  0  0
    6.6493    0.0218   19.8961 C   0  0  0  0  0  0  0  0  0  0  0  0
    7.3957   -0.7276   20.9096 C   0  0  0  0  0  0  0  0  0  0  0  0
    7.8978   -1.9221   20.7441 N   0  0  0  0  0  0  0  0  0  0  0  0
    8.4923   -2.2945   21.9225 N   0  0  0  0  0  0  0  0  0  0  0  0
    8.3459   -1.3005   22.7503 C   0  0  0  0  0  0  0  0  0  0  0  0
    8.7255   -1.2681   23.7644 H   0  0  0  0  0  0  0  0  0  0  0  0
    7.6536   -0.2673   22.1775 N   0  0  0  0  0  0  0  0  0  0  0  0
    7.3641    1.0331   22.8032 C   0  0  0  0  0  0  0  0  0  0  0  0
    8.2941    1.4308   23.2194 H   0  0  0  0  0  0  0  0  0  0  0  0
    7.0503    1.7372   22.0305 H   0  0  0  0  0  0  0  0  0  0  0  0
    6.3090    0.9352   23.9124 C   0  0  0  0  0  0  0  0  0  0  0  0
    5.4079    0.4698   23.5066 H   0  0  0  0  0  0  0  0  0  0  0  0
    6.6794    0.2502   24.6852 H   0  0  0  0  0  0  0  0  0  0  0  0
    5.9703    2.2193   24.4876 N   0  0  0  0  0  0  0  0  0  0  0  0
    6.4302    3.0466   24.1494 H   0  0  0  0  0  0  0  0  0  0  0  0
    5.0459    2.4110   25.4977 C   0  0  0  0  0  0  0  0  0  0  0  0
    4.3340    1.3372   26.0708 C   0  0  0  0  0  0  0  0  0  0  0  0
    4.5156    0.3287   25.7151 H   0  0  0  0  0  0  0  0  0  0  0  0
    3.4044    1.5624   27.0880 C   0  0  0  0  0  0  0  0  0  0  0  0
    2.8701    0.7195   27.5148 H   0  0  0  0  0  0  0  0  0  0  0  0
    3.1571    2.8532   27.5607 C   0  0  0  0  0  0  0  0  0  0  0  0
    2.4313    3.0210   28.3543 H   0  0  0  0  0  0  0  0  0  0  0  0
    3.8603    3.9247   26.9962 C   0  0  0  0  0  0  0  0  0  0  0  0
    3.6747    4.9325   27.3573 H   0  0  0  0  0  0  0  0  0  0  0  0
    4.7939    3.7161   25.9787 C   0  0  0  0  0  0  0  0  0  0  0  0
    5.3305    4.5595   25.5502 H   0  0  0  0  0  0  0  0  0  0  0  0
    5.4321    0.6639   20.1575 C   0  0  0  0  0  0  0  0  0  0  0  0
    4.9912    0.6366   21.1607 H   0  0  0  0  0  0  0  0  0  0  0  0
    4.7966    1.3136   19.1026 C   0  0  0  0  0  0  0  0  0  0  0  0
    3.8664    1.8471   19.2580 H   0  0  0  0  0  0  0  0  0  0  0  0
  1  2  1  0
  2  3  2  0
  3  4  1  0
  4  5  1  0
  4  6  2  0
  6  7  1  0
  7  8  2  0
  8  9  1  0
  9 10  2  0
 10 11  1  0
 10 12  1  0
 12 13  1  0
 13 14  1  0
 13 15  1  0
 13 16  1  0
 16 17  1  0
 16 18  1  0
 16 19  1  0
 19 20  1  0
 19 21  1  0
 21 22  2  0
 22 23  1  0
 22 24  1  0
 24 25  1  0
 24 26  2  0
 26 27  1  0
 26 28  1  0
 28 29  1  0
 28 30  2  0
 30 31  1  0
  6 32  1  0
 32 33  1  0
 32 34  2  0
 34 35  1  0
 34  2  1  0
 12  7  1  0
 30 21  1  0
M  END
>  <cnnaffinity>  (1) 
-4.74734

>  <filename>  (1) 
c1ccc(NCCn2cnnc2-c2cccnc2)cc1

$$$$
