
     RDKit          3D

 45 48  0  0  0  0  0  0  0  0999 V2000
   13.8674   -0.6686   22.3629 C   0  0  0  0  0  0  0  0  0  0  0  0
   13.0755   -1.7500   21.9671 C   0  0  0  0  0  0  0  0  0  0  0  0
   11.6858   -1.6168   21.8879 C   0  0  0  0  0  0  0  0  0  0  0  0
   11.0664   -0.4008   22.2443 C   0  0  0  0  0  0  0  0  0  0  0  0
    9.5805   -0.2739   22.2659 C   0  0  0  0  0  0  0  0  0  0  0  0
    8.7657   -1.0530   21.5718 N   0  0  0  0  0  0  0  0  0  0  0  0
    7.5333   -0.5615   21.8453 N   0  0  0  0  0  0  0  0  0  0  0  0
    6.3904   -1.0221   21.0562 C   0  0  0  0  0  0  0  0  0  0  0  0
    6.0663   -0.1294   19.8746 C   0  0  0  0  0  0  0  0  0  0  0  0
    4.8799    0.6023   19.7533 C   0  0  0  0  0  0  0  0  0  0  0  0
    4.7133    1.4342   18.6424 C   0  0  0  0  0  0  0  0  0  0  0  0
    5.7395    1.5026   17.6974 C   0  0  0  0  0  0  0  0  0  0  0  0
    6.8715    0.7872   17.7821 N   0  0  0  0  0  0  0  0  0  0  0  0
    7.0198    0.0032   18.8541 C   0  0  0  0  0  0  0  0  0  0  0  0
    7.9492   -0.5671   18.9192 H   0  0  0  0  0  0  0  0  0  0  0  0
    5.6646    2.1729   16.8425 H   0  0  0  0  0  0  0  0  0  0  0  0
    3.8212    2.0354   18.5041 H   0  0  0  0  0  0  0  0  0  0  0  0
    4.1027    0.5335   20.5180 H   0  0  0  0  0  0  0  0  0  0  0  0
    6.6383   -2.0391   20.7340 H   0  0  0  0  0  0  0  0  0  0  0  0
    5.5258   -1.0903   21.7128 H   0  0  0  0  0  0  0  0  0  0  0  0
    7.6549    0.4943   22.6880 C   0  0  0  0  0  0  0  0  0  0  0  0
    6.5644    1.3337   23.2903 C   0  0  0  0  0  0  0  0  0  0  0  0
    6.5436    1.2366   24.8374 C   0  0  0  0  0  0  0  0  0  0  0  0
    5.5257    2.1110   25.5298 C   0  0  0  0  0  0  0  0  0  0  0  0
    4.1553    1.8246   25.4509 C   0  0  0  0  0  0  0  0  0  0  0  0
    3.2492    2.6312   26.1430 C   0  0  0  0  0  0  0  0  0  0  0  0
    3.6104    3.6767   26.8981 N   0  0  0  0  0  0  0  0  0  0  0  0
    4.9204    3.9395   26.9872 C   0  0  0  0  0  0  0  0  0  0  0  0
    5.9033    3.1940   26.3313 C   0  0  0  0  0  0  0  0  0  0  0  0
    6.9502    3.4489   26.4555 H   0  0  0  0  0  0  0  0  0  0  0  0
    5.2064    4.7796   27.6203 H   0  0  0  0  0  0  0  0  0  0  0  0
    2.1800    2.4252   26.0970 H   0  0  0  0  0  0  0  0  0  0  0  0
    3.7949    0.9720   24.8852 H   0  0  0  0  0  0  0  0  0  0  0  0
    6.3488    0.1962   25.1247 H   0  0  0  0  0  0  0  0  0  0  0  0
    7.5473    1.4706   25.2164 H   0  0  0  0  0  0  0  0  0  0  0  0
    6.7852    2.3697   23.0134 H   0  0  0  0  0  0  0  0  0  0  0  0
    5.5852    1.0973   22.8520 H   0  0  0  0  0  0  0  0  0  0  0  0
    8.9311    0.6929   22.9661 N   0  0  0  0  0  0  0  0  0  0  0  0
   11.8808    0.6966   22.5879 C   0  0  0  0  0  0  0  0  0  0  0  0
   13.2677    0.5576   22.6557 C   0  0  0  0  0  0  0  0  0  0  0  0
   13.8695    1.4106   22.9461 H   0  0  0  0  0  0  0  0  0  0  0  0
   11.4286    1.6681   22.7780 H   0  0  0  0  0  0  0  0  0  0  0  0
   11.0634   -2.4424   21.5577 H   0  0  0  0  0  0  0  0  0  0  0  0
   13.5540   -2.6932   21.7380 H   0  0  0  0  0  0  0  0  0  0  0  0
   14.9393   -0.7959   22.4525 H   0  0  0  0  0  0  0  0  0  0  0  0
  1  2  2  0
  2  3  1  0
  3  4  2  0
  4  5  1  0
  5  6  2  0
  6  7  1  0
  7  8  1  0
  8  9  1  0
  9 10  2  0
 10 11  1  0
 11 12  2  0
 12 13  1  0
 13 14  2  0
 14 15  1  0
 12 16  1  0
 11 17  1  0
 10 18  1  0
  8 19  1  0
  8 20  1  0
  7 21  1  0
 21 22  1  0
 22 23  1  0
 23 24  1  0
 24 25  2  0
 25 26  1  0
 26 27  2  0
 27 28  1  0
 28 29  2  0
 29 30  1  0
 28 31  1  0
 26 32  1  0
 25 33  1  0
 23 34  1  0
 23 35  1  0
 22 36  1  0
 22 37  1  0
 21 38  2  0
  4 39  1  0
 39 40  2  0
 40 41  1  0
 39 42  1  0
  3 43  1  0
  2 44  1  0
  1 45  1  0
 40  1  1  0
 38  5  1  0
 14  9  1  0
 29 24  1  0
M  END
>  <cnnaffinity>  (1) 
-5.95378

>  <filename>  (1) 
c1ccc(-c2nc(CCc3ccncc3)n(Cc3cccnc3)n2)cc1

$$$$
