
     RDKit          3D

 32 35  0  0  0  0  0  0  0  0999 V2000
    4.9988    1.8341   17.2544 H   0  0  0  0  0  0  0  0  0  0  0  0
    5.4856    1.1941   17.9894 C   0  0  0  0  0  0  0  0  0  0  0  0
    6.5915    0.5543   17.5756 N   0  0  0  0  0  0  0  0  0  0  0  0
    7.2468   -0.1917   18.4719 C   0  0  0  0  0  0  0  0  0  0  0  0
    8.1480   -0.6899   18.1044 H   0  0  0  0  0  0  0  0  0  0  0  0
    6.8359   -0.3485   19.8156 C   0  0  0  0  0  0  0  0  0  0  0  0
    7.7053   -1.0076   20.7988 C   0  0  0  0  0  0  0  0  0  0  0  0
    9.0533   -0.8675   21.0313 C   0  0  0  0  0  0  0  0  0  0  0  0
    9.7207   -0.2649   20.4274 H   0  0  0  0  0  0  0  0  0  0  0  0
    9.4721   -1.5161   22.1646 N   0  0  0  0  0  0  0  0  0  0  0  0
    8.3662   -2.0330   22.6341 C   0  0  0  0  0  0  0  0  0  0  0  0
    7.8925   -2.8536   24.0986 S   0  0  0  0  0  0  0  0  0  0  0  0
    6.2528   -2.7314   23.5032 C   0  0  0  0  0  0  0  0  0  0  0  0
    5.1330   -3.0955   24.1714 N   0  0  0  0  0  0  0  0  0  0  0  0
    4.3784   -2.5542   23.7734 H   0  0  0  0  0  0  0  0  0  0  0  0
    4.8987   -3.9180   25.2845 C   0  0  0  0  0  0  0  0  0  0  0  0
    4.0428   -3.4449   26.2884 C   0  0  0  0  0  0  0  0  0  0  0  0
    3.6503   -2.4369   26.2014 H   0  0  0  0  0  0  0  0  0  0  0  0
    3.7022   -4.2645   27.3719 C   0  0  0  0  0  0  0  0  0  0  0  0
    3.0441   -3.8838   28.1492 H   0  0  0  0  0  0  0  0  0  0  0  0
    4.2060   -5.5679   27.4556 C   0  0  0  0  0  0  0  0  0  0  0  0
    3.9572   -6.2034   28.3055 H   0  0  0  0  0  0  0  0  0  0  0  0
    5.0495   -6.0434   26.4451 C   0  0  0  0  0  0  0  0  0  0  0  0
    5.4367   -7.0596   26.4971 H   0  0  0  0  0  0  0  0  0  0  0  0
    5.4041   -5.2214   25.3662 C   0  0  0  0  0  0  0  0  0  0  0  0
    6.0378   -5.5914   24.5672 H   0  0  0  0  0  0  0  0  0  0  0  0
    6.0627   -2.1597   22.3437 N   0  0  0  0  0  0  0  0  0  0  0  0
    7.2755   -1.7880   21.8603 N   0  0  0  0  0  0  0  0  0  0  0  0
    5.6238    0.2543   20.1979 C   0  0  0  0  0  0  0  0  0  0  0  0
    5.2325    0.0805   21.2005 H   0  0  0  0  0  0  0  0  0  0  0  0
    4.9583    1.0623   19.2789 C   0  0  0  0  0  0  0  0  0  0  0  0
    4.0545    1.5992   19.5462 H   0  0  0  0  0  0  0  0  0  0  0  0
  1  2  1  0
  2  3  2  0
  3  4  1  0
  4  5  1  0
  4  6  2  0
  6  7  1  0
  7  8  2  0
  8  9  1  0
  8 10  1  0
 10 11  2  0
 11 12  1  0
 12 13  1  0
 13 14  1  0
 14 15  1  0
 14 16  1  0
 16 17  2  0
 17 18  1  0
 17 19  1  0
 19 20  1  0
 19 21  2  0
 21 22  1  0
 21 23  1  0
 23 24  1  0
 23 25  2  0
 25 26  1  0
 13 27  2  0
 27 28  1  0
  6 29  1  0
 29 30  1  0
 29 31  2  0
 31 32  1  0
 31  2  1  0
 28  7  1  0
 28 11  1  0
 25 16  1  0
M  END
>  <cnnaffinity>  (1) 
-5.06163

>  <filename>  (1) 
c1ccc(Nc2nn3c(-c4cccnc4)cnc3s2)cc1

$$$$
