
     RDKit          3D

 44 47  0  0  0  0  0  0  0  0999 V2000
    7.0478    4.0934   24.9899 C   0  0  0  0  0  0  0  0  0  0  0  0
    8.2955    3.4811   25.1460 C   0  0  0  0  0  0  0  0  0  0  0  0
    8.4192    2.0884   25.0697 C   0  0  0  0  0  0  0  0  0  0  0  0
    7.2826    1.2940   24.8387 C   0  0  0  0  0  0  0  0  0  0  0  0
    7.3846   -0.1343   24.7431 N   0  0  0  0  0  0  0  0  0  0  0  0
    6.5661   -0.9720   25.4477 N   0  0  0  0  0  0  0  0  0  0  0  0
    6.9533   -2.1643   25.0522 C   0  0  0  0  0  0  0  0  0  0  0  0
    6.3212   -3.4293   25.5262 C   0  0  0  0  0  0  0  0  0  0  0  0
    5.6059   -4.2413   24.4045 C   0  0  0  0  0  0  0  0  0  0  0  0
    6.6843   -5.6828   24.6760 S   0  0  0  0  0  0  0  0  0  0  0  0
    7.3174   -4.5454   25.9534 C   0  0  0  0  0  0  0  0  0  0  0  0
    8.3752   -4.2988   25.8127 H   0  0  0  0  0  0  0  0  0  0  0  0
    7.1696   -4.9274   26.9691 H   0  0  0  0  0  0  0  0  0  0  0  0
    5.7094   -3.8213   23.3980 H   0  0  0  0  0  0  0  0  0  0  0  0
    4.5508   -4.4603   24.5962 H   0  0  0  0  0  0  0  0  0  0  0  0
    5.6415   -3.1511   26.3292 H   0  0  0  0  0  0  0  0  0  0  0  0
    7.9436   -2.1679   24.1244 N   0  0  0  0  0  0  0  0  0  0  0  0
    8.1912   -0.8853   23.9375 C   0  0  0  0  0  0  0  0  0  0  0  0
    9.0956   -0.3264   22.8831 C   0  0  0  0  0  0  0  0  0  0  0  0
    8.3186    0.3258   21.7265 C   0  0  0  0  0  0  0  0  0  0  0  0
    7.4066   -0.6749   20.9998 C   0  0  0  0  0  0  0  0  0  0  0  0
    6.6413   -0.0122   19.8885 C   0  0  0  0  0  0  0  0  0  0  0  0
    5.4314    0.6458   20.1433 C   0  0  0  0  0  0  0  0  0  0  0  0
    4.7986    1.3138   19.0939 C   0  0  0  0  0  0  0  0  0  0  0  0
    5.3951    1.3006   17.8275 C   0  0  0  0  0  0  0  0  0  0  0  0
    6.5586    0.6882   17.5615 N   0  0  0  0  0  0  0  0  0  0  0  0
    7.1571    0.0611   18.5836 C   0  0  0  0  0  0  0  0  0  0  0  0
    8.1086   -0.4171   18.3535 H   0  0  0  0  0  0  0  0  0  0  0  0
    4.9159    1.7928   16.9850 H   0  0  0  0  0  0  0  0  0  0  0  0
    3.8697    1.8476   19.2486 H   0  0  0  0  0  0  0  0  0  0  0  0
    5.0120    0.6372   21.1549 H   0  0  0  0  0  0  0  0  0  0  0  0
    6.7100   -1.1286   21.7204 H   0  0  0  0  0  0  0  0  0  0  0  0
    8.0150   -1.5018   20.6078 H   0  0  0  0  0  0  0  0  0  0  0  0
    9.0210    0.7614   21.0055 H   0  0  0  0  0  0  0  0  0  0  0  0
    7.7199    1.1651   22.1056 H   0  0  0  0  0  0  0  0  0  0  0  0
    9.7918    0.3966   23.3183 H   0  0  0  0  0  0  0  0  0  0  0  0
    9.7039   -1.1521   22.4986 H   0  0  0  0  0  0  0  0  0  0  0  0
    6.0280    1.9067   24.6888 C   0  0  0  0  0  0  0  0  0  0  0  0
    5.9165    3.3001   24.7618 C   0  0  0  0  0  0  0  0  0  0  0  0
    4.9408    3.7691   24.6522 H   0  0  0  0  0  0  0  0  0  0  0  0
    5.1555    1.2780   24.5324 H   0  0  0  0  0  0  0  0  0  0  0  0
    9.3873    1.6163   25.2129 H   0  0  0  0  0  0  0  0  0  0  0  0
    9.1819    4.0845   25.3238 H   0  0  0  0  0  0  0  0  0  0  0  0
    6.9565    5.1779   25.0465 H   0  0  0  0  0  0  0  0  0  0  0  0
  1  2  2  0
  2  3  1  0
  3  4  2  0
  4  5  1  0
  5  6  1  0
  6  7  2  0
  7  8  1  0
  8  9  1  0
  9 10  1  0
 10 11  1  0
 11 12  1  0
 11 13  1  0
  9 14  1  0
  9 15  1  0
  8 16  1  0
  7 17  1  0
 17 18  2  0
 18 19  1  0
 19 20  1  0
 20 21  1  0
 21 22  1  0
 22 23  2  0
 23 24  1  0
 24 25  2  0
 25 26  1  0
 26 27  2  0
 27 28  1  0
 25 29  1  0
 24 30  1  0
 23 31  1  0
 21 32  1  0
 21 33  1  0
 20 34  1  0
 20 35  1  0
 19 36  1  0
 19 37  1  0
  4 38  1  0
 38 39  2  0
 39 40  1  0
 38 41  1  0
  3 42  1  0
  2 43  1  0
  1 44  1  0
 39  1  1  0
 18  5  1  0
 27 22  1  0
 11  8  1  0
M  END
>  <cnnaffinity>  (1) 
-5.55209

>  <filename>  (1) 
c1ccc(-n2nc(C3CSC3)nc2CCCc2cccnc2)cc1

$$$$
