
     RDKit          3D

 48 51  0  0  0  0  0  0  0  0999 V2000
    7.6489    5.0645   25.3793 C   0  0  0  0  0  0  0  0  0  0  0  0
    8.0419    3.8262   25.9033 C   0  0  0  0  0  0  0  0  0  0  0  0
    8.4815    2.8015   25.0630 C   0  0  0  0  0  0  0  0  0  0  0  0
    8.5347    3.0079   23.6685 C   0  0  0  0  0  0  0  0  0  0  0  0
    8.9852    1.9525   22.9332 O   0  0  0  0  0  0  0  0  0  0  0  0
    9.0409    2.0146   21.5115 C   0  0  0  0  0  0  0  0  0  0  0  0
    9.5101    0.6497   21.0082 C   0  0  0  0  0  0  0  0  0  0  0  0
    8.6251   -0.4529   21.4484 C   0  0  0  0  0  0  0  0  0  0  0  0
    8.8685   -1.2974   22.4290 N   0  0  0  0  0  0  0  0  0  0  0  0
    7.6898   -1.9550   22.5586 C   0  0  0  0  0  0  0  0  0  0  0  0
    7.4337   -2.9350   23.6710 C   0  0  0  0  0  0  0  0  0  0  0  0
    6.8521   -4.2691   23.1499 C   0  0  0  0  0  0  0  0  0  0  0  0
    6.4614   -5.1806   24.3121 C   0  0  0  0  0  0  0  0  0  0  0  0
    5.5666   -4.5407   25.2052 O   0  0  0  0  0  0  0  0  0  0  0  0
    6.1368   -3.3897   25.8051 C   0  0  0  0  0  0  0  0  0  0  0  0
    6.5082   -2.3351   24.7647 C   0  0  0  0  0  0  0  0  0  0  0  0
    5.5907   -1.9723   24.2954 H   0  0  0  0  0  0  0  0  0  0  0  0
    6.9843   -1.4747   25.2522 H   0  0  0  0  0  0  0  0  0  0  0  0
    7.0344   -3.6763   26.3802 H   0  0  0  0  0  0  0  0  0  0  0  0
    5.3911   -3.0089   26.5079 H   0  0  0  0  0  0  0  0  0  0  0  0
    7.3677   -5.4963   24.8592 H   0  0  0  0  0  0  0  0  0  0  0  0
    5.9499   -6.0784   23.9569 H   0  0  0  0  0  0  0  0  0  0  0  0
    7.5746   -4.7784   22.5002 H   0  0  0  0  0  0  0  0  0  0  0  0
    5.9633   -4.0526   22.5458 H   0  0  0  0  0  0  0  0  0  0  0  0
    8.4186   -3.1138   24.1153 H   0  0  0  0  0  0  0  0  0  0  0  0
    6.7575   -1.6067   21.6897 N   0  0  0  0  0  0  0  0  0  0  0  0
    7.3716   -0.6513   20.9478 N   0  0  0  0  0  0  0  0  0  0  0  0
    6.6607    0.0118   19.9046 C   0  0  0  0  0  0  0  0  0  0  0  0
    5.4387    0.6402   20.1697 C   0  0  0  0  0  0  0  0  0  0  0  0
    4.8141    1.3077   19.1098 C   0  0  0  0  0  0  0  0  0  0  0  0
    5.4013    1.2965   17.8370 C   0  0  0  0  0  0  0  0  0  0  0  0
    6.5582    0.6706   17.5730 N   0  0  0  0  0  0  0  0  0  0  0  0
    7.1660    0.0515   18.5919 C   0  0  0  0  0  0  0  0  0  0  0  0
    8.1089   -0.4365   18.3627 H   0  0  0  0  0  0  0  0  0  0  0  0
    4.9239    1.7890   16.9922 H   0  0  0  0  0  0  0  0  0  0  0  0
    3.8821    1.8379   19.2574 H   0  0  0  0  0  0  0  0  0  0  0  0
    5.0134    0.6070   21.1788 H   0  0  0  0  0  0  0  0  0  0  0  0
   10.5119    0.4213   21.3693 H   0  0  0  0  0  0  0  0  0  0  0  0
    9.5521    0.6692   19.9191 H   0  0  0  0  0  0  0  0  0  0  0  0
    8.0528    2.2495   21.0903 H   0  0  0  0  0  0  0  0  0  0  0  0
    9.7487    2.7877   21.1877 H   0  0  0  0  0  0  0  0  0  0  0  0
    8.1441    4.2459   23.1383 C   0  0  0  0  0  0  0  0  0  0  0  0
    7.7042    5.2628   23.9993 C   0  0  0  0  0  0  0  0  0  0  0  0
    7.4007    6.2165   23.5744 H   0  0  0  0  0  0  0  0  0  0  0  0
    8.1876    4.4139   22.0650 H   0  0  0  0  0  0  0  0  0  0  0  0
    8.7862    1.8400   25.4656 H   0  0  0  0  0  0  0  0  0  0  0  0
    8.0006    3.6612   26.9777 H   0  0  0  0  0  0  0  0  0  0  0  0
    7.3020    5.8597   26.0378 H   0  0  0  0  0  0  0  0  0  0  0  0
  1  2  2  0
  2  3  1  0
  3  4  2  0
  4  5  1  0
  5  6  1  0
  6  7  1  0
  7  8  1  0
  8  9  2  0
  9 10  1  0
 10 11  1  0
 11 12  1  0
 12 13  1  0
 13 14  1  0
 14 15  1  0
 15 16  1  0
 16 17  1  0
 16 18  1  0
 15 19  1  0
 15 20  1  0
 13 21  1  0
 13 22  1  0
 12 23  1  0
 12 24  1  0
 11 25  1  0
 10 26  2  0
 26 27  1  0
 27 28  1  0
 28 29  2  0
 29 30  1  0
 30 31  2  0
 31 32  1  0
 32 33  2  0
 33 34  1  0
 31 35  1  0
 30 36  1  0
 29 37  1  0
  7 38  1  0
  7 39  1  0
  6 40  1  0
  6 41  1  0
  4 42  1  0
 42 43  2  0
 43 44  1  0
 42 45  1  0
  3 46  1  0
  2 47  1  0
  1 48  1  0
 43  1  1  0
 27  8  1  0
 33 28  1  0
 16 11  1  0
M  END
>  <cnnaffinity>  (1) 
-5.7602

>  <filename>  (1) 
c1ccc(OCCc2nc(C3CCOCC3)nn2-c2cccnc2)cc1

$$$$
