
     RDKit          3D

 44 47  0  0  0  0  0  0  0  0999 V2000
    5.1765    1.7816   17.1220 H   0  0  0  0  0  0  0  0  0  0  0  0
    5.5242    1.1984   17.9713 C   0  0  0  0  0  0  0  0  0  0  0  0
    6.6229    0.4626   17.7534 N   0  0  0  0  0  0  0  0  0  0  0  0
    7.0886   -0.2483   18.7797 C   0  0  0  0  0  0  0  0  0  0  0  0
    7.9768   -0.8429   18.5691 H   0  0  0  0  0  0  0  0  0  0  0  0
    6.5138   -0.2675   20.0595 C   0  0  0  0  0  0  0  0  0  0  0  0
    7.2667   -0.9726   21.1230 C   0  0  0  0  0  0  0  0  0  0  0  0
    6.5640   -1.6577   22.0229 N   0  0  0  0  0  0  0  0  0  0  0  0
    7.2382   -2.2034   23.0474 C   0  0  0  0  0  0  0  0  0  0  0  0
    6.4790   -2.8256   24.0042 N   0  0  0  0  0  0  0  0  0  0  0  0
    5.1028   -3.2959   23.7485 C   0  0  0  0  0  0  0  0  0  0  0  0
    4.8909   -3.3632   22.6767 H   0  0  0  0  0  0  0  0  0  0  0  0
    4.3800   -2.6040   24.1993 H   0  0  0  0  0  0  0  0  0  0  0  0
    4.8739   -4.6479   24.4504 C   0  0  0  0  0  0  0  0  0  0  0  0
    5.6330   -5.3497   24.0660 H   0  0  0  0  0  0  0  0  0  0  0  0
    3.8787   -5.0303   24.1897 H   0  0  0  0  0  0  0  0  0  0  0  0
    4.9713   -4.4771   25.9110 N   0  0  0  0  0  0  0  0  0  0  0  0
    4.1752   -5.1966   26.7942 C   0  0  0  0  0  0  0  0  0  0  0  0
    3.8157   -4.6830   28.0589 C   0  0  0  0  0  0  0  0  0  0  0  0
    4.1525   -3.6879   28.3376 H   0  0  0  0  0  0  0  0  0  0  0  0
    3.0171   -5.4326   28.9251 C   0  0  0  0  0  0  0  0  0  0  0  0
    2.7442   -5.0131   29.8889 H   0  0  0  0  0  0  0  0  0  0  0  0
    2.5667   -6.7057   28.5633 C   0  0  0  0  0  0  0  0  0  0  0  0
    1.9724   -7.2985   29.2512 H   0  0  0  0  0  0  0  0  0  0  0  0
    2.9214   -7.2226   27.3145 C   0  0  0  0  0  0  0  0  0  0  0  0
    2.5774   -8.2067   27.0129 H   0  0  0  0  0  0  0  0  0  0  0  0
    3.7094   -6.4805   26.4358 C   0  0  0  0  0  0  0  0  0  0  0  0
    3.9817   -6.8699   25.4616 H   0  0  0  0  0  0  0  0  0  0  0  0
    5.8473   -3.3812   26.3582 C   0  0  0  0  0  0  0  0  0  0  0  0
    6.2812   -3.6169   27.3371 H   0  0  0  0  0  0  0  0  0  0  0  0
    5.2883   -2.4362   26.4665 H   0  0  0  0  0  0  0  0  0  0  0  0
    7.0006   -3.1198   25.3559 C   0  0  0  0  0  0  0  0  0  0  0  0
    7.6041   -2.2750   25.7244 H   0  0  0  0  0  0  0  0  0  0  0  0
    7.6450   -4.0141   25.3460 H   0  0  0  0  0  0  0  0  0  0  0  0
    8.6504   -2.1729   23.1517 C   0  0  0  0  0  0  0  0  0  0  0  0
    9.1228   -2.6897   23.9772 H   0  0  0  0  0  0  0  0  0  0  0  0
    9.3751   -1.4859   22.1851 C   0  0  0  0  0  0  0  0  0  0  0  0
   10.4641   -1.4159   22.2342 H   0  0  0  0  0  0  0  0  0  0  0  0
    8.6666   -0.8682   21.1535 C   0  0  0  0  0  0  0  0  0  0  0  0
    9.1661   -0.2718   20.4021 H   0  0  0  0  0  0  0  0  0  0  0  0
    5.3225    0.4498   20.2547 C   0  0  0  0  0  0  0  0  0  0  0  0
    4.8018    0.4253   21.2162 H   0  0  0  0  0  0  0  0  0  0  0  0
    4.8350    1.2128   19.1905 C   0  0  0  0  0  0  0  0  0  0  0  0
    3.9473    1.8306   19.2826 H   0  0  0  0  0  0  0  0  0  0  0  0
  1  2  1  0
  2  3  2  0
  3  4  1  0
  4  5  1  0
  4  6  2  0
  6  7  1  0
  7  8  2  0
  8  9  1  0
  9 10  1  0
 10 11  1  0
 11 12  1  0
 11 13  1  0
 11 14  1  0
 14 15  1  0
 14 16  1  0
 14 17  1  0
 17 18  1  0
 18 19  2  0
 19 20  1  0
 19 21  1  0
 21 22  1  0
 21 23  2  0
 23 24  1  0
 23 25  1  0
 25 26  1  0
 25 27  2  0
 27 28  1  0
 17 29  1  0
 29 30  1  0
 29 31  1  0
 29 32  1  0
 32 33  1  0
 32 34  1  0
  9 35  2  0
 35 36  1  0
 35 37  1  0
 37 38  1  0
 37 39  2  0
 39 40  1  0
  6 41  1  0
 41 42  1  0
 41 43  2  0
 43 44  1  0
 43  2  1  0
 39  7  1  0
 32 10  1  0
 27 18  1  0
M  END
>  <cnnaffinity>  (1) 
-5.16695

>  <filename>  (1) 
c1ccc(N2CCN(c3cccc(-c4cccnc4)n3)CC2)cc1

$$$$
