
     RDKit          3D

 46 49  0  0  0  0  0  0  0  0999 V2000
    8.6221    1.7891   25.7525 C   0  0  0  0  0  0  0  0  0  0  0  0
    9.8997    1.9809   25.2263 C   0  0  0  0  0  0  0  0  0  0  0  0
   10.0193    2.0950   23.8421 C   0  0  0  0  0  0  0  0  0  0  0  0
    8.8765    2.0152   23.0294 C   0  0  0  0  0  0  0  0  0  0  0  0
    9.0265    2.0058   21.5195 C   0  0  0  0  0  0  0  0  0  0  0  0
    9.5090    0.6249   20.9681 C   0  0  0  0  0  0  0  0  0  0  0  0
    8.6352   -0.5149   21.3898 C   0  0  0  0  0  0  0  0  0  0  0  0
    8.8615   -1.3349   22.3967 N   0  0  0  0  0  0  0  0  0  0  0  0
    7.6528   -1.9320   22.5837 C   0  0  0  0  0  0  0  0  0  0  0  0
    7.3984   -2.8437   23.7497 C   0  0  0  0  0  0  0  0  0  0  0  0
    8.4978   -3.9217   23.8937 C   0  0  0  0  0  0  0  0  0  0  0  0
    8.2820   -4.7386   25.1684 C   0  0  0  0  0  0  0  0  0  0  0  0
    8.2207   -3.9126   26.3186 O   0  0  0  0  0  0  0  0  0  0  0  0
    7.1407   -2.9967   26.2662 C   0  0  0  0  0  0  0  0  0  0  0  0
    7.2655   -2.0456   25.0762 C   0  0  0  0  0  0  0  0  0  0  0  0
    8.1596   -1.4241   25.2114 H   0  0  0  0  0  0  0  0  0  0  0  0
    6.3949   -1.3779   25.0387 H   0  0  0  0  0  0  0  0  0  0  0  0
    6.1870   -3.5505   26.2025 H   0  0  0  0  0  0  0  0  0  0  0  0
    7.1528   -2.4542   27.2152 H   0  0  0  0  0  0  0  0  0  0  0  0
    9.1020   -5.4406   25.3371 H   0  0  0  0  0  0  0  0  0  0  0  0
    7.3478   -5.3223   25.0828 H   0  0  0  0  0  0  0  0  0  0  0  0
    8.5062   -4.5851   23.0203 H   0  0  0  0  0  0  0  0  0  0  0  0
    9.4803   -3.4360   23.9409 H   0  0  0  0  0  0  0  0  0  0  0  0
    6.4379   -3.3249   23.5321 H   0  0  0  0  0  0  0  0  0  0  0  0
    6.7193   -1.5768   21.7264 N   0  0  0  0  0  0  0  0  0  0  0  0
    7.3586   -0.6745   20.9338 N   0  0  0  0  0  0  0  0  0  0  0  0
    6.6559    0.0042   19.8985 C   0  0  0  0  0  0  0  0  0  0  0  0
    5.4393    0.6436   20.1653 C   0  0  0  0  0  0  0  0  0  0  0  0
    4.8133    1.3105   19.1075 C   0  0  0  0  0  0  0  0  0  0  0  0
    5.4000    1.2967   17.8357 C   0  0  0  0  0  0  0  0  0  0  0  0
    6.5576    0.6712   17.5719 N   0  0  0  0  0  0  0  0  0  0  0  0
    7.1655    0.0504   18.5896 C   0  0  0  0  0  0  0  0  0  0  0  0
    8.1115   -0.4352   18.3635 H   0  0  0  0  0  0  0  0  0  0  0  0
    4.9229    1.7887   16.9912 H   0  0  0  0  0  0  0  0  0  0  0  0
    3.8815    1.8397   19.2578 H   0  0  0  0  0  0  0  0  0  0  0  0
    5.0223    0.6082   21.1763 H   0  0  0  0  0  0  0  0  0  0  0  0
    9.5556    0.6638   19.8780 H   0  0  0  0  0  0  0  0  0  0  0  0
   10.5225    0.4053   21.3160 H   0  0  0  0  0  0  0  0  0  0  0  0
    8.0664    2.2707   21.0678 H   0  0  0  0  0  0  0  0  0  0  0  0
    9.7457    2.7746   21.2225 H   0  0  0  0  0  0  0  0  0  0  0  0
    7.6478    1.8241   23.5354 N   0  0  0  0  0  0  0  0  0  0  0  0
    7.5469    1.7064   24.8647 C   0  0  0  0  0  0  0  0  0  0  0  0
    6.5381    1.5364   25.2350 H   0  0  0  0  0  0  0  0  0  0  0  0
   10.9836    2.2246   23.3694 H   0  0  0  0  0  0  0  0  0  0  0  0
   10.7764    2.0139   25.8741 H   0  0  0  0  0  0  0  0  0  0  0  0
    8.4523    1.7021   26.8194 H   0  0  0  0  0  0  0  0  0  0  0  0
  1  2  2  0
  2  3  1  0
  3  4  2  0
  4  5  1  0
  5  6  1  0
  6  7  1  0
  7  8  2  0
  8  9  1  0
  9 10  1  0
 10 11  1  0
 11 12  1  0
 12 13  1  0
 13 14  1  0
 14 15  1  0
 15 16  1  0
 15 17  1  0
 14 18  1  0
 14 19  1  0
 12 20  1  0
 12 21  1  0
 11 22  1  0
 11 23  1  0
 10 24  1  0
  9 25  2  0
 25 26  1  0
 26 27  1  0
 27 28  2  0
 28 29  1  0
 29 30  2  0
 30 31  1  0
 31 32  2  0
 32 33  1  0
 30 34  1  0
 29 35  1  0
 28 36  1  0
  6 37  1  0
  6 38  1  0
  5 39  1  0
  5 40  1  0
  4 41  1  0
 41 42  2  0
 42 43  1  0
  3 44  1  0
  2 45  1  0
  1 46  1  0
 42  1  1  0
 26  7  1  0
 32 27  1  0
 15 10  1  0
M  END
>  <cnnaffinity>  (1) 
-5.87281

>  <filename>  (1) 
c1ccc(CCc2nc(C3CCOCC3)nn2-c2cccnc2)nc1

$$$$
