
     RDKit          3D

 47 50  0  0  0  0  0  0  0  0999 V2000
    4.8794    1.8199   16.9193 H   0  0  0  0  0  0  0  0  0  0  0  0
    5.3848    1.2895   17.7213 C   0  0  0  0  0  0  0  0  0  0  0  0
    6.5210    0.6555   17.3929 N   0  0  0  0  0  0  0  0  0  0  0  0
    7.1821    0.0229   18.3756 C   0  0  0  0  0  0  0  0  0  0  0  0
    8.0861   -0.5108   18.0794 H   0  0  0  0  0  0  0  0  0  0  0  0
    6.7713   -0.0050   19.7370 C   0  0  0  0  0  0  0  0  0  0  0  0
    7.5035   -0.6757   20.7524 N   0  0  0  0  0  0  0  0  0  0  0  0
    6.9517   -1.3067   21.3113 H   0  0  0  0  0  0  0  0  0  0  0  0
    8.3640   -0.0138   21.7239 C   0  0  0  0  0  0  0  0  0  0  0  0
    8.7438   -1.0277   22.6701 N   0  0  0  0  0  0  0  0  0  0  0  0
    9.6080   -2.1193   22.2087 C   0  0  0  0  0  0  0  0  0  0  0  0
    9.0497   -2.8826   21.6387 H   0  0  0  0  0  0  0  0  0  0  0  0
   10.3971   -1.7458   21.5479 H   0  0  0  0  0  0  0  0  0  0  0  0
   10.2638   -2.7740   23.4366 C   0  0  0  0  0  0  0  0  0  0  0  0
   10.9129   -2.0233   23.9032 H   0  0  0  0  0  0  0  0  0  0  0  0
   10.8762   -3.6261   23.1296 H   0  0  0  0  0  0  0  0  0  0  0  0
    9.2549   -3.1955   24.3932 N   0  0  0  0  0  0  0  0  0  0  0  0
    9.2327   -4.4634   24.9461 C   0  0  0  0  0  0  0  0  0  0  0  0
   10.4358   -5.1003   25.2871 C   0  0  0  0  0  0  0  0  0  0  0  0
   11.3808   -4.6268   25.0470 H   0  0  0  0  0  0  0  0  0  0  0  0
   10.3853   -6.3292   25.9268 C   0  0  0  0  0  0  0  0  0  0  0  0
   11.2693   -6.8499   26.2632 H   0  0  0  0  0  0  0  0  0  0  0  0
    9.1697   -6.9566   26.1477 C   0  0  0  0  0  0  0  0  0  0  0  0
    9.2480   -7.9347   26.5837 H   0  0  0  0  0  0  0  0  0  0  0  0
    7.9672   -6.3562   25.7844 C   0  0  0  0  0  0  0  0  0  0  0  0
    7.0267   -6.8588   25.9914 H   0  0  0  0  0  0  0  0  0  0  0  0
    7.9988   -5.1089   25.1612 C   0  0  0  0  0  0  0  0  0  0  0  0
    7.0883   -4.6404   24.8031 H   0  0  0  0  0  0  0  0  0  0  0  0
    8.3704   -2.1220   24.8239 C   0  0  0  0  0  0  0  0  0  0  0  0
    8.9544   -1.3346   25.3336 H   0  0  0  0  0  0  0  0  0  0  0  0
    7.6179   -2.4882   25.5349 H   0  0  0  0  0  0  0  0  0  0  0  0
    7.7019   -1.5145   23.5856 C   0  0  0  0  0  0  0  0  0  0  0  0
    7.0713   -2.2945   23.1181 H   0  0  0  0  0  0  0  0  0  0  0  0
    7.0325   -0.7027   23.8860 H   0  0  0  0  0  0  0  0  0  0  0  0
    9.5175    0.8201   21.1176 C   0  0  0  0  0  0  0  0  0  0  0  0
   10.4874    0.5784   21.5587 H   0  0  0  0  0  0  0  0  0  0  0  0
    9.5617    0.7375   20.0326 H   0  0  0  0  0  0  0  0  0  0  0  0
    8.8944    2.1217   21.6846 C   0  0  0  0  0  0  0  0  0  0  0  0
    8.4786    2.7898   20.9272 H   0  0  0  0  0  0  0  0  0  0  0  0
    9.5550    2.7003   22.3394 H   0  0  0  0  0  0  0  0  0  0  0  0
    7.8470    1.2673   22.4333 C   0  0  0  0  0  0  0  0  0  0  0  0
    6.7892    1.4937   22.2992 H   0  0  0  0  0  0  0  0  0  0  0  0
    8.0780    1.2164   23.5002 H   0  0  0  0  0  0  0  0  0  0  0  0
    5.5451    0.6176   20.0315 C   0  0  0  0  0  0  0  0  0  0  0  0
    5.1614    0.5846   21.0527 H   0  0  0  0  0  0  0  0  0  0  0  0
    4.8535    1.2869   19.0144 C   0  0  0  0  0  0  0  0  0  0  0  0
    3.9258    1.8121   19.2186 H   0  0  0  0  0  0  0  0  0  0  0  0
  1  2  1  0
  2  3  2  0
  3  4  1  0
  4  5  1  0
  4  6  2  0
  6  7  1  0
  7  8  1  0
  7  9  1  0
  9 10  1  0
 10 11  1  0
 11 12  1  0
 11 13  1  0
 11 14  1  0
 14 15  1  0
 14 16  1  0
 14 17  1  0
 17 18  1  0
 18 19  2  0
 19 20  1  0
 19 21  1  0
 21 22  1  0
 21 23  2  0
 23 24  1  0
 23 25  1  0
 25 26  1  0
 25 27  2  0
 27 28  1  0
 17 29  1  0
 29 30  1  0
 29 31  1  0
 29 32  1  0
 32 33  1  0
 32 34  1  0
  9 35  1  0
 35 36  1  0
 35 37  1  0
 35 38  1  0
 38 39  1  0
 38 40  1  0
 38 41  1  0
 41 42  1  0
 41 43  1  0
  6 44  1  0
 44 45  1  0
 44 46  2  0
 46 47  1  0
 46  2  1  0
 41  9  1  0
 32 10  1  0
 27 18  1  0
M  END
>  <cnnaffinity>  (1) 
-5.61539

>  <filename>  (1) 
c1ccc(N2CCN(C3(Nc4cccnc4)CCC3)CC2)cc1

$$$$
