
     RDKit          3D

 28 31  0  0  0  0  0  0  0  0999 V2000
    7.0524    1.1318   28.7348 H   0  0  0  0  0  0  0  0  0  0  0  0
    6.6218    1.3763   27.7652 C   0  0  0  0  0  0  0  0  0  0  0  0
    7.0610    0.6665   26.7182 N   0  0  0  0  0  0  0  0  0  0  0  0
    6.5418    0.9522   25.5025 C   0  0  0  0  0  0  0  0  0  0  0  0
    7.0356    0.1631   24.3337 C   0  0  0  0  0  0  0  0  0  0  0  0
    6.6217    0.3493   23.1136 N   0  0  0  0  0  0  0  0  0  0  0  0
    7.2755   -0.5140   22.2900 N   0  0  0  0  0  0  0  0  0  0  0  0
    7.4033   -0.6963   20.9258 C   0  0  0  0  0  0  0  0  0  0  0  0
    6.6476    0.0113   19.8954 C   0  0  0  0  0  0  0  0  0  0  0  0
    7.1727    0.0544   18.5905 C   0  0  0  0  0  0  0  0  0  0  0  0
    8.1214   -0.4335   18.3711 H   0  0  0  0  0  0  0  0  0  0  0  0
    6.5680    0.6766   17.5761 N   0  0  0  0  0  0  0  0  0  0  0  0
    5.4033    1.2903   17.8408 C   0  0  0  0  0  0  0  0  0  0  0  0
    4.9202    1.7791   16.9990 H   0  0  0  0  0  0  0  0  0  0  0  0
    4.8048    1.3077   19.1060 C   0  0  0  0  0  0  0  0  0  0  0  0
    3.8749    1.8427   19.2577 H   0  0  0  0  0  0  0  0  0  0  0  0
    5.4301    0.6528   20.1624 C   0  0  0  0  0  0  0  0  0  0  0  0
    5.0102    0.6383   21.1704 H   0  0  0  0  0  0  0  0  0  0  0  0
    8.3271   -1.6004   20.7087 N   0  0  0  0  0  0  0  0  0  0  0  0
    8.8300   -2.0380   21.9129 N   0  0  0  0  0  0  0  0  0  0  0  0
    8.2030   -1.3564   22.8342 C   0  0  0  0  0  0  0  0  0  0  0  0
    8.2534   -1.0938   24.5568 S   0  0  0  0  0  0  0  0  0  0  0  0
    5.5720    1.9507   25.3102 C   0  0  0  0  0  0  0  0  0  0  0  0
    5.1988    2.1313   24.3101 H   0  0  0  0  0  0  0  0  0  0  0  0
    5.1239    2.6793   26.4103 C   0  0  0  0  0  0  0  0  0  0  0  0
    4.3730    3.4582   26.2838 H   0  0  0  0  0  0  0  0  0  0  0  0
    5.6593    2.3873   27.6655 C   0  0  0  0  0  0  0  0  0  0  0  0
    5.3375    2.9295   28.5475 H   0  0  0  0  0  0  0  0  0  0  0  0
  1  2  1  0
  2  3  2  0
  3  4  1  0
  4  5  1  0
  5  6  2  0
  6  7  1  0
  7  8  1  0
  8  9  1  0
  9 10  2  0
 10 11  1  0
 10 12  1  0
 12 13  2  0
 13 14  1  0
 13 15  1  0
 15 16  1  0
 15 17  2  0
 17 18  1  0
  8 19  2  0
 19 20  1  0
 20 21  2  0
 21 22  1  0
  4 23  2  0
 23 24  1  0
 23 25  1  0
 25 26  1  0
 25 27  2  0
 27 28  1  0
 27  2  1  0
 22  5  1  0
 21  7  1  0
 17  9  1  0
M  END
>  <cnnaffinity>  (1) 
-5.13367

>  <filename>  (1) 
c1ccc(-c2nn3c(-c4cccnc4)nnc3s2)nc1

$$$$
