
     RDKit          3D

 42 45  0  0  0  0  0  0  0  0999 V2000
    7.0452   -4.9272   25.6126 C   0  0  0  0  0  0  0  0  0  0  0  0
    6.0268   -4.6196   24.7032 C   0  0  0  0  0  0  0  0  0  0  0  0
    6.2304   -3.6573   23.7139 C   0  0  0  0  0  0  0  0  0  0  0  0
    7.4674   -2.9852   23.6192 C   0  0  0  0  0  0  0  0  0  0  0  0
    7.6810   -1.9618   22.5659 C   0  0  0  0  0  0  0  0  0  0  0  0
    6.7516   -1.6083   21.6904 N   0  0  0  0  0  0  0  0  0  0  0  0
    7.3687   -0.6654   20.9416 N   0  0  0  0  0  0  0  0  0  0  0  0
    6.6622    0.0100   19.9028 C   0  0  0  0  0  0  0  0  0  0  0  0
    5.4421    0.6438   20.1684 C   0  0  0  0  0  0  0  0  0  0  0  0
    4.8125    1.3098   19.1103 C   0  0  0  0  0  0  0  0  0  0  0  0
    5.4024    1.2950   17.8390 C   0  0  0  0  0  0  0  0  0  0  0  0
    6.5635    0.6753   17.5777 N   0  0  0  0  0  0  0  0  0  0  0  0
    7.1717    0.0572   18.5954 C   0  0  0  0  0  0  0  0  0  0  0  0
    8.1155   -0.4348   18.3738 H   0  0  0  0  0  0  0  0  0  0  0  0
    4.9148    1.7818   16.9956 H   0  0  0  0  0  0  0  0  0  0  0  0
    3.8777    1.8407   19.2632 H   0  0  0  0  0  0  0  0  0  0  0  0
    5.0145    0.6124   21.1732 H   0  0  0  0  0  0  0  0  0  0  0  0
    8.6303   -0.4756   21.4245 C   0  0  0  0  0  0  0  0  0  0  0  0
    9.5343    0.6057   20.9340 C   0  0  0  0  0  0  0  0  0  0  0  0
    9.0521    2.0115   21.3110 C   0  0  0  0  0  0  0  0  0  0  0  0
    8.9801    2.2269   22.8302 C   0  0  0  0  0  0  0  0  0  0  0  0
    8.4981    3.5953   23.1729 C   0  0  0  0  0  0  0  0  0  0  0  0
    7.1947    4.0072   23.2243 C   0  0  0  0  0  0  0  0  0  0  0  0
    7.2886    5.3310   23.4685 N   0  0  0  0  0  0  0  0  0  0  0  0
    8.5574    5.7279   23.5643 N   0  0  0  0  0  0  0  0  0  0  0  0
    9.2982    4.6797   23.3823 N   0  0  0  0  0  0  0  0  0  0  0  0
    6.5654    6.0209   23.5795 H   0  0  0  0  0  0  0  0  0  0  0  0
    6.2694    3.4685   23.0854 H   0  0  0  0  0  0  0  0  0  0  0  0
    9.9594    2.0473   23.2833 H   0  0  0  0  0  0  0  0  0  0  0  0
    8.2995    1.4875   23.2727 H   0  0  0  0  0  0  0  0  0  0  0  0
    9.7408    2.7469   20.8886 H   0  0  0  0  0  0  0  0  0  0  0  0
    8.0711    2.1954   20.8550 H   0  0  0  0  0  0  0  0  0  0  0  0
    9.6274    0.5355   19.8475 H   0  0  0  0  0  0  0  0  0  0  0  0
   10.5232    0.4188   21.3610 H   0  0  0  0  0  0  0  0  0  0  0  0
    8.8569   -1.2890   22.4288 N   0  0  0  0  0  0  0  0  0  0  0  0
    8.4906   -3.2991   24.5403 C   0  0  0  0  0  0  0  0  0  0  0  0
    8.2753   -4.2637   25.5271 C   0  0  0  0  0  0  0  0  0  0  0  0
    9.0673   -4.5018   26.2338 H   0  0  0  0  0  0  0  0  0  0  0  0
    9.4532   -2.7899   24.4867 H   0  0  0  0  0  0  0  0  0  0  0  0
    5.4348   -3.4143   23.0105 H   0  0  0  0  0  0  0  0  0  0  0  0
    5.0689   -5.1290   24.7662 H   0  0  0  0  0  0  0  0  0  0  0  0
    6.8803   -5.6779   26.3829 H   0  0  0  0  0  0  0  0  0  0  0  0
  1  2  2  0
  2  3  1  0
  3  4  2  0
  4  5  1  0
  5  6  2  0
  6  7  1  0
  7  8  1  0
  8  9  2  0
  9 10  1  0
 10 11  2  0
 11 12  1  0
 12 13  2  0
 13 14  1  0
 11 15  1  0
 10 16  1  0
  9 17  1  0
  7 18  1  0
 18 19  1  0
 19 20  1  0
 20 21  1  0
 21 22  1  0
 22 23  2  0
 23 24  1  0
 24 25  1  0
 25 26  2  0
 24 27  1  0
 23 28  1  0
 21 29  1  0
 21 30  1  0
 20 31  1  0
 20 32  1  0
 19 33  1  0
 19 34  1  0
 18 35  2  0
  4 36  1  0
 36 37  2  0
 37 38  1  0
 36 39  1  0
  3 40  1  0
  2 41  1  0
  1 42  1  0
 37  1  1  0
 35  5  1  0
 13  8  1  0
 26 22  1  0
M  END
>  <cnnaffinity>  (1) 
-6.23576

>  <filename>  (1) 
c1ccc(-c2nc(CCCc3c[nH]nn3)n(-c3cccnc3)n2)cc1

$$$$
