
     RDKit          3D

 32 33  0  0  0  0  0  0  0  0999 V2000
    4.9175    1.7893   16.9870 H   0  0  0  0  0  0  0  0  0  0  0  0
    5.3970    1.2993   17.8312 C   0  0  0  0  0  0  0  0  0  0  0  0
    6.5585    0.6840   17.5694 N   0  0  0  0  0  0  0  0  0  0  0  0
    7.1588    0.0649   18.5908 C   0  0  0  0  0  0  0  0  0  0  0  0
    8.1086   -0.4157   18.3675 H   0  0  0  0  0  0  0  0  0  0  0  0
    6.6470   -0.0076   19.8997 C   0  0  0  0  0  0  0  0  0  0  0  0
    7.4179   -0.7179   20.9855 C   0  0  0  0  0  0  0  0  0  0  0  0
    6.7477   -0.9585   21.8212 H   0  0  0  0  0  0  0  0  0  0  0  0
    7.7959   -1.6803   20.6120 H   0  0  0  0  0  0  0  0  0  0  0  0
    8.5956    0.1188   21.5108 C   0  0  0  0  0  0  0  0  0  0  0  0
    9.1872   -0.4778   22.2147 H   0  0  0  0  0  0  0  0  0  0  0  0
    9.2602    0.3703   20.6755 H   0  0  0  0  0  0  0  0  0  0  0  0
    8.1782    1.4207   22.2100 C   0  0  0  0  0  0  0  0  0  0  0  0
    9.0692    1.9885   22.5041 H   0  0  0  0  0  0  0  0  0  0  0  0
    7.6405    2.0701   21.5081 H   0  0  0  0  0  0  0  0  0  0  0  0
    7.3394    1.2472   23.3765 N   0  0  0  0  0  0  0  0  0  0  0  0
    6.3550    1.4148   23.2848 H   0  0  0  0  0  0  0  0  0  0  0  0
    7.7084    0.6117   24.5440 C   0  0  0  0  0  0  0  0  0  0  0  0
    6.7163    0.1997   25.4611 C   0  0  0  0  0  0  0  0  0  0  0  0
    5.6660    0.3461   25.2161 H   0  0  0  0  0  0  0  0  0  0  0  0
    7.0824   -0.4002   26.6683 C   0  0  0  0  0  0  0  0  0  0  0  0
    6.3127   -0.7112   27.3711 H   0  0  0  0  0  0  0  0  0  0  0  0
    8.4284   -0.6001   26.9940 C   0  0  0  0  0  0  0  0  0  0  0  0
    8.7168   -1.0602   27.9378 H   0  0  0  0  0  0  0  0  0  0  0  0
    9.4049   -0.1897   26.0872 C   0  0  0  0  0  0  0  0  0  0  0  0
   10.4558   -0.3293   26.3249 H   0  0  0  0  0  0  0  0  0  0  0  0
    9.0590    0.4051   24.8765 C   0  0  0  0  0  0  0  0  0  0  0  0
    9.8246    0.7231   24.1774 H   0  0  0  0  0  0  0  0  0  0  0  0
    5.4361    0.6524   20.1528 C   0  0  0  0  0  0  0  0  0  0  0  0
    5.0053    0.6371   21.1585 H   0  0  0  0  0  0  0  0  0  0  0  0
    4.8027    1.3166   19.0977 C   0  0  0  0  0  0  0  0  0  0  0  0
    3.8698    1.8470   19.2493 H   0  0  0  0  0  0  0  0  0  0  0  0
  1  2  1  0
  2  3  2  0
  3  4  1  0
  4  5  1  0
  4  6  2  0
  6  7  1  0
  7  8  1  0
  7  9  1  0
  7 10  1  0
 10 11  1  0
 10 12  1  0
 10 13  1  0
 13 14  1  0
 13 15  1  0
 13 16  1  0
 16 17  1  0
 16 18  1  0
 18 19  2  0
 19 20  1  0
 19 21  1  0
 21 22  1  0
 21 23  2  0
 23 24  1  0
 23 25  1  0
 25 26  1  0
 25 27  2  0
 27 28  1  0
  6 29  1  0
 29 30  1  0
 29 31  2  0
 31 32  1  0
 31  2  1  0
 27 18  1  0
M  END
>  <cnnaffinity>  (1) 
-4.23452

>  <filename>  (1) 
c1ccc(NCCCc2cccnc2)cc1

$$$$
