
     RDKit          3D

 40 43  0  0  0  0  0  0  0  0999 V2000
   13.9060   -0.7563   22.0894 C   0  0  0  0  0  0  0  0  0  0  0  0
   13.0364   -1.6786   21.5072 C   0  0  0  0  0  0  0  0  0  0  0  0
   11.6617   -1.4555   21.4862 C   0  0  0  0  0  0  0  0  0  0  0  0
   11.1398   -0.2839   22.0664 C   0  0  0  0  0  0  0  0  0  0  0  0
    9.6697   -0.1128   22.1287 C   0  0  0  0  0  0  0  0  0  0  0  0
    8.8209   -0.9032   21.4824 N   0  0  0  0  0  0  0  0  0  0  0  0
    7.6095   -0.3874   21.7884 N   0  0  0  0  0  0  0  0  0  0  0  0
    6.4177   -0.8628   21.0864 C   0  0  0  0  0  0  0  0  0  0  0  0
    6.0579   -0.0294   19.8698 C   0  0  0  0  0  0  0  0  0  0  0  0
    4.8660    0.6945   19.7705 C   0  0  0  0  0  0  0  0  0  0  0  0
    4.6474    1.4897   18.6404 C   0  0  0  0  0  0  0  0  0  0  0  0
    5.6377    1.5376   17.6551 C   0  0  0  0  0  0  0  0  0  0  0  0
    6.7700    0.8210   17.7140 N   0  0  0  0  0  0  0  0  0  0  0  0
    6.9637    0.0622   18.7987 C   0  0  0  0  0  0  0  0  0  0  0  0
    7.8935   -0.5066   18.8279 H   0  0  0  0  0  0  0  0  0  0  0  0
    5.5223    2.1780   16.7797 H   0  0  0  0  0  0  0  0  0  0  0  0
    3.7468    2.0821   18.5204 H   0  0  0  0  0  0  0  0  0  0  0  0
    4.1230    0.6432   20.5709 H   0  0  0  0  0  0  0  0  0  0  0  0
    6.6208   -1.9056   20.8183 H   0  0  0  0  0  0  0  0  0  0  0  0
    5.5834   -0.8669   21.7857 H   0  0  0  0  0  0  0  0  0  0  0  0
    7.7787    0.6820   22.5968 C   0  0  0  0  0  0  0  0  0  0  0  0
    6.6878    1.5147   23.2027 C   0  0  0  0  0  0  0  0  0  0  0  0
    6.3634    1.0625   24.6022 C   0  0  0  0  0  0  0  0  0  0  0  0
    7.1150    1.1818   25.7488 C   0  0  0  0  0  0  0  0  0  0  0  0
    6.3985    0.4762   26.7352 C   0  0  0  0  0  0  0  0  0  0  0  0
    5.2868   -0.0576   26.2418 N   0  0  0  0  0  0  0  0  0  0  0  0
    5.2878    0.3153   24.9500 N   0  0  0  0  0  0  0  0  0  0  0  0
    4.6046   -0.0990   24.3284 H   0  0  0  0  0  0  0  0  0  0  0  0
    6.6474    0.3187   27.7773 H   0  0  0  0  0  0  0  0  0  0  0  0
    8.0703    1.6771   25.8320 H   0  0  0  0  0  0  0  0  0  0  0  0
    5.7938    1.5225   22.5711 H   0  0  0  0  0  0  0  0  0  0  0  0
    7.0671    2.5407   23.2429 H   0  0  0  0  0  0  0  0  0  0  0  0
    9.0593    0.8735   22.8345 N   0  0  0  0  0  0  0  0  0  0  0  0
   12.0316    0.6883   22.5795 C   0  0  0  0  0  0  0  0  0  0  0  0
   13.4088    0.4508   22.5884 C   0  0  0  0  0  0  0  0  0  0  0  0
   14.0823    1.2108   22.9779 H   0  0  0  0  0  0  0  0  0  0  0  0
   11.6436    1.6235   22.9717 H   0  0  0  0  0  0  0  0  0  0  0  0
   10.9887   -2.1751   21.0170 H   0  0  0  0  0  0  0  0  0  0  0  0
   13.4526   -2.5649   21.0497 H   0  0  0  0  0  0  0  0  0  0  0  0
   14.9537   -1.0159   22.1581 H   0  0  0  0  0  0  0  0  0  0  0  0
  1  2  2  0
  2  3  1  0
  3  4  2  0
  4  5  1  0
  5  6  2  0
  6  7  1  0
  7  8  1  0
  8  9  1  0
  9 10  2  0
 10 11  1  0
 11 12  2  0
 12 13  1  0
 13 14  2  0
 14 15  1  0
 12 16  1  0
 11 17  1  0
 10 18  1  0
  8 19  1  0
  8 20  1  0
  7 21  1  0
 21 22  1  0
 22 23  1  0
 23 24  2  0
 24 25  1  0
 25 26  2  0
 26 27  1  0
 27 28  1  0
 25 29  1  0
 24 30  1  0
 22 31  1  0
 22 32  1  0
 21 33  2  0
  4 34  1  0
 34 35  2  0
 35 36  1  0
 34 37  1  0
  3 38  1  0
  2 39  1  0
  1 40  1  0
 35  1  1  0
 33  5  1  0
 14  9  1  0
 27 23  1  0
M  END
>  <cnnaffinity>  (1) 
-6.0404

>  <filename>  (1) 
c1ccc(-c2nc(Cc3ccn[nH]3)n(Cc3cccnc3)n2)cc1

$$$$
