
     RDKit          3D

 43 46  0  0  0  0  0  0  0  0999 V2000
    6.7301    3.4332   27.3549 C   0  0  0  0  0  0  0  0  0  0  0  0
    5.8727    2.5148   26.7392 C   0  0  0  0  0  0  0  0  0  0  0  0
    6.2425    1.8951   25.5449 C   0  0  0  0  0  0  0  0  0  0  0  0
    7.4843    2.1901   24.9462 C   0  0  0  0  0  0  0  0  0  0  0  0
    7.8678    1.5358   23.6738 C   0  0  0  0  0  0  0  0  0  0  0  0
    7.1531    0.5819   23.0930 N   0  0  0  0  0  0  0  0  0  0  0  0
    7.9034    0.2366   22.0245 N   0  0  0  0  0  0  0  0  0  0  0  0
    7.3861   -0.6846   21.0152 C   0  0  0  0  0  0  0  0  0  0  0  0
    6.6499    0.0026   19.8840 C   0  0  0  0  0  0  0  0  0  0  0  0
    5.4344    0.6437   20.1454 C   0  0  0  0  0  0  0  0  0  0  0  0
    4.8028    1.3082   19.0926 C   0  0  0  0  0  0  0  0  0  0  0  0
    5.3982    1.2981   17.8259 C   0  0  0  0  0  0  0  0  0  0  0  0
    6.5591    0.6820   17.5558 N   0  0  0  0  0  0  0  0  0  0  0  0
    7.1598    0.0600   18.5779 C   0  0  0  0  0  0  0  0  0  0  0  0
    8.1079   -0.4251   18.3455 H   0  0  0  0  0  0  0  0  0  0  0  0
    4.9187    1.7937   16.9850 H   0  0  0  0  0  0  0  0  0  0  0  0
    3.8749    1.8429   19.2482 H   0  0  0  0  0  0  0  0  0  0  0  0
    5.0280    0.6364   21.1634 H   0  0  0  0  0  0  0  0  0  0  0  0
    8.2258   -1.2719   20.6317 H   0  0  0  0  0  0  0  0  0  0  0  0
    6.7259   -1.3669   21.5574 H   0  0  0  0  0  0  0  0  0  0  0  0
    8.9990    1.0258   21.9772 C   0  0  0  0  0  0  0  0  0  0  0  0
   10.0830    0.8457   20.9701 C   0  0  0  0  0  0  0  0  0  0  0  0
   11.0702   -0.2994   21.3237 C   0  0  0  0  0  0  0  0  0  0  0  0
   11.8005   -0.0153   22.6047 C   0  0  0  0  0  0  0  0  0  0  0  0
   12.8732    0.7989   22.7846 C   0  0  0  0  0  0  0  0  0  0  0  0
   13.1787    0.9094   24.1012 O   0  0  0  0  0  0  0  0  0  0  0  0
   12.2688    0.1743   24.7809 C   0  0  0  0  0  0  0  0  0  0  0  0
   11.3925   -0.4079   23.9322 C   0  0  0  0  0  0  0  0  0  0  0  0
   10.5560   -1.0437   24.2024 H   0  0  0  0  0  0  0  0  0  0  0  0
   12.4027    0.1532   25.8469 H   0  0  0  0  0  0  0  0  0  0  0  0
   13.4986    1.3773   22.1189 H   0  0  0  0  0  0  0  0  0  0  0  0
   11.7792   -0.4764   20.5109 H   0  0  0  0  0  0  0  0  0  0  0  0
   10.5218   -1.2437   21.4215 H   0  0  0  0  0  0  0  0  0  0  0  0
   10.6250    1.7927   20.9131 H   0  0  0  0  0  0  0  0  0  0  0  0
    9.6292    0.6803   19.9877 H   0  0  0  0  0  0  0  0  0  0  0  0
    8.9994    1.8632   22.9941 N   0  0  0  0  0  0  0  0  0  0  0  0
    8.3473    3.1151   25.5735 C   0  0  0  0  0  0  0  0  0  0  0  0
    7.9653    3.7316   26.7672 C   0  0  0  0  0  0  0  0  0  0  0  0
    8.6298    4.4507   27.2381 H   0  0  0  0  0  0  0  0  0  0  0  0
    9.3098    3.3556   25.1221 H   0  0  0  0  0  0  0  0  0  0  0  0
    5.5806    1.1770   25.0629 H   0  0  0  0  0  0  0  0  0  0  0  0
    4.9123    2.2759   27.1877 H   0  0  0  0  0  0  0  0  0  0  0  0
    6.4351    3.9123   28.2865 H   0  0  0  0  0  0  0  0  0  0  0  0
  1  2  2  0
  2  3  1  0
  3  4  2  0
  4  5  1  0
  5  6  2  0
  6  7  1  0
  7  8  1  0
  8  9  1  0
  9 10  2  0
 10 11  1  0
 11 12  2  0
 12 13  1  0
 13 14  2  0
 14 15  1  0
 12 16  1  0
 11 17  1  0
 10 18  1  0
  8 19  1  0
  8 20  1  0
  7 21  1  0
 21 22  1  0
 22 23  1  0
 23 24  1  0
 24 25  2  0
 25 26  1  0
 26 27  1  0
 27 28  2  0
 28 29  1  0
 27 30  1  0
 25 31  1  0
 23 32  1  0
 23 33  1  0
 22 34  1  0
 22 35  1  0
 21 36  2  0
  4 37  1  0
 37 38  2  0
 38 39  1  0
 37 40  1  0
  3 41  1  0
  2 42  1  0
  1 43  1  0
 38  1  1  0
 36  5  1  0
 14  9  1  0
 28 24  1  0
M  END
>  <cnnaffinity>  (1) 
-5.67295

>  <filename>  (1) 
c1ccc(-c2nc(CCc3ccoc3)n(Cc3cccnc3)n2)cc1

$$$$
