
     RDKit          3D

 30 32  0  0  0  0  0  0  0  0999 V2000
    8.0635    1.0917   27.2833 H   0  0  0  0  0  0  0  0  0  0  0  0
    7.3400    1.0237   26.4795 C   0  0  0  0  0  0  0  0  0  0  0  0
    7.8427    1.0948   25.2388 N   0  0  0  0  0  0  0  0  0  0  0  0
    6.9707    1.0520   24.2201 C   0  0  0  0  0  0  0  0  0  0  0  0
    7.5412    1.1186   22.8254 C   0  0  0  0  0  0  0  0  0  0  0  0
    8.5143    1.6215   22.8568 H   0  0  0  0  0  0  0  0  0  0  0  0
    6.9004    1.7238   22.1771 H   0  0  0  0  0  0  0  0  0  0  0  0
    7.6994   -0.2289   22.1838 C   0  0  0  0  0  0  0  0  0  0  0  0
    7.3854   -0.7200   20.9349 C   0  0  0  0  0  0  0  0  0  0  0  0
    6.6464   -0.0109   19.8951 C   0  0  0  0  0  0  0  0  0  0  0  0
    7.1674    0.0423   18.5970 C   0  0  0  0  0  0  0  0  0  0  0  0
    8.1175   -0.4340   18.3761 H   0  0  0  0  0  0  0  0  0  0  0  0
    6.5689    0.6763   17.5875 N   0  0  0  0  0  0  0  0  0  0  0  0
    5.4044    1.2914   17.8409 C   0  0  0  0  0  0  0  0  0  0  0  0
    4.9220    1.7794   16.9978 H   0  0  0  0  0  0  0  0  0  0  0  0
    4.8015    1.3093   19.1031 C   0  0  0  0  0  0  0  0  0  0  0  0
    3.8717    1.8443   19.2587 H   0  0  0  0  0  0  0  0  0  0  0  0
    5.4353    0.6525   20.1528 C   0  0  0  0  0  0  0  0  0  0  0  0
    4.9915    0.6340   21.1544 H   0  0  0  0  0  0  0  0  0  0  0  0
    7.8930   -1.9827   20.7808 N   0  0  0  0  0  0  0  0  0  0  0  0
    8.4641   -2.2808   21.9188 C   0  0  0  0  0  0  0  0  0  0  0  0
    8.9746   -3.2145   22.1325 H   0  0  0  0  0  0  0  0  0  0  0  0
    8.3703   -1.2514   22.8020 N   0  0  0  0  0  0  0  0  0  0  0  0
    8.7650   -1.2136   23.7246 H   0  0  0  0  0  0  0  0  0  0  0  0
    5.5906    0.8855   24.4127 C   0  0  0  0  0  0  0  0  0  0  0  0
    4.9366    0.8201   23.5502 H   0  0  0  0  0  0  0  0  0  0  0  0
    5.0763    0.7884   25.7041 C   0  0  0  0  0  0  0  0  0  0  0  0
    4.0072    0.6554   25.8762 H   0  0  0  0  0  0  0  0  0  0  0  0
    5.9814    0.8696   26.7651 C   0  0  0  0  0  0  0  0  0  0  0  0
    5.6465    0.8066   27.7920 H   0  0  0  0  0  0  0  0  0  0  0  0
  1  2  1  0
  2  3  2  0
  3  4  1  0
  4  5  1  0
  5  6  1  0
  5  7  1  0
  5  8  1  0
  8  9  2  0
  9 10  1  0
 10 11  2  0
 11 12  1  0
 11 13  1  0
 13 14  2  0
 14 15  1  0
 14 16  1  0
 16 17  1  0
 16 18  2  0
 18 19  1  0
  9 20  1  0
 20 21  2  0
 21 22  1  0
 21 23  1  0
 23 24  1  0
  4 25  2  0
 25 26  1  0
 25 27  1  0
 27 28  1  0
 27 29  2  0
 29 30  1  0
 29  2  1  0
 23  8  1  0
 18 10  1  0
M  END
>  <cnnaffinity>  (1) 
-5.36835

>  <filename>  (1) 
c1ccc(Cc2[nH]cnc2-c2cccnc2)nc1

$$$$
