
     RDKit          3D

 43 47  0  0  0  0  0  0  0  0999 V2000
    8.2838    6.5103   23.0718 C   0  0  0  0  0  0  0  0  0  0  0  0
    7.0928    6.0803   22.4823 C   0  0  0  0  0  0  0  0  0  0  0  0
    6.9875    4.7319   22.1354 C   0  0  0  0  0  0  0  0  0  0  0  0
    8.0811    3.8777   22.3501 C   0  0  0  0  0  0  0  0  0  0  0  0
    8.0351    2.4397   21.8936 C   0  0  0  0  0  0  0  0  0  0  0  0
    7.3241    1.4847   22.8959 C   0  0  0  0  0  0  0  0  0  0  0  0
    7.3771    0.0360   22.5133 C   0  0  0  0  0  0  0  0  0  0  0  0
    7.9827   -0.8930   23.2268 N   0  0  0  0  0  0  0  0  0  0  0  0
    7.9398   -1.9850   22.4224 C   0  0  0  0  0  0  0  0  0  0  0  0
    8.7215   -3.2220   22.6685 C   0  0  0  0  0  0  0  0  0  0  0  0
    8.0691   -4.5946   22.4948 C   0  0  0  0  0  0  0  0  0  0  0  0
    8.6019   -4.1531   23.8254 C   0  0  0  0  0  0  0  0  0  0  0  0
    8.1835   -4.2085   25.2513 C   0  0  0  0  0  0  0  0  0  0  0  0
    9.5914   -4.6380   24.8251 C   0  0  0  0  0  0  0  0  0  0  0  0
   10.4043   -3.9528   25.0736 H   0  0  0  0  0  0  0  0  0  0  0  0
    9.8575   -5.6945   24.8217 H   0  0  0  0  0  0  0  0  0  0  0  0
    7.4687   -4.9941   25.5013 H   0  0  0  0  0  0  0  0  0  0  0  0
    8.0714   -3.2647   25.7833 H   0  0  0  0  0  0  0  0  0  0  0  0
    8.6145   -5.3688   21.9561 H   0  0  0  0  0  0  0  0  0  0  0  0
    6.9865   -4.6063   22.3650 H   0  0  0  0  0  0  0  0  0  0  0  0
    9.7441   -3.1043   22.3033 H   0  0  0  0  0  0  0  0  0  0  0  0
    7.3426   -1.7947   21.2607 N   0  0  0  0  0  0  0  0  0  0  0  0
    6.9521   -0.4903   21.3205 N   0  0  0  0  0  0  0  0  0  0  0  0
    6.4379    0.1238   20.1403 C   0  0  0  0  0  0  0  0  0  0  0  0
    5.4463    1.1151   20.1475 C   0  0  0  0  0  0  0  0  0  0  0  0
    5.1102    1.7208   18.9288 C   0  0  0  0  0  0  0  0  0  0  0  0
    5.7327    1.2905   17.7539 C   0  0  0  0  0  0  0  0  0  0  0  0
    6.6522    0.3075   17.7359 N   0  0  0  0  0  0  0  0  0  0  0  0
    6.9824   -0.2597   18.8980 C   0  0  0  0  0  0  0  0  0  0  0  0
    7.7307   -1.0503   18.8703 H   0  0  0  0  0  0  0  0  0  0  0  0
    5.4869    1.7360   16.7903 H   0  0  0  0  0  0  0  0  0  0  0  0
    4.3771    2.5205   18.8801 H   0  0  0  0  0  0  0  0  0  0  0  0
    4.9541    1.4141   21.0732 H   0  0  0  0  0  0  0  0  0  0  0  0
    7.7976    1.5461   23.8827 H   0  0  0  0  0  0  0  0  0  0  0  0
    6.2771    1.7763   23.0326 H   0  0  0  0  0  0  0  0  0  0  0  0
    9.0674    2.1035   21.7398 H   0  0  0  0  0  0  0  0  0  0  0  0
    7.5256    2.3952   20.9236 H   0  0  0  0  0  0  0  0  0  0  0  0
    9.2007    4.2812   22.9685 N   0  0  0  0  0  0  0  0  0  0  0  0
    9.2942    5.5727   23.3044 C   0  0  0  0  0  0  0  0  0  0  0  0
   10.2320    5.8740   23.7703 H   0  0  0  0  0  0  0  0  0  0  0  0
    6.0899    4.3333   21.6726 H   0  0  0  0  0  0  0  0  0  0  0  0
    6.2786    6.7759   22.2706 H   0  0  0  0  0  0  0  0  0  0  0  0
    8.4471    7.5447   23.3475 H   0  0  0  0  0  0  0  0  0  0  0  0
  1  2  2  0
  2  3  1  0
  3  4  2  0
  4  5  1  0
  5  6  1  0
  6  7  1  0
  7  8  2  0
  8  9  1  0
  9 10  1  0
 10 11  1  0
 11 12  1  0
 12 13  1  0
 13 14  1  0
 14 15  1  0
 14 16  1  0
 13 17  1  0
 13 18  1  0
 11 19  1  0
 11 20  1  0
 10 21  1  0
  9 22  2  0
 22 23  1  0
 23 24  1  0
 24 25  2  0
 25 26  1  0
 26 27  2  0
 27 28  1  0
 28 29  2  0
 29 30  1  0
 27 31  1  0
 26 32  1  0
 25 33  1  0
  6 34  1  0
  6 35  1  0
  5 36  1  0
  5 37  1  0
  4 38  1  0
 38 39  2  0
 39 40  1  0
  3 41  1  0
  2 42  1  0
  1 43  1  0
 39  1  1  0
 23  7  1  0
 29 24  1  0
 12 10  1  0
 14 12  1  0
M  END
>  <cnnaffinity>  (1) 
-6.17554

>  <filename>  (1) 
c1ccc(CCc2nc(C3CC34CC4)nn2-c2cccnc2)nc1

$$$$
