
     RDKit          3D

 41 44  0  0  0  0  0  0  0  0999 V2000
   13.0024    2.2903   23.7277 C   0  0  0  0  0  0  0  0  0  0  0  0
   12.3239    3.4950   23.4967 C   0  0  0  0  0  0  0  0  0  0  0  0
   10.9310    3.4924   23.4226 C   0  0  0  0  0  0  0  0  0  0  0  0
   10.2225    2.2913   23.5649 C   0  0  0  0  0  0  0  0  0  0  0  0
    8.5241    2.2470   23.0278 S   0  0  0  0  0  0  0  0  0  0  0  0
    8.9047    1.9927   21.2509 C   0  0  0  0  0  0  0  0  0  0  0  0
    9.4883    0.6025   20.9288 C   0  0  0  0  0  0  0  0  0  0  0  0
    8.6221   -0.5136   21.4185 C   0  0  0  0  0  0  0  0  0  0  0  0
    8.8354   -1.3808   22.3860 N   0  0  0  0  0  0  0  0  0  0  0  0
    7.6349   -2.0172   22.5026 C   0  0  0  0  0  0  0  0  0  0  0  0
    7.4279   -3.0735   23.5080 C   0  0  0  0  0  0  0  0  0  0  0  0
    6.0487   -3.4815   23.9816 C   0  0  0  0  0  0  0  0  0  0  0  0
    6.8533   -4.4319   23.1495 C   0  0  0  0  0  0  0  0  0  0  0  0
    6.5320   -4.5892   22.1184 H   0  0  0  0  0  0  0  0  0  0  0  0
    7.3152   -5.2897   23.6354 H   0  0  0  0  0  0  0  0  0  0  0  0
    5.9390   -3.6757   25.0479 H   0  0  0  0  0  0  0  0  0  0  0  0
    5.1971   -3.0043   23.4931 H   0  0  0  0  0  0  0  0  0  0  0  0
    8.2285   -3.0537   24.2425 H   0  0  0  0  0  0  0  0  0  0  0  0
    6.7089   -1.5990   21.6607 N   0  0  0  0  0  0  0  0  0  0  0  0
    7.3580   -0.6596   20.9403 N   0  0  0  0  0  0  0  0  0  0  0  0
    6.6790    0.0075   19.8866 C   0  0  0  0  0  0  0  0  0  0  0  0
    5.4644    0.6398   20.1534 C   0  0  0  0  0  0  0  0  0  0  0  0
    4.8380    1.3122   19.1029 C   0  0  0  0  0  0  0  0  0  0  0  0
    5.4275    1.3088   17.8324 C   0  0  0  0  0  0  0  0  0  0  0  0
    6.5742    0.6655   17.5648 N   0  0  0  0  0  0  0  0  0  0  0  0
    7.1760    0.0264   18.5747 C   0  0  0  0  0  0  0  0  0  0  0  0
    8.0944   -0.5068   18.3376 H   0  0  0  0  0  0  0  0  0  0  0  0
    4.9568    1.8237   16.9964 H   0  0  0  0  0  0  0  0  0  0  0  0
    3.8978    1.8261   19.2585 H   0  0  0  0  0  0  0  0  0  0  0  0
    5.0447    0.5920   21.1599 H   0  0  0  0  0  0  0  0  0  0  0  0
    9.5905    0.5100   19.8432 H   0  0  0  0  0  0  0  0  0  0  0  0
   10.4799    0.4852   21.3714 H   0  0  0  0  0  0  0  0  0  0  0  0
    9.6246    2.7662   20.9665 H   0  0  0  0  0  0  0  0  0  0  0  0
    7.9826    2.1718   20.6881 H   0  0  0  0  0  0  0  0  0  0  0  0
   10.9007    1.1018   23.8765 C   0  0  0  0  0  0  0  0  0  0  0  0
   12.2956    1.1049   23.9659 C   0  0  0  0  0  0  0  0  0  0  0  0
   12.8315    0.1808   24.1746 H   0  0  0  0  0  0  0  0  0  0  0  0
   10.3497    0.1638   23.9185 H   0  0  0  0  0  0  0  0  0  0  0  0
   10.3820    4.3967   23.1676 H   0  0  0  0  0  0  0  0  0  0  0  0
   12.8652    4.4243   23.3307 H   0  0  0  0  0  0  0  0  0  0  0  0
   14.0839    2.2620   23.6967 H   0  0  0  0  0  0  0  0  0  0  0  0
  1  2  2  0
  2  3  1  0
  3  4  2  0
  4  5  1  0
  5  6  1  0
  6  7  1  0
  7  8  1  0
  8  9  2  0
  9 10  1  0
 10 11  1  0
 11 12  1  0
 12 13  1  0
 13 14  1  0
 13 15  1  0
 12 16  1  0
 12 17  1  0
 11 18  1  0
 10 19  2  0
 19 20  1  0
 20 21  1  0
 21 22  2  0
 22 23  1  0
 23 24  2  0
 24 25  1  0
 25 26  2  0
 26 27  1  0
 24 28  1  0
 23 29  1  0
 22 30  1  0
  7 31  1  0
  7 32  1  0
  6 33  1  0
  6 34  1  0
  4 35  1  0
 35 36  2  0
 36 37  1  0
 35 38  1  0
  3 39  1  0
  2 40  1  0
  1 41  1  0
 36  1  1  0
 20  8  1  0
 26 21  1  0
 13 11  1  0
M  END
>  <cnnaffinity>  (1) 
-6.09335

>  <filename>  (1) 
c1ccc(SCCc2nc(C3CC3)nn2-c2cccnc2)cc1

$$$$
