
     RDKit          3D

 33 36  0  0  0  0  0  0  0  0999 V2000
    4.9673    1.8025   16.9152 H   0  0  0  0  0  0  0  0  0  0  0  0
    5.4471    1.3141   17.7644 C   0  0  0  0  0  0  0  0  0  0  0  0
    6.6134    0.7009   17.5171 N   0  0  0  0  0  0  0  0  0  0  0  0
    7.2182    0.0884   18.5423 C   0  0  0  0  0  0  0  0  0  0  0  0
    8.1616   -0.4034   18.3132 H   0  0  0  0  0  0  0  0  0  0  0  0
    6.7012    0.0547   19.8509 C   0  0  0  0  0  0  0  0  0  0  0  0
    7.3991   -0.6749   20.9274 C   0  0  0  0  0  0  0  0  0  0  0  0
    8.6025   -1.2383   20.7243 N   0  0  0  0  0  0  0  0  0  0  0  0
    8.8218   -1.8770   21.8957 N   0  0  0  0  0  0  0  0  0  0  0  0
    9.8113   -2.7198   22.3702 C   0  0  0  0  0  0  0  0  0  0  0  0
   10.7412   -2.8282   21.8471 H   0  0  0  0  0  0  0  0  0  0  0  0
    9.3565   -3.2067   23.5484 C   0  0  0  0  0  0  0  0  0  0  0  0
    9.7761   -3.9393   24.2222 H   0  0  0  0  0  0  0  0  0  0  0  0
    8.1071   -2.6394   23.8344 N   0  0  0  0  0  0  0  0  0  0  0  0
    6.9921   -3.2336   24.9975 S   0  0  0  0  0  0  0  0  0  0  0  0
    6.0421   -4.4104   23.9948 C   0  0  0  0  0  0  0  0  0  0  0  0
    6.4977   -5.7285   23.8481 C   0  0  0  0  0  0  0  0  0  0  0  0
    7.3611   -6.0469   24.4243 H   0  0  0  0  0  0  0  0  0  0  0  0
    5.8499   -6.6111   22.9735 C   0  0  0  0  0  0  0  0  0  0  0  0
    6.2406   -7.6156   22.8234 H   0  0  0  0  0  0  0  0  0  0  0  0
    4.7059   -6.1946   22.2814 C   0  0  0  0  0  0  0  0  0  0  0  0
    4.1860   -6.8838   21.6204 H   0  0  0  0  0  0  0  0  0  0  0  0
    4.2081   -4.9016   22.4798 C   0  0  0  0  0  0  0  0  0  0  0  0
    3.2769   -4.6017   22.0095 H   0  0  0  0  0  0  0  0  0  0  0  0
    4.8872   -4.0031   23.3113 C   0  0  0  0  0  0  0  0  0  0  0  0
    4.5145   -2.9954   23.4532 H   0  0  0  0  0  0  0  0  0  0  0  0
    7.8088   -1.7769   22.7845 C   0  0  0  0  0  0  0  0  0  0  0  0
    6.8757   -0.9225   22.2210 C   0  0  0  0  0  0  0  0  0  0  0  0
    6.0416   -0.4304   22.6814 H   0  0  0  0  0  0  0  0  0  0  0  0
    5.4784    0.7028   20.0880 C   0  0  0  0  0  0  0  0  0  0  0  0
    5.0313    0.7202   21.0846 H   0  0  0  0  0  0  0  0  0  0  0  0
    4.8408    1.3368   19.0245 C   0  0  0  0  0  0  0  0  0  0  0  0
    3.8937    1.8439   19.1648 H   0  0  0  0  0  0  0  0  0  0  0  0
  1  2  1  0
  2  3  2  0
  3  4  1  0
  4  5  1  0
  4  6  2  0
  6  7  1  0
  7  8  2  0
  8  9  1  0
  9 10  1  0
 10 11  1  0
 10 12  2  0
 12 13  1  0
 12 14  1  0
 14 15  1  0
 15 16  1  0
 16 17  2  0
 17 18  1  0
 17 19  1  0
 19 20  1  0
 19 21  2  0
 21 22  1  0
 21 23  1  0
 23 24  1  0
 23 25  2  0
 25 26  1  0
 14 27  1  0
 27 28  2  0
 28 29  1  0
  6 30  1  0
 30 31  1  0
 30 32  2  0
 32 33  1  0
 32  2  1  0
 28  7  1  0
 27  9  1  0
 25 16  1  0
M  END
>  <cnnaffinity>  (1) 
-5.57005

>  <filename>  (1) 
c1ccc(Sn2ccn3nc(-c4cccnc4)cc23)cc1

$$$$
