
     RDKit          3D

 47 51  0  0  0  0  0  0  0  0999 V2000
   13.9031   -0.3013   22.5974 C   0  0  0  0  0  0  0  0  0  0  0  0
   13.1639   -1.3232   22.0005 C   0  0  0  0  0  0  0  0  0  0  0  0
   11.7814   -1.2062   21.8557 C   0  0  0  0  0  0  0  0  0  0  0  0
   11.1259   -0.0291   22.2744 C   0  0  0  0  0  0  0  0  0  0  0  0
    9.6551    0.1178   22.1263 C   0  0  0  0  0  0  0  0  0  0  0  0
    8.8556   -0.7876   21.5778 N   0  0  0  0  0  0  0  0  0  0  0  0
    7.6253   -0.2287   21.6828 N   0  0  0  0  0  0  0  0  0  0  0  0
    6.4629   -0.8245   21.0188 C   0  0  0  0  0  0  0  0  0  0  0  0
    6.0356   -0.0515   19.7838 C   0  0  0  0  0  0  0  0  0  0  0  0
    4.8207    0.6311   19.6448 C   0  0  0  0  0  0  0  0  0  0  0  0
    4.6300    1.4501   18.5241 C   0  0  0  0  0  0  0  0  0  0  0  0
    5.6441    1.5268   17.5665 C   0  0  0  0  0  0  0  0  0  0  0  0
    6.7772    0.8132   17.6407 N   0  0  0  0  0  0  0  0  0  0  0  0
    6.9550    0.0535   18.7267 C   0  0  0  0  0  0  0  0  0  0  0  0
    7.8874   -0.5086   18.7705 H   0  0  0  0  0  0  0  0  0  0  0  0
    5.5450    2.1838   16.7011 H   0  0  0  0  0  0  0  0  0  0  0  0
    3.7305    2.0418   18.3901 H   0  0  0  0  0  0  0  0  0  0  0  0
    4.0312    0.5394   20.3946 H   0  0  0  0  0  0  0  0  0  0  0  0
    6.7530   -1.8488   20.7609 H   0  0  0  0  0  0  0  0  0  0  0  0
    5.6413   -0.8871   21.7372 H   0  0  0  0  0  0  0  0  0  0  0  0
    7.7305    0.9636   22.3072 C   0  0  0  0  0  0  0  0  0  0  0  0
    6.5590    1.7067   22.8993 C   0  0  0  0  0  0  0  0  0  0  0  0
    6.2419    1.1742   24.2841 C   0  0  0  0  0  0  0  0  0  0  0  0
    5.1210    0.9127   25.0330 C   0  0  0  0  0  0  0  0  0  0  0  0
    5.4572    0.3218   26.2232 N   0  0  0  0  0  0  0  0  0  0  0  0
    6.7717    0.2159   26.2147 C   0  0  0  0  0  0  0  0  0  0  0  0
    7.5683   -0.5739   27.1784 C   0  0  0  0  0  0  0  0  0  0  0  0
    9.0608   -0.7817   27.0727 C   0  0  0  0  0  0  0  0  0  0  0  0
    8.1429   -1.9177   26.7523 C   0  0  0  0  0  0  0  0  0  0  0  0
    8.0651   -2.7581   27.4362 H   0  0  0  0  0  0  0  0  0  0  0  0
    8.0285   -2.1854   25.7031 H   0  0  0  0  0  0  0  0  0  0  0  0
    9.6010   -0.3168   26.2495 H   0  0  0  0  0  0  0  0  0  0  0  0
    9.6289   -0.8222   27.9989 H   0  0  0  0  0  0  0  0  0  0  0  0
    7.1470   -0.5090   28.1749 H   0  0  0  0  0  0  0  0  0  0  0  0
    7.2786    0.7688   25.0869 N   0  0  0  0  0  0  0  0  0  0  0  0
    8.2520    0.8917   24.8406 H   0  0  0  0  0  0  0  0  0  0  0  0
    4.0849    1.0965   24.7854 H   0  0  0  0  0  0  0  0  0  0  0  0
    5.6792    1.6637   22.2483 H   0  0  0  0  0  0  0  0  0  0  0  0
    6.8656    2.7541   22.9739 H   0  0  0  0  0  0  0  0  0  0  0  0
    8.9950    1.2154   22.5940 N   0  0  0  0  0  0  0  0  0  0  0  0
   11.8868    1.0178   22.8379 C   0  0  0  0  0  0  0  0  0  0  0  0
   13.2615    0.8600   23.0333 C   0  0  0  0  0  0  0  0  0  0  0  0
   13.8333    1.6492   23.5092 H   0  0  0  0  0  0  0  0  0  0  0  0
   11.3940    1.9496   23.1111 H   0  0  0  0  0  0  0  0  0  0  0  0
   11.2068   -2.0213   21.4168 H   0  0  0  0  0  0  0  0  0  0  0  0
   13.6728   -2.2264   21.6771 H   0  0  0  0  0  0  0  0  0  0  0  0
   14.9760   -0.4122   22.7086 H   0  0  0  0  0  0  0  0  0  0  0  0
  1  2  2  0
  2  3  1  0
  3  4  2  0
  4  5  1  0
  5  6  2  0
  6  7  1  0
  7  8  1  0
  8  9  1  0
  9 10  2  0
 10 11  1  0
 11 12  2  0
 12 13  1  0
 13 14  2  0
 14 15  1  0
 12 16  1  0
 11 17  1  0
 10 18  1  0
  8 19  1  0
  8 20  1  0
  7 21  1  0
 21 22  1  0
 22 23  1  0
 23 24  2  0
 24 25  1  0
 25 26  2  0
 26 27  1  0
 27 28  1  0
 28 29  1  0
 29 30  1  0
 29 31  1  0
 28 32  1  0
 28 33  1  0
 27 34  1  0
 26 35  1  0
 35 36  1  0
 24 37  1  0
 22 38  1  0
 22 39  1  0
 21 40  2  0
  4 41  1  0
 41 42  2  0
 42 43  1  0
 41 44  1  0
  3 45  1  0
  2 46  1  0
  1 47  1  0
 42  1  1  0
 40  5  1  0
 14  9  1  0
 35 23  1  0
 29 27  1  0
M  END
>  <cnnaffinity>  (1) 
-6.15919

>  <filename>  (1) 
c1ccc(-c2nc(Cc3cnc(C4CC4)[nH]3)n(Cc3cccnc3)n2)cc1

$$$$
