
     RDKit          3D

 40 43  0  0  0  0  0  0  0  0999 V2000
    4.9510    1.8611   16.9126 H   0  0  0  0  0  0  0  0  0  0  0  0
    5.3862    1.3126   17.7458 C   0  0  0  0  0  0  0  0  0  0  0  0
    6.5181    0.6404   17.4843 N   0  0  0  0  0  0  0  0  0  0  0  0
    7.0904   -0.0155   18.4990 C   0  0  0  0  0  0  0  0  0  0  0  0
    8.0105   -0.5441   18.2590 H   0  0  0  0  0  0  0  0  0  0  0  0
    6.5860   -0.0147   19.8151 C   0  0  0  0  0  0  0  0  0  0  0  0
    7.3289   -0.6398   20.9197 C   0  0  0  0  0  0  0  0  0  0  0  0
    8.1309   -1.6907   20.7220 N   0  0  0  0  0  0  0  0  0  0  0  0
    8.6542   -1.9048   21.9298 N   0  0  0  0  0  0  0  0  0  0  0  0
    8.2514   -1.0737   22.8956 C   0  0  0  0  0  0  0  0  0  0  0  0
    7.3504   -0.2146   22.3023 C   0  0  0  0  0  0  0  0  0  0  0  0
    6.8359    0.9650   22.9102 N   0  0  0  0  0  0  0  0  0  0  0  0
    6.9940    0.8552   23.9087 H   0  0  0  0  0  0  0  0  0  0  0  0
    7.5500    2.1770   22.4427 C   0  0  0  0  0  0  0  0  0  0  0  0
    7.3204    2.2602   21.3763 H   0  0  0  0  0  0  0  0  0  0  0  0
    7.0905    3.0384   22.9424 H   0  0  0  0  0  0  0  0  0  0  0  0
    9.0670    2.1681   22.6403 C   0  0  0  0  0  0  0  0  0  0  0  0
    9.9144    1.6900   21.6174 C   0  0  0  0  0  0  0  0  0  0  0  0
    9.4760    1.3044   20.6991 H   0  0  0  0  0  0  0  0  0  0  0  0
   11.3016    1.6778   21.7754 C   0  0  0  0  0  0  0  0  0  0  0  0
   11.9439    1.3799   20.9504 H   0  0  0  0  0  0  0  0  0  0  0  0
   11.8683    2.0834   22.9877 C   0  0  0  0  0  0  0  0  0  0  0  0
   12.9485    2.0970   23.1110 H   0  0  0  0  0  0  0  0  0  0  0  0
   11.0389    2.5156   24.0252 C   0  0  0  0  0  0  0  0  0  0  0  0
   11.4841    2.8249   24.9604 H   0  0  0  0  0  0  0  0  0  0  0  0
    9.6518    2.5676   23.8549 C   0  0  0  0  0  0  0  0  0  0  0  0
    9.0240    2.9306   24.6681 H   0  0  0  0  0  0  0  0  0  0  0  0
    9.0336   -1.2981   24.1530 C   0  0  0  0  0  0  0  0  0  0  0  0
    8.3841   -1.5827   24.9875 H   0  0  0  0  0  0  0  0  0  0  0  0
    9.5562   -0.3795   24.4393 H   0  0  0  0  0  0  0  0  0  0  0  0
   10.0347   -2.4141   23.7393 C   0  0  0  0  0  0  0  0  0  0  0  0
   11.0317   -1.9944   23.6512 H   0  0  0  0  0  0  0  0  0  0  0  0
   10.0649   -3.2219   24.4713 H   0  0  0  0  0  0  0  0  0  0  0  0
    9.6219   -2.8949   22.3206 C   0  0  0  0  0  0  0  0  0  0  0  0
   10.4621   -2.8581   21.6255 H   0  0  0  0  0  0  0  0  0  0  0  0
    9.1629   -3.8882   22.2929 H   0  0  0  0  0  0  0  0  0  0  0  0
    5.3900    0.6738   20.0664 C   0  0  0  0  0  0  0  0  0  0  0  0
    4.9881    0.7145   21.0823 H   0  0  0  0  0  0  0  0  0  0  0  0
    4.7738    1.3345   19.0043 C   0  0  0  0  0  0  0  0  0  0  0  0
    3.8507    1.8851   19.1418 H   0  0  0  0  0  0  0  0  0  0  0  0
  1  2  1  0
  2  3  2  0
  3  4  1  0
  4  5  1  0
  4  6  2  0
  6  7  1  0
  7  8  2  0
  8  9  1  0
  9 10  1  0
 10 11  2  0
 11 12  1  0
 12 13  1  0
 12 14  1  0
 14 15  1  0
 14 16  1  0
 14 17  1  0
 17 18  2  0
 18 19  1  0
 18 20  1  0
 20 21  1  0
 20 22  2  0
 22 23  1  0
 22 24  1  0
 24 25  1  0
 24 26  2  0
 26 27  1  0
 10 28  1  0
 28 29  1  0
 28 30  1  0
 28 31  1  0
 31 32  1  0
 31 33  1  0
 31 34  1  0
 34 35  1  0
 34 36  1  0
  6 37  1  0
 37 38  1  0
 37 39  2  0
 39 40  1  0
 39  2  1  0
 11  7  1  0
 26 17  1  0
 34  9  1  0
M  END
>  <cnnaffinity>  (1) 
-5.86445

>  <filename>  (1) 
c1ccc(CNc2c(-c3cccnc3)nn3c2CCC3)cc1

$$$$
