
     RDKit          3D

 42 45  0  0  0  0  0  0  0  0999 V2000
    4.9321    1.8148   16.9915 H   0  0  0  0  0  0  0  0  0  0  0  0
    5.4153    1.2959   17.8180 C   0  0  0  0  0  0  0  0  0  0  0  0
    6.5739    0.6754   17.5387 N   0  0  0  0  0  0  0  0  0  0  0  0
    7.2038    0.0559   18.5467 C   0  0  0  0  0  0  0  0  0  0  0  0
    8.1413   -0.4338   18.2881 H   0  0  0  0  0  0  0  0  0  0  0  0
    6.7257    0.0007   19.8752 C   0  0  0  0  0  0  0  0  0  0  0  0
    7.4590   -0.7156   20.9563 C   0  0  0  0  0  0  0  0  0  0  0  0
    9.1565   -1.0964   20.9018 S   0  0  0  0  0  0  0  0  0  0  0  0
    9.0952   -1.8756   22.4346 C   0  0  0  0  0  0  0  0  0  0  0  0
    9.9722   -2.3215   22.8721 H   0  0  0  0  0  0  0  0  0  0  0  0
    7.8486   -1.8465   22.9961 C   0  0  0  0  0  0  0  0  0  0  0  0
    7.5275   -2.3785   24.2407 N   0  0  0  0  0  0  0  0  0  0  0  0
    8.0873   -3.6762   24.6319 C   0  0  0  0  0  0  0  0  0  0  0  0
    8.0027   -4.3708   23.7835 H   0  0  0  0  0  0  0  0  0  0  0  0
    9.1633   -3.5885   24.8496 H   0  0  0  0  0  0  0  0  0  0  0  0
    7.4173   -4.2603   25.9005 C   0  0  0  0  0  0  0  0  0  0  0  0
    7.7059   -5.3079   26.0192 H   0  0  0  0  0  0  0  0  0  0  0  0
    7.8536   -3.7298   26.7592 H   0  0  0  0  0  0  0  0  0  0  0  0
    5.9580   -4.1350   25.9642 N   0  0  0  0  0  0  0  0  0  0  0  0
    5.1119   -5.2627   25.9149 C   0  0  0  0  0  0  0  0  0  0  0  0
    3.9700   -5.3090   26.7352 C   0  0  0  0  0  0  0  0  0  0  0  0
    3.7217   -4.4424   27.3415 H   0  0  0  0  0  0  0  0  0  0  0  0
    3.1945   -6.4708   26.7956 C   0  0  0  0  0  0  0  0  0  0  0  0
    2.3514   -6.5361   27.4784 H   0  0  0  0  0  0  0  0  0  0  0  0
    3.4998   -7.5589   25.9733 C   0  0  0  0  0  0  0  0  0  0  0  0
    2.9316   -8.4806   26.0508 H   0  0  0  0  0  0  0  0  0  0  0  0
    4.5555   -7.4694   25.0650 C   0  0  0  0  0  0  0  0  0  0  0  0
    4.7646   -8.2963   24.3938 H   0  0  0  0  0  0  0  0  0  0  0  0
    5.3722   -6.3369   25.0476 C   0  0  0  0  0  0  0  0  0  0  0  0
    6.2204   -6.2736   24.3757 H   0  0  0  0  0  0  0  0  0  0  0  0
    5.3760   -2.8890   25.4532 C   0  0  0  0  0  0  0  0  0  0  0  0
    4.7378   -3.1161   24.5885 H   0  0  0  0  0  0  0  0  0  0  0  0
    4.7159   -2.4404   26.2130 H   0  0  0  0  0  0  0  0  0  0  0  0
    6.4480   -1.8455   25.0752 C   0  0  0  0  0  0  0  0  0  0  0  0
    6.8684   -1.4824   26.0230 H   0  0  0  0  0  0  0  0  0  0  0  0
    5.9866   -0.9875   24.5798 H   0  0  0  0  0  0  0  0  0  0  0  0
    6.9256   -1.1859   22.1190 C   0  0  0  0  0  0  0  0  0  0  0  0
    5.8747   -1.1309   22.3250 H   0  0  0  0  0  0  0  0  0  0  0  0
    5.4968    0.6440   20.1308 C   0  0  0  0  0  0  0  0  0  0  0  0
    5.0774    0.6491   21.1365 H   0  0  0  0  0  0  0  0  0  0  0  0
    4.8330    1.3001   19.0893 C   0  0  0  0  0  0  0  0  0  0  0  0
    3.8911    1.8168   19.2506 H   0  0  0  0  0  0  0  0  0  0  0  0
  1  2  1  0
  2  3  2  0
  3  4  1  0
  4  5  1  0
  4  6  2  0
  6  7  1  0
  7  8  1  0
  8  9  1  0
  9 10  1  0
  9 11  2  0
 11 12  1  0
 12 13  1  0
 13 14  1  0
 13 15  1  0
 13 16  1  0
 16 17  1  0
 16 18  1  0
 16 19  1  0
 19 20  1  0
 20 21  2  0
 21 22  1  0
 21 23  1  0
 23 24  1  0
 23 25  2  0
 25 26  1  0
 25 27  1  0
 27 28  1  0
 27 29  2  0
 29 30  1  0
 19 31  1  0
 31 32  1  0
 31 33  1  0
 31 34  1  0
 34 35  1  0
 34 36  1  0
 11 37  1  0
 37 38  1  0
  6 39  1  0
 39 40  1  0
 39 41  2  0
 41 42  1  0
 41  2  1  0
 37  7  2  0
 34 12  1  0
 29 20  1  0
M  END
>  <cnnaffinity>  (1) 
-5.53917

>  <filename>  (1) 
c1ccc(N2CCN(c3csc(-c4cccnc4)c3)CC2)cc1

$$$$
