
     RDKit          3D

 44 47  0  0  0  0  0  0  0  0999 V2000
    6.6312    3.2595   27.4029 C   0  0  0  0  0  0  0  0  0  0  0  0
    7.8587    3.6370   26.8519 C   0  0  0  0  0  0  0  0  0  0  0  0
    8.2557    3.0566   25.6467 C   0  0  0  0  0  0  0  0  0  0  0  0
    7.4010    2.1224   25.0164 C   0  0  0  0  0  0  0  0  0  0  0  0
    7.7984    1.4949   23.7048 C   0  0  0  0  0  0  0  0  0  0  0  0
    7.1381    0.5074   23.1115 N   0  0  0  0  0  0  0  0  0  0  0  0
    7.8866    0.2371   22.0269 N   0  0  0  0  0  0  0  0  0  0  0  0
    7.3972   -0.6928   21.0151 C   0  0  0  0  0  0  0  0  0  0  0  0
    6.6566   -0.0061   19.8797 C   0  0  0  0  0  0  0  0  0  0  0  0
    5.4443    0.6477   20.1367 C   0  0  0  0  0  0  0  0  0  0  0  0
    4.7996    1.3071   19.0861 C   0  0  0  0  0  0  0  0  0  0  0  0
    5.3926    1.2983   17.8201 C   0  0  0  0  0  0  0  0  0  0  0  0
    6.5516    0.6768   17.5555 N   0  0  0  0  0  0  0  0  0  0  0  0
    7.1590    0.0519   18.5716 C   0  0  0  0  0  0  0  0  0  0  0  0
    8.1058   -0.4311   18.3217 H   0  0  0  0  0  0  0  0  0  0  0  0
    4.9246    1.8104   16.9791 H   0  0  0  0  0  0  0  0  0  0  0  0
    3.8689    1.8458   19.2339 H   0  0  0  0  0  0  0  0  0  0  0  0
    5.0415    0.6465   21.1525 H   0  0  0  0  0  0  0  0  0  0  0  0
    6.7387   -1.3672   21.5683 H   0  0  0  0  0  0  0  0  0  0  0  0
    8.2410   -1.2801   20.6338 H   0  0  0  0  0  0  0  0  0  0  0  0
    8.9563    1.0602   21.9922 C   0  0  0  0  0  0  0  0  0  0  0  0
   10.0540    0.8955   20.9926 C   0  0  0  0  0  0  0  0  0  0  0  0
   11.0285   -0.2626   21.3355 C   0  0  0  0  0  0  0  0  0  0  0  0
   11.7446    0.0233   22.6294 C   0  0  0  0  0  0  0  0  0  0  0  0
   12.8197    0.9232   22.6641 C   0  0  0  0  0  0  0  0  0  0  0  0
   13.4228    1.2158   23.8811 C   0  0  0  0  0  0  0  0  0  0  0  0
   12.9465    0.5927   25.0370 C   0  0  0  0  0  0  0  0  0  0  0  0
   11.8663   -0.1938   25.0407 N   0  0  0  0  0  0  0  0  0  0  0  0
   11.2817   -0.4625   23.8628 C   0  0  0  0  0  0  0  0  0  0  0  0
   10.4356   -1.1542   23.9043 H   0  0  0  0  0  0  0  0  0  0  0  0
   13.4567    0.6847   25.9930 H   0  0  0  0  0  0  0  0  0  0  0  0
   14.2036    1.9531   23.9072 H   0  0  0  0  0  0  0  0  0  0  0  0
   13.1702    1.4062   21.7531 H   0  0  0  0  0  0  0  0  0  0  0  0
   11.7603   -0.4083   20.5358 H   0  0  0  0  0  0  0  0  0  0  0  0
   10.4896   -1.2185   21.4050 H   0  0  0  0  0  0  0  0  0  0  0  0
    9.5995    0.7343   20.0130 H   0  0  0  0  0  0  0  0  0  0  0  0
   10.5936    1.8471   20.9441 H   0  0  0  0  0  0  0  0  0  0  0  0
    8.9208    1.8834   23.0190 N   0  0  0  0  0  0  0  0  0  0  0  0
    6.2180    1.7664   25.5607 N   0  0  0  0  0  0  0  0  0  0  0  0
    5.8551    2.3212   26.7168 C   0  0  0  0  0  0  0  0  0  0  0  0
    4.8914    1.9916   27.0967 H   0  0  0  0  0  0  0  0  0  0  0  0
    9.2003    3.3079   25.1727 H   0  0  0  0  0  0  0  0  0  0  0  0
    8.4913    4.3745   27.3424 H   0  0  0  0  0  0  0  0  0  0  0  0
    6.2656    3.6681   28.3366 H   0  0  0  0  0  0  0  0  0  0  0  0
  1  2  2  0
  2  3  1  0
  3  4  2  0
  4  5  1  0
  5  6  2  0
  6  7  1  0
  7  8  1  0
  8  9  1  0
  9 10  2  0
 10 11  1  0
 11 12  2  0
 12 13  1  0
 13 14  2  0
 14 15  1  0
 12 16  1  0
 11 17  1  0
 10 18  1  0
  8 19  1  0
  8 20  1  0
  7 21  1  0
 21 22  1  0
 22 23  1  0
 23 24  1  0
 24 25  2  0
 25 26  1  0
 26 27  2  0
 27 28  1  0
 28 29  2  0
 29 30  1  0
 27 31  1  0
 26 32  1  0
 25 33  1  0
 23 34  1  0
 23 35  1  0
 22 36  1  0
 22 37  1  0
 21 38  2  0
  4 39  1  0
 39 40  2  0
 40 41  1  0
  3 42  1  0
  2 43  1  0
  1 44  1  0
 40  1  1  0
 38  5  1  0
 14  9  1  0
 29 24  1  0
M  END
>  <cnnaffinity>  (1) 
-5.99426

>  <filename>  (1) 
c1ccc(-c2nc(CCc3cccnc3)n(Cc3cccnc3)n2)nc1

$$$$
