
     RDKit          3D

 40 43  0  0  0  0  0  0  0  0999 V2000
   12.4793    1.5376   23.5815 C   0  0  0  0  0  0  0  0  0  0  0  0
   12.7834    0.3739   22.8736 C   0  0  0  0  0  0  0  0  0  0  0  0
   11.8710   -0.0466   21.9046 C   0  0  0  0  0  0  0  0  0  0  0  0
   10.7011    0.6932   21.6802 C   0  0  0  0  0  0  0  0  0  0  0  0
    9.6720    0.2371   20.6885 C   0  0  0  0  0  0  0  0  0  0  0  0
    8.6377   -0.5981   21.3316 C   0  0  0  0  0  0  0  0  0  0  0  0
    8.8719   -1.4573   22.2930 N   0  0  0  0  0  0  0  0  0  0  0  0
    7.6440   -1.9635   22.5576 C   0  0  0  0  0  0  0  0  0  0  0  0
    7.3949   -3.0350   23.5884 C   0  0  0  0  0  0  0  0  0  0  0  0
    7.7648   -4.4508   23.0761 C   0  0  0  0  0  0  0  0  0  0  0  0
    8.2293   -5.1638   24.3509 C   0  0  0  0  0  0  0  0  0  0  0  0
    8.7799   -4.0242   25.2187 C   0  0  0  0  0  0  0  0  0  0  0  0
    8.1441   -2.8332   24.7788 O   0  0  0  0  0  0  0  0  0  0  0  0
    8.5459   -4.1442   26.2835 H   0  0  0  0  0  0  0  0  0  0  0  0
    9.8696   -3.9079   25.1196 H   0  0  0  0  0  0  0  0  0  0  0  0
    8.9920   -5.9229   24.1595 H   0  0  0  0  0  0  0  0  0  0  0  0
    7.3890   -5.6565   24.8525 H   0  0  0  0  0  0  0  0  0  0  0  0
    8.5774   -4.3828   22.3414 H   0  0  0  0  0  0  0  0  0  0  0  0
    6.9143   -4.9347   22.5852 H   0  0  0  0  0  0  0  0  0  0  0  0
    6.3274   -2.9681   23.8336 H   0  0  0  0  0  0  0  0  0  0  0  0
    6.6855   -1.5409   21.7528 N   0  0  0  0  0  0  0  0  0  0  0  0
    7.3330   -0.6781   20.9292 N   0  0  0  0  0  0  0  0  0  0  0  0
    6.6476    0.0059   19.8957 C   0  0  0  0  0  0  0  0  0  0  0  0
    5.4339    0.6461   20.1639 C   0  0  0  0  0  0  0  0  0  0  0  0
    4.8111    1.3120   19.1074 C   0  0  0  0  0  0  0  0  0  0  0  0
    5.4001    1.2963   17.8355 C   0  0  0  0  0  0  0  0  0  0  0  0
    6.5582    0.6725   17.5726 N   0  0  0  0  0  0  0  0  0  0  0  0
    7.1648    0.0525   18.5890 C   0  0  0  0  0  0  0  0  0  0  0  0
    8.1135   -0.4283   18.3641 H   0  0  0  0  0  0  0  0  0  0  0  0
    4.9214    1.7861   16.9923 H   0  0  0  0  0  0  0  0  0  0  0  0
    3.8799    1.8409   19.2596 H   0  0  0  0  0  0  0  0  0  0  0  0
    5.0156    0.6099   21.1737 H   0  0  0  0  0  0  0  0  0  0  0  0
   10.0993   -0.4129   19.9231 H   0  0  0  0  0  0  0  0  0  0  0  0
    9.2127    1.1054   20.2178 H   0  0  0  0  0  0  0  0  0  0  0  0
   10.4086    1.8078   22.3556 N   0  0  0  0  0  0  0  0  0  0  0  0
   11.2898    2.2119   23.2828 C   0  0  0  0  0  0  0  0  0  0  0  0
   11.0270    3.1199   23.8206 H   0  0  0  0  0  0  0  0  0  0  0  0
   12.0234   -0.9491   21.3297 H   0  0  0  0  0  0  0  0  0  0  0  0
   13.6953   -0.1927   23.0735 H   0  0  0  0  0  0  0  0  0  0  0  0
   13.1422    1.9186   24.3474 H   0  0  0  0  0  0  0  0  0  0  0  0
  1  2  2  0
  2  3  1  0
  3  4  2  0
  4  5  1  0
  5  6  1  0
  6  7  2  0
  7  8  1  0
  8  9  1  0
  9 10  1  0
 10 11  1  0
 11 12  1  0
 12 13  1  0
 12 14  1  0
 12 15  1  0
 11 16  1  0
 11 17  1  0
 10 18  1  0
 10 19  1  0
  9 20  1  0
  8 21  2  0
 21 22  1  0
 22 23  1  0
 23 24  2  0
 24 25  1  0
 25 26  2  0
 26 27  1  0
 27 28  2  0
 28 29  1  0
 26 30  1  0
 25 31  1  0
 24 32  1  0
  5 33  1  0
  5 34  1  0
  4 35  1  0
 35 36  2  0
 36 37  1  0
  3 38  1  0
  2 39  1  0
  1 40  1  0
 36  1  1  0
 22  6  1  0
 28 23  1  0
 13  9  1  0
M  END
>  <cnnaffinity>  (1) 
-6.12389

>  <filename>  (1) 
c1ccc(Cc2nc(C3CCCO3)nn2-c2cccnc2)nc1

$$$$
