
     RDKit          3D

 29 31  0  0  0  0  0  0  0  0999 V2000
    4.9391    1.7874   16.9964 H   0  0  0  0  0  0  0  0  0  0  0  0
    5.3989    1.2883   17.8479 C   0  0  0  0  0  0  0  0  0  0  0  0
    6.5582    0.6698   17.5946 N   0  0  0  0  0  0  0  0  0  0  0  0
    7.1667    0.0541   18.6086 C   0  0  0  0  0  0  0  0  0  0  0  0
    8.1123   -0.4203   18.3580 H   0  0  0  0  0  0  0  0  0  0  0  0
    6.6606    0.0033   19.9150 C   0  0  0  0  0  0  0  0  0  0  0  0
    7.3968   -0.7067   20.9587 C   0  0  0  0  0  0  0  0  0  0  0  0
    6.8440   -0.7878   22.2281 N   0  0  0  0  0  0  0  0  0  0  0  0
    7.7045   -1.4606   22.9120 C   0  0  0  0  0  0  0  0  0  0  0  0
    7.6801   -1.8280   24.2103 N   0  0  0  0  0  0  0  0  0  0  0  0
    8.3385   -2.5550   24.4086 H   0  0  0  0  0  0  0  0  0  0  0  0
    6.7041   -1.4302   25.1414 C   0  0  0  0  0  0  0  0  0  0  0  0
    6.2032   -0.1231   25.0864 C   0  0  0  0  0  0  0  0  0  0  0  0
    6.5852    0.5280   24.3050 H   0  0  0  0  0  0  0  0  0  0  0  0
    5.2320    0.2873   26.0015 C   0  0  0  0  0  0  0  0  0  0  0  0
    4.8376    1.2987   25.9358 H   0  0  0  0  0  0  0  0  0  0  0  0
    4.7570   -0.6021   26.9715 C   0  0  0  0  0  0  0  0  0  0  0  0
    3.9908   -0.2798   27.6692 H   0  0  0  0  0  0  0  0  0  0  0  0
    5.2731   -1.9007   27.0365 C   0  0  0  0  0  0  0  0  0  0  0  0
    4.9153   -2.5931   27.7949 H   0  0  0  0  0  0  0  0  0  0  0  0
    6.2554   -2.3160   26.1283 C   0  0  0  0  0  0  0  0  0  0  0  0
    6.6675   -3.3197   26.1655 H   0  0  0  0  0  0  0  0  0  0  0  0
    8.7891   -1.8658   22.2289 O   0  0  0  0  0  0  0  0  0  0  0  0
    8.5840   -1.3521   20.9601 C   0  0  0  0  0  0  0  0  0  0  0  0
    9.3508   -1.5084   20.2213 H   0  0  0  0  0  0  0  0  0  0  0  0
    5.4363    0.6503   20.1703 C   0  0  0  0  0  0  0  0  0  0  0  0
    5.0052    0.6369   21.1739 H   0  0  0  0  0  0  0  0  0  0  0  0
    4.8048    1.3056   19.1145 C   0  0  0  0  0  0  0  0  0  0  0  0
    3.8742    1.8403   19.2463 H   0  0  0  0  0  0  0  0  0  0  0  0
  1  2  1  0
  2  3  2  0
  3  4  1  0
  4  5  1  0
  4  6  2  0
  6  7  1  0
  7  8  1  0
  8  9  2  0
  9 10  1  0
 10 11  1  0
 10 12  1  0
 12 13  2  0
 13 14  1  0
 13 15  1  0
 15 16  1  0
 15 17  2  0
 17 18  1  0
 17 19  1  0
 19 20  1  0
 19 21  2  0
 21 22  1  0
  9 23  1  0
 23 24  1  0
 24 25  1  0
  6 26  1  0
 26 27  1  0
 26 28  2  0
 28 29  1  0
 28  2  1  0
 24  7  2  0
 21 12  1  0
M  END
>  <cnnaffinity>  (1) 
-4.89549

>  <filename>  (1) 
c1ccc(Nc2nc(-c3cccnc3)co2)cc1

$$$$
