
     RDKit          3D

 37 40  0  0  0  0  0  0  0  0999 V2000
    4.9424    1.8564   16.9070 H   0  0  0  0  0  0  0  0  0  0  0  0
    5.3855    1.3219   17.7436 C   0  0  0  0  0  0  0  0  0  0  0  0
    6.5286    0.6616   17.4903 N   0  0  0  0  0  0  0  0  0  0  0  0
    7.1079    0.0280   18.5125 C   0  0  0  0  0  0  0  0  0  0  0  0
    8.0269   -0.5109   18.2857 H   0  0  0  0  0  0  0  0  0  0  0  0
    6.6046    0.0358   19.8278 C   0  0  0  0  0  0  0  0  0  0  0  0
    7.3720   -0.5712   20.9203 C   0  0  0  0  0  0  0  0  0  0  0  0
    8.1840   -1.6138   20.7253 N   0  0  0  0  0  0  0  0  0  0  0  0
    8.7051   -1.8233   21.9314 N   0  0  0  0  0  0  0  0  0  0  0  0
    8.3427   -0.9581   22.8850 C   0  0  0  0  0  0  0  0  0  0  0  0
    7.4169   -0.1237   22.2894 C   0  0  0  0  0  0  0  0  0  0  0  0
    6.6957    0.9357   22.8790 N   0  0  0  0  0  0  0  0  0  0  0  0
    6.9160    1.8390   22.4777 H   0  0  0  0  0  0  0  0  0  0  0  0
    6.5233    1.0252   24.2702 C   0  0  0  0  0  0  0  0  0  0  0  0
    6.0793   -0.0660   25.0327 C   0  0  0  0  0  0  0  0  0  0  0  0
    5.9644   -1.0335   24.5565 H   0  0  0  0  0  0  0  0  0  0  0  0
    5.8197    0.0913   26.3993 C   0  0  0  0  0  0  0  0  0  0  0  0
    5.4685   -0.7562   26.9837 H   0  0  0  0  0  0  0  0  0  0  0  0
    6.0155    1.3321   27.0137 C   0  0  0  0  0  0  0  0  0  0  0  0
    5.7894    1.4587   28.0677 H   0  0  0  0  0  0  0  0  0  0  0  0
    6.4934    2.4127   26.2652 C   0  0  0  0  0  0  0  0  0  0  0  0
    6.6696    3.3780   26.7382 H   0  0  0  0  0  0  0  0  0  0  0  0
    6.7465    2.2583   24.8993 C   0  0  0  0  0  0  0  0  0  0  0  0
    7.1330    3.0849   24.3105 H   0  0  0  0  0  0  0  0  0  0  0  0
    9.1052   -1.2270   24.1514 C   0  0  0  0  0  0  0  0  0  0  0  0
    9.5659   -0.3208   24.5524 H   0  0  0  0  0  0  0  0  0  0  0  0
    8.4404   -1.6354   24.9206 H   0  0  0  0  0  0  0  0  0  0  0  0
   10.1674   -2.2518   23.6820 C   0  0  0  0  0  0  0  0  0  0  0  0
   10.3486   -3.0229   24.4312 H   0  0  0  0  0  0  0  0  0  0  0  0
   11.1063   -1.7339   23.4905 H   0  0  0  0  0  0  0  0  0  0  0  0
    9.6740   -2.8086   22.3246 C   0  0  0  0  0  0  0  0  0  0  0  0
   10.4730   -2.8182   21.5852 H   0  0  0  0  0  0  0  0  0  0  0  0
    9.2062   -3.7969   22.3949 H   0  0  0  0  0  0  0  0  0  0  0  0
    5.3735    0.6795   20.0598 C   0  0  0  0  0  0  0  0  0  0  0  0
    4.9242    0.6617   21.0557 H   0  0  0  0  0  0  0  0  0  0  0  0
    4.7617    1.3330   18.9962 C   0  0  0  0  0  0  0  0  0  0  0  0
    3.8277    1.8722   19.1294 H   0  0  0  0  0  0  0  0  0  0  0  0
  1  2  1  0
  2  3  2  0
  3  4  1  0
  4  5  1  0
  4  6  2  0
  6  7  1  0
  7  8  2  0
  8  9  1  0
  9 10  1  0
 10 11  2  0
 11 12  1  0
 12 13  1  0
 12 14  1  0
 14 15  2  0
 15 16  1  0
 15 17  1  0
 17 18  1  0
 17 19  2  0
 19 20  1  0
 19 21  1  0
 21 22  1  0
 21 23  2  0
 23 24  1  0
 10 25  1  0
 25 26  1  0
 25 27  1  0
 25 28  1  0
 28 29  1  0
 28 30  1  0
 28 31  1  0
 31 32  1  0
 31 33  1  0
  6 34  1  0
 34 35  1  0
 34 36  2  0
 36 37  1  0
 36  2  1  0
 11  7  1  0
 23 14  1  0
 31  9  1  0
M  END
>  <cnnaffinity>  (1) 
-5.63818

>  <filename>  (1) 
c1ccc(Nc2c(-c3cccnc3)nn3c2CCC3)cc1

$$$$
