
     RDKit          3D

 41 44  0  0  0  0  0  0  0  0999 V2000
    5.0070    1.8474   16.8999 H   0  0  0  0  0  0  0  0  0  0  0  0
    5.4291    1.2927   17.7374 C   0  0  0  0  0  0  0  0  0  0  0  0
    6.5730    0.6336   17.4992 N   0  0  0  0  0  0  0  0  0  0  0  0
    7.1444   -0.0035   18.5282 C   0  0  0  0  0  0  0  0  0  0  0  0
    8.0736   -0.5227   18.3094 H   0  0  0  0  0  0  0  0  0  0  0  0
    6.6169   -0.0195   19.8358 C   0  0  0  0  0  0  0  0  0  0  0  0
    7.3814   -0.6297   20.9430 C   0  0  0  0  0  0  0  0  0  0  0  0
    8.5454   -1.2564   20.7084 N   0  0  0  0  0  0  0  0  0  0  0  0
    8.9611   -1.5911   21.9490 N   0  0  0  0  0  0  0  0  0  0  0  0
   10.0946   -2.1923   22.4822 C   0  0  0  0  0  0  0  0  0  0  0  0
   10.8468   -2.6106   21.8383 H   0  0  0  0  0  0  0  0  0  0  0  0
    9.9568   -2.1174   23.8299 C   0  0  0  0  0  0  0  0  0  0  0  0
   10.6285   -2.4704   24.6032 H   0  0  0  0  0  0  0  0  0  0  0  0
    8.7495   -1.4816   24.1384 N   0  0  0  0  0  0  0  0  0  0  0  0
    8.3799   -0.8558   25.4086 C   0  0  0  0  0  0  0  0  0  0  0  0
    7.2845   -0.7704   25.4204 H   0  0  0  0  0  0  0  0  0  0  0  0
    8.6569   -1.5473   26.2142 H   0  0  0  0  0  0  0  0  0  0  0  0
    9.0446    0.5160   25.6389 C   0  0  0  0  0  0  0  0  0  0  0  0
   10.1246    0.3515   25.7247 H   0  0  0  0  0  0  0  0  0  0  0  0
    8.7146    0.9042   26.6116 H   0  0  0  0  0  0  0  0  0  0  0  0
    8.7790    1.5623   24.5365 C   0  0  0  0  0  0  0  0  0  0  0  0
    7.6915    1.7237   24.4535 H   0  0  0  0  0  0  0  0  0  0  0  0
    9.0981    1.1527   23.5683 H   0  0  0  0  0  0  0  0  0  0  0  0
    9.4705    2.8993   24.7752 C   0  0  0  0  0  0  0  0  0  0  0  0
    8.8683    3.8660   25.5979 C   0  0  0  0  0  0  0  0  0  0  0  0
    7.8708    3.6816   25.9954 H   0  0  0  0  0  0  0  0  0  0  0  0
    9.4846    5.0982   25.8454 C   0  0  0  0  0  0  0  0  0  0  0  0
    8.9955    5.8272   26.4875 H   0  0  0  0  0  0  0  0  0  0  0  0
   10.7220    5.3892   25.2618 C   0  0  0  0  0  0  0  0  0  0  0  0
   11.2078    6.3432   25.4559 H   0  0  0  0  0  0  0  0  0  0  0  0
   11.3356    4.4483   24.4298 C   0  0  0  0  0  0  0  0  0  0  0  0
   12.2903    4.6772   23.9564 H   0  0  0  0  0  0  0  0  0  0  0  0
   10.7114    3.2156   24.1896 C   0  0  0  0  0  0  0  0  0  0  0  0
   11.2105    2.5038   23.5332 H   0  0  0  0  0  0  0  0  0  0  0  0
    8.1425   -1.1806   22.9372 C   0  0  0  0  0  0  0  0  0  0  0  0
    7.0615   -0.5689   22.3252 C   0  0  0  0  0  0  0  0  0  0  0  0
    6.1706   -0.1483   22.7635 H   0  0  0  0  0  0  0  0  0  0  0  0
    5.3882    0.6289   20.0517 C   0  0  0  0  0  0  0  0  0  0  0  0
    4.9097    0.6375   21.0335 H   0  0  0  0  0  0  0  0  0  0  0  0
    4.7935    1.2991   18.9838 C   0  0  0  0  0  0  0  0  0  0  0  0
    3.8742    1.8581   19.1140 H   0  0  0  0  0  0  0  0  0  0  0  0
  1  2  1  0
  2  3  2  0
  3  4  1  0
  4  5  1  0
  4  6  2  0
  6  7  1  0
  7  8  2  0
  8  9  1  0
  9 10  1  0
 10 11  1  0
 10 12  2  0
 12 13  1  0
 12 14  1  0
 14 15  1  0
 15 16  1  0
 15 17  1  0
 15 18  1  0
 18 19  1  0
 18 20  1  0
 18 21  1  0
 21 22  1  0
 21 23  1  0
 21 24  1  0
 24 25  2  0
 25 26  1  0
 25 27  1  0
 27 28  1  0
 27 29  2  0
 29 30  1  0
 29 31  1  0
 31 32  1  0
 31 33  2  0
 33 34  1  0
 14 35  1  0
 35 36  2  0
 36 37  1  0
  6 38  1  0
 38 39  1  0
 38 40  2  0
 40 41  1  0
 40  2  1  0
 36  7  1  0
 35  9  1  0
 33 24  1  0
M  END
>  <cnnaffinity>  (1) 
-5.84872

>  <filename>  (1) 
c1ccc(CCCn2ccn3nc(-c4cccnc4)cc23)cc1

$$$$
