
     RDKit          3D

 47 50  0  0  0  0  0  0  0  0999 V2000
   10.6827    0.7035   26.0400 C   0  0  0  0  0  0  0  0  0  0  0  0
    9.2879    0.8100   26.0434 C   0  0  0  0  0  0  0  0  0  0  0  0
    8.6220    1.3187   24.9303 C   0  0  0  0  0  0  0  0  0  0  0  0
    9.3448    1.7119   23.7970 C   0  0  0  0  0  0  0  0  0  0  0  0
    8.5767    2.1089   22.7417 O   0  0  0  0  0  0  0  0  0  0  0  0
    9.0714    2.0287   21.4119 C   0  0  0  0  0  0  0  0  0  0  0  0
    9.5367    0.6218   20.9801 C   0  0  0  0  0  0  0  0  0  0  0  0
    8.6329   -0.4848   21.4222 C   0  0  0  0  0  0  0  0  0  0  0  0
    8.8753   -1.3569   22.3775 N   0  0  0  0  0  0  0  0  0  0  0  0
    7.6729   -1.9807   22.5521 C   0  0  0  0  0  0  0  0  0  0  0  0
    7.4313   -2.9934   23.6536 C   0  0  0  0  0  0  0  0  0  0  0  0
    6.0195   -2.9241   24.2796 C   0  0  0  0  0  0  0  0  0  0  0  0
    6.1401   -3.5820   25.6658 C   0  0  0  0  0  0  0  0  0  0  0  0
    7.6354   -3.5035   26.0539 C   0  0  0  0  0  0  0  0  0  0  0  0
    8.3485   -2.8097   24.8817 C   0  0  0  0  0  0  0  0  0  0  0  0
    8.4261   -1.7357   25.0947 H   0  0  0  0  0  0  0  0  0  0  0  0
    9.3597   -3.1935   24.7143 H   0  0  0  0  0  0  0  0  0  0  0  0
    7.7878   -2.9456   26.9852 H   0  0  0  0  0  0  0  0  0  0  0  0
    8.0371   -4.5096   26.2196 H   0  0  0  0  0  0  0  0  0  0  0  0
    5.5006   -3.0702   26.3938 H   0  0  0  0  0  0  0  0  0  0  0  0
    5.8123   -4.6274   25.6389 H   0  0  0  0  0  0  0  0  0  0  0  0
    5.7527   -1.8664   24.4003 H   0  0  0  0  0  0  0  0  0  0  0  0
    5.2547   -3.3912   23.6504 H   0  0  0  0  0  0  0  0  0  0  0  0
    7.5962   -3.9919   23.2201 H   0  0  0  0  0  0  0  0  0  0  0  0
    6.7335   -1.5901   21.7077 N   0  0  0  0  0  0  0  0  0  0  0  0
    7.3632   -0.6471   20.9567 N   0  0  0  0  0  0  0  0  0  0  0  0
    6.6743    0.0040   19.8962 C   0  0  0  0  0  0  0  0  0  0  0  0
    5.4535    0.6355   20.1512 C   0  0  0  0  0  0  0  0  0  0  0  0
    4.8287    1.3086   19.0977 C   0  0  0  0  0  0  0  0  0  0  0  0
    5.4277    1.3063   17.8329 C   0  0  0  0  0  0  0  0  0  0  0  0
    6.5752    0.6640   17.5698 N   0  0  0  0  0  0  0  0  0  0  0  0
    7.1775    0.0245   18.5811 C   0  0  0  0  0  0  0  0  0  0  0  0
    8.0949   -0.5071   18.3336 H   0  0  0  0  0  0  0  0  0  0  0  0
    4.9610    1.8288   16.9996 H   0  0  0  0  0  0  0  0  0  0  0  0
    3.8910    1.8295   19.2483 H   0  0  0  0  0  0  0  0  0  0  0  0
    5.0218    0.5877   21.1511 H   0  0  0  0  0  0  0  0  0  0  0  0
   10.5279    0.4111   21.3924 H   0  0  0  0  0  0  0  0  0  0  0  0
    9.6227    0.6197   19.8921 H   0  0  0  0  0  0  0  0  0  0  0  0
    8.2255    2.3529   20.7993 H   0  0  0  0  0  0  0  0  0  0  0  0
    9.8866    2.7551   21.2660 H   0  0  0  0  0  0  0  0  0  0  0  0
   10.7482    1.6730   23.8199 C   0  0  0  0  0  0  0  0  0  0  0  0
   11.4129    1.1476   24.9376 C   0  0  0  0  0  0  0  0  0  0  0  0
   12.5003    1.0866   24.9460 H   0  0  0  0  0  0  0  0  0  0  0  0
   11.3153    2.0477   22.9761 H   0  0  0  0  0  0  0  0  0  0  0  0
    7.5423    1.4088   24.8861 H   0  0  0  0  0  0  0  0  0  0  0  0
    8.7156    0.4746   26.9059 H   0  0  0  0  0  0  0  0  0  0  0  0
   11.1766    0.2778   26.9075 H   0  0  0  0  0  0  0  0  0  0  0  0
  1  2  2  0
  2  3  1  0
  3  4  2  0
  4  5  1  0
  5  6  1  0
  6  7  1  0
  7  8  1  0
  8  9  2  0
  9 10  1  0
 10 11  1  0
 11 12  1  0
 12 13  1  0
 13 14  1  0
 14 15  1  0
 15 16  1  0
 15 17  1  0
 14 18  1  0
 14 19  1  0
 13 20  1  0
 13 21  1  0
 12 22  1  0
 12 23  1  0
 11 24  1  0
 10 25  2  0
 25 26  1  0
 26 27  1  0
 27 28  2  0
 28 29  1  0
 29 30  2  0
 30 31  1  0
 31 32  2  0
 32 33  1  0
 30 34  1  0
 29 35  1  0
 28 36  1  0
  7 37  1  0
  7 38  1  0
  6 39  1  0
  6 40  1  0
  4 41  1  0
 41 42  2  0
 42 43  1  0
 41 44  1  0
  3 45  1  0
  2 46  1  0
  1 47  1  0
 42  1  1  0
 26  8  1  0
 32 27  1  0
 15 11  1  0
M  END
>  <cnnaffinity>  (1) 
-6.01758

>  <filename>  (1) 
c1ccc(OCCc2nc(C3CCCC3)nn2-c2cccnc2)cc1

$$$$
