
     RDKit          3D

 48 51  0  0  0  0  0  0  0  0999 V2000
    8.8131    1.9626   25.6651 C   0  0  0  0  0  0  0  0  0  0  0  0
    7.6034    1.8856   24.9630 C   0  0  0  0  0  0  0  0  0  0  0  0
    7.6477    1.9319   23.5662 C   0  0  0  0  0  0  0  0  0  0  0  0
    8.8921    2.0446   22.9206 C   0  0  0  0  0  0  0  0  0  0  0  0
    9.0253    1.9640   21.4120 C   0  0  0  0  0  0  0  0  0  0  0  0
    9.4975    0.5521   20.9320 C   0  0  0  0  0  0  0  0  0  0  0  0
    8.6171   -0.5821   21.3850 C   0  0  0  0  0  0  0  0  0  0  0  0
    8.8614   -1.4140   22.3815 N   0  0  0  0  0  0  0  0  0  0  0  0
    7.6629   -2.0256   22.5911 C   0  0  0  0  0  0  0  0  0  0  0  0
    7.4489   -2.9797   23.7573 C   0  0  0  0  0  0  0  0  0  0  0  0
    6.9329   -4.3922   23.3078 C   0  0  0  0  0  0  0  0  0  0  0  0
    6.2321   -5.1692   24.4501 C   0  0  0  0  0  0  0  0  0  0  0  0
    5.0073   -4.3865   25.0133 C   0  0  0  0  0  0  0  0  0  0  0  0
    5.0655   -2.8972   24.6298 C   0  0  0  0  0  0  0  0  0  0  0  0
    6.4873   -2.3599   24.8363 C   0  0  0  0  0  0  0  0  0  0  0  0
    6.8307   -2.6548   25.8400 H   0  0  0  0  0  0  0  0  0  0  0  0
    6.5255   -1.2624   24.8194 H   0  0  0  0  0  0  0  0  0  0  0  0
    4.8277   -2.8379   23.5605 H   0  0  0  0  0  0  0  0  0  0  0  0
    4.3162   -2.3175   25.1766 H   0  0  0  0  0  0  0  0  0  0  0  0
    4.0743   -4.8220   24.6320 H   0  0  0  0  0  0  0  0  0  0  0  0
    4.9789   -4.4671   26.1076 H   0  0  0  0  0  0  0  0  0  0  0  0
    6.9359   -5.3881   25.2684 H   0  0  0  0  0  0  0  0  0  0  0  0
    5.9077   -6.1440   24.0682 H   0  0  0  0  0  0  0  0  0  0  0  0
    7.7525   -4.9864   22.8853 H   0  0  0  0  0  0  0  0  0  0  0  0
    6.1982   -4.2574   22.4974 H   0  0  0  0  0  0  0  0  0  0  0  0
    8.4433   -3.0896   24.2052 H   0  0  0  0  0  0  0  0  0  0  0  0
    6.7056   -1.6450   21.7590 N   0  0  0  0  0  0  0  0  0  0  0  0
    7.3352   -0.7442   20.9520 N   0  0  0  0  0  0  0  0  0  0  0  0
    6.6398   -0.0809   19.8991 C   0  0  0  0  0  0  0  0  0  0  0  0
    5.4419    0.5940   20.1557 C   0  0  0  0  0  0  0  0  0  0  0  0
    4.8375    1.2983   19.1099 C   0  0  0  0  0  0  0  0  0  0  0  0
    5.4412    1.2965   17.8472 C   0  0  0  0  0  0  0  0  0  0  0  0
    6.5727    0.6260   17.5814 N   0  0  0  0  0  0  0  0  0  0  0  0
    7.1474   -0.0461   18.5847 C   0  0  0  0  0  0  0  0  0  0  0  0
    8.0570   -0.5881   18.3322 H   0  0  0  0  0  0  0  0  0  0  0  0
    4.9979    1.8406   17.0148 H   0  0  0  0  0  0  0  0  0  0  0  0
    3.9139    1.8475   19.2627 H   0  0  0  0  0  0  0  0  0  0  0  0
    5.0067    0.5580   21.1547 H   0  0  0  0  0  0  0  0  0  0  0  0
   10.5031    0.3533   21.3218 H   0  0  0  0  0  0  0  0  0  0  0  0
    9.5624    0.5409   19.8401 H   0  0  0  0  0  0  0  0  0  0  0  0
    9.7705    2.6981   21.0935 H   0  0  0  0  0  0  0  0  0  0  0  0
    8.0783    2.2336   20.9278 H   0  0  0  0  0  0  0  0  0  0  0  0
   10.0496    2.1219   23.6000 N   0  0  0  0  0  0  0  0  0  0  0  0
    9.9972    2.0861   24.9343 C   0  0  0  0  0  0  0  0  0  0  0  0
   10.9627    2.1577   25.4340 H   0  0  0  0  0  0  0  0  0  0  0  0
    6.7429    1.8776   22.9612 H   0  0  0  0  0  0  0  0  0  0  0  0
    6.6528    1.7782   25.4902 H   0  0  0  0  0  0  0  0  0  0  0  0
    8.8532    1.9218   26.7487 H   0  0  0  0  0  0  0  0  0  0  0  0
  1  2  2  0
  2  3  1  0
  3  4  2  0
  4  5  1  0
  5  6  1  0
  6  7  1  0
  7  8  2  0
  8  9  1  0
  9 10  1  0
 10 11  1  0
 11 12  1  0
 12 13  1  0
 13 14  1  0
 14 15  1  0
 15 16  1  0
 15 17  1  0
 14 18  1  0
 14 19  1  0
 13 20  1  0
 13 21  1  0
 12 22  1  0
 12 23  1  0
 11 24  1  0
 11 25  1  0
 10 26  1  0
  9 27  2  0
 27 28  1  0
 28 29  1  0
 29 30  2  0
 30 31  1  0
 31 32  2  0
 32 33  1  0
 33 34  2  0
 34 35  1  0
 32 36  1  0
 31 37  1  0
 30 38  1  0
  6 39  1  0
  6 40  1  0
  5 41  1  0
  5 42  1  0
  4 43  1  0
 43 44  2  0
 44 45  1  0
  3 46  1  0
  2 47  1  0
  1 48  1  0
 44  1  1  0
 28  7  1  0
 34 29  1  0
 15 10  1  0
M  END
>  <cnnaffinity>  (1) 
-6.19555

>  <filename>  (1) 
c1ccc(CCc2nc(C3CCCCC3)nn2-c2cccnc2)nc1

$$$$
