
     RDKit          3D

 43 46  0  0  0  0  0  0  0  0999 V2000
   10.4349   -1.3254   21.9487 H   0  0  0  0  0  0  0  0  0  0  0  0
    9.3445   -1.3604   21.9565 C   0  0  0  0  0  0  0  0  0  0  0  0
    8.7193   -0.7929   20.9344 N   0  0  0  0  0  0  0  0  0  0  0  0
    7.3785   -0.8153   20.9815 C   0  0  0  0  0  0  0  0  0  0  0  0
    6.6580   -0.0436   19.9443 C   0  0  0  0  0  0  0  0  0  0  0  0
    7.2076    0.0169   18.6568 C   0  0  0  0  0  0  0  0  0  0  0  0
    8.1681   -0.4511   18.4498 H   0  0  0  0  0  0  0  0  0  0  0  0
    6.6171    0.6333   17.6276 N   0  0  0  0  0  0  0  0  0  0  0  0
    5.4569    1.2626   17.8605 C   0  0  0  0  0  0  0  0  0  0  0  0
    5.0053    1.7662   17.0076 H   0  0  0  0  0  0  0  0  0  0  0  0
    4.8383    1.2947   19.1134 C   0  0  0  0  0  0  0  0  0  0  0  0
    3.9024    1.8259   19.2375 H   0  0  0  0  0  0  0  0  0  0  0  0
    5.4502    0.6352   20.1782 C   0  0  0  0  0  0  0  0  0  0  0  0
    5.0122    0.6814   21.1767 H   0  0  0  0  0  0  0  0  0  0  0  0
    6.6955   -1.5374   21.9328 C   0  0  0  0  0  0  0  0  0  0  0  0
    5.6288   -1.6674   21.8997 H   0  0  0  0  0  0  0  0  0  0  0  0
    7.4698   -2.1004   22.9549 C   0  0  0  0  0  0  0  0  0  0  0  0
    6.9111   -2.8233   23.9576 N   0  0  0  0  0  0  0  0  0  0  0  0
    5.5332   -3.3257   23.8900 C   0  0  0  0  0  0  0  0  0  0  0  0
    4.8351   -2.5284   24.1523 H   0  0  0  0  0  0  0  0  0  0  0  0
    5.3015   -3.6768   22.8803 H   0  0  0  0  0  0  0  0  0  0  0  0
    5.2563   -4.4611   24.8940 C   0  0  0  0  0  0  0  0  0  0  0  0
    4.2011   -4.7394   24.7881 H   0  0  0  0  0  0  0  0  0  0  0  0
    5.8505   -5.3504   24.6381 H   0  0  0  0  0  0  0  0  0  0  0  0
    5.5376   -4.0142   26.2588 N   0  0  0  0  0  0  0  0  0  0  0  0
    4.7754   -4.4277   27.3439 C   0  0  0  0  0  0  0  0  0  0  0  0
    4.5756   -3.5847   28.4567 C   0  0  0  0  0  0  0  0  0  0  0  0
    5.0184   -2.5937   28.4536 H   0  0  0  0  0  0  0  0  0  0  0  0
    3.8143   -4.0210   29.5449 C   0  0  0  0  0  0  0  0  0  0  0  0
    3.6636   -3.3583   30.3939 H   0  0  0  0  0  0  0  0  0  0  0  0
    3.2612   -5.3046   29.5530 C   0  0  0  0  0  0  0  0  0  0  0  0
    2.6862   -5.6469   30.4091 H   0  0  0  0  0  0  0  0  0  0  0  0
    3.4577   -6.1485   28.4562 C   0  0  0  0  0  0  0  0  0  0  0  0
    3.0429   -7.1536   28.4572 H   0  0  0  0  0  0  0  0  0  0  0  0
    4.1917   -5.7108   27.3515 C   0  0  0  0  0  0  0  0  0  0  0  0
    4.3460   -6.3550   26.4917 H   0  0  0  0  0  0  0  0  0  0  0  0
    6.6713   -3.0955   26.4273 C   0  0  0  0  0  0  0  0  0  0  0  0
    7.2445   -3.3724   27.3228 H   0  0  0  0  0  0  0  0  0  0  0  0
    6.3271   -2.0601   26.5758 H   0  0  0  0  0  0  0  0  0  0  0  0
    7.6255   -3.1156   25.2147 C   0  0  0  0  0  0  0  0  0  0  0  0
    8.0999   -4.1031   25.1478 H   0  0  0  0  0  0  0  0  0  0  0  0
    8.4235   -2.3852   25.3586 H   0  0  0  0  0  0  0  0  0  0  0  0
    8.7986   -1.9694   22.9954 N   0  0  0  0  0  0  0  0  0  0  0  0
  1  2  1  0
  2  3  2  0
  3  4  1  0
  4  5  1  0
  5  6  2  0
  6  7  1  0
  6  8  1  0
  8  9  2  0
  9 10  1  0
  9 11  1  0
 11 12  1  0
 11 13  2  0
 13 14  1  0
  4 15  2  0
 15 16  1  0
 15 17  1  0
 17 18  1  0
 18 19  1  0
 19 20  1  0
 19 21  1  0
 19 22  1  0
 22 23  1  0
 22 24  1  0
 22 25  1  0
 25 26  1  0
 26 27  2  0
 27 28  1  0
 27 29  1  0
 29 30  1  0
 29 31  2  0
 31 32  1  0
 31 33  1  0
 33 34  1  0
 33 35  2  0
 35 36  1  0
 25 37  1  0
 37 38  1  0
 37 39  1  0
 37 40  1  0
 40 41  1  0
 40 42  1  0
 17 43  2  0
 43  2  1  0
 13  5  1  0
 40 18  1  0
 35 26  1  0
M  END
>  <cnnaffinity>  (1) 
-5.32504

>  <filename>  (1) 
c1ccc(N2CCN(c3cc(-c4cccnc4)ncn3)CC2)cc1

$$$$
