
     RDKit          3D

 40 43  0  0  0  0  0  0  0  0999 V2000
    8.3080   -6.9852   29.1360 H   0  0  0  0  0  0  0  0  0  0  0  0
    7.6244   -6.1885   28.8470 C   0  0  0  0  0  0  0  0  0  0  0  0
    8.1219   -5.3225   27.9651 N   0  0  0  0  0  0  0  0  0  0  0  0
    7.3153   -4.3431   27.5401 C   0  0  0  0  0  0  0  0  0  0  0  0
    7.8679   -3.4519   26.6392 N   0  0  0  0  0  0  0  0  0  0  0  0
    8.8115   -3.9390   25.6127 C   0  0  0  0  0  0  0  0  0  0  0  0
    8.3266   -4.7396   25.0324 H   0  0  0  0  0  0  0  0  0  0  0  0
    9.6963   -4.3790   26.0952 H   0  0  0  0  0  0  0  0  0  0  0  0
    9.2754   -2.8311   24.6311 C   0  0  0  0  0  0  0  0  0  0  0  0
   10.0228   -2.1888   25.1197 H   0  0  0  0  0  0  0  0  0  0  0  0
    9.7501   -3.3009   23.7673 H   0  0  0  0  0  0  0  0  0  0  0  0
    8.1567   -2.0033   24.1704 N   0  0  0  0  0  0  0  0  0  0  0  0
    8.0098   -1.5709   22.8855 C   0  0  0  0  0  0  0  0  0  0  0  0
    8.9274   -1.8860   21.9588 O   0  0  0  0  0  0  0  0  0  0  0  0
    8.5365   -1.3379   20.7282 N   0  0  0  0  0  0  0  0  0  0  0  0
    7.4037   -0.7171   20.9734 C   0  0  0  0  0  0  0  0  0  0  0  0
    6.6707   -0.0050   19.9044 C   0  0  0  0  0  0  0  0  0  0  0  0
    7.1819    0.0457   18.5976 C   0  0  0  0  0  0  0  0  0  0  0  0
    8.1292   -0.4259   18.3455 H   0  0  0  0  0  0  0  0  0  0  0  0
    6.5713    0.6638   17.5815 N   0  0  0  0  0  0  0  0  0  0  0  0
    5.4104    1.2857   17.8349 C   0  0  0  0  0  0  0  0  0  0  0  0
    4.9435    1.7924   16.9919 H   0  0  0  0  0  0  0  0  0  0  0  0
    4.8141    1.3023   19.0993 C   0  0  0  0  0  0  0  0  0  0  0  0
    3.8805    1.8351   19.2461 H   0  0  0  0  0  0  0  0  0  0  0  0
    5.4481    0.6476   20.1509 C   0  0  0  0  0  0  0  0  0  0  0  0
    4.9962    0.6530   21.1447 H   0  0  0  0  0  0  0  0  0  0  0  0
    7.0205   -0.8307   22.3295 C   0  0  0  0  0  0  0  0  0  0  0  0
    6.1628   -0.4378   22.8399 H   0  0  0  0  0  0  0  0  0  0  0  0
    7.1775   -1.5573   25.1761 C   0  0  0  0  0  0  0  0  0  0  0  0
    7.1350   -0.4584   25.1979 H   0  0  0  0  0  0  0  0  0  0  0  0
    6.1782   -1.9358   24.9062 H   0  0  0  0  0  0  0  0  0  0  0  0
    7.5488   -2.0283   26.5993 C   0  0  0  0  0  0  0  0  0  0  0  0
    6.7261   -1.7931   27.2792 H   0  0  0  0  0  0  0  0  0  0  0  0
    8.4273   -1.4520   26.9364 H   0  0  0  0  0  0  0  0  0  0  0  0
    5.9653   -4.2317   27.9457 C   0  0  0  0  0  0  0  0  0  0  0  0
    5.3659   -3.4640   27.4729 H   0  0  0  0  0  0  0  0  0  0  0  0
    5.4589   -5.1417   28.8714 C   0  0  0  0  0  0  0  0  0  0  0  0
    4.4137   -5.0948   29.1967 H   0  0  0  0  0  0  0  0  0  0  0  0
    6.3272   -6.1337   29.3568 C   0  0  0  0  0  0  0  0  0  0  0  0
    6.0248   -6.8706   30.0909 H   0  0  0  0  0  0  0  0  0  0  0  0
  1  2  1  0
  2  3  2  0
  3  4  1  0
  4  5  1  0
  5  6  1  0
  6  7  1  0
  6  8  1  0
  6  9  1  0
  9 10  1  0
  9 11  1  0
  9 12  1  0
 12 13  1  0
 13 14  1  0
 14 15  1  0
 15 16  2  0
 16 17  1  0
 17 18  2  0
 18 19  1  0
 18 20  1  0
 20 21  2  0
 21 22  1  0
 21 23  1  0
 23 24  1  0
 23 25  2  0
 25 26  1  0
 16 27  1  0
 27 28  1  0
 12 29  1  0
 29 30  1  0
 29 31  1  0
 29 32  1  0
 32 33  1  0
 32 34  1  0
  4 35  2  0
 35 36  1  0
 35 37  1  0
 37 38  1  0
 37 39  2  0
 39 40  1  0
 39  2  1  0
 32  5  1  0
 27 13  2  0
 25 17  1  0
M  END
>  <cnnaffinity>  (1) 
-5.06495

>  <filename>  (1) 
c1ccc(N2CCN(c3cc(-c4cccnc4)no3)CC2)nc1

$$$$
