
     RDKit          3D

 43 46  0  0  0  0  0  0  0  0999 V2000
    6.8582    4.0284   24.9705 C   0  0  0  0  0  0  0  0  0  0  0  0
    5.7554    3.1982   24.7328 C   0  0  0  0  0  0  0  0  0  0  0  0
    5.9135    1.8086   24.6622 C   0  0  0  0  0  0  0  0  0  0  0  0
    7.1872    1.2406   24.8194 C   0  0  0  0  0  0  0  0  0  0  0  0
    7.3446   -0.1812   24.7206 N   0  0  0  0  0  0  0  0  0  0  0  0
    6.5696   -1.0363   25.4418 N   0  0  0  0  0  0  0  0  0  0  0  0
    7.0004   -2.2228   25.0574 C   0  0  0  0  0  0  0  0  0  0  0  0
    6.3836   -3.4904   25.5253 C   0  0  0  0  0  0  0  0  0  0  0  0
    4.8938   -3.6840   25.3942 C   0  0  0  0  0  0  0  0  0  0  0  0
    5.8278   -4.4717   24.5208 C   0  0  0  0  0  0  0  0  0  0  0  0
    5.9465   -5.5378   24.7003 H   0  0  0  0  0  0  0  0  0  0  0  0
    5.9132   -4.1941   23.4719 H   0  0  0  0  0  0  0  0  0  0  0  0
    4.3439   -2.8568   24.9492 H   0  0  0  0  0  0  0  0  0  0  0  0
    4.3568   -4.1888   26.1930 H   0  0  0  0  0  0  0  0  0  0  0  0
    6.8770   -3.9036   26.4014 H   0  0  0  0  0  0  0  0  0  0  0  0
    8.0040   -2.1984   24.1398 N   0  0  0  0  0  0  0  0  0  0  0  0
    8.1875   -0.9084   23.9323 C   0  0  0  0  0  0  0  0  0  0  0  0
    9.0838   -0.3207   22.8911 C   0  0  0  0  0  0  0  0  0  0  0  0
    8.3063    0.3305   21.7348 C   0  0  0  0  0  0  0  0  0  0  0  0
    7.4066   -0.6740   20.9976 C   0  0  0  0  0  0  0  0  0  0  0  0
    6.6419   -0.0115   19.8878 C   0  0  0  0  0  0  0  0  0  0  0  0
    5.4317    0.6460   20.1421 C   0  0  0  0  0  0  0  0  0  0  0  0
    4.7982    1.3139   19.0940 C   0  0  0  0  0  0  0  0  0  0  0  0
    5.3945    1.3007   17.8280 C   0  0  0  0  0  0  0  0  0  0  0  0
    6.5587    0.6882   17.5625 N   0  0  0  0  0  0  0  0  0  0  0  0
    7.1578    0.0609   18.5841 C   0  0  0  0  0  0  0  0  0  0  0  0
    8.1093   -0.4180   18.3534 H   0  0  0  0  0  0  0  0  0  0  0  0
    4.9158    1.7926   16.9854 H   0  0  0  0  0  0  0  0  0  0  0  0
    3.8696    1.8478   19.2486 H   0  0  0  0  0  0  0  0  0  0  0  0
    5.0129    0.6367   21.1541 H   0  0  0  0  0  0  0  0  0  0  0  0
    6.7080   -1.1354   21.7108 H   0  0  0  0  0  0  0  0  0  0  0  0
    8.0228   -1.4945   20.6042 H   0  0  0  0  0  0  0  0  0  0  0  0
    9.0105    0.7742   21.0210 H   0  0  0  0  0  0  0  0  0  0  0  0
    7.6970    1.1617   22.1157 H   0  0  0  0  0  0  0  0  0  0  0  0
    9.7622    0.4075   23.3455 H   0  0  0  0  0  0  0  0  0  0  0  0
    9.7063   -1.1365   22.5098 H   0  0  0  0  0  0  0  0  0  0  0  0
    8.2939    2.0711   25.0644 C   0  0  0  0  0  0  0  0  0  0  0  0
    8.1234    3.4583   25.1392 C   0  0  0  0  0  0  0  0  0  0  0  0
    8.9880    4.0902   25.3262 H   0  0  0  0  0  0  0  0  0  0  0  0
    9.2744    1.6304   25.2192 H   0  0  0  0  0  0  0  0  0  0  0  0
    5.0625    1.1531   24.4964 H   0  0  0  0  0  0  0  0  0  0  0  0
    4.7667    3.6360   24.6130 H   0  0  0  0  0  0  0  0  0  0  0  0
    6.7310    5.1089   25.0255 H   0  0  0  0  0  0  0  0  0  0  0  0
  1  2  2  0
  2  3  1  0
  3  4  2  0
  4  5  1  0
  5  6  1  0
  6  7  2  0
  7  8  1  0
  8  9  1  0
  9 10  1  0
 10 11  1  0
 10 12  1  0
  9 13  1  0
  9 14  1  0
  8 15  1  0
  7 16  1  0
 16 17  2  0
 17 18  1  0
 18 19  1  0
 19 20  1  0
 20 21  1  0
 21 22  2  0
 22 23  1  0
 23 24  2  0
 24 25  1  0
 25 26  2  0
 26 27  1  0
 24 28  1  0
 23 29  1  0
 22 30  1  0
 20 31  1  0
 20 32  1  0
 19 33  1  0
 19 34  1  0
 18 35  1  0
 18 36  1  0
  4 37  1  0
 37 38  2  0
 38 39  1  0
 37 40  1  0
  3 41  1  0
  2 42  1  0
  1 43  1  0
 38  1  1  0
 17  5  1  0
 26 21  1  0
 10  8  1  0
M  END
>  <cnnaffinity>  (1) 
-5.56574

>  <filename>  (1) 
c1ccc(-n2nc(C3CC3)nc2CCCc2cccnc2)cc1

$$$$
