
     RDKit          3D

 42 45  0  0  0  0  0  0  0  0999 V2000
    6.7306    3.4709   27.3307 C   0  0  0  0  0  0  0  0  0  0  0  0
    5.8740    2.5479   26.7198 C   0  0  0  0  0  0  0  0  0  0  0  0
    6.2455    1.9186   25.5314 C   0  0  0  0  0  0  0  0  0  0  0  0
    7.4890    2.2074   24.9337 C   0  0  0  0  0  0  0  0  0  0  0  0
    7.8762    1.5407   23.6677 C   0  0  0  0  0  0  0  0  0  0  0  0
    7.1552    0.5942   23.0849 N   0  0  0  0  0  0  0  0  0  0  0  0
    7.9088    0.2358   22.0241 N   0  0  0  0  0  0  0  0  0  0  0  0
    7.3866   -0.6825   21.0171 C   0  0  0  0  0  0  0  0  0  0  0  0
    6.6492    0.0019   19.8827 C   0  0  0  0  0  0  0  0  0  0  0  0
    5.4330    0.6424   20.1464 C   0  0  0  0  0  0  0  0  0  0  0  0
    4.8034    1.3077   19.0916 C   0  0  0  0  0  0  0  0  0  0  0  0
    5.3993    1.2986   17.8247 C   0  0  0  0  0  0  0  0  0  0  0  0
    6.5598    0.6820   17.5525 N   0  0  0  0  0  0  0  0  0  0  0  0
    7.1579    0.0611   18.5759 C   0  0  0  0  0  0  0  0  0  0  0  0
    8.1059   -0.4236   18.3452 H   0  0  0  0  0  0  0  0  0  0  0  0
    4.9193    1.7939   16.9843 H   0  0  0  0  0  0  0  0  0  0  0  0
    3.8747    1.8431   19.2484 H   0  0  0  0  0  0  0  0  0  0  0  0
    5.0285    0.6365   21.1653 H   0  0  0  0  0  0  0  0  0  0  0  0
    6.7268   -1.3629   21.5625 H   0  0  0  0  0  0  0  0  0  0  0  0
    8.2231   -1.2726   20.6330 H   0  0  0  0  0  0  0  0  0  0  0  0
    9.0104    1.0179   21.9796 C   0  0  0  0  0  0  0  0  0  0  0  0
   10.0887    0.8298   20.9669 C   0  0  0  0  0  0  0  0  0  0  0  0
   11.0666   -0.3209   21.3187 C   0  0  0  0  0  0  0  0  0  0  0  0
   11.8050   -0.0267   22.5970 C   0  0  0  0  0  0  0  0  0  0  0  0
   12.8858    0.7688   22.7948 C   0  0  0  0  0  0  0  0  0  0  0  0
   13.1815    0.8670   24.0945 O   0  0  0  0  0  0  0  0  0  0  0  0
   12.2654    0.1477   24.8213 N   0  0  0  0  0  0  0  0  0  0  0  0
   11.4482   -0.3647   23.9394 C   0  0  0  0  0  0  0  0  0  0  0  0
   10.6437   -1.0038   24.2739 H   0  0  0  0  0  0  0  0  0  0  0  0
   13.5242    1.3407   22.1359 H   0  0  0  0  0  0  0  0  0  0  0  0
   10.5134   -1.2632   21.4134 H   0  0  0  0  0  0  0  0  0  0  0  0
   11.7709   -0.5063   20.4998 H   0  0  0  0  0  0  0  0  0  0  0  0
   10.6367    1.7730   20.9095 H   0  0  0  0  0  0  0  0  0  0  0  0
    9.6293    0.6741   19.9853 H   0  0  0  0  0  0  0  0  0  0  0  0
    9.0183    1.8518   22.9972 N   0  0  0  0  0  0  0  0  0  0  0  0
    8.3518    3.1370   25.5546 C   0  0  0  0  0  0  0  0  0  0  0  0
    7.9677    3.7632   26.7424 C   0  0  0  0  0  0  0  0  0  0  0  0
    8.6326    4.4847   27.2112 H   0  0  0  0  0  0  0  0  0  0  0  0
    9.3171    3.3708   25.1030 H   0  0  0  0  0  0  0  0  0  0  0  0
    5.5840    1.1965   25.0531 H   0  0  0  0  0  0  0  0  0  0  0  0
    4.9120    2.3126   27.1688 H   0  0  0  0  0  0  0  0  0  0  0  0
    6.4335    3.9574   28.2586 H   0  0  0  0  0  0  0  0  0  0  0  0
  1  2  2  0
  2  3  1  0
  3  4  2  0
  4  5  1  0
  5  6  2  0
  6  7  1  0
  7  8  1  0
  8  9  1  0
  9 10  2  0
 10 11  1  0
 11 12  2  0
 12 13  1  0
 13 14  2  0
 14 15  1  0
 12 16  1  0
 11 17  1  0
 10 18  1  0
  8 19  1  0
  8 20  1  0
  7 21  1  0
 21 22  1  0
 22 23  1  0
 23 24  1  0
 24 25  2  0
 25 26  1  0
 26 27  1  0
 27 28  2  0
 28 29  1  0
 25 30  1  0
 23 31  1  0
 23 32  1  0
 22 33  1  0
 22 34  1  0
 21 35  2  0
  4 36  1  0
 36 37  2  0
 37 38  1  0
 36 39  1  0
  3 40  1  0
  2 41  1  0
  1 42  1  0
 37  1  1  0
 35  5  1  0
 14  9  1  0
 28 24  1  0
M  END
>  <cnnaffinity>  (1) 
-5.59764

>  <filename>  (1) 
c1ccc(-c2nc(CCc3cnoc3)n(Cc3cccnc3)n2)cc1

$$$$
