
     RDKit          3D

 43 46  0  0  0  0  0  0  0  0999 V2000
    2.4089   -4.7914   25.8663 C   0  0  0  0  0  0  0  0  0  0  0  0
    2.9695   -3.5127   25.9843 C   0  0  0  0  0  0  0  0  0  0  0  0
    3.8676   -3.0479   25.0224 C   0  0  0  0  0  0  0  0  0  0  0  0
    4.2090   -3.8561   23.9221 C   0  0  0  0  0  0  0  0  0  0  0  0
    5.0393   -3.2926   22.8176 C   0  0  0  0  0  0  0  0  0  0  0  0
    5.9593   -2.3213   22.9830 N   0  0  0  0  0  0  0  0  0  0  0  0
    6.0380   -1.7739   21.7517 N   0  0  0  0  0  0  0  0  0  0  0  0
    6.7648   -0.5453   21.4810 C   0  0  0  0  0  0  0  0  0  0  0  0
    6.3628    0.1591   20.1874 C   0  0  0  0  0  0  0  0  0  0  0  0
    5.2383    0.9953   20.1435 C   0  0  0  0  0  0  0  0  0  0  0  0
    4.8991    1.6123   18.9362 C   0  0  0  0  0  0  0  0  0  0  0  0
    5.6965    1.3812   17.8132 C   0  0  0  0  0  0  0  0  0  0  0  0
    6.7779    0.5900   17.8289 N   0  0  0  0  0  0  0  0  0  0  0  0
    7.0971    0.0142   18.9971 C   0  0  0  0  0  0  0  0  0  0  0  0
    8.0138   -0.5756   18.9901 H   0  0  0  0  0  0  0  0  0  0  0  0
    5.4650    1.8602   16.8617 H   0  0  0  0  0  0  0  0  0  0  0  0
    4.0587    2.2940   18.8614 H   0  0  0  0  0  0  0  0  0  0  0  0
    4.6543    1.1788   21.0478 H   0  0  0  0  0  0  0  0  0  0  0  0
    7.8479   -0.7396   21.4863 H   0  0  0  0  0  0  0  0  0  0  0  0
    6.5702    0.0939   22.3455 H   0  0  0  0  0  0  0  0  0  0  0  0
    5.7159   -2.8570   20.7993 C   0  0  0  0  0  0  0  0  0  0  0  0
    6.8970   -3.7055   20.4897 C   0  0  0  0  0  0  0  0  0  0  0  0
    8.0943   -3.6737   21.2022 C   0  0  0  0  0  0  0  0  0  0  0  0
    8.2108   -4.7642   22.2818 C   0  0  0  0  0  0  0  0  0  0  0  0
    8.8300   -4.7623   23.5098 C   0  0  0  0  0  0  0  0  0  0  0  0
    8.7109   -6.0883   23.9754 C   0  0  0  0  0  0  0  0  0  0  0  0
    8.0706   -6.8541   23.0958 N   0  0  0  0  0  0  0  0  0  0  0  0
    7.7732   -6.0285   22.0879 N   0  0  0  0  0  0  0  0  0  0  0  0
    7.1539   -6.3105   21.3413 H   0  0  0  0  0  0  0  0  0  0  0  0
    9.0746   -6.5311   24.8959 H   0  0  0  0  0  0  0  0  0  0  0  0
    9.3003   -3.9270   24.0143 H   0  0  0  0  0  0  0  0  0  0  0  0
    8.2105   -2.7147   21.7575 H   0  0  0  0  0  0  0  0  0  0  0  0
    9.0369   -3.7571   20.6065 H   0  0  0  0  0  0  0  0  0  0  0  0
    6.6234   -4.3884   19.7121 H   0  0  0  0  0  0  0  0  0  0  0  0
    5.3202   -2.5220   19.7900 H   0  0  0  0  0  0  0  0  0  0  0  0
    4.7588   -3.6333   21.5665 N   0  0  0  0  0  0  0  0  0  0  0  0
    3.6484   -5.1461   23.8104 C   0  0  0  0  0  0  0  0  0  0  0  0
    2.7695   -5.6153   24.7919 C   0  0  0  0  0  0  0  0  0  0  0  0
    2.3504   -6.6173   24.7166 H   0  0  0  0  0  0  0  0  0  0  0  0
    3.9007   -5.7570   22.9441 H   0  0  0  0  0  0  0  0  0  0  0  0
    4.3124   -2.0565   25.1021 H   0  0  0  0  0  0  0  0  0  0  0  0
    2.6943   -2.8745   26.8205 H   0  0  0  0  0  0  0  0  0  0  0  0
    1.7093   -5.1487   26.6201 H   0  0  0  0  0  0  0  0  0  0  0  0
  1  2  2  0
  2  3  1  0
  3  4  2  0
  4  5  1  0
  5  6  2  0
  6  7  1  0
  7  8  1  0
  8  9  1  0
  9 10  2  0
 10 11  1  0
 11 12  2  0
 12 13  1  0
 13 14  2  0
 14 15  1  0
 12 16  1  0
 11 17  1  0
 10 18  1  0
  8 19  1  0
  8 20  1  0
  7 21  1  0
 21 22  1  0
 22 23  1  0
 23 24  1  0
 24 25  2  0
 25 26  1  0
 26 27  2  0
 27 28  1  0
 28 29  1  0
 26 30  1  0
 25 31  1  0
 23 32  1  0
 23 33  1  0
 22 34  1  0
 22 35  1  0
 21 36  2  0
  4 37  1  0
 37 38  2  0
 38 39  1  0
 37 40  1  0
  3 41  1  0
  2 42  1  0
  1 43  1  0
 38  1  1  0
 36  5  1  0
 14  9  1  0
 28 24  1  0
M  END
>  <cnnaffinity>  (1) 
-5.8091

>  <filename>  (1) 
c1ccc(-c2nc(CCc3ccn[nH]3)n(Cc3cccnc3)n2)cc1

$$$$
