
     RDKit          3D

 45 48  0  0  0  0  0  0  0  0999 V2000
   12.6804    1.4079   24.5787 C   0  0  0  0  0  0  0  0  0  0  0  0
   11.6339    0.5558   24.9533 C   0  0  0  0  0  0  0  0  0  0  0  0
   10.3651    0.8429   24.4442 C   0  0  0  0  0  0  0  0  0  0  0  0
   10.1770    1.9604   23.6182 C   0  0  0  0  0  0  0  0  0  0  0  0
    8.8720    2.1953   22.8935 C   0  0  0  0  0  0  0  0  0  0  0  0
    9.0084    2.0268   21.3621 C   0  0  0  0  0  0  0  0  0  0  0  0
    9.5029    0.6286   20.9439 C   0  0  0  0  0  0  0  0  0  0  0  0
    8.6237   -0.4760   21.4142 C   0  0  0  0  0  0  0  0  0  0  0  0
    8.8703   -1.3164   22.3987 N   0  0  0  0  0  0  0  0  0  0  0  0
    7.6848   -1.9678   22.5554 C   0  0  0  0  0  0  0  0  0  0  0  0
    7.4286   -2.9259   23.6694 C   0  0  0  0  0  0  0  0  0  0  0  0
    8.6345   -3.7903   24.1352 C   0  0  0  0  0  0  0  0  0  0  0  0
    8.6012   -3.1050   25.5198 C   0  0  0  0  0  0  0  0  0  0  0  0
    7.3572   -2.2909   25.0998 C   0  0  0  0  0  0  0  0  0  0  0  0
    6.4408   -2.5137   25.6540 H   0  0  0  0  0  0  0  0  0  0  0  0
    7.5065   -1.2032   25.1098 H   0  0  0  0  0  0  0  0  0  0  0  0
    9.4790   -2.4753   25.7164 H   0  0  0  0  0  0  0  0  0  0  0  0
    8.4634   -3.7743   26.3740 H   0  0  0  0  0  0  0  0  0  0  0  0
    9.5510   -3.6148   23.5657 H   0  0  0  0  0  0  0  0  0  0  0  0
    8.4351   -4.8665   24.1474 H   0  0  0  0  0  0  0  0  0  0  0  0
    6.5340   -3.4905   23.3922 H   0  0  0  0  0  0  0  0  0  0  0  0
    6.7445   -1.6113   21.7055 N   0  0  0  0  0  0  0  0  0  0  0  0
    7.3566   -0.6647   20.9434 N   0  0  0  0  0  0  0  0  0  0  0  0
    6.6584   -0.0040   19.8894 C   0  0  0  0  0  0  0  0  0  0  0  0
    5.4391    0.6350   20.1459 C   0  0  0  0  0  0  0  0  0  0  0  0
    4.8107    1.3116   19.0962 C   0  0  0  0  0  0  0  0  0  0  0  0
    5.4066    1.3026   17.8300 C   0  0  0  0  0  0  0  0  0  0  0  0
    6.5575    0.6649   17.5668 N   0  0  0  0  0  0  0  0  0  0  0  0
    7.1653    0.0318   18.5775 C   0  0  0  0  0  0  0  0  0  0  0  0
    8.1021   -0.4729   18.3386 H   0  0  0  0  0  0  0  0  0  0  0  0
    4.9404    1.8200   16.9946 H   0  0  0  0  0  0  0  0  0  0  0  0
    3.8769    1.8440   19.2476 H   0  0  0  0  0  0  0  0  0  0  0  0
    5.0157    0.5910   21.1495 H   0  0  0  0  0  0  0  0  0  0  0  0
   10.5048    0.4484   21.3449 H   0  0  0  0  0  0  0  0  0  0  0  0
    9.5763    0.5693   19.8549 H   0  0  0  0  0  0  0  0  0  0  0  0
    9.7287    2.7628   20.9924 H   0  0  0  0  0  0  0  0  0  0  0  0
    8.0510    2.2487   20.8754 H   0  0  0  0  0  0  0  0  0  0  0  0
    8.1028    1.5082   23.2707 H   0  0  0  0  0  0  0  0  0  0  0  0
    8.5317    3.2078   23.1272 H   0  0  0  0  0  0  0  0  0  0  0  0
   11.1580    2.8444   23.3775 N   0  0  0  0  0  0  0  0  0  0  0  0
   12.3794    2.5592   23.8405 C   0  0  0  0  0  0  0  0  0  0  0  0
   13.1515    3.2948   23.6070 H   0  0  0  0  0  0  0  0  0  0  0  0
    9.5131    0.1926   24.6035 H   0  0  0  0  0  0  0  0  0  0  0  0
   11.7682   -0.2995   25.6243 H   0  0  0  0  0  0  0  0  0  0  0  0
   13.7142    1.1863   24.7974 H   0  0  0  0  0  0  0  0  0  0  0  0
  1  2  2  0
  2  3  1  0
  3  4  2  0
  4  5  1  0
  5  6  1  0
  6  7  1  0
  7  8  1  0
  8  9  2  0
  9 10  1  0
 10 11  1  0
 11 12  1  0
 12 13  1  0
 13 14  1  0
 14 15  1  0
 14 16  1  0
 13 17  1  0
 13 18  1  0
 12 19  1  0
 12 20  1  0
 11 21  1  0
 10 22  2  0
 22 23  1  0
 23 24  1  0
 24 25  2  0
 25 26  1  0
 26 27  2  0
 27 28  1  0
 28 29  2  0
 29 30  1  0
 27 31  1  0
 26 32  1  0
 25 33  1  0
  7 34  1  0
  7 35  1  0
  6 36  1  0
  6 37  1  0
  5 38  1  0
  5 39  1  0
  4 40  1  0
 40 41  2  0
 41 42  1  0
  3 43  1  0
  2 44  1  0
  1 45  1  0
 41  1  1  0
 23  8  1  0
 29 24  1  0
 14 11  1  0
M  END
>  <cnnaffinity>  (1) 
-6.27563

>  <filename>  (1) 
c1ccc(CCCc2nc(C3CCC3)nn2-c2cccnc2)nc1

$$$$
