
     RDKit          3D

 27 29  0  0  0  0  0  0  0  0999 V2000
    7.2697    4.1809   21.5290 H   0  0  0  0  0  0  0  0  0  0  0  0
    7.3440    3.4006   22.2852 C   0  0  0  0  0  0  0  0  0  0  0  0
    7.4718    2.1557   21.8265 N   0  0  0  0  0  0  0  0  0  0  0  0
    7.5406    1.1435   22.7189 C   0  0  0  0  0  0  0  0  0  0  0  0
    7.7052   -0.2530   22.2203 C   0  0  0  0  0  0  0  0  0  0  0  0
    8.2244   -1.2501   22.9157 N   0  0  0  0  0  0  0  0  0  0  0  0
    8.2281   -2.3294   22.0867 C   0  0  0  0  0  0  0  0  0  0  0  0
    8.6299   -3.2825   22.4095 H   0  0  0  0  0  0  0  0  0  0  0  0
    7.6778   -2.0012   20.8861 C   0  0  0  0  0  0  0  0  0  0  0  0
    7.3132   -2.5580   20.0519 H   0  0  0  0  0  0  0  0  0  0  0  0
    7.3548   -0.6689   20.9480 N   0  0  0  0  0  0  0  0  0  0  0  0
    6.6437    0.0035   19.9060 C   0  0  0  0  0  0  0  0  0  0  0  0
    7.1653    0.0472   18.6004 C   0  0  0  0  0  0  0  0  0  0  0  0
    8.1260   -0.4167   18.3712 H   0  0  0  0  0  0  0  0  0  0  0  0
    6.5600    0.6719   17.5851 N   0  0  0  0  0  0  0  0  0  0  0  0
    5.3931    1.2873   17.8281 C   0  0  0  0  0  0  0  0  0  0  0  0
    4.9348    1.8013   16.9845 H   0  0  0  0  0  0  0  0  0  0  0  0
    4.7905    1.2876   19.0867 C   0  0  0  0  0  0  0  0  0  0  0  0
    3.8750    1.8378   19.2436 H   0  0  0  0  0  0  0  0  0  0  0  0
    5.4120    0.6204   20.1447 C   0  0  0  0  0  0  0  0  0  0  0  0
    5.0013    0.6381   21.1508 H   0  0  0  0  0  0  0  0  0  0  0  0
    7.4981    1.3721   24.1045 C   0  0  0  0  0  0  0  0  0  0  0  0
    7.5805    0.5123   24.7565 H   0  0  0  0  0  0  0  0  0  0  0  0
    7.3762    2.6761   24.5812 C   0  0  0  0  0  0  0  0  0  0  0  0
    7.3592    2.8697   25.6538 H   0  0  0  0  0  0  0  0  0  0  0  0
    7.2961    3.7163   23.6496 C   0  0  0  0  0  0  0  0  0  0  0  0
    7.2042    4.7539   23.9446 H   0  0  0  0  0  0  0  0  0  0  0  0
  1  2  1  0
  2  3  2  0
  3  4  1  0
  4  5  1  0
  5  6  2  0
  6  7  1  0
  7  8  1  0
  7  9  2  0
  9 10  1  0
  9 11  1  0
 11 12  1  0
 12 13  2  0
 13 14  1  0
 13 15  1  0
 15 16  2  0
 16 17  1  0
 16 18  1  0
 18 19  1  0
 18 20  2  0
 20 21  1  0
  4 22  2  0
 22 23  1  0
 22 24  1  0
 24 25  1  0
 24 26  2  0
 26 27  1  0
 26  2  1  0
 11  5  1  0
 20 12  1  0
M  END
>  <cnnaffinity>  (1) 
-4.75036

>  <filename>  (1) 
c1ccc(-c2nccn2-c2cccnc2)nc1

$$$$
