
     RDKit          3D

 39 42  0  0  0  0  0  0  0  0999 V2000
   14.1487   -1.2900   21.2045 C   0  0  0  0  0  0  0  0  0  0  0  0
   13.9411   -0.1452   21.9822 C   0  0  0  0  0  0  0  0  0  0  0  0
   12.6391    0.2893   22.2501 C   0  0  0  0  0  0  0  0  0  0  0  0
   11.5501   -0.4793   21.7929 C   0  0  0  0  0  0  0  0  0  0  0  0
   10.1383   -0.0796   21.9400 C   0  0  0  0  0  0  0  0  0  0  0  0
    9.1793   -0.8794   21.4900 N   0  0  0  0  0  0  0  0  0  0  0  0
    8.0480   -0.2069   21.7511 N   0  0  0  0  0  0  0  0  0  0  0  0
    6.7789   -0.7178   21.2419 C   0  0  0  0  0  0  0  0  0  0  0  0
    6.2807    0.0520   20.0405 C   0  0  0  0  0  0  0  0  0  0  0  0
    5.0746    0.7570   20.0347 C   0  0  0  0  0  0  0  0  0  0  0  0
    4.7072    1.4502   18.8785 C   0  0  0  0  0  0  0  0  0  0  0  0
    5.5669    1.4204   17.7767 C   0  0  0  0  0  0  0  0  0  0  0  0
    6.7319    0.7528   17.7634 N   0  0  0  0  0  0  0  0  0  0  0  0
    7.0754    0.1036   18.8803 C   0  0  0  0  0  0  0  0  0  0  0  0
    8.0428   -0.3994   18.8620 H   0  0  0  0  0  0  0  0  0  0  0  0
    5.3113    1.9565   16.8648 H   0  0  0  0  0  0  0  0  0  0  0  0
    3.7868    2.0220   18.8276 H   0  0  0  0  0  0  0  0  0  0  0  0
    4.4403    0.7726   20.9251 H   0  0  0  0  0  0  0  0  0  0  0  0
    6.0470   -0.7205   22.0559 H   0  0  0  0  0  0  0  0  0  0  0  0
    6.9744   -1.7623   20.9841 H   0  0  0  0  0  0  0  0  0  0  0  0
    8.3666    0.9634   22.3438 C   0  0  0  0  0  0  0  0  0  0  0  0
    7.3461    1.8561   22.9941 C   0  0  0  0  0  0  0  0  0  0  0  0
    6.9515    1.3053   24.3501 C   0  0  0  0  0  0  0  0  0  0  0  0
    5.8666    0.5682   24.7157 C   0  0  0  0  0  0  0  0  0  0  0  0
    5.9066   -0.0234   25.9579 N   0  0  0  0  0  0  0  0  0  0  0  0
    7.0189    0.2802   26.5497 C   0  0  0  0  0  0  0  0  0  0  0  0
    8.0741    1.3188   25.6599 S   0  0  0  0  0  0  0  0  0  0  0  0
    7.3114   -0.0807   27.5308 H   0  0  0  0  0  0  0  0  0  0  0  0
    4.9903    0.4331   24.0934 H   0  0  0  0  0  0  0  0  0  0  0  0
    7.8010    2.8479   23.0787 H   0  0  0  0  0  0  0  0  0  0  0  0
    6.4643    1.9464   22.3508 H   0  0  0  0  0  0  0  0  0  0  0  0
    9.6748    1.0804   22.4651 N   0  0  0  0  0  0  0  0  0  0  0  0
   11.7925   -1.6769   21.1036 C   0  0  0  0  0  0  0  0  0  0  0  0
   13.0772   -2.0329   20.7292 C   0  0  0  0  0  0  0  0  0  0  0  0
   13.2579   -2.8389   20.0227 H   0  0  0  0  0  0  0  0  0  0  0  0
   10.9318   -2.2770   20.8285 H   0  0  0  0  0  0  0  0  0  0  0  0
   12.4628    1.2543   22.7195 H   0  0  0  0  0  0  0  0  0  0  0  0
   14.7999    0.4279   22.3169 H   0  0  0  0  0  0  0  0  0  0  0  0
   15.1265   -1.6142   20.9117 H   0  0  0  0  0  0  0  0  0  0  0  0
  1  2  2  0
  2  3  1  0
  3  4  2  0
  4  5  1  0
  5  6  2  0
  6  7  1  0
  7  8  1  0
  8  9  1  0
  9 10  2  0
 10 11  1  0
 11 12  2  0
 12 13  1  0
 13 14  2  0
 14 15  1  0
 12 16  1  0
 11 17  1  0
 10 18  1  0
  8 19  1  0
  8 20  1  0
  7 21  1  0
 21 22  1  0
 22 23  1  0
 23 24  2  0
 24 25  1  0
 25 26  2  0
 26 27  1  0
 26 28  1  0
 24 29  1  0
 22 30  1  0
 22 31  1  0
 21 32  2  0
  4 33  1  0
 33 34  2  0
 34 35  1  0
 33 36  1  0
  3 37  1  0
  2 38  1  0
  1 39  1  0
 34  1  1  0
 32  5  1  0
 14  9  1  0
 27 23  1  0
M  END
>  <cnnaffinity>  (1) 
-6.36875

>  <filename>  (1) 
c1ccc(-c2nc(Cc3cncs3)n(Cc3cccnc3)n2)cc1

$$$$
