
     RDKit          3D

 32 34  0  0  0  0  0  0  0  0999 V2000
    4.9551    1.8352   16.9462 H   0  0  0  0  0  0  0  0  0  0  0  0
    5.4090    1.3210   17.7919 C   0  0  0  0  0  0  0  0  0  0  0  0
    6.5711    0.6924   17.5508 N   0  0  0  0  0  0  0  0  0  0  0  0
    7.1430    0.0541   18.5801 C   0  0  0  0  0  0  0  0  0  0  0  0
    8.0874   -0.4418   18.3615 H   0  0  0  0  0  0  0  0  0  0  0  0
    6.5934   -0.0344   19.8762 C   0  0  0  0  0  0  0  0  0  0  0  0
    7.2713   -0.8087   20.9544 C   0  0  0  0  0  0  0  0  0  0  0  0
    6.5674   -1.6264   21.8609 C   0  0  0  0  0  0  0  0  0  0  0  0
    5.4922   -1.7472   21.7626 H   0  0  0  0  0  0  0  0  0  0  0  0
    7.1552   -2.3315   22.8419 N   0  0  0  0  0  0  0  0  0  0  0  0
    8.4839   -2.2144   22.9869 C   0  0  0  0  0  0  0  0  0  0  0  0
    8.9248   -2.7772   23.8119 H   0  0  0  0  0  0  0  0  0  0  0  0
    9.2971   -1.3967   22.1576 C   0  0  0  0  0  0  0  0  0  0  0  0
   10.6849   -1.2344   22.3573 N   0  0  0  0  0  0  0  0  0  0  0  0
   11.2402   -2.0507   22.5531 H   0  0  0  0  0  0  0  0  0  0  0  0
   11.4247   -0.0492   22.3049 C   0  0  0  0  0  0  0  0  0  0  0  0
   10.8255    1.2226   22.3125 C   0  0  0  0  0  0  0  0  0  0  0  0
    9.7435    1.3067   22.3515 H   0  0  0  0  0  0  0  0  0  0  0  0
   11.6141    2.3748   22.3721 C   0  0  0  0  0  0  0  0  0  0  0  0
   11.1129    3.3382   22.3665 H   0  0  0  0  0  0  0  0  0  0  0  0
   13.0053    2.2838   22.4758 C   0  0  0  0  0  0  0  0  0  0  0  0
   13.6365    3.1679   22.5479 H   0  0  0  0  0  0  0  0  0  0  0  0
   13.6059    1.0207   22.4719 C   0  0  0  0  0  0  0  0  0  0  0  0
   14.6905    0.9640   22.5446 H   0  0  0  0  0  0  0  0  0  0  0  0
   12.8297   -0.1358   22.3668 C   0  0  0  0  0  0  0  0  0  0  0  0
   13.3086   -1.1094   22.3294 H   0  0  0  0  0  0  0  0  0  0  0  0
    8.6609   -0.7201   21.1110 C   0  0  0  0  0  0  0  0  0  0  0  0
    9.2654   -0.0789   20.4704 H   0  0  0  0  0  0  0  0  0  0  0  0
    5.3895    0.6482   20.1058 C   0  0  0  0  0  0  0  0  0  0  0  0
    4.9574    0.6679   21.1077 H   0  0  0  0  0  0  0  0  0  0  0  0
    4.7902    1.3315   19.0464 C   0  0  0  0  0  0  0  0  0  0  0  0
    3.8613    1.8715   19.1815 H   0  0  0  0  0  0  0  0  0  0  0  0
  1  2  1  0
  2  3  2  0
  3  4  1  0
  4  5  1  0
  4  6  2  0
  6  7  1  0
  7  8  2  0
  8  9  1  0
  8 10  1  0
 10 11  2  0
 11 12  1  0
 11 13  1  0
 13 14  1  0
 14 15  1  0
 14 16  1  0
 16 17  2  0
 17 18  1  0
 17 19  1  0
 19 20  1  0
 19 21  2  0
 21 22  1  0
 21 23  1  0
 23 24  1  0
 23 25  2  0
 25 26  1  0
 13 27  2  0
 27 28  1  0
  6 29  1  0
 29 30  1  0
 29 31  2  0
 31 32  1  0
 31  2  1  0
 27  7  1  0
 25 16  1  0
M  END
>  <cnnaffinity>  (1) 
-4.99894

>  <filename>  (1) 
c1ccc(Nc2cncc(-c3cccnc3)c2)cc1

$$$$
