
     RDKit          3D

 40 43  0  0  0  0  0  0  0  0999 V2000
    6.5366    3.1891   27.6268 C   0  0  0  0  0  0  0  0  0  0  0  0
    5.7213    2.2074   27.0502 C   0  0  0  0  0  0  0  0  0  0  0  0
    6.0673    1.6253   25.8259 C   0  0  0  0  0  0  0  0  0  0  0  0
    7.2423    2.0325   25.1557 C   0  0  0  0  0  0  0  0  0  0  0  0
    7.6580    1.4627   23.8462 C   0  0  0  0  0  0  0  0  0  0  0  0
    7.0284    0.4956   23.1971 N   0  0  0  0  0  0  0  0  0  0  0  0
    7.8016    0.2948   22.1013 N   0  0  0  0  0  0  0  0  0  0  0  0
    7.3849   -0.6457   21.0625 C   0  0  0  0  0  0  0  0  0  0  0  0
    6.6789    0.0235   19.9027 C   0  0  0  0  0  0  0  0  0  0  0  0
    5.4672    0.6933   20.1154 C   0  0  0  0  0  0  0  0  0  0  0  0
    4.8594    1.3303   19.0331 C   0  0  0  0  0  0  0  0  0  0  0  0
    5.4789    1.2743   17.7803 C   0  0  0  0  0  0  0  0  0  0  0  0
    6.6278    0.6177   17.5548 N   0  0  0  0  0  0  0  0  0  0  0  0
    7.2021    0.0133   18.6020 C   0  0  0  0  0  0  0  0  0  0  0  0
    8.1282   -0.5265   18.3872 H   0  0  0  0  0  0  0  0  0  0  0  0
    5.0265    1.7611   16.9174 H   0  0  0  0  0  0  0  0  0  0  0  0
    3.9283    1.8751   19.1466 H   0  0  0  0  0  0  0  0  0  0  0  0
    5.0255    0.7146   21.1151 H   0  0  0  0  0  0  0  0  0  0  0  0
    8.2592   -1.2043   20.7109 H   0  0  0  0  0  0  0  0  0  0  0  0
    6.7222   -1.3630   21.5563 H   0  0  0  0  0  0  0  0  0  0  0  0
    8.8457    1.1507   22.1348 C   0  0  0  0  0  0  0  0  0  0  0  0
    9.9673    1.2317   21.1582 C   0  0  0  0  0  0  0  0  0  0  0  0
   11.1042    0.3319   21.5197 C   0  0  0  0  0  0  0  0  0  0  0  0
   12.0400    0.3472   22.4957 C   0  0  0  0  0  0  0  0  0  0  0  0
   12.8754   -0.7991   22.2770 C   0  0  0  0  0  0  0  0  0  0  0  0
   12.3535   -1.4397   21.2038 C   0  0  0  0  0  0  0  0  0  0  0  0
   11.2649   -0.7646   20.7483 O   0  0  0  0  0  0  0  0  0  0  0  0
   12.6488   -2.3012   20.6224 H   0  0  0  0  0  0  0  0  0  0  0  0
   13.7526   -1.1041   22.8283 H   0  0  0  0  0  0  0  0  0  0  0  0
   12.1294    1.0904   23.2754 H   0  0  0  0  0  0  0  0  0  0  0  0
    9.6293    0.9797   20.1546 H   0  0  0  0  0  0  0  0  0  0  0  0
   10.3155    2.2678   21.1869 H   0  0  0  0  0  0  0  0  0  0  0  0
    8.7797    1.9035   23.2047 N   0  0  0  0  0  0  0  0  0  0  0  0
    8.0630    3.0110   25.7607 C   0  0  0  0  0  0  0  0  0  0  0  0
    7.7111    3.5854   26.9808 C   0  0  0  0  0  0  0  0  0  0  0  0
    8.3559    4.3399   27.4262 H   0  0  0  0  0  0  0  0  0  0  0  0
    8.9858    3.3075   25.2662 H   0  0  0  0  0  0  0  0  0  0  0  0
    5.4353    0.8454   25.4026 H   0  0  0  0  0  0  0  0  0  0  0  0
    4.8151    1.8916   27.5623 H   0  0  0  0  0  0  0  0  0  0  0  0
    6.2583    3.6414   28.5750 H   0  0  0  0  0  0  0  0  0  0  0  0
  1  2  2  0
  2  3  1  0
  3  4  2  0
  4  5  1  0
  5  6  2  0
  6  7  1  0
  7  8  1  0
  8  9  1  0
  9 10  2  0
 10 11  1  0
 11 12  2  0
 12 13  1  0
 13 14  2  0
 14 15  1  0
 12 16  1  0
 11 17  1  0
 10 18  1  0
  8 19  1  0
  8 20  1  0
  7 21  1  0
 21 22  1  0
 22 23  1  0
 23 24  2  0
 24 25  1  0
 25 26  2  0
 26 27  1  0
 26 28  1  0
 25 29  1  0
 24 30  1  0
 22 31  1  0
 22 32  1  0
 21 33  2  0
  4 34  1  0
 34 35  2  0
 35 36  1  0
 34 37  1  0
  3 38  1  0
  2 39  1  0
  1 40  1  0
 35  1  1  0
 33  5  1  0
 14  9  1  0
 27 23  1  0
M  END
>  <cnnaffinity>  (1) 
-6.14416

>  <filename>  (1) 
c1ccc(-c2nc(Cc3ccco3)n(Cc3cccnc3)n2)cc1

$$$$
