
     RDKit          3D

 47 51  0  0  0  0  0  0  0  0999 V2000
   13.9048   -0.7406   21.7221 C   0  0  0  0  0  0  0  0  0  0  0  0
   13.1074   -1.8713   21.6013 C   0  0  0  0  0  0  0  0  0  0  0  0
   11.7750   -1.8341   21.9928 C   0  0  0  0  0  0  0  0  0  0  0  0
   11.2575   -0.6232   22.4817 C   0  0  0  0  0  0  0  0  0  0  0  0
    9.8242   -0.3301   22.4024 C   0  0  0  0  0  0  0  0  0  0  0  0
    8.8960   -1.1299   21.9025 N   0  0  0  0  0  0  0  0  0  0  0  0
    7.7930   -0.3539   21.9235 N   0  0  0  0  0  0  0  0  0  0  0  0
    6.5416   -0.7834   21.3278 C   0  0  0  0  0  0  0  0  0  0  0  0
    6.1689    0.0422   20.1149 C   0  0  0  0  0  0  0  0  0  0  0  0
    4.9928    0.7931   20.0472 C   0  0  0  0  0  0  0  0  0  0  0  0
    4.6935    1.4758   18.8642 C   0  0  0  0  0  0  0  0  0  0  0  0
    5.6018    1.4047   17.8049 C   0  0  0  0  0  0  0  0  0  0  0  0
    6.7562    0.7254   17.8662 N   0  0  0  0  0  0  0  0  0  0  0  0
    7.0274    0.0755   19.0035 C   0  0  0  0  0  0  0  0  0  0  0  0
    7.9765   -0.4570   19.0357 H   0  0  0  0  0  0  0  0  0  0  0  0
    5.4050    1.9196   16.8660 H   0  0  0  0  0  0  0  0  0  0  0  0
    3.7882    2.0618   18.7534 H   0  0  0  0  0  0  0  0  0  0  0  0
    4.3230    0.8476   20.9077 H   0  0  0  0  0  0  0  0  0  0  0  0
    6.6476   -1.8476   21.0812 H   0  0  0  0  0  0  0  0  0  0  0  0
    5.7844   -0.6825   22.1071 H   0  0  0  0  0  0  0  0  0  0  0  0
    8.1035    0.8634   22.4166 C   0  0  0  0  0  0  0  0  0  0  0  0
    7.1417    1.8553   22.9953 C   0  0  0  0  0  0  0  0  0  0  0  0
    6.9406    1.4767   24.3968 N   0  0  0  0  0  0  0  0  0  0  0  0
    7.8862    1.5995   25.3674 C   0  0  0  0  0  0  0  0  0  0  0  0
    7.6096    0.6527   26.3238 C   0  0  0  0  0  0  0  0  0  0  0  0
    6.4580   -0.0221   25.8379 C   0  0  0  0  0  0  0  0  0  0  0  0
    5.6829   -1.1433   26.4046 C   0  0  0  0  0  0  0  0  0  0  0  0
    5.5076   -1.3110   27.8950 C   0  0  0  0  0  0  0  0  0  0  0  0
    6.3352   -2.2966   27.1334 C   0  0  0  0  0  0  0  0  0  0  0  0
    7.4142   -2.2764   27.2678 H   0  0  0  0  0  0  0  0  0  0  0  0
    5.9431   -3.2933   26.9609 H   0  0  0  0  0  0  0  0  0  0  0  0
    4.5268   -1.6061   28.2529 H   0  0  0  0  0  0  0  0  0  0  0  0
    6.0302   -0.6173   28.5502 H   0  0  0  0  0  0  0  0  0  0  0  0
    4.8255   -1.3886   25.7781 H   0  0  0  0  0  0  0  0  0  0  0  0
    6.0931    0.4731   24.6614 N   0  0  0  0  0  0  0  0  0  0  0  0
    8.1765    0.4234   27.2156 H   0  0  0  0  0  0  0  0  0  0  0  0
    8.7141    2.2854   25.2262 H   0  0  0  0  0  0  0  0  0  0  0  0
    6.1766    1.8539   22.4934 H   0  0  0  0  0  0  0  0  0  0  0  0
    7.5844    2.8519   22.9672 H   0  0  0  0  0  0  0  0  0  0  0  0
    9.3814    0.9167   22.7078 N   0  0  0  0  0  0  0  0  0  0  0  0
   12.1298    0.4325   22.8233 C   0  0  0  0  0  0  0  0  0  0  0  0
   13.4565    0.3897   22.4108 C   0  0  0  0  0  0  0  0  0  0  0  0
   14.0926    1.2631   22.5242 H   0  0  0  0  0  0  0  0  0  0  0  0
   11.7421    1.2945   23.3661 H   0  0  0  0  0  0  0  0  0  0  0  0
   11.1187   -2.6900   21.8692 H   0  0  0  0  0  0  0  0  0  0  0  0
   13.5577   -2.7257   21.1237 H   0  0  0  0  0  0  0  0  0  0  0  0
   14.7847   -0.7569   21.1169 H   0  0  0  0  0  0  0  0  0  0  0  0
  1  2  2  0
  2  3  1  0
  3  4  2  0
  4  5  1  0
  5  6  2  0
  6  7  1  0
  7  8  1  0
  8  9  1  0
  9 10  2  0
 10 11  1  0
 11 12  2  0
 12 13  1  0
 13 14  2  0
 14 15  1  0
 12 16  1  0
 11 17  1  0
 10 18  1  0
  8 19  1  0
  8 20  1  0
  7 21  1  0
 21 22  1  0
 22 23  1  0
 23 24  1  0
 24 25  2  0
 25 26  1  0
 26 27  1  0
 27 28  1  0
 28 29  1  0
 29 30  1  0
 29 31  1  0
 28 32  1  0
 28 33  1  0
 27 34  1  0
 26 35  2  0
 25 36  1  0
 24 37  1  0
 22 38  1  0
 22 39  1  0
 21 40  2  0
  4 41  1  0
 41 42  2  0
 42 43  1  0
 41 44  1  0
  3 45  1  0
  2 46  1  0
  1 47  1  0
 42  1  1  0
 40  5  1  0
 14  9  1  0
 35 23  1  0
 29 27  1  0
M  END
>  <cnnaffinity>  (1) 
-6.53113

>  <filename>  (1) 
c1ccc(-c2nc(Cn3ccc(C4CC4)n3)n(Cc3cccnc3)n2)cc1

$$$$
