
     RDKit          3D

 35 37  0  0  0  0  0  0  0  0999 V2000
    4.8759    1.9586   16.8782 H   0  0  0  0  0  0  0  0  0  0  0  0
    5.3492    1.4212   17.6968 C   0  0  0  0  0  0  0  0  0  0  0  0
    6.5113    0.8080   17.4135 N   0  0  0  0  0  0  0  0  0  0  0  0
    7.1262    0.1469   18.4049 C   0  0  0  0  0  0  0  0  0  0  0  0
    8.0690   -0.3414   18.1517 H   0  0  0  0  0  0  0  0  0  0  0  0
    6.6200    0.0330   19.7269 C   0  0  0  0  0  0  0  0  0  0  0  0
    7.3061   -0.7379   20.6973 N   0  0  0  0  0  0  0  0  0  0  0  0
    6.5598   -1.4173   21.7656 C   0  0  0  0  0  0  0  0  0  0  0  0
    6.3592   -0.7438   22.6183 H   0  0  0  0  0  0  0  0  0  0  0  0
    5.5966   -1.7701   21.3829 H   0  0  0  0  0  0  0  0  0  0  0  0
    7.3900   -2.6104   22.2639 C   0  0  0  0  0  0  0  0  0  0  0  0
    6.8370   -3.2082   23.0020 H   0  0  0  0  0  0  0  0  0  0  0  0
    7.5906   -3.2607   21.3933 H   0  0  0  0  0  0  0  0  0  0  0  0
    8.6693   -2.1305   22.8167 N   0  0  0  0  0  0  0  0  0  0  0  0
    9.2819   -2.8844   23.8454 C   0  0  0  0  0  0  0  0  0  0  0  0
   10.4884   -3.5823   23.7027 C   0  0  0  0  0  0  0  0  0  0  0  0
   11.0547   -3.4770   22.7860 H   0  0  0  0  0  0  0  0  0  0  0  0
   10.9384   -4.4247   24.7267 C   0  0  0  0  0  0  0  0  0  0  0  0
   11.8256   -5.0236   24.5768 H   0  0  0  0  0  0  0  0  0  0  0  0
   10.2548   -4.5090   25.9393 C   0  0  0  0  0  0  0  0  0  0  0  0
   10.6256   -5.1735   26.7188 H   0  0  0  0  0  0  0  0  0  0  0  0
    9.1164   -3.7200   26.1349 C   0  0  0  0  0  0  0  0  0  0  0  0
    8.6203   -3.7146   27.1000 H   0  0  0  0  0  0  0  0  0  0  0  0
    8.6166   -2.9487   25.0811 C   0  0  0  0  0  0  0  0  0  0  0  0
    7.7097   -2.3590   25.1739 H   0  0  0  0  0  0  0  0  0  0  0  0
    9.4282   -1.4605   21.7557 C   0  0  0  0  0  0  0  0  0  0  0  0
    9.5940   -2.1525   20.9097 H   0  0  0  0  0  0  0  0  0  0  0  0
   10.4090   -1.1236   22.1226 H   0  0  0  0  0  0  0  0  0  0  0  0
    8.6058   -0.2680   21.2199 C   0  0  0  0  0  0  0  0  0  0  0  0
    9.1536    0.2412   20.4213 H   0  0  0  0  0  0  0  0  0  0  0  0
    8.4568    0.4571   22.0382 H   0  0  0  0  0  0  0  0  0  0  0  0
    5.3930    0.6760   19.9879 C   0  0  0  0  0  0  0  0  0  0  0  0
    4.9862    0.6278   20.9952 H   0  0  0  0  0  0  0  0  0  0  0  0
    4.7522    1.3814   18.9612 C   0  0  0  0  0  0  0  0  0  0  0  0
    3.8104    1.8940   19.1361 H   0  0  0  0  0  0  0  0  0  0  0  0
  1  2  1  0
  2  3  2  0
  3  4  1  0
  4  5  1  0
  4  6  2  0
  6  7  1  0
  7  8  1  0
  8  9  1  0
  8 10  1  0
  8 11  1  0
 11 12  1  0
 11 13  1  0
 11 14  1  0
 14 15  1  0
 15 16  2  0
 16 17  1  0
 16 18  1  0
 18 19  1  0
 18 20  2  0
 20 21  1  0
 20 22  1  0
 22 23  1  0
 22 24  2  0
 24 25  1  0
 14 26  1  0
 26 27  1  0
 26 28  1  0
 26 29  1  0
 29 30  1  0
 29 31  1  0
  6 32  1  0
 32 33  1  0
 32 34  2  0
 34 35  1  0
 34  2  1  0
 29  7  1  0
 24 15  1  0
M  END
>  <cnnaffinity>  (1) 
-4.70733

>  <filename>  (1) 
c1ccc(N2CCN(c3cccnc3)CC2)cc1

$$$$
