
     RDKit          3D

 42 45  0  0  0  0  0  0  0  0999 V2000
    7.7494    6.2180   21.5597 C   0  0  0  0  0  0  0  0  0  0  0  0
    8.9892    5.9940   22.1599 C   0  0  0  0  0  0  0  0  0  0  0  0
    9.1108    4.9195   23.0404 C   0  0  0  0  0  0  0  0  0  0  0  0
    7.9777    4.1447   23.3444 C   0  0  0  0  0  0  0  0  0  0  0  0
    8.0446    3.0227   24.3563 C   0  0  0  0  0  0  0  0  0  0  0  0
    8.4173    1.6673   23.7346 C   0  0  0  0  0  0  0  0  0  0  0  0
    7.3391    1.1549   22.7642 C   0  0  0  0  0  0  0  0  0  0  0  0
    7.6391   -0.1880   22.1933 C   0  0  0  0  0  0  0  0  0  0  0  0
    8.2516   -1.1449   22.8606 N   0  0  0  0  0  0  0  0  0  0  0  0
    8.2643   -2.1774   21.9880 C   0  0  0  0  0  0  0  0  0  0  0  0
    8.8920   -3.4699   22.3485 C   0  0  0  0  0  0  0  0  0  0  0  0
    8.2135   -4.7841   22.0480 C   0  0  0  0  0  0  0  0  0  0  0  0
    8.3899   -4.3495   23.4714 C   0  0  0  0  0  0  0  0  0  0  0  0
    9.1636   -4.8469   24.0542 H   0  0  0  0  0  0  0  0  0  0  0  0
    7.5100   -4.0584   24.0423 H   0  0  0  0  0  0  0  0  0  0  0  0
    8.7846   -5.6305   21.6755 H   0  0  0  0  0  0  0  0  0  0  0  0
    7.2138   -4.7078   21.6231 H   0  0  0  0  0  0  0  0  0  0  0  0
    9.9755   -3.3749   22.3034 H   0  0  0  0  0  0  0  0  0  0  0  0
    7.7284   -1.9195   20.8104 N   0  0  0  0  0  0  0  0  0  0  0  0
    7.2897   -0.6430   20.9490 N   0  0  0  0  0  0  0  0  0  0  0  0
    6.5976    0.0039   19.8832 C   0  0  0  0  0  0  0  0  0  0  0  0
    5.3881    0.6751   20.0975 C   0  0  0  0  0  0  0  0  0  0  0  0
    4.7939    1.3310   19.0161 C   0  0  0  0  0  0  0  0  0  0  0  0
    5.4289    1.3025   17.7705 C   0  0  0  0  0  0  0  0  0  0  0  0
    6.5713    0.6281   17.5489 N   0  0  0  0  0  0  0  0  0  0  0  0
    7.1285   -0.0189   18.5785 C   0  0  0  0  0  0  0  0  0  0  0  0
    8.0430   -0.5670   18.3688 H   0  0  0  0  0  0  0  0  0  0  0  0
    5.0023    1.8322   16.9213 H   0  0  0  0  0  0  0  0  0  0  0  0
    3.8605    1.8684   19.1333 H   0  0  0  0  0  0  0  0  0  0  0  0
    4.9239    0.6819   21.0859 H   0  0  0  0  0  0  0  0  0  0  0  0
    7.1655    1.8790   21.9622 H   0  0  0  0  0  0  0  0  0  0  0  0
    6.3890    1.0664   23.3111 H   0  0  0  0  0  0  0  0  0  0  0  0
    9.3862    1.7450   23.2188 H   0  0  0  0  0  0  0  0  0  0  0  0
    8.5525    0.9325   24.5389 H   0  0  0  0  0  0  0  0  0  0  0  0
    8.7732    3.2777   25.1384 H   0  0  0  0  0  0  0  0  0  0  0  0
    7.0657    2.9504   24.8472 H   0  0  0  0  0  0  0  0  0  0  0  0
    6.7886    4.3562   22.7577 N   0  0  0  0  0  0  0  0  0  0  0  0
    6.6964    5.3546   21.8685 C   0  0  0  0  0  0  0  0  0  0  0  0
    5.7278    5.4730   21.3852 H   0  0  0  0  0  0  0  0  0  0  0  0
   10.0673    4.6792   23.4941 H   0  0  0  0  0  0  0  0  0  0  0  0
    9.8449    6.6333   21.9330 H   0  0  0  0  0  0  0  0  0  0  0  0
    7.5860    7.0622   20.9008 H   0  0  0  0  0  0  0  0  0  0  0  0
  1  2  2  0
  2  3  1  0
  3  4  2  0
  4  5  1  0
  5  6  1  0
  6  7  1  0
  7  8  1  0
  8  9  2  0
  9 10  1  0
 10 11  1  0
 11 12  1  0
 12 13  1  0
 13 14  1  0
 13 15  1  0
 12 16  1  0
 12 17  1  0
 11 18  1  0
 10 19  2  0
 19 20  1  0
 20 21  1  0
 21 22  2  0
 22 23  1  0
 23 24  2  0
 24 25  1  0
 25 26  2  0
 26 27  1  0
 24 28  1  0
 23 29  1  0
 22 30  1  0
  7 31  1  0
  7 32  1  0
  6 33  1  0
  6 34  1  0
  5 35  1  0
  5 36  1  0
  4 37  1  0
 37 38  2  0
 38 39  1  0
  3 40  1  0
  2 41  1  0
  1 42  1  0
 38  1  1  0
 20  8  1  0
 26 21  1  0
 13 11  1  0
M  END
>  <cnnaffinity>  (1) 
-6.08743

>  <filename>  (1) 
c1ccc(CCCc2nc(C3CC3)nn2-c2cccnc2)nc1

$$$$
