
     RDKit          3D

 35 38  0  0  0  0  0  0  0  0999 V2000
    4.9573    1.7986   16.9187 H   0  0  0  0  0  0  0  0  0  0  0  0
    5.4363    1.3158   17.7686 C   0  0  0  0  0  0  0  0  0  0  0  0
    6.6045    0.7035   17.5206 N   0  0  0  0  0  0  0  0  0  0  0  0
    7.2131    0.0987   18.5455 C   0  0  0  0  0  0  0  0  0  0  0  0
    8.1547   -0.3950   18.3213 H   0  0  0  0  0  0  0  0  0  0  0  0
    6.7005    0.0702   19.8574 C   0  0  0  0  0  0  0  0  0  0  0  0
    7.3937   -0.6696   20.9293 C   0  0  0  0  0  0  0  0  0  0  0  0
    8.6052   -1.2153   20.7464 N   0  0  0  0  0  0  0  0  0  0  0  0
    8.7877   -1.9061   21.8925 N   0  0  0  0  0  0  0  0  0  0  0  0
    9.7551   -2.7670   22.3792 C   0  0  0  0  0  0  0  0  0  0  0  0
   10.7085   -2.8487   21.8914 H   0  0  0  0  0  0  0  0  0  0  0  0
    9.2480   -3.2978   23.5217 C   0  0  0  0  0  0  0  0  0  0  0  0
    9.6751   -4.0569   24.1659 H   0  0  0  0  0  0  0  0  0  0  0  0
    7.9956   -2.7341   23.7734 N   0  0  0  0  0  0  0  0  0  0  0  0
    6.9882   -3.1786   24.7350 C   0  0  0  0  0  0  0  0  0  0  0  0
    7.5083   -3.5975   25.6056 H   0  0  0  0  0  0  0  0  0  0  0  0
    6.4439   -2.2867   25.0687 H   0  0  0  0  0  0  0  0  0  0  0  0
    6.0178   -4.2044   24.1548 C   0  0  0  0  0  0  0  0  0  0  0  0
    4.7157   -3.8451   23.7665 C   0  0  0  0  0  0  0  0  0  0  0  0
    4.3351   -2.8553   24.0177 H   0  0  0  0  0  0  0  0  0  0  0  0
    3.8917   -4.7554   23.0882 C   0  0  0  0  0  0  0  0  0  0  0  0
    2.8889   -4.4765   22.7713 H   0  0  0  0  0  0  0  0  0  0  0  0
    4.3543   -6.0458   22.8143 C   0  0  0  0  0  0  0  0  0  0  0  0
    3.7243   -6.7442   22.2651 H   0  0  0  0  0  0  0  0  0  0  0  0
    5.6222   -6.4331   23.2596 C   0  0  0  0  0  0  0  0  0  0  0  0
    5.9755   -7.4373   23.0532 H   0  0  0  0  0  0  0  0  0  0  0  0
    6.4488   -5.5209   23.9224 C   0  0  0  0  0  0  0  0  0  0  0  0
    7.4506   -5.8142   24.2344 H   0  0  0  0  0  0  0  0  0  0  0  0
    7.7439   -1.8532   22.7447 C   0  0  0  0  0  0  0  0  0  0  0  0
    6.8265   -0.9730   22.1936 C   0  0  0  0  0  0  0  0  0  0  0  0
    5.9975   -0.4682   22.6477 H   0  0  0  0  0  0  0  0  0  0  0  0
    5.4728    0.7142   20.0963 C   0  0  0  0  0  0  0  0  0  0  0  0
    5.0213    0.7276   21.0924 H   0  0  0  0  0  0  0  0  0  0  0  0
    4.8337    1.3429   19.0326 C   0  0  0  0  0  0  0  0  0  0  0  0
    3.8823    1.8468   19.1688 H   0  0  0  0  0  0  0  0  0  0  0  0
  1  2  1  0
  2  3  2  0
  3  4  1  0
  4  5  1  0
  4  6  2  0
  6  7  1  0
  7  8  2  0
  8  9  1  0
  9 10  1  0
 10 11  1  0
 10 12  2  0
 12 13  1  0
 12 14  1  0
 14 15  1  0
 15 16  1  0
 15 17  1  0
 15 18  1  0
 18 19  2  0
 19 20  1  0
 19 21  1  0
 21 22  1  0
 21 23  2  0
 23 24  1  0
 23 25  1  0
 25 26  1  0
 25 27  2  0
 27 28  1  0
 14 29  1  0
 29 30  2  0
 30 31  1  0
  6 32  1  0
 32 33  1  0
 32 34  2  0
 34 35  1  0
 34  2  1  0
 30  7  1  0
 29  9  1  0
 27 18  1  0
M  END
>  <cnnaffinity>  (1) 
-5.54131

>  <filename>  (1) 
c1ccc(Cn2ccn3nc(-c4cccnc4)cc23)cc1

$$$$
