
     RDKit          3D

 36 39  0  0  0  0  0  0  0  0999 V2000
    4.9812    1.8439   16.9325 H   0  0  0  0  0  0  0  0  0  0  0  0
    5.4203    1.3018   17.7691 C   0  0  0  0  0  0  0  0  0  0  0  0
    6.5637    0.6437   17.5266 N   0  0  0  0  0  0  0  0  0  0  0  0
    7.1472    0.0074   18.5470 C   0  0  0  0  0  0  0  0  0  0  0  0
    8.0719   -0.5151   18.3138 H   0  0  0  0  0  0  0  0  0  0  0  0
    6.6241   -0.0111   19.8543 C   0  0  0  0  0  0  0  0  0  0  0  0
    7.3917   -0.6021   20.9646 C   0  0  0  0  0  0  0  0  0  0  0  0
    8.5831   -1.1745   20.7412 N   0  0  0  0  0  0  0  0  0  0  0  0
    9.0088   -1.4516   21.9892 N   0  0  0  0  0  0  0  0  0  0  0  0
   10.1967   -1.9462   22.4955 C   0  0  0  0  0  0  0  0  0  0  0  0
   10.9697   -2.3051   21.8377 H   0  0  0  0  0  0  0  0  0  0  0  0
   10.0937   -1.8278   23.8388 C   0  0  0  0  0  0  0  0  0  0  0  0
   10.7742   -2.0753   24.6320 H   0  0  0  0  0  0  0  0  0  0  0  0
    8.8612   -1.2540   24.1711 N   0  0  0  0  0  0  0  0  0  0  0  0
    8.5553   -0.4404   25.6539 S   0  0  0  0  0  0  0  0  0  0  0  0
    9.3503    1.1876   25.3012 C   0  0  0  0  0  0  0  0  0  0  0  0
    9.2218    1.7842   26.2154 H   0  0  0  0  0  0  0  0  0  0  0  0
   10.4246    1.0277   25.1674 H   0  0  0  0  0  0  0  0  0  0  0  0
    8.7231    1.8835   24.1132 C   0  0  0  0  0  0  0  0  0  0  0  0
    7.4270    2.4066   24.2561 C   0  0  0  0  0  0  0  0  0  0  0  0
    6.9628    2.4124   25.2402 H   0  0  0  0  0  0  0  0  0  0  0  0
    6.7232    2.9030   23.1601 C   0  0  0  0  0  0  0  0  0  0  0  0
    5.7315    3.3337   23.3011 H   0  0  0  0  0  0  0  0  0  0  0  0
    7.3137    2.8748   21.8915 C   0  0  0  0  0  0  0  0  0  0  0  0
    6.7512    3.2114   21.0280 H   0  0  0  0  0  0  0  0  0  0  0  0
    8.6235    2.3980   21.7408 C   0  0  0  0  0  0  0  0  0  0  0  0
    9.0929    2.4034   20.7623 H   0  0  0  0  0  0  0  0  0  0  0  0
    9.3224    1.9044   22.8446 C   0  0  0  0  0  0  0  0  0  0  0  0
   10.3146    1.4791   22.7142 H   0  0  0  0  0  0  0  0  0  0  0  0
    8.1710   -1.0671   22.9732 C   0  0  0  0  0  0  0  0  0  0  0  0
    7.0540   -0.5260   22.3387 C   0  0  0  0  0  0  0  0  0  0  0  0
    6.2047   -0.0300   22.7685 H   0  0  0  0  0  0  0  0  0  0  0  0
    5.4024    0.6382   20.0767 C   0  0  0  0  0  0  0  0  0  0  0  0
    4.9367    0.6147   21.0624 H   0  0  0  0  0  0  0  0  0  0  0  0
    4.7974    1.3154   19.0219 C   0  0  0  0  0  0  0  0  0  0  0  0
    3.8746    1.8662   19.1643 H   0  0  0  0  0  0  0  0  0  0  0  0
  1  2  1  0
  2  3  2  0
  3  4  1  0
  4  5  1  0
  4  6  2  0
  6  7  1  0
  7  8  2  0
  8  9  1  0
  9 10  1  0
 10 11  1  0
 10 12  2  0
 12 13  1  0
 12 14  1  0
 14 15  1  0
 15 16  1  0
 16 17  1  0
 16 18  1  0
 16 19  1  0
 19 20  2  0
 20 21  1  0
 20 22  1  0
 22 23  1  0
 22 24  2  0
 24 25  1  0
 24 26  1  0
 26 27  1  0
 26 28  2  0
 28 29  1  0
 14 30  1  0
 30 31  2  0
 31 32  1  0
  6 33  1  0
 33 34  1  0
 33 35  2  0
 35 36  1  0
 35  2  1  0
 31  7  1  0
 30  9  1  0
 28 19  1  0
M  END
>  <cnnaffinity>  (1) 
-5.62372

>  <filename>  (1) 
c1ccc(CSn2ccn3nc(-c4cccnc4)cc23)cc1

$$$$
