
     RDKit          3D

 45 48  0  0  0  0  0  0  0  0999 V2000
    8.3721    6.3295   23.0170 C   0  0  0  0  0  0  0  0  0  0  0  0
    7.3537    5.8128   22.2100 C   0  0  0  0  0  0  0  0  0  0  0  0
    7.4058    4.4600   21.8767 C   0  0  0  0  0  0  0  0  0  0  0  0
    8.4754    3.6763   22.3402 C   0  0  0  0  0  0  0  0  0  0  0  0
    8.6303    2.2446   21.8751 C   0  0  0  0  0  0  0  0  0  0  0  0
    7.6963    1.2821   22.6542 C   0  0  0  0  0  0  0  0  0  0  0  0
    7.7394   -0.1503   22.2201 C   0  0  0  0  0  0  0  0  0  0  0  0
    8.2376   -1.1630   22.9015 N   0  0  0  0  0  0  0  0  0  0  0  0
    8.2072   -2.1838   22.0064 C   0  0  0  0  0  0  0  0  0  0  0  0
    8.6883   -3.5545   22.3212 C   0  0  0  0  0  0  0  0  0  0  0  0
    7.7163   -4.3313   23.2095 C   0  0  0  0  0  0  0  0  0  0  0  0
    8.0813   -5.8174   23.4419 C   0  0  0  0  0  0  0  0  0  0  0  0
    6.7969   -6.2451   22.6910 C   0  0  0  0  0  0  0  0  0  0  0  0
    6.4493   -4.7628   22.4327 C   0  0  0  0  0  0  0  0  0  0  0  0
    6.4971   -4.5060   21.3665 H   0  0  0  0  0  0  0  0  0  0  0  0
    5.5017   -4.3864   22.8228 H   0  0  0  0  0  0  0  0  0  0  0  0
    6.0675   -6.8015   23.2837 H   0  0  0  0  0  0  0  0  0  0  0  0
    6.9920   -6.7995   21.7682 H   0  0  0  0  0  0  0  0  0  0  0  0
    8.1519   -6.1279   24.4913 H   0  0  0  0  0  0  0  0  0  0  0  0
    9.0044   -6.1236   22.9410 H   0  0  0  0  0  0  0  0  0  0  0  0
    7.5102   -3.7956   24.1469 H   0  0  0  0  0  0  0  0  0  0  0  0
    9.6775   -3.4890   22.7823 H   0  0  0  0  0  0  0  0  0  0  0  0
    8.7646   -4.0755   21.3631 H   0  0  0  0  0  0  0  0  0  0  0  0
    7.7113   -1.8741   20.8285 N   0  0  0  0  0  0  0  0  0  0  0  0
    7.3698   -0.5691   20.9721 N   0  0  0  0  0  0  0  0  0  0  0  0
    6.6571    0.0746   19.9275 C   0  0  0  0  0  0  0  0  0  0  0  0
    5.4377    0.7272   20.1463 C   0  0  0  0  0  0  0  0  0  0  0  0
    4.8295    1.3470   19.0502 C   0  0  0  0  0  0  0  0  0  0  0  0
    5.4532    1.2965   17.7997 C   0  0  0  0  0  0  0  0  0  0  0  0
    6.5926    0.6160   17.5765 N   0  0  0  0  0  0  0  0  0  0  0  0
    7.1605   -0.0005   18.6165 C   0  0  0  0  0  0  0  0  0  0  0  0
    8.0524   -0.5902   18.4185 H   0  0  0  0  0  0  0  0  0  0  0  0
    5.0233    1.8149   16.9454 H   0  0  0  0  0  0  0  0  0  0  0  0
    3.8820    1.8605   19.1588 H   0  0  0  0  0  0  0  0  0  0  0  0
    4.9611    0.7032   21.1281 H   0  0  0  0  0  0  0  0  0  0  0  0
    7.9336    1.3327   23.7199 H   0  0  0  0  0  0  0  0  0  0  0  0
    6.6675    1.6403   22.5574 H   0  0  0  0  0  0  0  0  0  0  0  0
    8.4140    2.1829   20.7996 H   0  0  0  0  0  0  0  0  0  0  0  0
    9.6818    1.9655   22.0097 H   0  0  0  0  0  0  0  0  0  0  0  0
    9.3836    4.1467   23.2100 N   0  0  0  0  0  0  0  0  0  0  0  0
    9.3456    5.4524   23.5041 C   0  0  0  0  0  0  0  0  0  0  0  0
   10.1286    5.8075   24.1764 H   0  0  0  0  0  0  0  0  0  0  0  0
    6.6501    4.0135   21.2362 H   0  0  0  0  0  0  0  0  0  0  0  0
    6.5389    6.4336   21.8354 H   0  0  0  0  0  0  0  0  0  0  0  0
    8.4160    7.3780   23.2813 H   0  0  0  0  0  0  0  0  0  0  0  0
  1  2  2  0
  2  3  1  0
  3  4  2  0
  4  5  1  0
  5  6  1  0
  6  7  1  0
  7  8  2  0
  8  9  1  0
  9 10  1  0
 10 11  1  0
 11 12  1  0
 12 13  1  0
 13 14  1  0
 14 15  1  0
 14 16  1  0
 13 17  1  0
 13 18  1  0
 12 19  1  0
 12 20  1  0
 11 21  1  0
 10 22  1  0
 10 23  1  0
  9 24  2  0
 24 25  1  0
 25 26  1  0
 26 27  2  0
 27 28  1  0
 28 29  2  0
 29 30  1  0
 30 31  2  0
 31 32  1  0
 29 33  1  0
 28 34  1  0
 27 35  1  0
  6 36  1  0
  6 37  1  0
  5 38  1  0
  5 39  1  0
  4 40  1  0
 40 41  2  0
 41 42  1  0
  3 43  1  0
  2 44  1  0
  1 45  1  0
 41  1  1  0
 25  7  1  0
 31 26  1  0
 14 11  1  0
M  END
>  <cnnaffinity>  (1) 
-6.00293

>  <filename>  (1) 
c1ccc(CCc2nc(CC3CCC3)nn2-c2cccnc2)nc1

$$$$
