
     RDKit          3D

 42 45  0  0  0  0  0  0  0  0999 V2000
    4.5874    3.2120   26.4321 C   0  0  0  0  0  0  0  0  0  0  0  0
    4.1858    2.1900   25.5684 C   0  0  0  0  0  0  0  0  0  0  0  0
    5.1736    1.5158   24.8497 C   0  0  0  0  0  0  0  0  0  0  0  0
    6.5155    1.8942   25.0068 C   0  0  0  0  0  0  0  0  0  0  0  0
    7.5936    1.2223   24.2024 C   0  0  0  0  0  0  0  0  0  0  0  0
    7.7950    1.8165   22.7743 C   0  0  0  0  0  0  0  0  0  0  0  0
    8.8087    1.0400   22.0011 C   0  0  0  0  0  0  0  0  0  0  0  0
   10.1097    1.2094   22.1270 N   0  0  0  0  0  0  0  0  0  0  0  0
   10.6288    0.0849   21.5727 C   0  0  0  0  0  0  0  0  0  0  0  0
   12.0527   -0.2442   21.6906 C   0  0  0  0  0  0  0  0  0  0  0  0
   12.6222   -1.4107   21.2385 C   0  0  0  0  0  0  0  0  0  0  0  0
   14.3012   -1.4437   21.5096 S   0  0  0  0  0  0  0  0  0  0  0  0
   14.2739    0.1120   22.2390 C   0  0  0  0  0  0  0  0  0  0  0  0
   13.0217    0.6248   22.3011 C   0  0  0  0  0  0  0  0  0  0  0  0
   12.7797    1.5759   22.7704 H   0  0  0  0  0  0  0  0  0  0  0  0
   15.1916    0.5866   22.5501 H   0  0  0  0  0  0  0  0  0  0  0  0
   12.1426   -2.2281   20.7201 H   0  0  0  0  0  0  0  0  0  0  0  0
    9.7228   -0.7232   21.0427 N   0  0  0  0  0  0  0  0  0  0  0  0
    8.5603   -0.1075   21.3371 N   0  0  0  0  0  0  0  0  0  0  0  0
    7.2928   -0.7199   20.9693 C   0  0  0  0  0  0  0  0  0  0  0  0
    6.5620    0.0190   19.8717 C   0  0  0  0  0  0  0  0  0  0  0  0
    5.3427    0.6692   20.0770 C   0  0  0  0  0  0  0  0  0  0  0  0
    4.7492    1.3417   19.0065 C   0  0  0  0  0  0  0  0  0  0  0  0
    5.3985    1.3376   17.7692 C   0  0  0  0  0  0  0  0  0  0  0  0
    6.5653    0.7110   17.5486 N   0  0  0  0  0  0  0  0  0  0  0  0
    7.1262    0.0782   18.5857 C   0  0  0  0  0  0  0  0  0  0  0  0
    8.0758   -0.4191   18.3854 H   0  0  0  0  0  0  0  0  0  0  0  0
    4.9596    1.8533   16.9170 H   0  0  0  0  0  0  0  0  0  0  0  0
    3.8097    1.8701   19.1202 H   0  0  0  0  0  0  0  0  0  0  0  0
    4.8652    0.6528   21.0598 H   0  0  0  0  0  0  0  0  0  0  0  0
    6.6703   -0.7998   21.8714 H   0  0  0  0  0  0  0  0  0  0  0  0
    7.5532   -1.7328   20.6543 H   0  0  0  0  0  0  0  0  0  0  0  0
    6.8545    1.8512   22.2134 H   0  0  0  0  0  0  0  0  0  0  0  0
    8.1677    2.8411   22.8563 H   0  0  0  0  0  0  0  0  0  0  0  0
    7.3600    0.1517   24.1205 H   0  0  0  0  0  0  0  0  0  0  0  0
    8.5366    1.3024   24.7541 H   0  0  0  0  0  0  0  0  0  0  0  0
    6.9000    2.8702   25.8420 N   0  0  0  0  0  0  0  0  0  0  0  0
    5.9496    3.5038   26.5371 C   0  0  0  0  0  0  0  0  0  0  0  0
    6.3013    4.2835   27.2118 H   0  0  0  0  0  0  0  0  0  0  0  0
    4.9350    0.6980   24.1773 H   0  0  0  0  0  0  0  0  0  0  0  0
    3.1341    1.9227   25.4600 H   0  0  0  0  0  0  0  0  0  0  0  0
    3.8742    3.7791   27.0184 H   0  0  0  0  0  0  0  0  0  0  0  0
  1  2  2  0
  2  3  1  0
  3  4  2  0
  4  5  1  0
  5  6  1  0
  6  7  1  0
  7  8  2  0
  8  9  1  0
  9 10  1  0
 10 11  2  0
 11 12  1  0
 12 13  1  0
 13 14  2  0
 14 15  1  0
 13 16  1  0
 11 17  1  0
  9 18  2  0
 18 19  1  0
 19 20  1  0
 20 21  1  0
 21 22  2  0
 22 23  1  0
 23 24  2  0
 24 25  1  0
 25 26  2  0
 26 27  1  0
 24 28  1  0
 23 29  1  0
 22 30  1  0
 20 31  1  0
 20 32  1  0
  6 33  1  0
  6 34  1  0
  5 35  1  0
  5 36  1  0
  4 37  1  0
 37 38  2  0
 38 39  1  0
  3 40  1  0
  2 41  1  0
  1 42  1  0
 38  1  1  0
 19  7  1  0
 26 21  1  0
 14 10  1  0
M  END
>  <cnnaffinity>  (1) 
-6.52244

>  <filename>  (1) 
c1ccc(CCc2nc(-c3ccsc3)nn2Cc2cccnc2)nc1

$$$$
