
     RDKit          3D

 43 46  0  0  0  0  0  0  0  0999 V2000
    8.2399    4.0773   22.9207 C   0  0  0  0  0  0  0  0  0  0  0  0
    8.3338    4.2896   22.7387 C   0  0  0  0  0  0  0  0  0  0  0  0
    8.0560    2.6300   21.5881 C   0  0  0  0  0  0  0  0  0  0  0  0
    9.0765    1.7921   21.9738 C   0  0  0  0  0  0  0  0  0  0  0  0
    9.5370    0.5241   21.2700 C   0  0  0  0  0  0  0  0  0  0  0  0
    8.6398   -0.6099   21.6084 C   0  0  0  0  0  0  0  0  0  0  0  0
    8.8092   -1.3860   22.6511 N   0  0  0  0  0  0  0  0  0  0  0  0
    7.6968   -2.1713   22.6444 C   0  0  0  0  0  0  0  0  0  0  0  0
    7.4182   -3.1727   23.7430 C   0  0  0  0  0  0  0  0  0  0  0  0
    8.5931   -4.1800   23.9488 C   0  0  0  0  0  0  0  0  0  0  0  0
    9.5567   -3.6994   25.0395 C   0  0  0  0  0  0  0  0  0  0  0  0
    8.9227   -3.5737   26.3081 O   0  0  0  0  0  0  0  0  0  0  0  0
    7.5426   -3.2228   26.3212 C   0  0  0  0  0  0  0  0  0  0  0  0
    7.1098   -2.4251   25.0867 C   0  0  0  0  0  0  0  0  0  0  0  0
    6.0430   -2.1851   25.1559 H   0  0  0  0  0  0  0  0  0  0  0  0
    7.6574   -1.4711   25.1052 H   0  0  0  0  0  0  0  0  0  0  0  0
    7.3944   -2.6310   27.2309 H   0  0  0  0  0  0  0  0  0  0  0  0
    6.9351   -4.1364   26.4254 H   0  0  0  0  0  0  0  0  0  0  0  0
   10.3750   -4.4113   25.1852 H   0  0  0  0  0  0  0  0  0  0  0  0
    9.9939   -2.7333   24.7403 H   0  0  0  0  0  0  0  0  0  0  0  0
    9.1383   -4.3482   23.0137 H   0  0  0  0  0  0  0  0  0  0  0  0
    8.1893   -5.1537   24.2588 H   0  0  0  0  0  0  0  0  0  0  0  0
    6.5329   -3.7246   23.4110 H   0  0  0  0  0  0  0  0  0  0  0  0
    6.8538   -1.9185   21.6678 N   0  0  0  0  0  0  0  0  0  0  0  0
    7.4661   -0.9084   20.9823 N   0  0  0  0  0  0  0  0  0  0  0  0
    6.7872   -0.2486   19.9126 C   0  0  0  0  0  0  0  0  0  0  0  0
    5.5818    0.4182   20.1573 C   0  0  0  0  0  0  0  0  0  0  0  0
    4.9765    1.0985   19.0977 C   0  0  0  0  0  0  0  0  0  0  0  0
    5.5798    1.0658   17.8341 C   0  0  0  0  0  0  0  0  0  0  0  0
    6.7108    0.3897   17.5821 N   0  0  0  0  0  0  0  0  0  0  0  0
    7.2896   -0.2619   18.5993 C   0  0  0  0  0  0  0  0  0  0  0  0
    8.1894   -0.8285   18.3603 H   0  0  0  0  0  0  0  0  0  0  0  0
    5.1356    1.5953   16.9936 H   0  0  0  0  0  0  0  0  0  0  0  0
    4.0512    1.6465   19.2391 H   0  0  0  0  0  0  0  0  0  0  0  0
    5.1392    0.3893   21.1554 H   0  0  0  0  0  0  0  0  0  0  0  0
   10.5338    0.2625   21.6450 H   0  0  0  0  0  0  0  0  0  0  0  0
    9.5976    0.6304   20.1788 H   0  0  0  0  0  0  0  0  0  0  0  0
    9.7698    2.1350   23.1110 N   0  0  0  0  0  0  0  0  0  0  0  0
    9.1664    3.2724   23.6767 C   0  0  0  0  0  0  0  0  0  0  0  0
    8.3175    3.0293   24.2553 H   0  0  0  0  0  0  0  0  0  0  0  0
    7.3467    2.4574   20.7874 H   0  0  0  0  0  0  0  0  0  0  0  0
    8.6934    4.9624   21.7761 H   0  0  0  0  0  0  0  0  0  0  0  0
    7.2282    4.6956   23.2247 H   0  0  0  0  0  0  0  0  0  0  0  0
  1  2  2  0
  2  3  1  0
  3  4  2  0
  4  5  1  0
  5  6  1  0
  6  7  2  0
  7  8  1  0
  8  9  1  0
  9 10  1  0
 10 11  1  0
 11 12  1  0
 12 13  1  0
 13 14  1  0
 14 15  1  0
 14 16  1  0
 13 17  1  0
 13 18  1  0
 11 19  1  0
 11 20  1  0
 10 21  1  0
 10 22  1  0
  9 23  1  0
  8 24  2  0
 24 25  1  0
 25 26  1  0
 26 27  2  0
 27 28  1  0
 28 29  2  0
 29 30  1  0
 30 31  2  0
 31 32  1  0
 29 33  1  0
 28 34  1  0
 27 35  1  0
  5 36  1  0
  5 37  1  0
  4 38  1  0
 38 39  2  0
 39 40  1  0
  3 41  1  0
  2 42  1  0
  1 43  1  0
 39  1  1  0
 25  6  1  0
 31 26  1  0
 14  9  1  0
M  END
>  <cnnaffinity>  (1) 
-5.85119

>  <filename>  (1) 
c1ccc(Cc2nc(C3CCOCC3)nn2-c2cccnc2)nc1

$$$$
