
     RDKit          3D

 46 50  0  0  0  0  0  0  0  0999 V2000
    5.0043    1.8346   16.8274 H   0  0  0  0  0  0  0  0  0  0  0  0
    5.4258    1.2942   17.6728 C   0  0  0  0  0  0  0  0  0  0  0  0
    6.5621    0.6210   17.4356 N   0  0  0  0  0  0  0  0  0  0  0  0
    7.1313   -0.0142   18.4653 C   0  0  0  0  0  0  0  0  0  0  0  0
    8.0477   -0.5578   18.2392 H   0  0  0  0  0  0  0  0  0  0  0  0
    6.6134   -0.0026   19.7778 C   0  0  0  0  0  0  0  0  0  0  0  0
    7.3996   -0.5506   20.9027 C   0  0  0  0  0  0  0  0  0  0  0  0
    8.5642   -1.1809   20.6822 N   0  0  0  0  0  0  0  0  0  0  0  0
    8.9991   -1.4546   21.9298 N   0  0  0  0  0  0  0  0  0  0  0  0
   10.0755   -2.1625   22.4401 C   0  0  0  0  0  0  0  0  0  0  0  0
   10.7641   -2.6298   21.7580 H   0  0  0  0  0  0  0  0  0  0  0  0
    9.9333   -2.1166   23.7887 C   0  0  0  0  0  0  0  0  0  0  0  0
   10.4957   -2.5527   24.6016 H   0  0  0  0  0  0  0  0  0  0  0  0
    8.8108   -1.3640   24.1089 N   0  0  0  0  0  0  0  0  0  0  0  0
    8.3672   -1.2441   25.4255 N   0  0  0  0  0  0  0  0  0  0  0  0
    6.9027   -1.0411   25.5847 C   0  0  0  0  0  0  0  0  0  0  0  0
    6.3693   -1.8057   25.0071 H   0  0  0  0  0  0  0  0  0  0  0  0
    6.6051   -0.0473   25.2020 H   0  0  0  0  0  0  0  0  0  0  0  0
    6.5002   -1.1187   27.0709 C   0  0  0  0  0  0  0  0  0  0  0  0
    6.6334   -2.1607   27.4189 H   0  0  0  0  0  0  0  0  0  0  0  0
    5.4351   -0.8769   27.1543 H   0  0  0  0  0  0  0  0  0  0  0  0
    7.2913   -0.1645   27.8490 N   0  0  0  0  0  0  0  0  0  0  0  0
    6.8616    0.3787   29.0788 C   0  0  0  0  0  0  0  0  0  0  0  0
    5.9686   -0.2834   29.9375 C   0  0  0  0  0  0  0  0  0  0  0  0
    5.5406   -1.2297   29.6195 H   0  0  0  0  0  0  0  0  0  0  0  0
    5.6985    0.2413   31.2042 C   0  0  0  0  0  0  0  0  0  0  0  0
    5.0250   -0.2911   31.8712 H   0  0  0  0  0  0  0  0  0  0  0  0
    6.3108    1.4262   31.6289 C   0  0  0  0  0  0  0  0  0  0  0  0
    6.1497    1.7946   32.6371 H   0  0  0  0  0  0  0  0  0  0  0  0
    7.1611    2.1200   30.7572 C   0  0  0  0  0  0  0  0  0  0  0  0
    7.6468    3.0379   31.0781 H   0  0  0  0  0  0  0  0  0  0  0  0
    7.4180    1.6084   29.4843 C   0  0  0  0  0  0  0  0  0  0  0  0
    8.0731    2.1129   28.7804 H   0  0  0  0  0  0  0  0  0  0  0  0
    8.7223   -0.4708   27.6976 C   0  0  0  0  0  0  0  0  0  0  0  0
    9.3005    0.1229   28.4049 H   0  0  0  0  0  0  0  0  0  0  0  0
    8.9354   -1.5211   27.9616 H   0  0  0  0  0  0  0  0  0  0  0  0
    9.1100   -0.2407   26.2341 C   0  0  0  0  0  0  0  0  0  0  0  0
   10.1914   -0.3560   26.0873 H   0  0  0  0  0  0  0  0  0  0  0  0
    8.8388    0.7885   25.9428 H   0  0  0  0  0  0  0  0  0  0  0  0
    8.2019   -0.9997   22.9157 C   0  0  0  0  0  0  0  0  0  0  0  0
    7.1050   -0.4230   22.2820 C   0  0  0  0  0  0  0  0  0  0  0  0
    6.2166   -0.0331   22.7358 H   0  0  0  0  0  0  0  0  0  0  0  0
    5.3771    0.6360   19.9834 C   0  0  0  0  0  0  0  0  0  0  0  0
    4.8859    0.6146   20.9603 H   0  0  0  0  0  0  0  0  0  0  0  0
    4.7864    1.3086   18.9172 C   0  0  0  0  0  0  0  0  0  0  0  0
    3.8596    1.8585   19.0395 H   0  0  0  0  0  0  0  0  0  0  0  0
  1  2  1  0
  2  3  2  0
  3  4  1  0
  4  5  1  0
  4  6  2  0
  6  7  1  0
  7  8  2  0
  8  9  1  0
  9 10  1  0
 10 11  1  0
 10 12  2  0
 12 13  1  0
 12 14  1  0
 14 15  1  0
 15 16  1  0
 16 17  1  0
 16 18  1  0
 16 19  1  0
 19 20  1  0
 19 21  1  0
 19 22  1  0
 22 23  1  0
 23 24  2  0
 24 25  1  0
 24 26  1  0
 26 27  1  0
 26 28  2  0
 28 29  1  0
 28 30  1  0
 30 31  1  0
 30 32  2  0
 32 33  1  0
 22 34  1  0
 34 35  1  0
 34 36  1  0
 34 37  1  0
 37 38  1  0
 37 39  1  0
 14 40  1  0
 40 41  2  0
 41 42  1  0
  6 43  1  0
 43 44  1  0
 43 45  2  0
 45 46  1  0
 45  2  1  0
 41  7  1  0
 40  9  1  0
 37 15  1  0
 32 23  1  0
M  END
>  <cnnaffinity>  (1) 
-5.51644

>  <filename>  (1) 
c1ccc(N2CCN(n3ccn4nc(-c5cccnc5)cc34)CC2)cc1

$$$$
