
     RDKit          3D

 40 43  0  0  0  0  0  0  0  0999 V2000
   12.4553    1.5572   23.5983 C   0  0  0  0  0  0  0  0  0  0  0  0
   12.7696    0.3950   22.8925 C   0  0  0  0  0  0  0  0  0  0  0  0
   11.8662   -0.0310   21.9179 C   0  0  0  0  0  0  0  0  0  0  0  0
   10.6920    0.6995   21.6898 C   0  0  0  0  0  0  0  0  0  0  0  0
    9.6659    0.2289   20.7018 C   0  0  0  0  0  0  0  0  0  0  0  0
    8.6344   -0.6085   21.3536 C   0  0  0  0  0  0  0  0  0  0  0  0
    8.8521   -1.4646   22.3256 N   0  0  0  0  0  0  0  0  0  0  0  0
    7.6203   -1.9905   22.5480 C   0  0  0  0  0  0  0  0  0  0  0  0
    7.3881   -2.9810   23.6319 C   0  0  0  0  0  0  0  0  0  0  0  0
    8.2310   -4.2709   23.5199 C   0  0  0  0  0  0  0  0  0  0  0  0
    8.3721   -4.7256   24.9763 C   0  0  0  0  0  0  0  0  0  0  0  0
    8.1134   -3.5902   25.7878 O   0  0  0  0  0  0  0  0  0  0  0  0
    7.7731   -2.4499   25.0243 C   0  0  0  0  0  0  0  0  0  0  0  0
    8.6220   -1.7462   24.9779 H   0  0  0  0  0  0  0  0  0  0  0  0
    6.9398   -1.9461   25.5325 H   0  0  0  0  0  0  0  0  0  0  0  0
    9.3771   -5.1124   25.1985 H   0  0  0  0  0  0  0  0  0  0  0  0
    7.6519   -5.5148   25.2387 H   0  0  0  0  0  0  0  0  0  0  0  0
    9.2130   -4.0411   23.0897 H   0  0  0  0  0  0  0  0  0  0  0  0
    7.7539   -5.0316   22.8958 H   0  0  0  0  0  0  0  0  0  0  0  0
    6.3232   -3.2210   23.6204 H   0  0  0  0  0  0  0  0  0  0  0  0
    6.6723   -1.5485   21.7527 N   0  0  0  0  0  0  0  0  0  0  0  0
    7.3339   -0.6830   20.9390 N   0  0  0  0  0  0  0  0  0  0  0  0
    6.6520    0.0044   19.9018 C   0  0  0  0  0  0  0  0  0  0  0  0
    5.4367    0.6457   20.1652 C   0  0  0  0  0  0  0  0  0  0  0  0
    4.8125    1.3112   19.1089 C   0  0  0  0  0  0  0  0  0  0  0  0
    5.4010    1.2952   17.8373 C   0  0  0  0  0  0  0  0  0  0  0  0
    6.5595    0.6711   17.5770 N   0  0  0  0  0  0  0  0  0  0  0  0
    7.1666    0.0508   18.5936 C   0  0  0  0  0  0  0  0  0  0  0  0
    8.1148   -0.4295   18.3658 H   0  0  0  0  0  0  0  0  0  0  0  0
    4.9216    1.7849   16.9935 H   0  0  0  0  0  0  0  0  0  0  0  0
    3.8808    1.8402   19.2603 H   0  0  0  0  0  0  0  0  0  0  0  0
    5.0157    0.6101   21.1732 H   0  0  0  0  0  0  0  0  0  0  0  0
   10.1005   -0.4126   19.9325 H   0  0  0  0  0  0  0  0  0  0  0  0
    9.2082    1.0947   20.2225 H   0  0  0  0  0  0  0  0  0  0  0  0
   10.3900    1.8138   22.3622 N   0  0  0  0  0  0  0  0  0  0  0  0
   11.2643    2.2256   23.2928 C   0  0  0  0  0  0  0  0  0  0  0  0
   10.9946    3.1328   23.8295 H   0  0  0  0  0  0  0  0  0  0  0  0
   12.0306   -0.9324   21.3436 H   0  0  0  0  0  0  0  0  0  0  0  0
   13.6829   -0.1667   23.0982 H   0  0  0  0  0  0  0  0  0  0  0  0
   13.1122    1.9406   24.3679 H   0  0  0  0  0  0  0  0  0  0  0  0
  1  2  2  0
  2  3  1  0
  3  4  2  0
  4  5  1  0
  5  6  1  0
  6  7  2  0
  7  8  1  0
  8  9  1  0
  9 10  1  0
 10 11  1  0
 11 12  1  0
 12 13  1  0
 13 14  1  0
 13 15  1  0
 11 16  1  0
 11 17  1  0
 10 18  1  0
 10 19  1  0
  9 20  1  0
  8 21  2  0
 21 22  1  0
 22 23  1  0
 23 24  2  0
 24 25  1  0
 25 26  2  0
 26 27  1  0
 27 28  2  0
 28 29  1  0
 26 30  1  0
 25 31  1  0
 24 32  1  0
  5 33  1  0
  5 34  1  0
  4 35  1  0
 35 36  2  0
 36 37  1  0
  3 38  1  0
  2 39  1  0
  1 40  1  0
 36  1  1  0
 22  6  1  0
 28 23  1  0
 13  9  1  0
M  END
>  <cnnaffinity>  (1) 
-6.16099

>  <filename>  (1) 
c1ccc(Cc2nc(C3CCOC3)nn2-c2cccnc2)nc1

$$$$
