
     RDKit          3D

 43 46  0  0  0  0  0  0  0  0999 V2000
    7.9932    4.7227   27.8348 H   0  0  0  0  0  0  0  0  0  0  0  0
    7.9722    5.1189   26.8210 C   0  0  0  0  0  0  0  0  0  0  0  0
    8.4359    4.2905   25.8870 N   0  0  0  0  0  0  0  0  0  0  0  0
    8.3388    4.6861   24.6102 C   0  0  0  0  0  0  0  0  0  0  0  0
    8.6884    3.7302   23.6737 N   0  0  0  0  0  0  0  0  0  0  0  0
    8.2465    3.8234   22.2775 C   0  0  0  0  0  0  0  0  0  0  0  0
    7.2282    4.2339   22.2467 H   0  0  0  0  0  0  0  0  0  0  0  0
    8.8968    4.5220   21.7368 H   0  0  0  0  0  0  0  0  0  0  0  0
    8.2032    2.4256   21.6026 C   0  0  0  0  0  0  0  0  0  0  0  0
    7.9726    2.5149   20.5375 H   0  0  0  0  0  0  0  0  0  0  0  0
    7.3639    1.8729   22.0673 H   0  0  0  0  0  0  0  0  0  0  0  0
    9.4697    1.6949   21.7467 N   0  0  0  0  0  0  0  0  0  0  0  0
    9.5908    0.5055   20.9507 C   0  0  0  0  0  0  0  0  0  0  0  0
   10.6081    0.0974   21.0283 H   0  0  0  0  0  0  0  0  0  0  0  0
    9.4164    0.7670   19.9050 H   0  0  0  0  0  0  0  0  0  0  0  0
    8.6802   -0.5630   21.3055 N   0  0  0  0  0  0  0  0  0  0  0  0
    8.8392   -1.4255   22.3569 C   0  0  0  0  0  0  0  0  0  0  0  0
    9.7525   -1.5159   22.9359 H   0  0  0  0  0  0  0  0  0  0  0  0
    7.7414   -2.0838   22.5980 N   0  0  0  0  0  0  0  0  0  0  0  0
    6.7957   -1.6155   21.7194 N   0  0  0  0  0  0  0  0  0  0  0  0
    7.3559   -0.7036   20.9682 C   0  0  0  0  0  0  0  0  0  0  0  0
    6.6650    0.0431   19.9012 C   0  0  0  0  0  0  0  0  0  0  0  0
    7.1705    0.0754   18.5954 C   0  0  0  0  0  0  0  0  0  0  0  0
    8.1016   -0.4337   18.3465 H   0  0  0  0  0  0  0  0  0  0  0  0
    6.5602    0.6806   17.5683 N   0  0  0  0  0  0  0  0  0  0  0  0
    5.4004    1.3088   17.8215 C   0  0  0  0  0  0  0  0  0  0  0  0
    4.9329    1.8048   16.9720 H   0  0  0  0  0  0  0  0  0  0  0  0
    4.8018    1.3312   19.0858 C   0  0  0  0  0  0  0  0  0  0  0  0
    3.8596    1.8529   19.2210 H   0  0  0  0  0  0  0  0  0  0  0  0
    5.4380    0.6797   20.1431 C   0  0  0  0  0  0  0  0  0  0  0  0
    4.9882    0.6417   21.1386 H   0  0  0  0  0  0  0  0  0  0  0  0
    9.8092    1.5669   23.1673 C   0  0  0  0  0  0  0  0  0  0  0  0
    9.0406    0.9902   23.7158 H   0  0  0  0  0  0  0  0  0  0  0  0
   10.7774    1.0541   23.2736 H   0  0  0  0  0  0  0  0  0  0  0  0
    9.9241    2.9465   23.8442 C   0  0  0  0  0  0  0  0  0  0  0  0
   10.1017    2.7909   24.9126 H   0  0  0  0  0  0  0  0  0  0  0  0
   10.7925    3.4853   23.4208 H   0  0  0  0  0  0  0  0  0  0  0  0
    7.8951    5.9800   24.2419 C   0  0  0  0  0  0  0  0  0  0  0  0
    7.9151    6.2409   23.1905 H   0  0  0  0  0  0  0  0  0  0  0  0
    7.4691    6.8546   25.2402 C   0  0  0  0  0  0  0  0  0  0  0  0
    7.1196    7.8609   24.9909 H   0  0  0  0  0  0  0  0  0  0  0  0
    7.4917    6.4049   26.5686 C   0  0  0  0  0  0  0  0  0  0  0  0
    7.1635    7.0170   27.4013 H   0  0  0  0  0  0  0  0  0  0  0  0
  1  2  1  0
  2  3  2  0
  3  4  1  0
  4  5  1  0
  5  6  1  0
  6  7  1  0
  6  8  1  0
  6  9  1  0
  9 10  1  0
  9 11  1  0
  9 12  1  0
 12 13  1  0
 13 14  1  0
 13 15  1  0
 13 16  1  0
 16 17  1  0
 17 18  1  0
 17 19  2  0
 19 20  1  0
 20 21  2  0
 21 22  1  0
 22 23  2  0
 23 24  1  0
 23 25  1  0
 25 26  2  0
 26 27  1  0
 26 28  1  0
 28 29  1  0
 28 30  2  0
 30 31  1  0
 12 32  1  0
 32 33  1  0
 32 34  1  0
 32 35  1  0
 35 36  1  0
 35 37  1  0
  4 38  2  0
 38 39  1  0
 38 40  1  0
 40 41  1  0
 40 42  2  0
 42 43  1  0
 42  2  1  0
 35  5  1  0
 21 16  1  0
 30 22  1  0
M  END
>  <cnnaffinity>  (1) 
-5.34503

>  <filename>  (1) 
c1ccc(N2CCN(Cn3cnnc3-c3cccnc3)CC2)nc1

$$$$
