
     RDKit          3D

 42 45  0  0  0  0  0  0  0  0999 V2000
   12.9956    2.2711   23.7250 C   0  0  0  0  0  0  0  0  0  0  0  0
   12.3189    3.4738   23.4980 C   0  0  0  0  0  0  0  0  0  0  0  0
   10.9241    3.4776   23.4234 C   0  0  0  0  0  0  0  0  0  0  0  0
   10.2120    2.2792   23.5651 C   0  0  0  0  0  0  0  0  0  0  0  0
    8.5108    2.2315   23.0294 S   0  0  0  0  0  0  0  0  0  0  0  0
    8.8939    1.9828   21.2510 C   0  0  0  0  0  0  0  0  0  0  0  0
    9.4835    0.5953   20.9159 C   0  0  0  0  0  0  0  0  0  0  0  0
    8.6279   -0.5323   21.3984 C   0  0  0  0  0  0  0  0  0  0  0  0
    8.8499   -1.3889   22.3816 N   0  0  0  0  0  0  0  0  0  0  0  0
    7.6460   -1.9998   22.5363 C   0  0  0  0  0  0  0  0  0  0  0  0
    7.4150   -3.0060   23.6113 C   0  0  0  0  0  0  0  0  0  0  0  0
    6.8106   -4.3499   23.1230 C   0  0  0  0  0  0  0  0  0  0  0  0
    5.3105   -4.1305   24.1400 S   0  0  0  0  0  0  0  0  0  0  0  0
    6.2713   -2.6474   24.6036 C   0  0  0  0  0  0  0  0  0  0  0  0
    5.7538   -1.7053   24.3895 H   0  0  0  0  0  0  0  0  0  0  0  0
    6.5875   -2.6528   25.6507 H   0  0  0  0  0  0  0  0  0  0  0  0
    7.4013   -5.2223   23.4161 H   0  0  0  0  0  0  0  0  0  0  0  0
    6.5982   -4.3896   22.0485 H   0  0  0  0  0  0  0  0  0  0  0  0
    8.3821   -3.1210   24.1074 H   0  0  0  0  0  0  0  0  0  0  0  0
    6.7107   -1.6041   21.7000 N   0  0  0  0  0  0  0  0  0  0  0  0
    7.3562   -0.6845   20.9372 N   0  0  0  0  0  0  0  0  0  0  0  0
    6.6697   -0.0227   19.8882 C   0  0  0  0  0  0  0  0  0  0  0  0
    5.4571    0.6152   20.1555 C   0  0  0  0  0  0  0  0  0  0  0  0
    4.8327    1.3006   19.1101 C   0  0  0  0  0  0  0  0  0  0  0  0
    5.4247    1.3068   17.8405 C   0  0  0  0  0  0  0  0  0  0  0  0
    6.5704    0.6636   17.5725 N   0  0  0  0  0  0  0  0  0  0  0  0
    7.1695    0.0136   18.5763 C   0  0  0  0  0  0  0  0  0  0  0  0
    8.0917   -0.5084   18.3324 H   0  0  0  0  0  0  0  0  0  0  0  0
    4.9588    1.8311   17.0074 H   0  0  0  0  0  0  0  0  0  0  0  0
    3.8990    1.8245   19.2665 H   0  0  0  0  0  0  0  0  0  0  0  0
    5.0397    0.5684   21.1623 H   0  0  0  0  0  0  0  0  0  0  0  0
    9.5907    0.5132   19.8292 H   0  0  0  0  0  0  0  0  0  0  0  0
   10.4731    0.4785   21.3630 H   0  0  0  0  0  0  0  0  0  0  0  0
    7.9683    2.1623   20.6953 H   0  0  0  0  0  0  0  0  0  0  0  0
    9.6107    2.7593   20.9626 H   0  0  0  0  0  0  0  0  0  0  0  0
   10.8889    1.0908   23.8739 C   0  0  0  0  0  0  0  0  0  0  0  0
   12.2842    1.0917   23.9586 C   0  0  0  0  0  0  0  0  0  0  0  0
   12.8190    0.1676   24.1703 H   0  0  0  0  0  0  0  0  0  0  0  0
   10.3346    0.1549   23.9191 H   0  0  0  0  0  0  0  0  0  0  0  0
   10.3818    4.3863   23.1792 H   0  0  0  0  0  0  0  0  0  0  0  0
   12.8633    4.3997   23.3364 H   0  0  0  0  0  0  0  0  0  0  0  0
   14.0774    2.2436   23.6947 H   0  0  0  0  0  0  0  0  0  0  0  0
  1  2  2  0
  2  3  1  0
  3  4  2  0
  4  5  1  0
  5  6  1  0
  6  7  1  0
  7  8  1  0
  8  9  2  0
  9 10  1  0
 10 11  1  0
 11 12  1  0
 12 13  1  0
 13 14  1  0
 14 15  1  0
 14 16  1  0
 12 17  1  0
 12 18  1  0
 11 19  1  0
 10 20  2  0
 20 21  1  0
 21 22  1  0
 22 23  2  0
 23 24  1  0
 24 25  2  0
 25 26  1  0
 26 27  2  0
 27 28  1  0
 25 29  1  0
 24 30  1  0
 23 31  1  0
  7 32  1  0
  7 33  1  0
  6 34  1  0
  6 35  1  0
  4 36  1  0
 36 37  2  0
 37 38  1  0
 36 39  1  0
  3 40  1  0
  2 41  1  0
  1 42  1  0
 37  1  1  0
 21  8  1  0
 27 22  1  0
 14 11  1  0
M  END
>  <cnnaffinity>  (1) 
-6.12804

>  <filename>  (1) 
c1ccc(SCCc2nc(C3CSC3)nn2-c2cccnc2)cc1

$$$$
