
     RDKit          3D

 40 43  0  0  0  0  0  0  0  0999 V2000
    8.1026   -6.7717   28.3921 H   0  0  0  0  0  0  0  0  0  0  0  0
    7.3943   -6.4271   27.6395 C   0  0  0  0  0  0  0  0  0  0  0  0
    7.9117   -5.6308   26.6959 N   0  0  0  0  0  0  0  0  0  0  0  0
    7.0751   -5.1387   25.7817 C   0  0  0  0  0  0  0  0  0  0  0  0
    7.5877   -4.2671   24.8102 N   0  0  0  0  0  0  0  0  0  0  0  0
    9.0195   -4.3162   24.4788 C   0  0  0  0  0  0  0  0  0  0  0  0
    9.3355   -5.3593   24.3927 H   0  0  0  0  0  0  0  0  0  0  0  0
    9.6357   -3.8580   25.2691 H   0  0  0  0  0  0  0  0  0  0  0  0
    9.2877   -3.6106   23.1441 C   0  0  0  0  0  0  0  0  0  0  0  0
   10.3632   -3.5760   22.9563 H   0  0  0  0  0  0  0  0  0  0  0  0
    8.8037   -4.1811   22.3376 H   0  0  0  0  0  0  0  0  0  0  0  0
    8.7731   -2.2237   23.1688 N   0  0  0  0  0  0  0  0  0  0  0  0
    9.1994   -1.4531   22.0587 N   0  0  0  0  0  0  0  0  0  0  0  0
   10.5291   -1.2066   21.9653 N   0  0  0  0  0  0  0  0  0  0  0  0
   10.7129   -0.5115   20.9137 N   0  0  0  0  0  0  0  0  0  0  0  0
    9.5429   -0.2483   20.2775 N   0  0  0  0  0  0  0  0  0  0  0  0
    8.6138   -0.8202   21.0058 C   0  0  0  0  0  0  0  0  0  0  0  0
    7.2881   -0.8034   20.7978 O   0  0  0  0  0  0  0  0  0  0  0  0
    6.7064   -0.0335   19.7718 C   0  0  0  0  0  0  0  0  0  0  0  0
    7.2059    0.0506   18.4554 C   0  0  0  0  0  0  0  0  0  0  0  0
    8.1583   -0.4100   18.2031 H   0  0  0  0  0  0  0  0  0  0  0  0
    6.5570    0.7054   17.4847 N   0  0  0  0  0  0  0  0  0  0  0  0
    5.4082    1.3269   17.7857 C   0  0  0  0  0  0  0  0  0  0  0  0
    4.9136    1.8475   16.9676 H   0  0  0  0  0  0  0  0  0  0  0  0
    4.8540    1.3133   19.0702 C   0  0  0  0  0  0  0  0  0  0  0  0
    3.9292    1.8466   19.2592 H   0  0  0  0  0  0  0  0  0  0  0  0
    5.5137    0.6164   20.0855 C   0  0  0  0  0  0  0  0  0  0  0  0
    5.1311    0.5757   21.1055 H   0  0  0  0  0  0  0  0  0  0  0  0
    7.3286   -2.2332   23.4495 C   0  0  0  0  0  0  0  0  0  0  0  0
    6.9326   -1.2159   23.4217 H   0  0  0  0  0  0  0  0  0  0  0  0
    6.7907   -2.8317   22.7013 H   0  0  0  0  0  0  0  0  0  0  0  0
    7.1101   -2.8721   24.8258 C   0  0  0  0  0  0  0  0  0  0  0  0
    6.0501   -2.8230   25.0916 H   0  0  0  0  0  0  0  0  0  0  0  0
    7.6548   -2.2746   25.5767 H   0  0  0  0  0  0  0  0  0  0  0  0
    5.7025   -5.4542   25.7444 C   0  0  0  0  0  0  0  0  0  0  0  0
    5.1085   -5.0036   24.9595 H   0  0  0  0  0  0  0  0  0  0  0  0
    5.1961   -6.3445   26.6862 C   0  0  0  0  0  0  0  0  0  0  0  0
    4.1421   -6.6256   26.6774 H   0  0  0  0  0  0  0  0  0  0  0  0
    6.0620   -6.8293   27.6761 C   0  0  0  0  0  0  0  0  0  0  0  0
    5.7317   -7.5182   28.4480 H   0  0  0  0  0  0  0  0  0  0  0  0
  1  2  1  0
  2  3  2  0
  3  4  1  0
  4  5  1  0
  5  6  1  0
  6  7  1  0
  6  8  1  0
  6  9  1  0
  9 10  1  0
  9 11  1  0
  9 12  1  0
 12 13  1  0
 13 14  1  0
 14 15  2  0
 15 16  1  0
 16 17  2  0
 17 18  1  0
 18 19  1  0
 19 20  2  0
 20 21  1  0
 20 22  1  0
 22 23  2  0
 23 24  1  0
 23 25  1  0
 25 26  1  0
 25 27  2  0
 27 28  1  0
 12 29  1  0
 29 30  1  0
 29 31  1  0
 29 32  1  0
 32 33  1  0
 32 34  1  0
  4 35  2  0
 35 36  1  0
 35 37  1  0
 37 38  1  0
 37 39  2  0
 39 40  1  0
 39  2  1  0
 32  5  1  0
 17 13  1  0
 27 19  1  0
M  END
>  <cnnaffinity>  (1) 
-5.27833

>  <filename>  (1) 
c1ccc(N2CCN(n3nnnc3Oc3cccnc3)CC2)nc1

$$$$
