
     RDKit          3D

 45 48  0  0  0  0  0  0  0  0999 V2000
    7.0793    0.3867   26.7153 C   0  0  0  0  0  0  0  0  0  0  0  0
    7.2114   -0.9618   27.0626 C   0  0  0  0  0  0  0  0  0  0  0  0
    7.2396   -1.9459   26.0786 C   0  0  0  0  0  0  0  0  0  0  0  0
    7.1643   -1.5724   24.7321 C   0  0  0  0  0  0  0  0  0  0  0  0
    7.2038   -2.6014   23.7543 N   0  0  0  0  0  0  0  0  0  0  0  0
    6.3972   -3.6728   23.9052 N   0  0  0  0  0  0  0  0  0  0  0  0
    6.6210   -4.3776   22.8169 C   0  0  0  0  0  0  0  0  0  0  0  0
    5.8484   -5.6288   22.5894 C   0  0  0  0  0  0  0  0  0  0  0  0
    5.2378   -6.2404   23.8746 C   0  0  0  0  0  0  0  0  0  0  0  0
    5.0182   -7.6819   23.4574 C   0  0  0  0  0  0  0  0  0  0  0  0
    6.0235   -7.9567   22.4849 O   0  0  0  0  0  0  0  0  0  0  0  0
    6.7292   -6.7865   22.1182 C   0  0  0  0  0  0  0  0  0  0  0  0
    7.7069   -6.7748   22.6311 H   0  0  0  0  0  0  0  0  0  0  0  0
    6.9146   -6.7834   21.0384 H   0  0  0  0  0  0  0  0  0  0  0  0
    5.1033   -8.4039   24.2753 H   0  0  0  0  0  0  0  0  0  0  0  0
    4.0118   -7.8009   23.0347 H   0  0  0  0  0  0  0  0  0  0  0  0
    4.3206   -5.7522   24.2207 H   0  0  0  0  0  0  0  0  0  0  0  0
    5.9874   -6.1983   24.6737 H   0  0  0  0  0  0  0  0  0  0  0  0
    5.0625   -5.4150   21.8476 H   0  0  0  0  0  0  0  0  0  0  0  0
    7.5697   -3.8646   21.9919 N   0  0  0  0  0  0  0  0  0  0  0  0
    7.9223   -2.7464   22.6119 C   0  0  0  0  0  0  0  0  0  0  0  0
    8.9830   -1.8109   22.1406 C   0  0  0  0  0  0  0  0  0  0  0  0
    8.6092   -1.1209   20.8425 C   0  0  0  0  0  0  0  0  0  0  0  0
    7.3768   -0.4116   21.0500 O   0  0  0  0  0  0  0  0  0  0  0  0
    6.7222    0.1053   19.9703 C   0  0  0  0  0  0  0  0  0  0  0  0
    5.4696    0.7152   20.1729 C   0  0  0  0  0  0  0  0  0  0  0  0
    4.8336    1.3038   19.0759 C   0  0  0  0  0  0  0  0  0  0  0  0
    5.4503    1.2558   17.8197 C   0  0  0  0  0  0  0  0  0  0  0  0
    6.6190    0.6415   17.6062 N   0  0  0  0  0  0  0  0  0  0  0  0
    7.2307    0.0726   18.6539 C   0  0  0  0  0  0  0  0  0  0  0  0
    8.1652   -0.4445   18.4408 H   0  0  0  0  0  0  0  0  0  0  0  0
    4.9902    1.7158   16.9484 H   0  0  0  0  0  0  0  0  0  0  0  0
    3.8759    1.8035   19.1712 H   0  0  0  0  0  0  0  0  0  0  0  0
    5.0143    0.7232   21.1640 H   0  0  0  0  0  0  0  0  0  0  0  0
    8.4799   -1.8684   20.0575 H   0  0  0  0  0  0  0  0  0  0  0  0
    9.3999   -0.4241   20.5312 H   0  0  0  0  0  0  0  0  0  0  0  0
    9.2033   -1.0616   22.9029 H   0  0  0  0  0  0  0  0  0  0  0  0
    9.9003   -2.3884   21.9878 H   0  0  0  0  0  0  0  0  0  0  0  0
    6.9942   -0.2311   24.3671 C   0  0  0  0  0  0  0  0  0  0  0  0
    6.9568    0.7445   25.3699 C   0  0  0  0  0  0  0  0  0  0  0  0
    6.8172    1.7862   25.0981 H   0  0  0  0  0  0  0  0  0  0  0  0
    6.8647    0.0237   23.3182 H   0  0  0  0  0  0  0  0  0  0  0  0
    7.2912   -3.0013   26.3336 H   0  0  0  0  0  0  0  0  0  0  0  0
    7.2504   -1.2577   28.1009 H   0  0  0  0  0  0  0  0  0  0  0  0
    7.0551    1.1427   27.4960 H   0  0  0  0  0  0  0  0  0  0  0  0
  1  2  2  0
  2  3  1  0
  3  4  2  0
  4  5  1  0
  5  6  1  0
  6  7  2  0
  7  8  1  0
  8  9  1  0
  9 10  1  0
 10 11  1  0
 11 12  1  0
 12 13  1  0
 12 14  1  0
 10 15  1  0
 10 16  1  0
  9 17  1  0
  9 18  1  0
  8 19  1  0
  7 20  1  0
 20 21  2  0
 21 22  1  0
 22 23  1  0
 23 24  1  0
 24 25  1  0
 25 26  2  0
 26 27  1  0
 27 28  2  0
 28 29  1  0
 29 30  2  0
 30 31  1  0
 28 32  1  0
 27 33  1  0
 26 34  1  0
 23 35  1  0
 23 36  1  0
 22 37  1  0
 22 38  1  0
  4 39  1  0
 39 40  2  0
 40 41  1  0
 39 42  1  0
  3 43  1  0
  2 44  1  0
  1 45  1  0
 40  1  1  0
 21  5  1  0
 30 25  1  0
 12  8  1  0
M  END
>  <cnnaffinity>  (1) 
-5.97298

>  <filename>  (1) 
c1ccc(-n2nc(C3CCOC3)nc2CCOc2cccnc2)cc1

$$$$
