
     RDKit          3D

 42 45  0  0  0  0  0  0  0  0999 V2000
   14.1516   -1.2044   21.1286 C   0  0  0  0  0  0  0  0  0  0  0  0
   13.0830   -1.9411   20.6404 C   0  0  0  0  0  0  0  0  0  0  0  0
   11.8023   -1.6774   21.0976 C   0  0  0  0  0  0  0  0  0  0  0  0
   11.5476   -0.6201   21.9782 C   0  0  0  0  0  0  0  0  0  0  0  0
   10.1310   -0.2758   22.2043 C   0  0  0  0  0  0  0  0  0  0  0  0
    9.1548   -1.0000   21.6579 N   0  0  0  0  0  0  0  0  0  0  0  0
    8.0352   -0.3335   21.9979 N   0  0  0  0  0  0  0  0  0  0  0  0
    6.7341   -0.7233   21.4570 C   0  0  0  0  0  0  0  0  0  0  0  0
    6.3170    0.0695   20.2292 C   0  0  0  0  0  0  0  0  0  0  0  0
    5.1596    0.8545   20.1745 C   0  0  0  0  0  0  0  0  0  0  0  0
    4.8784    1.5507   18.9921 C   0  0  0  0  0  0  0  0  0  0  0  0
    5.7566    1.4267   17.9121 C   0  0  0  0  0  0  0  0  0  0  0  0
    6.8790    0.6934   17.9512 N   0  0  0  0  0  0  0  0  0  0  0  0
    7.1460    0.0545   19.0956 C   0  0  0  0  0  0  0  0  0  0  0  0
    8.0882   -0.4927   19.1351 H   0  0  0  0  0  0  0  0  0  0  0  0
    5.5521    1.9285   16.9672 H   0  0  0  0  0  0  0  0  0  0  0  0
    4.0040    2.1883   18.8999 H   0  0  0  0  0  0  0  0  0  0  0  0
    4.5104    0.9585   21.0468 H   0  0  0  0  0  0  0  0  0  0  0  0
    5.9908   -0.6245   22.2500 H   0  0  0  0  0  0  0  0  0  0  0  0
    6.8189   -1.7888   21.2341 H   0  0  0  0  0  0  0  0  0  0  0  0
    8.3792    0.7736   22.6901 C   0  0  0  0  0  0  0  0  0  0  0  0
    7.4482    1.8766   23.0488 C   0  0  0  0  0  0  0  0  0  0  0  0
    7.4276    2.9968   21.9750 C   0  0  0  0  0  0  0  0  0  0  0  0
    6.3738    4.0351   22.2137 C   0  0  0  0  0  0  0  0  0  0  0  0
    5.1075    3.6945   22.2290 N   0  0  0  0  0  0  0  0  0  0  0  0
    4.4003    4.8527   22.4553 O   0  0  0  0  0  0  0  0  0  0  0  0
    5.2598    5.8723   22.5741 C   0  0  0  0  0  0  0  0  0  0  0  0
    6.5317    5.4310   22.4381 C   0  0  0  0  0  0  0  0  0  0  0  0
    7.4555    5.9850   22.4645 H   0  0  0  0  0  0  0  0  0  0  0  0
    4.8176    6.8428   22.7533 H   0  0  0  0  0  0  0  0  0  0  0  0
    8.4134    3.4779   21.9371 H   0  0  0  0  0  0  0  0  0  0  0  0
    7.2495    2.5548   20.9860 H   0  0  0  0  0  0  0  0  0  0  0  0
    7.7836    2.2879   24.0034 H   0  0  0  0  0  0  0  0  0  0  0  0
    6.4355    1.4912   23.2095 H   0  0  0  0  0  0  0  0  0  0  0  0
    9.6883    0.8247   22.8576 N   0  0  0  0  0  0  0  0  0  0  0  0
   12.6392    0.0995   22.5045 C   0  0  0  0  0  0  0  0  0  0  0  0
   13.9383   -0.1901   22.0712 C   0  0  0  0  0  0  0  0  0  0  0  0
   14.7779    0.3892   22.4445 H   0  0  0  0  0  0  0  0  0  0  0  0
   12.4754    0.8910   23.2278 H   0  0  0  0  0  0  0  0  0  0  0  0
   10.9479   -2.2510   20.7609 H   0  0  0  0  0  0  0  0  0  0  0  0
   13.2414   -2.7092   19.8893 H   0  0  0  0  0  0  0  0  0  0  0  0
   15.1184   -1.4261   20.7054 H   0  0  0  0  0  0  0  0  0  0  0  0
  1  2  2  0
  2  3  1  0
  3  4  2  0
  4  5  1  0
  5  6  2  0
  6  7  1  0
  7  8  1  0
  8  9  1  0
  9 10  2  0
 10 11  1  0
 11 12  2  0
 12 13  1  0
 13 14  2  0
 14 15  1  0
 12 16  1  0
 11 17  1  0
 10 18  1  0
  8 19  1  0
  8 20  1  0
  7 21  1  0
 21 22  1  0
 22 23  1  0
 23 24  1  0
 24 25  2  0
 25 26  1  0
 26 27  1  0
 27 28  2  0
 28 29  1  0
 27 30  1  0
 23 31  1  0
 23 32  1  0
 22 33  1  0
 22 34  1  0
 21 35  2  0
  4 36  1  0
 36 37  2  0
 37 38  1  0
 36 39  1  0
  3 40  1  0
  2 41  1  0
  1 42  1  0
 37  1  1  0
 35  5  1  0
 14  9  1  0
 28 24  1  0
M  END
>  <cnnaffinity>  (1) 
-6.23309

>  <filename>  (1) 
c1ccc(-c2nc(CCc3ccon3)n(Cc3cccnc3)n2)cc1

$$$$
