
     RDKit          3D

 37 40  0  0  0  0  0  0  0  0999 V2000
    5.0131    1.8131   16.8515 H   0  0  0  0  0  0  0  0  0  0  0  0
    5.4831    1.3309   17.7061 C   0  0  0  0  0  0  0  0  0  0  0  0
    6.6573    0.7252   17.4708 N   0  0  0  0  0  0  0  0  0  0  0  0
    7.2689    0.1333   18.5019 C   0  0  0  0  0  0  0  0  0  0  0  0
    8.2219   -0.3431   18.2782 H   0  0  0  0  0  0  0  0  0  0  0  0
    6.7393    0.0949   19.8065 C   0  0  0  0  0  0  0  0  0  0  0  0
    7.4009   -0.6753   20.8772 C   0  0  0  0  0  0  0  0  0  0  0  0
    8.6029   -1.2443   20.6886 N   0  0  0  0  0  0  0  0  0  0  0  0
    8.7801   -1.9430   21.8365 N   0  0  0  0  0  0  0  0  0  0  0  0
    9.7744   -2.7540   22.3701 C   0  0  0  0  0  0  0  0  0  0  0  0
   10.7270   -2.8109   21.8704 H   0  0  0  0  0  0  0  0  0  0  0  0
    9.2761   -3.2355   23.5416 C   0  0  0  0  0  0  0  0  0  0  0  0
    9.7072   -3.8844   24.2984 H   0  0  0  0  0  0  0  0  0  0  0  0
    7.9973   -2.7119   23.7433 N   0  0  0  0  0  0  0  0  0  0  0  0
    7.0071   -3.1431   24.7215 C   0  0  0  0  0  0  0  0  0  0  0  0
    7.5238   -3.7435   25.4796 H   0  0  0  0  0  0  0  0  0  0  0  0
    6.2781   -3.8031   24.2333 H   0  0  0  0  0  0  0  0  0  0  0  0
    6.2946   -2.0722   25.3661 N   0  0  0  0  0  0  0  0  0  0  0  0
    5.6763   -1.5955   24.7242 H   0  0  0  0  0  0  0  0  0  0  0  0
    6.9461   -1.1452   26.1836 C   0  0  0  0  0  0  0  0  0  0  0  0
    8.2472   -1.3288   26.6791 C   0  0  0  0  0  0  0  0  0  0  0  0
    8.8533   -2.1543   26.3159 H   0  0  0  0  0  0  0  0  0  0  0  0
    8.7604   -0.4272   27.6194 C   0  0  0  0  0  0  0  0  0  0  0  0
    9.7529   -0.5992   28.0352 H   0  0  0  0  0  0  0  0  0  0  0  0
    7.9979    0.6695   28.0443 C   0  0  0  0  0  0  0  0  0  0  0  0
    8.3747    1.3727   28.7836 H   0  0  0  0  0  0  0  0  0  0  0  0
    6.7209    0.8734   27.5116 C   0  0  0  0  0  0  0  0  0  0  0  0
    6.1159    1.7117   27.8477 H   0  0  0  0  0  0  0  0  0  0  0  0
    6.2065   -0.0169   26.5718 C   0  0  0  0  0  0  0  0  0  0  0  0
    5.2210    0.1206   26.1380 H   0  0  0  0  0  0  0  0  0  0  0  0
    7.7370   -1.8740   22.6811 C   0  0  0  0  0  0  0  0  0  0  0  0
    6.8308   -0.9856   22.1399 C   0  0  0  0  0  0  0  0  0  0  0  0
    5.9922   -0.5197   22.6219 H   0  0  0  0  0  0  0  0  0  0  0  0
    5.5149    0.7491   20.0337 C   0  0  0  0  0  0  0  0  0  0  0  0
    5.0700    0.7733   21.0309 H   0  0  0  0  0  0  0  0  0  0  0  0
    4.8769    1.3734   18.9661 C   0  0  0  0  0  0  0  0  0  0  0  0
    3.9378    1.9020   19.0972 H   0  0  0  0  0  0  0  0  0  0  0  0
  1  2  1  0
  2  3  2  0
  3  4  1  0
  4  5  1  0
  4  6  2  0
  6  7  1  0
  7  8  2  0
  8  9  1  0
  9 10  1  0
 10 11  1  0
 10 12  2  0
 12 13  1  0
 12 14  1  0
 14 15  1  0
 15 16  1  0
 15 17  1  0
 15 18  1  0
 18 19  1  0
 18 20  1  0
 20 21  2  0
 21 22  1  0
 21 23  1  0
 23 24  1  0
 23 25  2  0
 25 26  1  0
 25 27  1  0
 27 28  1  0
 27 29  2  0
 29 30  1  0
 14 31  1  0
 31 32  2  0
 32 33  1  0
  6 34  1  0
 34 35  1  0
 34 36  2  0
 36 37  1  0
 36  2  1  0
 32  7  1  0
 31  9  1  0
 29 20  1  0
M  END
>  <cnnaffinity>  (1) 
-5.47961

>  <filename>  (1) 
c1ccc(NCn2ccn3nc(-c4cccnc4)cc23)cc1

$$$$
