
     RDKit          3D

 45 48  0  0  0  0  0  0  0  0999 V2000
   14.3465   -1.2119   21.0026 C   0  0  0  0  0  0  0  0  0  0  0  0
   13.2956   -2.0461   20.6491 C   0  0  0  0  0  0  0  0  0  0  0  0
   12.0344   -1.7715   21.1551 C   0  0  0  0  0  0  0  0  0  0  0  0
   11.7754   -0.5596   21.8109 C   0  0  0  0  0  0  0  0  0  0  0  0
   10.3574   -0.1608   21.8638 C   0  0  0  0  0  0  0  0  0  0  0  0
    9.4028   -0.9503   21.3804 N   0  0  0  0  0  0  0  0  0  0  0  0
    8.2828   -0.2241   21.5289 N   0  0  0  0  0  0  0  0  0  0  0  0
    7.0079   -0.7420   21.0402 C   0  0  0  0  0  0  0  0  0  0  0  0
    6.3949    0.0458   19.8995 C   0  0  0  0  0  0  0  0  0  0  0  0
    5.1753    0.7221   20.0158 C   0  0  0  0  0  0  0  0  0  0  0  0
    4.6789    1.4157   18.9099 C   0  0  0  0  0  0  0  0  0  0  0  0
    5.4138    1.3983   17.7225 C   0  0  0  0  0  0  0  0  0  0  0  0
    6.5758    0.7409   17.5820 N   0  0  0  0  0  0  0  0  0  0  0  0
    7.0458    0.0914   18.6534 C   0  0  0  0  0  0  0  0  0  0  0  0
    7.9830   -0.4456   18.5050 H   0  0  0  0  0  0  0  0  0  0  0  0
    5.0564    1.9367   16.8470 H   0  0  0  0  0  0  0  0  0  0  0  0
    3.7502    1.9729   18.9596 H   0  0  0  0  0  0  0  0  0  0  0  0
    4.6137    0.6994   20.9525 H   0  0  0  0  0  0  0  0  0  0  0  0
    7.2389   -1.7611   20.7220 H   0  0  0  0  0  0  0  0  0  0  0  0
    6.3096   -0.8210   21.8823 H   0  0  0  0  0  0  0  0  0  0  0  0
    8.5965    0.9499   22.1177 C   0  0  0  0  0  0  0  0  0  0  0  0
    7.5963    1.7889   22.8219 C   0  0  0  0  0  0  0  0  0  0  0  0
    7.4591    1.2449   24.2677 C   0  0  0  0  0  0  0  0  0  0  0  0
    6.4275    1.9505   25.0888 C   0  0  0  0  0  0  0  0  0  0  0  0
    6.7675    3.0056   25.9436 C   0  0  0  0  0  0  0  0  0  0  0  0
    5.7545    3.6717   26.6315 C   0  0  0  0  0  0  0  0  0  0  0  0
    4.4331    3.2537   26.4456 C   0  0  0  0  0  0  0  0  0  0  0  0
    4.0855    2.2394   25.6435 N   0  0  0  0  0  0  0  0  0  0  0  0
    5.0701    1.6078   24.9929 C   0  0  0  0  0  0  0  0  0  0  0  0
    4.7639    0.7674   24.3673 H   0  0  0  0  0  0  0  0  0  0  0  0
    3.6181    3.7539   26.9644 H   0  0  0  0  0  0  0  0  0  0  0  0
    5.9761    4.4944   27.3010 H   0  0  0  0  0  0  0  0  0  0  0  0
    7.8142    3.2896   26.0675 H   0  0  0  0  0  0  0  0  0  0  0  0
    7.2203    0.1720   24.2138 H   0  0  0  0  0  0  0  0  0  0  0  0
    8.4460    1.3139   24.7453 H   0  0  0  0  0  0  0  0  0  0  0  0
    7.9565    2.8203   22.8213 H   0  0  0  0  0  0  0  0  0  0  0  0
    6.6400    1.7695   22.2879 H   0  0  0  0  0  0  0  0  0  0  0  0
    9.9043    1.0331   22.3079 N   0  0  0  0  0  0  0  0  0  0  0  0
   12.8508    0.2417   22.2489 C   0  0  0  0  0  0  0  0  0  0  0  0
   14.1510   -0.1251   21.8776 C   0  0  0  0  0  0  0  0  0  0  0  0
   14.9892    0.4964   22.1782 H   0  0  0  0  0  0  0  0  0  0  0  0
   12.6621    1.1465   22.8249 H   0  0  0  0  0  0  0  0  0  0  0  0
   11.1660   -2.3949   20.9981 H   0  0  0  0  0  0  0  0  0  0  0  0
   13.4771   -2.8695   19.9594 H   0  0  0  0  0  0  0  0  0  0  0  0
   15.2788   -1.4238   20.5092 H   0  0  0  0  0  0  0  0  0  0  0  0
  1  2  2  0
  2  3  1  0
  3  4  2  0
  4  5  1  0
  5  6  2  0
  6  7  1  0
  7  8  1  0
  8  9  1  0
  9 10  2  0
 10 11  1  0
 11 12  2  0
 12 13  1  0
 13 14  2  0
 14 15  1  0
 12 16  1  0
 11 17  1  0
 10 18  1  0
  8 19  1  0
  8 20  1  0
  7 21  1  0
 21 22  1  0
 22 23  1  0
 23 24  1  0
 24 25  2  0
 25 26  1  0
 26 27  2  0
 27 28  1  0
 28 29  2  0
 29 30  1  0
 27 31  1  0
 26 32  1  0
 25 33  1  0
 23 34  1  0
 23 35  1  0
 22 36  1  0
 22 37  1  0
 21 38  2  0
  4 39  1  0
 39 40  2  0
 40 41  1  0
 39 42  1  0
  3 43  1  0
  2 44  1  0
  1 45  1  0
 40  1  1  0
 38  5  1  0
 14  9  1  0
 29 24  1  0
M  END
>  <cnnaffinity>  (1) 
-6.44159

>  <filename>  (1) 
c1ccc(-c2nc(CCc3cccnc3)n(Cc3cccnc3)n2)cc1

$$$$
