
     RDKit          3D

 45 48  0  0  0  0  0  0  0  0999 V2000
    8.7896    1.7627   25.7944 C   0  0  0  0  0  0  0  0  0  0  0  0
    7.6237    1.5639   25.0452 C   0  0  0  0  0  0  0  0  0  0  0  0
    7.6485    1.7381   23.6575 C   0  0  0  0  0  0  0  0  0  0  0  0
    8.8305    2.1373   23.0120 C   0  0  0  0  0  0  0  0  0  0  0  0
    8.9104    2.2475   21.2310 S   0  0  0  0  0  0  0  0  0  0  0  0
    9.5388    0.5552   20.9012 C   0  0  0  0  0  0  0  0  0  0  0  0
    8.6371   -0.5168   21.3951 C   0  0  0  0  0  0  0  0  0  0  0  0
    8.8647   -1.3247   22.4078 N   0  0  0  0  0  0  0  0  0  0  0  0
    7.6565   -1.9260   22.5896 C   0  0  0  0  0  0  0  0  0  0  0  0
    7.4107   -2.8555   23.7423 C   0  0  0  0  0  0  0  0  0  0  0  0
    7.3195   -2.0818   25.0860 C   0  0  0  0  0  0  0  0  0  0  0  0
    7.2049   -3.0522   26.2605 C   0  0  0  0  0  0  0  0  0  0  0  0
    8.2698   -3.9863   26.2721 O   0  0  0  0  0  0  0  0  0  0  0  0
    8.2954   -4.7909   25.1060 C   0  0  0  0  0  0  0  0  0  0  0  0
    8.4974   -3.9534   23.8422 C   0  0  0  0  0  0  0  0  0  0  0  0
    8.4789   -4.6007   22.9567 H   0  0  0  0  0  0  0  0  0  0  0  0
    9.4876   -3.4828   23.8776 H   0  0  0  0  0  0  0  0  0  0  0  0
    7.3508   -5.3587   25.0270 H   0  0  0  0  0  0  0  0  0  0  0  0
    9.1078   -5.5070   25.2483 H   0  0  0  0  0  0  0  0  0  0  0  0
    7.2499   -2.5310   27.2203 H   0  0  0  0  0  0  0  0  0  0  0  0
    6.2402   -3.5878   26.2070 H   0  0  0  0  0  0  0  0  0  0  0  0
    6.4596   -1.3976   25.0814 H   0  0  0  0  0  0  0  0  0  0  0  0
    8.2294   -1.4811   25.2153 H   0  0  0  0  0  0  0  0  0  0  0  0
    6.4388   -3.3177   23.5350 H   0  0  0  0  0  0  0  0  0  0  0  0
    6.7229   -1.5650   21.7335 N   0  0  0  0  0  0  0  0  0  0  0  0
    7.3637   -0.6739   20.9318 N   0  0  0  0  0  0  0  0  0  0  0  0
    6.6618    0.0080   19.8978 C   0  0  0  0  0  0  0  0  0  0  0  0
    5.4424    0.6424   20.1619 C   0  0  0  0  0  0  0  0  0  0  0  0
    4.8128    1.3093   19.1059 C   0  0  0  0  0  0  0  0  0  0  0  0
    5.3976    1.2966   17.8339 C   0  0  0  0  0  0  0  0  0  0  0  0
    6.5517    0.6673   17.5682 N   0  0  0  0  0  0  0  0  0  0  0  0
    7.1634    0.0491   18.5854 C   0  0  0  0  0  0  0  0  0  0  0  0
    8.1066   -0.4405   18.3569 H   0  0  0  0  0  0  0  0  0  0  0  0
    4.9249    1.7914   16.9887 H   0  0  0  0  0  0  0  0  0  0  0  0
    3.8823    1.8376   19.2599 H   0  0  0  0  0  0  0  0  0  0  0  0
    5.0191    0.6049   21.1703 H   0  0  0  0  0  0  0  0  0  0  0  0
   10.5138    0.4413   21.3785 H   0  0  0  0  0  0  0  0  0  0  0  0
    9.6429    0.4924   19.8207 H   0  0  0  0  0  0  0  0  0  0  0  0
    9.9976    2.3249   23.7625 C   0  0  0  0  0  0  0  0  0  0  0  0
    9.9779    2.1061   25.1407 C   0  0  0  0  0  0  0  0  0  0  0  0
   10.9140    2.1293   25.6815 H   0  0  0  0  0  0  0  0  0  0  0  0
   10.9212    2.6071   23.2596 H   0  0  0  0  0  0  0  0  0  0  0  0
    6.7740    1.5166   23.0542 H   0  0  0  0  0  0  0  0  0  0  0  0
    6.7082    1.2387   25.5399 H   0  0  0  0  0  0  0  0  0  0  0  0
    8.7824    1.6330   26.8752 H   0  0  0  0  0  0  0  0  0  0  0  0
  1  2  2  0
  2  3  1  0
  3  4  2  0
  4  5  1  0
  5  6  1  0
  6  7  1  0
  7  8  2  0
  8  9  1  0
  9 10  1  0
 10 11  1  0
 11 12  1  0
 12 13  1  0
 13 14  1  0
 14 15  1  0
 15 16  1  0
 15 17  1  0
 14 18  1  0
 14 19  1  0
 12 20  1  0
 12 21  1  0
 11 22  1  0
 11 23  1  0
 10 24  1  0
  9 25  2  0
 25 26  1  0
 26 27  1  0
 27 28  2  0
 28 29  1  0
 29 30  2  0
 30 31  1  0
 31 32  2  0
 32 33  1  0
 30 34  1  0
 29 35  1  0
 28 36  1  0
  6 37  1  0
  6 38  1  0
  4 39  1  0
 39 40  2  0
 40 41  1  0
 39 42  1  0
  3 43  1  0
  2 44  1  0
  1 45  1  0
 40  1  1  0
 26  7  1  0
 32 27  1  0
 15 10  1  0
M  END
>  <cnnaffinity>  (1) 
-5.86428

>  <filename>  (1) 
c1ccc(SCc2nc(C3CCOCC3)nn2-c2cccnc2)cc1

$$$$
