
     RDKit          3D

 27 29  0  0  0  0  0  0  0  0999 V2000
    6.9174    4.1246   21.9118 H   0  0  0  0  0  0  0  0  0  0  0  0
    7.0413    3.2971   22.6084 C   0  0  0  0  0  0  0  0  0  0  0  0
    7.2406    2.0969   22.0578 N   0  0  0  0  0  0  0  0  0  0  0  0
    7.3961    1.0262   22.8716 C   0  0  0  0  0  0  0  0  0  0  0  0
    7.6395   -0.3197   22.2662 C   0  0  0  0  0  0  0  0  0  0  0  0
    8.2278   -1.3930   22.9201 N   0  0  0  0  0  0  0  0  0  0  0  0
    8.3401   -2.3357   22.0288 C   0  0  0  0  0  0  0  0  0  0  0  0
    8.7766   -3.3214   22.1874 H   0  0  0  0  0  0  0  0  0  0  0  0
    7.8513   -1.9486   20.8231 N   0  0  0  0  0  0  0  0  0  0  0  0
    7.7587   -2.5160   19.9959 H   0  0  0  0  0  0  0  0  0  0  0  0
    7.3522   -0.6790   20.9560 C   0  0  0  0  0  0  0  0  0  0  0  0
    6.6361   -0.0031   19.8758 C   0  0  0  0  0  0  0  0  0  0  0  0
    7.1550    0.0539   18.5649 C   0  0  0  0  0  0  0  0  0  0  0  0
    8.1175   -0.4085   18.3457 H   0  0  0  0  0  0  0  0  0  0  0  0
    6.5557    0.6852   17.5516 N   0  0  0  0  0  0  0  0  0  0  0  0
    5.3913    1.2998   17.8164 C   0  0  0  0  0  0  0  0  0  0  0  0
    4.9156    1.7986   16.9783 H   0  0  0  0  0  0  0  0  0  0  0  0
    4.7873    1.3040   19.0776 C   0  0  0  0  0  0  0  0  0  0  0  0
    3.8689    1.8476   19.2486 H   0  0  0  0  0  0  0  0  0  0  0  0
    5.4097    0.6303   20.1249 C   0  0  0  0  0  0  0  0  0  0  0  0
    5.0095    0.6448   21.1412 H   0  0  0  0  0  0  0  0  0  0  0  0
    7.3405    1.1662   24.2718 C   0  0  0  0  0  0  0  0  0  0  0  0
    7.4775    0.2804   24.8741 H   0  0  0  0  0  0  0  0  0  0  0  0
    7.1371    2.4218   24.8399 C   0  0  0  0  0  0  0  0  0  0  0  0
    7.1114    2.5422   25.9242 H   0  0  0  0  0  0  0  0  0  0  0  0
    6.9831    3.5172   23.9882 C   0  0  0  0  0  0  0  0  0  0  0  0
    6.8227    4.5205   24.3673 H   0  0  0  0  0  0  0  0  0  0  0  0
  1  2  1  0
  2  3  2  0
  3  4  1  0
  4  5  1  0
  5  6  1  0
  6  7  2  0
  7  8  1  0
  7  9  1  0
  9 10  1  0
  9 11  1  0
 11 12  1  0
 12 13  2  0
 13 14  1  0
 13 15  1  0
 15 16  2  0
 16 17  1  0
 16 18  1  0
 18 19  1  0
 18 20  2  0
 20 21  1  0
  4 22  2  0
 22 23  1  0
 22 24  1  0
 24 25  1  0
 24 26  2  0
 26 27  1  0
 26  2  1  0
 11  5  2  0
 20 12  1  0
M  END
>  <cnnaffinity>  (1) 
-4.82423

>  <filename>  (1) 
c1ccc(-c2nc[nH]c2-c2cccnc2)nc1

$$$$
