
     RDKit          3D

 24 26  0  0  0  0  0  0  0  0999 V2000
    6.9997    4.0612   22.6387 H   0  0  0  0  0  0  0  0  0  0  0  0
    7.0800    3.0158   22.8954 C   0  0  0  0  0  0  0  0  0  0  0  0
    6.9465    2.5934   24.1833 N   0  0  0  0  0  0  0  0  0  0  0  0
    7.0913    1.2972   24.0721 C   0  0  0  0  0  0  0  0  0  0  0  0
    7.0819    0.5586   24.8587 H   0  0  0  0  0  0  0  0  0  0  0  0
    7.2893    0.9615   22.7751 N   0  0  0  0  0  0  0  0  0  0  0  0
    7.5451   -0.2962   22.2443 N   0  0  0  0  0  0  0  0  0  0  0  0
    7.3680   -0.7078   20.9268 C   0  0  0  0  0  0  0  0  0  0  0  0
    6.6330    0.0183   19.8960 C   0  0  0  0  0  0  0  0  0  0  0  0
    7.1565    0.0477   18.5938 C   0  0  0  0  0  0  0  0  0  0  0  0
    8.1049   -0.4369   18.3688 H   0  0  0  0  0  0  0  0  0  0  0  0
    6.5643    0.6743   17.5745 N   0  0  0  0  0  0  0  0  0  0  0  0
    5.4014    1.2940   17.8322 C   0  0  0  0  0  0  0  0  0  0  0  0
    4.9330    1.7892   16.9864 H   0  0  0  0  0  0  0  0  0  0  0  0
    4.7900    1.3058   19.0927 C   0  0  0  0  0  0  0  0  0  0  0  0
    3.8666    1.8464   19.2494 H   0  0  0  0  0  0  0  0  0  0  0  0
    5.4121    0.6553   20.1552 C   0  0  0  0  0  0  0  0  0  0  0  0
    5.0047    0.6637   21.1710 H   0  0  0  0  0  0  0  0  0  0  0  0
    7.8807   -1.8951   20.7463 N   0  0  0  0  0  0  0  0  0  0  0  0
    8.3665   -2.2929   21.9642 C   0  0  0  0  0  0  0  0  0  0  0  0
    8.8193   -3.2688   22.0801 H   0  0  0  0  0  0  0  0  0  0  0  0
    8.1955   -1.3236   22.9066 C   0  0  0  0  0  0  0  0  0  0  0  0
    8.4842   -1.2474   23.9480 H   0  0  0  0  0  0  0  0  0  0  0  0
    7.3133    2.0682   22.0044 N   0  0  0  0  0  0  0  0  0  0  0  0
  1  2  1  0
  2  3  1  0
  3  4  2  0
  4  5  1  0
  4  6  1  0
  6  7  1  0
  7  8  1  0
  8  9  1  0
  9 10  2  0
 10 11  1  0
 10 12  1  0
 12 13  2  0
 13 14  1  0
 13 15  1  0
 15 16  1  0
 15 17  2  0
 17 18  1  0
  8 19  2  0
 19 20  1  0
 20 21  1  0
 20 22  2  0
 22 23  1  0
  6 24  1  0
 24  2  2  0
 22  7  1  0
 17  9  1  0
M  END
>  <cnnaffinity>  (1) 
-4.54714

>  <filename>  (1) 
c1cncc(-c2nccn2-n2cncn2)c1

$$$$
