
     RDKit          3D

 41 44  0  0  0  0  0  0  0  0999 V2000
    4.9307    1.8319   16.9563 H   0  0  0  0  0  0  0  0  0  0  0  0
    5.3935    1.3212   17.7952 C   0  0  0  0  0  0  0  0  0  0  0  0
    6.5564    0.6993   17.5473 N   0  0  0  0  0  0  0  0  0  0  0  0
    7.1677    0.0804   18.5696 C   0  0  0  0  0  0  0  0  0  0  0  0
    8.1215   -0.3915   18.3228 H   0  0  0  0  0  0  0  0  0  0  0  0
    6.6410    0.0269   19.8907 C   0  0  0  0  0  0  0  0  0  0  0  0
    7.2602   -0.5432   21.0254 N   0  0  0  0  0  0  0  0  0  0  0  0
    6.5947   -1.6285   21.7474 C   0  0  0  0  0  0  0  0  0  0  0  0
    6.7251   -1.4818   22.8290 H   0  0  0  0  0  0  0  0  0  0  0  0
    5.5146   -1.5906   21.5616 H   0  0  0  0  0  0  0  0  0  0  0  0
    7.1643   -2.9754   21.3021 C   0  0  0  0  0  0  0  0  0  0  0  0
    6.8695   -3.1301   20.2603 H   0  0  0  0  0  0  0  0  0  0  0  0
    6.7167   -3.7939   21.8776 H   0  0  0  0  0  0  0  0  0  0  0  0
    8.6960   -3.0228   21.3986 C   0  0  0  0  0  0  0  0  0  0  0  0
    9.0138   -3.8442   20.7670 H   0  0  0  0  0  0  0  0  0  0  0  0
    9.0158   -3.2768   22.4164 H   0  0  0  0  0  0  0  0  0  0  0  0
    9.3872   -1.7494   20.8714 C   0  0  0  0  0  0  0  0  0  0  0  0
   10.4356   -1.7046   21.1805 H   0  0  0  0  0  0  0  0  0  0  0  0
    9.3781   -1.7651   19.7737 H   0  0  0  0  0  0  0  0  0  0  0  0
    8.7044   -0.4236   21.2463 C   0  0  2  0  0  0  0  0  0  0  0  0
    9.0653    0.3326   20.5387 H   0  0  0  0  0  0  0  0  0  0  0  0
    8.9989    0.1463   22.6153 C   0  0  0  0  0  0  0  0  0  0  0  0
    9.6296   -0.5603   23.6098 C   0  0  0  0  0  0  0  0  0  0  0  0
   10.0701   -1.5333   23.3974 H   0  0  0  0  0  0  0  0  0  0  0  0
    9.7790   -0.1354   24.8960 N   0  0  0  0  0  0  0  0  0  0  0  0
    9.2865    1.0475   25.2008 C   0  0  0  0  0  0  0  0  0  0  0  0
    9.3766    1.3624   26.2382 H   0  0  0  0  0  0  0  0  0  0  0  0
    8.6528    1.9262   24.2603 C   0  0  0  0  0  0  0  0  0  0  0  0
    8.1246    3.2064   24.6142 C   0  0  0  0  0  0  0  0  0  0  0  0
    8.1700    3.5361   25.6490 H   0  0  0  0  0  0  0  0  0  0  0  0
    7.5509    4.0162   23.6632 C   0  0  0  0  0  0  0  0  0  0  0  0
    7.1477    4.9897   23.9311 H   0  0  0  0  0  0  0  0  0  0  0  0
    7.4759    3.5956   22.3104 C   0  0  0  0  0  0  0  0  0  0  0  0
    7.0262    4.2490   21.5652 H   0  0  0  0  0  0  0  0  0  0  0  0
    7.9604    2.3592   21.9413 C   0  0  0  0  0  0  0  0  0  0  0  0
    7.8742    2.0479   20.9044 H   0  0  0  0  0  0  0  0  0  0  0  0
    8.5388    1.4792   22.9139 C   0  0  0  0  0  0  0  0  0  0  0  0
    5.4070    0.6595   20.1038 C   0  0  0  0  0  0  0  0  0  0  0  0
    5.0139    0.6463   21.1199 H   0  0  0  0  0  0  0  0  0  0  0  0
    4.7820    1.3256   19.0523 C   0  0  0  0  0  0  0  0  0  0  0  0
    3.8427    1.8436   19.2054 H   0  0  0  0  0  0  0  0  0  0  0  0
  1  2  1  0
  2  3  2  0
  3  4  1  0
  4  5  1  0
  4  6  2  0
  6  7  1  0
  7  8  1  0
  8  9  1  0
  8 10  1  0
  8 11  1  0
 11 12  1  0
 11 13  1  0
 11 14  1  0
 14 15  1  0
 14 16  1  0
 14 17  1  0
 17 18  1  0
 17 19  1  0
 17 20  1  0
 20 21  1  6
 20 22  1  0
 22 23  2  0
 23 24  1  0
 23 25  1  0
 25 26  2  0
 26 27  1  0
 26 28  1  0
 28 29  2  0
 29 30  1  0
 29 31  1  0
 31 32  1  0
 31 33  2  0
 33 34  1  0
 33 35  1  0
 35 36  1  0
 35 37  2  0
  6 38  1  0
 38 39  1  0
 38 40  2  0
 40 41  1  0
 40  2  1  0
 20  7  1  0
 37 22  1  0
 37 28  1  0
M  END
>  <cnnaffinity>  (1) 
-5.51422

>  <filename>  (1) 
c1cncc(N2CCCC[C@@H]2c2cncc3ccccc23)c1

$$$$
