
     RDKit          3D

 40 43  0  0  0  0  0  0  0  0999 V2000
    4.8135    1.3093   19.1103 C   0  0  0  0  0  0  0  0  0  0  0  0
    5.4011    1.2957   17.8386 C   0  0  0  0  0  0  0  0  0  0  0  0
    6.5611    0.6744   17.5782 N   0  0  0  0  0  0  0  0  0  0  0  0
    7.1707    0.0554   18.5951 C   0  0  0  0  0  0  0  0  0  0  0  0
    6.6623    0.0098   19.9047 C   0  0  0  0  0  0  0  0  0  0  0  0
    7.3655   -0.6677   20.9426 N   0  0  0  0  0  0  0  0  0  0  0  0
    6.7530   -1.6427   21.6636 N   0  0  0  0  0  0  0  0  0  0  0  0
    7.6881   -2.0143   22.5158 C   0  0  0  0  0  0  0  0  0  0  0  0
    7.4562   -3.0087   23.5917 C   0  0  0  0  0  0  0  0  0  0  0  0
    6.3056   -2.8145   24.5421 C   0  0  0  0  0  0  0  0  0  0  0  0
    7.7111   -2.6219   25.0269 C   0  0  0  0  0  0  0  0  0  0  0  0
    8.1335   -3.3610   25.7020 H   0  0  0  0  0  0  0  0  0  0  0  0
    8.0569   -1.6050   25.2150 H   0  0  0  0  0  0  0  0  0  0  0  0
    5.6976   -1.9283   24.3827 H   0  0  0  0  0  0  0  0  0  0  0  0
    5.7476   -3.6863   24.8719 H   0  0  0  0  0  0  0  0  0  0  0  0
    7.7092   -4.0239   23.2998 H   0  0  0  0  0  0  0  0  0  0  0  0
    8.8720   -1.3541   22.3919 N   0  0  0  0  0  0  0  0  0  0  0  0
    8.6354   -0.4983   21.4179 C   0  0  0  0  0  0  0  0  0  0  0  0
    9.5335    0.5933   20.9471 C   0  0  0  0  0  0  0  0  0  0  0  0
    9.0630    1.9993   21.3656 C   0  0  0  0  0  0  0  0  0  0  0  0
    8.9795    2.1800   22.8874 C   0  0  0  0  0  0  0  0  0  0  0  0
   10.2541    1.9885   23.5613 N   0  0  0  0  0  0  0  0  0  0  0  0
   10.6403    0.9138   24.3394 C   0  0  0  0  0  0  0  0  0  0  0  0
   11.9406    1.1533   24.6850 C   0  0  0  0  0  0  0  0  0  0  0  0
   12.3697    2.3351   24.1358 N   0  0  0  0  0  0  0  0  0  0  0  0
   11.3452    2.8013   23.4673 C   0  0  0  0  0  0  0  0  0  0  0  0
   11.3280    3.7274   22.9017 H   0  0  0  0  0  0  0  0  0  0  0  0
   12.5926    0.5475   25.3067 H   0  0  0  0  0  0  0  0  0  0  0  0
    9.9723    0.0844   24.5244 H   0  0  0  0  0  0  0  0  0  0  0  0
    8.2797    1.4550   23.3153 H   0  0  0  0  0  0  0  0  0  0  0  0
    8.5929    3.1757   23.1277 H   0  0  0  0  0  0  0  0  0  0  0  0
    9.7598    2.7418   20.9642 H   0  0  0  0  0  0  0  0  0  0  0  0
    8.0813    2.2107   20.9205 H   0  0  0  0  0  0  0  0  0  0  0  0
   10.5282    0.3950   21.3562 H   0  0  0  0  0  0  0  0  0  0  0  0
    9.6071    0.5512   19.8579 H   0  0  0  0  0  0  0  0  0  0  0  0
    5.4414    0.6425   20.1676 C   0  0  0  0  0  0  0  0  0  0  0  0
    5.0162    0.6088   21.1733 H   0  0  0  0  0  0  0  0  0  0  0  0
    8.1139   -0.4354   18.3694 H   0  0  0  0  0  0  0  0  0  0  0  0
    4.9186    1.7847   16.9946 H   0  0  0  0  0  0  0  0  0  0  0  0
    3.8806    1.8390   19.2611 H   0  0  0  0  0  0  0  0  0  0  0  0
  1  2  2  0
  2  3  1  0
  3  4  2  0
  4  5  1  0
  5  6  1  0
  6  7  1  0
  7  8  2  0
  8  9  1  0
  9 10  1  0
 10 11  1  0
 11 12  1  0
 11 13  1  0
 10 14  1  0
 10 15  1  0
  9 16  1  0
  8 17  1  0
 17 18  2  0
 18 19  1  0
 19 20  1  0
 20 21  1  0
 21 22  1  0
 22 23  1  0
 23 24  2  0
 24 25  1  0
 25 26  2  0
 26 27  1  0
 24 28  1  0
 23 29  1  0
 21 30  1  0
 21 31  1  0
 20 32  1  0
 20 33  1  0
 19 34  1  0
 19 35  1  0
  5 36  2  0
 36 37  1  0
  4 38  1  0
  2 39  1  0
  1 40  1  0
 36  1  1  0
 18  6  1  0
 26 22  1  0
 11  9  1  0
M  END
>  <cnnaffinity>  (1) 
-5.88588

>  <filename>  (1) 
c1cncc(-n2nc(C3CC3)nc2CCCn2ccnc2)c1

$$$$
