
     RDKit          3D

 33 36  0  0  0  0  0  0  0  0999 V2000
    4.9312    1.8122   16.9730 H   0  0  0  0  0  0  0  0  0  0  0  0
    5.3849    1.3007   17.8217 C   0  0  0  0  0  0  0  0  0  0  0  0
    6.5472    0.6836   17.5747 N   0  0  0  0  0  0  0  0  0  0  0  0
    7.1557    0.0675   18.5938 C   0  0  0  0  0  0  0  0  0  0  0  0
    8.1073   -0.4062   18.3478 H   0  0  0  0  0  0  0  0  0  0  0  0
    6.6416    0.0084   19.9024 C   0  0  0  0  0  0  0  0  0  0  0  0
    7.3898   -0.7303   20.9946 C   0  0  0  0  0  0  0  0  0  0  0  0
    6.8749   -0.6312   21.9541 H   0  0  0  0  0  0  0  0  0  0  0  0
    7.4440   -1.8068   20.7780 H   0  0  0  0  0  0  0  0  0  0  0  0
    8.7652   -0.2693   21.1428 N   0  0  0  0  0  0  0  0  0  0  0  0
    9.8902   -0.9420   20.7838 C   0  0  0  0  0  0  0  0  0  0  0  0
    9.8627   -1.9183   20.3196 H   0  0  0  0  0  0  0  0  0  0  0  0
   10.9607   -0.2394   21.0268 N   0  0  0  0  0  0  0  0  0  0  0  0
   10.5473    0.9434   21.5623 N   0  0  0  0  0  0  0  0  0  0  0  0
    9.2338    0.9239   21.6426 C   0  0  0  0  0  0  0  0  0  0  0  0
    8.4517    2.0172   22.2179 C   0  0  0  0  0  0  0  0  0  0  0  0
    7.0886    1.8958   22.3997 O   0  0  0  0  0  0  0  0  0  0  0  0
    6.6773    3.0657   22.9757 C   0  0  0  0  0  0  0  0  0  0  0  0
    5.3729    3.4138   23.3314 C   0  0  0  0  0  0  0  0  0  0  0  0
    4.5406    2.7376   23.1633 H   0  0  0  0  0  0  0  0  0  0  0  0
    5.1819    4.6727   23.8971 C   0  0  0  0  0  0  0  0  0  0  0  0
    4.1811    4.9892   24.1837 H   0  0  0  0  0  0  0  0  0  0  0  0
    6.2631    5.5547   24.0992 C   0  0  0  0  0  0  0  0  0  0  0  0
    6.0797    6.5312   24.5366 H   0  0  0  0  0  0  0  0  0  0  0  0
    7.5561    5.1940   23.7368 C   0  0  0  0  0  0  0  0  0  0  0  0
    8.3941    5.8674   23.8790 H   0  0  0  0  0  0  0  0  0  0  0  0
    7.7711    3.9271   23.1633 C   0  0  0  0  0  0  0  0  0  0  0  0
    8.9096    3.2130   22.6585 C   0  0  0  0  0  0  0  0  0  0  0  0
    9.9458    3.5209   22.6092 H   0  0  0  0  0  0  0  0  0  0  0  0
    5.4212    0.6542   20.1358 C   0  0  0  0  0  0  0  0  0  0  0  0
    4.9865    0.6527   21.1361 H   0  0  0  0  0  0  0  0  0  0  0  0
    4.7835    1.3132   19.0821 C   0  0  0  0  0  0  0  0  0  0  0  0
    3.8537    1.8499   19.2179 H   0  0  0  0  0  0  0  0  0  0  0  0
  1  2  1  0
  2  3  2  0
  3  4  1  0
  4  5  1  0
  4  6  2  0
  6  7  1  0
  7  8  1  0
  7  9  1  0
  7 10  1  0
 10 11  1  0
 11 12  1  0
 11 13  2  0
 13 14  1  0
 14 15  2  0
 15 16  1  0
 16 17  1  0
 17 18  1  0
 18 19  2  0
 19 20  1  0
 19 21  1  0
 21 22  1  0
 21 23  2  0
 23 24  1  0
 23 25  1  0
 25 26  1  0
 25 27  2  0
 27 28  1  0
 28 29  1  0
  6 30  1  0
 30 31  1  0
 30 32  2  0
 32 33  1  0
 32  2  1  0
 15 10  1  0
 28 16  2  0
 27 18  1  0
M  END
>  <cnnaffinity>  (1) 
-4.82781

>  <filename>  (1) 
c1cncc(Cn2cnnc2-c2cc3ccccc3o2)c1

$$$$
