
     RDKit          3D

 30 33  0  0  0  0  0  0  0  0999 V2000
    4.9318    1.7731   17.0014 H   0  0  0  0  0  0  0  0  0  0  0  0
    5.4099    1.2849   17.8463 C   0  0  0  0  0  0  0  0  0  0  0  0
    6.5740    0.6654   17.5970 N   0  0  0  0  0  0  0  0  0  0  0  0
    7.1781    0.0526   18.6199 C   0  0  0  0  0  0  0  0  0  0  0  0
    8.1250   -0.4320   18.3866 H   0  0  0  0  0  0  0  0  0  0  0  0
    6.6433    0.0180   19.9170 C   0  0  0  0  0  0  0  0  0  0  0  0
    7.3629   -0.6850   20.9745 C   0  0  0  0  0  0  0  0  0  0  0  0
    8.5458   -1.3230   20.7556 N   0  0  0  0  0  0  0  0  0  0  0  0
    8.8004   -1.8229   21.9441 C   0  0  0  0  0  0  0  0  0  0  0  0
    9.9873   -2.8419   22.7131 S   0  0  0  0  0  0  0  0  0  0  0  0
    9.0548   -2.8125   24.1860 C   0  0  0  0  0  0  0  0  0  0  0  0
    9.3884   -3.3800   25.0425 H   0  0  0  0  0  0  0  0  0  0  0  0
    7.9379   -2.0618   24.0978 C   0  0  0  0  0  0  0  0  0  0  0  0
    6.8881   -1.8562   25.1429 C   0  0  0  0  0  0  0  0  0  0  0  0
    6.0946   -2.5975   24.9920 H   0  0  0  0  0  0  0  0  0  0  0  0
    6.3189   -0.4228   25.3204 C   0  0  0  0  0  0  0  0  0  0  0  0
    5.2355   -0.3493   25.1924 H   0  0  0  0  0  0  0  0  0  0  0  0
    6.7829    0.3159   24.6652 H   0  0  0  0  0  0  0  0  0  0  0  0
    6.8164   -0.4082   26.7839 C   0  0  0  0  0  0  0  0  0  0  0  0
    6.0290   -0.3288   27.5404 H   0  0  0  0  0  0  0  0  0  0  0  0
    7.5635    0.3616   26.9981 H   0  0  0  0  0  0  0  0  0  0  0  0
    7.3984   -1.8280   26.6145 C   0  0  0  0  0  0  0  0  0  0  0  0
    6.9681   -2.5955   27.2647 H   0  0  0  0  0  0  0  0  0  0  0  0
    8.4866   -1.8780   26.7140 H   0  0  0  0  0  0  0  0  0  0  0  0
    7.8334   -1.5026   22.8262 N   0  0  0  0  0  0  0  0  0  0  0  0
    6.8855   -0.7537   22.2140 N   0  0  0  0  0  0  0  0  0  0  0  0
    5.4218    0.6608   20.1689 C   0  0  0  0  0  0  0  0  0  0  0  0
    4.9931    0.6387   21.1758 H   0  0  0  0  0  0  0  0  0  0  0  0
    4.8039    1.3104   19.1074 C   0  0  0  0  0  0  0  0  0  0  0  0
    3.8736    1.8435   19.2545 H   0  0  0  0  0  0  0  0  0  0  0  0
  1  2  1  0
  2  3  2  0
  3  4  1  0
  4  5  1  0
  4  6  2  0
  6  7  1  0
  7  8  1  0
  8  9  2  0
  9 10  1  0
 10 11  1  0
 11 12  1  0
 11 13  2  0
 13 14  1  0
 14 15  1  0
 14 16  1  0
 16 17  1  0
 16 18  1  0
 16 19  1  0
 19 20  1  0
 19 21  1  0
 19 22  1  0
 22 23  1  0
 22 24  1  0
 13 25  1  0
 25 26  1  0
  6 27  1  0
 27 28  1  0
 27 29  2  0
 29 30  1  0
 29  2  1  0
 26  7  2  0
 25  9  1  0
 22 14  1  0
M  END
>  <cnnaffinity>  (1) 
-5.38502

>  <filename>  (1) 
c1cncc(-c2nc3scc(C4CCC4)n3n2)c1

$$$$
