
     RDKit          3D

 47 50  0  0  0  0  0  0  0  0999 V2000
    4.8009    1.3139   19.0976 C   0  0  0  0  0  0  0  0  0  0  0  0
    5.3985    1.2981   17.8312 C   0  0  0  0  0  0  0  0  0  0  0  0
    6.5615    0.6874   17.5652 N   0  0  0  0  0  0  0  0  0  0  0  0
    7.1610    0.0632   18.5860 C   0  0  0  0  0  0  0  0  0  0  0  0
    6.6441   -0.0093   19.8890 C   0  0  0  0  0  0  0  0  0  0  0  0
    7.4055   -0.6756   21.0003 C   0  0  0  0  0  0  0  0  0  0  0  0
    8.3134    0.3235   21.7306 C   0  0  0  0  0  0  0  0  0  0  0  0
    9.1019   -0.3293   22.8751 C   0  0  0  0  0  0  0  0  0  0  0  0
    8.2106   -0.9009   23.9292 C   0  0  0  0  0  0  0  0  0  0  0  0
    7.9446   -2.1786   24.1036 N   0  0  0  0  0  0  0  0  0  0  0  0
    6.9448   -2.1684   25.0265 C   0  0  0  0  0  0  0  0  0  0  0  0
    6.2997   -3.4406   25.5168 C   0  0  0  0  0  0  0  0  0  0  0  0
    5.7846   -3.3632   26.9646 C   0  0  0  0  0  0  0  0  0  0  0  0
    5.6969   -4.8151   27.4595 C   0  0  0  0  0  0  0  0  0  0  0  0
    6.6054   -5.6565   26.5330 C   0  0  0  0  0  0  0  0  0  0  0  0
    7.2133   -4.6836   25.5066 C   0  0  0  0  0  0  0  0  0  0  0  0
    8.2273   -4.3947   25.8040 H   0  0  0  0  0  0  0  0  0  0  0  0
    7.2953   -5.1325   24.5100 H   0  0  0  0  0  0  0  0  0  0  0  0
    6.0203   -6.4387   26.0354 H   0  0  0  0  0  0  0  0  0  0  0  0
    7.3883   -6.1781   27.0947 H   0  0  0  0  0  0  0  0  0  0  0  0
    6.0013   -4.8899   28.5091 H   0  0  0  0  0  0  0  0  0  0  0  0
    4.6640   -5.1784   27.4139 H   0  0  0  0  0  0  0  0  0  0  0  0
    4.8275   -2.8357   27.0281 H   0  0  0  0  0  0  0  0  0  0  0  0
    6.4989   -2.7892   27.5630 H   0  0  0  0  0  0  0  0  0  0  0  0
    5.4545   -3.6283   24.8425 H   0  0  0  0  0  0  0  0  0  0  0  0
    6.5763   -0.9612   25.4227 N   0  0  0  0  0  0  0  0  0  0  0  0
    7.4103   -0.1468   24.7311 N   0  0  0  0  0  0  0  0  0  0  0  0
    7.3207    1.2593   24.8552 C   0  0  0  0  0  0  0  0  0  0  0  0
    8.4388    2.0537   25.0617 C   0  0  0  0  0  0  0  0  0  0  0  0
    8.2290    3.4325   25.1470 C   0  0  0  0  0  0  0  0  0  0  0  0
    7.0241    4.0055   25.0367 N   0  0  0  0  0  0  0  0  0  0  0  0
    5.9546    3.2308   24.8363 N   0  0  0  0  0  0  0  0  0  0  0  0
    6.0752    1.9045   24.7606 C   0  0  0  0  0  0  0  0  0  0  0  0
    5.1502    1.3661   24.6034 H   0  0  0  0  0  0  0  0  0  0  0  0
    9.0546    4.1110   25.3097 H   0  0  0  0  0  0  0  0  0  0  0  0
    9.4302    1.6261   25.1931 H   0  0  0  0  0  0  0  0  0  0  0  0
    9.7969    0.3920   23.3131 H   0  0  0  0  0  0  0  0  0  0  0  0
    9.7009   -1.1563   22.4841 H   0  0  0  0  0  0  0  0  0  0  0  0
    7.7088    1.1551   22.1111 H   0  0  0  0  0  0  0  0  0  0  0  0
    9.0141    0.7639   21.0122 H   0  0  0  0  0  0  0  0  0  0  0  0
    6.7007   -1.1320   21.7102 H   0  0  0  0  0  0  0  0  0  0  0  0
    8.0127   -1.5001   20.6007 H   0  0  0  0  0  0  0  0  0  0  0  0
    5.4346    0.6479   20.1480 C   0  0  0  0  0  0  0  0  0  0  0  0
    5.0116    0.6368   21.1578 H   0  0  0  0  0  0  0  0  0  0  0  0
    8.1108   -0.4197   18.3606 H   0  0  0  0  0  0  0  0  0  0  0  0
    4.9134    1.7870   16.9901 H   0  0  0  0  0  0  0  0  0  0  0  0
    3.8693    1.8475   19.2547 H   0  0  0  0  0  0  0  0  0  0  0  0
  1  2  2  0
  2  3  1  0
  3  4  2  0
  4  5  1  0
  5  6  1  0
  6  7  1  0
  7  8  1  0
  8  9  1  0
  9 10  2  0
 10 11  1  0
 11 12  1  0
 12 13  1  0
 13 14  1  0
 14 15  1  0
 15 16  1  0
 16 17  1  0
 16 18  1  0
 15 19  1  0
 15 20  1  0
 14 21  1  0
 14 22  1  0
 13 23  1  0
 13 24  1  0
 12 25  1  0
 11 26  2  0
 26 27  1  0
 27 28  1  0
 28 29  2  0
 29 30  1  0
 30 31  2  0
 31 32  1  0
 32 33  2  0
 33 34  1  0
 30 35  1  0
 29 36  1  0
  8 37  1  0
  8 38  1  0
  7 39  1  0
  7 40  1  0
  6 41  1  0
  6 42  1  0
  5 43  2  0
 43 44  1  0
  4 45  1  0
  2 46  1  0
  1 47  1  0
 43  1  1  0
 27  9  1  0
 33 28  1  0
 16 12  1  0
M  END
>  <cnnaffinity>  (1) 
-5.85487

>  <filename>  (1) 
c1cncc(CCCc2nc(C3CCCC3)nn2-c2ccnnc2)c1

$$$$
