
     RDKit          3D

 37 40  0  0  0  0  0  0  0  0999 V2000
    5.0063    1.8441   17.0237 H   0  0  0  0  0  0  0  0  0  0  0  0
    5.5039    1.3056   17.8276 C   0  0  0  0  0  0  0  0  0  0  0  0
    6.6601    0.7056   17.5071 N   0  0  0  0  0  0  0  0  0  0  0  0
    7.3170    0.0427   18.4700 C   0  0  0  0  0  0  0  0  0  0  0  0
    8.2532   -0.4290   18.1676 H   0  0  0  0  0  0  0  0  0  0  0  0
    6.8366   -0.0789   19.7903 C   0  0  0  0  0  0  0  0  0  0  0  0
    7.5169   -0.8743   20.7549 N   0  0  0  0  0  0  0  0  0  0  0  0
    8.8689   -0.8189   21.0905 C   0  0  0  0  0  0  0  0  0  0  0  0
    9.5119   -0.1122   20.5920 H   0  0  0  0  0  0  0  0  0  0  0  0
    9.1258   -1.7150   22.0856 C   0  0  0  0  0  0  0  0  0  0  0  0
   10.0087   -1.9368   22.6582 H   0  0  0  0  0  0  0  0  0  0  0  0
    7.9258   -2.3516   22.3508 N   0  0  0  0  0  0  0  0  0  0  0  0
    7.5039   -3.3345   23.1986 N   0  0  0  0  0  0  0  0  0  0  0  0
    6.1978   -3.4104   22.9044 C   0  0  0  0  0  0  0  0  0  0  0  0
    5.3324   -4.3093   23.4989 N   0  0  0  0  0  0  0  0  0  0  0  0
    3.9219   -4.2636   23.1196 C   0  0  0  0  0  0  0  0  0  0  0  0
    3.8241   -3.9112   22.0932 H   0  0  0  0  0  0  0  0  0  0  0  0
    3.3774   -3.5588   23.7743 H   0  0  0  0  0  0  0  0  0  0  0  0
    3.2921   -5.6482   23.1739 C   0  0  0  0  0  0  0  0  0  0  0  0
    2.2354   -5.5749   22.8915 H   0  0  0  0  0  0  0  0  0  0  0  0
    3.7878   -6.2557   22.4079 H   0  0  0  0  0  0  0  0  0  0  0  0
    3.4656   -6.2891   24.5485 C   0  0  0  0  0  0  0  0  0  0  0  0
    2.8656   -5.7400   25.2868 H   0  0  0  0  0  0  0  0  0  0  0  0
    3.0858   -7.3185   24.5323 H   0  0  0  0  0  0  0  0  0  0  0  0
    4.9446   -6.2439   24.9598 C   0  0  0  0  0  0  0  0  0  0  0  0
    5.0652   -6.6217   25.9823 H   0  0  0  0  0  0  0  0  0  0  0  0
    5.5160   -6.8822   24.2800 H   0  0  0  0  0  0  0  0  0  0  0  0
    5.5350   -4.8286   24.8559 C   0  0  0  0  0  0  0  0  0  0  0  0
    6.6013   -4.8089   25.1048 H   0  0  0  0  0  0  0  0  0  0  0  0
    5.0139   -4.1831   25.5858 H   0  0  0  0  0  0  0  0  0  0  0  0
    5.7916   -2.5149   21.8805 C   0  0  0  0  0  0  0  0  0  0  0  0
    4.7870   -2.3330   21.5892 H   0  0  0  0  0  0  0  0  0  0  0  0
    6.9515   -1.8480   21.5612 C   0  0  0  0  0  0  0  0  0  0  0  0
    5.6340    0.5686   20.1159 C   0  0  0  0  0  0  0  0  0  0  0  0
    5.2564    0.5386   21.1388 H   0  0  0  0  0  0  0  0  0  0  0  0
    4.9573    1.2702   19.1147 C   0  0  0  0  0  0  0  0  0  0  0  0
    4.0348    1.8026   19.3216 H   0  0  0  0  0  0  0  0  0  0  0  0
  1  2  1  0
  2  3  2  0
  3  4  1  0
  4  5  1  0
  4  6  2  0
  6  7  1  0
  7  8  1  0
  8  9  1  0
  8 10  2  0
 10 11  1  0
 10 12  1  0
 12 13  1  0
 13 14  2  0
 14 15  1  0
 15 16  1  0
 16 17  1  0
 16 18  1  0
 16 19  1  0
 19 20  1  0
 19 21  1  0
 19 22  1  0
 22 23  1  0
 22 24  1  0
 22 25  1  0
 25 26  1  0
 25 27  1  0
 25 28  1  0
 28 29  1  0
 28 30  1  0
 14 31  1  0
 31 32  1  0
 31 33  2  0
  6 34  1  0
 34 35  1  0
 34 36  2  0
 36 37  1  0
 36  2  1  0
 33  7  1  0
 33 12  1  0
 28 15  1  0
M  END
>  <cnnaffinity>  (1) 
-5.21227

>  <filename>  (1) 
c1cncc(-n2ccn3nc(N4CCCCC4)cc23)c1

$$$$
