
     RDKit          3D

 27 29  0  0  0  0  0  0  0  0999 V2000
    4.9145    1.7793   16.9988 H   0  0  0  0  0  0  0  0  0  0  0  0
    5.4021    1.2930   17.8423 C   0  0  0  0  0  0  0  0  0  0  0  0
    6.5705    0.6792   17.5843 N   0  0  0  0  0  0  0  0  0  0  0  0
    7.1804    0.0508   18.5923 C   0  0  0  0  0  0  0  0  0  0  0  0
    8.1287   -0.4388   18.3780 H   0  0  0  0  0  0  0  0  0  0  0  0
    6.6537    0.0129   19.8967 C   0  0  0  0  0  0  0  0  0  0  0  0
    7.3578   -0.6472   20.9495 N   0  0  0  0  0  0  0  0  0  0  0  0
    7.9856   -1.8334   20.7414 N   0  0  0  0  0  0  0  0  0  0  0  0
    8.4680   -2.1997   21.8636 N   0  0  0  0  0  0  0  0  0  0  0  0
    8.1922   -1.3104   22.8440 N   0  0  0  0  0  0  0  0  0  0  0  0
    7.5198   -0.3398   22.2667 C   0  0  0  0  0  0  0  0  0  0  0  0
    7.0878    0.8144   22.8607 N   0  0  0  0  0  0  0  0  0  0  0  0
    7.0194    1.6148   22.2580 H   0  0  0  0  0  0  0  0  0  0  0  0
    6.9931    1.0391   24.2249 C   0  0  0  0  0  0  0  0  0  0  0  0
    6.6511    0.0031   25.0879 C   0  0  0  0  0  0  0  0  0  0  0  0
    6.4731   -0.9919   24.7039 H   0  0  0  0  0  0  0  0  0  0  0  0
    6.5526    0.2898   26.4395 C   0  0  0  0  0  0  0  0  0  0  0  0
    6.2963   -0.5012   27.1352 H   0  0  0  0  0  0  0  0  0  0  0  0
    6.7542    1.5015   26.9741 N   0  0  0  0  0  0  0  0  0  0  0  0
    7.0700    2.4824   26.1214 C   0  0  0  0  0  0  0  0  0  0  0  0
    7.2241    3.4593   26.5689 H   0  0  0  0  0  0  0  0  0  0  0  0
    7.1919    2.3156   24.7459 C   0  0  0  0  0  0  0  0  0  0  0  0
    7.4476    3.1565   24.1139 H   0  0  0  0  0  0  0  0  0  0  0  0
    5.4396    0.6501   20.1649 C   0  0  0  0  0  0  0  0  0  0  0  0
    5.0018    0.6229   21.1641 H   0  0  0  0  0  0  0  0  0  0  0  0
    4.8063    1.3074   19.1067 C   0  0  0  0  0  0  0  0  0  0  0  0
    3.8760    1.8411   19.2634 H   0  0  0  0  0  0  0  0  0  0  0  0
  1  2  1  0
  2  3  2  0
  3  4  1  0
  4  5  1  0
  4  6  2  0
  6  7  1  0
  7  8  1  0
  8  9  2  0
  9 10  1  0
 10 11  2  0
 11 12  1  0
 12 13  1  0
 12 14  1  0
 14 15  2  0
 15 16  1  0
 15 17  1  0
 17 18  1  0
 17 19  2  0
 19 20  1  0
 20 21  1  0
 20 22  2  0
 22 23  1  0
  6 24  1  0
 24 25  1  0
 24 26  2  0
 26 27  1  0
 26  2  1  0
 11  7  1  0
 22 14  1  0
M  END
>  <cnnaffinity>  (1) 
-4.9423

>  <filename>  (1) 
c1cncc(-n2nnnc2Nc2ccncc2)c1

$$$$
