
     RDKit          3D

 38 41  0  0  0  0  0  0  0  0999 V2000
    4.7896    1.3393   18.9910 C   0  0  0  0  0  0  0  0  0  0  0  0
    5.4207    1.3077   17.7434 C   0  0  0  0  0  0  0  0  0  0  0  0
    6.5607    0.6290   17.5163 N   0  0  0  0  0  0  0  0  0  0  0  0
    7.1291   -0.0035   18.5487 C   0  0  0  0  0  0  0  0  0  0  0  0
    6.6087    0.0442   19.8542 C   0  0  0  0  0  0  0  0  0  0  0  0
    7.2867   -0.5786   20.9326 N   0  0  0  0  0  0  0  0  0  0  0  0
    7.8098   -1.8322   20.8031 N   0  0  0  0  0  0  0  0  0  0  0  0
    8.1277   -2.1297   22.0434 C   0  0  0  0  0  0  0  0  0  0  0  0
    8.9308   -3.3172   22.4149 C   0  0  0  0  0  0  0  0  0  0  0  0
   10.2683   -2.9320   23.1054 C   0  0  0  0  0  0  0  0  0  0  0  0
    9.9873   -4.1056   24.4660 S   0  0  0  0  0  0  0  0  0  0  0  0
    8.4021   -4.2061   23.5596 C   0  0  0  0  0  0  0  0  0  0  0  0
    7.5622   -3.7483   24.0879 H   0  0  0  0  0  0  0  0  0  0  0  0
    8.1474   -5.2272   23.2652 H   0  0  0  0  0  0  0  0  0  0  0  0
   11.1683   -3.1289   22.5217 H   0  0  0  0  0  0  0  0  0  0  0  0
   10.2659   -1.9053   23.4905 H   0  0  0  0  0  0  0  0  0  0  0  0
    9.0289   -3.8782   21.4928 H   0  0  0  0  0  0  0  0  0  0  0  0
    7.8268   -1.1909   22.9644 N   0  0  0  0  0  0  0  0  0  0  0  0
    7.3988   -0.1774   22.2415 C   0  0  0  0  0  0  0  0  0  0  0  0
    7.2547    1.2159   22.7937 C   0  0  0  0  0  0  0  0  0  0  0  0
    8.3554    1.6396   23.8117 C   0  0  0  0  0  0  0  0  0  0  0  0
    8.3647    0.8903   25.1236 C   0  0  0  0  0  0  0  0  0  0  0  0
    7.3730    0.7790   26.0594 C   0  0  0  0  0  0  0  0  0  0  0  0
    7.8630   -0.0720   27.0240 N   0  0  0  0  0  0  0  0  0  0  0  0
    9.1137   -0.4356   26.6389 C   0  0  0  0  0  0  0  0  0  0  0  0
    9.4504    0.1391   25.5151 N   0  0  0  0  0  0  0  0  0  0  0  0
    9.7273   -1.1366   27.1971 H   0  0  0  0  0  0  0  0  0  0  0  0
    7.3736   -0.4106   27.8367 H   0  0  0  0  0  0  0  0  0  0  0  0
    6.3875    1.2224   26.1198 H   0  0  0  0  0  0  0  0  0  0  0  0
    8.2440    2.7150   24.0086 H   0  0  0  0  0  0  0  0  0  0  0  0
    9.3453    1.5144   23.3581 H   0  0  0  0  0  0  0  0  0  0  0  0
    7.2487    1.9410   21.9756 H   0  0  0  0  0  0  0  0  0  0  0  0
    6.2725    1.2940   23.2748 H   0  0  0  0  0  0  0  0  0  0  0  0
    5.3882    0.6929   20.0732 C   0  0  0  0  0  0  0  0  0  0  0  0
    4.9131    0.6638   21.0555 H   0  0  0  0  0  0  0  0  0  0  0  0
    8.0286   -0.5793   18.3429 H   0  0  0  0  0  0  0  0  0  0  0  0
    4.9982    1.8466   16.8966 H   0  0  0  0  0  0  0  0  0  0  0  0
    3.8567    1.8771   19.1105 H   0  0  0  0  0  0  0  0  0  0  0  0
  1  2  2  0
  2  3  1  0
  3  4  2  0
  4  5  1  0
  5  6  1  0
  6  7  1  0
  7  8  2  0
  8  9  1  0
  9 10  1  0
 10 11  1  0
 11 12  1  0
 12 13  1  0
 12 14  1  0
 10 15  1  0
 10 16  1  0
  9 17  1  0
  8 18  1  0
 18 19  2  0
 19 20  1  0
 20 21  1  0
 21 22  1  0
 22 23  2  0
 23 24  1  0
 24 25  1  0
 25 26  2  0
 25 27  1  0
 24 28  1  0
 23 29  1  0
 21 30  1  0
 21 31  1  0
 20 32  1  0
 20 33  1  0
  5 34  2  0
 34 35  1  0
  4 36  1  0
  2 37  1  0
  1 38  1  0
 34  1  1  0
 19  6  1  0
 26 22  1  0
 12  9  1  0
M  END
>  <cnnaffinity>  (1) 
-5.84244

>  <filename>  (1) 
c1cncc(-n2nc(C3CSC3)nc2CCc2c[nH]cn2)c1

$$$$
