
     RDKit          3D

 40 43  0  0  0  0  0  0  0  0999 V2000
    5.0459    1.2331   19.2320 C   0  0  0  0  0  0  0  0  0  0  0  0
    5.6094    1.1965   17.9536 C   0  0  0  0  0  0  0  0  0  0  0  0
    6.7513    0.5497   17.6812 N   0  0  0  0  0  0  0  0  0  0  0  0
    7.3698   -0.0736   18.6928 C   0  0  0  0  0  0  0  0  0  0  0  0
    6.8846   -0.1002   20.0126 C   0  0  0  0  0  0  0  0  0  0  0  0
    7.5450   -0.8418   21.0460 N   0  0  0  0  0  0  0  0  0  0  0  0
    6.8500   -1.8079   21.7097 N   0  0  0  0  0  0  0  0  0  0  0  0
    7.7153   -2.2303   22.6154 C   0  0  0  0  0  0  0  0  0  0  0  0
    7.3808   -3.2424   23.6640 C   0  0  0  0  0  0  0  0  0  0  0  0
    6.7882   -4.5685   23.1541 C   0  0  0  0  0  0  0  0  0  0  0  0
    6.2048   -5.2202   24.4201 C   0  0  0  0  0  0  0  0  0  0  0  0
    5.8219   -4.0557   25.3690 C   0  0  0  0  0  0  0  0  0  0  0  0
    6.3108   -2.7689   24.6781 C   0  0  0  0  0  0  0  0  0  0  0  0
    5.4856   -2.3031   24.1240 H   0  0  0  0  0  0  0  0  0  0  0  0
    6.7036   -2.0238   25.3802 H   0  0  0  0  0  0  0  0  0  0  0  0
    4.7427   -4.0091   25.5501 H   0  0  0  0  0  0  0  0  0  0  0  0
    6.3009   -4.1901   26.3468 H   0  0  0  0  0  0  0  0  0  0  0  0
    5.3527   -5.8669   24.1849 H   0  0  0  0  0  0  0  0  0  0  0  0
    6.9612   -5.8527   24.9017 H   0  0  0  0  0  0  0  0  0  0  0  0
    7.5391   -5.1967   22.6595 H   0  0  0  0  0  0  0  0  0  0  0  0
    5.9966   -4.3474   22.4227 H   0  0  0  0  0  0  0  0  0  0  0  0
    8.3289   -3.4259   24.1863 H   0  0  0  0  0  0  0  0  0  0  0  0
    8.9193   -1.5998   22.5903 N   0  0  0  0  0  0  0  0  0  0  0  0
    8.7824   -0.7269   21.6174 C   0  0  0  0  0  0  0  0  0  0  0  0
    9.7544    0.3654   21.2794 C   0  0  0  0  0  0  0  0  0  0  0  0
    9.2943    1.6880   21.8515 C   0  0  0  0  0  0  0  0  0  0  0  0
    8.3635    2.5112   21.2860 C   0  0  0  0  0  0  0  0  0  0  0  0
    8.0952    3.4743   22.1955 N   0  0  0  0  0  0  0  0  0  0  0  0
    8.7829    3.3323   23.3340 N   0  0  0  0  0  0  0  0  0  0  0  0
    9.5189    2.2439   23.1339 C   0  0  0  0  0  0  0  0  0  0  0  0
   10.1644    1.8602   23.9124 H   0  0  0  0  0  0  0  0  0  0  0  0
    7.4099    4.2085   22.1186 H   0  0  0  0  0  0  0  0  0  0  0  0
    7.8880    2.4492   20.3230 H   0  0  0  0  0  0  0  0  0  0  0  0
    9.8092    0.4195   20.1915 H   0  0  0  0  0  0  0  0  0  0  0  0
   10.7482    0.0797   21.6408 H   0  0  0  0  0  0  0  0  0  0  0  0
    5.6836    0.5697   20.2830 C   0  0  0  0  0  0  0  0  0  0  0  0
    5.2629    0.5560   21.2895 H   0  0  0  0  0  0  0  0  0  0  0  0
    8.2923   -0.5937   18.4402 H   0  0  0  0  0  0  0  0  0  0  0  0
    5.1330    1.7081   17.1208 H   0  0  0  0  0  0  0  0  0  0  0  0
    4.1205    1.7716   19.3868 H   0  0  0  0  0  0  0  0  0  0  0  0
  1  2  2  0
  2  3  1  0
  3  4  2  0
  4  5  1  0
  5  6  1  0
  6  7  1  0
  7  8  2  0
  8  9  1  0
  9 10  1  0
 10 11  1  0
 11 12  1  0
 12 13  1  0
 13 14  1  0
 13 15  1  0
 12 16  1  0
 12 17  1  0
 11 18  1  0
 11 19  1  0
 10 20  1  0
 10 21  1  0
  9 22  1  0
  8 23  1  0
 23 24  2  0
 24 25  1  0
 25 26  1  0
 26 27  2  0
 27 28  1  0
 28 29  1  0
 29 30  2  0
 30 31  1  0
 28 32  1  0
 27 33  1  0
 25 34  1  0
 25 35  1  0
  5 36  2  0
 36 37  1  0
  4 38  1  0
  2 39  1  0
  1 40  1  0
 36  1  1  0
 24  6  1  0
 30 26  1  0
 13  9  1  0
M  END
>  <cnnaffinity>  (1) 
-5.87544

>  <filename>  (1) 
c1cncc(-n2nc(C3CCCC3)nc2Cc2cn[nH]c2)c1

$$$$
