
     RDKit          3D

 50 53  0  0  0  0  0  0  0  0999 V2000
    4.9407    1.8066   16.9782 H   0  0  0  0  0  0  0  0  0  0  0  0
    5.4001    1.2902   17.8181 C   0  0  0  0  0  0  0  0  0  0  0  0
    6.5601    0.6629   17.5634 N   0  0  0  0  0  0  0  0  0  0  0  0
    7.1608    0.0333   18.5773 C   0  0  0  0  0  0  0  0  0  0  0  0
    8.1116   -0.4424   18.3354 H   0  0  0  0  0  0  0  0  0  0  0  0
    6.6388   -0.0055   19.8866 C   0  0  0  0  0  0  0  0  0  0  0  0
    7.3691   -0.6503   20.9826 C   0  0  0  0  0  0  0  0  0  0  0  0
    8.2596   -1.6204   20.7504 N   0  0  0  0  0  0  0  0  0  0  0  0
    8.7300   -1.9088   21.9563 N   0  0  0  0  0  0  0  0  0  0  0  0
    8.2309   -1.1966   22.9696 C   0  0  0  0  0  0  0  0  0  0  0  0
    7.3247   -0.3347   22.3831 C   0  0  0  0  0  0  0  0  0  0  0  0
    6.5996    0.6694   22.9331 O   0  0  0  0  0  0  0  0  0  0  0  0
    6.7500    0.8657   24.3371 C   0  0  0  0  0  0  0  0  0  0  0  0
    7.7991    1.0942   24.5682 H   0  0  0  0  0  0  0  0  0  0  0  0
    6.4862   -0.0674   24.8576 H   0  0  0  0  0  0  0  0  0  0  0  0
    5.8429    2.0111   24.7197 C   0  0  0  0  0  0  0  0  0  0  0  0
    6.1031    2.8797   24.0989 H   0  0  0  0  0  0  0  0  0  0  0  0
    6.0209    2.2727   25.7688 H   0  0  0  0  0  0  0  0  0  0  0  0
    4.3642    1.6767   24.4873 C   0  0  0  0  0  0  0  0  0  0  0  0
    4.0643    0.8353   25.1338 H   0  0  0  0  0  0  0  0  0  0  0  0
    4.2625    1.3287   23.4504 H   0  0  0  0  0  0  0  0  0  0  0  0
    3.4333    2.7738   24.7087 N   0  0  0  0  0  0  0  0  0  0  0  0
    3.4311    3.3014   26.0784 C   0  0  0  0  0  0  0  0  0  0  0  0
    4.3612    3.8636   26.3161 H   0  0  0  0  0  0  0  0  0  0  0  0
    3.3798    2.4521   26.7751 H   0  0  0  0  0  0  0  0  0  0  0  0
    2.2343    4.2361   26.3024 C   0  0  0  0  0  0  0  0  0  0  0  0
    2.2823    4.6342   27.3249 H   0  0  0  0  0  0  0  0  0  0  0  0
    1.3063    3.6515   26.2243 H   0  0  0  0  0  0  0  0  0  0  0  0
    2.2256    5.3763   25.2678 C   0  0  0  0  0  0  0  0  0  0  0  0
    3.0819    6.0469   25.4491 H   0  0  0  0  0  0  0  0  0  0  0  0
    1.3283    5.9983   25.3806 H   0  0  0  0  0  0  0  0  0  0  0  0
    2.3154    4.7975   23.8440 C   0  0  0  0  0  0  0  0  0  0  0  0
    2.4174    5.5978   23.0991 H   0  0  0  0  0  0  0  0  0  0  0  0
    1.3947    4.2459   23.6059 H   0  0  0  0  0  0  0  0  0  0  0  0
    3.5105    3.8431   23.7100 C   0  0  0  0  0  0  0  0  0  0  0  0
    4.4490    4.4353   23.7953 H   0  0  0  0  0  0  0  0  0  0  0  0
    3.5144    3.3780   22.7139 H   0  0  0  0  0  0  0  0  0  0  0  0
    8.9545   -1.5164   24.2487 C   0  0  0  0  0  0  0  0  0  0  0  0
    8.2800   -1.8215   25.0592 H   0  0  0  0  0  0  0  0  0  0  0  0
    9.4929   -0.6243   24.5968 H   0  0  0  0  0  0  0  0  0  0  0  0
    9.9306   -2.6514   23.8230 C   0  0  0  0  0  0  0  0  0  0  0  0
    9.7367   -3.5839   24.3492 H   0  0  0  0  0  0  0  0  0  0  0  0
   10.9568   -2.3746   24.0286 H   0  0  0  0  0  0  0  0  0  0  0  0
    9.7215   -2.8848   22.3050 C   0  0  0  0  0  0  0  0  0  0  0  0
    9.3117   -3.8783   22.1154 H   0  0  0  0  0  0  0  0  0  0  0  0
   10.6160   -2.7240   21.6998 H   0  0  0  0  0  0  0  0  0  0  0  0
    5.4229    0.6523   20.1288 C   0  0  0  0  0  0  0  0  0  0  0  0
    5.0131    0.6640   21.1387 H   0  0  0  0  0  0  0  0  0  0  0  0
    4.7914    1.3050   19.0779 C   0  0  0  0  0  0  0  0  0  0  0  0
    3.8623    1.8458   19.2290 H   0  0  0  0  0  0  0  0  0  0  0  0
  1  2  1  0
  2  3  2  0
  3  4  1  0
  4  5  1  0
  4  6  2  0
  6  7  1  0
  7  8  2  0
  8  9  1  0
  9 10  1  0
 10 11  2  0
 11 12  1  0
 12 13  1  0
 13 14  1  0
 13 15  1  0
 13 16  1  0
 16 17  1  0
 16 18  1  0
 16 19  1  0
 19 20  1  0
 19 21  1  0
 19 22  1  0
 22 23  1  0
 23 24  1  0
 23 25  1  0
 23 26  1  0
 26 27  1  0
 26 28  1  0
 26 29  1  0
 29 30  1  0
 29 31  1  0
 29 32  1  0
 32 33  1  0
 32 34  1  0
 32 35  1  0
 35 36  1  0
 35 37  1  0
 10 38  1  0
 38 39  1  0
 38 40  1  0
 38 41  1  0
 41 42  1  0
 41 43  1  0
 41 44  1  0
 44 45  1  0
 44 46  1  0
  6 47  1  0
 47 48  1  0
 47 49  2  0
 49 50  1  0
 49  2  1  0
 11  7  1  0
 35 22  1  0
 44  9  1  0
M  END
>  <cnnaffinity>  (1) 
-5.15045

>  <filename>  (1) 
c1cncc(-c2nn3c(c2OCCCN2CCCCC2)CCC3)c1

$$$$
