
     RDKit          3D

 31 34  0  0  0  0  0  0  0  0999 V2000
    4.9110    1.9530   16.7544 H   0  0  0  0  0  0  0  0  0  0  0  0
    5.3753    1.4188   17.5835 C   0  0  0  0  0  0  0  0  0  0  0  0
    6.5207    0.7834   17.2964 N   0  0  0  0  0  0  0  0  0  0  0  0
    7.1319    0.1331   18.2877 C   0  0  0  0  0  0  0  0  0  0  0  0
    8.0529   -0.3700   17.9836 H   0  0  0  0  0  0  0  0  0  0  0  0
    6.6486    0.0751   19.6037 C   0  0  0  0  0  0  0  0  0  0  0  0
    7.3834   -0.6487   20.6442 C   0  0  0  0  0  0  0  0  0  0  0  0
    7.0173   -0.7912   21.8931 N   0  0  0  0  0  0  0  0  0  0  0  0
    7.9905   -1.5525   22.4654 C   0  0  0  0  0  0  0  0  0  0  0  0
    7.9053   -1.8823   23.9068 C   0  0  0  0  0  0  0  0  0  0  0  0
    6.8737   -1.3313   24.6822 C   0  0  0  0  0  0  0  0  0  0  0  0
    6.1122   -0.7381   24.1825 H   0  0  0  0  0  0  0  0  0  0  0  0
    6.8057   -1.5340   26.0703 C   0  0  0  0  0  0  0  0  0  0  0  0
    5.9974   -1.0697   26.6300 H   0  0  0  0  0  0  0  0  0  0  0  0
    7.7315   -2.3415   26.7242 C   0  0  0  0  0  0  0  0  0  0  0  0
    7.6954   -2.4803   27.7955 H   0  0  0  0  0  0  0  0  0  0  0  0
    8.7247   -2.9580   25.9454 C   0  0  0  0  0  0  0  0  0  0  0  0
    8.8437   -2.7296   24.5514 C   0  0  0  0  0  0  0  0  0  0  0  0
    9.9508   -3.5192   24.0914 C   0  0  0  0  0  0  0  0  0  0  0  0
   10.2997   -3.4956   23.0712 H   0  0  0  0  0  0  0  0  0  0  0  0
   10.4381   -4.2014   25.1659 C   0  0  0  0  0  0  0  0  0  0  0  0
   11.2350   -4.9324   25.2397 H   0  0  0  0  0  0  0  0  0  0  0  0
    9.7024   -3.8629   26.2814 N   0  0  0  0  0  0  0  0  0  0  0  0
    9.8544   -4.2453   27.1978 H   0  0  0  0  0  0  0  0  0  0  0  0
    8.9558   -1.8916   21.6145 N   0  0  0  0  0  0  0  0  0  0  0  0
    8.5493   -1.3030   20.4675 N   0  0  0  0  0  0  0  0  0  0  0  0
    9.1036   -1.3791   19.6313 H   0  0  0  0  0  0  0  0  0  0  0  0
    5.4313    0.7244   19.8907 C   0  0  0  0  0  0  0  0  0  0  0  0
    5.0020    0.6950   20.8977 H   0  0  0  0  0  0  0  0  0  0  0  0
    4.7921    1.4064   18.8563 C   0  0  0  0  0  0  0  0  0  0  0  0
    3.8590    1.9348   19.0100 H   0  0  0  0  0  0  0  0  0  0  0  0
  1  2  1  0
  2  3  2  0
  3  4  1  0
  4  5  1  0
  4  6  2  0
  6  7  1  0
  7  8  2  0
  8  9  1  0
  9 10  1  0
 10 11  2  0
 11 12  1  0
 11 13  1  0
 13 14  1  0
 13 15  2  0
 15 16  1  0
 15 17  1  0
 17 18  2  0
 18 19  1  0
 19 20  1  0
 19 21  2  0
 21 22  1  0
 21 23  1  0
 23 24  1  0
  9 25  2  0
 25 26  1  0
 26 27  1  0
  6 28  1  0
 28 29  1  0
 28 30  2  0
 30 31  1  0
 30  2  1  0
 26  7  1  0
 18 10  1  0
 23 17  1  0
M  END
>  <cnnaffinity>  (1) 
-5.00646

>  <filename>  (1) 
c1cncc(-c2nc(-c3cccc4[nH]ccc34)n[nH]2)c1

$$$$
