
     RDKit          3D

 37 39  0  0  0  0  0  0  0  0999 V2000
    4.9459    1.8556   17.0046 H   0  0  0  0  0  0  0  0  0  0  0  0
    5.4115    1.3068   17.8198 C   0  0  0  0  0  0  0  0  0  0  0  0
    6.5617    0.6752   17.5353 N   0  0  0  0  0  0  0  0  0  0  0  0
    7.1623    0.0074   18.5338 C   0  0  0  0  0  0  0  0  0  0  0  0
    8.0975   -0.4895   18.2871 H   0  0  0  0  0  0  0  0  0  0  0  0
    6.6619   -0.0779   19.8582 C   0  0  0  0  0  0  0  0  0  0  0  0
    7.3053   -0.7983   20.8862 N   0  0  0  0  0  0  0  0  0  0  0  0
    6.7558   -0.8403   21.7375 H   0  0  0  0  0  0  0  0  0  0  0  0
    8.6928   -0.7250   21.1481 C   0  0  0  0  0  0  0  0  0  0  0  0
    9.6582    0.2114   20.7061 C   0  0  0  0  0  0  0  0  0  0  0  0
    9.4836    1.0859   20.0948 H   0  0  0  0  0  0  0  0  0  0  0  0
   10.8734   -0.0703   21.1675 N   0  0  0  0  0  0  0  0  0  0  0  0
   10.6906   -1.1686   21.9158 N   0  0  0  0  0  0  0  0  0  0  0  0
   11.4995   -1.6099   22.3396 H   0  0  0  0  0  0  0  0  0  0  0  0
    9.3945   -1.5869   21.9724 C   0  0  0  0  0  0  0  0  0  0  0  0
    8.9398   -2.6671   22.9117 C   0  0  0  0  0  0  0  0  0  0  0  0
    9.7260   -3.4382   22.9739 H   0  0  0  0  0  0  0  0  0  0  0  0
    8.0563   -3.1547   22.4837 H   0  0  0  0  0  0  0  0  0  0  0  0
    8.6081   -2.2518   24.2767 N   0  0  0  0  0  0  0  0  0  0  0  0
    7.4900   -1.2936   24.3685 C   0  0  0  0  0  0  0  0  0  0  0  0
    7.7504   -0.3068   23.9402 H   0  0  0  0  0  0  0  0  0  0  0  0
    6.6266   -1.6860   23.8179 H   0  0  0  0  0  0  0  0  0  0  0  0
    7.0891   -1.0796   25.8363 C   0  0  0  0  0  0  0  0  0  0  0  0
    6.2611   -0.3624   25.8683 H   0  0  0  0  0  0  0  0  0  0  0  0
    6.7312   -2.0450   26.2431 H   0  0  0  0  0  0  0  0  0  0  0  0
    8.2322   -0.5282   26.5770 N   0  0  0  0  0  0  0  0  0  0  0  0
    7.9846   -0.3091   27.5385 H   0  0  0  0  0  0  0  0  0  0  0  0
    9.3735   -1.4541   26.5212 C   0  0  0  0  0  0  0  0  0  0  0  0
   10.2265   -0.9642   27.0064 H   0  0  0  0  0  0  0  0  0  0  0  0
    9.1959   -2.4118   27.0434 H   0  0  0  0  0  0  0  0  0  0  0  0
    9.7515   -1.7384   25.0521 C   0  0  0  0  0  0  0  0  0  0  0  0
   10.5506   -2.4871   24.9823 H   0  0  0  0  0  0  0  0  0  0  0  0
   10.1520   -0.7939   24.6500 H   0  0  0  0  0  0  0  0  0  0  0  0
    5.4472    0.5713   20.1230 C   0  0  0  0  0  0  0  0  0  0  0  0
    5.0203    0.5544   21.1280 H   0  0  0  0  0  0  0  0  0  0  0  0
    4.8204    1.2741   19.0890 C   0  0  0  0  0  0  0  0  0  0  0  0
    3.8913    1.8060   19.2572 H   0  0  0  0  0  0  0  0  0  0  0  0
  1  2  1  0
  2  3  2  0
  3  4  1  0
  4  5  1  0
  4  6  2  0
  6  7  1  0
  7  8  1  0
  7  9  1  0
  9 10  1  0
 10 11  1  0
 10 12  2  0
 12 13  1  0
 13 14  1  0
 13 15  1  0
 15 16  1  0
 16 17  1  0
 16 18  1  0
 16 19  1  0
 19 20  1  0
 20 21  1  0
 20 22  1  0
 20 23  1  0
 23 24  1  0
 23 25  1  0
 23 26  1  0
 26 27  1  0
 26 28  1  0
 28 29  1  0
 28 30  1  0
 28 31  1  0
 31 32  1  0
 31 33  1  0
  6 34  1  0
 34 35  1  0
 34 36  2  0
 36 37  1  0
 36  2  1  0
 15  9  2  0
 31 19  1  0
M  END
>  <cnnaffinity>  (1) 
-5.40115

>  <filename>  (1) 
c1cncc(Nc2cn[nH]c2CN2CCNCC2)c1

$$$$
