
     RDKit          3D

 44 47  0  0  0  0  0  0  0  0999 V2000
    8.5154    6.2474   23.1361 C   0  0  0  0  0  0  0  0  0  0  0  0
    7.6903    5.7348   22.1470 C   0  0  0  0  0  0  0  0  0  0  0  0
    7.7261    4.4616   21.7722 N   0  0  0  0  0  0  0  0  0  0  0  0
    8.6450    3.6846   22.3512 C   0  0  0  0  0  0  0  0  0  0  0  0
    8.7227    2.2611   21.8700 C   0  0  0  0  0  0  0  0  0  0  0  0
    7.7032    1.3537   22.6249 C   0  0  0  0  0  0  0  0  0  0  0  0
    7.6804   -0.0804   22.2015 C   0  0  0  0  0  0  0  0  0  0  0  0
    8.1427   -1.0728   22.9323 N   0  0  0  0  0  0  0  0  0  0  0  0
    8.1364   -2.1244   22.0747 C   0  0  0  0  0  0  0  0  0  0  0  0
    8.6644   -3.4809   22.4570 C   0  0  0  0  0  0  0  0  0  0  0  0
    8.7510   -3.7677   23.9710 C   0  0  0  0  0  0  0  0  0  0  0  0
    8.6287   -5.2987   24.1462 C   0  0  0  0  0  0  0  0  0  0  0  0
    8.2221   -5.8731   22.7717 C   0  0  0  0  0  0  0  0  0  0  0  0
    7.8395   -4.6637   21.9110 C   0  0  0  0  0  0  0  0  0  0  0  0
    6.7723   -4.4346   22.0282 H   0  0  0  0  0  0  0  0  0  0  0  0
    8.0141   -4.8353   20.8476 H   0  0  0  0  0  0  0  0  0  0  0  0
    7.3890   -6.5838   22.8399 H   0  0  0  0  0  0  0  0  0  0  0  0
    9.0702   -6.4089   22.3297 H   0  0  0  0  0  0  0  0  0  0  0  0
    7.8802   -5.5205   24.9132 H   0  0  0  0  0  0  0  0  0  0  0  0
    9.5607   -5.7562   24.4967 H   0  0  0  0  0  0  0  0  0  0  0  0
    7.9200   -3.2653   24.4740 H   0  0  0  0  0  0  0  0  0  0  0  0
    9.6773   -3.3772   24.4020 H   0  0  0  0  0  0  0  0  0  0  0  0
    9.6810   -3.4707   22.0535 H   0  0  0  0  0  0  0  0  0  0  0  0
    7.7034   -1.8432   20.8561 N   0  0  0  0  0  0  0  0  0  0  0  0
    7.3448   -0.5333   20.9575 N   0  0  0  0  0  0  0  0  0  0  0  0
    6.6312    0.0938   19.8908 C   0  0  0  0  0  0  0  0  0  0  0  0
    5.4147    0.7621   20.0993 C   0  0  0  0  0  0  0  0  0  0  0  0
    4.8061    1.3773   18.9990 C   0  0  0  0  0  0  0  0  0  0  0  0
    5.4313    1.3212   17.7518 C   0  0  0  0  0  0  0  0  0  0  0  0
    6.5660    0.6322   17.5351 N   0  0  0  0  0  0  0  0  0  0  0  0
    7.1315    0.0156   18.5787 C   0  0  0  0  0  0  0  0  0  0  0  0
    8.0195   -0.5747   18.3693 H   0  0  0  0  0  0  0  0  0  0  0  0
    5.0015    1.8374   16.8939 H   0  0  0  0  0  0  0  0  0  0  0  0
    3.8579    1.8939   19.1025 H   0  0  0  0  0  0  0  0  0  0  0  0
    4.9375    0.7673   21.0803 H   0  0  0  0  0  0  0  0  0  0  0  0
    7.9352    1.3588   23.6982 H   0  0  0  0  0  0  0  0  0  0  0  0
    6.6986    1.7733   22.4982 H   0  0  0  0  0  0  0  0  0  0  0  0
    8.5051    2.2630   20.7963 H   0  0  0  0  0  0  0  0  0  0  0  0
    9.7501    1.9067   22.0152 H   0  0  0  0  0  0  0  0  0  0  0  0
    9.4547    4.0612   23.3479 N   0  0  0  0  0  0  0  0  0  0  0  0
    9.3881    5.3383   23.7196 C   0  0  0  0  0  0  0  0  0  0  0  0
   10.0691    5.6495   24.5138 H   0  0  0  0  0  0  0  0  0  0  0  0
    6.9730    6.3672   21.6213 H   0  0  0  0  0  0  0  0  0  0  0  0
    8.4858    7.2880   23.4236 H   0  0  0  0  0  0  0  0  0  0  0  0
  1  2  2  0
  2  3  1  0
  3  4  2  0
  4  5  1  0
  5  6  1  0
  6  7  1  0
  7  8  2  0
  8  9  1  0
  9 10  1  0
 10 11  1  0
 11 12  1  0
 12 13  1  0
 13 14  1  0
 14 15  1  0
 14 16  1  0
 13 17  1  0
 13 18  1  0
 12 19  1  0
 12 20  1  0
 11 21  1  0
 11 22  1  0
 10 23  1  0
  9 24  2  0
 24 25  1  0
 25 26  1  0
 26 27  2  0
 27 28  1  0
 28 29  2  0
 29 30  1  0
 30 31  2  0
 31 32  1  0
 29 33  1  0
 28 34  1  0
 27 35  1  0
  6 36  1  0
  6 37  1  0
  5 38  1  0
  5 39  1  0
  4 40  1  0
 40 41  2  0
 41 42  1  0
  2 43  1  0
  1 44  1  0
 41  1  1  0
 25  7  1  0
 31 26  1  0
 14 10  1  0
M  END
>  <cnnaffinity>  (1) 
-6.10341

>  <filename>  (1) 
c1cnc(CCc2nc(C3CCCC3)nn2-c2cccnc2)nc1

$$$$
