
     RDKit          3D

 43 46  0  0  0  0  0  0  0  0999 V2000
    5.3383    2.5261   16.4480 H   0  0  0  0  0  0  0  0  0  0  0  0
    5.7904    1.9085   17.2192 C   0  0  0  0  0  0  0  0  0  0  0  0
    7.0209    1.4408   16.9517 N   0  0  0  0  0  0  0  0  0  0  0  0
    7.6277    0.7084   17.8967 C   0  0  0  0  0  0  0  0  0  0  0  0
    8.6320    0.3579   17.6638 H   0  0  0  0  0  0  0  0  0  0  0  0
    7.0405    0.3303   19.1313 C   0  0  0  0  0  0  0  0  0  0  0  0
    7.6692   -0.5554   20.0419 N   0  0  0  0  0  0  0  0  0  0  0  0
    6.9150   -1.6549   20.6272 C   0  0  0  0  0  0  0  0  0  0  0  0
    5.9960   -1.7929   20.0462 H   0  0  0  0  0  0  0  0  0  0  0  0
    7.4862   -2.5886   20.5188 H   0  0  0  0  0  0  0  0  0  0  0  0
    6.5652   -1.5013   22.1207 C   0  0  0  0  0  0  0  0  0  0  0  0
    6.2341   -0.4700   22.3145 H   0  0  0  0  0  0  0  0  0  0  0  0
    5.7023   -2.1318   22.3319 H   0  0  0  0  0  0  0  0  0  0  0  0
    7.6619   -1.8748   23.0189 N   0  0  0  0  0  0  0  0  0  0  0  0
    7.6355   -3.0453   23.7472 C   0  0  0  0  0  0  0  0  0  0  0  0
    8.4368   -3.1331   24.7893 N   0  0  0  0  0  0  0  0  0  0  0  0
    8.2936   -4.2234   25.5987 C   0  0  0  0  0  0  0  0  0  0  0  0
    9.1310   -4.3074   26.7446 C   0  0  0  0  0  0  0  0  0  0  0  0
    9.8477   -3.5113   26.8817 H   0  0  0  0  0  0  0  0  0  0  0  0
    9.0091   -5.3594   27.6263 C   0  0  0  0  0  0  0  0  0  0  0  0
    9.6690   -5.4455   28.4807 H   0  0  0  0  0  0  0  0  0  0  0  0
    8.0198   -6.3567   27.4255 C   0  0  0  0  0  0  0  0  0  0  0  0
    7.8991   -7.1343   28.1740 H   0  0  0  0  0  0  0  0  0  0  0  0
    7.2062   -6.3215   26.3164 C   0  0  0  0  0  0  0  0  0  0  0  0
    6.4562   -7.0964   26.1591 H   0  0  0  0  0  0  0  0  0  0  0  0
    7.3470   -5.2753   25.3632 C   0  0  0  0  0  0  0  0  0  0  0  0
    6.5780   -5.1952   24.1625 C   0  0  0  0  0  0  0  0  0  0  0  0
    5.8750   -5.9932   23.9163 H   0  0  0  0  0  0  0  0  0  0  0  0
    6.7267   -4.1027   23.3553 C   0  0  0  0  0  0  0  0  0  0  0  0
    6.2168   -4.0141   22.4071 H   0  0  0  0  0  0  0  0  0  0  0  0
    8.8220   -0.9938   23.1591 C   0  0  0  0  0  0  0  0  0  0  0  0
    8.7946   -0.5239   24.1553 H   0  0  0  0  0  0  0  0  0  0  0  0
    9.7273   -1.6168   23.1587 H   0  0  0  0  0  0  0  0  0  0  0  0
    8.9832    0.1159   22.1124 C   0  0  0  0  0  0  0  0  0  0  0  0
    9.9539    0.5846   22.3227 H   0  0  0  0  0  0  0  0  0  0  0  0
    8.2360    0.8986   22.2715 H   0  0  0  0  0  0  0  0  0  0  0  0
    8.9772   -0.2916   20.6280 C   0  0  0  0  0  0  0  0  0  0  0  0
    9.6095   -1.1845   20.5045 H   0  0  0  0  0  0  0  0  0  0  0  0
    9.4376    0.5101   20.0394 H   0  0  0  0  0  0  0  0  0  0  0  0
    5.7435    0.8288   19.3703 C   0  0  0  0  0  0  0  0  0  0  0  0
    5.2442    0.5805   20.3037 H   0  0  0  0  0  0  0  0  0  0  0  0
    5.1217    1.6387   18.4155 C   0  0  0  0  0  0  0  0  0  0  0  0
    4.1364    2.0625   18.5819 H   0  0  0  0  0  0  0  0  0  0  0  0
  1  2  1  0
  2  3  2  0
  3  4  1  0
  4  5  1  0
  4  6  2  0
  6  7  1  0
  7  8  1  0
  8  9  1  0
  8 10  1  0
  8 11  1  0
 11 12  1  0
 11 13  1  0
 11 14  1  0
 14 15  1  0
 15 16  2  0
 16 17  1  0
 17 18  2  0
 18 19  1  0
 18 20  1  0
 20 21  1  0
 20 22  2  0
 22 23  1  0
 22 24  1  0
 24 25  1  0
 24 26  2  0
 26 27  1  0
 27 28  1  0
 27 29  2  0
 29 30  1  0
 14 31  1  0
 31 32  1  0
 31 33  1  0
 31 34  1  0
 34 35  1  0
 34 36  1  0
 34 37  1  0
 37 38  1  0
 37 39  1  0
  6 40  1  0
 40 41  1  0
 40 42  2  0
 42 43  1  0
 42  2  1  0
 37  7  1  0
 29 15  1  0
 26 17  1  0
M  END
>  <cnnaffinity>  (1) 
-5.34657

>  <filename>  (1) 
c1cncc(N2CCCN(c3ccc4ccccc4n3)CC2)c1

$$$$
