
     RDKit          3D

 33 36  0  0  0  0  0  0  0  0999 V2000
    4.9013    1.8303   16.9485 H   0  0  0  0  0  0  0  0  0  0  0  0
    5.3730    1.3219   17.7891 C   0  0  0  0  0  0  0  0  0  0  0  0
    6.5331    0.7023   17.5185 N   0  0  0  0  0  0  0  0  0  0  0  0
    7.1612    0.0917   18.5291 C   0  0  0  0  0  0  0  0  0  0  0  0
    8.0934   -0.4006   18.2619 H   0  0  0  0  0  0  0  0  0  0  0  0
    6.6883    0.0418   19.8526 C   0  0  0  0  0  0  0  0  0  0  0  0
    7.3922   -0.6813   20.9275 C   0  0  0  0  0  0  0  0  0  0  0  0
    6.8740   -1.2659   22.0589 C   0  0  0  0  0  0  0  0  0  0  0  0
    5.8489   -1.3611   22.3471 H   0  0  0  0  0  0  0  0  0  0  0  0
    7.9543   -1.8192   22.7739 C   0  0  0  0  0  0  0  0  0  0  0  0
    7.8824   -2.5879   24.0430 C   0  0  0  0  0  0  0  0  0  0  0  0
    8.5072   -3.8163   24.1169 C   0  0  0  0  0  0  0  0  0  0  0  0
    9.0947   -4.1381   23.2620 H   0  0  0  0  0  0  0  0  0  0  0  0
    8.3922   -4.6556   25.2534 C   0  0  0  0  0  0  0  0  0  0  0  0
    8.9157   -5.6114   25.2576 H   0  0  0  0  0  0  0  0  0  0  0  0
    7.6379   -4.2489   26.3298 C   0  0  0  0  0  0  0  0  0  0  0  0
    7.5123   -4.8301   27.2375 H   0  0  0  0  0  0  0  0  0  0  0  0
    6.9783   -2.9887   26.3114 C   0  0  0  0  0  0  0  0  0  0  0  0
    6.2437   -2.6686   27.4223 N   0  0  0  0  0  0  0  0  0  0  0  0
    5.6571   -1.5001   27.4494 C   0  0  0  0  0  0  0  0  0  0  0  0
    5.1017   -1.2703   28.3583 H   0  0  0  0  0  0  0  0  0  0  0  0
    5.7196   -0.5513   26.3892 C   0  0  0  0  0  0  0  0  0  0  0  0
    5.1941    0.3912   26.5083 H   0  0  0  0  0  0  0  0  0  0  0  0
    6.4352   -0.8595   25.2566 C   0  0  0  0  0  0  0  0  0  0  0  0
    6.5077   -0.1728   24.4110 H   0  0  0  0  0  0  0  0  0  0  0  0
    7.1041   -2.1274   25.1727 C   0  0  0  0  0  0  0  0  0  0  0  0
    9.0887   -1.6391   22.0961 N   0  0  0  0  0  0  0  0  0  0  0  0
    8.7293   -0.9433   21.0031 N   0  0  0  0  0  0  0  0  0  0  0  0
    9.4530   -0.6551   20.3614 H   0  0  0  0  0  0  0  0  0  0  0  0
    5.4564    0.6771   20.1072 C   0  0  0  0  0  0  0  0  0  0  0  0
    5.0440    0.6558   21.1187 H   0  0  0  0  0  0  0  0  0  0  0  0
    4.7939    1.3303   19.0632 C   0  0  0  0  0  0  0  0  0  0  0  0
    3.8564    1.8531   19.2183 H   0  0  0  0  0  0  0  0  0  0  0  0
  1  2  1  0
  2  3  2  0
  3  4  1  0
  4  5  1  0
  4  6  2  0
  6  7  1  0
  7  8  2  0
  8  9  1  0
  8 10  1  0
 10 11  1  0
 11 12  2  0
 12 13  1  0
 12 14  1  0
 14 15  1  0
 14 16  2  0
 16 17  1  0
 16 18  1  0
 18 19  2  0
 19 20  1  0
 20 21  1  0
 20 22  2  0
 22 23  1  0
 22 24  1  0
 24 25  1  0
 24 26  2  0
 10 27  2  0
 27 28  1  0
 28 29  1  0
  6 30  1  0
 30 31  1  0
 30 32  2  0
 32 33  1  0
 32  2  1  0
 28  7  1  0
 26 11  1  0
 26 18  1  0
M  END
>  <cnnaffinity>  (1) 
-5.2876

>  <filename>  (1) 
c1cncc(-c2cc(-c3cccc4ncccc34)n[nH]2)c1

$$$$
