
     RDKit          3D

 46 50  0  0  0  0  0  0  0  0999 V2000
    4.5517    1.3924   18.9855 C   0  0  0  0  0  0  0  0  0  0  0  0
    5.1280    1.3778   17.7075 C   0  0  0  0  0  0  0  0  0  0  0  0
    6.0474    0.4729   17.3348 N   0  0  0  0  0  0  0  0  0  0  0  0
    6.4737   -0.3972   18.2556 C   0  0  0  0  0  0  0  0  0  0  0  0
    6.0745   -0.3541   19.6068 C   0  0  0  0  0  0  0  0  0  0  0  0
    6.8026   -1.0553   20.6093 N   0  0  0  0  0  0  0  0  0  0  0  0
    6.1894   -1.7730   21.5856 N   0  0  0  0  0  0  0  0  0  0  0  0
    7.2066   -2.2206   22.3062 C   0  0  0  0  0  0  0  0  0  0  0  0
    7.0918   -3.1334   23.4950 C   0  0  0  0  0  0  0  0  0  0  0  0
    6.2601   -2.6097   24.6887 C   0  0  0  0  0  0  0  0  0  0  0  0
    5.7881   -3.8622   25.4564 C   0  0  0  0  0  0  0  0  0  0  0  0
    6.0034   -5.0776   24.5228 C   0  0  0  0  0  0  0  0  0  0  0  0
    6.4914   -4.5200   23.1748 C   0  0  0  0  0  0  0  0  0  0  0  0
    7.2304   -5.1728   22.6935 H   0  0  0  0  0  0  0  0  0  0  0  0
    5.6543   -4.4007   22.4764 H   0  0  0  0  0  0  0  0  0  0  0  0
    5.0871   -5.6619   24.3926 H   0  0  0  0  0  0  0  0  0  0  0  0
    6.7417   -5.7581   24.9625 H   0  0  0  0  0  0  0  0  0  0  0  0
    4.7374   -3.7616   25.7479 H   0  0  0  0  0  0  0  0  0  0  0  0
    6.3553   -3.9910   26.3847 H   0  0  0  0  0  0  0  0  0  0  0  0
    6.8520   -1.9357   25.3198 H   0  0  0  0  0  0  0  0  0  0  0  0
    5.3989   -2.0399   24.3357 H   0  0  0  0  0  0  0  0  0  0  0  0
    8.1268   -3.2590   23.8314 H   0  0  0  0  0  0  0  0  0  0  0  0
    8.4251   -1.8162   21.8741 N   0  0  0  0  0  0  0  0  0  0  0  0
    8.1513   -1.0549   20.8365 C   0  0  0  0  0  0  0  0  0  0  0  0
    9.1521   -0.2594   20.0483 C   0  0  0  0  0  0  0  0  0  0  0  0
   10.2126    0.3518   20.9397 C   0  0  0  0  0  0  0  0  0  0  0  0
   11.4278   -0.3326   21.2412 C   0  0  0  0  0  0  0  0  0  0  0  0
   12.3341    0.1790   22.1575 C   0  0  0  0  0  0  0  0  0  0  0  0
   11.9936    1.3679   22.8541 C   0  0  0  0  0  0  0  0  0  0  0  0
   12.5332    2.1406   23.9291 C   0  0  0  0  0  0  0  0  0  0  0  0
   11.7884    3.1966   24.1896 N   0  0  0  0  0  0  0  0  0  0  0  0
   10.7544    3.1415   23.3206 N   0  0  0  0  0  0  0  0  0  0  0  0
   10.8103    2.0538   22.5096 C   0  0  0  0  0  0  0  0  0  0  0  0
    9.9270    1.5749   21.5239 C   0  0  0  0  0  0  0  0  0  0  0  0
    9.0445    2.1365   21.2401 H   0  0  0  0  0  0  0  0  0  0  0  0
   10.0411    3.8521   23.3468 H   0  0  0  0  0  0  0  0  0  0  0  0
   13.4260    1.9311   24.5037 H   0  0  0  0  0  0  0  0  0  0  0  0
   13.2913   -0.3000   22.3239 H   0  0  0  0  0  0  0  0  0  0  0  0
   11.6671   -1.2656   20.7348 H   0  0  0  0  0  0  0  0  0  0  0  0
    9.5716   -0.9102   19.2794 H   0  0  0  0  0  0  0  0  0  0  0  0
    8.6329    0.5486   19.5265 H   0  0  0  0  0  0  0  0  0  0  0  0
    5.0169    0.4947   19.9517 C   0  0  0  0  0  0  0  0  0  0  0  0
    4.5914    0.4526   20.9537 H   0  0  0  0  0  0  0  0  0  0  0  0
    7.1749   -1.1596   17.9149 H   0  0  0  0  0  0  0  0  0  0  0  0
    4.8308    2.0994   16.9495 H   0  0  0  0  0  0  0  0  0  0  0  0
    3.7749    2.1179   19.2124 H   0  0  0  0  0  0  0  0  0  0  0  0
  1  2  2  0
  2  3  1  0
  3  4  2  0
  4  5  1  0
  5  6  1  0
  6  7  1  0
  7  8  2  0
  8  9  1  0
  9 10  1  0
 10 11  1  0
 11 12  1  0
 12 13  1  0
 13 14  1  0
 13 15  1  0
 12 16  1  0
 12 17  1  0
 11 18  1  0
 11 19  1  0
 10 20  1  0
 10 21  1  0
  9 22  1  0
  8 23  1  0
 23 24  2  0
 24 25  1  0
 25 26  1  0
 26 27  2  0
 27 28  1  0
 28 29  2  0
 29 30  1  0
 30 31  2  0
 31 32  1  0
 32 33  1  0
 33 34  2  0
 34 35  1  0
 32 36  1  0
 30 37  1  0
 28 38  1  0
 27 39  1  0
 25 40  1  0
 25 41  1  0
  5 42  2  0
 42 43  1  0
  4 44  1  0
  2 45  1  0
  1 46  1  0
 42  1  1  0
 24  6  1  0
 34 26  1  0
 13  9  1  0
 33 29  1  0
M  END
>  <cnnaffinity>  (1) 
-6.63949

>  <filename>  (1) 
c1cncc(-n2nc(C3CCCC3)nc2Cc2ccc3cn[nH]c3c2)c1

$$$$
