
     RDKit          3D

 33 35  0  0  0  0  0  0  0  0999 V2000
    4.9193    1.7794   16.9972 H   0  0  0  0  0  0  0  0  0  0  0  0
    5.4026    1.2946   17.8390 C   0  0  0  0  0  0  0  0  0  0  0  0
    6.5690    0.6813   17.5775 N   0  0  0  0  0  0  0  0  0  0  0  0
    7.1681    0.0597   18.5950 C   0  0  0  0  0  0  0  0  0  0  0  0
    8.1139   -0.4338   18.3814 H   0  0  0  0  0  0  0  0  0  0  0  0
    6.6470    0.0227   19.8957 C   0  0  0  0  0  0  0  0  0  0  0  0
    7.3754   -0.7323   20.9131 C   0  0  0  0  0  0  0  0  0  0  0  0
    7.8143   -1.9584   20.7750 N   0  0  0  0  0  0  0  0  0  0  0  0
    8.3930   -2.3290   21.9585 N   0  0  0  0  0  0  0  0  0  0  0  0
    8.3061   -1.3072   22.7629 C   0  0  0  0  0  0  0  0  0  0  0  0
    8.6908   -1.2841   23.7728 H   0  0  0  0  0  0  0  0  0  0  0  0
    7.6688   -0.2555   22.1647 N   0  0  0  0  0  0  0  0  0  0  0  0
    7.4826    1.0862   22.7375 C   0  0  0  0  0  0  0  0  0  0  0  0
    7.0618    1.7245   21.9554 H   0  0  0  0  0  0  0  0  0  0  0  0
    8.8268    1.7135   23.1289 C   0  0  0  0  0  0  0  0  0  0  0  0
    9.5154    1.6602   22.2819 H   0  0  0  0  0  0  0  0  0  0  0  0
    9.2715    1.1065   23.9271 H   0  0  0  0  0  0  0  0  0  0  0  0
    8.6678    3.1750   23.6096 C   0  0  0  0  0  0  0  0  0  0  0  0
    8.8008    3.8616   22.7645 H   0  0  0  0  0  0  0  0  0  0  0  0
    9.4786    3.3985   24.3127 H   0  0  0  0  0  0  0  0  0  0  0  0
    7.3018    3.4560   24.2787 C   0  0  0  0  0  0  0  0  0  0  0  0
    7.3999    4.2656   25.0096 H   0  0  0  0  0  0  0  0  0  0  0  0
    6.5916    3.8186   23.5250 H   0  0  0  0  0  0  0  0  0  0  0  0
    6.7184    2.2033   24.9430 C   0  0  0  0  0  0  0  0  0  0  0  0
    5.7805    2.4417   25.4555 H   0  0  0  0  0  0  0  0  0  0  0  0
    7.4092    1.8630   25.7255 H   0  0  0  0  0  0  0  0  0  0  0  0
    6.4938    1.0583   23.9267 C   0  0  0  0  0  0  0  0  0  0  0  0
    5.4736    1.1047   23.5270 H   0  0  0  0  0  0  0  0  0  0  0  0
    6.5733    0.0957   24.4423 H   0  0  0  0  0  0  0  0  0  0  0  0
    5.4294    0.6654   20.1569 C   0  0  0  0  0  0  0  0  0  0  0  0
    4.9920    0.6336   21.1619 H   0  0  0  0  0  0  0  0  0  0  0  0
    4.7956    1.3135   19.1020 C   0  0  0  0  0  0  0  0  0  0  0  0
    3.8651    1.8478   19.2587 H   0  0  0  0  0  0  0  0  0  0  0  0
  1  2  1  0
  2  3  2  0
  3  4  1  0
  4  5  1  0
  4  6  2  0
  6  7  1  0
  7  8  2  0
  8  9  1  0
  9 10  2  0
 10 11  1  0
 10 12  1  0
 12 13  1  0
 13 14  1  0
 13 15  1  0
 15 16  1  0
 15 17  1  0
 15 18  1  0
 18 19  1  0
 18 20  1  0
 18 21  1  0
 21 22  1  0
 21 23  1  0
 21 24  1  0
 24 25  1  0
 24 26  1  0
 24 27  1  0
 27 28  1  0
 27 29  1  0
  6 30  1  0
 30 31  1  0
 30 32  2  0
 32 33  1  0
 32  2  1  0
 12  7  1  0
 27 13  1  0
M  END
>  <cnnaffinity>  (1) 
-4.89984

>  <filename>  (1) 
c1cncc(-c2nncn2C2CCCCC2)c1

$$$$
