
     RDKit          3D

 33 35  0  0  0  0  0  0  0  0999 V2000
    5.5776   -1.4101   21.8697 H   0  0  0  0  0  0  0  0  0  0  0  0
    6.6507   -1.4989   21.7678 C   0  0  0  0  0  0  0  0  0  0  0  0
    7.2770   -2.3679   22.5868 N   0  0  0  0  0  0  0  0  0  0  0  0
    8.6071   -2.4675   22.4396 C   0  0  0  0  0  0  0  0  0  0  0  0
    9.1200   -3.1940   23.0647 H   0  0  0  0  0  0  0  0  0  0  0  0
    9.3166   -1.6680   21.4852 C   0  0  0  0  0  0  0  0  0  0  0  0
   10.6797   -1.5925   21.3064 N   0  0  0  0  0  0  0  0  0  0  0  0
   10.7267   -0.8608   20.5987 H   0  0  0  0  0  0  0  0  0  0  0  0
   11.6122   -1.5013   22.4425 C   0  0  0  0  0  0  0  0  0  0  0  0
   11.7265   -2.5054   22.8807 H   0  0  0  0  0  0  0  0  0  0  0  0
   12.5930   -1.2481   22.0309 H   0  0  0  0  0  0  0  0  0  0  0  0
   11.2798   -0.5044   23.5657 C   0  0  0  0  0  0  0  0  0  0  0  0
   10.5192   -0.8689   24.6975 C   0  0  0  0  0  0  0  0  0  0  0  0
   10.1024   -1.8686   24.7876 H   0  0  0  0  0  0  0  0  0  0  0  0
   10.3201    0.0587   25.7268 C   0  0  0  0  0  0  0  0  0  0  0  0
    9.7877   -0.2360   26.6288 H   0  0  0  0  0  0  0  0  0  0  0  0
   10.7960    1.3127   25.7036 N   0  0  0  0  0  0  0  0  0  0  0  0
   11.5084    1.6642   24.6293 C   0  0  0  0  0  0  0  0  0  0  0  0
   11.8931    2.6829   24.6191 H   0  0  0  0  0  0  0  0  0  0  0  0
   11.7893    0.8052   23.5653 C   0  0  0  0  0  0  0  0  0  0  0  0
   12.4139    1.1846   22.7594 H   0  0  0  0  0  0  0  0  0  0  0  0
    8.6759   -0.8916   20.6030 N   0  0  0  0  0  0  0  0  0  0  0  0
    7.3399   -0.7874   20.7497 C   0  0  0  0  0  0  0  0  0  0  0  0
    6.6334    0.0389   19.7414 C   0  0  0  0  0  0  0  0  0  0  0  0
    7.1656    0.1376   18.4418 C   0  0  0  0  0  0  0  0  0  0  0  0
    8.1211   -0.3278   18.2086 H   0  0  0  0  0  0  0  0  0  0  0  0
    6.5588    0.7693   17.4333 N   0  0  0  0  0  0  0  0  0  0  0  0
    5.3959    1.3834   17.6998 C   0  0  0  0  0  0  0  0  0  0  0  0
    4.9315    1.9078   16.8670 H   0  0  0  0  0  0  0  0  0  0  0  0
    4.7955    1.3798   18.9619 C   0  0  0  0  0  0  0  0  0  0  0  0
    3.8679    1.9197   19.1180 H   0  0  0  0  0  0  0  0  0  0  0  0
    5.4206    0.6962   20.0048 C   0  0  0  0  0  0  0  0  0  0  0  0
    4.9846    0.7045   21.0054 H   0  0  0  0  0  0  0  0  0  0  0  0
  1  2  1  0
  2  3  2  0
  3  4  1  0
  4  5  1  0
  4  6  2  0
  6  7  1  0
  7  8  1  0
  7  9  1  0
  9 10  1  0
  9 11  1  0
  9 12  1  0
 12 13  2  0
 13 14  1  0
 13 15  1  0
 15 16  1  0
 15 17  2  0
 17 18  1  0
 18 19  1  0
 18 20  2  0
 20 21  1  0
  6 22  1  0
 22 23  2  0
 23 24  1  0
 24 25  2  0
 25 26  1  0
 25 27  1  0
 27 28  2  0
 28 29  1  0
 28 30  1  0
 30 31  1  0
 30 32  2  0
 32 33  1  0
 23  2  1  0
 32 24  1  0
 20 12  1  0
M  END
>  <cnnaffinity>  (1) 
-5.25461

>  <filename>  (1) 
c1cncc(-c2cncc(NCc3ccncc3)n2)c1

$$$$
