
     RDKit          3D

 48 51  0  0  0  0  0  0  0  0999 V2000
    4.7767    1.3358   19.1114 C   0  0  0  0  0  0  0  0  0  0  0  0
    5.3230    1.2895   17.8874 C   0  0  0  0  0  0  0  0  0  0  0  0
    6.5343    0.6945   17.6506 N   0  0  0  0  0  0  0  0  0  0  0  0
    7.2012    0.0149   18.6151 C   0  0  0  0  0  0  0  0  0  0  0  0
    6.6362    0.0163   19.8851 C   0  0  0  0  0  0  0  0  0  0  0  0
    7.3345   -0.6494   20.8711 N   0  0  0  0  0  0  0  0  0  0  0  0
    6.6381   -1.6077   21.7426 N   0  0  0  0  0  0  0  0  0  0  0  0
    7.6060   -2.0170   22.5243 C   0  0  0  0  0  0  0  0  0  0  0  0
    7.4289   -3.0330   23.6904 C   0  0  0  0  0  0  0  0  0  0  0  0
    6.6333   -2.2660   24.8574 C   0  0  0  0  0  0  0  0  0  0  0  0
    5.9149   -3.3450   25.7693 C   0  0  0  0  0  0  0  0  0  0  0  0
    6.5985   -4.6329   25.6407 O   0  0  0  0  0  0  0  0  0  0  0  0
    6.2905   -5.2345   24.3444 C   0  0  0  0  0  0  0  0  0  0  0  0
    6.5833   -4.2414   23.1168 C   0  0  0  0  0  0  0  0  0  0  0  0
    5.6157   -3.8847   22.6996 H   0  0  0  0  0  0  0  0  0  0  0  0
    7.2085   -4.7726   22.3707 H   0  0  0  0  0  0  0  0  0  0  0  0
    6.9224   -6.0733   24.2216 H   0  0  0  0  0  0  0  0  0  0  0  0
    5.2218   -5.5400   24.2458 H   0  0  0  0  0  0  0  0  0  0  0  0
    4.8276   -3.3806   25.4745 H   0  0  0  0  0  0  0  0  0  0  0  0
    6.0366   -3.0218   26.7688 H   0  0  0  0  0  0  0  0  0  0  0  0
    5.8592   -1.6009   24.4363 H   0  0  0  0  0  0  0  0  0  0  0  0
    7.4005   -1.7381   25.4145 H   0  0  0  0  0  0  0  0  0  0  0  0
    8.4276   -3.3785   24.0474 H   0  0  0  0  0  0  0  0  0  0  0  0
    8.7987   -1.4638   22.3190 N   0  0  0  0  0  0  0  0  0  0  0  0
    8.6208   -0.6700   21.2959 C   0  0  0  0  0  0  0  0  0  0  0  0
    9.5995    0.1781   20.5817 C   0  0  0  0  0  0  0  0  0  0  0  0
   10.5838    0.9817   21.8107 C   0  0  0  0  0  0  0  0  0  0  0  0
   10.0518    2.2680   23.3431 C   0  0  0  0  0  0  0  0  0  0  0  0
   10.8909    2.4514   23.5353 N   0  0  0  0  0  0  0  0  0  0  0  0
   10.9669    2.8928   24.7409 C   0  0  0  0  0  0  0  0  0  0  0  0
   10.9671    2.8927   24.7409 C   0  0  0  0  0  0  0  0  0  0  0  0
   11.1005    3.3897   24.4926 C   0  0  0  0  0  0  0  0  0  0  0  0
   11.7650    2.8230   23.6578 C   0  0  0  0  0  0  0  0  0  0  0  0
   11.1629    4.3316   23.0844 H   0  0  0  0  0  0  0  0  0  0  0  0
   12.8720    4.6231   24.7987 H   0  0  0  0  0  0  0  0  0  0  0  0
   11.0386    2.6730   24.8840 H   0  0  0  0  0  0  0  0  0  0  0  0
   11.0674    1.4753   25.3233 H   0  0  0  0  0  0  0  0  0  0  0  0
    8.7868    1.2715   22.9706 H   0  0  0  0  0  0  0  0  0  0  0  0
    9.2847    2.6738   21.9655 H   0  0  0  0  0  0  0  0  0  0  0  0
   11.3538    1.4876   21.1923 H   0  0  0  0  0  0  0  0  0  0  0  0
   11.0189    0.1343   22.3892 H   0  0  0  0  0  0  0  0  0  0  0  0
   10.3761   -0.3573   19.9204 H   0  0  0  0  0  0  0  0  0  0  0  0
    9.1469    1.0508   19.9882 H   0  0  0  0  0  0  0  0  0  0  0  0
    5.4058    0.6773   20.0992 C   0  0  0  0  0  0  0  0  0  0  0  0
    5.0371    0.6167   21.0820 H   0  0  0  0  0  0  0  0  0  0  0  0
    8.1810   -0.4915   18.3618 H   0  0  0  0  0  0  0  0  0  0  0  0
    4.9182    1.7785   17.0408 H   0  0  0  0  0  0  0  0  0  0  0  0
    3.9181    1.8264   19.2567 H   0  0  0  0  0  0  0  0  0  0  0  0
  1  2  2  0
  2  3  1  0
  3  4  2  0
  4  5  1  0
  5  6  1  0
  6  7  1  0
  7  8  2  0
  8  9  1  0
  9 10  1  0
 10 11  1  0
 11 12  1  0
 12 13  1  0
 13 14  1  0
 14 15  1  0
 14 16  1  0
 13 17  1  0
 13 18  1  0
 11 19  1  0
 11 20  1  0
 10 21  1  0
 10 22  1  0
  9 23  1  0
  8 24  1  0
 24 25  2  0
 25 26  1  0
 26 27  1  0
 27 28  1  0
 28 29  1  0
 29 30  1  0
 30 31  2  0
 31 32  1  0
 32 33  2  0
 33 34  1  0
 32 35  1  0
 31 36  1  0
 30 37  1  0
 28 38  1  0
 28 39  1  0
 27 40  1  0
 27 41  1  0
 26 42  1  0
 26 43  1  0
  5 44  2  0
 44 45  1  0
  4 46  1  0
  2 47  1  0
  1 48  1  0
 44  1  1  0
 25  6  1  0
 33 29  1  0
 14  9  1  0
M  END
>  <cnnaffinity>  (1) 
-6.07101

>  <filename>  (1) 
c1cncc(-n2nc(C3CCOCC3)nc2CCCn2cccc2)c1

$$$$
