
     RDKit          3D

 47 50  0  0  0  0  0  0  0  0999 V2000
    4.8212    1.3009   19.1091 C   0  0  0  0  0  0  0  0  0  0  0  0
    5.4140    1.2933   17.8414 C   0  0  0  0  0  0  0  0  0  0  0  0
    6.5602    0.6520   17.5685 N   0  0  0  0  0  0  0  0  0  0  0  0
    7.1784    0.0281   18.5781 C   0  0  0  0  0  0  0  0  0  0  0  0
    6.6860    0.0106   19.8969 C   0  0  0  0  0  0  0  0  0  0  0  0
    7.3815   -0.6393   20.9533 N   0  0  0  0  0  0  0  0  0  0  0  0
    6.7531   -1.5864   21.6984 N   0  0  0  0  0  0  0  0  0  0  0  0
    7.6832   -1.9574   22.5580 C   0  0  0  0  0  0  0  0  0  0  0  0
    7.4290   -2.9345   23.6728 C   0  0  0  0  0  0  0  0  0  0  0  0
    6.5161   -2.3662   24.7896 C   0  0  0  0  0  0  0  0  0  0  0  0
    5.8685   -3.5839   25.4782 C   0  0  0  0  0  0  0  0  0  0  0  0
    6.0379   -4.7812   24.5097 C   0  0  0  0  0  0  0  0  0  0  0  0
    6.7129   -4.2300   23.2398 C   0  0  0  0  0  0  0  0  0  0  0  0
    5.9573   -3.9786   22.4872 H   0  0  0  0  0  0  0  0  0  0  0  0
    7.4045   -4.9456   22.7795 H   0  0  0  0  0  0  0  0  0  0  0  0
    6.6566   -5.5561   24.9760 H   0  0  0  0  0  0  0  0  0  0  0  0
    5.0796   -5.2588   24.2745 H   0  0  0  0  0  0  0  0  0  0  0  0
    4.8141   -3.3863   25.7042 H   0  0  0  0  0  0  0  0  0  0  0  0
    6.3481   -3.8024   26.4383 H   0  0  0  0  0  0  0  0  0  0  0  0
    7.0744   -1.7220   25.4800 H   0  0  0  0  0  0  0  0  0  0  0  0
    5.7393   -1.7414   24.3385 H   0  0  0  0  0  0  0  0  0  0  0  0
    8.4191   -3.1583   24.0856 H   0  0  0  0  0  0  0  0  0  0  0  0
    8.8718   -1.3124   22.4255 N   0  0  0  0  0  0  0  0  0  0  0  0
    8.6468   -0.4686   21.4352 C   0  0  0  0  0  0  0  0  0  0  0  0
    9.5405    0.6105   20.9269 C   0  0  0  0  0  0  0  0  0  0  0  0
    9.0207    2.0286   21.2355 C   0  0  0  0  0  0  0  0  0  0  0  0
    8.7705    2.2699   22.7428 C   0  0  0  0  0  0  0  0  0  0  0  0
   10.0134    2.0354   23.5569 C   0  0  0  0  0  0  0  0  0  0  0  0
   10.1653    0.9361   24.4323 C   0  0  0  0  0  0  0  0  0  0  0  0
   11.3347    0.6274   25.0307 N   0  0  0  0  0  0  0  0  0  0  0  0
   12.3491    1.4654   24.7506 C   0  0  0  0  0  0  0  0  0  0  0  0
   12.1948    2.6052   23.9398 C   0  0  0  0  0  0  0  0  0  0  0  0
   11.0327    2.8947   23.3391 N   0  0  0  0  0  0  0  0  0  0  0  0
   13.0167    3.2947   23.7526 H   0  0  0  0  0  0  0  0  0  0  0  0
   13.3114    1.2240   25.1830 H   0  0  0  0  0  0  0  0  0  0  0  0
    9.3032    0.2996   24.6064 H   0  0  0  0  0  0  0  0  0  0  0  0
    7.9750    1.6010   23.0925 H   0  0  0  0  0  0  0  0  0  0  0  0
    8.4278    3.2984   22.9007 H   0  0  0  0  0  0  0  0  0  0  0  0
    8.1035    2.2214   20.6641 H   0  0  0  0  0  0  0  0  0  0  0  0
    9.7710    2.7437   20.8848 H   0  0  0  0  0  0  0  0  0  0  0  0
    9.6226    0.4738   19.8468 H   0  0  0  0  0  0  0  0  0  0  0  0
   10.5426    0.4650   21.3450 H   0  0  0  0  0  0  0  0  0  0  0  0
    5.4586    0.6338   20.1584 C   0  0  0  0  0  0  0  0  0  0  0  0
    5.0359    0.5784   21.1611 H   0  0  0  0  0  0  0  0  0  0  0  0
    8.1058   -0.4921   18.3311 H   0  0  0  0  0  0  0  0  0  0  0  0
    4.9495    1.8235   17.0136 H   0  0  0  0  0  0  0  0  0  0  0  0
    3.8839    1.8246   19.2646 H   0  0  0  0  0  0  0  0  0  0  0  0
  1  2  2  0
  2  3  1  0
  3  4  2  0
  4  5  1  0
  5  6  1  0
  6  7  1  0
  7  8  2  0
  8  9  1  0
  9 10  1  0
 10 11  1  0
 11 12  1  0
 12 13  1  0
 13 14  1  0
 13 15  1  0
 12 16  1  0
 12 17  1  0
 11 18  1  0
 11 19  1  0
 10 20  1  0
 10 21  1  0
  9 22  1  0
  8 23  1  0
 23 24  2  0
 24 25  1  0
 25 26  1  0
 26 27  1  0
 27 28  1  0
 28 29  2  0
 29 30  1  0
 30 31  2  0
 31 32  1  0
 32 33  2  0
 32 34  1  0
 31 35  1  0
 29 36  1  0
 27 37  1  0
 27 38  1  0
 26 39  1  0
 26 40  1  0
 25 41  1  0
 25 42  1  0
  5 43  2  0
 43 44  1  0
  4 45  1  0
  2 46  1  0
  1 47  1  0
 43  1  1  0
 24  6  1  0
 33 28  1  0
 13  9  1  0
M  END
>  <cnnaffinity>  (1) 
-6.30362

>  <filename>  (1) 
c1cncc(-n2nc(C3CCCC3)nc2CCCc2cnccn2)c1

$$$$
