
     RDKit          3D

 30 32  0  0  0  0  0  0  0  0999 V2000
    4.9341    1.8350   16.9721 H   0  0  0  0  0  0  0  0  0  0  0  0
    5.3979    1.3108   17.8060 C   0  0  0  0  0  0  0  0  0  0  0  0
    6.5506    0.6758   17.5422 N   0  0  0  0  0  0  0  0  0  0  0  0
    7.1462    0.0255   18.5503 C   0  0  0  0  0  0  0  0  0  0  0  0
    8.1005   -0.4524   18.3308 H   0  0  0  0  0  0  0  0  0  0  0  0
    6.6173   -0.0483   19.8554 C   0  0  0  0  0  0  0  0  0  0  0  0
    7.2975   -0.7637   20.8910 N   0  0  0  0  0  0  0  0  0  0  0  0
    8.6355   -0.7372   21.2054 C   0  0  0  0  0  0  0  0  0  0  0  0
    9.6048    0.1239   20.7285 N   0  0  0  0  0  0  0  0  0  0  0  0
   10.3899   -0.2181   21.2800 H   0  0  0  0  0  0  0  0  0  0  0  0
    9.3813    1.5627   20.8807 C   0  0  0  0  0  0  0  0  0  0  0  0
   10.3116    2.0533   20.5611 H   0  0  0  0  0  0  0  0  0  0  0  0
    8.5831    1.8488   20.1882 H   0  0  0  0  0  0  0  0  0  0  0  0
    9.0411    2.0806   22.2511 C   0  0  0  0  0  0  0  0  0  0  0  0
    7.4267    2.5512   22.6458 S   0  0  0  0  0  0  0  0  0  0  0  0
    7.8848    3.0331   24.2275 C   0  0  0  0  0  0  0  0  0  0  0  0
    7.1599    3.4672   24.9005 H   0  0  0  0  0  0  0  0  0  0  0  0
    9.2155    2.8403   24.4437 C   0  0  0  0  0  0  0  0  0  0  0  0
    9.7045    3.0804   25.3785 H   0  0  0  0  0  0  0  0  0  0  0  0
    9.8830    2.3106   23.3004 C   0  0  0  0  0  0  0  0  0  0  0  0
   10.9524    2.1299   23.2638 H   0  0  0  0  0  0  0  0  0  0  0  0
    8.9716   -1.6198   22.0968 N   0  0  0  0  0  0  0  0  0  0  0  0
    7.7913   -2.2295   22.4495 C   0  0  0  0  0  0  0  0  0  0  0  0
    7.7874   -2.9930   23.2177 H   0  0  0  0  0  0  0  0  0  0  0  0
    6.7505   -1.7272   21.7385 C   0  0  0  0  0  0  0  0  0  0  0  0
    5.6944   -1.9408   21.7624 H   0  0  0  0  0  0  0  0  0  0  0  0
    5.4220    0.6258   20.1217 C   0  0  0  0  0  0  0  0  0  0  0  0
    5.0156    0.6412   21.1351 H   0  0  0  0  0  0  0  0  0  0  0  0
    4.8051    1.3135   19.0730 C   0  0  0  0  0  0  0  0  0  0  0  0
    3.8810    1.8564   19.2284 H   0  0  0  0  0  0  0  0  0  0  0  0
  1  2  1  0
  2  3  2  0
  3  4  1  0
  4  5  1  0
  4  6  2  0
  6  7  1  0
  7  8  1  0
  8  9  1  0
  9 10  1  0
  9 11  1  0
 11 12  1  0
 11 13  1  0
 11 14  1  0
 14 15  1  0
 15 16  1  0
 16 17  1  0
 16 18  2  0
 18 19  1  0
 18 20  1  0
 20 21  1  0
  8 22  2  0
 22 23  1  0
 23 24  1  0
 23 25  2  0
 25 26  1  0
  6 27  1  0
 27 28  1  0
 27 29  2  0
 29 30  1  0
 29  2  1  0
 25  7  1  0
 20 14  2  0
M  END
>  <cnnaffinity>  (1) 
-5.18079

>  <filename>  (1) 
c1cncc(-n2ccnc2NCc2cccs2)c1

$$$$
