
     RDKit          3D

 45 48  0  0  0  0  0  0  0  0999 V2000
    4.8594    1.3770   18.9502 C   0  0  0  0  0  0  0  0  0  0  0  0
    5.5021    1.2727   17.7146 C   0  0  0  0  0  0  0  0  0  0  0  0
    6.6144    0.5385   17.5289 N   0  0  0  0  0  0  0  0  0  0  0  0
    7.1342   -0.0958   18.5879 C   0  0  0  0  0  0  0  0  0  0  0  0
    6.5925    0.0051   19.8824 C   0  0  0  0  0  0  0  0  0  0  0  0
    7.2406   -0.6334   20.9817 N   0  0  0  0  0  0  0  0  0  0  0  0
    7.5793   -1.9458   20.8820 N   0  0  0  0  0  0  0  0  0  0  0  0
    8.0306   -2.2271   22.0928 C   0  0  0  0  0  0  0  0  0  0  0  0
    8.5707   -3.5815   22.4795 C   0  0  0  0  0  0  0  0  0  0  0  0
    8.6387   -3.8572   24.0008 C   0  0  0  0  0  0  0  0  0  0  0  0
    8.5759   -5.3925   24.1731 C   0  0  0  0  0  0  0  0  0  0  0  0
    8.2079   -5.9899   22.7921 C   0  0  0  0  0  0  0  0  0  0  0  0
    7.8204   -4.8012   21.8939 C   0  0  0  0  0  0  0  0  0  0  0  0
    6.7384   -4.6287   21.9524 H   0  0  0  0  0  0  0  0  0  0  0  0
    8.0640   -4.9743   20.8390 H   0  0  0  0  0  0  0  0  0  0  0  0
    7.3951   -6.7217   22.8706 H   0  0  0  0  0  0  0  0  0  0  0  0
    9.0542   -6.5386   22.3650 H   0  0  0  0  0  0  0  0  0  0  0  0
    7.8347   -5.6622   24.9343 H   0  0  0  0  0  0  0  0  0  0  0  0
    9.5318   -5.7928   24.5322 H   0  0  0  0  0  0  0  0  0  0  0  0
    7.8019   -3.3708   24.5133 H   0  0  0  0  0  0  0  0  0  0  0  0
    9.5527   -3.4323   24.4308 H   0  0  0  0  0  0  0  0  0  0  0  0
    9.6032   -3.5489   22.1176 H   0  0  0  0  0  0  0  0  0  0  0  0
    8.0544   -1.1704   22.9463 N   0  0  0  0  0  0  0  0  0  0  0  0
    7.5713   -0.1780   22.2286 C   0  0  0  0  0  0  0  0  0  0  0  0
    7.4273    1.2314   22.7067 C   0  0  0  0  0  0  0  0  0  0  0  0
    8.2733    2.2670   21.9406 C   0  0  0  0  0  0  0  0  0  0  0  0
    7.9910    3.7438   22.2961 C   0  0  0  0  0  0  0  0  0  0  0  0
    8.5363    4.2428   23.6152 C   0  0  0  0  0  0  0  0  0  0  0  0
    9.7546    4.7791   23.9209 C   0  0  0  0  0  0  0  0  0  0  0  0
    9.9463    5.2041   25.2205 N   0  0  0  0  0  0  0  0  0  0  0  0
    8.8768    4.9915   25.9179 C   0  0  0  0  0  0  0  0  0  0  0  0
    7.5779    4.2477   25.0538 S   0  0  0  0  0  0  0  0  0  0  0  0
    8.7717    5.2504   26.9721 H   0  0  0  0  0  0  0  0  0  0  0  0
   10.5914    4.8463   23.2347 H   0  0  0  0  0  0  0  0  0  0  0  0
    8.4004    4.3773   21.5014 H   0  0  0  0  0  0  0  0  0  0  0  0
    6.9096    3.9215   22.2522 H   0  0  0  0  0  0  0  0  0  0  0  0
    9.3369    2.0574   22.1038 H   0  0  0  0  0  0  0  0  0  0  0  0
    8.0805    2.1527   20.8657 H   0  0  0  0  0  0  0  0  0  0  0  0
    6.3698    1.5109   22.6559 H   0  0  0  0  0  0  0  0  0  0  0  0
    7.6829    1.2224   23.7709 H   0  0  0  0  0  0  0  0  0  0  0  0
    5.4066    0.7235   20.0578 C   0  0  0  0  0  0  0  0  0  0  0  0
    4.9174    0.7422   21.0323 H   0  0  0  0  0  0  0  0  0  0  0  0
    8.0216   -0.6993   18.4011 H   0  0  0  0  0  0  0  0  0  0  0  0
    5.0989    1.7792   16.8395 H   0  0  0  0  0  0  0  0  0  0  0  0
    3.9546    1.9662   19.0479 H   0  0  0  0  0  0  0  0  0  0  0  0
  1  2  2  0
  2  3  1  0
  3  4  2  0
  4  5  1  0
  5  6  1  0
  6  7  1  0
  7  8  2  0
  8  9  1  0
  9 10  1  0
 10 11  1  0
 11 12  1  0
 12 13  1  0
 13 14  1  0
 13 15  1  0
 12 16  1  0
 12 17  1  0
 11 18  1  0
 11 19  1  0
 10 20  1  0
 10 21  1  0
  9 22  1  0
  8 23  1  0
 23 24  2  0
 24 25  1  0
 25 26  1  0
 26 27  1  0
 27 28  1  0
 28 29  2  0
 29 30  1  0
 30 31  2  0
 31 32  1  0
 31 33  1  0
 29 34  1  0
 27 35  1  0
 27 36  1  0
 26 37  1  0
 26 38  1  0
 25 39  1  0
 25 40  1  0
  5 41  2  0
 41 42  1  0
  4 43  1  0
  2 44  1  0
  1 45  1  0
 41  1  1  0
 24  6  1  0
 32 28  1  0
 13  9  1  0
M  END
>  <cnnaffinity>  (1) 
-6.27735

>  <filename>  (1) 
c1cncc(-n2nc(C3CCCC3)nc2CCCc2cncs2)c1

$$$$
