
     RDKit          3D

 35 38  0  0  0  0  0  0  0  0999 V2000
    4.9508    1.8509   16.9152 H   0  0  0  0  0  0  0  0  0  0  0  0
    5.4008    1.3321   17.7625 C   0  0  0  0  0  0  0  0  0  0  0  0
    6.5588    0.6974   17.5259 N   0  0  0  0  0  0  0  0  0  0  0  0
    7.1337    0.0700   18.5611 C   0  0  0  0  0  0  0  0  0  0  0  0
    8.0712   -0.4367   18.3401 H   0  0  0  0  0  0  0  0  0  0  0  0
    6.6050    0.0144   19.8692 C   0  0  0  0  0  0  0  0  0  0  0  0
    7.3500   -0.6879   20.9590 C   0  0  0  0  0  0  0  0  0  0  0  0
    6.7442   -1.5627   21.8901 C   0  0  0  0  0  0  0  0  0  0  0  0
    5.6825   -1.7852   21.8893 H   0  0  0  0  0  0  0  0  0  0  0  0
    7.4420   -2.2388   22.8101 N   0  0  0  0  0  0  0  0  0  0  0  0
    8.7673   -2.0863   22.9120 N   0  0  0  0  0  0  0  0  0  0  0  0
    9.4123   -1.2011   22.1276 C   0  0  0  0  0  0  0  0  0  0  0  0
   10.8930   -1.0718   22.3222 C   0  0  0  0  0  0  0  0  0  0  0  0
   11.6752   -2.2090   22.2262 C   0  0  0  0  0  0  0  0  0  0  0  0
   11.1964   -3.1836   22.2481 H   0  0  0  0  0  0  0  0  0  0  0  0
   13.0874   -2.1182   22.1154 C   0  0  0  0  0  0  0  0  0  0  0  0
   13.6929   -3.0074   21.9802 H   0  0  0  0  0  0  0  0  0  0  0  0
   13.7220   -0.9162   22.2703 C   0  0  0  0  0  0  0  0  0  0  0  0
   14.8038   -0.8438   22.2137 H   0  0  0  0  0  0  0  0  0  0  0  0
   12.9683    0.2582   22.5343 C   0  0  0  0  0  0  0  0  0  0  0  0
   13.6437    1.4824   22.7978 C   0  0  0  0  0  0  0  0  0  0  0  0
   14.7315    1.4605   22.8447 H   0  0  0  0  0  0  0  0  0  0  0  0
   12.9448    2.6491   22.9554 C   0  0  0  0  0  0  0  0  0  0  0  0
   13.4766    3.5805   23.1399 H   0  0  0  0  0  0  0  0  0  0  0  0
   11.5275    2.6366   22.8756 C   0  0  0  0  0  0  0  0  0  0  0  0
   10.9891    3.5722   22.9991 H   0  0  0  0  0  0  0  0  0  0  0  0
   10.8353    1.4575   22.6873 C   0  0  0  0  0  0  0  0  0  0  0  0
    9.7478    1.4691   22.6893 H   0  0  0  0  0  0  0  0  0  0  0  0
   11.5331    0.2124   22.5180 C   0  0  0  0  0  0  0  0  0  0  0  0
    8.7248   -0.5165   21.1050 C   0  0  0  0  0  0  0  0  0  0  0  0
    9.2674    0.1634   20.4581 H   0  0  0  0  0  0  0  0  0  0  0  0
    5.3830    0.6734   20.0851 C   0  0  0  0  0  0  0  0  0  0  0  0
    4.9313    0.7028   21.0789 H   0  0  0  0  0  0  0  0  0  0  0  0
    4.7780    1.3416   19.0155 C   0  0  0  0  0  0  0  0  0  0  0  0
    3.8457    1.8803   19.1369 H   0  0  0  0  0  0  0  0  0  0  0  0
  1  2  1  0
  2  3  2  0
  3  4  1  0
  4  5  1  0
  4  6  2  0
  6  7  1  0
  7  8  2  0
  8  9  1  0
  8 10  1  0
 10 11  2  0
 11 12  1  0
 12 13  1  0
 13 14  2  0
 14 15  1  0
 14 16  1  0
 16 17  1  0
 16 18  2  0
 18 19  1  0
 18 20  1  0
 20 21  2  0
 21 22  1  0
 21 23  1  0
 23 24  1  0
 23 25  2  0
 25 26  1  0
 25 27  1  0
 27 28  1  0
 27 29  2  0
 12 30  2  0
 30 31  1  0
  6 32  1  0
 32 33  1  0
 32 34  2  0
 34 35  1  0
 34  2  1  0
 30  7  1  0
 29 13  1  0
 29 20  1  0
M  END
>  <cnnaffinity>  (1) 
-6.08025

>  <filename>  (1) 
c1cncc(-c2cnnc(-c3cccc4ccccc34)c2)c1

$$$$
