
     RDKit          3D

 42 45  0  0  0  0  0  0  0  0999 V2000
    4.9892    1.8255   17.0018 H   0  0  0  0  0  0  0  0  0  0  0  0
    5.4433    1.2969   17.8358 C   0  0  0  0  0  0  0  0  0  0  0  0
    6.5960    0.6565   17.5861 N   0  0  0  0  0  0  0  0  0  0  0  0
    7.1765    0.0114   18.6075 C   0  0  0  0  0  0  0  0  0  0  0  0
    8.1067   -0.4957   18.3678 H   0  0  0  0  0  0  0  0  0  0  0  0
    6.6694   -0.0420   19.9410 C   0  0  0  0  0  0  0  0  0  0  0  0
    7.2716   -0.7758   20.9739 N   0  0  0  0  0  0  0  0  0  0  0  0
    7.2325   -0.3746   22.3918 C   0  0  1  0  0  0  0  0  0  0  0  0
    6.2130   -0.1211   22.7090 H   0  0  0  0  0  0  0  0  0  0  0  0
    7.7075   -1.6720   23.0837 C   0  0  0  0  0  0  0  0  0  0  0  0
    6.8364   -2.2961   23.3122 H   0  0  0  0  0  0  0  0  0  0  0  0
    8.2334   -1.4648   24.0205 H   0  0  0  0  0  0  0  0  0  0  0  0
    8.6034   -2.3625   22.0230 C   0  0  0  0  0  0  0  0  0  0  0  0
    9.6164   -2.5931   22.3687 H   0  0  0  0  0  0  0  0  0  0  0  0
    8.1434   -3.3031   21.7046 H   0  0  0  0  0  0  0  0  0  0  0  0
    8.6003   -1.3799   20.8389 C   0  0  2  0  0  0  0  0  0  0  0  0
    8.6803   -1.9078   19.8918 H   0  0  0  0  0  0  0  0  0  0  0  0
    9.6909   -0.2903   20.8806 C   0  0  0  0  0  0  0  0  0  0  0  0
   10.6736   -0.7657   20.7789 H   0  0  0  0  0  0  0  0  0  0  0  0
    9.5616    0.3331   19.9903 H   0  0  0  0  0  0  0  0  0  0  0  0
    9.6351    0.6194   22.1344 C   0  0  2  0  0  0  0  0  0  0  0  0
   10.0289    1.6079   21.8425 H   0  0  0  0  0  0  0  0  0  0  0  0
   10.5541    0.1096   23.2714 C   0  0  0  0  0  0  0  0  0  0  0  0
   10.3787    0.7342   24.1587 H   0  0  0  0  0  0  0  0  0  0  0  0
   10.3033   -0.9193   23.5537 H   0  0  0  0  0  0  0  0  0  0  0  0
   12.0237    0.1913   22.9326 C   0  0  0  0  0  0  0  0  0  0  0  0
   12.6818    1.4256   22.9937 C   0  0  0  0  0  0  0  0  0  0  0  0
   12.1361    2.3469   23.1579 H   0  0  0  0  0  0  0  0  0  0  0  0
   14.0594    1.4729   22.7836 C   0  0  0  0  0  0  0  0  0  0  0  0
   14.5836    2.4194   22.8437 H   0  0  0  0  0  0  0  0  0  0  0  0
   14.7938    0.3986   22.4735 N   0  0  0  0  0  0  0  0  0  0  0  0
   14.1584   -0.7674   22.3386 C   0  0  0  0  0  0  0  0  0  0  0  0
   14.7770   -1.6212   22.0606 H   0  0  0  0  0  0  0  0  0  0  0  0
   12.7837   -0.9114   22.5210 C   0  0  0  0  0  0  0  0  0  0  0  0
   12.3355   -1.8863   22.3565 H   0  0  0  0  0  0  0  0  0  0  0  0
    8.1692    0.8389   22.6104 C   0  0  0  0  0  0  0  0  0  0  0  0
    7.7330    1.6851   22.0642 H   0  0  0  0  0  0  0  0  0  0  0  0
    8.1517    1.1162   23.6711 H   0  0  0  0  0  0  0  0  0  0  0  0
    5.4542    0.6345   20.1598 C   0  0  0  0  0  0  0  0  0  0  0  0
    5.0024    0.6128   21.1502 H   0  0  0  0  0  0  0  0  0  0  0  0
    4.8447    1.3067   19.0998 C   0  0  0  0  0  0  0  0  0  0  0  0
    3.9157    1.8456   19.2506 H   0  0  0  0  0  0  0  0  0  0  0  0
  1  2  1  0
  2  3  2  0
  3  4  1  0
  4  5  1  0
  4  6  2  0
  6  7  1  0
  7  8  1  0
  8  9  1  1
  8 10  1  0
 10 11  1  0
 10 12  1  0
 10 13  1  0
 13 14  1  0
 13 15  1  0
 13 16  1  0
 16 17  1  6
 16 18  1  0
 18 19  1  0
 18 20  1  0
 18 21  1  0
 21 22  1  6
 21 23  1  0
 23 24  1  0
 23 25  1  0
 23 26  1  0
 26 27  2  0
 27 28  1  0
 27 29  1  0
 29 30  1  0
 29 31  2  0
 31 32  1  0
 32 33  1  0
 32 34  2  0
 34 35  1  0
 21 36  1  0
 36 37  1  0
 36 38  1  0
  6 39  1  0
 39 40  1  0
 39 41  2  0
 41 42  1  0
 41  2  1  0
 16  7  1  0
 34 26  1  0
 36  8  1  0
M  END
>  <cnnaffinity>  (1) 
-6.07416

>  <filename>  (1) 
c1cncc(N2[C@@H]3CC[C@H]2C[C@@H](Cc2ccncc2)C3)c1

$$$$
