
     RDKit          3D

 32 35  0  0  0  0  0  0  0  0999 V2000
    4.9137    1.8081   16.9723 H   0  0  0  0  0  0  0  0  0  0  0  0
    5.3846    1.3074   17.8169 C   0  0  0  0  0  0  0  0  0  0  0  0
    6.5478    0.6884   17.5560 N   0  0  0  0  0  0  0  0  0  0  0  0
    7.1577    0.0700   18.5730 C   0  0  0  0  0  0  0  0  0  0  0  0
    8.1125   -0.3954   18.3287 H   0  0  0  0  0  0  0  0  0  0  0  0
    6.6549    0.0216   19.8916 C   0  0  0  0  0  0  0  0  0  0  0  0
    7.3719   -0.6561   20.9871 C   0  0  0  0  0  0  0  0  0  0  0  0
    7.5456   -0.3333   22.3243 C   0  0  0  0  0  0  0  0  0  0  0  0
    7.0709    0.8419   22.9390 N   0  0  0  0  0  0  0  0  0  0  0  0
    6.9456    1.6816   22.3977 H   0  0  0  0  0  0  0  0  0  0  0  0
    6.9213    1.1010   24.2567 C   0  0  0  0  0  0  0  0  0  0  0  0
    6.6773    2.2683   24.7510 N   0  0  0  0  0  0  0  0  0  0  0  0
    6.5909    1.9983   26.1224 C   0  0  0  0  0  0  0  0  0  0  0  0
    6.3473    2.8248   27.2232 C   0  0  0  0  0  0  0  0  0  0  0  0
    6.1996    3.8878   27.0703 H   0  0  0  0  0  0  0  0  0  0  0  0
    6.3006    2.2400   28.4938 C   0  0  0  0  0  0  0  0  0  0  0  0
    6.1078    2.8614   29.3617 H   0  0  0  0  0  0  0  0  0  0  0  0
    6.4946    0.8578   28.6672 C   0  0  0  0  0  0  0  0  0  0  0  0
    6.4513    0.4329   29.6646 H   0  0  0  0  0  0  0  0  0  0  0  0
    6.7453    0.0173   27.5780 C   0  0  0  0  0  0  0  0  0  0  0  0
    6.8939   -1.0502   27.7009 H   0  0  0  0  0  0  0  0  0  0  0  0
    6.7906    0.6269   26.3376 C   0  0  0  0  0  0  0  0  0  0  0  0
    7.0191    0.0524   25.1116 O   0  0  0  0  0  0  0  0  0  0  0  0
    8.3016   -1.4083   22.8729 C   0  0  0  0  0  0  0  0  0  0  0  0
    8.6426   -1.5206   23.8931 H   0  0  0  0  0  0  0  0  0  0  0  0
    8.5768   -2.3224   21.9480 N   0  0  0  0  0  0  0  0  0  0  0  0
    8.0176   -1.8456   20.8256 N   0  0  0  0  0  0  0  0  0  0  0  0
    8.0559   -2.3927   19.9768 H   0  0  0  0  0  0  0  0  0  0  0  0
    5.4299    0.6637   20.1356 C   0  0  0  0  0  0  0  0  0  0  0  0
    5.0037    0.6260   21.1386 H   0  0  0  0  0  0  0  0  0  0  0  0
    4.7898    1.3198   19.0830 C   0  0  0  0  0  0  0  0  0  0  0  0
    3.8586    1.8518   19.2343 H   0  0  0  0  0  0  0  0  0  0  0  0
  1  2  1  0
  2  3  2  0
  3  4  1  0
  4  5  1  0
  4  6  2  0
  6  7  1  0
  7  8  2  0
  8  9  1  0
  9 10  1  0
  9 11  1  0
 11 12  2  0
 12 13  1  0
 13 14  2  0
 14 15  1  0
 14 16  1  0
 16 17  1  0
 16 18  2  0
 18 19  1  0
 18 20  1  0
 20 21  1  0
 20 22  2  0
 22 23  1  0
  8 24  1  0
 24 25  1  0
 24 26  2  0
 26 27  1  0
 27 28  1  0
  6 29  1  0
 29 30  1  0
 29 31  2  0
 31 32  1  0
 31  2  1  0
 27  7  1  0
 23 11  1  0
 22 13  1  0
M  END
>  <cnnaffinity>  (1) 
-5.40467

>  <filename>  (1) 
c1cncc(-c2[nH]ncc2Nc2nc3ccccc3o2)c1

$$$$
