
     RDKit          3D

 34 37  0  0  0  0  0  0  0  0999 V2000
    4.9492    1.8529   16.9147 H   0  0  0  0  0  0  0  0  0  0  0  0
    5.3961    1.3340   17.7643 C   0  0  0  0  0  0  0  0  0  0  0  0
    6.5549    0.6986   17.5295 N   0  0  0  0  0  0  0  0  0  0  0  0
    7.1274    0.0675   18.5639 C   0  0  0  0  0  0  0  0  0  0  0  0
    8.0659   -0.4384   18.3437 H   0  0  0  0  0  0  0  0  0  0  0  0
    6.5959    0.0088   19.8701 C   0  0  0  0  0  0  0  0  0  0  0  0
    7.3332   -0.7034   20.9556 C   0  0  0  0  0  0  0  0  0  0  0  0
    6.7220   -1.5724   21.8883 C   0  0  0  0  0  0  0  0  0  0  0  0
    5.6567   -1.7854   21.8794 H   0  0  0  0  0  0  0  0  0  0  0  0
    7.4190   -2.2533   22.8047 N   0  0  0  0  0  0  0  0  0  0  0  0
    8.7475   -2.1102   22.9052 N   0  0  0  0  0  0  0  0  0  0  0  0
    9.3928   -1.2255   22.1217 C   0  0  0  0  0  0  0  0  0  0  0  0
   10.8768   -1.0798   22.3182 C   0  0  0  0  0  0  0  0  0  0  0  0
   11.6770   -2.2017   22.2155 C   0  0  0  0  0  0  0  0  0  0  0  0
   11.2165   -3.1823   22.2267 H   0  0  0  0  0  0  0  0  0  0  0  0
   13.0915   -2.0992   22.1151 C   0  0  0  0  0  0  0  0  0  0  0  0
   13.6996   -2.9870   21.9696 H   0  0  0  0  0  0  0  0  0  0  0  0
   13.7176   -0.8939   22.2803 C   0  0  0  0  0  0  0  0  0  0  0  0
   14.7904   -0.7719   22.2447 H   0  0  0  0  0  0  0  0  0  0  0  0
   12.9495    0.2722   22.5380 C   0  0  0  0  0  0  0  0  0  0  0  0
   13.6677    1.4131   22.7822 N   0  0  0  0  0  0  0  0  0  0  0  0
   13.0036    2.5316   22.9160 C   0  0  0  0  0  0  0  0  0  0  0  0
   13.5976    3.4298   23.0983 H   0  0  0  0  0  0  0  0  0  0  0  0
   11.5877    2.6130   22.8374 C   0  0  0  0  0  0  0  0  0  0  0  0
   11.1206    3.5856   22.9369 H   0  0  0  0  0  0  0  0  0  0  0  0
   10.8450    1.4678   22.6659 C   0  0  0  0  0  0  0  0  0  0  0  0
    9.7565    1.5192   22.6496 H   0  0  0  0  0  0  0  0  0  0  0  0
   11.5126    0.2076   22.5161 C   0  0  0  0  0  0  0  0  0  0  0  0
    8.7081   -0.5439   21.0982 C   0  0  0  0  0  0  0  0  0  0  0  0
    9.2527    0.1311   20.4487 H   0  0  0  0  0  0  0  0  0  0  0  0
    5.3764    0.6728   20.0849 C   0  0  0  0  0  0  0  0  0  0  0  0
    4.9252    0.7006   21.0779 H   0  0  0  0  0  0  0  0  0  0  0  0
    4.7733    1.3436   19.0159 C   0  0  0  0  0  0  0  0  0  0  0  0
    3.8435    1.8854   19.1375 H   0  0  0  0  0  0  0  0  0  0  0  0
  1  2  1  0
  2  3  2  0
  3  4  1  0
  4  5  1  0
  4  6  2  0
  6  7  1  0
  7  8  2  0
  8  9  1  0
  8 10  1  0
 10 11  2  0
 11 12  1  0
 12 13  1  0
 13 14  2  0
 14 15  1  0
 14 16  1  0
 16 17  1  0
 16 18  2  0
 18 19  1  0
 18 20  1  0
 20 21  2  0
 21 22  1  0
 22 23  1  0
 22 24  2  0
 24 25  1  0
 24 26  1  0
 26 27  1  0
 26 28  2  0
 12 29  2  0
 29 30  1  0
  6 31  1  0
 31 32  1  0
 31 33  2  0
 33 34  1  0
 33  2  1  0
 29  7  1  0
 28 13  1  0
 28 20  1  0
M  END
>  <cnnaffinity>  (1) 
-6.29262

>  <filename>  (1) 
c1cncc(-c2cnnc(-c3cccc4ncccc34)c2)c1

$$$$
