
     RDKit          3D

 42 45  0  0  0  0  0  0  0  0999 V2000
    5.0184    1.8425   16.9968 H   0  0  0  0  0  0  0  0  0  0  0  0
    5.4592    1.3070   17.8335 C   0  0  0  0  0  0  0  0  0  0  0  0
    6.6013    0.6473   17.5846 N   0  0  0  0  0  0  0  0  0  0  0  0
    7.1704   -0.0057   18.6070 C   0  0  0  0  0  0  0  0  0  0  0  0
    8.0937   -0.5274   18.3663 H   0  0  0  0  0  0  0  0  0  0  0  0
    6.6615   -0.0500   19.9400 C   0  0  0  0  0  0  0  0  0  0  0  0
    7.2572   -0.7891   20.9747 N   0  0  0  0  0  0  0  0  0  0  0  0
    7.2128   -0.3782   22.3910 C   0  0  1  0  0  0  0  0  0  0  0  0
    6.1911   -0.1297   22.7022 H   0  0  0  0  0  0  0  0  0  0  0  0
    7.7020   -1.6667   23.0899 C   0  0  0  0  0  0  0  0  0  0  0  0
    6.8368   -2.2945   23.3247 H   0  0  0  0  0  0  0  0  0  0  0  0
    8.2268   -1.4536   24.0259 H   0  0  0  0  0  0  0  0  0  0  0  0
    8.5960   -2.3579   22.0273 C   0  0  0  0  0  0  0  0  0  0  0  0
    8.1256   -3.2890   21.7001 H   0  0  0  0  0  0  0  0  0  0  0  0
    9.6015   -2.6158   22.3695 H   0  0  0  0  0  0  0  0  0  0  0  0
    8.5987   -1.3728   20.8451 C   0  0  2  0  0  0  0  0  0  0  0  0
    8.6919   -1.8957   19.8987 H   0  0  0  0  0  0  0  0  0  0  0  0
    9.6711   -0.2642   20.8833 C   0  0  0  0  0  0  0  0  0  0  0  0
    9.5094    0.3808   20.0123 H   0  0  0  0  0  0  0  0  0  0  0  0
   10.6647   -0.7105   20.7510 H   0  0  0  0  0  0  0  0  0  0  0  0
    9.6124    0.6066   22.1601 C   0  0  2  0  0  0  0  0  0  0  0  0
   10.0209    1.5963   21.9095 H   0  0  0  0  0  0  0  0  0  0  0  0
   10.5272    0.0453   23.2770 C   0  0  0  0  0  0  0  0  0  0  0  0
   10.2745    0.5332   24.2261 H   0  0  0  0  0  0  0  0  0  0  0  0
   10.3646   -1.0225   23.4415 H   0  0  0  0  0  0  0  0  0  0  0  0
   11.9918    0.3039   23.0084 C   0  0  0  0  0  0  0  0  0  0  0  0
   12.8947   -0.6855   22.5710 C   0  0  0  0  0  0  0  0  0  0  0  0
   12.5677   -1.7125   22.3817 H   0  0  0  0  0  0  0  0  0  0  0  0
   14.1995   -0.4592   22.3550 N   0  0  0  0  0  0  0  0  0  0  0  0
   14.6434    0.7889   22.5127 C   0  0  0  0  0  0  0  0  0  0  0  0
   15.6754    0.9620   22.2262 H   0  0  0  0  0  0  0  0  0  0  0  0
   13.8392    1.8532   22.9165 C   0  0  0  0  0  0  0  0  0  0  0  0
   14.2408    2.8587   22.9609 H   0  0  0  0  0  0  0  0  0  0  0  0
   12.4963    1.6069   23.1649 C   0  0  0  0  0  0  0  0  0  0  0  0
   11.8456    2.4389   23.4435 H   0  0  0  0  0  0  0  0  0  0  0  0
    8.1413    0.8406   22.6061 C   0  0  0  0  0  0  0  0  0  0  0  0
    7.7213    1.6745   22.0275 H   0  0  0  0  0  0  0  0  0  0  0  0
    8.1077    1.1443   23.6597 H   0  0  0  0  0  0  0  0  0  0  0  0
    5.4485    0.6345   20.1552 C   0  0  0  0  0  0  0  0  0  0  0  0
    4.9833    0.6084   21.1398 H   0  0  0  0  0  0  0  0  0  0  0  0
    4.8511    1.3162   19.0928 C   0  0  0  0  0  0  0  0  0  0  0  0
    3.9251    1.8626   19.2355 H   0  0  0  0  0  0  0  0  0  0  0  0
  1  2  1  0
  2  3  2  0
  3  4  1  0
  4  5  1  0
  4  6  2  0
  6  7  1  0
  7  8  1  0
  8  9  1  1
  8 10  1  0
 10 11  1  0
 10 12  1  0
 10 13  1  0
 13 14  1  0
 13 15  1  0
 13 16  1  0
 16 17  1  6
 16 18  1  0
 18 19  1  0
 18 20  1  0
 18 21  1  0
 21 22  1  6
 21 23  1  0
 23 24  1  0
 23 25  1  0
 23 26  1  0
 26 27  2  0
 27 28  1  0
 27 29  1  0
 29 30  2  0
 30 31  1  0
 30 32  1  0
 32 33  1  0
 32 34  2  0
 34 35  1  0
 21 36  1  0
 36 37  1  0
 36 38  1  0
  6 39  1  0
 39 40  1  0
 39 41  2  0
 41 42  1  0
 41  2  1  0
 16  7  1  0
 34 26  1  0
 36  8  1  0
M  END
>  <cnnaffinity>  (1) 
-6.06894

>  <filename>  (1) 
c1cncc(C[C@H]2C[C@H]3CC[C@@H](C2)N3c2cccnc2)c1

$$$$
