
     RDKit          3D

 34 38  0  0  0  0  0  0  0  0999 V2000
    4.9212    1.7736   17.0026 H   0  0  0  0  0  0  0  0  0  0  0  0
    5.4067    1.2878   17.8467 C   0  0  0  0  0  0  0  0  0  0  0  0
    6.5717    0.6710   17.5923 N   0  0  0  0  0  0  0  0  0  0  0  0
    7.1766    0.0574   18.6118 C   0  0  0  0  0  0  0  0  0  0  0  0
    8.1238   -0.4285   18.3734 H   0  0  0  0  0  0  0  0  0  0  0  0
    6.6499    0.0119   19.9133 C   0  0  0  0  0  0  0  0  0  0  0  0
    7.3482   -0.6888   20.9918 C   0  0  0  0  0  0  0  0  0  0  0  0
    6.8746   -0.7448   22.1968 N   0  0  0  0  0  0  0  0  0  0  0  0
    7.7386   -1.4525   22.9760 N   0  0  0  0  0  0  0  0  0  0  0  0
    7.7811   -1.8758   24.2829 C   0  0  0  0  0  0  0  0  0  0  0  0
    6.8006   -1.5164   25.3175 C   0  0  0  0  0  0  0  0  0  0  0  0
    6.3000   -0.2254   25.3722 C   0  0  0  0  0  0  0  0  0  0  0  0
    6.5963    0.5016   24.6182 H   0  0  0  0  0  0  0  0  0  0  0  0
    5.4096    0.1635   26.4019 C   0  0  0  0  0  0  0  0  0  0  0  0
    5.0471    1.1899   26.4133 H   0  0  0  0  0  0  0  0  0  0  0  0
    5.0178   -0.7382   27.3710 C   0  0  0  0  0  0  0  0  0  0  0  0
    4.3435   -0.4559   28.1731 H   0  0  0  0  0  0  0  0  0  0  0  0
    5.4857   -2.0844   27.3499 C   0  0  0  0  0  0  0  0  0  0  0  0
    5.0498   -2.9402   28.3366 N   0  0  0  0  0  0  0  0  0  0  0  0
    5.4710   -4.1848   28.2826 C   0  0  0  0  0  0  0  0  0  0  0  0
    5.1244   -4.8560   29.0651 H   0  0  0  0  0  0  0  0  0  0  0  0
    6.3319   -4.7045   27.2728 C   0  0  0  0  0  0  0  0  0  0  0  0
    6.6278   -5.7489   27.2918 H   0  0  0  0  0  0  0  0  0  0  0  0
    6.7794   -3.8681   26.2777 C   0  0  0  0  0  0  0  0  0  0  0  0
    7.4345   -4.2192   25.4796 H   0  0  0  0  0  0  0  0  0  0  0  0
    6.3822   -2.4923   26.2979 C   0  0  0  0  0  0  0  0  0  0  0  0
    8.8698   -2.5937   24.4512 N   0  0  0  0  0  0  0  0  0  0  0  0
    9.5694   -2.6353   23.2669 N   0  0  0  0  0  0  0  0  0  0  0  0
    8.8629   -1.9574   22.4075 C   0  0  0  0  0  0  0  0  0  0  0  0
    8.9055   -1.5124   20.7293 S   0  0  0  0  0  0  0  0  0  0  0  0
    5.4287    0.6575   20.1659 C   0  0  0  0  0  0  0  0  0  0  0  0
    5.0016    0.6326   21.1717 H   0  0  0  0  0  0  0  0  0  0  0  0
    4.8032    1.3113   19.1094 C   0  0  0  0  0  0  0  0  0  0  0  0
    3.8716    1.8453   19.2600 H   0  0  0  0  0  0  0  0  0  0  0  0
  1  2  1  0
  2  3  2  0
  3  4  1  0
  4  5  1  0
  4  6  2  0
  6  7  1  0
  7  8  2  0
  8  9  1  0
  9 10  1  0
 10 11  1  0
 11 12  2  0
 12 13  1  0
 12 14  1  0
 14 15  1  0
 14 16  2  0
 16 17  1  0
 16 18  1  0
 18 19  2  0
 19 20  1  0
 20 21  1  0
 20 22  2  0
 22 23  1  0
 22 24  1  0
 24 25  1  0
 24 26  2  0
 10 27  2  0
 27 28  1  0
 28 29  2  0
 29 30  1  0
  6 31  1  0
 31 32  1  0
 31 33  2  0
 33 34  1  0
 33  2  1  0
 30  7  1  0
 29  9  1  0
 26 11  1  0
 26 18  1  0
M  END
>  <cnnaffinity>  (1) 
-5.51554

>  <filename>  (1) 
c1cncc(-c2nn3c(-c4cccc5ncccc45)nnc3s2)c1

$$$$
