
     RDKit          3D

 39 42  0  0  0  0  0  0  0  0999 V2000
    4.8229    1.4279   18.8528 C   0  0  0  0  0  0  0  0  0  0  0  0
    5.4640    1.2664   17.6229 C   0  0  0  0  0  0  0  0  0  0  0  0
    6.5472    0.4851   17.4626 N   0  0  0  0  0  0  0  0  0  0  0  0
    7.0521   -0.1224   18.5416 C   0  0  0  0  0  0  0  0  0  0  0  0
    6.5391    0.0595   19.8415 C   0  0  0  0  0  0  0  0  0  0  0  0
    7.2198   -0.4792   20.9738 N   0  0  0  0  0  0  0  0  0  0  0  0
    7.7790   -1.7206   20.9345 N   0  0  0  0  0  0  0  0  0  0  0  0
    8.2438   -1.8869   22.1604 C   0  0  0  0  0  0  0  0  0  0  0  0
    9.0077   -3.1099   22.5765 C   0  0  0  0  0  0  0  0  0  0  0  0
   10.3657   -2.8635   23.3225 C   0  0  0  0  0  0  0  0  0  0  0  0
    9.9604   -3.8744   24.4215 C   0  0  0  0  0  0  0  0  0  0  0  0
    8.5486   -4.0015   23.7887 C   0  0  0  0  0  0  0  0  0  0  0  0
    8.2563   -5.0190   23.5070 H   0  0  0  0  0  0  0  0  0  0  0  0
    7.7383   -3.5604   24.3822 H   0  0  0  0  0  0  0  0  0  0  0  0
   10.5573   -4.7962   24.4163 H   0  0  0  0  0  0  0  0  0  0  0  0
    9.9707   -3.4900   25.4488 H   0  0  0  0  0  0  0  0  0  0  0  0
   11.2699   -3.1025   22.7498 H   0  0  0  0  0  0  0  0  0  0  0  0
   10.4578   -1.8363   23.6954 H   0  0  0  0  0  0  0  0  0  0  0  0
    9.0941   -3.6847   21.6514 H   0  0  0  0  0  0  0  0  0  0  0  0
    8.0496   -0.8271   22.9824 N   0  0  0  0  0  0  0  0  0  0  0  0
    7.4266    0.0545   22.2187 C   0  0  0  0  0  0  0  0  0  0  0  0
    7.1133    1.4303   22.7175 C   0  0  0  0  0  0  0  0  0  0  0  0
    6.1104    1.4137   23.9021 C   0  0  0  0  0  0  0  0  0  0  0  0
    5.8793    2.7393   24.5530 C   0  0  0  0  0  0  0  0  0  0  0  0
    4.8478    3.5182   24.3830 N   0  0  0  0  0  0  0  0  0  0  0  0
    5.0600    4.6712   25.1029 N   0  0  0  0  0  0  0  0  0  0  0  0
    6.2127    4.5532   25.6935 C   0  0  0  0  0  0  0  0  0  0  0  0
    6.7792    3.3505   25.3865 N   0  0  0  0  0  0  0  0  0  0  0  0
    7.6062    2.9446   25.7785 H   0  0  0  0  0  0  0  0  0  0  0  0
    6.6733    5.2998   26.3274 H   0  0  0  0  0  0  0  0  0  0  0  0
    5.1376    1.0465   23.5574 H   0  0  0  0  0  0  0  0  0  0  0  0
    6.4658    0.7050   24.6589 H   0  0  0  0  0  0  0  0  0  0  0  0
    8.0677    1.8446   23.0639 H   0  0  0  0  0  0  0  0  0  0  0  0
    6.7703    2.0860   21.9089 H   0  0  0  0  0  0  0  0  0  0  0  0
    5.3598    0.8028   19.9831 C   0  0  0  0  0  0  0  0  0  0  0  0
    4.8689    0.8884   20.9505 H   0  0  0  0  0  0  0  0  0  0  0  0
    7.9077   -0.7715   18.3730 H   0  0  0  0  0  0  0  0  0  0  0  0
    5.0912    1.7694   16.7324 H   0  0  0  0  0  0  0  0  0  0  0  0
    3.9395    2.0518   18.9288 H   0  0  0  0  0  0  0  0  0  0  0  0
  1  2  2  0
  2  3  1  0
  3  4  2  0
  4  5  1  0
  5  6  1  0
  6  7  1  0
  7  8  2  0
  8  9  1  0
  9 10  1  0
 10 11  1  0
 11 12  1  0
 12 13  1  0
 12 14  1  0
 11 15  1  0
 11 16  1  0
 10 17  1  0
 10 18  1  0
  9 19  1  0
  8 20  1  0
 20 21  2  0
 21 22  1  0
 22 23  1  0
 23 24  1  0
 24 25  2  0
 25 26  1  0
 26 27  2  0
 27 28  1  0
 28 29  1  0
 27 30  1  0
 23 31  1  0
 23 32  1  0
 22 33  1  0
 22 34  1  0
  5 35  2  0
 35 36  1  0
  4 37  1  0
  2 38  1  0
  1 39  1  0
 35  1  1  0
 21  6  1  0
 28 24  1  0
 12  9  1  0
M  END
>  <cnnaffinity>  (1) 
-5.8534

>  <filename>  (1) 
c1cncc(-n2nc(C3CCC3)nc2CCc2nnc[nH]2)c1

$$$$
