
     RDKit          3D

 33 35  0  0  0  0  0  0  0  0999 V2000
    4.9421    1.8481   16.9869 H   0  0  0  0  0  0  0  0  0  0  0  0
    5.4088    1.3171   17.8130 C   0  0  0  0  0  0  0  0  0  0  0  0
    6.5634    0.6895   17.5383 N   0  0  0  0  0  0  0  0  0  0  0  0
    7.1661    0.0332   18.5429 C   0  0  0  0  0  0  0  0  0  0  0  0
    8.0992   -0.4739   18.3013 H   0  0  0  0  0  0  0  0  0  0  0  0
    6.6581   -0.0392   19.8655 C   0  0  0  0  0  0  0  0  0  0  0  0
    7.2807   -0.7572   20.9020 N   0  0  0  0  0  0  0  0  0  0  0  0
    6.7041   -0.8514   21.7301 H   0  0  0  0  0  0  0  0  0  0  0  0
    8.6748   -0.7926   21.1587 C   0  0  0  0  0  0  0  0  0  0  0  0
    9.6853    0.1326   20.7710 C   0  0  0  0  0  0  0  0  0  0  0  0
    9.5558    1.0465   20.1974 H   0  0  0  0  0  0  0  0  0  0  0  0
   10.8945   -0.2308   21.1795 N   0  0  0  0  0  0  0  0  0  0  0  0
   10.6729   -1.3713   21.8706 N   0  0  0  0  0  0  0  0  0  0  0  0
   11.4154   -2.0213   22.0941 H   0  0  0  0  0  0  0  0  0  0  0  0
    9.3732   -1.7669   21.8653 C   0  0  0  0  0  0  0  0  0  0  0  0
    9.0555   -2.9960   22.4391 N   0  0  0  0  0  0  0  0  0  0  0  0
    9.1415   -3.1001   23.9012 C   0  0  0  0  0  0  0  0  0  0  0  0
    8.2703   -2.6270   24.3790 H   0  0  0  0  0  0  0  0  0  0  0  0
   10.0360   -2.5811   24.2574 H   0  0  0  0  0  0  0  0  0  0  0  0
    9.2114   -4.5726   24.2817 C   0  0  0  0  0  0  0  0  0  0  0  0
    9.0419   -4.6769   25.3568 H   0  0  0  0  0  0  0  0  0  0  0  0
   10.2122   -4.9610   24.0478 H   0  0  0  0  0  0  0  0  0  0  0  0
    8.1846   -5.3556   23.6766 O   0  0  0  0  0  0  0  0  0  0  0  0
    7.9632   -5.1491   22.2846 C   0  0  0  0  0  0  0  0  0  0  0  0
    7.0144   -5.6482   22.0652 H   0  0  0  0  0  0  0  0  0  0  0  0
    8.7345   -5.6151   21.6534 H   0  0  0  0  0  0  0  0  0  0  0  0
    7.8516   -3.6680   21.9468 C   0  0  0  0  0  0  0  0  0  0  0  0
    6.9309   -3.2770   22.4118 H   0  0  0  0  0  0  0  0  0  0  0  0
    7.7645   -3.5095   20.8699 H   0  0  0  0  0  0  0  0  0  0  0  0
    5.4400    0.6069   20.1201 C   0  0  0  0  0  0  0  0  0  0  0  0
    5.0147    0.5843   21.1258 H   0  0  0  0  0  0  0  0  0  0  0  0
    4.8152    1.2984   19.0808 C   0  0  0  0  0  0  0  0  0  0  0  0
    3.8833    1.8293   19.2407 H   0  0  0  0  0  0  0  0  0  0  0  0
  1  2  1  0
  2  3  2  0
  3  4  1  0
  4  5  1  0
  4  6  2  0
  6  7  1  0
  7  8  1  0
  7  9  1  0
  9 10  1  0
 10 11  1  0
 10 12  2  0
 12 13  1  0
 13 14  1  0
 13 15  1  0
 15 16  1  0
 16 17  1  0
 17 18  1  0
 17 19  1  0
 17 20  1  0
 20 21  1  0
 20 22  1  0
 20 23  1  0
 23 24  1  0
 24 25  1  0
 24 26  1  0
 24 27  1  0
 27 28  1  0
 27 29  1  0
  6 30  1  0
 30 31  1  0
 30 32  2  0
 32 33  1  0
 32  2  1  0
 15  9  2  0
 27 16  1  0
M  END
>  <cnnaffinity>  (1) 
-5.12727

>  <filename>  (1) 
c1cncc(Nc2cn[nH]c2N2CCOCC2)c1

$$$$
