
     RDKit          3D

 38 41  0  0  0  0  0  0  0  0999 V2000
    5.0147    1.8782   17.1009 H   0  0  0  0  0  0  0  0  0  0  0  0
    5.4727    1.2634   17.8726 C   0  0  0  0  0  0  0  0  0  0  0  0
    6.6100    0.6411   17.5244 N   0  0  0  0  0  0  0  0  0  0  0  0
    7.2305   -0.0643   18.4775 C   0  0  0  0  0  0  0  0  0  0  0  0
    8.1625   -0.5477   18.1818 H   0  0  0  0  0  0  0  0  0  0  0  0
    6.7465   -0.2155   19.7899 C   0  0  0  0  0  0  0  0  0  0  0  0
    7.5701   -0.9200   20.7895 C   0  0  0  0  0  0  0  0  0  0  0  0
    8.8798   -0.7086   21.0226 C   0  0  0  0  0  0  0  0  0  0  0  0
    9.5349   -0.0836   20.4324 H   0  0  0  0  0  0  0  0  0  0  0  0
    9.4580   -1.5015   22.4663 S   0  0  0  0  0  0  0  0  0  0  0  0
    7.8671   -2.1886   22.7196 C   0  0  0  0  0  0  0  0  0  0  0  0
    7.2247   -2.9239   23.6237 N   0  0  0  0  0  0  0  0  0  0  0  0
    5.9516   -2.8933   23.1371 C   0  0  0  0  0  0  0  0  0  0  0  0
    4.8154   -3.3558   23.7272 N   0  0  0  0  0  0  0  0  0  0  0  0
    4.1193   -2.6679   23.4986 H   0  0  0  0  0  0  0  0  0  0  0  0
    4.7027   -4.0633   24.9949 C   0  0  0  0  0  0  0  0  0  0  0  0
    3.6246   -4.2426   25.1400 H   0  0  0  0  0  0  0  0  0  0  0  0
    5.3922   -5.4312   24.8809 C   0  0  0  0  0  0  0  0  0  0  0  0
    4.9431   -5.9763   24.0436 H   0  0  0  0  0  0  0  0  0  0  0  0
    6.4392   -5.2458   24.6095 H   0  0  0  0  0  0  0  0  0  0  0  0
    5.3286   -6.2420   26.1882 C   0  0  0  0  0  0  0  0  0  0  0  0
    5.8805   -7.1813   26.0678 H   0  0  0  0  0  0  0  0  0  0  0  0
    4.2912   -6.5284   26.4226 H   0  0  0  0  0  0  0  0  0  0  0  0
    5.9054   -5.4253   27.3553 C   0  0  0  0  0  0  0  0  0  0  0  0
    5.8662   -5.9954   28.2921 H   0  0  0  0  0  0  0  0  0  0  0  0
    6.9695   -5.2368   27.1513 H   0  0  0  0  0  0  0  0  0  0  0  0
    5.1708   -4.0833   27.5081 C   0  0  0  0  0  0  0  0  0  0  0  0
    5.6001   -3.4960   28.3282 H   0  0  0  0  0  0  0  0  0  0  0  0
    4.1263   -4.2852   27.7907 H   0  0  0  0  0  0  0  0  0  0  0  0
    5.2017   -3.2582   26.2086 C   0  0  0  0  0  0  0  0  0  0  0  0
    4.5855   -2.3574   26.3197 H   0  0  0  0  0  0  0  0  0  0  0  0
    6.2216   -2.9265   25.9847 H   0  0  0  0  0  0  0  0  0  0  0  0
    5.7800   -2.2561   21.9794 N   0  0  0  0  0  0  0  0  0  0  0  0
    7.0348   -1.7827   21.7432 N   0  0  0  0  0  0  0  0  0  0  0  0
    5.5301    0.4046   20.1215 C   0  0  0  0  0  0  0  0  0  0  0  0
    5.1258    0.2827   21.1275 H   0  0  0  0  0  0  0  0  0  0  0  0
    4.8952    1.1724   19.1456 C   0  0  0  0  0  0  0  0  0  0  0  0
    3.9928    1.7305   19.3686 H   0  0  0  0  0  0  0  0  0  0  0  0
  1  2  1  0
  2  3  2  0
  3  4  1  0
  4  5  1  0
  4  6  2  0
  6  7  1  0
  7  8  2  0
  8  9  1  0
  8 10  1  0
 10 11  1  0
 11 12  2  0
 12 13  1  0
 13 14  1  0
 14 15  1  0
 14 16  1  0
 16 17  1  0
 16 18  1  0
 18 19  1  0
 18 20  1  0
 18 21  1  0
 21 22  1  0
 21 23  1  0
 21 24  1  0
 24 25  1  0
 24 26  1  0
 24 27  1  0
 27 28  1  0
 27 29  1  0
 27 30  1  0
 30 31  1  0
 30 32  1  0
 13 33  2  0
 33 34  1  0
  6 35  1  0
 35 36  1  0
 35 37  2  0
 37 38  1  0
 37  2  1  0
 34  7  1  0
 34 11  1  0
 30 16  1  0
M  END
>  <cnnaffinity>  (1) 
-5.4863

>  <filename>  (1) 
c1cncc(-c2csc3nc(NC4CCCCC4)nn23)c1

$$$$
