
     RDKit          3D

 32 35  0  0  0  0  0  0  0  0999 V2000
    4.9209    1.7834   16.9917 H   0  0  0  0  0  0  0  0  0  0  0  0
    5.4011    1.2932   17.8368 C   0  0  0  0  0  0  0  0  0  0  0  0
    6.5646    0.6728   17.5847 N   0  0  0  0  0  0  0  0  0  0  0  0
    7.1764    0.0607   18.6024 C   0  0  0  0  0  0  0  0  0  0  0  0
    8.1137   -0.4334   18.3655 H   0  0  0  0  0  0  0  0  0  0  0  0
    6.6638    0.0063   19.9111 C   0  0  0  0  0  0  0  0  0  0  0  0
    7.3673   -0.6795   20.9327 N   0  0  0  0  0  0  0  0  0  0  0  0
    8.7462   -0.8032   21.0475 C   0  0  0  0  0  0  0  0  0  0  0  0
    9.3949   -0.3292   20.3241 H   0  0  0  0  0  0  0  0  0  0  0  0
    9.0239   -1.5228   22.1699 C   0  0  0  0  0  0  0  0  0  0  0  0
   10.0081   -1.7818   22.5405 H   0  0  0  0  0  0  0  0  0  0  0  0
    7.7770   -1.8732   22.7862 C   0  0  0  0  0  0  0  0  0  0  0  0
    7.6059   -2.6467   24.0072 C   0  0  0  0  0  0  0  0  0  0  0  0
    6.0057   -2.9897   24.6330 S   0  0  0  0  0  0  0  0  0  0  0  0
    6.6815   -3.8719   25.9745 C   0  0  0  0  0  0  0  0  0  0  0  0
    5.9994   -4.5154   27.0191 C   0  0  0  0  0  0  0  0  0  0  0  0
    4.9139   -4.5041   27.0599 H   0  0  0  0  0  0  0  0  0  0  0  0
    6.7470   -5.1685   27.9961 C   0  0  0  0  0  0  0  0  0  0  0  0
    6.2371   -5.6759   28.8138 H   0  0  0  0  0  0  0  0  0  0  0  0
    8.1621   -5.1921   27.9451 C   0  0  0  0  0  0  0  0  0  0  0  0
    8.7263   -5.7252   28.7088 H   0  0  0  0  0  0  0  0  0  0  0  0
    8.8384   -4.5524   26.9185 C   0  0  0  0  0  0  0  0  0  0  0  0
    9.9276   -4.5567   26.8612 H   0  0  0  0  0  0  0  0  0  0  0  0
    8.0949   -3.8867   25.9208 C   0  0  0  0  0  0  0  0  0  0  0  0
    8.5873   -3.1766   24.7813 C   0  0  0  0  0  0  0  0  0  0  0  0
    9.6466   -3.0778   24.5690 H   0  0  0  0  0  0  0  0  0  0  0  0
    6.7907   -1.3385   21.9915 C   0  0  0  0  0  0  0  0  0  0  0  0
    5.7163   -1.4009   22.0650 H   0  0  0  0  0  0  0  0  0  0  0  0
    5.4383    0.6465   20.1650 C   0  0  0  0  0  0  0  0  0  0  0  0
    5.0100    0.6447   21.1695 H   0  0  0  0  0  0  0  0  0  0  0  0
    4.8104    1.3080   19.1055 C   0  0  0  0  0  0  0  0  0  0  0  0
    3.8785    1.8391   19.2594 H   0  0  0  0  0  0  0  0  0  0  0  0
  1  2  1  0
  2  3  2  0
  3  4  1  0
  4  5  1  0
  4  6  2  0
  6  7  1  0
  7  8  1  0
  8  9  1  0
  8 10  2  0
 10 11  1  0
 10 12  1  0
 12 13  1  0
 13 14  1  0
 14 15  1  0
 15 16  2  0
 16 17  1  0
 16 18  1  0
 18 19  1  0
 18 20  2  0
 20 21  1  0
 20 22  1  0
 22 23  1  0
 22 24  2  0
 24 25  1  0
 25 26  1  0
 12 27  2  0
 27 28  1  0
  6 29  1  0
 29 30  1  0
 29 31  2  0
 31 32  1  0
 31  2  1  0
 27  7  1  0
 25 13  2  0
 24 15  1  0
M  END
>  <cnnaffinity>  (1) 
-5.34475

>  <filename>  (1) 
c1cncc(-n2ccc(-c3cc4ccccc4s3)c2)c1

$$$$
