
     RDKit          3D

 25 27  0  0  0  0  0  0  0  0999 V2000
    4.9240    1.8233   16.9587 H   0  0  0  0  0  0  0  0  0  0  0  0
    5.3780    1.3205   17.8051 C   0  0  0  0  0  0  0  0  0  0  0  0
    6.5462    0.7079   17.5571 N   0  0  0  0  0  0  0  0  0  0  0  0
    7.1458    0.1071   18.5935 C   0  0  0  0  0  0  0  0  0  0  0  0
    8.0989   -0.3798   18.3791 H   0  0  0  0  0  0  0  0  0  0  0  0
    6.6308    0.0769   19.9126 C   0  0  0  0  0  0  0  0  0  0  0  0
    7.3242   -0.6387   21.0270 C   0  0  0  0  0  0  0  0  0  0  0  0
    7.6769   -2.0325   21.0105 C   0  0  0  0  0  0  0  0  0  0  0  0
    7.4158   -2.6994   20.2036 H   0  0  0  0  0  0  0  0  0  0  0  0
    8.2589   -2.5398   22.0567 N   0  0  0  0  0  0  0  0  0  0  0  0
    8.4262   -1.3500   23.2100 S   0  0  0  0  0  0  0  0  0  0  0  0
    7.6550   -0.1377   22.2734 C   0  0  0  0  0  0  0  0  0  0  0  0
    7.4249    1.1216   22.8076 N   0  0  0  0  0  0  0  0  0  0  0  0
    7.1318    1.4187   24.1288 C   0  0  0  0  0  0  0  0  0  0  0  0
    7.0108    0.6224   24.8567 H   0  0  0  0  0  0  0  0  0  0  0  0
    6.9913    2.7666   24.2363 C   0  0  0  0  0  0  0  0  0  0  0  0
    6.7592    3.3069   25.1472 H   0  0  0  0  0  0  0  0  0  0  0  0
    7.2026    3.3367   22.9372 C   0  0  0  0  0  0  0  0  0  0  0  0
    7.1664    4.3811   22.6525 H   0  0  0  0  0  0  0  0  0  0  0  0
    7.4701    2.3044   22.0917 C   0  0  0  0  0  0  0  0  0  0  0  0
    7.6639    2.2449   21.0301 H   0  0  0  0  0  0  0  0  0  0  0  0
    5.3965    0.7186   20.1307 C   0  0  0  0  0  0  0  0  0  0  0  0
    4.9637    0.7151   21.1339 H   0  0  0  0  0  0  0  0  0  0  0  0
    4.7600    1.3469   19.0577 C   0  0  0  0  0  0  0  0  0  0  0  0
    3.8130    1.8596   19.1845 H   0  0  0  0  0  0  0  0  0  0  0  0
  1  2  1  0
  2  3  2  0
  3  4  1  0
  4  5  1  0
  4  6  2  0
  6  7  1  0
  7  8  1  0
  8  9  1  0
  8 10  2  0
 10 11  1  0
 11 12  1  0
 12 13  1  0
 13 14  1  0
 14 15  1  0
 14 16  2  0
 16 17  1  0
 16 18  1  0
 18 19  1  0
 18 20  2  0
 20 21  1  0
  6 22  1  0
 22 23  1  0
 22 24  2  0
 24 25  1  0
 24  2  1  0
 12  7  2  0
 20 13  1  0
M  END
>  <cnnaffinity>  (1) 
-4.58018

>  <filename>  (1) 
c1cncc(-c2cnsc2-n2cccc2)c1

$$$$
