
     RDKit          3D

 41 44  0  0  0  0  0  0  0  0999 V2000
    4.8143    1.3382   19.0134 C   0  0  0  0  0  0  0  0  0  0  0  0
    5.4315    1.3119   17.7598 C   0  0  0  0  0  0  0  0  0  0  0  0
    6.5612    0.6229   17.5147 N   0  0  0  0  0  0  0  0  0  0  0  0
    7.1309   -0.0332   18.5326 C   0  0  0  0  0  0  0  0  0  0  0  0
    6.6319    0.0102   19.8484 C   0  0  0  0  0  0  0  0  0  0  0  0
    7.3454   -0.5987   20.9239 N   0  0  0  0  0  0  0  0  0  0  0  0
    7.6462   -1.9209   20.8724 N   0  0  0  0  0  0  0  0  0  0  0  0
    8.2850   -2.1347   22.0116 C   0  0  0  0  0  0  0  0  0  0  0  0
    8.7987   -3.4887   22.4364 C   0  0  0  0  0  0  0  0  0  0  0  0
    8.7677   -3.7911   23.9511 C   0  0  0  0  0  0  0  0  0  0  0  0
    8.7534   -5.3333   24.0899 C   0  0  0  0  0  0  0  0  0  0  0  0
    8.4146   -5.9067   22.6916 C   0  0  0  0  0  0  0  0  0  0  0  0
    8.0504   -4.6962   21.8197 C   0  0  0  0  0  0  0  0  0  0  0  0
    8.2905   -4.8495   20.7631 H   0  0  0  0  0  0  0  0  0  0  0  0
    6.9683   -4.5221   21.8855 H   0  0  0  0  0  0  0  0  0  0  0  0
    9.2536   -6.4538   22.2534 H   0  0  0  0  0  0  0  0  0  0  0  0
    7.6014   -6.6401   22.7327 H   0  0  0  0  0  0  0  0  0  0  0  0
    9.7182   -5.7170   24.4493 H   0  0  0  0  0  0  0  0  0  0  0  0
    7.9950   -5.6219   24.8269 H   0  0  0  0  0  0  0  0  0  0  0  0
    9.6335   -3.3517   24.4570 H   0  0  0  0  0  0  0  0  0  0  0  0
    7.8600   -3.3600   24.3896 H   0  0  0  0  0  0  0  0  0  0  0  0
    9.8579   -3.4525   22.1595 H   0  0  0  0  0  0  0  0  0  0  0  0
    8.4676   -1.0168   22.7632 N   0  0  0  0  0  0  0  0  0  0  0  0
    7.8457   -0.0713   22.0788 C   0  0  0  0  0  0  0  0  0  0  0  0
    7.6746    1.3449   22.5856 C   0  0  0  0  0  0  0  0  0  0  0  0
    6.5195    1.5516   23.5779 C   0  0  0  0  0  0  0  0  0  0  0  0
    5.4505    2.4230   23.3707 C   0  0  0  0  0  0  0  0  0  0  0  0
    4.4517    2.5894   24.2465 N   0  0  0  0  0  0  0  0  0  0  0  0
    4.5255    1.8829   25.3730 C   0  0  0  0  0  0  0  0  0  0  0  0
    5.4951    1.0309   25.6979 N   0  0  0  0  0  0  0  0  0  0  0  0
    6.4709    0.8706   24.8024 C   0  0  0  0  0  0  0  0  0  0  0  0
    7.2641    0.1595   25.0571 H   0  0  0  0  0  0  0  0  0  0  0  0
    3.7173    2.0144   26.0976 H   0  0  0  0  0  0  0  0  0  0  0  0
    5.3895    3.0164   22.4505 H   0  0  0  0  0  0  0  0  0  0  0  0
    7.5905    2.0456   21.7474 H   0  0  0  0  0  0  0  0  0  0  0  0
    8.6181    1.5968   23.0872 H   0  0  0  0  0  0  0  0  0  0  0  0
    5.4242    0.6744   20.0816 C   0  0  0  0  0  0  0  0  0  0  0  0
    4.9736    0.6539   21.0721 H   0  0  0  0  0  0  0  0  0  0  0  0
    8.0273   -0.6024   18.2955 H   0  0  0  0  0  0  0  0  0  0  0  0
    4.9933    1.8498   16.9201 H   0  0  0  0  0  0  0  0  0  0  0  0
    3.8798    1.8734   19.1431 H   0  0  0  0  0  0  0  0  0  0  0  0
  1  2  2  0
  2  3  1  0
  3  4  2  0
  4  5  1  0
  5  6  1  0
  6  7  1  0
  7  8  2  0
  8  9  1  0
  9 10  1  0
 10 11  1  0
 11 12  1  0
 12 13  1  0
 13 14  1  0
 13 15  1  0
 12 16  1  0
 12 17  1  0
 11 18  1  0
 11 19  1  0
 10 20  1  0
 10 21  1  0
  9 22  1  0
  8 23  1  0
 23 24  2  0
 24 25  1  0
 25 26  1  0
 26 27  2  0
 27 28  1  0
 28 29  2  0
 29 30  1  0
 30 31  2  0
 31 32  1  0
 29 33  1  0
 27 34  1  0
 25 35  1  0
 25 36  1  0
  5 37  2  0
 37 38  1  0
  4 39  1  0
  2 40  1  0
  1 41  1  0
 37  1  1  0
 24  6  1  0
 31 26  1  0
 13  9  1  0
M  END
>  <cnnaffinity>  (1) 
-5.99019

>  <filename>  (1) 
c1cncc(-n2nc(C3CCCC3)nc2Cc2cncnc2)c1

$$$$
