
     RDKit          3D

 32 35  0  0  0  0  0  0  0  0999 V2000
    4.9308    1.7885   16.9433 H   0  0  0  0  0  0  0  0  0  0  0  0
    5.4000    1.3202   17.8121 C   0  0  0  0  0  0  0  0  0  0  0  0
    6.5735    0.7011   17.6014 N   0  0  0  0  0  0  0  0  0  0  0  0
    7.1500    0.0971   18.6493 C   0  0  0  0  0  0  0  0  0  0  0  0
    8.1049   -0.3878   18.4486 H   0  0  0  0  0  0  0  0  0  0  0  0
    6.6197    0.0765   19.9538 C   0  0  0  0  0  0  0  0  0  0  0  0
    7.3024   -0.6427   21.0560 C   0  0  0  0  0  0  0  0  0  0  0  0
    7.6676   -0.0950   22.2707 C   0  0  0  0  0  0  0  0  0  0  0  0
    7.3283    1.2293   22.7898 C   0  0  0  0  0  0  0  0  0  0  0  0
    7.6463    2.3666   22.0356 C   0  0  0  0  0  0  0  0  0  0  0  0
    8.1063    2.2282   21.0614 H   0  0  0  0  0  0  0  0  0  0  0  0
    7.3510    3.6573   22.5084 C   0  0  0  0  0  0  0  0  0  0  0  0
    7.6064    4.5144   21.8901 H   0  0  0  0  0  0  0  0  0  0  0  0
    6.7203    3.8440   23.7362 C   0  0  0  0  0  0  0  0  0  0  0  0
    6.4692    4.8386   24.0916 H   0  0  0  0  0  0  0  0  0  0  0  0
    6.3796    2.7046   24.4858 C   0  0  0  0  0  0  0  0  0  0  0  0
    6.6663    1.3902   24.0397 C   0  0  0  0  0  0  0  0  0  0  0  0
    6.1149    0.4963   25.0289 C   0  0  0  0  0  0  0  0  0  0  0  0
    6.0965   -0.5861   24.9973 H   0  0  0  0  0  0  0  0  0  0  0  0
    5.5616    1.2670   26.0107 C   0  0  0  0  0  0  0  0  0  0  0  0
    5.0611    0.9648   26.9237 H   0  0  0  0  0  0  0  0  0  0  0  0
    5.7176    2.6002   25.6873 N   0  0  0  0  0  0  0  0  0  0  0  0
    5.4115    3.3898   26.2329 H   0  0  0  0  0  0  0  0  0  0  0  0
    8.6166   -1.2085   23.1929 S   0  0  0  0  0  0  0  0  0  0  0  0
    8.3960   -2.4564   22.0280 C   0  0  0  0  0  0  0  0  0  0  0  0
    8.8378   -3.4315   22.1889 H   0  0  0  0  0  0  0  0  0  0  0  0
    7.6601   -2.0237   20.9719 C   0  0  0  0  0  0  0  0  0  0  0  0
    7.2776   -2.6514   20.1793 H   0  0  0  0  0  0  0  0  0  0  0  0
    5.4052    0.7462   20.1502 C   0  0  0  0  0  0  0  0  0  0  0  0
    4.9793    0.7869   21.1521 H   0  0  0  0  0  0  0  0  0  0  0  0
    4.7779    1.3588   19.0635 C   0  0  0  0  0  0  0  0  0  0  0  0
    3.8208    1.8549   19.1667 H   0  0  0  0  0  0  0  0  0  0  0  0
  1  2  1  0
  2  3  2  0
  3  4  1  0
  4  5  1  0
  4  6  2  0
  6  7  1  0
  7  8  2  0
  8  9  1  0
  9 10  2  0
 10 11  1  0
 10 12  1  0
 12 13  1  0
 12 14  2  0
 14 15  1  0
 14 16  1  0
 16 17  2  0
 17 18  1  0
 18 19  1  0
 18 20  2  0
 20 21  1  0
 20 22  1  0
 22 23  1  0
  8 24  1  0
 24 25  1  0
 25 26  1  0
 25 27  2  0
 27 28  1  0
  6 29  1  0
 29 30  1  0
 29 31  2  0
 31 32  1  0
 31  2  1  0
 27  7  1  0
 17  9  1  0
 22 16  1  0
M  END
>  <cnnaffinity>  (1) 
-5.08344

>  <filename>  (1) 
c1cncc(-c2ccsc2-c2cccc3[nH]ccc23)c1

$$$$
