
     RDKit          3D

 39 41  0  0  0  0  0  0  0  0999 V2000
    9.4510   -0.8311   20.3230 H   0  0  0  0  0  0  0  0  0  0  0  0
    8.7132   -1.0681   21.0758 C   0  0  0  0  0  0  0  0  0  0  0  0
    9.1308   -1.7327   22.1923 N   0  0  0  0  0  0  0  0  0  0  0  0
    8.1404   -1.8962   23.0001 C   0  0  0  0  0  0  0  0  0  0  0  0
    8.3117   -2.5119   24.1592 O   0  0  0  0  0  0  0  0  0  0  0  0
    7.2336   -2.6520   25.0914 C   0  0  0  0  0  0  0  0  0  0  0  0
    7.5902   -3.4558   25.7373 H   0  0  0  0  0  0  0  0  0  0  0  0
    6.3083   -2.9801   24.6013 H   0  0  0  0  0  0  0  0  0  0  0  0
    6.9961   -1.3696   25.9071 C   0  0  0  0  0  0  0  0  0  0  0  0
    7.8771   -1.2033   26.5474 H   0  0  0  0  0  0  0  0  0  0  0  0
    6.9416   -0.5035   25.2388 H   0  0  0  0  0  0  0  0  0  0  0  0
    5.8178   -1.3912   26.7642 N   0  0  0  0  0  0  0  0  0  0  0  0
    4.5133   -1.0642   26.2104 C   0  0  0  0  0  0  0  0  0  0  0  0
    4.6742   -0.4323   25.3312 H   0  0  0  0  0  0  0  0  0  0  0  0
    3.9686   -0.4439   26.9401 H   0  0  0  0  0  0  0  0  0  0  0  0
    3.6497   -2.2932   25.8615 C   0  0  0  0  0  0  0  0  0  0  0  0
    4.1081   -2.8097   25.0081 H   0  0  0  0  0  0  0  0  0  0  0  0
    2.6596   -1.9582   25.5384 H   0  0  0  0  0  0  0  0  0  0  0  0
    3.5483   -3.2664   27.0486 C   0  0  0  0  0  0  0  0  0  0  0  0
    2.9715   -4.1594   26.7795 H   0  0  0  0  0  0  0  0  0  0  0  0
    3.0026   -2.7933   27.8794 H   0  0  0  0  0  0  0  0  0  0  0  0
    4.9570   -3.6563   27.5157 C   0  0  0  0  0  0  0  0  0  0  0  0
    4.9267   -4.2752   28.4213 H   0  0  0  0  0  0  0  0  0  0  0  0
    5.4632   -4.2524   26.7428 H   0  0  0  0  0  0  0  0  0  0  0  0
    5.8182   -2.4104   27.7982 C   0  0  0  0  0  0  0  0  0  0  0  0
    5.5197   -1.9644   28.7665 H   0  0  0  0  0  0  0  0  0  0  0  0
    6.8584   -2.7315   27.8496 H   0  0  0  0  0  0  0  0  0  0  0  0
    6.6078   -1.2560   22.4407 S   0  0  0  0  0  0  0  0  0  0  0  0
    7.3955   -0.7171   20.9833 C   0  0  0  0  0  0  0  0  0  0  0  0
    6.6704   -0.0024   19.9155 C   0  0  0  0  0  0  0  0  0  0  0  0
    7.1668    0.0603   18.5917 C   0  0  0  0  0  0  0  0  0  0  0  0
    8.1073   -0.4256   18.3399 H   0  0  0  0  0  0  0  0  0  0  0  0
    6.5574    0.6767   17.5714 N   0  0  0  0  0  0  0  0  0  0  0  0
    5.3965    1.2954   17.8327 C   0  0  0  0  0  0  0  0  0  0  0  0
    4.9243    1.7962   16.9886 H   0  0  0  0  0  0  0  0  0  0  0  0
    4.8066    1.3087   19.1010 C   0  0  0  0  0  0  0  0  0  0  0  0
    3.8751    1.8392   19.2510 H   0  0  0  0  0  0  0  0  0  0  0  0
    5.4453    0.6502   20.1543 C   0  0  0  0  0  0  0  0  0  0  0  0
    5.0158    0.6369   21.1579 H   0  0  0  0  0  0  0  0  0  0  0  0
  1  2  1  0
  2  3  1  0
  3  4  2  0
  4  5  1  0
  5  6  1  0
  6  7  1  0
  6  8  1  0
  6  9  1  0
  9 10  1  0
  9 11  1  0
  9 12  1  0
 12 13  1  0
 13 14  1  0
 13 15  1  0
 13 16  1  0
 16 17  1  0
 16 18  1  0
 16 19  1  0
 19 20  1  0
 19 21  1  0
 19 22  1  0
 22 23  1  0
 22 24  1  0
 22 25  1  0
 25 26  1  0
 25 27  1  0
  4 28  1  0
 28 29  1  0
 29 30  1  0
 30 31  2  0
 31 32  1  0
 31 33  1  0
 33 34  2  0
 34 35  1  0
 34 36  1  0
 36 37  1  0
 36 38  2  0
 38 39  1  0
 29  2  2  0
 38 30  1  0
 25 12  1  0
M  END
>  <cnnaffinity>  (1) 
-4.94022

>  <filename>  (1) 
c1cncc(-c2cnc(OCCN3CCCCC3)s2)c1

$$$$
