
     RDKit          3D

 34 37  0  0  0  0  0  0  0  0999 V2000
    9.1402   -2.6263   23.7186 H   0  0  0  0  0  0  0  0  0  0  0  0
    8.6477   -2.0450   22.9380 C   0  0  0  0  0  0  0  0  0  0  0  0
    8.3071   -2.7021   21.8297 N   0  0  0  0  0  0  0  0  0  0  0  0
    7.6672   -1.9993   20.9006 C   0  0  0  0  0  0  0  0  0  0  0  0
    7.2710   -2.5407   20.0431 H   0  0  0  0  0  0  0  0  0  0  0  0
    7.4124   -0.6364   20.9881 C   0  0  0  0  0  0  0  0  0  0  0  0
    6.6665    0.0424   19.8742 C   0  0  0  0  0  0  0  0  0  0  0  0
    7.1506    0.0716   18.5490 C   0  0  0  0  0  0  0  0  0  0  0  0
    8.1052   -0.4025   18.3180 H   0  0  0  0  0  0  0  0  0  0  0  0
    6.5364    0.6851   17.5318 N   0  0  0  0  0  0  0  0  0  0  0  0
    5.3784    1.3074   17.8049 C   0  0  0  0  0  0  0  0  0  0  0  0
    4.9080    1.8202   16.9667 H   0  0  0  0  0  0  0  0  0  0  0  0
    4.7893    1.3156   19.0738 C   0  0  0  0  0  0  0  0  0  0  0  0
    3.8610    1.8485   19.2277 H   0  0  0  0  0  0  0  0  0  0  0  0
    5.4417    0.6706   20.1269 C   0  0  0  0  0  0  0  0  0  0  0  0
    5.0566    0.6632   21.1487 H   0  0  0  0  0  0  0  0  0  0  0  0
    7.7828   -0.0660   22.2260 C   0  0  0  0  0  0  0  0  0  0  0  0
    7.5347    1.3465   22.4904 C   0  0  0  0  0  0  0  0  0  0  0  0
    8.1326    2.2669   21.6622 C   0  0  0  0  0  0  0  0  0  0  0  0
    8.7546    1.9696   20.8168 H   0  0  0  0  0  0  0  0  0  0  0  0
    7.9925    3.6041   21.8106 N   0  0  0  0  0  0  0  0  0  0  0  0
    7.2070    4.0462   22.7705 C   0  0  0  0  0  0  0  0  0  0  0  0
    7.1248    5.1289   22.8547 H   0  0  0  0  0  0  0  0  0  0  0  0
    6.4866    3.2030   23.6737 C   0  0  0  0  0  0  0  0  0  0  0  0
    5.6323    3.7031   24.7063 C   0  0  0  0  0  0  0  0  0  0  0  0
    5.5387    4.7803   24.8344 H   0  0  0  0  0  0  0  0  0  0  0  0
    4.9508    2.8308   25.5198 C   0  0  0  0  0  0  0  0  0  0  0  0
    4.3172    3.2159   26.3119 H   0  0  0  0  0  0  0  0  0  0  0  0
    5.0668    1.4266   25.3432 C   0  0  0  0  0  0  0  0  0  0  0  0
    4.5253    0.7461   25.9920 H   0  0  0  0  0  0  0  0  0  0  0  0
    5.8896    0.9202   24.3571 C   0  0  0  0  0  0  0  0  0  0  0  0
    5.9912   -0.1484   24.2089 H   0  0  0  0  0  0  0  0  0  0  0  0
    6.6483    1.7942   23.5201 C   0  0  0  0  0  0  0  0  0  0  0  0
    8.4084   -0.7612   23.1883 N   0  0  0  0  0  0  0  0  0  0  0  0
  1  2  1  0
  2  3  2  0
  3  4  1  0
  4  5  1  0
  4  6  2  0
  6  7  1  0
  7  8  2  0
  8  9  1  0
  8 10  1  0
 10 11  2  0
 11 12  1  0
 11 13  1  0
 13 14  1  0
 13 15  2  0
 15 16  1  0
  6 17  1  0
 17 18  1  0
 18 19  2  0
 19 20  1  0
 19 21  1  0
 21 22  2  0
 22 23  1  0
 22 24  1  0
 24 25  2  0
 25 26  1  0
 25 27  1  0
 27 28  1  0
 27 29  2  0
 29 30  1  0
 29 31  1  0
 31 32  1  0
 31 33  2  0
 17 34  2  0
 34  2  1  0
 15  7  1  0
 33 18  1  0
 33 24  1  0
M  END
>  <cnnaffinity>  (1) 
-5.22292

>  <filename>  (1) 
c1cncc(-c2cncnc2-c2cncc3ccccc23)c1

$$$$
