
     RDKit          3D

 47 50  0  0  0  0  0  0  0  0999 V2000
    4.8336    1.2938   19.1017 C   0  0  0  0  0  0  0  0  0  0  0  0
    5.4161    1.3018   17.8310 C   0  0  0  0  0  0  0  0  0  0  0  0
    6.5526    0.6461   17.5477 N   0  0  0  0  0  0  0  0  0  0  0  0
    7.1571   -0.0152   18.5452 C   0  0  0  0  0  0  0  0  0  0  0  0
    6.6758   -0.0425   19.8667 C   0  0  0  0  0  0  0  0  0  0  0  0
    7.3706   -0.7170   20.9109 N   0  0  0  0  0  0  0  0  0  0  0  0
    6.7181   -1.6633   21.6443 N   0  0  0  0  0  0  0  0  0  0  0  0
    7.6455   -2.0646   22.5006 C   0  0  0  0  0  0  0  0  0  0  0  0
    7.4129   -3.0910   23.5674 C   0  0  0  0  0  0  0  0  0  0  0  0
    6.3627   -2.6795   24.6260 C   0  0  0  0  0  0  0  0  0  0  0  0
    5.8224   -3.9945   25.2199 C   0  0  0  0  0  0  0  0  0  0  0  0
    6.2002   -5.1179   24.2240 C   0  0  0  0  0  0  0  0  0  0  0  0
    6.8888   -4.4358   23.0299 C   0  0  0  0  0  0  0  0  0  0  0  0
    6.1589   -4.2340   22.2357 H   0  0  0  0  0  0  0  0  0  0  0  0
    7.6997   -5.0417   22.6091 H   0  0  0  0  0  0  0  0  0  0  0  0
    6.8730   -5.8352   24.7075 H   0  0  0  0  0  0  0  0  0  0  0  0
    5.3196   -5.6756   23.8894 H   0  0  0  0  0  0  0  0  0  0  0  0
    6.2570   -4.2002   26.2047 H   0  0  0  0  0  0  0  0  0  0  0  0
    4.7383   -3.9248   25.3586 H   0  0  0  0  0  0  0  0  0  0  0  0
    6.7858   -2.0139   25.3876 H   0  0  0  0  0  0  0  0  0  0  0  0
    5.5507   -2.1433   24.1275 H   0  0  0  0  0  0  0  0  0  0  0  0
    8.3843   -3.2316   24.0571 H   0  0  0  0  0  0  0  0  0  0  0  0
    8.8359   -1.4346   22.3853 N   0  0  0  0  0  0  0  0  0  0  0  0
    8.6333   -0.5707   21.4091 C   0  0  0  0  0  0  0  0  0  0  0  0
    9.5956    0.5192   21.0956 C   0  0  0  0  0  0  0  0  0  0  0  0
    9.5134    1.6813   22.1118 C   0  0  0  0  0  0  0  0  0  0  0  0
   10.6854    2.6457   21.9010 C   0  0  0  0  0  0  0  0  0  0  0  0
   10.5154    3.9335   22.7183 C   0  0  0  0  0  0  0  0  0  0  0  0
    9.2313    4.5275   22.5818 O   0  0  0  0  0  0  0  0  0  0  0  0
    8.1257    3.6759   22.8332 C   0  0  0  0  0  0  0  0  0  0  0  0
    8.1594    2.3980   21.9931 C   0  0  0  0  0  0  0  0  0  0  0  0
    7.9752    2.6503   20.9402 H   0  0  0  0  0  0  0  0  0  0  0  0
    7.3455    1.7277   22.3078 H   0  0  0  0  0  0  0  0  0  0  0  0
    7.2363    4.2613   22.5709 H   0  0  0  0  0  0  0  0  0  0  0  0
    8.0654    3.4191   23.9068 H   0  0  0  0  0  0  0  0  0  0  0  0
   11.2168    4.6904   22.3528 H   0  0  0  0  0  0  0  0  0  0  0  0
   10.7461    3.7445   23.7828 H   0  0  0  0  0  0  0  0  0  0  0  0
   10.7957    2.8797   20.8317 H   0  0  0  0  0  0  0  0  0  0  0  0
   11.6211    2.1570   22.2082 H   0  0  0  0  0  0  0  0  0  0  0  0
    9.5993    1.2746   23.1378 H   0  0  0  0  0  0  0  0  0  0  0  0
   10.5972    0.0852   21.1302 H   0  0  0  0  0  0  0  0  0  0  0  0
    9.4264    0.8928   20.0829 H   0  0  0  0  0  0  0  0  0  0  0  0
    5.4635    0.5997   20.1391 C   0  0  0  0  0  0  0  0  0  0  0  0
    5.0314    0.5442   21.1402 H   0  0  0  0  0  0  0  0  0  0  0  0
    8.0643   -0.5575   18.2785 H   0  0  0  0  0  0  0  0  0  0  0  0
    4.9509    1.8479   17.0104 H   0  0  0  0  0  0  0  0  0  0  0  0
    3.9024    1.8228   19.2671 H   0  0  0  0  0  0  0  0  0  0  0  0
  1  2  2  0
  2  3  1  0
  3  4  2  0
  4  5  1  0
  5  6  1  0
  6  7  1  0
  7  8  2  0
  8  9  1  0
  9 10  1  0
 10 11  1  0
 11 12  1  0
 12 13  1  0
 13 14  1  0
 13 15  1  0
 12 16  1  0
 12 17  1  0
 11 18  1  0
 11 19  1  0
 10 20  1  0
 10 21  1  0
  9 22  1  0
  8 23  1  0
 23 24  2  0
 24 25  1  0
 25 26  1  0
 26 27  1  0
 27 28  1  0
 28 29  1  0
 29 30  1  0
 30 31  1  0
 31 32  1  0
 31 33  1  0
 30 34  1  0
 30 35  1  0
 28 36  1  0
 28 37  1  0
 27 38  1  0
 27 39  1  0
 26 40  1  0
 25 41  1  0
 25 42  1  0
  5 43  2  0
 43 44  1  0
  4 45  1  0
  2 46  1  0
  1 47  1  0
 43  1  1  0
 24  6  1  0
 31 26  1  0
 13  9  1  0
M  END
>  <cnnaffinity>  (1) 
-5.99179

>  <filename>  (1) 
c1cncc(-n2nc(C3CCCC3)nc2CC2CCOCC2)c1

$$$$
