
     RDKit          3D

 46 49  0  0  0  0  0  0  0  0999 V2000
    4.8135    1.3080   19.1110 C   0  0  0  0  0  0  0  0  0  0  0  0
    5.4012    1.2957   17.8384 C   0  0  0  0  0  0  0  0  0  0  0  0
    6.5610    0.6736   17.5765 N   0  0  0  0  0  0  0  0  0  0  0  0
    7.1689    0.0542   18.5942 C   0  0  0  0  0  0  0  0  0  0  0  0
    6.6604    0.0051   19.9043 C   0  0  0  0  0  0  0  0  0  0  0  0
    7.3737   -0.6671   20.9404 N   0  0  0  0  0  0  0  0  0  0  0  0
    6.7637   -1.6156   21.6937 N   0  0  0  0  0  0  0  0  0  0  0  0
    7.7001   -1.9605   22.5615 C   0  0  0  0  0  0  0  0  0  0  0  0
    7.4543   -2.9698   23.6415 C   0  0  0  0  0  0  0  0  0  0  0  0
    6.4039   -2.5153   24.6798 C   0  0  0  0  0  0  0  0  0  0  0  0
    5.8175   -3.8051   25.2770 C   0  0  0  0  0  0  0  0  0  0  0  0
    6.1795   -4.9554   24.3043 C   0  0  0  0  0  0  0  0  0  0  0  0
    6.9306   -4.3229   23.1207 C   0  0  0  0  0  0  0  0  0  0  0  0
    7.7458   -4.9552   22.7506 H   0  0  0  0  0  0  0  0  0  0  0  0
    6.2534   -4.1473   22.2770 H   0  0  0  0  0  0  0  0  0  0  0  0
    6.8050   -5.6971   24.8126 H   0  0  0  0  0  0  0  0  0  0  0  0
    5.2903   -5.4909   23.9584 H   0  0  0  0  0  0  0  0  0  0  0  0
    4.7351   -3.7108   25.4108 H   0  0  0  0  0  0  0  0  0  0  0  0
    6.2325   -3.9988   26.2714 H   0  0  0  0  0  0  0  0  0  0  0  0
    5.6256   -1.9401   24.1765 H   0  0  0  0  0  0  0  0  0  0  0  0
    6.8358   -1.8503   25.4358 H   0  0  0  0  0  0  0  0  0  0  0  0
    8.4131   -3.1136   24.1455 H   0  0  0  0  0  0  0  0  0  0  0  0
    8.8733   -1.2943   22.4300 N   0  0  0  0  0  0  0  0  0  0  0  0
    8.6353   -0.4759   21.4230 C   0  0  0  0  0  0  0  0  0  0  0  0
    9.5301    0.6120   20.9447 C   0  0  0  0  0  0  0  0  0  0  0  0
    9.0504    2.0152   21.3529 C   0  0  0  0  0  0  0  0  0  0  0  0
    9.0081    2.2071   22.8760 C   0  0  0  0  0  0  0  0  0  0  0  0
    8.6287    3.5514   23.2689 N   0  0  0  0  0  0  0  0  0  0  0  0
    9.4506    4.6216   23.3857 C   0  0  0  0  0  0  0  0  0  0  0  0
    8.6535    5.7133   23.6301 C   0  0  0  0  0  0  0  0  0  0  0  0
    7.3415    5.1939   23.6262 C   0  0  0  0  0  0  0  0  0  0  0  0
    7.3390    3.8867   23.4008 N   0  0  0  0  0  0  0  0  0  0  0  0
    6.4039    5.7173   23.7827 H   0  0  0  0  0  0  0  0  0  0  0  0
    8.9627    6.7369   23.7913 H   0  0  0  0  0  0  0  0  0  0  0  0
   10.5246    4.5218   23.2661 H   0  0  0  0  0  0  0  0  0  0  0  0
    8.3152    1.5054   23.3438 H   0  0  0  0  0  0  0  0  0  0  0  0
    9.9931    2.0112   23.3053 H   0  0  0  0  0  0  0  0  0  0  0  0
    9.7332    2.7525   20.9220 H   0  0  0  0  0  0  0  0  0  0  0  0
    8.0538    2.2017   20.9350 H   0  0  0  0  0  0  0  0  0  0  0  0
   10.5257    0.4021   21.3463 H   0  0  0  0  0  0  0  0  0  0  0  0
    9.6039    0.5574   19.8559 H   0  0  0  0  0  0  0  0  0  0  0  0
    5.4407    0.6398   20.1687 C   0  0  0  0  0  0  0  0  0  0  0  0
    5.0149    0.6116   21.1752 H   0  0  0  0  0  0  0  0  0  0  0  0
    8.1132   -0.4346   18.3698 H   0  0  0  0  0  0  0  0  0  0  0  0
    4.9190    1.7854   16.9945 H   0  0  0  0  0  0  0  0  0  0  0  0
    3.8811    1.8391   19.2619 H   0  0  0  0  0  0  0  0  0  0  0  0
  1  2  2  0
  2  3  1  0
  3  4  2  0
  4  5  1  0
  5  6  1  0
  6  7  1  0
  7  8  2  0
  8  9  1  0
  9 10  1  0
 10 11  1  0
 11 12  1  0
 12 13  1  0
 13 14  1  0
 13 15  1  0
 12 16  1  0
 12 17  1  0
 11 18  1  0
 11 19  1  0
 10 20  1  0
 10 21  1  0
  9 22  1  0
  8 23  1  0
 23 24  2  0
 24 25  1  0
 25 26  1  0
 26 27  1  0
 27 28  1  0
 28 29  1  0
 29 30  2  0
 30 31  1  0
 31 32  2  0
 31 33  1  0
 30 34  1  0
 29 35  1  0
 27 36  1  0
 27 37  1  0
 26 38  1  0
 26 39  1  0
 25 40  1  0
 25 41  1  0
  5 42  2  0
 42 43  1  0
  4 44  1  0
  2 45  1  0
  1 46  1  0
 42  1  1  0
 24  6  1  0
 32 28  1  0
 13  9  1  0
M  END
>  <cnnaffinity>  (1) 
-6.15361

>  <filename>  (1) 
c1cncc(-n2nc(C3CCCC3)nc2CCCn2cccn2)c1

$$$$
