
     RDKit          3D

 36 38  0  0  0  0  0  0  0  0999 V2000
    5.0022    1.6997   16.9317 H   0  0  0  0  0  0  0  0  0  0  0  0
    5.4605    1.3025   17.8356 C   0  0  0  0  0  0  0  0  0  0  0  0
    6.6212    0.6535   17.6660 N   0  0  0  0  0  0  0  0  0  0  0  0
    7.1854    0.1313   18.7620 C   0  0  0  0  0  0  0  0  0  0  0  0
    8.1076   -0.4217   18.5876 H   0  0  0  0  0  0  0  0  0  0  0  0
    6.6775    0.2274   20.0705 C   0  0  0  0  0  0  0  0  0  0  0  0
    7.4348   -0.4925   21.1878 C   0  0  2  0  0  0  0  0  0  0  0  0
    7.1950   -2.0248   21.1298 C   0  0  0  0  0  0  0  0  0  0  0  0
    7.7936   -2.3994   20.3031 H   0  0  0  0  0  0  0  0  0  0  0  0
    7.6114   -2.4860   22.0302 H   0  0  0  0  0  0  0  0  0  0  0  0
    5.7517   -2.5068   20.9526 C   0  0  0  0  0  0  0  0  0  0  0  0
    5.3309   -2.0431   20.0487 H   0  0  0  0  0  0  0  0  0  0  0  0
    5.1520   -2.2080   21.8176 H   0  0  0  0  0  0  0  0  0  0  0  0
    5.7028   -3.9956   20.7876 C   0  0  0  0  0  0  0  0  0  0  0  0
    5.8237   -5.0814   22.1250 S   0  0  0  0  0  0  0  0  0  0  0  0
    5.8788   -6.4471   21.0831 C   0  0  0  0  0  0  0  0  0  0  0  0
    5.9406   -7.4349   21.5205 H   0  0  0  0  0  0  0  0  0  0  0  0
    5.8013   -6.0960   19.7705 C   0  0  0  0  0  0  0  0  0  0  0  0
    5.7932   -6.8088   18.9486 H   0  0  0  0  0  0  0  0  0  0  0  0
    5.7032   -4.6824   19.6138 C   0  0  0  0  0  0  0  0  0  0  0  0
    5.6253   -4.1476   18.6775 H   0  0  0  0  0  0  0  0  0  0  0  0
    7.1973    0.0538   22.6182 C   0  0  0  0  0  0  0  0  0  0  0  0
    6.2455   -0.2633   23.0620 H   0  0  0  0  0  0  0  0  0  0  0  0
    7.2045    1.1556   22.5820 H   0  0  0  0  0  0  0  0  0  0  0  0
    8.3351   -0.4080   23.4278 N   0  0  0  0  0  0  0  0  0  0  0  0
    8.1102   -1.2929   23.8703 H   0  0  0  0  0  0  0  0  0  0  0  0
    9.4850   -0.5947   22.5206 C   0  0  0  0  0  0  0  0  0  0  0  0
   10.3222    0.0485   22.8141 H   0  0  0  0  0  0  0  0  0  0  0  0
    9.8559   -1.6298   22.5510 H   0  0  0  0  0  0  0  0  0  0  0  0
    8.9767   -0.2642   21.1111 C   0  0  0  0  0  0  0  0  0  0  0  0
    9.4609   -0.8846   20.3481 H   0  0  0  0  0  0  0  0  0  0  0  0
    9.1725    0.7819   20.8443 H   0  0  0  0  0  0  0  0  0  0  0  0
    5.4546    0.9102   20.2207 C   0  0  0  0  0  0  0  0  0  0  0  0
    4.9801    1.0120   21.2013 H   0  0  0  0  0  0  0  0  0  0  0  0
    4.8381    1.4472   19.0819 C   0  0  0  0  0  0  0  0  0  0  0  0
    3.8868    1.9694   19.1421 H   0  0  0  0  0  0  0  0  0  0  0  0
  1  2  1  0
  2  3  2  0
  3  4  1  0
  4  5  1  0
  4  6  2  0
  6  7  1  0
  7  8  1  1
  8  9  1  0
  8 10  1  0
  8 11  1  0
 11 12  1  0
 11 13  1  0
 11 14  1  0
 14 15  1  0
 15 16  1  0
 16 17  1  0
 16 18  2  0
 18 19  1  0
 18 20  1  0
 20 21  1  0
  7 22  1  0
 22 23  1  0
 22 24  1  0
 22 25  1  0
 25 26  1  0
 25 27  1  0
 27 28  1  0
 27 29  1  0
 27 30  1  0
 30 31  1  0
 30 32  1  0
  6 33  1  0
 33 34  1  0
 33 35  2  0
 35 36  1  0
 35  2  1  0
 30  7  1  0
 20 14  2  0
M  END
>  <cnnaffinity>  (1) 
-5.30702

>  <filename>  (1) 
c1cncc([C@@]2(CCc3cccs3)CCNC2)c1

$$$$
