
     RDKit          3D

 41 44  0  0  0  0  0  0  0  0999 V2000
    4.8127    1.3509   19.0229 C   0  0  0  0  0  0  0  0  0  0  0  0
    5.4288    1.2958   17.7714 C   0  0  0  0  0  0  0  0  0  0  0  0
    6.5703    0.6193   17.5545 N   0  0  0  0  0  0  0  0  0  0  0  0
    7.1471   -0.0015   18.5920 C   0  0  0  0  0  0  0  0  0  0  0  0
    6.6357    0.0408   19.9027 C   0  0  0  0  0  0  0  0  0  0  0  0
    7.3424   -0.5553   20.9961 N   0  0  0  0  0  0  0  0  0  0  0  0
    7.8361   -1.8280   20.9466 N   0  0  0  0  0  0  0  0  0  0  0  0
    8.2532   -2.0225   22.1804 C   0  0  0  0  0  0  0  0  0  0  0  0
    8.9631   -3.2521   22.6308 C   0  0  0  0  0  0  0  0  0  0  0  0
    8.3432   -3.9964   23.8361 C   0  0  0  0  0  0  0  0  0  0  0  0
    9.5487   -4.6831   24.5033 C   0  0  0  0  0  0  0  0  0  0  0  0
   10.7127   -4.0837   23.9578 O   0  0  0  0  0  0  0  0  0  0  0  0
   10.3867   -2.9691   23.1538 C   0  0  0  0  0  0  0  0  0  0  0  0
   10.4157   -2.0379   23.7421 H   0  0  0  0  0  0  0  0  0  0  0  0
   11.1551   -2.8893   22.3737 H   0  0  0  0  0  0  0  0  0  0  0  0
    9.5536   -4.5732   25.5986 H   0  0  0  0  0  0  0  0  0  0  0  0
    9.5795   -5.7638   24.3134 H   0  0  0  0  0  0  0  0  0  0  0  0
    7.9083   -3.2661   24.5234 H   0  0  0  0  0  0  0  0  0  0  0  0
    7.5517   -4.7028   23.5635 H   0  0  0  0  0  0  0  0  0  0  0  0
    9.0010   -3.8993   21.7590 H   0  0  0  0  0  0  0  0  0  0  0  0
    8.0894   -0.9711   23.0213 N   0  0  0  0  0  0  0  0  0  0  0  0
    7.5762   -0.0432   22.2405 C   0  0  0  0  0  0  0  0  0  0  0  0
    7.5690    1.4060   22.5797 C   0  0  0  0  0  0  0  0  0  0  0  0
    8.6093    2.2449   21.7943 C   0  0  0  0  0  0  0  0  0  0  0  0
    8.5303    3.6841   22.2192 C   0  0  0  0  0  0  0  0  0  0  0  0
    7.5630    4.5759   21.8579 C   0  0  0  0  0  0  0  0  0  0  0  0
    7.7148    5.8633   22.4515 C   0  0  0  0  0  0  0  0  0  0  0  0
    8.7892    5.9173   23.2865 C   0  0  0  0  0  0  0  0  0  0  0  0
    9.6261    4.4102   23.3500 S   0  0  0  0  0  0  0  0  0  0  0  0
    9.1375    6.7527   23.8772 H   0  0  0  0  0  0  0  0  0  0  0  0
    7.0527    6.6992   22.2490 H   0  0  0  0  0  0  0  0  0  0  0  0
    6.7427    4.3132   21.1959 H   0  0  0  0  0  0  0  0  0  0  0  0
    8.4053    2.1826   20.7157 H   0  0  0  0  0  0  0  0  0  0  0  0
    9.6222    1.8507   21.9489 H   0  0  0  0  0  0  0  0  0  0  0  0
    6.5708    1.8206   22.4172 H   0  0  0  0  0  0  0  0  0  0  0  0
    7.7851    1.4725   23.6491 H   0  0  0  0  0  0  0  0  0  0  0  0
    5.4219    0.7135   20.1093 C   0  0  0  0  0  0  0  0  0  0  0  0
    4.9534    0.7200   21.0923 H   0  0  0  0  0  0  0  0  0  0  0  0
    8.0593   -0.5497   18.3736 H   0  0  0  0  0  0  0  0  0  0  0  0
    4.9887    1.8025   16.9125 H   0  0  0  0  0  0  0  0  0  0  0  0
    3.8793    1.8915   19.1412 H   0  0  0  0  0  0  0  0  0  0  0  0
  1  2  2  0
  2  3  1  0
  3  4  2  0
  4  5  1  0
  5  6  1  0
  6  7  1  0
  7  8  2  0
  8  9  1  0
  9 10  1  0
 10 11  1  0
 11 12  1  0
 12 13  1  0
 13 14  1  0
 13 15  1  0
 11 16  1  0
 11 17  1  0
 10 18  1  0
 10 19  1  0
  9 20  1  0
  8 21  1  0
 21 22  2  0
 22 23  1  0
 23 24  1  0
 24 25  1  0
 25 26  2  0
 26 27  1  0
 27 28  2  0
 28 29  1  0
 28 30  1  0
 27 31  1  0
 26 32  1  0
 24 33  1  0
 24 34  1  0
 23 35  1  0
 23 36  1  0
  5 37  2  0
 37 38  1  0
  4 39  1  0
  2 40  1  0
  1 41  1  0
 37  1  1  0
 22  6  1  0
 29 25  1  0
 13  9  1  0
M  END
>  <cnnaffinity>  (1) 
-5.99888

>  <filename>  (1) 
c1cncc(-n2nc(C3CCOC3)nc2CCc2cccs2)c1

$$$$
