
     RDKit          3D

 31 34  0  0  0  0  0  0  0  0999 V2000
    5.0832    1.7462   17.2759 H   0  0  0  0  0  0  0  0  0  0  0  0
    5.5956    1.1460   18.0234 C   0  0  0  0  0  0  0  0  0  0  0  0
    6.7497    0.5767   17.6477 N   0  0  0  0  0  0  0  0  0  0  0  0
    7.4090   -0.1372   18.5676 C   0  0  0  0  0  0  0  0  0  0  0  0
    8.3411   -0.5845   18.2289 H   0  0  0  0  0  0  0  0  0  0  0  0
    6.9466   -0.3309   19.8800 C   0  0  0  0  0  0  0  0  0  0  0  0
    7.8083   -1.0194   20.8542 C   0  0  0  0  0  0  0  0  0  0  0  0
    9.1170   -0.9568   20.9266 N   0  0  0  0  0  0  0  0  0  0  0  0
    9.5398   -1.6297   22.0567 N   0  0  0  0  0  0  0  0  0  0  0  0
    8.4559   -2.0826   22.6267 C   0  0  0  0  0  0  0  0  0  0  0  0
    8.0067   -2.9381   24.0820 S   0  0  0  0  0  0  0  0  0  0  0  0
    6.3412   -2.7588   23.5525 C   0  0  0  0  0  0  0  0  0  0  0  0
    5.2716   -3.2099   24.2464 N   0  0  0  0  0  0  0  0  0  0  0  0
    4.4622   -2.8258   23.7762 H   0  0  0  0  0  0  0  0  0  0  0  0
    5.2220   -3.3784   25.6897 C   0  0  0  0  0  0  0  0  0  0  0  0
    5.7832   -2.5986   26.2258 H   0  0  0  0  0  0  0  0  0  0  0  0
    5.6929   -4.3325   25.9715 H   0  0  0  0  0  0  0  0  0  0  0  0
    3.8031   -3.3680   26.1638 C   0  0  0  0  0  0  0  0  0  0  0  0
    2.7068   -4.5596   25.5670 S   0  0  0  0  0  0  0  0  0  0  0  0
    1.4530   -4.0017   26.6029 C   0  0  0  0  0  0  0  0  0  0  0  0
    0.4955   -4.5039   26.6118 H   0  0  0  0  0  0  0  0  0  0  0  0
    1.8478   -2.9269   27.3387 C   0  0  0  0  0  0  0  0  0  0  0  0
    1.2172   -2.4358   28.0692 H   0  0  0  0  0  0  0  0  0  0  0  0
    3.2007   -2.5519   27.0767 C   0  0  0  0  0  0  0  0  0  0  0  0
    3.6938   -1.6887   27.5135 H   0  0  0  0  0  0  0  0  0  0  0  0
    6.1302   -2.1678   22.4128 N   0  0  0  0  0  0  0  0  0  0  0  0
    7.3416   -1.7569   21.9245 N   0  0  0  0  0  0  0  0  0  0  0  0
    5.6970    0.2047   20.2317 C   0  0  0  0  0  0  0  0  0  0  0  0
    5.2443    0.0129   21.2049 H   0  0  0  0  0  0  0  0  0  0  0  0
    5.0322    0.9871   19.2923 C   0  0  0  0  0  0  0  0  0  0  0  0
    4.0930    1.4690   19.5340 H   0  0  0  0  0  0  0  0  0  0  0  0
  1  2  1  0
  2  3  2  0
  3  4  1  0
  4  5  1  0
  4  6  2  0
  6  7  1  0
  7  8  2  0
  8  9  1  0
  9 10  2  0
 10 11  1  0
 11 12  1  0
 12 13  1  0
 13 14  1  0
 13 15  1  0
 15 16  1  0
 15 17  1  0
 15 18  1  0
 18 19  1  0
 19 20  1  0
 20 21  1  0
 20 22  2  0
 22 23  1  0
 22 24  1  0
 24 25  1  0
 12 26  2  0
 26 27  1  0
  6 28  1  0
 28 29  1  0
 28 30  2  0
 30 31  1  0
 30  2  1  0
 27  7  1  0
 27 10  1  0
 24 18  2  0
M  END
>  <cnnaffinity>  (1) 
-5.24262

>  <filename>  (1) 
c1cncc(-c2nnc3sc(NCc4cccs4)nn23)c1

$$$$
