
     RDKit          3D

 42 45  0  0  0  0  0  0  0  0999 V2000
    4.7752    1.3700   18.9675 C   0  0  0  0  0  0  0  0  0  0  0  0
    5.4100    1.3251   17.7238 C   0  0  0  0  0  0  0  0  0  0  0  0
    6.5345    0.6188   17.5057 N   0  0  0  0  0  0  0  0  0  0  0  0
    7.0826   -0.0263   18.5436 C   0  0  0  0  0  0  0  0  0  0  0  0
    6.5763    0.0446   19.8548 C   0  0  0  0  0  0  0  0  0  0  0  0
    7.2758   -0.5760   20.9378 N   0  0  0  0  0  0  0  0  0  0  0  0
    7.5951   -1.8956   20.8553 N   0  0  0  0  0  0  0  0  0  0  0  0
    8.1675   -2.1427   22.0255 C   0  0  0  0  0  0  0  0  0  0  0  0
    8.6829   -3.4989   22.4362 C   0  0  0  0  0  0  0  0  0  0  0  0
    8.6705   -3.8101   23.9504 C   0  0  0  0  0  0  0  0  0  0  0  0
    8.5672   -5.3511   24.0820 C   0  0  0  0  0  0  0  0  0  0  0  0
    8.3251   -5.9138   22.6627 C   0  0  0  0  0  0  0  0  0  0  0  0
    7.9383   -4.6989   21.8139 C   0  0  0  0  0  0  0  0  0  0  0  0
    8.1804   -4.8352   20.7606 H   0  0  0  0  0  0  0  0  0  0  0  0
    6.8570   -4.5212   21.8765 H   0  0  0  0  0  0  0  0  0  0  0  0
    9.2248   -6.3856   22.2513 H   0  0  0  0  0  0  0  0  0  0  0  0
    7.5580   -6.6978   22.6409 H   0  0  0  0  0  0  0  0  0  0  0  0
    9.4573   -5.7948   24.5356 H   0  0  0  0  0  0  0  0  0  0  0  0
    7.7373   -5.6063   24.7502 H   0  0  0  0  0  0  0  0  0  0  0  0
    7.8097   -3.3249   24.4196 H   0  0  0  0  0  0  0  0  0  0  0  0
    9.5689   -3.4311   24.4453 H   0  0  0  0  0  0  0  0  0  0  0  0
    9.7374   -3.4693   22.1440 H   0  0  0  0  0  0  0  0  0  0  0  0
    8.3112   -1.0545   22.8150 N   0  0  0  0  0  0  0  0  0  0  0  0
    7.7313   -0.0836   22.1337 C   0  0  0  0  0  0  0  0  0  0  0  0
    7.7169    1.3297   22.6456 C   0  0  0  0  0  0  0  0  0  0  0  0
    7.1626    1.3909   24.0573 C   0  0  0  0  0  0  0  0  0  0  0  0
    5.7914    1.5074   24.2914 C   0  0  0  0  0  0  0  0  0  0  0  0
    5.3170    1.4537   25.6039 C   0  0  0  0  0  0  0  0  0  0  0  0
    6.1047    1.3000   26.6743 N   0  0  0  0  0  0  0  0  0  0  0  0
    7.4192    1.1739   26.4452 C   0  0  0  0  0  0  0  0  0  0  0  0
    7.9887    1.2063   25.1714 C   0  0  0  0  0  0  0  0  0  0  0  0
    9.0521    1.0267   25.0560 H   0  0  0  0  0  0  0  0  0  0  0  0
    8.0483    1.0273   27.3237 H   0  0  0  0  0  0  0  0  0  0  0  0
    4.2478    1.5320   25.8009 H   0  0  0  0  0  0  0  0  0  0  0  0
    5.0872    1.6298   23.4760 H   0  0  0  0  0  0  0  0  0  0  0  0
    8.7551    1.6831   22.6575 H   0  0  0  0  0  0  0  0  0  0  0  0
    7.1615    1.9912   21.9757 H   0  0  0  0  0  0  0  0  0  0  0  0
    5.3687    0.7241   20.0597 C   0  0  0  0  0  0  0  0  0  0  0  0
    4.8881    0.7228   21.0389 H   0  0  0  0  0  0  0  0  0  0  0  0
    7.9654   -0.6208   18.3197 H   0  0  0  0  0  0  0  0  0  0  0  0
    4.9998    1.8650   16.8704 H   0  0  0  0  0  0  0  0  0  0  0  0
    3.8378    1.9026   19.0722 H   0  0  0  0  0  0  0  0  0  0  0  0
  1  2  2  0
  2  3  1  0
  3  4  2  0
  4  5  1  0
  5  6  1  0
  6  7  1  0
  7  8  2  0
  8  9  1  0
  9 10  1  0
 10 11  1  0
 11 12  1  0
 12 13  1  0
 13 14  1  0
 13 15  1  0
 12 16  1  0
 12 17  1  0
 11 18  1  0
 11 19  1  0
 10 20  1  0
 10 21  1  0
  9 22  1  0
  8 23  1  0
 23 24  2  0
 24 25  1  0
 25 26  1  0
 26 27  2  0
 27 28  1  0
 28 29  2  0
 29 30  1  0
 30 31  2  0
 31 32  1  0
 30 33  1  0
 28 34  1  0
 27 35  1  0
 25 36  1  0
 25 37  1  0
  5 38  2  0
 38 39  1  0
  4 40  1  0
  2 41  1  0
  1 42  1  0
 38  1  1  0
 24  6  1  0
 31 26  1  0
 13  9  1  0
M  END
>  <cnnaffinity>  (1) 
-6.48041

>  <filename>  (1) 
c1cncc(-n2nc(C3CCCC3)nc2Cc2ccncc2)c1

$$$$
