
     RDKit          3D

 32 35  0  0  0  0  0  0  0  0999 V2000
    9.0619   -3.0845   22.1801 H   0  0  0  0  0  0  0  0  0  0  0  0
    8.4909   -2.2146   21.8880 C   0  0  0  0  0  0  0  0  0  0  0  0
    8.0641   -1.8787   20.7185 N   0  0  0  0  0  0  0  0  0  0  0  0
    7.3858   -0.6899   20.9364 C   0  0  0  0  0  0  0  0  0  0  0  0
    6.6474   -0.0011   19.8898 C   0  0  0  0  0  0  0  0  0  0  0  0
    7.1664    0.0406   18.5844 C   0  0  0  0  0  0  0  0  0  0  0  0
    8.1168   -0.4372   18.3656 H   0  0  0  0  0  0  0  0  0  0  0  0
    6.5664    0.6730   17.5740 N   0  0  0  0  0  0  0  0  0  0  0  0
    5.4055    1.2915   17.8357 C   0  0  0  0  0  0  0  0  0  0  0  0
    4.9274    1.7847   16.9937 H   0  0  0  0  0  0  0  0  0  0  0  0
    4.8009    1.3077   19.0986 C   0  0  0  0  0  0  0  0  0  0  0  0
    3.8731    1.8435   19.2502 H   0  0  0  0  0  0  0  0  0  0  0  0
    5.4266    0.6462   20.1506 C   0  0  0  0  0  0  0  0  0  0  0  0
    5.0026    0.6411   21.1604 H   0  0  0  0  0  0  0  0  0  0  0  0
    7.4863   -0.3505   22.2664 C   0  0  0  0  0  0  0  0  0  0  0  0
    7.0743    0.8481   22.9850 C   0  0  0  0  0  0  0  0  0  0  0  0
    7.3400    2.0904   22.4208 C   0  0  0  0  0  0  0  0  0  0  0  0
    7.8563    2.1470   21.4615 H   0  0  0  0  0  0  0  0  0  0  0  0
    6.9290    3.2895   23.0521 C   0  0  0  0  0  0  0  0  0  0  0  0
    7.1701    4.2412   22.5796 H   0  0  0  0  0  0  0  0  0  0  0  0
    6.2387    3.2456   24.2475 C   0  0  0  0  0  0  0  0  0  0  0  0
    5.9223    4.1386   24.7720 H   0  0  0  0  0  0  0  0  0  0  0  0
    5.9165    1.9961   24.8557 C   0  0  0  0  0  0  0  0  0  0  0  0
    5.2263    2.0169   26.0446 N   0  0  0  0  0  0  0  0  0  0  0  0
    4.9217    0.8578   26.5799 C   0  0  0  0  0  0  0  0  0  0  0  0
    4.3790    0.8899   27.5243 H   0  0  0  0  0  0  0  0  0  0  0  0
    5.2396   -0.4116   26.0150 C   0  0  0  0  0  0  0  0  0  0  0  0
    4.9396   -1.3242   26.5218 H   0  0  0  0  0  0  0  0  0  0  0  0
    5.9311   -0.4542   24.8302 C   0  0  0  0  0  0  0  0  0  0  0  0
    6.1856   -1.3976   24.3402 H   0  0  0  0  0  0  0  0  0  0  0  0
    6.3200    0.7766   24.2127 C   0  0  0  0  0  0  0  0  0  0  0  0
    8.1858   -1.3561   22.8784 O   0  0  0  0  0  0  0  0  0  0  0  0
  1  2  1  0
  2  3  2  0
  3  4  1  0
  4  5  1  0
  5  6  2  0
  6  7  1  0
  6  8  1  0
  8  9  2  0
  9 10  1  0
  9 11  1  0
 11 12  1  0
 11 13  2  0
 13 14  1  0
  4 15  2  0
 15 16  1  0
 16 17  2  0
 17 18  1  0
 17 19  1  0
 19 20  1  0
 19 21  2  0
 21 22  1  0
 21 23  1  0
 23 24  2  0
 24 25  1  0
 25 26  1  0
 25 27  2  0
 27 28  1  0
 27 29  1  0
 29 30  1  0
 29 31  2  0
 15 32  1  0
 32  2  1  0
 13  5  1  0
 31 16  1  0
 31 23  1  0
M  END
>  <cnnaffinity>  (1) 
-4.9024

>  <filename>  (1) 
c1cncc(-c2ncoc2-c2cccc3ncccc23)c1

$$$$
