
     RDKit          3D

 34 37  0  0  0  0  0  0  0  0999 V2000
    4.9740    1.7842   16.9870 H   0  0  0  0  0  0  0  0  0  0  0  0
    5.4135    1.2804   17.8466 C   0  0  0  0  0  0  0  0  0  0  0  0
    6.5746    0.6497   17.6181 N   0  0  0  0  0  0  0  0  0  0  0  0
    7.1642    0.0371   18.6471 C   0  0  0  0  0  0  0  0  0  0  0  0
    8.1146   -0.4413   18.4271 H   0  0  0  0  0  0  0  0  0  0  0  0
    6.6237    0.0011   19.9395 C   0  0  0  0  0  0  0  0  0  0  0  0
    7.3583   -0.7126   20.9824 C   0  0  0  0  0  0  0  0  0  0  0  0
    8.5521   -1.3342   20.7529 N   0  0  0  0  0  0  0  0  0  0  0  0
    8.8319   -1.8080   21.9505 C   0  0  0  0  0  0  0  0  0  0  0  0
   10.1015   -2.7007   22.7394 S   0  0  0  0  0  0  0  0  0  0  0  0
    9.2423   -2.5652   24.2682 C   0  0  0  0  0  0  0  0  0  0  0  0
    9.6589   -2.9892   25.1703 H   0  0  0  0  0  0  0  0  0  0  0  0
    8.0709   -1.9013   24.1704 C   0  0  0  0  0  0  0  0  0  0  0  0
    7.0399   -1.5515   25.2282 C   0  0  0  0  0  0  0  0  0  0  0  0
    6.8809   -0.4656   25.1313 H   0  0  0  0  0  0  0  0  0  0  0  0
    7.5263   -1.8861   26.6676 C   0  0  0  0  0  0  0  0  0  0  0  0
    6.9009   -1.3381   27.3842 H   0  0  0  0  0  0  0  0  0  0  0  0
    8.5555   -1.5361   26.8075 H   0  0  0  0  0  0  0  0  0  0  0  0
    7.4148   -3.3957   26.9553 C   0  0  0  0  0  0  0  0  0  0  0  0
    8.0910   -3.9635   26.2944 H   0  0  0  0  0  0  0  0  0  0  0  0
    7.6697   -3.6738   27.9811 H   0  0  0  0  0  0  0  0  0  0  0  0
    6.0865   -3.8473   26.7601 O   0  0  0  0  0  0  0  0  0  0  0  0
    5.6811   -3.7029   25.4135 C   0  0  0  0  0  0  0  0  0  0  0  0
    4.6788   -4.1409   25.3468 H   0  0  0  0  0  0  0  0  0  0  0  0
    6.3530   -4.2761   24.7512 H   0  0  0  0  0  0  0  0  0  0  0  0
    5.6791   -2.2444   24.9691 C   0  0  0  0  0  0  0  0  0  0  0  0
    4.8905   -1.7102   25.5141 H   0  0  0  0  0  0  0  0  0  0  0  0
    5.4759   -2.2109   23.8988 H   0  0  0  0  0  0  0  0  0  0  0  0
    7.8699   -1.4977   22.8427 N   0  0  0  0  0  0  0  0  0  0  0  0
    6.8987   -0.7839   22.2251 N   0  0  0  0  0  0  0  0  0  0  0  0
    5.4042    0.6643   20.1743 C   0  0  0  0  0  0  0  0  0  0  0  0
    4.9561    0.6732   21.1710 H   0  0  0  0  0  0  0  0  0  0  0  0
    4.7939    1.3115   19.1023 C   0  0  0  0  0  0  0  0  0  0  0  0
    3.8593    1.8539   19.2152 H   0  0  0  0  0  0  0  0  0  0  0  0
  1  2  1  0
  2  3  2  0
  3  4  1  0
  4  5  1  0
  4  6  2  0
  6  7  1  0
  7  8  1  0
  8  9  2  0
  9 10  1  0
 10 11  1  0
 11 12  1  0
 11 13  2  0
 13 14  1  0
 14 15  1  0
 14 16  1  0
 16 17  1  0
 16 18  1  0
 16 19  1  0
 19 20  1  0
 19 21  1  0
 19 22  1  0
 22 23  1  0
 23 24  1  0
 23 25  1  0
 23 26  1  0
 26 27  1  0
 26 28  1  0
 13 29  1  0
 29 30  1  0
  6 31  1  0
 31 32  1  0
 31 33  2  0
 33 34  1  0
 33  2  1  0
 30  7  2  0
 29  9  1  0
 26 14  1  0
M  END
>  <cnnaffinity>  (1) 
-5.41136

>  <filename>  (1) 
c1cncc(-c2nc3scc(C4CCOCC4)n3n2)c1

$$$$
