
     RDKit          3D

 30 33  0  0  0  0  0  0  0  0999 V2000
    4.9346    1.8229   16.9776 H   0  0  0  0  0  0  0  0  0  0  0  0
    5.3913    1.2932   17.8141 C   0  0  0  0  0  0  0  0  0  0  0  0
    6.5563    0.6765   17.5639 N   0  0  0  0  0  0  0  0  0  0  0  0
    7.1739    0.0590   18.5758 C   0  0  0  0  0  0  0  0  0  0  0  0
    8.1300   -0.4022   18.3338 H   0  0  0  0  0  0  0  0  0  0  0  0
    6.6597    0.0132   19.8917 C   0  0  0  0  0  0  0  0  0  0  0  0
    7.3276   -0.6898   20.9504 N   0  0  0  0  0  0  0  0  0  0  0  0
    7.6374   -2.0206   20.9636 C   0  0  0  0  0  0  0  0  0  0  0  0
    7.3054   -2.6896   20.1898 H   0  0  0  0  0  0  0  0  0  0  0  0
    8.2396   -2.3714   22.0630 N   0  0  0  0  0  0  0  0  0  0  0  0
    8.3059   -1.2594   22.8467 N   0  0  0  0  0  0  0  0  0  0  0  0
    7.7474   -0.2604   22.1992 C   0  0  0  0  0  0  0  0  0  0  0  0
    7.5739    1.0518   22.7975 C   0  0  0  0  0  0  0  0  0  0  0  0
    7.2097    2.1232   22.0230 O   0  0  0  0  0  0  0  0  0  0  0  0
    7.1634    3.1941   22.8572 C   0  0  0  0  0  0  0  0  0  0  0  0
    6.8437    4.5070   22.5032 C   0  0  0  0  0  0  0  0  0  0  0  0
    6.5870    4.7696   21.4842 H   0  0  0  0  0  0  0  0  0  0  0  0
    6.8648    5.4545   23.5270 C   0  0  0  0  0  0  0  0  0  0  0  0
    6.6223    6.4877   23.2995 H   0  0  0  0  0  0  0  0  0  0  0  0
    7.1914    5.0965   24.8509 C   0  0  0  0  0  0  0  0  0  0  0  0
    7.1989    5.8602   25.6185 H   0  0  0  0  0  0  0  0  0  0  0  0
    7.5010    3.7818   25.1856 C   0  0  0  0  0  0  0  0  0  0  0  0
    7.7553    3.4900   26.1991 H   0  0  0  0  0  0  0  0  0  0  0  0
    7.4835    2.8063   24.1701 C   0  0  0  0  0  0  0  0  0  0  0  0
    7.7409    1.3994   24.1015 C   0  0  0  0  0  0  0  0  0  0  0  0
    8.0203    0.6965   24.8786 H   0  0  0  0  0  0  0  0  0  0  0  0
    5.4272    0.6275   20.1269 C   0  0  0  0  0  0  0  0  0  0  0  0
    4.9941    0.6109   21.1231 H   0  0  0  0  0  0  0  0  0  0  0  0
    4.7848    1.2862   19.0717 C   0  0  0  0  0  0  0  0  0  0  0  0
    3.8549    1.8261   19.2289 H   0  0  0  0  0  0  0  0  0  0  0  0
  1  2  1  0
  2  3  2  0
  3  4  1  0
  4  5  1  0
  4  6  2  0
  6  7  1  0
  7  8  1  0
  8  9  1  0
  8 10  2  0
 10 11  1  0
 11 12  2  0
 12 13  1  0
 13 14  1  0
 14 15  1  0
 15 16  2  0
 16 17  1  0
 16 18  1  0
 18 19  1  0
 18 20  2  0
 20 21  1  0
 20 22  1  0
 22 23  1  0
 22 24  2  0
 24 25  1  0
 25 26  1  0
  6 27  1  0
 27 28  1  0
 27 29  2  0
 29 30  1  0
 29  2  1  0
 12  7  1  0
 25 13  2  0
 24 15  1  0
M  END
>  <cnnaffinity>  (1) 
-4.92759

>  <filename>  (1) 
c1cncc(-n2cnnc2-c2cc3ccccc3o2)c1

$$$$
