
     RDKit          3D

 32 35  0  0  0  0  0  0  0  0999 V2000
    5.0487    1.7766   16.9148 H   0  0  0  0  0  0  0  0  0  0  0  0
    5.4101    1.2142   17.7726 C   0  0  0  0  0  0  0  0  0  0  0  0
    6.5059    0.4659   17.5631 N   0  0  0  0  0  0  0  0  0  0  0  0
    6.9982   -0.2076   18.6030 C   0  0  0  0  0  0  0  0  0  0  0  0
    7.8639   -0.8384   18.4088 H   0  0  0  0  0  0  0  0  0  0  0  0
    6.4640   -0.1366   19.9007 C   0  0  0  0  0  0  0  0  0  0  0  0
    7.2387   -0.7723   20.9769 C   0  0  0  0  0  0  0  0  0  0  0  0
    8.1098   -1.7379   20.7944 N   0  0  0  0  0  0  0  0  0  0  0  0
    8.5945   -2.0514   22.0128 N   0  0  0  0  0  0  0  0  0  0  0  0
    8.0887   -1.3067   22.9185 N   0  0  0  0  0  0  0  0  0  0  0  0
    7.2240   -0.4653   22.3036 N   0  0  0  0  0  0  0  0  0  0  0  0
    6.7247    0.6867   23.0290 C   0  0  0  0  0  0  0  0  0  0  0  0
    5.9079    0.4632   24.1310 C   0  0  0  0  0  0  0  0  0  0  0  0
    5.7546   -0.5556   24.4704 H   0  0  0  0  0  0  0  0  0  0  0  0
    5.3090    1.5668   24.7830 C   0  0  0  0  0  0  0  0  0  0  0  0
    4.6798    1.3902   25.6521 H   0  0  0  0  0  0  0  0  0  0  0  0
    5.5579    2.8526   24.3604 C   0  0  0  0  0  0  0  0  0  0  0  0
    5.1020    3.7109   24.8484 H   0  0  0  0  0  0  0  0  0  0  0  0
    6.5151    3.0938   23.3176 C   0  0  0  0  0  0  0  0  0  0  0  0
    6.9449    4.4121   23.0207 C   0  0  0  0  0  0  0  0  0  0  0  0
    6.3925    5.2457   23.4338 H   0  0  0  0  0  0  0  0  0  0  0  0
    8.1129    4.6579   22.2409 C   0  0  0  0  0  0  0  0  0  0  0  0
    8.4447    5.6955   22.1351 H   0  0  0  0  0  0  0  0  0  0  0  0
    8.7149    3.5760   21.7217 C   0  0  0  0  0  0  0  0  0  0  0  0
    7.9808    1.9468   20.5566 H   0  0  0  0  0  0  0  0  0  0  0  0
    8.2912    2.1975   21.6297 C   0  0  0  0  0  0  0  0  0  0  0  0
    9.1310    1.5008   21.9006 H   0  0  0  0  0  0  0  0  0  0  0  0
    7.1293    1.9832   22.6654 C   0  0  0  0  0  0  0  0  0  0  0  0
    5.2736    0.5837   20.0942 C   0  0  0  0  0  0  0  0  0  0  0  0
    4.7858    0.6074   21.0720 H   0  0  0  0  0  0  0  0  0  0  0  0
    4.7491    1.2775   19.0053 C   0  0  0  0  0  0  0  0  0  0  0  0
    3.8532    1.8833   19.0933 H   0  0  0  0  0  0  0  0  0  0  0  0
  1  2  1  0
  2  3  2  0
  3  4  1  0
  4  5  1  0
  4  6  2  0
  6  7  1  0
  7  8  2  0
  8  9  1  0
  9 10  2  0
 10 11  1  0
 11 12  1  0
 12 13  2  0
 13 14  1  0
 13 15  1  0
 15 16  1  0
 15 17  2  0
 17 18  1  0
 17 19  1  0
 19 20  2  0
 20 21  1  0
 20 22  1  0
 22 23  1  0
 22 24  2  0
 24 25  1  0
 24 26  1  0
 26 27  1  0
 26 28  2  0
  6 29  1  0
 29 30  1  0
 29 31  2  0
 31 32  1  0
 31  2  1  0
 11  7  1  0
 28 12  1  0
 28 19  1  0
M  END
>  <cnnaffinity>  (1) 
-4.42319

>  <filename>  (1) 
c1cncc(-c2nnnn2-c2cccc3ccccc23)c1

$$$$
