
     RDKit          3D

 28 31  0  0  0  0  0  0  0  0999 V2000
    3.5923   -2.0736   27.5569 H   0  0  0  0  0  0  0  0  0  0  0  0
    3.9372   -1.2823   26.8999 C   0  0  0  0  0  0  0  0  0  0  0  0
    3.1020   -0.6184   26.0486 N   0  0  0  0  0  0  0  0  0  0  0  0
    3.9172    0.2337   25.4754 C   0  0  0  0  0  0  0  0  0  0  0  0
    3.6776    0.9566   24.7074 H   0  0  0  0  0  0  0  0  0  0  0  0
    5.1651    0.1104   25.9682 N   0  0  0  0  0  0  0  0  0  0  0  0
    6.3885    0.7654   25.5158 C   0  0  0  0  0  0  0  0  0  0  0  0
    6.1428    1.7902   25.2284 H   0  0  0  0  0  0  0  0  0  0  0  0
    7.0960    0.7897   26.3455 H   0  0  0  0  0  0  0  0  0  0  0  0
    6.9976    0.0603   24.3438 C   0  0  0  0  0  0  0  0  0  0  0  0
    6.6039    0.3045   23.1367 N   0  0  0  0  0  0  0  0  0  0  0  0
    7.2734   -0.5259   22.2823 N   0  0  0  0  0  0  0  0  0  0  0  0
    7.4024   -0.6979   20.9181 C   0  0  0  0  0  0  0  0  0  0  0  0
    6.6473    0.0135   19.8926 C   0  0  0  0  0  0  0  0  0  0  0  0
    7.1721    0.0556   18.5880 C   0  0  0  0  0  0  0  0  0  0  0  0
    8.1203   -0.4328   18.3691 H   0  0  0  0  0  0  0  0  0  0  0  0
    6.5682    0.6765   17.5736 N   0  0  0  0  0  0  0  0  0  0  0  0
    5.4043    1.2906   17.8396 C   0  0  0  0  0  0  0  0  0  0  0  0
    4.9217    1.7797   16.9981 H   0  0  0  0  0  0  0  0  0  0  0  0
    4.8052    1.3077   19.1051 C   0  0  0  0  0  0  0  0  0  0  0  0
    3.8751    1.8425   19.2567 H   0  0  0  0  0  0  0  0  0  0  0  0
    5.4296    0.6532   20.1619 C   0  0  0  0  0  0  0  0  0  0  0  0
    5.0067    0.6383   21.1696 H   0  0  0  0  0  0  0  0  0  0  0  0
    8.3193   -1.6077   20.6951 N   0  0  0  0  0  0  0  0  0  0  0  0
    8.8111   -2.0634   21.8965 N   0  0  0  0  0  0  0  0  0  0  0  0
    8.1833   -1.3885   22.8161 C   0  0  0  0  0  0  0  0  0  0  0  0
    8.2184   -1.1892   24.5450 S   0  0  0  0  0  0  0  0  0  0  0  0
    5.1937   -0.8870   26.8736 N   0  0  0  0  0  0  0  0  0  0  0  0
  1  2  1  0
  2  3  1  0
  3  4  2  0
  4  5  1  0
  4  6  1  0
  6  7  1  0
  7  8  1  0
  7  9  1  0
  7 10  1  0
 10 11  2  0
 11 12  1  0
 12 13  1  0
 13 14  1  0
 14 15  2  0
 15 16  1  0
 15 17  1  0
 17 18  2  0
 18 19  1  0
 18 20  1  0
 20 21  1  0
 20 22  2  0
 22 23  1  0
 13 24  2  0
 24 25  1  0
 25 26  2  0
 26 27  1  0
  6 28  1  0
 28  2  2  0
 27 10  1  0
 26 12  1  0
 22 14  1  0
M  END
>  <cnnaffinity>  (1) 
-5.00371

>  <filename>  (1) 
c1cncc(-c2nnc3sc(Cn4cncn4)nn23)c1

$$$$
