
     RDKit          3D

 36 39  0  0  0  0  0  0  0  0999 V2000
    4.7971    1.3215   19.0707 C   0  0  0  0  0  0  0  0  0  0  0  0
    5.4124    1.2978   17.8156 C   0  0  0  0  0  0  0  0  0  0  0  0
    6.5685    0.6536   17.5740 N   0  0  0  0  0  0  0  0  0  0  0  0
    7.1610    0.0241   18.5937 C   0  0  0  0  0  0  0  0  0  0  0  0
    6.6424    0.0250   19.8976 C   0  0  0  0  0  0  0  0  0  0  0  0
    7.3727   -0.6227   20.9292 N   0  0  0  0  0  0  0  0  0  0  0  0
    7.7826   -1.9130   20.8028 N   0  0  0  0  0  0  0  0  0  0  0  0
    8.2893   -2.1671   21.9956 C   0  0  0  0  0  0  0  0  0  0  0  0
    8.9521   -3.4362   22.3551 C   0  0  0  0  0  0  0  0  0  0  0  0
    8.2132   -4.7377   22.2002 C   0  0  0  0  0  0  0  0  0  0  0  0
    8.5712   -4.2303   23.5719 C   0  0  0  0  0  0  0  0  0  0  0  0
    7.8036   -3.8302   24.2323 H   0  0  0  0  0  0  0  0  0  0  0  0
    9.4081   -4.6982   24.0892 H   0  0  0  0  0  0  0  0  0  0  0  0
    7.1821   -4.6244   21.8586 H   0  0  0  0  0  0  0  0  0  0  0  0
    8.7256   -5.6062   21.7914 H   0  0  0  0  0  0  0  0  0  0  0  0
   10.0248   -3.3512   22.1862 H   0  0  0  0  0  0  0  0  0  0  0  0
    8.2864   -1.1219   22.8596 N   0  0  0  0  0  0  0  0  0  0  0  0
    7.7507   -0.1521   22.1526 C   0  0  0  0  0  0  0  0  0  0  0  0
    7.6969    1.2867   22.5500 C   0  0  0  0  0  0  0  0  0  0  0  0
    8.6559    2.2187   21.7559 C   0  0  0  0  0  0  0  0  0  0  0  0
   10.0953    1.9033   22.0397 C   0  0  0  0  0  0  0  0  0  0  0  0
   10.9376    2.1597   23.0763 C   0  0  0  0  0  0  0  0  0  0  0  0
   12.0488    1.3292   23.0069 N   0  0  0  0  0  0  0  0  0  0  0  0
   11.8401    0.6295   21.9419 C   0  0  0  0  0  0  0  0  0  0  0  0
   10.6942    0.9226   21.2917 O   0  0  0  0  0  0  0  0  0  0  0  0
   12.4539   -0.1688   21.5378 H   0  0  0  0  0  0  0  0  0  0  0  0
   10.8156    2.8805   23.8724 H   0  0  0  0  0  0  0  0  0  0  0  0
    8.4554    2.1192   20.6850 H   0  0  0  0  0  0  0  0  0  0  0  0
    8.4504    3.2610   22.0171 H   0  0  0  0  0  0  0  0  0  0  0  0
    6.6711    1.6357   22.4354 H   0  0  0  0  0  0  0  0  0  0  0  0
    7.9224    1.3117   23.6186 H   0  0  0  0  0  0  0  0  0  0  0  0
    5.4234    0.6754   20.1407 C   0  0  0  0  0  0  0  0  0  0  0  0
    4.9756    0.6609   21.1338 H   0  0  0  0  0  0  0  0  0  0  0  0
    8.0966   -0.4950   18.3892 H   0  0  0  0  0  0  0  0  0  0  0  0
    4.9696    1.8159   16.9687 H   0  0  0  0  0  0  0  0  0  0  0  0
    3.8590    1.8508   19.2054 H   0  0  0  0  0  0  0  0  0  0  0  0
  1  2  2  0
  2  3  1  0
  3  4  2  0
  4  5  1  0
  5  6  1  0
  6  7  1  0
  7  8  2  0
  8  9  1  0
  9 10  1  0
 10 11  1  0
 11 12  1  0
 11 13  1  0
 10 14  1  0
 10 15  1  0
  9 16  1  0
  8 17  1  0
 17 18  2  0
 18 19  1  0
 19 20  1  0
 20 21  1  0
 21 22  2  0
 22 23  1  0
 23 24  2  0
 24 25  1  0
 24 26  1  0
 22 27  1  0
 20 28  1  0
 20 29  1  0
 19 30  1  0
 19 31  1  0
  5 32  2  0
 32 33  1  0
  4 34  1  0
  2 35  1  0
  1 36  1  0
 32  1  1  0
 18  6  1  0
 25 21  1  0
 11  9  1  0
M  END
>  <cnnaffinity>  (1) 
-5.60599

>  <filename>  (1) 
c1cncc(-n2nc(C3CC3)nc2CCc2cnco2)c1

$$$$
