
     RDKit          3D

 37 39  0  0  0  0  0  0  0  0999 V2000
    4.9376    1.8022   16.9880 H   0  0  0  0  0  0  0  0  0  0  0  0
    5.3943    1.2996   17.8417 C   0  0  0  0  0  0  0  0  0  0  0  0
    6.5524    0.6685   17.5936 N   0  0  0  0  0  0  0  0  0  0  0  0
    7.1531    0.0478   18.6133 C   0  0  0  0  0  0  0  0  0  0  0  0
    8.0919   -0.4502   18.3799 H   0  0  0  0  0  0  0  0  0  0  0  0
    6.6445    0.0300   19.9197 C   0  0  0  0  0  0  0  0  0  0  0  0
    7.3802   -0.7009   20.9562 C   0  0  0  0  0  0  0  0  0  0  0  0
    7.9269   -1.8925   20.8387 N   0  0  0  0  0  0  0  0  0  0  0  0
    8.4863   -2.1715   22.0369 N   0  0  0  0  0  0  0  0  0  0  0  0
    8.3296   -1.1947   22.8600 N   0  0  0  0  0  0  0  0  0  0  0  0
    7.6350   -0.2503   22.1967 N   0  0  0  0  0  0  0  0  0  0  0  0
    7.3606    1.0410   22.7729 C   0  0  0  0  0  0  0  0  0  0  0  0
    7.2321    1.7539   21.9485 H   0  0  0  0  0  0  0  0  0  0  0  0
    8.2472    1.3233   23.3644 H   0  0  0  0  0  0  0  0  0  0  0  0
    6.1348    0.9817   23.5500 N   0  0  0  0  0  0  0  0  0  0  0  0
    6.2697    0.3085   24.3005 H   0  0  0  0  0  0  0  0  0  0  0  0
    5.5985    2.2455   24.0670 C   0  0  0  0  0  0  0  0  0  0  0  0
    4.8518    1.9682   24.8303 H   0  0  0  0  0  0  0  0  0  0  0  0
    4.8388    3.0017   22.9603 C   0  0  0  0  0  0  0  0  0  0  0  0
    4.0753    2.3292   22.5502 H   0  0  0  0  0  0  0  0  0  0  0  0
    5.5341    3.2260   22.1342 H   0  0  0  0  0  0  0  0  0  0  0  0
    4.1989    4.3065   23.4816 C   0  0  0  0  0  0  0  0  0  0  0  0
    3.4025    4.0584   24.2017 H   0  0  0  0  0  0  0  0  0  0  0  0
    3.7045    4.8416   22.6597 H   0  0  0  0  0  0  0  0  0  0  0  0
    5.2400    5.2142   24.1664 C   0  0  0  0  0  0  0  0  0  0  0  0
    4.7611    6.1197   24.5645 H   0  0  0  0  0  0  0  0  0  0  0  0
    5.9622    5.5626   23.4116 H   0  0  0  0  0  0  0  0  0  0  0  0
    5.9991    4.4661   25.2801 C   0  0  0  0  0  0  0  0  0  0  0  0
    6.7670    5.1144   25.7229 H   0  0  0  0  0  0  0  0  0  0  0  0
    5.3044    4.2230   26.0999 H   0  0  0  0  0  0  0  0  0  0  0  0
    6.6386    3.1677   24.7490 C   0  0  0  0  0  0  0  0  0  0  0  0
    7.1397    2.6178   25.5577 H   0  0  0  0  0  0  0  0  0  0  0  0
    7.4149    3.4182   24.0070 H   0  0  0  0  0  0  0  0  0  0  0  0
    5.4302    0.6852   20.1661 C   0  0  0  0  0  0  0  0  0  0  0  0
    5.0099    0.6823   21.1729 H   0  0  0  0  0  0  0  0  0  0  0  0
    4.7892    1.3261   19.1034 C   0  0  0  0  0  0  0  0  0  0  0  0
    3.8513    1.8574   19.2312 H   0  0  0  0  0  0  0  0  0  0  0  0
  1  2  1  0
  2  3  2  0
  3  4  1  0
  4  5  1  0
  4  6  2  0
  6  7  1  0
  7  8  2  0
  8  9  1  0
  9 10  2  0
 10 11  1  0
 11 12  1  0
 12 13  1  0
 12 14  1  0
 12 15  1  0
 15 16  1  0
 15 17  1  0
 17 18  1  0
 17 19  1  0
 19 20  1  0
 19 21  1  0
 19 22  1  0
 22 23  1  0
 22 24  1  0
 22 25  1  0
 25 26  1  0
 25 27  1  0
 25 28  1  0
 28 29  1  0
 28 30  1  0
 28 31  1  0
 31 32  1  0
 31 33  1  0
  6 34  1  0
 34 35  1  0
 34 36  2  0
 36 37  1  0
 36  2  1  0
 11  7  1  0
 31 17  1  0
M  END
>  <cnnaffinity>  (1) 
-4.80394

>  <filename>  (1) 
c1cncc(-c2nnnn2CNC2CCCCC2)c1

$$$$
