
     RDKit          3D

 35 38  0  0  0  0  0  0  0  0999 V2000
    4.9861    1.7918   17.0012 H   0  0  0  0  0  0  0  0  0  0  0  0
    5.4311    1.2817   17.8510 C   0  0  0  0  0  0  0  0  0  0  0  0
    6.5856    0.6410   17.6151 N   0  0  0  0  0  0  0  0  0  0  0  0
    7.1615    0.0194   18.6460 C   0  0  0  0  0  0  0  0  0  0  0  0
    8.1043   -0.4823   18.4229 H   0  0  0  0  0  0  0  0  0  0  0  0
    6.6214   -0.0270   19.9366 C   0  0  0  0  0  0  0  0  0  0  0  0
    7.3564   -0.7772   20.9847 C   0  0  0  0  0  0  0  0  0  0  0  0
    6.6045   -1.4429   21.8683 N   0  0  0  0  0  0  0  0  0  0  0  0
    7.2158   -2.0344   22.9021 C   0  0  0  0  0  0  0  0  0  0  0  0
    6.3431   -2.6625   23.8994 C   0  0  0  0  0  0  0  0  0  0  0  0
    5.4150   -3.5638   23.4456 C   0  0  0  0  0  0  0  0  0  0  0  0
    5.2631   -3.7208   22.3785 H   0  0  0  0  0  0  0  0  0  0  0  0
    4.6334   -4.3135   24.2613 N   0  0  0  0  0  0  0  0  0  0  0  0
    4.7081   -4.0828   25.5577 C   0  0  0  0  0  0  0  0  0  0  0  0
    4.0784   -4.6988   26.1962 H   0  0  0  0  0  0  0  0  0  0  0  0
    5.5255   -3.0769   26.1572 C   0  0  0  0  0  0  0  0  0  0  0  0
    5.4584   -2.7445   27.5485 C   0  0  0  0  0  0  0  0  0  0  0  0
    4.8304   -3.3425   28.2057 H   0  0  0  0  0  0  0  0  0  0  0  0
    6.1811   -1.6848   28.0453 C   0  0  0  0  0  0  0  0  0  0  0  0
    6.0788   -1.3774   29.0865 H   0  0  0  0  0  0  0  0  0  0  0  0
    7.1232   -1.0154   27.2180 C   0  0  0  0  0  0  0  0  0  0  0  0
    7.7787   -0.2589   27.6516 H   0  0  0  0  0  0  0  0  0  0  0  0
    7.2313   -1.3412   25.8849 C   0  0  0  0  0  0  0  0  0  0  0  0
    7.9631   -0.8370   25.2670 H   0  0  0  0  0  0  0  0  0  0  0  0
    6.4004   -2.3504   25.2984 C   0  0  0  0  0  0  0  0  0  0  0  0
    8.6092   -2.1059   23.0274 C   0  0  0  0  0  0  0  0  0  0  0  0
    9.0190   -2.6377   23.8813 H   0  0  0  0  0  0  0  0  0  0  0  0
    9.4020   -1.4671   22.0745 C   0  0  0  0  0  0  0  0  0  0  0  0
   10.4874   -1.4991   22.1480 H   0  0  0  0  0  0  0  0  0  0  0  0
    8.7627   -0.7798   21.0418 C   0  0  0  0  0  0  0  0  0  0  0  0
    9.3241   -0.2212   20.3031 H   0  0  0  0  0  0  0  0  0  0  0  0
    5.4038    0.6387   20.1670 C   0  0  0  0  0  0  0  0  0  0  0  0
    4.9489    0.6251   21.1607 H   0  0  0  0  0  0  0  0  0  0  0  0
    4.8045    1.3101   19.1033 C   0  0  0  0  0  0  0  0  0  0  0  0
    3.8729    1.8542   19.2276 H   0  0  0  0  0  0  0  0  0  0  0  0
  1  2  1  0
  2  3  2  0
  3  4  1  0
  4  5  1  0
  4  6  2  0
  6  7  1  0
  7  8  2  0
  8  9  1  0
  9 10  1  0
 10 11  2  0
 11 12  1  0
 11 13  1  0
 13 14  2  0
 14 15  1  0
 14 16  1  0
 16 17  2  0
 17 18  1  0
 17 19  1  0
 19 20  1  0
 19 21  2  0
 21 22  1  0
 21 23  1  0
 23 24  1  0
 23 25  2  0
  9 26  2  0
 26 27  1  0
 26 28  1  0
 28 29  1  0
 28 30  2  0
 30 31  1  0
  6 32  1  0
 32 33  1  0
 32 34  2  0
 34 35  1  0
 34  2  1  0
 30  7  1  0
 25 10  1  0
 25 16  1  0
M  END
>  <cnnaffinity>  (1) 
-5.32413

>  <filename>  (1) 
c1cncc(-c2cccc(-c3cncc4ccccc34)n2)c1

$$$$
