
     RDKit          3D

 32 34  0  0  0  0  0  0  0  0999 V2000
    4.9278    1.7997   16.9819 H   0  0  0  0  0  0  0  0  0  0  0  0
    5.3919    1.2947   17.8278 C   0  0  0  0  0  0  0  0  0  0  0  0
    6.5523    0.6667   17.5795 N   0  0  0  0  0  0  0  0  0  0  0  0
    7.1662    0.0532   18.5972 C   0  0  0  0  0  0  0  0  0  0  0  0
    8.1187   -0.4218   18.3623 H   0  0  0  0  0  0  0  0  0  0  0  0
    6.6613    0.0374   19.9124 C   0  0  0  0  0  0  0  0  0  0  0  0
    7.3643   -0.6191   20.9662 N   0  0  0  0  0  0  0  0  0  0  0  0
    7.6354   -0.2229   22.2601 C   0  0  0  0  0  0  0  0  0  0  0  0
    7.2168    0.9831   22.7252 N   0  0  0  0  0  0  0  0  0  0  0  0
    7.1354    1.6492   21.9727 H   0  0  0  0  0  0  0  0  0  0  0  0
    7.6795    1.4282   24.0354 C   0  0  0  0  0  0  0  0  0  0  0  0
    7.3562    0.6761   24.7661 H   0  0  0  0  0  0  0  0  0  0  0  0
    7.1562    2.3667   24.2532 H   0  0  0  0  0  0  0  0  0  0  0  0
    9.1913    1.6192   24.1969 C   0  0  0  0  0  0  0  0  0  0  0  0
    9.8750    2.6726   23.5718 C   0  0  0  0  0  0  0  0  0  0  0  0
    9.3492    3.3970   22.9568 H   0  0  0  0  0  0  0  0  0  0  0  0
   11.2608    2.7797   23.7213 C   0  0  0  0  0  0  0  0  0  0  0  0
   11.8030    3.5898   23.2312 H   0  0  0  0  0  0  0  0  0  0  0  0
   11.9950    1.9264   24.4468 N   0  0  0  0  0  0  0  0  0  0  0  0
   11.3512    0.9159   25.0479 C   0  0  0  0  0  0  0  0  0  0  0  0
   11.9735    0.2198   25.6131 H   0  0  0  0  0  0  0  0  0  0  0  0
    9.9688    0.7276   24.9589 C   0  0  0  0  0  0  0  0  0  0  0  0
    9.5109   -0.1397   25.4255 H   0  0  0  0  0  0  0  0  0  0  0  0
    8.2551   -1.1479   22.9484 N   0  0  0  0  0  0  0  0  0  0  0  0
    8.3509   -2.2223   22.0944 C   0  0  0  0  0  0  0  0  0  0  0  0
    8.8170   -3.1460   22.4055 H   0  0  0  0  0  0  0  0  0  0  0  0
    7.7840   -1.9296   20.8921 C   0  0  0  0  0  0  0  0  0  0  0  0
    7.4463   -2.5116   20.0632 H   0  0  0  0  0  0  0  0  0  0  0  0
    5.4338    0.6652   20.1538 C   0  0  0  0  0  0  0  0  0  0  0  0
    5.0125    0.6342   21.1568 H   0  0  0  0  0  0  0  0  0  0  0  0
    4.7948    1.3119   19.0917 C   0  0  0  0  0  0  0  0  0  0  0  0
    3.8643    1.8469   19.2408 H   0  0  0  0  0  0  0  0  0  0  0  0
  1  2  1  0
  2  3  2  0
  3  4  1  0
  4  5  1  0
  4  6  2  0
  6  7  1  0
  7  8  1  0
  8  9  1  0
  9 10  1  0
  9 11  1  0
 11 12  1  0
 11 13  1  0
 11 14  1  0
 14 15  2  0
 15 16  1  0
 15 17  1  0
 17 18  1  0
 17 19  2  0
 19 20  1  0
 20 21  1  0
 20 22  2  0
 22 23  1  0
  8 24  2  0
 24 25  1  0
 25 26  1  0
 25 27  2  0
 27 28  1  0
  6 29  1  0
 29 30  1  0
 29 31  2  0
 31 32  1  0
 31  2  1  0
 27  7  1  0
 22 14  1  0
M  END
>  <cnnaffinity>  (1) 
-5.23072

>  <filename>  (1) 
c1cncc(-n2ccnc2NCc2ccncc2)c1

$$$$
