
     RDKit          3D

 34 36  0  0  0  0  0  0  0  0999 V2000
    7.0289   -6.0750   25.1316 H   0  0  0  0  0  0  0  0  0  0  0  0
    7.7713   -5.3746   24.7763 C   0  0  0  0  0  0  0  0  0  0  0  0
    8.8187   -4.9464   25.3792 N   0  0  0  0  0  0  0  0  0  0  0  0
    9.3932   -4.0490   24.4759 C   0  0  0  0  0  0  0  0  0  0  0  0
   10.3093   -3.5355   24.7229 H   0  0  0  0  0  0  0  0  0  0  0  0
    8.6096   -3.9910   23.3553 C   0  0  0  0  0  0  0  0  0  0  0  0
    8.5976   -3.3365   22.1350 N   0  0  0  0  0  0  0  0  0  0  0  0
    7.3140   -3.0586   21.4641 C   0  0  0  0  0  0  0  0  0  0  0  0
    7.4941   -3.0276   20.3955 H   0  0  0  0  0  0  0  0  0  0  0  0
    6.6238   -3.8852   21.6638 H   0  0  0  0  0  0  0  0  0  0  0  0
    6.6314   -1.7019   21.7660 C   0  0  0  0  0  0  0  0  0  0  0  0
    5.5916   -1.7805   21.4241 H   0  0  0  0  0  0  0  0  0  0  0  0
    6.6062   -1.5210   22.8546 H   0  0  0  0  0  0  0  0  0  0  0  0
    7.2661   -0.5823   21.0544 N   0  0  0  0  0  0  0  0  0  0  0  0
    6.6363    0.0227   19.9294 C   0  0  0  0  0  0  0  0  0  0  0  0
    7.1680    0.0671   18.6040 C   0  0  0  0  0  0  0  0  0  0  0  0
    8.1152   -0.4250   18.3688 H   0  0  0  0  0  0  0  0  0  0  0  0
    6.5690    0.6765   17.5673 N   0  0  0  0  0  0  0  0  0  0  0  0
    5.4055    1.3074   17.8033 C   0  0  0  0  0  0  0  0  0  0  0  0
    4.9548    1.8212   16.9583 H   0  0  0  0  0  0  0  0  0  0  0  0
    4.7854    1.3157   19.0564 C   0  0  0  0  0  0  0  0  0  0  0  0
    3.8508    1.8469   19.1949 H   0  0  0  0  0  0  0  0  0  0  0  0
    5.3965    0.6550   20.1227 C   0  0  0  0  0  0  0  0  0  0  0  0
    4.9801    0.6495   21.1313 H   0  0  0  0  0  0  0  0  0  0  0  0
    8.5999   -0.1149   21.4230 C   0  0  0  0  0  0  0  0  0  0  0  0
    8.5404    0.8909   21.8780 H   0  0  0  0  0  0  0  0  0  0  0  0
    9.1763    0.0179   20.4942 H   0  0  0  0  0  0  0  0  0  0  0  0
    9.4069   -1.0092   22.3702 C   0  0  0  0  0  0  0  0  0  0  0  0
    8.8697   -1.1090   23.3199 H   0  0  0  0  0  0  0  0  0  0  0  0
   10.3468   -0.4940   22.6033 H   0  0  0  0  0  0  0  0  0  0  0  0
    9.7012   -2.4223   21.8577 C   0  0  0  0  0  0  0  0  0  0  0  0
   10.6107   -2.8188   22.3306 H   0  0  0  0  0  0  0  0  0  0  0  0
    9.9108   -2.4192   20.7754 H   0  0  0  0  0  0  0  0  0  0  0  0
    7.5733   -4.8532   23.5412 O   0  0  0  0  0  0  0  0  0  0  0  0
  1  2  1  0
  2  3  2  0
  3  4  1  0
  4  5  1  0
  4  6  2  0
  6  7  1  0
  7  8  1  0
  8  9  1  0
  8 10  1  0
  8 11  1  0
 11 12  1  0
 11 13  1  0
 11 14  1  0
 14 15  1  0
 15 16  2  0
 16 17  1  0
 16 18  1  0
 18 19  2  0
 19 20  1  0
 19 21  1  0
 21 22  1  0
 21 23  2  0
 23 24  1  0
 14 25  1  0
 25 26  1  0
 25 27  1  0
 25 28  1  0
 28 29  1  0
 28 30  1  0
 28 31  1  0
 31 32  1  0
 31 33  1  0
  6 34  1  0
 34  2  1  0
 31  7  1  0
 23 15  1  0
M  END
>  <cnnaffinity>  (1) 
-4.91693

>  <filename>  (1) 
c1cncc(N2CCCN(c3cnco3)CC2)c1

$$$$
