
     RDKit          3D

 37 39  0  0  0  0  0  0  0  0999 V2000
    4.9751    1.8358   16.9806 H   0  0  0  0  0  0  0  0  0  0  0  0
    5.4166    1.3045   17.8205 C   0  0  0  0  0  0  0  0  0  0  0  0
    6.5694    0.6629   17.5787 N   0  0  0  0  0  0  0  0  0  0  0  0
    7.1502    0.0337   18.6083 C   0  0  0  0  0  0  0  0  0  0  0  0
    8.0912   -0.4717   18.3833 H   0  0  0  0  0  0  0  0  0  0  0  0
    6.6220   -0.0053   19.9070 C   0  0  0  0  0  0  0  0  0  0  0  0
    7.3648   -0.6946   20.9660 C   0  0  0  0  0  0  0  0  0  0  0  0
    6.7604   -1.6060   21.7943 N   0  0  0  0  0  0  0  0  0  0  0  0
    7.6844   -2.0332   22.6069 C   0  0  0  0  0  0  0  0  0  0  0  0
    7.5402   -2.7523   23.4057 H   0  0  0  0  0  0  0  0  0  0  0  0
    8.8868   -1.4456   22.3485 N   0  0  0  0  0  0  0  0  0  0  0  0
    9.7020   -1.5078   22.9409 H   0  0  0  0  0  0  0  0  0  0  0  0
    8.7017   -0.5540   21.3160 C   0  0  0  0  0  0  0  0  0  0  0  0
    9.7361    0.4575   20.9350 C   0  0  0  0  0  0  0  0  0  0  0  0
   10.7374    0.0149   21.0368 H   0  0  0  0  0  0  0  0  0  0  0  0
    9.5973    0.6814   19.8742 H   0  0  0  0  0  0  0  0  0  0  0  0
    9.6809    1.7959   21.7224 C   0  0  0  0  0  0  0  0  0  0  0  0
   10.4498    2.4472   21.2745 H   0  0  0  0  0  0  0  0  0  0  0  0
    8.3042    2.4663   21.5774 C   0  0  0  0  0  0  0  0  0  0  0  0
    8.0125    2.5182   20.5268 H   0  0  0  0  0  0  0  0  0  0  0  0
    7.5717    1.8055   22.0547 H   0  0  0  0  0  0  0  0  0  0  0  0
    8.2066    3.8293   22.2786 C   0  0  0  0  0  0  0  0  0  0  0  0
    7.1834    4.2061   22.1822 H   0  0  0  0  0  0  0  0  0  0  0  0
    8.8352    4.5753   21.7849 H   0  0  0  0  0  0  0  0  0  0  0  0
    8.6191    3.7326   23.7590 C   0  0  0  0  0  0  0  0  0  0  0  0
    7.8551    3.1769   24.3196 H   0  0  0  0  0  0  0  0  0  0  0  0
    8.6487    4.7322   24.2066 H   0  0  0  0  0  0  0  0  0  0  0  0
    9.9763    3.0293   23.9291 C   0  0  0  0  0  0  0  0  0  0  0  0
   10.2110    2.9086   24.9920 H   0  0  0  0  0  0  0  0  0  0  0  0
   10.7634    3.6724   23.5096 H   0  0  0  0  0  0  0  0  0  0  0  0
    9.9955    1.6597   23.2254 C   0  0  0  0  0  0  0  0  0  0  0  0
   10.9572    1.1557   23.3776 H   0  0  0  0  0  0  0  0  0  0  0  0
    9.2309    1.0200   23.6937 H   0  0  0  0  0  0  0  0  0  0  0  0
    5.3914    0.6388   20.1295 C   0  0  0  0  0  0  0  0  0  0  0  0
    4.9357    0.6267   21.1219 H   0  0  0  0  0  0  0  0  0  0  0  0
    4.7854    1.3114   19.0685 C   0  0  0  0  0  0  0  0  0  0  0  0
    3.8545    1.8531   19.1942 H   0  0  0  0  0  0  0  0  0  0  0  0
  1  2  1  0
  2  3  2  0
  3  4  1  0
  4  5  1  0
  4  6  2  0
  6  7  1  0
  7  8  1  0
  8  9  2  0
  9 10  1  0
  9 11  1  0
 11 12  1  0
 11 13  1  0
 13 14  1  0
 14 15  1  0
 14 16  1  0
 14 17  1  0
 17 18  1  0
 17 19  1  0
 19 20  1  0
 19 21  1  0
 19 22  1  0
 22 23  1  0
 22 24  1  0
 22 25  1  0
 25 26  1  0
 25 27  1  0
 25 28  1  0
 28 29  1  0
 28 30  1  0
 28 31  1  0
 31 32  1  0
 31 33  1  0
  6 34  1  0
 34 35  1  0
 34 36  2  0
 36 37  1  0
 36  2  1  0
 13  7  2  0
 31 17  1  0
M  END
>  <cnnaffinity>  (1) 
-5.24684

>  <filename>  (1) 
c1cncc(-c2nc[nH]c2CC2CCCCC2)c1

$$$$
