
     RDKit          3D

 43 46  0  0  0  0  0  0  0  0999 V2000
    4.8225    1.3017   19.1116 C   0  0  0  0  0  0  0  0  0  0  0  0
    5.4177    1.2950   17.8428 C   0  0  0  0  0  0  0  0  0  0  0  0
    6.5660    0.6560   17.5667 N   0  0  0  0  0  0  0  0  0  0  0  0
    7.1804    0.0291   18.5780 C   0  0  0  0  0  0  0  0  0  0  0  0
    6.6773    0.0062   19.8928 C   0  0  0  0  0  0  0  0  0  0  0  0
    7.3610   -0.6562   20.9494 N   0  0  0  0  0  0  0  0  0  0  0  0
    6.7140   -1.5985   21.6838 N   0  0  0  0  0  0  0  0  0  0  0  0
    7.6365   -1.9801   22.5419 C   0  0  0  0  0  0  0  0  0  0  0  0
    7.4080   -2.9820   23.6145 C   0  0  0  0  0  0  0  0  0  0  0  0
    6.7778   -4.3167   23.1381 C   0  0  0  0  0  0  0  0  0  0  0  0
    5.3050   -4.0592   24.1813 S   0  0  0  0  0  0  0  0  0  0  0  0
    6.2942   -2.5945   24.6298 C   0  0  0  0  0  0  0  0  0  0  0  0
    5.7817   -1.6503   24.4202 H   0  0  0  0  0  0  0  0  0  0  0  0
    6.6084   -2.5987   25.6778 H   0  0  0  0  0  0  0  0  0  0  0  0
    6.5361   -4.3542   22.0714 H   0  0  0  0  0  0  0  0  0  0  0  0
    7.3438   -5.2125   23.4115 H   0  0  0  0  0  0  0  0  0  0  0  0
    8.3771   -3.1165   24.0928 H   0  0  0  0  0  0  0  0  0  0  0  0
    8.8327   -1.3515   22.4256 N   0  0  0  0  0  0  0  0  0  0  0  0
    8.6246   -0.4954   21.4397 C   0  0  0  0  0  0  0  0  0  0  0  0
    9.5227    0.5793   20.9394 C   0  0  0  0  0  0  0  0  0  0  0  0
    9.0103    1.9946   21.2688 C   0  0  0  0  0  0  0  0  0  0  0  0
    8.8411    2.2455   22.7824 C   0  0  0  0  0  0  0  0  0  0  0  0
   10.1629    2.1146   23.5037 C   0  0  0  0  0  0  0  0  0  0  0  0
   11.1739    3.0623   23.3021 C   0  0  0  0  0  0  0  0  0  0  0  0
   12.4463    2.8274   23.8163 C   0  0  0  0  0  0  0  0  0  0  0  0
   12.7624    1.7537   24.5521 N   0  0  0  0  0  0  0  0  0  0  0  0
   11.7856    0.8732   24.7890 C   0  0  0  0  0  0  0  0  0  0  0  0
   10.4903    1.0004   24.2804 C   0  0  0  0  0  0  0  0  0  0  0  0
    9.7571    0.2263   24.4605 H   0  0  0  0  0  0  0  0  0  0  0  0
   12.0485    0.0282   25.4208 H   0  0  0  0  0  0  0  0  0  0  0  0
   13.2493    3.5428   23.6420 H   0  0  0  0  0  0  0  0  0  0  0  0
   10.9711    3.9610   22.7312 H   0  0  0  0  0  0  0  0  0  0  0  0
    8.4141    3.2416   22.9443 H   0  0  0  0  0  0  0  0  0  0  0  0
    8.1057    1.5435   23.1936 H   0  0  0  0  0  0  0  0  0  0  0  0
    8.0695    2.1744   20.7366 H   0  0  0  0  0  0  0  0  0  0  0  0
    9.7327    2.7190   20.8803 H   0  0  0  0  0  0  0  0  0  0  0  0
   10.5269    0.4305   21.3454 H   0  0  0  0  0  0  0  0  0  0  0  0
    9.5992    0.4579   19.8580 H   0  0  0  0  0  0  0  0  0  0  0  0
    5.4553    0.6304   20.1589 C   0  0  0  0  0  0  0  0  0  0  0  0
    5.0339    0.5683   21.1650 H   0  0  0  0  0  0  0  0  0  0  0  0
    8.1089   -0.4924   18.3381 H   0  0  0  0  0  0  0  0  0  0  0  0
    4.9489    1.8208   17.0168 H   0  0  0  0  0  0  0  0  0  0  0  0
    3.8841    1.8243   19.2703 H   0  0  0  0  0  0  0  0  0  0  0  0
  1  2  2  0
  2  3  1  0
  3  4  2  0
  4  5  1  0
  5  6  1  0
  6  7  1  0
  7  8  2  0
  8  9  1  0
  9 10  1  0
 10 11  1  0
 11 12  1  0
 12 13  1  0
 12 14  1  0
 10 15  1  0
 10 16  1  0
  9 17  1  0
  8 18  1  0
 18 19  2  0
 19 20  1  0
 20 21  1  0
 21 22  1  0
 22 23  1  0
 23 24  2  0
 24 25  1  0
 25 26  2  0
 26 27  1  0
 27 28  2  0
 28 29  1  0
 27 30  1  0
 25 31  1  0
 24 32  1  0
 22 33  1  0
 22 34  1  0
 21 35  1  0
 21 36  1  0
 20 37  1  0
 20 38  1  0
  5 39  2  0
 39 40  1  0
  4 41  1  0
  2 42  1  0
  1 43  1  0
 39  1  1  0
 19  6  1  0
 28 23  1  0
 12  9  1  0
M  END
>  <cnnaffinity>  (1) 
-6.08883

>  <filename>  (1) 
c1cncc(-n2nc(C3CSC3)nc2CCCc2ccncc2)c1

$$$$
