
     RDKit          3D

 40 43  0  0  0  0  0  0  0  0999 V2000
    4.9478    1.8346   16.9600 H   0  0  0  0  0  0  0  0  0  0  0  0
    5.3841    1.3011   17.8027 C   0  0  0  0  0  0  0  0  0  0  0  0
    6.5137    0.6223   17.5484 N   0  0  0  0  0  0  0  0  0  0  0  0
    7.1010    0.0029   18.5766 C   0  0  0  0  0  0  0  0  0  0  0  0
    7.9989   -0.5620   18.3344 H   0  0  0  0  0  0  0  0  0  0  0  0
    6.6278    0.0637   19.9025 C   0  0  0  0  0  0  0  0  0  0  0  0
    7.3976   -0.5451   20.9884 C   0  0  0  0  0  0  0  0  0  0  0  0
    7.9602   -1.7395   20.8103 N   0  0  0  0  0  0  0  0  0  0  0  0
    8.6019   -1.9524   21.9580 N   0  0  0  0  0  0  0  0  0  0  0  0
    8.5600   -0.9437   22.8372 C   0  0  0  0  0  0  0  0  0  0  0  0
    7.7419    0.0116   22.2642 C   0  0  0  0  0  0  0  0  0  0  0  0
    7.2815    1.3240   22.8301 C   0  0  0  0  0  0  0  0  0  0  0  0
    7.2432    2.0380   21.9974 H   0  0  0  0  0  0  0  0  0  0  0  0
    8.0346    1.7238   23.5414 H   0  0  0  0  0  0  0  0  0  0  0  0
    5.9287    1.2768   23.4136 N   0  0  0  0  0  0  0  0  0  0  0  0
    5.4491    2.6079   23.8133 C   0  0  0  0  0  0  0  0  0  0  0  0
    4.3495    2.6027   23.8259 H   0  0  0  0  0  0  0  0  0  0  0  0
    5.7536    3.3730   23.0887 H   0  0  0  0  0  0  0  0  0  0  0  0
    6.0042    2.8706   25.2300 C   0  0  0  0  0  0  0  0  0  0  0  0
    6.9574    3.4079   25.1754 H   0  0  0  0  0  0  0  0  0  0  0  0
    5.3152    3.4814   25.8205 H   0  0  0  0  0  0  0  0  0  0  0  0
    6.2170    1.4566   25.8229 C   0  0  0  0  0  0  0  0  0  0  0  0
    5.5851    1.2701   26.6962 H   0  0  0  0  0  0  0  0  0  0  0  0
    7.2563    1.3089   26.1379 H   0  0  0  0  0  0  0  0  0  0  0  0
    5.8504    0.4962   24.6667 C   0  0  0  0  0  0  0  0  0  0  0  0
    4.8185    0.1364   24.7857 H   0  0  0  0  0  0  0  0  0  0  0  0
    6.4954   -0.3873   24.6305 H   0  0  0  0  0  0  0  0  0  0  0  0
    9.4650   -1.2468   24.0039 C   0  0  0  0  0  0  0  0  0  0  0  0
   10.1798   -0.4377   24.1772 H   0  0  0  0  0  0  0  0  0  0  0  0
    8.8934   -1.3868   24.9301 H   0  0  0  0  0  0  0  0  0  0  0  0
   10.2007   -2.5525   23.5601 C   0  0  0  0  0  0  0  0  0  0  0  0
   10.1749   -3.3218   24.3346 H   0  0  0  0  0  0  0  0  0  0  0  0
   11.2431   -2.3389   23.3254 H   0  0  0  0  0  0  0  0  0  0  0  0
    9.5296   -3.0090   22.2343 C   0  0  0  0  0  0  0  0  0  0  0  0
    9.0112   -3.9744   22.2769 H   0  0  0  0  0  0  0  0  0  0  0  0
   10.2433   -2.9881   21.4126 H   0  0  0  0  0  0  0  0  0  0  0  0
    5.4192    0.7302   20.1413 C   0  0  0  0  0  0  0  0  0  0  0  0
    5.0017    0.7656   21.1502 H   0  0  0  0  0  0  0  0  0  0  0  0
    4.7840    1.3455   19.0644 C   0  0  0  0  0  0  0  0  0  0  0  0
    3.8455    1.8686   19.1868 H   0  0  0  0  0  0  0  0  0  0  0  0
  1  2  1  0
  2  3  2  0
  3  4  1  0
  4  5  1  0
  4  6  2  0
  6  7  1  0
  7  8  2  0
  8  9  1  0
  9 10  1  0
 10 11  2  0
 11 12  1  0
 12 13  1  0
 12 14  1  0
 12 15  1  0
 15 16  1  0
 16 17  1  0
 16 18  1  0
 16 19  1  0
 19 20  1  0
 19 21  1  0
 19 22  1  0
 22 23  1  0
 22 24  1  0
 22 25  1  0
 25 26  1  0
 25 27  1  0
 10 28  1  0
 28 29  1  0
 28 30  1  0
 28 31  1  0
 31 32  1  0
 31 33  1  0
 31 34  1  0
 34 35  1  0
 34 36  1  0
  6 37  1  0
 37 38  1  0
 37 39  2  0
 39 40  1  0
 39  2  1  0
 11  7  1  0
 25 15  1  0
 34  9  1  0
M  END
>  <cnnaffinity>  (1) 
-5.23467

>  <filename>  (1) 
c1cncc(-c2nn3c(c2CN2CCCC2)CCC3)c1

$$$$
