
     RDKit          3D

 34 37  0  0  0  0  0  0  0  0999 V2000
    4.9387    1.7883   16.9948 H   0  0  0  0  0  0  0  0  0  0  0  0
    5.4068    1.2839   17.8376 C   0  0  0  0  0  0  0  0  0  0  0  0
    6.5646    0.6630   17.5744 N   0  0  0  0  0  0  0  0  0  0  0  0
    7.1897    0.0658   18.5909 C   0  0  0  0  0  0  0  0  0  0  0  0
    8.1386   -0.4123   18.3577 H   0  0  0  0  0  0  0  0  0  0  0  0
    6.6841    0.0240   19.8969 C   0  0  0  0  0  0  0  0  0  0  0  0
    7.4340   -0.7110   20.9392 C   0  0  0  0  0  0  0  0  0  0  0  0
    8.7777   -0.6992   20.8979 N   0  0  0  0  0  0  0  0  0  0  0  0
    9.4830   -1.3110   21.8584 N   0  0  0  0  0  0  0  0  0  0  0  0
    8.8636   -1.9711   22.8435 C   0  0  0  0  0  0  0  0  0  0  0  0
    9.5265   -2.4294   23.5736 H   0  0  0  0  0  0  0  0  0  0  0  0
    7.4576   -2.0457   22.9497 C   0  0  0  0  0  0  0  0  0  0  0  0
    6.7958   -2.7812   24.0613 C   0  0  0  0  0  0  0  0  0  0  0  0
    7.0136   -4.1395   24.2043 C   0  0  0  0  0  0  0  0  0  0  0  0
    7.7053   -4.6158   23.5187 H   0  0  0  0  0  0  0  0  0  0  0  0
    6.3476   -4.9097   25.1936 C   0  0  0  0  0  0  0  0  0  0  0  0
    6.5509   -5.9785   25.2613 H   0  0  0  0  0  0  0  0  0  0  0  0
    5.4636   -4.2985   26.0536 C   0  0  0  0  0  0  0  0  0  0  0  0
    4.9170   -4.8203   26.8350 H   0  0  0  0  0  0  0  0  0  0  0  0
    5.2281   -2.8955   25.9651 C   0  0  0  0  0  0  0  0  0  0  0  0
    4.3279   -2.3570   26.8512 N   0  0  0  0  0  0  0  0  0  0  0  0
    4.1163   -1.0660   26.7986 C   0  0  0  0  0  0  0  0  0  0  0  0
    3.4005   -0.6688   27.5204 H   0  0  0  0  0  0  0  0  0  0  0  0
    4.7575   -0.1837   25.8826 C   0  0  0  0  0  0  0  0  0  0  0  0
    4.5047    0.8685   25.8999 H   0  0  0  0  0  0  0  0  0  0  0  0
    5.6640   -0.7018   24.9869 C   0  0  0  0  0  0  0  0  0  0  0  0
    6.1647   -0.0690   24.2515 H   0  0  0  0  0  0  0  0  0  0  0  0
    5.9164   -2.1115   24.9827 C   0  0  0  0  0  0  0  0  0  0  0  0
    6.7434   -1.4096   21.9386 C   0  0  0  0  0  0  0  0  0  0  0  0
    5.6610   -1.4512   21.9030 H   0  0  0  0  0  0  0  0  0  0  0  0
    5.4572    0.6557   20.1575 C   0  0  0  0  0  0  0  0  0  0  0  0
    5.0116    0.6565   21.1555 H   0  0  0  0  0  0  0  0  0  0  0  0
    4.8191    1.3073   19.1053 C   0  0  0  0  0  0  0  0  0  0  0  0
    3.8849    1.8325   19.2486 H   0  0  0  0  0  0  0  0  0  0  0  0
  1  2  1  0
  2  3  2  0
  3  4  1  0
  4  5  1  0
  4  6  2  0
  6  7  1  0
  7  8  2  0
  8  9  1  0
  9 10  2  0
 10 11  1  0
 10 12  1  0
 12 13  1  0
 13 14  2  0
 14 15  1  0
 14 16  1  0
 16 17  1  0
 16 18  2  0
 18 19  1  0
 18 20  1  0
 20 21  2  0
 21 22  1  0
 22 23  1  0
 22 24  2  0
 24 25  1  0
 24 26  1  0
 26 27  1  0
 26 28  2  0
 12 29  2  0
 29 30  1  0
  6 31  1  0
 31 32  1  0
 31 33  2  0
 33 34  1  0
 33  2  1  0
 29  7  1  0
 28 13  1  0
 28 20  1  0
M  END
>  <cnnaffinity>  (1) 
-5.32617

>  <filename>  (1) 
c1cncc(-c2cc(-c3cccc4ncccc34)cnn2)c1

$$$$
