
     RDKit          3D

 37 40  0  0  0  0  0  0  0  0999 V2000
    5.1416    1.3332   17.1381 H   0  0  0  0  0  0  0  0  0  0  0  0
    5.6024    0.7833   17.9563 C   0  0  0  0  0  0  0  0  0  0  0  0
    6.6295   -0.0141   17.6268 N   0  0  0  0  0  0  0  0  0  0  0  0
    7.2266   -0.6902   18.6203 C   0  0  0  0  0  0  0  0  0  0  0  0
    8.0726   -1.3072   18.3077 H   0  0  0  0  0  0  0  0  0  0  0  0
    6.8412   -0.6162   19.9599 C   0  0  0  0  0  0  0  0  0  0  0  0
    7.6777   -1.3414   21.0140 C   0  0  2  0  0  0  0  0  0  0  0  0
    8.7268   -1.3953   20.6771 H   0  0  0  0  0  0  0  0  0  0  0  0
    7.2424   -2.6598   21.2143 O   0  0  0  0  0  0  0  0  0  0  0  0
    6.3090   -2.6136   22.2754 C   0  0  0  0  0  0  0  0  0  0  0  0
    6.1923   -3.6218   22.6788 H   0  0  0  0  0  0  0  0  0  0  0  0
    5.3479   -2.2419   21.8901 H   0  0  0  0  0  0  0  0  0  0  0  0
    6.9062   -1.6051   23.2516 C   0  0  0  0  0  0  0  0  0  0  0  0
    6.1222   -1.1179   23.8356 H   0  0  0  0  0  0  0  0  0  0  0  0
    7.6161   -2.0735   23.9490 H   0  0  0  0  0  0  0  0  0  0  0  0
    7.6054   -0.7084   22.3396 N   0  0  0  0  0  0  0  0  0  0  0  0
    7.9313    0.6446   22.5216 C   0  0  0  0  0  0  0  0  0  0  0  0
    8.5806    1.2775   21.4657 C   0  0  0  0  0  0  0  0  0  0  0  0
    8.9518    0.6914   20.6409 H   0  0  0  0  0  0  0  0  0  0  0  0
    8.7147    2.6732   21.3881 C   0  0  0  0  0  0  0  0  0  0  0  0
    9.1725    3.0825   20.5011 H   0  0  0  0  0  0  0  0  0  0  0  0
    8.2774    3.4727   22.4043 C   0  0  0  0  0  0  0  0  0  0  0  0
    8.3479    4.5530   22.3337 H   0  0  0  0  0  0  0  0  0  0  0  0
    7.7836    2.8818   23.5994 C   0  0  0  0  0  0  0  0  0  0  0  0
    7.5189    3.7219   24.7217 C   0  0  0  0  0  0  0  0  0  0  0  0
    7.6427    4.7926   24.5794 H   0  0  0  0  0  0  0  0  0  0  0  0
    7.1904    3.1870   25.9391 C   0  0  0  0  0  0  0  0  0  0  0  0
    7.0463    3.8358   26.7981 H   0  0  0  0  0  0  0  0  0  0  0  0
    7.0885    1.7801   26.0721 C   0  0  0  0  0  0  0  0  0  0  0  0
    6.8140    1.3447   27.0254 H   0  0  0  0  0  0  0  0  0  0  0  0
    7.3033    0.9446   24.9972 C   0  0  0  0  0  0  0  0  0  0  0  0
    7.2524   -0.1204   25.1602 H   0  0  0  0  0  0  0  0  0  0  0  0
    7.6466    1.4526   23.7038 C   0  0  0  0  0  0  0  0  0  0  0  0
    5.7391    0.1958   20.2815 C   0  0  0  0  0  0  0  0  0  0  0  0
    5.4423    0.3333   21.3245 H   0  0  0  0  0  0  0  0  0  0  0  0
    5.1181    0.9141   19.2631 C   0  0  0  0  0  0  0  0  0  0  0  0
    4.2961    1.5909   19.4775 H   0  0  0  0  0  0  0  0  0  0  0  0
  1  2  1  0
  2  3  2  0
  3  4  1  0
  4  5  1  0
  4  6  2  0
  6  7  1  0
  7  8  1  6
  7  9  1  0
  9 10  1  0
 10 11  1  0
 10 12  1  0
 10 13  1  0
 13 14  1  0
 13 15  1  0
 13 16  1  0
 16 17  1  0
 17 18  2  0
 18 19  1  0
 18 20  1  0
 20 21  1  0
 20 22  2  0
 22 23  1  0
 22 24  1  0
 24 25  2  0
 25 26  1  0
 25 27  1  0
 27 28  1  0
 27 29  2  0
 29 30  1  0
 29 31  1  0
 31 32  1  0
 31 33  2  0
  6 34  1  0
 34 35  1  0
 34 36  2  0
 36 37  1  0
 36  2  1  0
 16  7  1  0
 33 17  1  0
 33 24  1  0
M  END
>  <cnnaffinity>  (1) 
-4.26027

>  <filename>  (1) 
c1cncc([C@@H]2OCCN2c2cccc3ccccc23)c1

$$$$
