
     RDKit          3D

 34 37  0  0  0  0  0  0  0  0999 V2000
    4.9109    1.8054   16.9754 H   0  0  0  0  0  0  0  0  0  0  0  0
    5.3850    1.3062   17.8186 C   0  0  0  0  0  0  0  0  0  0  0  0
    6.5486    0.6894   17.5538 N   0  0  0  0  0  0  0  0  0  0  0  0
    7.1589    0.0664   18.5679 C   0  0  0  0  0  0  0  0  0  0  0  0
    8.1150   -0.3984   18.3266 H   0  0  0  0  0  0  0  0  0  0  0  0
    6.6552    0.0148   19.8850 C   0  0  0  0  0  0  0  0  0  0  0  0
    7.3730   -0.6610   20.9774 C   0  0  0  0  0  0  0  0  0  0  0  0
    7.5093   -0.3377   22.3227 C   0  0  0  0  0  0  0  0  0  0  0  0
    6.9997    0.8048   22.9443 N   0  0  0  0  0  0  0  0  0  0  0  0
    6.9766    1.6383   22.3784 H   0  0  0  0  0  0  0  0  0  0  0  0
    6.8321    1.0073   24.3116 C   0  0  0  0  0  0  0  0  0  0  0  0
    6.3643   -0.0237   25.1229 C   0  0  0  0  0  0  0  0  0  0  0  0
    6.1733   -0.9769   24.6390 H   0  0  0  0  0  0  0  0  0  0  0  0
    6.1539    0.1718   26.5031 C   0  0  0  0  0  0  0  0  0  0  0  0
    5.7965   -0.6668   27.0988 H   0  0  0  0  0  0  0  0  0  0  0  0
    6.4007    1.4064   27.0956 C   0  0  0  0  0  0  0  0  0  0  0  0
    6.2399    1.5566   28.1594 H   0  0  0  0  0  0  0  0  0  0  0  0
    6.8613    2.4488   26.2641 C   0  0  0  0  0  0  0  0  0  0  0  0
    7.0808    2.2855   24.8718 C   0  0  0  0  0  0  0  0  0  0  0  0
    7.5514    3.5581   24.3818 C   0  0  0  0  0  0  0  0  0  0  0  0
    7.8433    3.8004   23.3649 H   0  0  0  0  0  0  0  0  0  0  0  0
    7.5932    4.4114   25.4464 C   0  0  0  0  0  0  0  0  0  0  0  0
    7.8827    5.4548   25.4963 H   0  0  0  0  0  0  0  0  0  0  0  0
    7.1788    3.7432   26.5776 N   0  0  0  0  0  0  0  0  0  0  0  0
    7.0988    4.1192   27.5075 H   0  0  0  0  0  0  0  0  0  0  0  0
    8.2933   -1.3876   22.8676 C   0  0  0  0  0  0  0  0  0  0  0  0
    8.6364   -1.4792   23.8916 H   0  0  0  0  0  0  0  0  0  0  0  0
    8.6095   -2.2959   21.9486 N   0  0  0  0  0  0  0  0  0  0  0  0
    8.0508   -1.8309   20.8212 N   0  0  0  0  0  0  0  0  0  0  0  0
    8.1209   -2.3746   19.9701 H   0  0  0  0  0  0  0  0  0  0  0  0
    5.4345    0.6615   20.1366 C   0  0  0  0  0  0  0  0  0  0  0  0
    5.0193    0.6295   21.1441 H   0  0  0  0  0  0  0  0  0  0  0  0
    4.7922    1.3186   19.0864 C   0  0  0  0  0  0  0  0  0  0  0  0
    3.8615    1.8508   19.2384 H   0  0  0  0  0  0  0  0  0  0  0  0
  1  2  1  0
  2  3  2  0
  3  4  1  0
  4  5  1  0
  4  6  2  0
  6  7  1  0
  7  8  2  0
  8  9  1  0
  9 10  1  0
  9 11  1  0
 11 12  2  0
 12 13  1  0
 12 14  1  0
 14 15  1  0
 14 16  2  0
 16 17  1  0
 16 18  1  0
 18 19  2  0
 19 20  1  0
 20 21  1  0
 20 22  2  0
 22 23  1  0
 22 24  1  0
 24 25  1  0
  8 26  1  0
 26 27  1  0
 26 28  2  0
 28 29  1  0
 29 30  1  0
  6 31  1  0
 31 32  1  0
 31 33  2  0
 33 34  1  0
 33  2  1  0
 29  7  1  0
 19 11  1  0
 24 18  1  0
M  END
>  <cnnaffinity>  (1) 
-5.4402

>  <filename>  (1) 
c1cncc(-c2[nH]ncc2Nc2cccc3[nH]ccc23)c1

$$$$
