
     RDKit          3D

 27 29  0  0  0  0  0  0  0  0999 V2000
    3.3759    1.3559   25.9959 H   0  0  0  0  0  0  0  0  0  0  0  0
    4.2248    1.3061   25.3200 C   0  0  0  0  0  0  0  0  0  0  0  0
    5.1549    0.3978   25.5884 N   0  0  0  0  0  0  0  0  0  0  0  0
    6.1853    0.3428   24.7427 C   0  0  0  0  0  0  0  0  0  0  0  0
    6.9601   -0.3920   24.9519 H   0  0  0  0  0  0  0  0  0  0  0  0
    6.3096    1.1820   23.6379 C   0  0  0  0  0  0  0  0  0  0  0  0
    7.5111    1.1055   22.7170 C   0  0  0  0  0  0  0  0  0  0  0  0
    7.4066    1.8231   21.8976 H   0  0  0  0  0  0  0  0  0  0  0  0
    8.4252    1.3793   23.2550 H   0  0  0  0  0  0  0  0  0  0  0  0
    7.7325   -0.2155   22.1245 N   0  0  0  0  0  0  0  0  0  0  0  0
    8.4041   -1.1836   22.7764 N   0  0  0  0  0  0  0  0  0  0  0  0
    8.4609   -2.1971   21.9888 N   0  0  0  0  0  0  0  0  0  0  0  0
    7.8566   -1.9308   20.8155 N   0  0  0  0  0  0  0  0  0  0  0  0
    7.3895   -0.7089   20.9150 C   0  0  0  0  0  0  0  0  0  0  0  0
    6.6503    0.0205   19.8944 C   0  0  0  0  0  0  0  0  0  0  0  0
    7.1719    0.0554   18.5937 C   0  0  0  0  0  0  0  0  0  0  0  0
    8.1199   -0.4372   18.3788 H   0  0  0  0  0  0  0  0  0  0  0  0
    6.5697    0.6789   17.5811 N   0  0  0  0  0  0  0  0  0  0  0  0
    5.4031    1.2935   17.8419 C   0  0  0  0  0  0  0  0  0  0  0  0
    4.9156    1.7766   17.0010 H   0  0  0  0  0  0  0  0  0  0  0  0
    4.8004    1.3161   19.1053 C   0  0  0  0  0  0  0  0  0  0  0  0
    3.8677    1.8473   19.2620 H   0  0  0  0  0  0  0  0  0  0  0  0
    5.4329    0.6618   20.1533 C   0  0  0  0  0  0  0  0  0  0  0  0
    4.9967    0.6222   21.1517 H   0  0  0  0  0  0  0  0  0  0  0  0
    5.2791    2.0961   23.4861 C   0  0  0  0  0  0  0  0  0  0  0  0
    5.3001    2.8009   22.6509 H   0  0  0  0  0  0  0  0  0  0  0  0
    4.2246    2.1694   24.3070 N   0  0  0  0  0  0  0  0  0  0  0  0
  1  2  1  0
  2  3  2  0
  3  4  1  0
  4  5  1  0
  4  6  2  0
  6  7  1  0
  7  8  1  0
  7  9  1  0
  7 10  1  0
 10 11  1  0
 11 12  2  0
 12 13  1  0
 13 14  2  0
 14 15  1  0
 15 16  2  0
 16 17  1  0
 16 18  1  0
 18 19  2  0
 19 20  1  0
 19 21  1  0
 21 22  1  0
 21 23  2  0
 23 24  1  0
  6 25  1  0
 25 26  1  0
 25 27  2  0
 27  2  1  0
 14 10  1  0
 23 15  1  0
M  END
>  <cnnaffinity>  (1) 
-4.65346

>  <filename>  (1) 
c1cncc(-c2nnnn2Cc2cncnc2)c1

$$$$
