
     RDKit          3D

 33 36  0  0  0  0  0  0  0  0999 V2000
    5.1511    1.6596   17.2680 H   0  0  0  0  0  0  0  0  0  0  0  0
    5.6879    1.0486   17.9879 C   0  0  0  0  0  0  0  0  0  0  0  0
    6.8684    0.5645   17.5775 N   0  0  0  0  0  0  0  0  0  0  0  0
    7.5863   -0.1399   18.4555 C   0  0  0  0  0  0  0  0  0  0  0  0
    8.5467   -0.5199   18.1067 H   0  0  0  0  0  0  0  0  0  0  0  0
    7.1579   -0.3895   19.7720 C   0  0  0  0  0  0  0  0  0  0  0  0
    8.0467   -1.0724   20.7134 C   0  0  0  0  0  0  0  0  0  0  0  0
    9.3383   -1.2738   20.6089 N   0  0  0  0  0  0  0  0  0  0  0  0
    9.7910   -1.8885   21.7613 N   0  0  0  0  0  0  0  0  0  0  0  0
    8.7426   -2.0358   22.5297 C   0  0  0  0  0  0  0  0  0  0  0  0
    8.3064   -2.7065   24.0959 S   0  0  0  0  0  0  0  0  0  0  0  0
    6.6411   -2.2736   23.7272 C   0  0  0  0  0  0  0  0  0  0  0  0
    5.5496   -2.4522   24.4977 N   0  0  0  0  0  0  0  0  0  0  0  0
    4.7721   -2.1385   23.9351 H   0  0  0  0  0  0  0  0  0  0  0  0
    5.3265   -3.1872   25.7223 C   0  0  0  0  0  0  0  0  0  0  0  0
    6.1846   -3.0423   26.3877 H   0  0  0  0  0  0  0  0  0  0  0  0
    4.4682   -2.7180   26.2250 H   0  0  0  0  0  0  0  0  0  0  0  0
    5.0350   -4.6882   25.5560 C   0  0  0  0  0  0  0  0  0  0  0  0
    5.7274   -5.6415   26.3221 C   0  0  0  0  0  0  0  0  0  0  0  0
    6.5134   -5.3388   27.0040 H   0  0  0  0  0  0  0  0  0  0  0  0
    5.4156   -7.0005   26.1986 C   0  0  0  0  0  0  0  0  0  0  0  0
    5.9283   -7.7344   26.8192 H   0  0  0  0  0  0  0  0  0  0  0  0
    4.5071   -7.4719   25.3355 N   0  0  0  0  0  0  0  0  0  0  0  0
    3.8590   -6.5702   24.5884 C   0  0  0  0  0  0  0  0  0  0  0  0
    3.1487   -6.9736   23.8706 H   0  0  0  0  0  0  0  0  0  0  0  0
    4.0576   -5.1853   24.6761 C   0  0  0  0  0  0  0  0  0  0  0  0
    3.4536   -4.5240   24.0591 H   0  0  0  0  0  0  0  0  0  0  0  0
    6.4278   -1.6988   22.5733 N   0  0  0  0  0  0  0  0  0  0  0  0
    7.6223   -1.5622   21.9315 N   0  0  0  0  0  0  0  0  0  0  0  0
    5.8969    0.0833   20.1778 C   0  0  0  0  0  0  0  0  0  0  0  0
    5.5322   -0.1199   21.1868 H   0  0  0  0  0  0  0  0  0  0  0  0
    5.1559    0.8155   19.2611 C   0  0  0  0  0  0  0  0  0  0  0  0
    4.1837    1.2184   19.5174 H   0  0  0  0  0  0  0  0  0  0  0  0
  1  2  1  0
  2  3  2  0
  3  4  1  0
  4  5  1  0
  4  6  2  0
  6  7  1  0
  7  8  2  0
  8  9  1  0
  9 10  2  0
 10 11  1  0
 11 12  1  0
 12 13  1  0
 13 14  1  0
 13 15  1  0
 15 16  1  0
 15 17  1  0
 15 18  1  0
 18 19  2  0
 19 20  1  0
 19 21  1  0
 21 22  1  0
 21 23  2  0
 23 24  1  0
 24 25  1  0
 24 26  2  0
 26 27  1  0
 12 28  2  0
 28 29  1  0
  6 30  1  0
 30 31  1  0
 30 32  2  0
 32 33  1  0
 32  2  1  0
 29  7  1  0
 29 10  1  0
 26 18  1  0
M  END
>  <cnnaffinity>  (1) 
-4.99175

>  <filename>  (1) 
c1cncc(-c2nnc3sc(NCc4ccncc4)nn23)c1

$$$$
