
     RDKit          3D

 33 37  0  0  0  0  0  0  0  0999 V2000
    4.9133    1.8099   16.9716 H   0  0  0  0  0  0  0  0  0  0  0  0
    5.3792    1.3043   17.8178 C   0  0  0  0  0  0  0  0  0  0  0  0
    6.5423    0.6849   17.5618 N   0  0  0  0  0  0  0  0  0  0  0  0
    7.1513    0.0756   18.5831 C   0  0  0  0  0  0  0  0  0  0  0  0
    8.1029   -0.3929   18.3394 H   0  0  0  0  0  0  0  0  0  0  0  0
    6.6576    0.0291   19.9085 C   0  0  0  0  0  0  0  0  0  0  0  0
    7.4060   -0.6701   20.9656 C   0  0  0  0  0  0  0  0  0  0  0  0
    8.3153   -1.7014   20.9072 C   0  0  0  0  0  0  0  0  0  0  0  0
    8.7194   -2.1159   20.0053 H   0  0  0  0  0  0  0  0  0  0  0  0
    8.7709   -2.1142   22.1277 N   0  0  0  0  0  0  0  0  0  0  0  0
    8.1668   -1.2994   22.9493 C   0  0  0  0  0  0  0  0  0  0  0  0
    8.2498   -0.9608   24.6354 S   0  0  0  0  0  0  0  0  0  0  0  0
    7.1373    0.3681   24.3166 C   0  0  0  0  0  0  0  0  0  0  0  0
    6.7076    1.2265   25.3995 C   0  0  0  0  0  0  0  0  0  0  0  0
    5.6045    2.5372   25.0851 S   0  0  0  0  0  0  0  0  0  0  0  0
    5.6250    2.9822   26.7697 C   0  0  0  0  0  0  0  0  0  0  0  0
    4.9331    4.0326   27.3971 C   0  0  0  0  0  0  0  0  0  0  0  0
    4.2862    4.6941   26.8302 H   0  0  0  0  0  0  0  0  0  0  0  0
    5.0936    4.2100   28.7667 C   0  0  0  0  0  0  0  0  0  0  0  0
    4.5642    5.0157   29.2648 H   0  0  0  0  0  0  0  0  0  0  0  0
    5.9292    3.3625   29.5229 C   0  0  0  0  0  0  0  0  0  0  0  0
    6.0323    3.5225   30.5927 H   0  0  0  0  0  0  0  0  0  0  0  0
    6.6130    2.3276   28.9092 C   0  0  0  0  0  0  0  0  0  0  0  0
    7.2569    1.6664   29.4808 H   0  0  0  0  0  0  0  0  0  0  0  0
    6.4656    2.1287   27.5215 C   0  0  0  0  0  0  0  0  0  0  0  0
    7.0754    1.1288   26.7036 C   0  0  0  0  0  0  0  0  0  0  0  0
    7.7574    0.3749   27.0789 H   0  0  0  0  0  0  0  0  0  0  0  0
    6.7430    0.5331   23.0929 N   0  0  0  0  0  0  0  0  0  0  0  0
    7.3264   -0.4168   22.3336 N   0  0  0  0  0  0  0  0  0  0  0  0
    5.4270    0.6671   20.1467 C   0  0  0  0  0  0  0  0  0  0  0  0
    5.0162    0.6567   21.1547 H   0  0  0  0  0  0  0  0  0  0  0  0
    4.7894    1.3153   19.0852 C   0  0  0  0  0  0  0  0  0  0  0  0
    3.8596    1.8492   19.2326 H   0  0  0  0  0  0  0  0  0  0  0  0
  1  2  1  0
  2  3  2  0
  3  4  1  0
  4  5  1  0
  4  6  2  0
  6  7  1  0
  7  8  2  0
  8  9  1  0
  8 10  1  0
 10 11  2  0
 11 12  1  0
 12 13  1  0
 13 14  1  0
 14 15  1  0
 15 16  1  0
 16 17  2  0
 17 18  1  0
 17 19  1  0
 19 20  1  0
 19 21  2  0
 21 22  1  0
 21 23  1  0
 23 24  1  0
 23 25  2  0
 25 26  1  0
 26 27  1  0
 13 28  2  0
 28 29  1  0
  6 30  1  0
 30 31  1  0
 30 32  2  0
 32 33  1  0
 32  2  1  0
 29  7  1  0
 29 11  1  0
 26 14  2  0
 25 16  1  0
M  END
>  <cnnaffinity>  (1) 
-5.40134

>  <filename>  (1) 
c1cncc(-c2cnc3sc(-c4cc5ccccc5s4)nn23)c1

$$$$
