
     RDKit          3D

 41 44  0  0  0  0  0  0  0  0999 V2000
    4.8391    1.3066   19.1183 C   0  0  0  0  0  0  0  0  0  0  0  0
    5.4254    1.3037   17.8482 C   0  0  0  0  0  0  0  0  0  0  0  0
    6.5864    0.6844   17.5805 N   0  0  0  0  0  0  0  0  0  0  0  0
    7.2120    0.0653   18.5921 C   0  0  0  0  0  0  0  0  0  0  0  0
    6.7134    0.0285   19.9092 C   0  0  0  0  0  0  0  0  0  0  0  0
    7.4049   -0.6455   20.9652 N   0  0  0  0  0  0  0  0  0  0  0  0
    6.7525   -1.5799   21.7141 N   0  0  0  0  0  0  0  0  0  0  0  0
    7.6905   -2.0004   22.5452 C   0  0  0  0  0  0  0  0  0  0  0  0
    7.4574   -2.9944   23.6475 C   0  0  0  0  0  0  0  0  0  0  0  0
    6.4264   -2.4968   24.6940 C   0  0  0  0  0  0  0  0  0  0  0  0
    6.1140   -3.5949   25.7089 C   0  0  0  0  0  0  0  0  0  0  0  0
    5.7029   -4.7947   25.0762 O   0  0  0  0  0  0  0  0  0  0  0  0
    6.6879   -5.3300   24.2106 C   0  0  0  0  0  0  0  0  0  0  0  0
    7.0409   -4.3680   23.0802 C   0  0  0  0  0  0  0  0  0  0  0  0
    7.8540   -4.7935   22.4766 H   0  0  0  0  0  0  0  0  0  0  0  0
    6.1720   -4.2275   22.4251 H   0  0  0  0  0  0  0  0  0  0  0  0
    7.5986   -5.5892   24.7802 H   0  0  0  0  0  0  0  0  0  0  0  0
    6.2711   -6.2543   23.8074 H   0  0  0  0  0  0  0  0  0  0  0  0
    5.2895   -3.2954   26.3599 H   0  0  0  0  0  0  0  0  0  0  0  0
    6.9923   -3.7812   26.3522 H   0  0  0  0  0  0  0  0  0  0  0  0
    5.5016   -2.2176   24.1798 H   0  0  0  0  0  0  0  0  0  0  0  0
    6.7952   -1.6050   25.2196 H   0  0  0  0  0  0  0  0  0  0  0  0
    8.4280   -3.0953   24.1500 H   0  0  0  0  0  0  0  0  0  0  0  0
    8.9053   -1.4240   22.3753 N   0  0  0  0  0  0  0  0  0  0  0  0
    8.6905   -0.5595   21.4084 C   0  0  0  0  0  0  0  0  0  0  0  0
    9.6241    0.5629   21.0896 C   0  0  0  0  0  0  0  0  0  0  0  0
    9.1845    1.8253   21.7878 C   0  0  0  0  0  0  0  0  0  0  0  0
    9.1305    2.2949   23.0823 C   0  0  0  0  0  0  0  0  0  0  0  0
    8.4464    3.4865   23.1322 N   0  0  0  0  0  0  0  0  0  0  0  0
    8.0802    3.7338   21.9011 C   0  0  0  0  0  0  0  0  0  0  0  0
    8.4941    2.7478   21.0643 N   0  0  0  0  0  0  0  0  0  0  0  0
    8.2500    2.6824   20.0887 H   0  0  0  0  0  0  0  0  0  0  0  0
    7.5411    4.5984   21.5334 H   0  0  0  0  0  0  0  0  0  0  0  0
    9.5086    1.8458   23.9949 H   0  0  0  0  0  0  0  0  0  0  0  0
    9.6183    0.7485   20.0132 H   0  0  0  0  0  0  0  0  0  0  0  0
   10.6217    0.2473   21.3988 H   0  0  0  0  0  0  0  0  0  0  0  0
    5.4853    0.6497   20.1690 C   0  0  0  0  0  0  0  0  0  0  0  0
    5.0599    0.5999   21.1724 H   0  0  0  0  0  0  0  0  0  0  0  0
    8.1394   -0.4520   18.3374 H   0  0  0  0  0  0  0  0  0  0  0  0
    4.9408    1.8113   17.0171 H   0  0  0  0  0  0  0  0  0  0  0  0
    3.8933    1.8129   19.2760 H   0  0  0  0  0  0  0  0  0  0  0  0
  1  2  2  0
  2  3  1  0
  3  4  2  0
  4  5  1  0
  5  6  1  0
  6  7  1  0
  7  8  2  0
  8  9  1  0
  9 10  1  0
 10 11  1  0
 11 12  1  0
 12 13  1  0
 13 14  1  0
 14 15  1  0
 14 16  1  0
 13 17  1  0
 13 18  1  0
 11 19  1  0
 11 20  1  0
 10 21  1  0
 10 22  1  0
  9 23  1  0
  8 24  1  0
 24 25  2  0
 25 26  1  0
 26 27  1  0
 27 28  2  0
 28 29  1  0
 29 30  2  0
 30 31  1  0
 31 32  1  0
 30 33  1  0
 28 34  1  0
 26 35  1  0
 26 36  1  0
  5 37  2  0
 37 38  1  0
  4 39  1  0
  2 40  1  0
  1 41  1  0
 37  1  1  0
 25  6  1  0
 31 27  1  0
 14  9  1  0
M  END
>  <cnnaffinity>  (1) 
-5.81583

>  <filename>  (1) 
c1cncc(-n2nc(C3CCOCC3)nc2Cc2cnc[nH]2)c1

$$$$
