
     RDKit          3D

 41 44  0  0  0  0  0  0  0  0999 V2000
    4.8120    1.3124   19.1082 C   0  0  0  0  0  0  0  0  0  0  0  0
    5.4004    1.2962   17.8373 C   0  0  0  0  0  0  0  0  0  0  0  0
    6.5607    0.6744   17.5768 N   0  0  0  0  0  0  0  0  0  0  0  0
    7.1702    0.0540   18.5927 C   0  0  0  0  0  0  0  0  0  0  0  0
    6.6577    0.0094   19.8994 C   0  0  0  0  0  0  0  0  0  0  0  0
    7.3560   -0.6670   20.9348 N   0  0  0  0  0  0  0  0  0  0  0  0
    6.7260   -1.5972   21.7042 N   0  0  0  0  0  0  0  0  0  0  0  0
    7.6508   -1.9323   22.5801 C   0  0  0  0  0  0  0  0  0  0  0  0
    7.4104   -2.8711   23.7099 C   0  0  0  0  0  0  0  0  0  0  0  0
    7.5073   -2.2235   25.1296 C   0  0  0  0  0  0  0  0  0  0  0  0
    8.6954   -3.1528   25.4641 C   0  0  0  0  0  0  0  0  0  0  0  0
    8.5902   -3.8198   24.0738 C   0  0  0  0  0  0  0  0  0  0  0  0
    8.3223   -4.8791   24.0960 H   0  0  0  0  0  0  0  0  0  0  0  0
    9.4735   -3.6998   23.4379 H   0  0  0  0  0  0  0  0  0  0  0  0
    9.6377   -2.6253   25.6342 H   0  0  0  0  0  0  0  0  0  0  0  0
    8.5302   -3.8253   26.3115 H   0  0  0  0  0  0  0  0  0  0  0  0
    7.7447   -1.1535   25.1099 H   0  0  0  0  0  0  0  0  0  0  0  0
    6.6214   -2.3702   25.7519 H   0  0  0  0  0  0  0  0  0  0  0  0
    6.4654   -3.3853   23.5228 H   0  0  0  0  0  0  0  0  0  0  0  0
    8.8417   -1.2870   22.4286 N   0  0  0  0  0  0  0  0  0  0  0  0
    8.6217   -0.4801   21.4129 C   0  0  0  0  0  0  0  0  0  0  0  0
    9.5135    0.6271   20.9541 C   0  0  0  0  0  0  0  0  0  0  0  0
    9.0444    2.0165   21.4509 C   0  0  0  0  0  0  0  0  0  0  0  0
    8.9369    2.0593   22.9556 C   0  0  0  0  0  0  0  0  0  0  0  0
   10.0506    2.1922   23.7844 C   0  0  0  0  0  0  0  0  0  0  0  0
    9.9980    2.1769   25.1167 N   0  0  0  0  0  0  0  0  0  0  0  0
    8.7916    1.9816   25.6470 C   0  0  0  0  0  0  0  0  0  0  0  0
    7.6566    1.8100   24.9799 N   0  0  0  0  0  0  0  0  0  0  0  0
    7.7502    1.8461   23.6482 C   0  0  0  0  0  0  0  0  0  0  0  0
    6.8225    1.6950   23.0936 H   0  0  0  0  0  0  0  0  0  0  0  0
    8.7269    1.9726   26.7338 H   0  0  0  0  0  0  0  0  0  0  0  0
   11.0430    2.3324   23.3516 H   0  0  0  0  0  0  0  0  0  0  0  0
    9.7523    2.7758   21.1002 H   0  0  0  0  0  0  0  0  0  0  0  0
    8.0782    2.2572   20.9888 H   0  0  0  0  0  0  0  0  0  0  0  0
    9.5746    0.6311   19.8632 H   0  0  0  0  0  0  0  0  0  0  0  0
   10.5199    0.4155   21.3264 H   0  0  0  0  0  0  0  0  0  0  0  0
    5.4409    0.6474   20.1624 C   0  0  0  0  0  0  0  0  0  0  0  0
    5.0100    0.6094   21.1667 H   0  0  0  0  0  0  0  0  0  0  0  0
    8.1156   -0.4357   18.3707 H   0  0  0  0  0  0  0  0  0  0  0  0
    4.9175    1.7842   16.9942 H   0  0  0  0  0  0  0  0  0  0  0  0
    3.8790    1.8400   19.2625 H   0  0  0  0  0  0  0  0  0  0  0  0
  1  2  2  0
  2  3  1  0
  3  4  2  0
  4  5  1  0
  5  6  1  0
  6  7  1  0
  7  8  2  0
  8  9  1  0
  9 10  1  0
 10 11  1  0
 11 12  1  0
 12 13  1  0
 12 14  1  0
 11 15  1  0
 11 16  1  0
 10 17  1  0
 10 18  1  0
  9 19  1  0
  8 20  1  0
 20 21  2  0
 21 22  1  0
 22 23  1  0
 23 24  1  0
 24 25  2  0
 25 26  1  0
 26 27  2  0
 27 28  1  0
 28 29  2  0
 29 30  1  0
 27 31  1  0
 25 32  1  0
 23 33  1  0
 23 34  1  0
 22 35  1  0
 22 36  1  0
  5 37  2  0
 37 38  1  0
  4 39  1  0
  2 40  1  0
  1 41  1  0
 37  1  1  0
 21  6  1  0
 29 24  1  0
 12  9  1  0
M  END
>  <cnnaffinity>  (1) 
-6.02179

>  <filename>  (1) 
c1cncc(-n2nc(C3CCC3)nc2CCc2cncnc2)c1

$$$$
