
     RDKit          3D

 40 42  0  0  0  0  0  0  0  0999 V2000
    4.9323    1.8207   16.9510 H   0  0  0  0  0  0  0  0  0  0  0  0
    5.3957    1.3126   17.7962 C   0  0  0  0  0  0  0  0  0  0  0  0
    6.5496    0.6765   17.5489 N   0  0  0  0  0  0  0  0  0  0  0  0
    7.1350    0.0651   18.5896 C   0  0  0  0  0  0  0  0  0  0  0  0
    8.0689   -0.4472   18.3468 H   0  0  0  0  0  0  0  0  0  0  0  0
    6.6460    0.0519   19.9163 C   0  0  0  0  0  0  0  0  0  0  0  0
    7.4435   -0.6824   21.0134 C   0  0  2  0  0  0  0  0  0  0  0  0
    6.8714   -0.5679   22.4321 C   0  0  0  0  0  0  0  0  0  0  0  0
    5.9024   -1.0705   22.4256 H   0  0  0  0  0  0  0  0  0  0  0  0
    7.5081   -1.1707   23.1057 H   0  0  0  0  0  0  0  0  0  0  0  0
    6.7705    0.7614   22.8525 O   0  0  0  0  0  0  0  0  0  0  0  0
    6.4476    0.9204   24.2195 C   0  0  0  0  0  0  0  0  0  0  0  0
    5.6380    0.2298   24.5197 H   0  0  0  0  0  0  0  0  0  0  0  0
    7.6557    0.7476   25.1550 C   0  0  0  0  0  0  0  0  0  0  0  0
    8.5565    1.0302   24.5965 H   0  0  0  0  0  0  0  0  0  0  0  0
    7.7902   -0.2914   25.4765 H   0  0  0  0  0  0  0  0  0  0  0  0
    7.4162    1.7220   26.3331 C   0  0  0  0  0  0  0  0  0  0  0  0
    7.1844    1.1832   27.2561 H   0  0  0  0  0  0  0  0  0  0  0  0
    8.3170    2.3127   26.5295 H   0  0  0  0  0  0  0  0  0  0  0  0
    6.2195    2.6196   25.9160 C   0  0  0  0  0  0  0  0  0  0  0  0
    5.3201    2.3221   26.4668 H   0  0  0  0  0  0  0  0  0  0  0  0
    6.3936    3.6774   26.1305 H   0  0  0  0  0  0  0  0  0  0  0  0
    6.0162    2.3612   24.4200 C   0  0  0  0  0  0  0  0  0  0  0  0
    4.9907    2.5204   24.0707 H   0  0  0  0  0  0  0  0  0  0  0  0
    6.6763    2.9925   23.8122 H   0  0  0  0  0  0  0  0  0  0  0  0
    8.9805   -0.3036   21.0422 C   0  0  0  0  0  0  0  0  0  0  0  0
    9.2694    0.0252   22.0523 H   0  0  0  0  0  0  0  0  0  0  0  0
    9.2474    0.5271   20.3739 H   0  0  0  0  0  0  0  0  0  0  0  0
    9.7435   -1.5115   20.7202 N   0  0  0  0  0  0  0  0  0  0  0  0
    9.8942   -1.5580   19.7151 H   0  0  0  0  0  0  0  0  0  0  0  0
    8.9019   -2.6293   21.1291 C   0  0  0  0  0  0  0  0  0  0  0  0
    8.9977   -2.7808   22.2184 H   0  0  0  0  0  0  0  0  0  0  0  0
    9.2108   -3.5638   20.6659 H   0  0  0  0  0  0  0  0  0  0  0  0
    7.4637   -2.2242   20.7796 C   0  0  0  0  0  0  0  0  0  0  0  0
    6.7543   -2.7779   21.4017 H   0  0  0  0  0  0  0  0  0  0  0  0
    7.1226   -2.4204   19.7664 H   0  0  0  0  0  0  0  0  0  0  0  0
    5.4209    0.7085   20.1268 C   0  0  0  0  0  0  0  0  0  0  0  0
    4.9857    0.7452   21.1225 H   0  0  0  0  0  0  0  0  0  0  0  0
    4.7884    1.3376   19.0524 C   0  0  0  0  0  0  0  0  0  0  0  0
    3.8443    1.8523   19.1881 H   0  0  0  0  0  0  0  0  0  0  0  0
  1  2  1  0
  2  3  2  0
  3  4  1  0
  4  5  1  0
  4  6  2  0
  6  7  1  0
  7  8  1  1
  8  9  1  0
  8 10  1  0
  8 11  1  0
 11 12  1  0
 12 13  1  0
 12 14  1  0
 14 15  1  0
 14 16  1  0
 14 17  1  0
 17 18  1  0
 17 19  1  0
 17 20  1  0
 20 21  1  0
 20 22  1  0
 20 23  1  0
 23 24  1  0
 23 25  1  0
  7 26  1  0
 26 27  1  0
 26 28  1  0
 26 29  1  0
 29 30  1  0
 29 31  1  0
 31 32  1  0
 31 33  1  0
 31 34  1  0
 34 35  1  0
 34 36  1  0
  6 37  1  0
 37 38  1  0
 37 39  2  0
 39 40  1  0
 39  2  1  0
 34  7  1  0
 23 12  1  0
M  END
>  <cnnaffinity>  (1) 
-4.53202

>  <filename>  (1) 
c1cncc([C@@]2(COC3CCCC3)CCNC2)c1

$$$$
