
     RDKit          3D

 40 43  0  0  0  0  0  0  0  0999 V2000
    4.8816    1.6200   17.0300 H   0  0  0  0  0  0  0  0  0  0  0  0
    5.4136    1.1963   17.8811 C   0  0  0  0  0  0  0  0  0  0  0  0
    6.5980    0.6209   17.6236 N   0  0  0  0  0  0  0  0  0  0  0  0
    7.2751    0.1122   18.6634 C   0  0  0  0  0  0  0  0  0  0  0  0
    8.2516   -0.3056   18.4257 H   0  0  0  0  0  0  0  0  0  0  0  0
    6.8274    0.1174   20.0192 C   0  0  0  0  0  0  0  0  0  0  0  0
    7.6372   -0.3622   21.0510 N   0  0  0  0  0  0  0  0  0  0  0  0
    8.5317   -1.5349   20.8604 C   0  0  0  0  0  0  0  0  0  0  0  0
    9.4580   -1.2745   20.3346 H   0  0  0  0  0  0  0  0  0  0  0  0
    7.9947   -2.3138   20.3149 H   0  0  0  0  0  0  0  0  0  0  0  0
    8.7779   -2.0011   22.3097 C   0  0  2  0  0  0  0  0  0  0  0  0
    9.6887   -2.5799   22.4587 H   0  0  0  0  0  0  0  0  0  0  0  0
    7.5797   -2.7768   22.6995 N   0  0  0  0  0  0  0  0  0  0  0  0
    7.7892   -3.5555   23.8858 N   0  0  0  0  0  0  0  0  0  0  0  0
    6.9097   -3.5950   24.4051 H   0  0  0  0  0  0  0  0  0  0  0  0
    8.1433   -4.9387   23.5231 C   0  0  0  0  0  0  0  0  0  0  0  0
    9.1500   -4.9104   23.0973 H   0  0  0  0  0  0  0  0  0  0  0  0
    8.2116   -5.5061   24.4568 H   0  0  0  0  0  0  0  0  0  0  0  0
    7.1777   -5.5826   22.5326 C   0  0  0  0  0  0  0  0  0  0  0  0
    7.4001   -5.5058   21.1486 C   0  0  0  0  0  0  0  0  0  0  0  0
    8.3128   -5.0843   20.7488 H   0  0  0  0  0  0  0  0  0  0  0  0
    6.4095   -5.9311   20.2633 C   0  0  0  0  0  0  0  0  0  0  0  0
    6.5173   -5.8326   19.1878 H   0  0  0  0  0  0  0  0  0  0  0  0
    5.2474   -6.4620   20.6608 N   0  0  0  0  0  0  0  0  0  0  0  0
    5.0387   -6.5691   21.9760 C   0  0  0  0  0  0  0  0  0  0  0  0
    4.0853   -7.0027   22.2759 H   0  0  0  0  0  0  0  0  0  0  0  0
    5.9585   -6.1534   22.9412 C   0  0  0  0  0  0  0  0  0  0  0  0
    5.7012   -6.2450   23.9893 H   0  0  0  0  0  0  0  0  0  0  0  0
    6.5088   -1.7382   22.7821 C   0  0  0  0  0  0  0  0  0  0  0  0
    5.7294   -1.9239   22.0294 H   0  0  0  0  0  0  0  0  0  0  0  0
    6.0605   -1.6998   23.7826 H   0  0  0  0  0  0  0  0  0  0  0  0
    7.2631   -0.4134   22.4766 C   0  0  1  0  0  0  0  0  0  0  0  0
    6.7487    0.4828   22.8306 H   0  0  0  0  0  0  0  0  0  0  0  0
    8.6363   -0.6990   23.0964 C   0  0  0  0  0  0  0  0  0  0  0  0
    9.3899    0.0487   22.8422 H   0  0  0  0  0  0  0  0  0  0  0  0
    8.6132   -0.8773   24.1749 H   0  0  0  0  0  0  0  0  0  0  0  0
    5.5660    0.7089   20.2458 C   0  0  0  0  0  0  0  0  0  0  0  0
    5.1480    0.7358   21.2502 H   0  0  0  0  0  0  0  0  0  0  0  0
    4.8658    1.2592   19.1654 C   0  0  0  0  0  0  0  0  0  0  0  0
    3.9005    1.7310   19.3137 H   0  0  0  0  0  0  0  0  0  0  0  0
  1  2  1  0
  2  3  2  0
  3  4  1  0
  4  5  1  0
  4  6  2  0
  6  7  1  0
  7  8  1  0
  8  9  1  0
  8 10  1  0
  8 11  1  0
 11 12  1  6
 11 13  1  0
 13 14  1  0
 14 15  1  0
 14 16  1  0
 16 17  1  0
 16 18  1  0
 16 19  1  0
 19 20  2  0
 20 21  1  0
 20 22  1  0
 22 23  1  0
 22 24  2  0
 24 25  1  0
 25 26  1  0
 25 27  2  0
 27 28  1  0
 13 29  1  0
 29 30  1  0
 29 31  1  0
 29 32  1  0
 32 33  1  1
 32 34  1  0
 34 35  1  0
 34 36  1  0
  6 37  1  0
 37 38  1  0
 37 39  2  0
 39 40  1  0
 39  2  1  0
 32  7  1  0
 34 11  1  0
 27 19  1  0
M  END
>  <cnnaffinity>  (1) 
-5.27779

>  <filename>  (1) 
c1cncc(N2C[C@H]3C[C@@H]2CN3NCc2ccncc2)c1

$$$$
