
     RDKit          3D

 45 48  0  0  0  0  0  0  0  0999 V2000
    4.7749    1.3098   19.1099 C   0  0  0  0  0  0  0  0  0  0  0  0
    5.3721    1.2833   17.8561 C   0  0  0  0  0  0  0  0  0  0  0  0
    6.5331    0.6564   17.5776 N   0  0  0  0  0  0  0  0  0  0  0  0
    7.1551   -0.0054   18.5771 C   0  0  0  0  0  0  0  0  0  0  0  0
    6.6405   -0.0449   19.9105 C   0  0  0  0  0  0  0  0  0  0  0  0
    7.2760   -0.7373   20.9494 N   0  0  0  0  0  0  0  0  0  0  0  0
    6.5663   -1.6267   21.6993 N   0  0  0  0  0  0  0  0  0  0  0  0
    7.5269   -2.0272   22.5209 C   0  0  0  0  0  0  0  0  0  0  0  0
    7.3971   -3.0475   23.6287 C   0  0  0  0  0  0  0  0  0  0  0  0
    6.7291   -4.3747   23.1370 C   0  0  0  0  0  0  0  0  0  0  0  0
    5.9546   -4.7975   24.3732 C   0  0  0  0  0  0  0  0  0  0  0  0
    5.7143   -3.7059   25.2470 O   0  0  0  0  0  0  0  0  0  0  0  0
    6.3675   -2.5858   24.6977 C   0  0  0  0  0  0  0  0  0  0  0  0
    5.6437   -1.8985   24.2390 H   0  0  0  0  0  0  0  0  0  0  0  0
    6.9147   -2.0256   25.4606 H   0  0  0  0  0  0  0  0  0  0  0  0
    6.5110   -5.5672   24.8824 H   0  0  0  0  0  0  0  0  0  0  0  0
    5.0053   -5.1990   24.0789 H   0  0  0  0  0  0  0  0  0  0  0  0
    6.0335   -4.1483   22.2938 H   0  0  0  0  0  0  0  0  0  0  0  0
    7.5184   -5.0856   22.7756 H   0  0  0  0  0  0  0  0  0  0  0  0
    8.4254   -3.2559   24.1132 H   0  0  0  0  0  0  0  0  0  0  0  0
    8.7457   -1.4304   22.3273 N   0  0  0  0  0  0  0  0  0  0  0  0
    8.6170   -0.6691   21.2673 C   0  0  0  0  0  0  0  0  0  0  0  0
    9.6995    0.1878   20.5777 C   0  0  0  0  0  0  0  0  0  0  0  0
   10.5549    0.9321   21.6495 C   0  0  0  0  0  0  0  0  0  0  0  0
    9.4303    1.6612   22.0774 C   0  0  0  0  0  0  0  0  0  0  0  0
   10.8906    2.2342   23.4616 N   0  0  0  0  0  0  0  0  0  0  0  0
   11.2558    2.9995   24.5628 C   0  0  0  0  0  0  0  0  0  0  0  0
   11.2562    3.0000   24.5649 C   0  0  0  0  0  0  0  0  0  0  0  0
   11.0481    3.1630   24.5016 C   0  0  0  0  0  0  0  0  0  0  0  0
   11.4339    3.0204   23.2057 C   0  0  0  0  0  0  0  0  0  0  0  0
   10.9983    4.1421   23.5490 H   0  0  0  0  0  0  0  0  0  0  0  0
   12.4583    3.8015   24.7878 H   0  0  0  0  0  0  0  0  0  0  0  0
   11.1466    3.1033   24.6053 H   0  0  0  0  0  0  0  0  0  0  0  0
   11.5329    1.8384   25.2899 H   0  0  0  0  0  0  0  0  0  0  0  0
    9.2598    2.6737   21.8442 H   0  0  0  0  0  0  0  0  0  0  0  0
    8.7555    1.2668   22.8274 H   0  0  0  0  0  0  0  0  0  0  0  0
   11.3285    1.4094   21.1003 H   0  0  0  0  0  0  0  0  0  0  0  0
   11.0223    0.1542   22.2994 H   0  0  0  0  0  0  0  0  0  0  0  0
   10.2604   -0.4795   19.9383 H   0  0  0  0  0  0  0  0  0  0  0  0
    9.1221    0.8589   19.9249 H   0  0  0  0  0  0  0  0  0  0  0  0
    5.4398    0.6193   20.1215 C   0  0  0  0  0  0  0  0  0  0  0  0
    5.0241    0.5919   21.0901 H   0  0  0  0  0  0  0  0  0  0  0  0
    8.1374   -0.5132   18.3240 H   0  0  0  0  0  0  0  0  0  0  0  0
    4.9305    1.8264   17.0348 H   0  0  0  0  0  0  0  0  0  0  0  0
    3.8429    1.8757   19.2661 H   0  0  0  0  0  0  0  0  0  0  0  0
  1  2  2  0
  2  3  1  0
  3  4  2  0
  4  5  1  0
  5  6  1  0
  6  7  1  0
  7  8  2  0
  8  9  1  0
  9 10  1  0
 10 11  1  0
 11 12  1  0
 12 13  1  0
 13 14  1  0
 13 15  1  0
 11 16  1  0
 11 17  1  0
 10 18  1  0
 10 19  1  0
  9 20  1  0
  8 21  1  0
 21 22  2  0
 22 23  1  0
 23 24  1  0
 24 25  1  0
 25 26  1  0
 26 27  1  0
 27 28  2  0
 28 29  1  0
 29 30  2  0
 30 31  1  0
 29 32  1  0
 28 33  1  0
 27 34  1  0
 25 35  1  0
 25 36  1  0
 24 37  1  0
 24 38  1  0
 23 39  1  0
 23 40  1  0
  5 41  2  0
 41 42  1  0
  4 43  1  0
  2 44  1  0
  1 45  1  0
 41  1  1  0
 22  6  1  0
 30 26  1  0
 13  9  1  0
M  END
>  <cnnaffinity>  (1) 
-6.02115

>  <filename>  (1) 
c1cncc(-n2nc(C3CCOC3)nc2CCCn2cccc2)c1

$$$$
