
     RDKit          3D

 34 37  0  0  0  0  0  0  0  0999 V2000
    4.9143    1.8122   16.9741 H   0  0  0  0  0  0  0  0  0  0  0  0
    5.3770    1.3035   17.8211 C   0  0  0  0  0  0  0  0  0  0  0  0
    6.5391    0.6826   17.5670 N   0  0  0  0  0  0  0  0  0  0  0  0
    7.1531    0.0770   18.5880 C   0  0  0  0  0  0  0  0  0  0  0  0
    8.1028   -0.3918   18.3363 H   0  0  0  0  0  0  0  0  0  0  0  0
    6.6638    0.0339   19.9150 C   0  0  0  0  0  0  0  0  0  0  0  0
    7.4167   -0.6501   20.9843 C   0  0  0  0  0  0  0  0  0  0  0  0
    8.3351   -1.6767   20.9437 C   0  0  0  0  0  0  0  0  0  0  0  0
    8.7449   -2.1117   20.0486 H   0  0  0  0  0  0  0  0  0  0  0  0
    8.7731   -2.0733   22.1776 N   0  0  0  0  0  0  0  0  0  0  0  0
    8.1451   -1.2542   22.9803 C   0  0  0  0  0  0  0  0  0  0  0  0
    8.2033   -0.8942   24.6731 S   0  0  0  0  0  0  0  0  0  0  0  0
    7.1019    0.4160   24.3114 C   0  0  0  0  0  0  0  0  0  0  0  0
    6.7435    1.1554   25.3428 O   0  0  0  0  0  0  0  0  0  0  0  0
    5.8420    2.2632   25.1122 C   0  0  0  0  0  0  0  0  0  0  0  0
    5.0130    1.9104   24.4861 H   0  0  0  0  0  0  0  0  0  0  0  0
    6.5766    3.4591   24.4980 C   0  0  0  0  0  0  0  0  0  0  0  0
    7.3169    3.1399   23.7558 H   0  0  0  0  0  0  0  0  0  0  0  0
    5.8284    4.0577   23.9634 H   0  0  0  0  0  0  0  0  0  0  0  0
    7.1774    4.2564   25.6851 C   0  0  0  0  0  0  0  0  0  0  0  0
    7.0945    5.3359   25.5139 H   0  0  0  0  0  0  0  0  0  0  0  0
    8.2467    4.0475   25.7959 H   0  0  0  0  0  0  0  0  0  0  0  0
    6.4123    3.7936   26.9594 C   0  0  0  0  0  0  0  0  0  0  0  0
    7.1104    3.3530   27.6798 H   0  0  0  0  0  0  0  0  0  0  0  0
    5.9225    4.6230   27.4821 H   0  0  0  0  0  0  0  0  0  0  0  0
    5.3712    2.7504   26.4809 C   0  0  0  0  0  0  0  0  0  0  0  0
    5.2327    1.9123   27.1742 H   0  0  0  0  0  0  0  0  0  0  0  0
    4.3923    3.2214   26.3370 H   0  0  0  0  0  0  0  0  0  0  0  0
    6.7173    0.5928   23.0852 N   0  0  0  0  0  0  0  0  0  0  0  0
    7.3129   -0.3866   22.3412 N   0  0  0  0  0  0  0  0  0  0  0  0
    5.4314    0.6729   20.1482 C   0  0  0  0  0  0  0  0  0  0  0  0
    5.0135    0.6649   21.1535 H   0  0  0  0  0  0  0  0  0  0  0  0
    4.7856    1.3164   19.0885 C   0  0  0  0  0  0  0  0  0  0  0  0
    3.8519    1.8504   19.2275 H   0  0  0  0  0  0  0  0  0  0  0  0
  1  2  1  0
  2  3  2  0
  3  4  1  0
  4  5  1  0
  4  6  2  0
  6  7  1  0
  7  8  2  0
  8  9  1  0
  8 10  1  0
 10 11  2  0
 11 12  1  0
 12 13  1  0
 13 14  1  0
 14 15  1  0
 15 16  1  0
 15 17  1  0
 17 18  1  0
 17 19  1  0
 17 20  1  0
 20 21  1  0
 20 22  1  0
 20 23  1  0
 23 24  1  0
 23 25  1  0
 23 26  1  0
 26 27  1  0
 26 28  1  0
 13 29  2  0
 29 30  1  0
  6 31  1  0
 31 32  1  0
 31 33  2  0
 33 34  1  0
 33  2  1  0
 30  7  1  0
 30 11  1  0
 26 15  1  0
M  END
>  <cnnaffinity>  (1) 
-5.15752

>  <filename>  (1) 
c1cncc(-c2cnc3sc(OC4CCCC4)nn23)c1

$$$$
