
     RDKit          3D

 34 37  0  0  0  0  0  0  0  0999 V2000
   10.4542   -1.1800   21.8800 H   0  0  0  0  0  0  0  0  0  0  0  0
    9.3709   -1.2378   21.8785 C   0  0  0  0  0  0  0  0  0  0  0  0
    8.7416   -0.6516   20.8607 N   0  0  0  0  0  0  0  0  0  0  0  0
    7.4076   -0.7015   20.8833 C   0  0  0  0  0  0  0  0  0  0  0  0
    6.6821    0.0290   19.8314 C   0  0  0  0  0  0  0  0  0  0  0  0
    7.2156    0.0702   18.5357 C   0  0  0  0  0  0  0  0  0  0  0  0
    8.1658   -0.4123   18.3179 H   0  0  0  0  0  0  0  0  0  0  0  0
    6.6152    0.6768   17.5085 N   0  0  0  0  0  0  0  0  0  0  0  0
    5.4573    1.3077   17.7522 C   0  0  0  0  0  0  0  0  0  0  0  0
    4.9917    1.7980   16.9003 H   0  0  0  0  0  0  0  0  0  0  0  0
    4.8539    1.3540   19.0135 C   0  0  0  0  0  0  0  0  0  0  0  0
    3.9221    1.8910   19.1465 H   0  0  0  0  0  0  0  0  0  0  0  0
    5.4740    0.7002   20.0756 C   0  0  0  0  0  0  0  0  0  0  0  0
    5.0447    0.7266   21.0809 H   0  0  0  0  0  0  0  0  0  0  0  0
    6.7166   -1.4092   21.8629 C   0  0  0  0  0  0  0  0  0  0  0  0
    5.6542   -1.5711   21.7902 H   0  0  0  0  0  0  0  0  0  0  0  0
    7.4738   -1.9881   22.8753 C   0  0  0  0  0  0  0  0  0  0  0  0
    6.8336   -2.6628   24.0108 C   0  0  0  0  0  0  0  0  0  0  0  0
    5.8366   -1.9957   24.6810 C   0  0  0  0  0  0  0  0  0  0  0  0
    5.5499   -0.9831   24.4024 H   0  0  0  0  0  0  0  0  0  0  0  0
    5.1644   -2.4945   25.7511 N   0  0  0  0  0  0  0  0  0  0  0  0
    5.5232   -3.6779   26.2044 C   0  0  0  0  0  0  0  0  0  0  0  0
    4.9449   -4.0658   27.0469 H   0  0  0  0  0  0  0  0  0  0  0  0
    6.6030   -4.4457   25.6653 C   0  0  0  0  0  0  0  0  0  0  0  0
    7.1112   -5.6357   26.2780 C   0  0  0  0  0  0  0  0  0  0  0  0
    6.7179   -5.9712   27.2373 H   0  0  0  0  0  0  0  0  0  0  0  0
    8.1003   -6.3531   25.6524 C   0  0  0  0  0  0  0  0  0  0  0  0
    8.5210   -7.2505   26.0883 H   0  0  0  0  0  0  0  0  0  0  0  0
    8.5998   -5.9570   24.3862 C   0  0  0  0  0  0  0  0  0  0  0  0
    9.3437   -6.5728   23.8933 H   0  0  0  0  0  0  0  0  0  0  0  0
    8.1950   -4.7765   23.8149 C   0  0  0  0  0  0  0  0  0  0  0  0
    8.6408   -4.4053   22.9001 H   0  0  0  0  0  0  0  0  0  0  0  0
    7.2314   -3.9557   24.4790 C   0  0  0  0  0  0  0  0  0  0  0  0
    8.8068   -1.9036   22.8841 N   0  0  0  0  0  0  0  0  0  0  0  0
  1  2  1  0
  2  3  2  0
  3  4  1  0
  4  5  1  0
  5  6  2  0
  6  7  1  0
  6  8  1  0
  8  9  2  0
  9 10  1  0
  9 11  1  0
 11 12  1  0
 11 13  2  0
 13 14  1  0
  4 15  2  0
 15 16  1  0
 15 17  1  0
 17 18  1  0
 18 19  2  0
 19 20  1  0
 19 21  1  0
 21 22  2  0
 22 23  1  0
 22 24  1  0
 24 25  2  0
 25 26  1  0
 25 27  1  0
 27 28  1  0
 27 29  2  0
 29 30  1  0
 29 31  1  0
 31 32  1  0
 31 33  2  0
 17 34  2  0
 34  2  1  0
 13  5  1  0
 33 18  1  0
 33 24  1  0
M  END
>  <cnnaffinity>  (1) 
-5.29532

>  <filename>  (1) 
c1cncc(-c2cc(-c3cncc4ccccc34)ncn2)c1

$$$$
