
     RDKit          3D

 49 53  0  0  0  0  0  0  0  0999 V2000
    4.9910    1.8437   17.0119 H   0  0  0  0  0  0  0  0  0  0  0  0
    5.4606    1.3009   17.8301 C   0  0  0  0  0  0  0  0  0  0  0  0
    6.6237    0.6910   17.5554 N   0  0  0  0  0  0  0  0  0  0  0  0
    7.2323    0.0427   18.5584 C   0  0  0  0  0  0  0  0  0  0  0  0
    8.1599   -0.4564   18.2954 H   0  0  0  0  0  0  0  0  0  0  0  0
    6.7452   -0.0619   19.8910 C   0  0  0  0  0  0  0  0  0  0  0  0
    7.4024   -0.8295   20.8670 N   0  0  0  0  0  0  0  0  0  0  0  0
    6.9632   -0.8536   22.2669 C   0  0  1  0  0  0  0  0  0  0  0  0
    5.8912   -1.0268   22.3033 H   0  0  0  0  0  0  0  0  0  0  0  0
    7.7336   -2.0701   22.8076 C   0  0  0  0  0  0  0  0  0  0  0  0
    7.9232   -1.9910   23.8823 H   0  0  0  0  0  0  0  0  0  0  0  0
    7.1334   -2.9712   22.6484 H   0  0  0  0  0  0  0  0  0  0  0  0
    9.0205   -2.1100   21.9463 C   0  0  0  0  0  0  0  0  0  0  0  0
    9.9360   -2.0391   22.5401 H   0  0  0  0  0  0  0  0  0  0  0  0
    9.0596   -3.0369   21.3667 H   0  0  0  0  0  0  0  0  0  0  0  0
    8.8677   -0.9155   20.9815 C   0  0  2  0  0  0  0  0  0  0  0  0
    9.3217   -1.1304   20.0071 H   0  0  0  0  0  0  0  0  0  0  0  0
    9.4305    0.4172   21.5360 C   0  0  0  0  0  0  0  0  0  0  0  0
   10.5201    0.3381   21.6353 H   0  0  0  0  0  0  0  0  0  0  0  0
    9.2458    1.1783   20.7643 H   0  0  0  0  0  0  0  0  0  0  0  0
    8.7899    0.8976   22.8751 C   0  0  2  0  0  0  0  0  0  0  0  0
    8.8187    1.9947   22.8350 H   0  0  0  0  0  0  0  0  0  0  0  0
    9.5834    0.5380   24.1638 C   0  0  0  0  0  0  0  0  0  0  0  0
   10.6355    0.8045   24.0084 H   0  0  0  0  0  0  0  0  0  0  0  0
    9.5656   -0.5443   24.3382 H   0  0  0  0  0  0  0  0  0  0  0  0
    9.0883    1.2879   25.4005 C   0  0  0  0  0  0  0  0  0  0  0  0
    8.4075    0.6120   26.4593 C   0  0  0  0  0  0  0  0  0  0  0  0
    8.3960   -0.4764   26.4529 H   0  0  0  0  0  0  0  0  0  0  0  0
    7.7789    1.3029   27.4728 C   0  0  0  0  0  0  0  0  0  0  0  0
    7.2486    0.7672   28.2563 H   0  0  0  0  0  0  0  0  0  0  0  0
    7.8551    2.7282   27.5417 C   0  0  0  0  0  0  0  0  0  0  0  0
    7.2141    3.4903   28.5720 C   0  0  0  0  0  0  0  0  0  0  0  0
    6.5479    2.9774   29.2651 H   0  0  0  0  0  0  0  0  0  0  0  0
    7.4385    4.8455   28.6770 C   0  0  0  0  0  0  0  0  0  0  0  0
    6.9736    5.4195   29.4761 H   0  0  0  0  0  0  0  0  0  0  0  0
    8.2925    5.5140   27.7455 C   0  0  0  0  0  0  0  0  0  0  0  0
    8.4723    6.5825   27.8526 H   0  0  0  0  0  0  0  0  0  0  0  0
    8.8654    4.8193   26.7035 C   0  0  0  0  0  0  0  0  0  0  0  0
    9.4727    5.3213   25.9505 H   0  0  0  0  0  0  0  0  0  0  0  0
    8.6554    3.4113   26.5683 C   0  0  0  0  0  0  0  0  0  0  0  0
    9.2295    2.6622   25.4970 C   0  0  0  0  0  0  0  0  0  0  0  0
    9.7903    3.2025   24.7380 H   0  0  0  0  0  0  0  0  0  0  0  0
    7.2998    0.4779   22.9737 C   0  0  0  0  0  0  0  0  0  0  0  0
    6.6783    1.2670   22.5370 H   0  0  0  0  0  0  0  0  0  0  0  0
    6.9927    0.4051   24.0223 H   0  0  0  0  0  0  0  0  0  0  0  0
    5.5132    0.5824   20.1402 C   0  0  0  0  0  0  0  0  0  0  0  0
    5.0784    0.5550   21.1373 H   0  0  0  0  0  0  0  0  0  0  0  0
    4.8766    1.2637   19.0996 C   0  0  0  0  0  0  0  0  0  0  0  0
    3.9394    1.7797   19.2717 H   0  0  0  0  0  0  0  0  0  0  0  0
  1  2  1  0
  2  3  2  0
  3  4  1  0
  4  5  1  0
  4  6  2  0
  6  7  1  0
  7  8  1  0
  8  9  1  6
  8 10  1  0
 10 11  1  0
 10 12  1  0
 10 13  1  0
 13 14  1  0
 13 15  1  0
 13 16  1  0
 16 17  1  6
 16 18  1  0
 18 19  1  0
 18 20  1  0
 18 21  1  0
 21 22  1  6
 21 23  1  0
 23 24  1  0
 23 25  1  0
 23 26  1  0
 26 27  2  0
 27 28  1  0
 27 29  1  0
 29 30  1  0
 29 31  2  0
 31 32  1  0
 32 33  1  0
 32 34  2  0
 34 35  1  0
 34 36  1  0
 36 37  1  0
 36 38  2  0
 38 39  1  0
 38 40  1  0
 40 41  2  0
 41 42  1  0
 21 43  1  0
 43 44  1  0
 43 45  1  0
  6 46  1  0
 46 47  1  0
 46 48  2  0
 48 49  1  0
 48  2  1  0
 16  7  1  0
 41 26  1  0
 43  8  1  0
 40 31  1  0
M  END
>  <cnnaffinity>  (1) 
-5.70169

>  <filename>  (1) 
c1cncc(N2[C@@H]3CC[C@H]2C[C@@H](Cc2ccc4ccccc4c2)C3)c1

$$$$
