
     RDKit          3D

 31 34  0  0  0  0  0  0  0  0999 V2000
    4.9237    1.7758   16.9973 H   0  0  0  0  0  0  0  0  0  0  0  0
    5.4076    1.2888   17.8408 C   0  0  0  0  0  0  0  0  0  0  0  0
    6.5720    0.6693   17.5912 N   0  0  0  0  0  0  0  0  0  0  0  0
    7.1663    0.0602   18.6176 C   0  0  0  0  0  0  0  0  0  0  0  0
    8.1096   -0.4236   18.3772 H   0  0  0  0  0  0  0  0  0  0  0  0
    6.6425    0.0102   19.9167 C   0  0  0  0  0  0  0  0  0  0  0  0
    7.3607   -0.6979   20.9808 C   0  0  0  0  0  0  0  0  0  0  0  0
    6.8385   -0.8202   22.1956 N   0  0  0  0  0  0  0  0  0  0  0  0
    7.7454   -1.5020   22.9170 N   0  0  0  0  0  0  0  0  0  0  0  0
    7.5321   -1.7596   24.3049 C   0  0  0  0  0  0  0  0  0  0  0  0
    6.9831   -0.8773   25.1750 C   0  0  0  0  0  0  0  0  0  0  0  0
    6.5896    0.1023   24.9416 H   0  0  0  0  0  0  0  0  0  0  0  0
    6.9384   -1.4403   26.8047 S   0  0  0  0  0  0  0  0  0  0  0  0
    7.6761   -2.9530   26.3408 C   0  0  0  0  0  0  0  0  0  0  0  0
    7.9855   -4.0526   27.1675 C   0  0  0  0  0  0  0  0  0  0  0  0
    7.7841   -4.0330   28.2334 H   0  0  0  0  0  0  0  0  0  0  0  0
    8.5414   -5.1925   26.5934 C   0  0  0  0  0  0  0  0  0  0  0  0
    8.7819   -6.0529   27.2183 H   0  0  0  0  0  0  0  0  0  0  0  0
    8.7872   -5.2538   25.2031 C   0  0  0  0  0  0  0  0  0  0  0  0
    9.2102   -6.1549   24.7659 H   0  0  0  0  0  0  0  0  0  0  0  0
    8.4830   -4.1723   24.3863 C   0  0  0  0  0  0  0  0  0  0  0  0
    8.6360   -4.2211   23.3106 H   0  0  0  0  0  0  0  0  0  0  0  0
    7.9357   -2.9964   24.9524 C   0  0  0  0  0  0  0  0  0  0  0  0
    8.8576   -1.7898   22.1785 C   0  0  0  0  0  0  0  0  0  0  0  0
    9.7140   -2.2838   22.6220 H   0  0  0  0  0  0  0  0  0  0  0  0
    8.6431   -1.2935   20.9200 C   0  0  0  0  0  0  0  0  0  0  0  0
    9.3159   -1.3152   20.0770 H   0  0  0  0  0  0  0  0  0  0  0  0
    5.4225    0.6594   20.1642 C   0  0  0  0  0  0  0  0  0  0  0  0
    4.9985    0.6336   21.1724 H   0  0  0  0  0  0  0  0  0  0  0  0
    4.8028    1.3124   19.1043 C   0  0  0  0  0  0  0  0  0  0  0  0
    3.8703    1.8461   19.2563 H   0  0  0  0  0  0  0  0  0  0  0  0
  1  2  1  0
  2  3  2  0
  3  4  1  0
  4  5  1  0
  4  6  2  0
  6  7  1  0
  7  8  2  0
  8  9  1  0
  9 10  1  0
 10 11  2  0
 11 12  1  0
 11 13  1  0
 13 14  1  0
 14 15  2  0
 15 16  1  0
 15 17  1  0
 17 18  1  0
 17 19  2  0
 19 20  1  0
 19 21  1  0
 21 22  1  0
 21 23  2  0
  9 24  1  0
 24 25  1  0
 24 26  2  0
 26 27  1  0
  6 28  1  0
 28 29  1  0
 28 30  2  0
 30 31  1  0
 30  2  1  0
 26  7  1  0
 23 10  1  0
 23 14  1  0
M  END
>  <cnnaffinity>  (1) 
-5.37432

>  <filename>  (1) 
c1cncc(-c2ccn(-c3csc4ccccc34)n2)c1

$$$$
