
     RDKit          3D

 27 30  0  0  0  0  0  0  0  0999 V2000
    5.2349    3.0121   28.3419 H   0  0  0  0  0  0  0  0  0  0  0  0
    5.6108    2.4203   27.5131 C   0  0  0  0  0  0  0  0  0  0  0  0
    6.5260    1.4951   27.7978 N   0  0  0  0  0  0  0  0  0  0  0  0
    6.9833    0.7743   26.7796 C   0  0  0  0  0  0  0  0  0  0  0  0
    7.7290    0.0208   27.0193 H   0  0  0  0  0  0  0  0  0  0  0  0
    6.5420    0.9578   25.4692 C   0  0  0  0  0  0  0  0  0  0  0  0
    7.0322    0.1772   24.3372 C   0  0  0  0  0  0  0  0  0  0  0  0
    6.6164    0.3647   23.1248 N   0  0  0  0  0  0  0  0  0  0  0  0
    7.2645   -0.5108   22.2877 N   0  0  0  0  0  0  0  0  0  0  0  0
    7.4010   -0.6974   20.9219 C   0  0  0  0  0  0  0  0  0  0  0  0
    6.6482    0.0112   19.8930 C   0  0  0  0  0  0  0  0  0  0  0  0
    7.1751    0.0561   18.5913 C   0  0  0  0  0  0  0  0  0  0  0  0
    8.1247   -0.4347   18.3741 H   0  0  0  0  0  0  0  0  0  0  0  0
    6.5696    0.6778   17.5786 N   0  0  0  0  0  0  0  0  0  0  0  0
    5.4039    1.2900   17.8433 C   0  0  0  0  0  0  0  0  0  0  0  0
    4.9163    1.7755   17.0022 H   0  0  0  0  0  0  0  0  0  0  0  0
    4.8046    1.3087   19.1090 C   0  0  0  0  0  0  0  0  0  0  0  0
    3.8742    1.8436   19.2614 H   0  0  0  0  0  0  0  0  0  0  0  0
    5.4330    0.6527   20.1620 C   0  0  0  0  0  0  0  0  0  0  0  0
    5.0094    0.6362   21.1698 H   0  0  0  0  0  0  0  0  0  0  0  0
    8.3268   -1.5987   20.7053 N   0  0  0  0  0  0  0  0  0  0  0  0
    8.8262   -2.0304   21.9132 N   0  0  0  0  0  0  0  0  0  0  0  0
    8.1916   -1.3480   22.8257 C   0  0  0  0  0  0  0  0  0  0  0  0
    8.2595   -1.0915   24.5442 S   0  0  0  0  0  0  0  0  0  0  0  0
    5.5838    1.9559   25.2964 C   0  0  0  0  0  0  0  0  0  0  0  0
    5.1849    2.1675   24.3105 H   0  0  0  0  0  0  0  0  0  0  0  0
    5.1160    2.6849   26.3061 N   0  0  0  0  0  0  0  0  0  0  0  0
  1  2  1  0
  2  3  2  0
  3  4  1  0
  4  5  1  0
  4  6  2  0
  6  7  1  0
  7  8  2  0
  8  9  1  0
  9 10  1  0
 10 11  1  0
 11 12  2  0
 12 13  1  0
 12 14  1  0
 14 15  2  0
 15 16  1  0
 15 17  1  0
 17 18  1  0
 17 19  2  0
 19 20  1  0
 10 21  2  0
 21 22  1  0
 22 23  2  0
 23 24  1  0
  6 25  1  0
 25 26  1  0
 25 27  2  0
 27  2  1  0
 24  7  1  0
 23  9  1  0
 19 11  1  0
M  END
>  <cnnaffinity>  (1) 
-5.17193

>  <filename>  (1) 
c1cncc(-c2nnc3sc(-c4cncnc4)nn23)c1

$$$$
