
     RDKit          3D

 35 38  0  0  0  0  0  0  0  0999 V2000
    4.9208    1.7822   16.9919 H   0  0  0  0  0  0  0  0  0  0  0  0
    5.4037    1.2960   17.8340 C   0  0  0  0  0  0  0  0  0  0  0  0
    6.5629    0.6720   17.5713 N   0  0  0  0  0  0  0  0  0  0  0  0
    7.1683    0.0648   18.5968 C   0  0  0  0  0  0  0  0  0  0  0  0
    8.1124   -0.4327   18.3740 H   0  0  0  0  0  0  0  0  0  0  0  0
    6.6465    0.0305   19.8983 C   0  0  0  0  0  0  0  0  0  0  0  0
    7.3081   -0.7189   20.9655 C   0  0  0  0  0  0  0  0  0  0  0  0
    6.7214   -1.5715   21.7624 N   0  0  0  0  0  0  0  0  0  0  0  0
    7.6723   -2.0767   22.6142 N   0  0  0  0  0  0  0  0  0  0  0  0
    8.7997   -1.4981   22.3140 C   0  0  0  0  0  0  0  0  0  0  0  0
    9.7465   -1.6511   22.8113 H   0  0  0  0  0  0  0  0  0  0  0  0
    8.6368   -0.6251   21.2720 N   0  0  0  0  0  0  0  0  0  0  0  0
    9.6790    0.2353   20.7181 C   0  0  0  0  0  0  0  0  0  0  0  0
   10.3326   -0.4277   20.1459 H   0  0  0  0  0  0  0  0  0  0  0  0
    9.2283    0.9631   20.0388 H   0  0  0  0  0  0  0  0  0  0  0  0
   10.4664    0.9746   21.7729 C   0  0  0  0  0  0  0  0  0  0  0  0
   11.7511    0.5747   22.0786 C   0  0  0  0  0  0  0  0  0  0  0  0
   12.2040   -0.2570   21.5371 H   0  0  0  0  0  0  0  0  0  0  0  0
   12.4943    1.2028   23.1097 C   0  0  0  0  0  0  0  0  0  0  0  0
   13.5072    0.8626   23.3267 H   0  0  0  0  0  0  0  0  0  0  0  0
   11.9230    2.2312   23.8192 C   0  0  0  0  0  0  0  0  0  0  0  0
   12.4276    2.7331   24.6137 H   0  0  0  0  0  0  0  0  0  0  0  0
   10.6040    2.6928   23.5524 C   0  0  0  0  0  0  0  0  0  0  0  0
   10.1137    3.7235   24.3213 N   0  0  0  0  0  0  0  0  0  0  0  0
    8.8905    4.1242   24.0630 C   0  0  0  0  0  0  0  0  0  0  0  0
    8.5023    4.9432   24.6703 H   0  0  0  0  0  0  0  0  0  0  0  0
    8.0514    3.5614   23.0561 C   0  0  0  0  0  0  0  0  0  0  0  0
    7.0501    3.9546   22.9071 H   0  0  0  0  0  0  0  0  0  0  0  0
    8.5288    2.5351   22.2809 C   0  0  0  0  0  0  0  0  0  0  0  0
    7.9093    2.0791   21.5027 H   0  0  0  0  0  0  0  0  0  0  0  0
    9.8577    2.0542   22.5085 C   0  0  0  0  0  0  0  0  0  0  0  0
    5.4236    0.6624   20.1543 C   0  0  0  0  0  0  0  0  0  0  0  0
    4.9960    0.6220   21.1626 H   0  0  0  0  0  0  0  0  0  0  0  0
    4.8021    1.3214   19.0988 C   0  0  0  0  0  0  0  0  0  0  0  0
    3.8687    1.8486   19.2522 H   0  0  0  0  0  0  0  0  0  0  0  0
  1  2  1  0
  2  3  2  0
  3  4  1  0
  4  5  1  0
  4  6  2  0
  6  7  1  0
  7  8  2  0
  8  9  1  0
  9 10  2  0
 10 11  1  0
 10 12  1  0
 12 13  1  0
 13 14  1  0
 13 15  1  0
 13 16  1  0
 16 17  2  0
 17 18  1  0
 17 19  1  0
 19 20  1  0
 19 21  2  0
 21 22  1  0
 21 23  1  0
 23 24  2  0
 24 25  1  0
 25 26  1  0
 25 27  2  0
 27 28  1  0
 27 29  1  0
 29 30  1  0
 29 31  2  0
  6 32  1  0
 32 33  1  0
 32 34  2  0
 34 35  1  0
 34  2  1  0
 12  7  1  0
 31 16  1  0
 31 23  1  0
M  END
>  <cnnaffinity>  (1) 
-5.71595

>  <filename>  (1) 
c1cncc(-c2nncn2Cc2cccc3ncccc23)c1

$$$$
