
     RDKit          3D

 39 42  0  0  0  0  0  0  0  0999 V2000
    4.8175    1.3258   19.1131 C   0  0  0  0  0  0  0  0  0  0  0  0
    5.3923    1.2890   17.8387 C   0  0  0  0  0  0  0  0  0  0  0  0
    6.5431    0.6492   17.5754 N   0  0  0  0  0  0  0  0  0  0  0  0
    7.1773    0.0598   18.5978 C   0  0  0  0  0  0  0  0  0  0  0  0
    6.6900    0.0528   19.9157 C   0  0  0  0  0  0  0  0  0  0  0  0
    7.3868   -0.6218   20.9660 N   0  0  0  0  0  0  0  0  0  0  0  0
    6.7339   -1.5745   21.6862 N   0  0  0  0  0  0  0  0  0  0  0  0
    7.6633   -1.9952   22.5291 C   0  0  0  0  0  0  0  0  0  0  0  0
    7.4101   -2.9832   23.6148 C   0  0  0  0  0  0  0  0  0  0  0  0
    6.2544   -2.6108   24.6090 C   0  0  0  0  0  0  0  0  0  0  0  0
    5.4613   -3.8570   24.1388 C   0  0  0  0  0  0  0  0  0  0  0  0
    6.6239   -4.2655   23.1967 C   0  0  0  0  0  0  0  0  0  0  0  0
    7.1273   -5.2038   23.4506 H   0  0  0  0  0  0  0  0  0  0  0  0
    6.3743   -4.2982   22.1292 H   0  0  0  0  0  0  0  0  0  0  0  0
    4.5268   -3.6192   23.6157 H   0  0  0  0  0  0  0  0  0  0  0  0
    5.2182   -4.5814   24.9253 H   0  0  0  0  0  0  0  0  0  0  0  0
    6.5417   -2.6089   25.6656 H   0  0  0  0  0  0  0  0  0  0  0  0
    5.7853   -1.6415   24.3992 H   0  0  0  0  0  0  0  0  0  0  0  0
    8.3800   -3.1615   24.0943 H   0  0  0  0  0  0  0  0  0  0  0  0
    8.8721   -1.3990   22.3895 N   0  0  0  0  0  0  0  0  0  0  0  0
    8.6802   -0.5364   21.4064 C   0  0  0  0  0  0  0  0  0  0  0  0
    9.6735    0.5096   21.0094 C   0  0  0  0  0  0  0  0  0  0  0  0
    9.5832    1.7384   21.9223 C   0  0  0  0  0  0  0  0  0  0  0  0
    8.2131    2.4616   21.5507 C   0  0  0  0  0  0  0  0  0  0  0  0
    8.2149    2.4620   21.5569 N   0  0  0  0  0  0  0  0  0  0  0  0
    6.3645    3.7990   21.2627 O   0  0  0  0  0  0  0  0  0  0  0  0
    6.2513    3.2742   22.3614 C   0  0  0  0  0  0  0  0  0  0  0  0
    7.3364    2.5070   22.8177 C   0  0  0  0  0  0  0  0  0  0  0  0
    7.1821    1.6693   23.5078 H   0  0  0  0  0  0  0  0  0  0  0  0
    5.3039    3.3103   22.9364 H   0  0  0  0  0  0  0  0  0  0  0  0
    9.8062    1.3878   22.9402 H   0  0  0  0  0  0  0  0  0  0  0  0
   10.3979    2.3504   21.5846 H   0  0  0  0  0  0  0  0  0  0  0  0
   10.6574    0.0425   20.9269 H   0  0  0  0  0  0  0  0  0  0  0  0
    9.3718    0.9423   20.0694 H   0  0  0  0  0  0  0  0  0  0  0  0
    5.4664    0.6760   20.1706 C   0  0  0  0  0  0  0  0  0  0  0  0
    5.0460    0.6257   21.1737 H   0  0  0  0  0  0  0  0  0  0  0  0
    8.1127   -0.4458   18.3537 H   0  0  0  0  0  0  0  0  0  0  0  0
    4.9208    1.7900   16.9943 H   0  0  0  0  0  0  0  0  0  0  0  0
    3.8853    1.8563   19.2660 H   0  0  0  0  0  0  0  0  0  0  0  0
  1  2  2  0
  2  3  1  0
  3  4  2  0
  4  5  1  0
  5  6  1  0
  6  7  1  0
  7  8  2  0
  8  9  1  0
  9 10  1  0
 10 11  1  0
 11 12  1  0
 12 13  1  0
 12 14  1  0
 11 15  1  0
 11 16  1  0
 10 17  1  0
 10 18  1  0
  9 19  1  0
  8 20  1  0
 20 21  2  0
 21 22  1  0
 22 23  1  0
 23 24  1  0
 24 25  2  0
 25 26  1  0
 26 27  1  0
 27 28  2  0
 28 29  1  0
 27 30  1  0
 23 31  1  0
 23 32  1  0
 22 33  1  0
 22 34  1  0
  5 35  2  0
 35 36  1  0
  4 37  1  0
  2 38  1  0
  1 39  1  0
 35  1  1  0
 21  6  1  0
 28 24  1  0
 12  9  1  0
M  END
>  <cnnaffinity>  (1) 
-5.61123

>  <filename>  (1) 
c1cncc(-n2nc(C3CCC3)nc2CCc2ccon2)c1

$$$$
