
     RDKit          3D

 34 36  0  0  0  0  0  0  0  0999 V2000
    4.9477    1.8505   16.9857 H   0  0  0  0  0  0  0  0  0  0  0  0
    5.4160    1.3188   17.8098 C   0  0  0  0  0  0  0  0  0  0  0  0
    6.5712    0.6901   17.5362 N   0  0  0  0  0  0  0  0  0  0  0  0
    7.1702    0.0314   18.5412 C   0  0  0  0  0  0  0  0  0  0  0  0
    8.0973   -0.4849   18.2990 H   0  0  0  0  0  0  0  0  0  0  0  0
    6.6646   -0.0443   19.8657 C   0  0  0  0  0  0  0  0  0  0  0  0
    7.2810   -0.7733   20.8996 N   0  0  0  0  0  0  0  0  0  0  0  0
    6.7076   -0.8482   21.7356 H   0  0  0  0  0  0  0  0  0  0  0  0
    8.6774   -0.8044   21.1547 C   0  0  0  0  0  0  0  0  0  0  0  0
    9.6784    0.1328   20.7804 C   0  0  0  0  0  0  0  0  0  0  0  0
    9.5338    1.0376   20.2078 H   0  0  0  0  0  0  0  0  0  0  0  0
   10.8890   -0.2064   21.2039 N   0  0  0  0  0  0  0  0  0  0  0  0
   10.6715   -1.3534   21.8768 N   0  0  0  0  0  0  0  0  0  0  0  0
   11.4270   -1.9746   22.1193 H   0  0  0  0  0  0  0  0  0  0  0  0
    9.3795   -1.7703   21.8633 C   0  0  0  0  0  0  0  0  0  0  0  0
    9.0770   -2.9969   22.4460 N   0  0  0  0  0  0  0  0  0  0  0  0
    9.1857   -3.1227   23.9091 C   0  0  0  0  0  0  0  0  0  0  0  0
    8.2696   -2.7439   24.3864 H   0  0  0  0  0  0  0  0  0  0  0  0
   10.0253   -2.5224   24.2780 H   0  0  0  0  0  0  0  0  0  0  0  0
    9.3721   -4.5860   24.2964 C   0  0  0  0  0  0  0  0  0  0  0  0
   10.4040   -4.8807   24.0546 H   0  0  0  0  0  0  0  0  0  0  0  0
    9.2827   -4.6538   25.3888 H   0  0  0  0  0  0  0  0  0  0  0  0
    8.3321   -5.4492   23.7023 N   0  0  0  0  0  0  0  0  0  0  0  0
    8.6281   -6.4166   23.8037 H   0  0  0  0  0  0  0  0  0  0  0  0
    8.0000   -5.1957   22.2875 C   0  0  0  0  0  0  0  0  0  0  0  0
    8.7314   -5.6421   21.5951 H   0  0  0  0  0  0  0  0  0  0  0  0
    7.0253   -5.6671   22.0895 H   0  0  0  0  0  0  0  0  0  0  0  0
    7.8742   -3.6965   21.9840 C   0  0  0  0  0  0  0  0  0  0  0  0
    6.9755   -3.3007   22.4893 H   0  0  0  0  0  0  0  0  0  0  0  0
    7.7572   -3.5297   20.9107 H   0  0  0  0  0  0  0  0  0  0  0  0
    5.4457    0.6043   20.1165 C   0  0  0  0  0  0  0  0  0  0  0  0
    5.0090    0.5707   21.1171 H   0  0  0  0  0  0  0  0  0  0  0  0
    4.8160    1.2983   19.0787 C   0  0  0  0  0  0  0  0  0  0  0  0
    3.8815    1.8308   19.2383 H   0  0  0  0  0  0  0  0  0  0  0  0
  1  2  1  0
  2  3  2  0
  3  4  1  0
  4  5  1  0
  4  6  2  0
  6  7  1  0
  7  8  1  0
  7  9  1  0
  9 10  1  0
 10 11  1  0
 10 12  2  0
 12 13  1  0
 13 14  1  0
 13 15  1  0
 15 16  1  0
 16 17  1  0
 17 18  1  0
 17 19  1  0
 17 20  1  0
 20 21  1  0
 20 22  1  0
 20 23  1  0
 23 24  1  0
 23 25  1  0
 25 26  1  0
 25 27  1  0
 25 28  1  0
 28 29  1  0
 28 30  1  0
  6 31  1  0
 31 32  1  0
 31 33  2  0
 33 34  1  0
 33  2  1  0
 15  9  2  0
 28 16  1  0
M  END
>  <cnnaffinity>  (1) 
-5.14299

>  <filename>  (1) 
c1cncc(Nc2cn[nH]c2N2CCNCC2)c1

$$$$
