
     RDKit          3D

 42 45  0  0  0  0  0  0  0  0999 V2000
    4.9016    1.8207   16.9712 H   0  0  0  0  0  0  0  0  0  0  0  0
    5.3823    1.3183   17.8086 C   0  0  0  0  0  0  0  0  0  0  0  0
    6.5494    0.7105   17.5343 N   0  0  0  0  0  0  0  0  0  0  0  0
    7.1686    0.0888   18.5473 C   0  0  0  0  0  0  0  0  0  0  0  0
    8.1133   -0.4015   18.3176 H   0  0  0  0  0  0  0  0  0  0  0  0
    6.6746   -0.0063   19.8742 C   0  0  0  0  0  0  0  0  0  0  0  0
    7.3793   -0.7416   20.8590 N   0  0  0  0  0  0  0  0  0  0  0  0
    6.6919   -1.6827   21.7340 C   0  0  0  0  0  0  0  0  0  0  0  0
    5.6934   -1.8594   21.3148 H   0  0  0  0  0  0  0  0  0  0  0  0
    7.2345   -2.6448   21.7345 H   0  0  0  0  0  0  0  0  0  0  0  0
    6.5432   -1.2382   23.2041 C   0  0  0  0  0  0  0  0  0  0  0  0
    6.1605   -0.2026   23.2233 H   0  0  0  0  0  0  0  0  0  0  0  0
    5.7901   -1.8739   23.6809 H   0  0  0  0  0  0  0  0  0  0  0  0
    7.7502   -1.3778   23.9967 N   0  0  0  0  0  0  0  0  0  0  0  0
    7.7504   -2.3334   25.0284 C   0  0  0  0  0  0  0  0  0  0  0  0
    8.5482   -3.4739   24.9416 C   0  0  0  0  0  0  0  0  0  0  0  0
    9.1611   -3.5986   24.0541 H   0  0  0  0  0  0  0  0  0  0  0  0
    8.5060   -4.4700   25.9394 C   0  0  0  0  0  0  0  0  0  0  0  0
    9.1567   -5.3384   25.8518 H   0  0  0  0  0  0  0  0  0  0  0  0
    7.6432   -4.3508   27.0255 C   0  0  0  0  0  0  0  0  0  0  0  0
    7.6630   -5.0883   27.8217 H   0  0  0  0  0  0  0  0  0  0  0  0
    6.7876   -3.2294   27.0764 C   0  0  0  0  0  0  0  0  0  0  0  0
    6.8396   -2.1989   26.1126 C   0  0  0  0  0  0  0  0  0  0  0  0
    5.8971   -1.1841   26.5250 C   0  0  0  0  0  0  0  0  0  0  0  0
    5.6832   -0.2490   26.0142 H   0  0  0  0  0  0  0  0  0  0  0  0
    5.3336   -1.6222   27.6851 C   0  0  0  0  0  0  0  0  0  0  0  0
    4.6545   -1.1263   28.3663 H   0  0  0  0  0  0  0  0  0  0  0  0
    5.8222   -2.8745   27.9923 N   0  0  0  0  0  0  0  0  0  0  0  0
    5.7532   -3.3051   28.9035 H   0  0  0  0  0  0  0  0  0  0  0  0
    8.9223   -0.5555   23.8053 C   0  0  0  0  0  0  0  0  0  0  0  0
    9.8006   -1.2228   23.7223 H   0  0  0  0  0  0  0  0  0  0  0  0
    9.0992    0.0539   24.7132 H   0  0  0  0  0  0  0  0  0  0  0  0
    8.8718    0.3637   22.5795 C   0  0  0  0  0  0  0  0  0  0  0  0
    9.8078    0.9328   22.5815 H   0  0  0  0  0  0  0  0  0  0  0  0
    8.0594    1.0981   22.6773 H   0  0  0  0  0  0  0  0  0  0  0  0
    8.7409   -0.3663   21.2267 C   0  0  0  0  0  0  0  0  0  0  0  0
    9.1257    0.2796   20.4262 H   0  0  0  0  0  0  0  0  0  0  0  0
    9.3717   -1.2730   21.2424 H   0  0  0  0  0  0  0  0  0  0  0  0
    5.4483    0.6380   20.1272 C   0  0  0  0  0  0  0  0  0  0  0  0
    5.0314    0.6032   21.1326 H   0  0  0  0  0  0  0  0  0  0  0  0
    4.8029    1.3170   19.0834 C   0  0  0  0  0  0  0  0  0  0  0  0
    3.8655    1.8412   19.2449 H   0  0  0  0  0  0  0  0  0  0  0  0
  1  2  1  0
  2  3  2  0
  3  4  1  0
  4  5  1  0
  4  6  2  0
  6  7  1  0
  7  8  1  0
  8  9  1  0
  8 10  1  0
  8 11  1  0
 11 12  1  0
 11 13  1  0
 11 14  1  0
 14 15  1  0
 15 16  2  0
 16 17  1  0
 16 18  1  0
 18 19  1  0
 18 20  2  0
 20 21  1  0
 20 22  1  0
 22 23  2  0
 23 24  1  0
 24 25  1  0
 24 26  2  0
 26 27  1  0
 26 28  1  0
 28 29  1  0
 14 30  1  0
 30 31  1  0
 30 32  1  0
 30 33  1  0
 33 34  1  0
 33 35  1  0
 33 36  1  0
 36 37  1  0
 36 38  1  0
  6 39  1  0
 39 40  1  0
 39 41  2  0
 41 42  1  0
 41  2  1  0
 36  7  1  0
 23 15  1  0
 28 22  1  0
M  END
>  <cnnaffinity>  (1) 
-5.33626

>  <filename>  (1) 
c1cncc(N2CCCN(c3cccc4[nH]ccc34)CC2)c1

$$$$
