
     RDKit          3D

 37 40  0  0  0  0  0  0  0  0999 V2000
    5.2069    1.6648   17.0001 H   0  0  0  0  0  0  0  0  0  0  0  0
    5.7394    1.2121   17.8332 C   0  0  0  0  0  0  0  0  0  0  0  0
    6.9285    0.6538   17.5558 N   0  0  0  0  0  0  0  0  0  0  0  0
    7.5967    0.0992   18.5713 C   0  0  0  0  0  0  0  0  0  0  0  0
    8.5765   -0.3130   18.3304 H   0  0  0  0  0  0  0  0  0  0  0  0
    7.1068    0.0205   19.8861 C   0  0  0  0  0  0  0  0  0  0  0  0
    7.8830   -0.7253   20.8871 C   0  0  0  0  0  0  0  0  0  0  0  0
    9.2173   -0.6268   20.9409 N   0  0  0  0  0  0  0  0  0  0  0  0
    9.5450   -1.4693   21.9244 N   0  0  0  0  0  0  0  0  0  0  0  0
    8.5079   -2.1071   22.4747 C   0  0  0  0  0  0  0  0  0  0  0  0
    7.3771   -1.6662   21.8305 C   0  0  0  0  0  0  0  0  0  0  0  0
    5.9935   -2.2167   22.0087 C   0  0  0  0  0  0  0  0  0  0  0  0
    5.7781   -2.2926   23.0802 H   0  0  0  0  0  0  0  0  0  0  0  0
    5.2915   -1.5023   21.5680 H   0  0  0  0  0  0  0  0  0  0  0  0
    5.8027   -3.5579   21.3424 C   0  0  0  0  0  0  0  0  0  0  0  0
    5.9219   -3.6173   19.9467 C   0  0  0  0  0  0  0  0  0  0  0  0
    6.0900   -2.6877   19.3948 H   0  0  0  0  0  0  0  0  0  0  0  0
    5.8183   -4.7404   19.2307 N   0  0  0  0  0  0  0  0  0  0  0  0
    5.5948   -5.8748   19.9015 C   0  0  0  0  0  0  0  0  0  0  0  0
    5.5003   -6.7739   19.2996 H   0  0  0  0  0  0  0  0  0  0  0  0
    5.4414   -5.9331   21.2864 C   0  0  0  0  0  0  0  0  0  0  0  0
    5.2384   -6.8902   21.7527 H   0  0  0  0  0  0  0  0  0  0  0  0
    5.5362   -4.7520   22.0260 C   0  0  0  0  0  0  0  0  0  0  0  0
    5.3939   -4.7678   23.1092 H   0  0  0  0  0  0  0  0  0  0  0  0
    8.9584   -3.0154   23.5675 C   0  0  0  0  0  0  0  0  0  0  0  0
    8.3855   -2.8448   24.4815 H   0  0  0  0  0  0  0  0  0  0  0  0
    8.8117   -4.0596   23.2842 H   0  0  0  0  0  0  0  0  0  0  0  0
   10.4516   -2.6375   23.7245 C   0  0  0  0  0  0  0  0  0  0  0  0
   10.5688   -2.0336   24.6222 H   0  0  0  0  0  0  0  0  0  0  0  0
   11.0882   -3.5136   23.8273 H   0  0  0  0  0  0  0  0  0  0  0  0
   10.8435   -1.7932   22.4770 C   0  0  0  0  0  0  0  0  0  0  0  0
   11.3693   -0.8753   22.7458 H   0  0  0  0  0  0  0  0  0  0  0  0
   11.4425   -2.3546   21.7515 H   0  0  0  0  0  0  0  0  0  0  0  0
    5.8789    0.6476   20.1637 C   0  0  0  0  0  0  0  0  0  0  0  0
    5.4700    0.6689   21.1750 H   0  0  0  0  0  0  0  0  0  0  0  0
    5.1873    1.2492   19.1156 C   0  0  0  0  0  0  0  0  0  0  0  0
    4.2371    1.7419   19.2897 H   0  0  0  0  0  0  0  0  0  0  0  0
  1  2  1  0
  2  3  2  0
  3  4  1  0
  4  5  1  0
  4  6  2  0
  6  7  1  0
  7  8  2  0
  8  9  1  0
  9 10  1  0
 10 11  2  0
 11 12  1  0
 12 13  1  0
 12 14  1  0
 12 15  1  0
 15 16  2  0
 16 17  1  0
 16 18  1  0
 18 19  2  0
 19 20  1  0
 19 21  1  0
 21 22  1  0
 21 23  2  0
 23 24  1  0
 10 25  1  0
 25 26  1  0
 25 27  1  0
 25 28  1  0
 28 29  1  0
 28 30  1  0
 28 31  1  0
 31 32  1  0
 31 33  1  0
  6 34  1  0
 34 35  1  0
 34 36  2  0
 36 37  1  0
 36  2  1  0
 11  7  1  0
 23 15  1  0
 31  9  1  0
M  END
>  <cnnaffinity>  (1) 
-5.71428

>  <filename>  (1) 
c1cncc(Cc2c(-c3cccnc3)nn3c2CCC3)c1

$$$$
