
     RDKit          3D

 35 37  0  0  0  0  0  0  0  0999 V2000
    9.4330   -0.8148   20.2994 H   0  0  0  0  0  0  0  0  0  0  0  0
    8.7277   -1.0716   21.0835 C   0  0  0  0  0  0  0  0  0  0  0  0
    9.1509   -1.7317   22.2198 N   0  0  0  0  0  0  0  0  0  0  0  0
    8.1331   -1.8884   23.0153 C   0  0  0  0  0  0  0  0  0  0  0  0
    8.2434   -2.4834   24.2197 N   0  0  0  0  0  0  0  0  0  0  0  0
    9.1976   -2.7289   24.4124 H   0  0  0  0  0  0  0  0  0  0  0  0
    7.1630   -2.7878   25.1482 C   0  0  0  0  0  0  0  0  0  0  0  0
    6.5209   -1.8979   25.2006 H   0  0  0  0  0  0  0  0  0  0  0  0
    7.6964   -3.0679   26.5677 C   0  0  0  0  0  0  0  0  0  0  0  0
    8.3560   -2.2549   26.8888 H   0  0  0  0  0  0  0  0  0  0  0  0
    6.8377   -3.0366   27.2522 H   0  0  0  0  0  0  0  0  0  0  0  0
    8.3831   -4.4352   26.7351 C   0  0  0  0  0  0  0  0  0  0  0  0
    8.6437   -4.6054   27.7881 H   0  0  0  0  0  0  0  0  0  0  0  0
    9.3319   -4.4264   26.1832 H   0  0  0  0  0  0  0  0  0  0  0  0
    7.5030   -5.5837   26.2163 C   0  0  0  0  0  0  0  0  0  0  0  0
    8.0442   -6.5357   26.2794 H   0  0  0  0  0  0  0  0  0  0  0  0
    6.6207   -5.6856   26.8650 H   0  0  0  0  0  0  0  0  0  0  0  0
    7.0356   -5.3257   24.7775 C   0  0  0  0  0  0  0  0  0  0  0  0
    7.9034   -5.3216   24.1041 H   0  0  0  0  0  0  0  0  0  0  0  0
    6.3769   -6.1308   24.4346 H   0  0  0  0  0  0  0  0  0  0  0  0
    6.3112   -3.9773   24.6553 C   0  0  0  0  0  0  0  0  0  0  0  0
    6.0059   -3.7930   23.6217 H   0  0  0  0  0  0  0  0  0  0  0  0
    5.3935   -4.0084   25.2570 H   0  0  0  0  0  0  0  0  0  0  0  0
    6.6200   -1.2535   22.4452 S   0  0  0  0  0  0  0  0  0  0  0  0
    7.4127   -0.7200   20.9826 C   0  0  0  0  0  0  0  0  0  0  0  0
    6.6753   -0.0021   19.9199 C   0  0  0  0  0  0  0  0  0  0  0  0
    7.1686    0.0655   18.5956 C   0  0  0  0  0  0  0  0  0  0  0  0
    8.1094   -0.4240   18.3552 H   0  0  0  0  0  0  0  0  0  0  0  0
    6.5604    0.6797   17.5730 N   0  0  0  0  0  0  0  0  0  0  0  0
    5.3969    1.2948   17.8365 C   0  0  0  0  0  0  0  0  0  0  0  0
    4.9156    1.7844   16.9917 H   0  0  0  0  0  0  0  0  0  0  0  0
    4.8068    1.3098   19.1049 C   0  0  0  0  0  0  0  0  0  0  0  0
    3.8748    1.8420   19.2579 H   0  0  0  0  0  0  0  0  0  0  0  0
    5.4443    0.6485   20.1602 C   0  0  0  0  0  0  0  0  0  0  0  0
    5.0137    0.6291   21.1627 H   0  0  0  0  0  0  0  0  0  0  0  0
  1  2  1  0
  2  3  1  0
  3  4  2  0
  4  5  1  0
  5  6  1  0
  5  7  1  0
  7  8  1  0
  7  9  1  0
  9 10  1  0
  9 11  1  0
  9 12  1  0
 12 13  1  0
 12 14  1  0
 12 15  1  0
 15 16  1  0
 15 17  1  0
 15 18  1  0
 18 19  1  0
 18 20  1  0
 18 21  1  0
 21 22  1  0
 21 23  1  0
  4 24  1  0
 24 25  1  0
 25 26  1  0
 26 27  2  0
 27 28  1  0
 27 29  1  0
 29 30  2  0
 30 31  1  0
 30 32  1  0
 32 33  1  0
 32 34  2  0
 34 35  1  0
 25  2  2  0
 34 26  1  0
 21  7  1  0
M  END
>  <cnnaffinity>  (1) 
-5.09207

>  <filename>  (1) 
c1cncc(-c2cnc(NC3CCCCC3)s2)c1

$$$$
