
     RDKit          3D

 27 29  0  0  0  0  0  0  0  0999 V2000
   11.9351    0.7795   25.6550 H   0  0  0  0  0  0  0  0  0  0  0  0
   10.8724    0.6601   25.4828 C   0  0  0  0  0  0  0  0  0  0  0  0
    9.9825    1.6924   25.4621 N   0  0  0  0  0  0  0  0  0  0  0  0
    8.8556    1.0748   25.1936 C   0  0  0  0  0  0  0  0  0  0  0  0
    7.8831    1.5313   25.0733 H   0  0  0  0  0  0  0  0  0  0  0  0
    9.0527   -0.2527   25.0819 N   0  0  0  0  0  0  0  0  0  0  0  0
    8.1195   -1.2728   24.6285 C   0  0  0  0  0  0  0  0  0  0  0  0
    8.4387   -2.2207   25.0691 H   0  0  0  0  0  0  0  0  0  0  0  0
    7.1373   -1.0196   25.0287 H   0  0  0  0  0  0  0  0  0  0  0  0
    8.0507   -1.3592   23.1268 C   0  0  0  0  0  0  0  0  0  0  0  0
    8.8472   -2.1509   22.3637 C   0  0  0  0  0  0  0  0  0  0  0  0
    9.5865   -2.8577   22.7000 H   0  0  0  0  0  0  0  0  0  0  0  0
    8.6239   -1.8730   20.6917 S   0  0  0  0  0  0  0  0  0  0  0  0
    7.3835   -0.6993   20.9863 C   0  0  0  0  0  0  0  0  0  0  0  0
    6.6691    0.0004   19.9040 C   0  0  0  0  0  0  0  0  0  0  0  0
    7.1704    0.0588   18.5863 C   0  0  0  0  0  0  0  0  0  0  0  0
    8.1181   -0.4136   18.3465 H   0  0  0  0  0  0  0  0  0  0  0  0
    6.5599    0.6773   17.5709 N   0  0  0  0  0  0  0  0  0  0  0  0
    5.3982    1.2941   17.8348 C   0  0  0  0  0  0  0  0  0  0  0  0
    4.9219    1.7884   16.9912 H   0  0  0  0  0  0  0  0  0  0  0  0
    4.8078    1.3079   19.1024 C   0  0  0  0  0  0  0  0  0  0  0  0
    3.8776    1.8393   19.2548 H   0  0  0  0  0  0  0  0  0  0  0  0
    5.4466    0.6500   20.1554 C   0  0  0  0  0  0  0  0  0  0  0  0
    5.0049    0.6288   21.1549 H   0  0  0  0  0  0  0  0  0  0  0  0
    7.2091   -0.5255   22.3298 C   0  0  0  0  0  0  0  0  0  0  0  0
    6.5318    0.2155   22.7454 H   0  0  0  0  0  0  0  0  0  0  0  0
   10.3623   -0.5274   25.2447 N   0  0  0  0  0  0  0  0  0  0  0  0
  1  2  1  0
  2  3  1  0
  3  4  2  0
  4  5  1  0
  4  6  1  0
  6  7  1  0
  7  8  1  0
  7  9  1  0
  7 10  1  0
 10 11  2  0
 11 12  1  0
 11 13  1  0
 13 14  1  0
 14 15  1  0
 15 16  2  0
 16 17  1  0
 16 18  1  0
 18 19  2  0
 19 20  1  0
 19 21  1  0
 21 22  1  0
 21 23  2  0
 23 24  1  0
 14 25  2  0
 25 26  1  0
  6 27  1  0
 27  2  2  0
 25 10  1  0
 23 15  1  0
M  END
>  <cnnaffinity>  (1) 
-4.85411

>  <filename>  (1) 
c1cncc(-c2cc(Cn3cncn3)cs2)c1

$$$$
