
     RDKit          3D

 39 42  0  0  0  0  0  0  0  0999 V2000
    4.8138    1.3087   19.1121 C   0  0  0  0  0  0  0  0  0  0  0  0
    5.4003    1.2958   17.8398 C   0  0  0  0  0  0  0  0  0  0  0  0
    6.5599    0.6728   17.5797 N   0  0  0  0  0  0  0  0  0  0  0  0
    7.1697    0.0513   18.5953 C   0  0  0  0  0  0  0  0  0  0  0  0
    6.6618    0.0028   19.9048 C   0  0  0  0  0  0  0  0  0  0  0  0
    7.3701   -0.6742   20.9414 N   0  0  0  0  0  0  0  0  0  0  0  0
    6.7337   -1.5746   21.7329 N   0  0  0  0  0  0  0  0  0  0  0  0
    7.6638   -1.9267   22.5982 C   0  0  0  0  0  0  0  0  0  0  0  0
    7.3802   -2.8204   23.7610 C   0  0  0  0  0  0  0  0  0  0  0  0
    6.4464   -2.1769   24.8333 C   0  0  0  0  0  0  0  0  0  0  0  0
    5.1912   -3.4819   24.5965 S   0  0  0  0  0  0  0  0  0  0  0  0
    6.4848   -4.0433   23.4379 C   0  0  0  0  0  0  0  0  0  0  0  0
    6.1336   -4.0798   22.4013 H   0  0  0  0  0  0  0  0  0  0  0  0
    6.9162   -5.0085   23.7195 H   0  0  0  0  0  0  0  0  0  0  0  0
    6.0842   -1.1743   24.5788 H   0  0  0  0  0  0  0  0  0  0  0  0
    6.8604   -2.1601   25.8466 H   0  0  0  0  0  0  0  0  0  0  0  0
    8.3481   -3.0998   24.1749 H   0  0  0  0  0  0  0  0  0  0  0  0
    8.8701   -1.3344   22.4180 N   0  0  0  0  0  0  0  0  0  0  0  0
    8.6452   -0.5147   21.4036 C   0  0  0  0  0  0  0  0  0  0  0  0
    9.5281    0.5991   20.9475 C   0  0  0  0  0  0  0  0  0  0  0  0
    9.0447    1.9880   21.4465 C   0  0  0  0  0  0  0  0  0  0  0  0
    8.8548    2.0545   22.8925 N   0  0  0  0  0  0  0  0  0  0  0  0
    7.6684    1.8160   23.5541 C   0  0  0  0  0  0  0  0  0  0  0  0
    7.9119    1.7523   24.9021 C   0  0  0  0  0  0  0  0  0  0  0  0
    9.3182    1.9416   25.0767 C   0  0  0  0  0  0  0  0  0  0  0  0
    9.8657    2.1002   23.8276 C   0  0  0  0  0  0  0  0  0  0  0  0
   10.8989    2.2200   23.5120 H   0  0  0  0  0  0  0  0  0  0  0  0
    9.8615    1.9678   26.0158 H   0  0  0  0  0  0  0  0  0  0  0  0
    7.1697    1.5973   25.6822 H   0  0  0  0  0  0  0  0  0  0  0  0
    6.7541    1.6656   22.9889 H   0  0  0  0  0  0  0  0  0  0  0  0
    8.0995    2.2539   20.9597 H   0  0  0  0  0  0  0  0  0  0  0  0
    9.7756    2.7544   21.1670 H   0  0  0  0  0  0  0  0  0  0  0  0
   10.5274    0.3923   21.3334 H   0  0  0  0  0  0  0  0  0  0  0  0
    9.5865    0.6088   19.8551 H   0  0  0  0  0  0  0  0  0  0  0  0
    5.4439    0.6405   20.1678 C   0  0  0  0  0  0  0  0  0  0  0  0
    5.0156    0.6074   21.1748 H   0  0  0  0  0  0  0  0  0  0  0  0
    8.1139   -0.4361   18.3669 H   0  0  0  0  0  0  0  0  0  0  0  0
    4.9206    1.7859   16.9946 H   0  0  0  0  0  0  0  0  0  0  0  0
    3.8809    1.8383   19.2626 H   0  0  0  0  0  0  0  0  0  0  0  0
  1  2  2  0
  2  3  1  0
  3  4  2  0
  4  5  1  0
  5  6  1  0
  6  7  1  0
  7  8  2  0
  8  9  1  0
  9 10  1  0
 10 11  1  0
 11 12  1  0
 12 13  1  0
 12 14  1  0
 10 15  1  0
 10 16  1  0
  9 17  1  0
  8 18  1  0
 18 19  2  0
 19 20  1  0
 20 21  1  0
 21 22  1  0
 22 23  1  0
 23 24  2  0
 24 25  1  0
 25 26  2  0
 26 27  1  0
 25 28  1  0
 24 29  1  0
 23 30  1  0
 21 31  1  0
 21 32  1  0
 20 33  1  0
 20 34  1  0
  5 35  2  0
 35 36  1  0
  4 37  1  0
  2 38  1  0
  1 39  1  0
 35  1  1  0
 19  6  1  0
 26 22  1  0
 12  9  1  0
M  END
>  <cnnaffinity>  (1) 
-5.7193

>  <filename>  (1) 
c1cncc(-n2nc(C3CSC3)nc2CCn2cccc2)c1

$$$$
