
     RDKit          3D

 37 40  0  0  0  0  0  0  0  0999 V2000
    4.7454    1.3489   19.0146 C   0  0  0  0  0  0  0  0  0  0  0  0
    5.3958    1.3390   17.7770 C   0  0  0  0  0  0  0  0  0  0  0  0
    6.5636    0.7131   17.5587 N   0  0  0  0  0  0  0  0  0  0  0  0
    7.1259    0.0897   18.6003 C   0  0  0  0  0  0  0  0  0  0  0  0
    6.5695    0.0452   19.8901 C   0  0  0  0  0  0  0  0  0  0  0  0
    7.3058   -0.7044   20.9795 C   0  0  0  0  0  0  0  0  0  0  0  0
    8.5655   -0.0871   21.3669 N   0  0  0  0  0  0  0  0  0  0  0  0
    9.7447   -0.6847   21.0852 N   0  0  0  0  0  0  0  0  0  0  0  0
   10.6295    0.1323   21.6296 C   0  0  0  0  0  0  0  0  0  0  0  0
   12.0565   -0.1942   21.7311 C   0  0  0  0  0  0  0  0  0  0  0  0
   12.6252   -1.3481   21.2502 C   0  0  0  0  0  0  0  0  0  0  0  0
   14.3090   -1.3803   21.4947 S   0  0  0  0  0  0  0  0  0  0  0  0
   14.2767    0.1576   22.2765 C   0  0  0  0  0  0  0  0  0  0  0  0
   13.0219    0.6694   22.3472 C   0  0  0  0  0  0  0  0  0  0  0  0
   12.7796    1.6187   22.8152 H   0  0  0  0  0  0  0  0  0  0  0  0
   15.1834    0.6381   22.6058 H   0  0  0  0  0  0  0  0  0  0  0  0
   12.1085   -2.1786   20.7871 H   0  0  0  0  0  0  0  0  0  0  0  0
   10.0871    1.2511   22.1865 N   0  0  0  0  0  0  0  0  0  0  0  0
    8.7920    1.0604   22.0402 C   0  0  0  0  0  0  0  0  0  0  0  0
    7.7252    1.8151   22.7823 C   0  0  0  0  0  0  0  0  0  0  0  0
    7.4522    1.1500   24.1115 C   0  0  0  0  0  0  0  0  0  0  0  0
    8.3565    0.8958   25.1170 C   0  0  0  0  0  0  0  0  0  0  0  0
    7.6481    0.1343   26.0634 C   0  0  0  0  0  0  0  0  0  0  0  0
    6.3925   -0.0798   25.6834 N   0  0  0  0  0  0  0  0  0  0  0  0
    6.3002    0.5467   24.4950 N   0  0  0  0  0  0  0  0  0  0  0  0
    5.4428    0.4690   23.9633 H   0  0  0  0  0  0  0  0  0  0  0  0
    8.0164   -0.2755   26.9948 H   0  0  0  0  0  0  0  0  0  0  0  0
    9.4032    1.1707   25.0981 H   0  0  0  0  0  0  0  0  0  0  0  0
    6.8215    1.8966   22.1749 H   0  0  0  0  0  0  0  0  0  0  0  0
    8.1047    2.8230   22.9648 H   0  0  0  0  0  0  0  0  0  0  0  0
    6.6775   -0.8004   21.8735 H   0  0  0  0  0  0  0  0  0  0  0  0
    7.5669   -1.7138   20.6471 H   0  0  0  0  0  0  0  0  0  0  0  0
    5.3406    0.6822   20.0896 C   0  0  0  0  0  0  0  0  0  0  0  0
    4.8404    0.6408   21.0612 H   0  0  0  0  0  0  0  0  0  0  0  0
    8.0618   -0.4328   18.3967 H   0  0  0  0  0  0  0  0  0  0  0  0
    4.9580    1.8491   16.9215 H   0  0  0  0  0  0  0  0  0  0  0  0
    3.8017    1.8708   19.1232 H   0  0  0  0  0  0  0  0  0  0  0  0
  1  2  2  0
  2  3  1  0
  3  4  2  0
  4  5  1  0
  5  6  1  0
  6  7  1  0
  7  8  1  0
  8  9  2  0
  9 10  1  0
 10 11  2  0
 11 12  1  0
 12 13  1  0
 13 14  2  0
 14 15  1  0
 13 16  1  0
 11 17  1  0
  9 18  1  0
 18 19  2  0
 19 20  1  0
 20 21  1  0
 21 22  2  0
 22 23  1  0
 23 24  2  0
 24 25  1  0
 25 26  1  0
 23 27  1  0
 22 28  1  0
 20 29  1  0
 20 30  1  0
  6 31  1  0
  6 32  1  0
  5 33  2  0
 33 34  1  0
  4 35  1  0
  2 36  1  0
  1 37  1  0
 33  1  1  0
 19  7  1  0
 25 21  1  0
 14 10  1  0
M  END
>  <cnnaffinity>  (1) 
-6.38237

>  <filename>  (1) 
c1cncc(Cn2nc(-c3ccsc3)nc2Cc2ccn[nH]2)c1

$$$$
