
     RDKit          3D

 41 44  0  0  0  0  0  0  0  0999 V2000
    4.9510    1.8451   16.9640 H   0  0  0  0  0  0  0  0  0  0  0  0
    5.3977    1.3089   17.7995 C   0  0  0  0  0  0  0  0  0  0  0  0
    6.5500    0.6648   17.5502 N   0  0  0  0  0  0  0  0  0  0  0  0
    7.1434    0.0334   18.5693 C   0  0  0  0  0  0  0  0  0  0  0  0
    8.0737   -0.4847   18.3320 H   0  0  0  0  0  0  0  0  0  0  0  0
    6.6401    0.0313   19.8843 C   0  0  0  0  0  0  0  0  0  0  0  0
    7.4026   -0.5972   20.9750 C   0  0  0  0  0  0  0  0  0  0  0  0
    8.1013   -1.7117   20.7496 N   0  0  0  0  0  0  0  0  0  0  0  0
    8.6429   -1.9874   21.9319 N   0  0  0  0  0  0  0  0  0  0  0  0
    8.3927   -1.0978   22.8964 C   0  0  0  0  0  0  0  0  0  0  0  0
    7.5469   -0.1701   22.3340 C   0  0  0  0  0  0  0  0  0  0  0  0
    7.1793    1.1643   22.8835 C   0  0  0  0  0  0  0  0  0  0  0  0
    7.6237    1.2932   23.8905 H   0  0  0  0  0  0  0  0  0  0  0  0
    6.0912    1.2284   23.0250 H   0  0  0  0  0  0  0  0  0  0  0  0
    7.5938    2.2326   21.9540 N   0  0  0  0  0  0  0  0  0  0  0  0
    6.8960    3.4885   22.2459 C   0  0  0  0  0  0  0  0  0  0  0  0
    5.8138    3.3069   22.2466 H   0  0  0  0  0  0  0  0  0  0  0  0
    7.0756    4.1948   21.4266 H   0  0  0  0  0  0  0  0  0  0  0  0
    7.3329    4.1460   23.5880 C   0  0  0  0  0  0  0  0  0  0  0  0
    7.2709    5.2406   23.4854 H   0  0  0  0  0  0  0  0  0  0  0  0
    6.6659    3.8455   24.4008 H   0  0  0  0  0  0  0  0  0  0  0  0
    8.6376    3.7594   24.0303 O   0  0  0  0  0  0  0  0  0  0  0  0
    9.5502    3.5500   22.9653 C   0  0  0  0  0  0  0  0  0  0  0  0
   10.5006    3.2660   23.4257 H   0  0  0  0  0  0  0  0  0  0  0  0
    9.7249    4.4946   22.4267 H   0  0  0  0  0  0  0  0  0  0  0  0
    9.0639    2.4572   21.9619 C   0  0  0  0  0  0  0  0  0  0  0  0
    9.5673    1.5036   22.1649 H   0  0  0  0  0  0  0  0  0  0  0  0
    9.3860    2.7542   20.9556 H   0  0  0  0  0  0  0  0  0  0  0  0
    9.3469   -1.2864   24.0338 C   0  0  0  0  0  0  0  0  0  0  0  0
    9.9795   -0.3974   24.1519 H   0  0  0  0  0  0  0  0  0  0  0  0
    8.8247   -1.4204   24.9792 H   0  0  0  0  0  0  0  0  0  0  0  0
   10.1664   -2.5378   23.6050 C   0  0  0  0  0  0  0  0  0  0  0  0
   11.2032   -2.2712   23.4656 H   0  0  0  0  0  0  0  0  0  0  0  0
   10.1176   -3.3379   24.3415 H   0  0  0  0  0  0  0  0  0  0  0  0
    9.6270   -2.9841   22.2234 C   0  0  0  0  0  0  0  0  0  0  0  0
   10.3896   -2.9274   21.4471 H   0  0  0  0  0  0  0  0  0  0  0  0
    9.1609   -3.9721   22.2060 H   0  0  0  0  0  0  0  0  0  0  0  0
    5.4069    0.6578   20.1071 C   0  0  0  0  0  0  0  0  0  0  0  0
    4.9563    0.6408   21.0982 H   0  0  0  0  0  0  0  0  0  0  0  0
    4.7780    1.3128   19.0517 C   0  0  0  0  0  0  0  0  0  0  0  0
    3.8431    1.8422   19.1960 H   0  0  0  0  0  0  0  0  0  0  0  0
  1  2  1  0
  2  3  2  0
  3  4  1  0
  4  5  1  0
  4  6  2  0
  6  7  1  0
  7  8  2  0
  8  9  1  0
  9 10  1  0
 10 11  2  0
 11 12  1  0
 12 13  1  0
 12 14  1  0
 12 15  1  0
 15 16  1  0
 16 17  1  0
 16 18  1  0
 16 19  1  0
 19 20  1  0
 19 21  1  0
 19 22  1  0
 22 23  1  0
 23 24  1  0
 23 25  1  0
 23 26  1  0
 26 27  1  0
 26 28  1  0
 10 29  1  0
 29 30  1  0
 29 31  1  0
 29 32  1  0
 32 33  1  0
 32 34  1  0
 32 35  1  0
 35 36  1  0
 35 37  1  0
  6 38  1  0
 38 39  1  0
 38 40  2  0
 40 41  1  0
 40  2  1  0
 11  7  1  0
 26 15  1  0
 35  9  1  0
M  END
>  <cnnaffinity>  (1) 
-5.26616

>  <filename>  (1) 
c1cncc(-c2nn3c(c2CN2CCOCC2)CCC3)c1

$$$$
