
     RDKit          3D

 41 44  0  0  0  0  0  0  0  0999 V2000
    4.9649    1.2266   19.1883 C   0  0  0  0  0  0  0  0  0  0  0  0
    5.5548    1.2232   17.9196 C   0  0  0  0  0  0  0  0  0  0  0  0
    6.7137    0.5955   17.6616 N   0  0  0  0  0  0  0  0  0  0  0  0
    7.3352   -0.0240   18.6762 C   0  0  0  0  0  0  0  0  0  0  0  0
    6.8472   -0.0510   19.9944 C   0  0  0  0  0  0  0  0  0  0  0  0
    7.5108   -0.7474   21.0564 N   0  0  0  0  0  0  0  0  0  0  0  0
    6.8143   -1.6994   21.7393 N   0  0  0  0  0  0  0  0  0  0  0  0
    7.6989   -2.1482   22.6072 C   0  0  0  0  0  0  0  0  0  0  0  0
    7.3954   -3.1556   23.6694 C   0  0  0  0  0  0  0  0  0  0  0  0
    6.3283   -2.6973   24.6922 C   0  0  0  0  0  0  0  0  0  0  0  0
    5.8241   -3.9944   25.3548 C   0  0  0  0  0  0  0  0  0  0  0  0
    6.2188   -5.1536   24.4009 C   0  0  0  0  0  0  0  0  0  0  0  0
    6.8488   -4.5001   23.1563 C   0  0  0  0  0  0  0  0  0  0  0  0
    7.6360   -5.1172   22.7032 H   0  0  0  0  0  0  0  0  0  0  0  0
    6.0911   -4.3092   22.3842 H   0  0  0  0  0  0  0  0  0  0  0  0
    6.9484   -5.8074   24.8949 H   0  0  0  0  0  0  0  0  0  0  0  0
    5.3600   -5.7810   24.1355 H   0  0  0  0  0  0  0  0  0  0  0  0
    6.2871   -4.1358   26.3393 H   0  0  0  0  0  0  0  0  0  0  0  0
    4.7411   -3.9526   25.5218 H   0  0  0  0  0  0  0  0  0  0  0  0
    5.5097   -2.2031   24.1583 H   0  0  0  0  0  0  0  0  0  0  0  0
    6.7272   -1.9712   25.4123 H   0  0  0  0  0  0  0  0  0  0  0  0
    8.3493   -3.3130   24.1868 H   0  0  0  0  0  0  0  0  0  0  0  0
    8.9220   -1.5675   22.5314 N   0  0  0  0  0  0  0  0  0  0  0  0
    8.7683   -0.6592   21.5911 C   0  0  0  0  0  0  0  0  0  0  0  0
    9.7347    0.4550   21.3254 C   0  0  0  0  0  0  0  0  0  0  0  0
    9.2307    1.7577   21.8808 C   0  0  0  0  0  0  0  0  0  0  0  0
    8.4186    2.6257   21.2226 C   0  0  0  0  0  0  0  0  0  0  0  0
    8.0433    3.6138   22.0966 N   0  0  0  0  0  0  0  0  0  0  0  0
    8.6151    3.3667   23.3168 C   0  0  0  0  0  0  0  0  0  0  0  0
    9.3608    2.2179   23.2176 C   0  0  0  0  0  0  0  0  0  0  0  0
    9.9567    1.7499   23.9947 H   0  0  0  0  0  0  0  0  0  0  0  0
    8.3993    4.0078   24.1565 H   0  0  0  0  0  0  0  0  0  0  0  0
    7.5420    4.4531   21.8530 H   0  0  0  0  0  0  0  0  0  0  0  0
    8.0954    2.5359   20.2013 H   0  0  0  0  0  0  0  0  0  0  0  0
    9.8656    0.5523   20.2493 H   0  0  0  0  0  0  0  0  0  0  0  0
   10.6932    0.1795   21.7798 H   0  0  0  0  0  0  0  0  0  0  0  0
    5.6184    0.5781   20.2423 C   0  0  0  0  0  0  0  0  0  0  0  0
    5.1884    0.5395   21.2417 H   0  0  0  0  0  0  0  0  0  0  0  0
    8.2520   -0.5495   18.4122 H   0  0  0  0  0  0  0  0  0  0  0  0
    5.0766    1.7347   17.0827 H   0  0  0  0  0  0  0  0  0  0  0  0
    4.0171    1.7393   19.3391 H   0  0  0  0  0  0  0  0  0  0  0  0
  1  2  2  0
  2  3  1  0
  3  4  2  0
  4  5  1  0
  5  6  1  0
  6  7  1  0
  7  8  2  0
  8  9  1  0
  9 10  1  0
 10 11  1  0
 11 12  1  0
 12 13  1  0
 13 14  1  0
 13 15  1  0
 12 16  1  0
 12 17  1  0
 11 18  1  0
 11 19  1  0
 10 20  1  0
 10 21  1  0
  9 22  1  0
  8 23  1  0
 23 24  2  0
 24 25  1  0
 25 26  1  0
 26 27  2  0
 27 28  1  0
 28 29  1  0
 29 30  2  0
 30 31  1  0
 29 32  1  0
 28 33  1  0
 27 34  1  0
 25 35  1  0
 25 36  1  0
  5 37  2  0
 37 38  1  0
  4 39  1  0
  2 40  1  0
  1 41  1  0
 37  1  1  0
 24  6  1  0
 30 26  1  0
 13  9  1  0
M  END
>  <cnnaffinity>  (1) 
-6.25347

>  <filename>  (1) 
c1cncc(-n2nc(C3CCCC3)nc2Cc2cc[nH]c2)c1

$$$$
