
     RDKit          3D

 31 34  0  0  0  0  0  0  0  0999 V2000
    9.2802   -3.3424   21.2584 H   0  0  0  0  0  0  0  0  0  0  0  0
    8.7382   -2.4473   21.5488 C   0  0  0  0  0  0  0  0  0  0  0  0
    8.7478   -2.1237   22.8422 N   0  0  0  0  0  0  0  0  0  0  0  0
    8.0707   -1.0138   23.1923 C   0  0  0  0  0  0  0  0  0  0  0  0
    8.0379   -0.5401   24.6275 C   0  0  0  0  0  0  0  0  0  0  0  0
    7.3948    0.5017   25.0610 N   0  0  0  0  0  0  0  0  0  0  0  0
    7.7139    0.5689   26.4100 C   0  0  0  0  0  0  0  0  0  0  0  0
    7.3306    1.4597   27.4277 C   0  0  0  0  0  0  0  0  0  0  0  0
    6.6313    2.2626   27.2177 H   0  0  0  0  0  0  0  0  0  0  0  0
    7.8532    1.2367   28.7046 C   0  0  0  0  0  0  0  0  0  0  0  0
    7.5438    1.8554   29.5361 H   0  0  0  0  0  0  0  0  0  0  0  0
    8.7812    0.2031   28.9502 C   0  0  0  0  0  0  0  0  0  0  0  0
    9.1741    0.0994   29.9530 H   0  0  0  0  0  0  0  0  0  0  0  0
    9.1871   -0.6742   27.9383 C   0  0  0  0  0  0  0  0  0  0  0  0
    9.9090   -1.4752   28.0510 H   0  0  0  0  0  0  0  0  0  0  0  0
    8.5925   -0.4787   26.7003 C   0  0  0  0  0  0  0  0  0  0  0  0
    8.7644   -1.2095   25.5686 O   0  0  0  0  0  0  0  0  0  0  0  0
    7.3762   -0.2617   22.2533 C   0  0  0  0  0  0  0  0  0  0  0  0
    6.8515    0.6453   22.5370 H   0  0  0  0  0  0  0  0  0  0  0  0
    7.4055   -0.7134   20.9399 C   0  0  0  0  0  0  0  0  0  0  0  0
    6.6468   -0.0142   19.8943 C   0  0  0  0  0  0  0  0  0  0  0  0
    7.1694    0.0309   18.5944 C   0  0  0  0  0  0  0  0  0  0  0  0
    8.1191   -0.4484   18.3655 H   0  0  0  0  0  0  0  0  0  0  0  0
    6.5750    0.6631   17.5808 N   0  0  0  0  0  0  0  0  0  0  0  0
    5.4161    1.2859   17.8375 C   0  0  0  0  0  0  0  0  0  0  0  0
    4.9623    1.8010   16.9951 H   0  0  0  0  0  0  0  0  0  0  0  0
    4.8031    1.2964   19.0965 C   0  0  0  0  0  0  0  0  0  0  0  0
    3.8739    1.8372   19.2415 H   0  0  0  0  0  0  0  0  0  0  0  0
    5.4299    0.6363   20.1503 C   0  0  0  0  0  0  0  0  0  0  0  0
    4.9884    0.6316   21.1519 H   0  0  0  0  0  0  0  0  0  0  0  0
    8.1206   -1.7763   20.5762 N   0  0  0  0  0  0  0  0  0  0  0  0
  1  2  1  0
  2  3  2  0
  3  4  1  0
  4  5  1  0
  5  6  2  0
  6  7  1  0
  7  8  2  0
  8  9  1  0
  8 10  1  0
 10 11  1  0
 10 12  2  0
 12 13  1  0
 12 14  1  0
 14 15  1  0
 14 16  2  0
 16 17  1  0
  4 18  2  0
 18 19  1  0
 18 20  1  0
 20 21  1  0
 21 22  2  0
 22 23  1  0
 22 24  1  0
 24 25  2  0
 25 26  1  0
 25 27  1  0
 27 28  1  0
 27 29  2  0
 29 30  1  0
 20 31  2  0
 31  2  1  0
 17  5  1  0
 29 21  1  0
 16  7  1  0
M  END
>  <cnnaffinity>  (1) 
-4.87893

>  <filename>  (1) 
c1cncc(-c2cc(-c3nc4ccccc4o3)ncn2)c1

$$$$
