
     RDKit          3D

 33 35  0  0  0  0  0  0  0  0999 V2000
    4.9142    1.7866   16.9943 H   0  0  0  0  0  0  0  0  0  0  0  0
    5.3968    1.2968   17.8378 C   0  0  0  0  0  0  0  0  0  0  0  0
    6.5603    0.6811   17.5732 N   0  0  0  0  0  0  0  0  0  0  0  0
    7.1727    0.0586   18.5916 C   0  0  0  0  0  0  0  0  0  0  0  0
    8.1207   -0.4288   18.3738 H   0  0  0  0  0  0  0  0  0  0  0  0
    6.6660   -0.0148   19.9142 C   0  0  0  0  0  0  0  0  0  0  0  0
    7.3328   -0.7112   20.9340 N   0  0  0  0  0  0  0  0  0  0  0  0
    6.7687   -1.1328   21.6593 H   0  0  0  0  0  0  0  0  0  0  0  0
    8.7189   -0.7327   21.1310 C   0  0  0  0  0  0  0  0  0  0  0  0
    9.6862    0.1837   20.6651 C   0  0  0  0  0  0  0  0  0  0  0  0
    9.5012    1.0411   20.0421 H   0  0  0  0  0  0  0  0  0  0  0  0
   10.9112   -0.1172   21.0814 N   0  0  0  0  0  0  0  0  0  0  0  0
   10.7329   -1.2325   21.7993 N   0  0  0  0  0  0  0  0  0  0  0  0
   11.5293   -1.6579   22.2434 H   0  0  0  0  0  0  0  0  0  0  0  0
    9.4446   -1.6534   21.8699 C   0  0  0  0  0  0  0  0  0  0  0  0
    8.9918   -2.8196   22.6710 C   0  0  0  0  0  0  0  0  0  0  0  0
    9.8755   -3.3836   23.0019 H   0  0  0  0  0  0  0  0  0  0  0  0
    8.1897   -2.3802   23.9219 C   0  0  0  0  0  0  0  0  0  0  0  0
    7.7089   -1.4077   23.7540 H   0  0  0  0  0  0  0  0  0  0  0  0
    8.8487   -2.2456   24.7864 H   0  0  0  0  0  0  0  0  0  0  0  0
    7.1406   -3.4744   24.1363 C   0  0  0  0  0  0  0  0  0  0  0  0
    7.5657   -4.2806   24.7466 H   0  0  0  0  0  0  0  0  0  0  0  0
    6.2563   -3.0994   24.6622 H   0  0  0  0  0  0  0  0  0  0  0  0
    6.8004   -3.9916   22.7296 C   0  0  0  0  0  0  0  0  0  0  0  0
    6.5059   -5.0454   22.7443 H   0  0  0  0  0  0  0  0  0  0  0  0
    5.9550   -3.4386   22.3030 H   0  0  0  0  0  0  0  0  0  0  0  0
    8.0638   -3.7766   21.8749 C   0  0  0  0  0  0  0  0  0  0  0  0
    7.8133   -3.3760   20.8892 H   0  0  0  0  0  0  0  0  0  0  0  0
    8.5735   -4.7256   21.6944 H   0  0  0  0  0  0  0  0  0  0  0  0
    5.4431    0.6293   20.1639 C   0  0  0  0  0  0  0  0  0  0  0  0
    5.0191    0.6228   21.1687 H   0  0  0  0  0  0  0  0  0  0  0  0
    4.8129    1.3041   19.1096 C   0  0  0  0  0  0  0  0  0  0  0  0
    3.8827    1.8370   19.2638 H   0  0  0  0  0  0  0  0  0  0  0  0
  1  2  1  0
  2  3  2  0
  3  4  1  0
  4  5  1  0
  4  6  2  0
  6  7  1  0
  7  8  1  0
  7  9  1  0
  9 10  1  0
 10 11  1  0
 10 12  2  0
 12 13  1  0
 13 14  1  0
 13 15  1  0
 15 16  1  0
 16 17  1  0
 16 18  1  0
 18 19  1  0
 18 20  1  0
 18 21  1  0
 21 22  1  0
 21 23  1  0
 21 24  1  0
 24 25  1  0
 24 26  1  0
 24 27  1  0
 27 28  1  0
 27 29  1  0
  6 30  1  0
 30 31  1  0
 30 32  2  0
 32 33  1  0
 32  2  1  0
 15  9  2  0
 27 16  1  0
M  END
>  <cnnaffinity>  (1) 
-5.27657

>  <filename>  (1) 
c1cncc(Nc2cn[nH]c2C2CCCC2)c1

$$$$
