
     RDKit          3D

 45 48  0  0  0  0  0  0  0  0999 V2000
    4.9169    1.7818   16.9976 H   0  0  0  0  0  0  0  0  0  0  0  0
    5.4039    1.2915   17.8396 C   0  0  0  0  0  0  0  0  0  0  0  0
    6.5687    0.6762   17.5865 N   0  0  0  0  0  0  0  0  0  0  0  0
    7.1826    0.0588   18.6083 C   0  0  0  0  0  0  0  0  0  0  0  0
    8.1227   -0.4251   18.3586 H   0  0  0  0  0  0  0  0  0  0  0  0
    6.6923   -0.0122   19.9466 C   0  0  0  0  0  0  0  0  0  0  0  0
    7.2996   -0.7753   20.9603 N   0  0  0  0  0  0  0  0  0  0  0  0
    7.2222   -0.4060   22.3812 C   0  0  1  0  0  0  0  0  0  0  0  0
    6.1844   -0.2334   22.6805 H   0  0  0  0  0  0  0  0  0  0  0  0
    7.7800   -1.6682   23.0709 C   0  0  0  0  0  0  0  0  0  0  0  0
    8.2974   -1.4113   23.9991 H   0  0  0  0  0  0  0  0  0  0  0  0
    6.9657   -2.3498   23.3218 H   0  0  0  0  0  0  0  0  0  0  0  0
    8.7210   -2.2993   22.0298 C   0  0  0  0  0  0  0  0  0  0  0  0
    8.3743   -3.2896   21.7283 H   0  0  0  0  0  0  0  0  0  0  0  0
    9.7483   -2.4041   22.3917 H   0  0  0  0  0  0  0  0  0  0  0  0
    8.6543   -1.3296   20.8433 C   0  0  2  0  0  0  0  0  0  0  0  0
    8.7651   -1.8480   19.8946 H   0  0  0  0  0  0  0  0  0  0  0  0
    9.7254   -0.2299   20.9142 C   0  0  0  0  0  0  0  0  0  0  0  0
   10.6928   -0.7064   21.1305 H   0  0  0  0  0  0  0  0  0  0  0  0
    9.7933    0.1637   19.9001 H   0  0  0  0  0  0  0  0  0  0  0  0
    9.4162    0.9624   21.8760 C   0  0  2  0  0  0  0  0  0  0  0  0
    9.2673    1.8173   21.2021 H   0  0  0  0  0  0  0  0  0  0  0  0
   10.6047    1.3530   22.7953 C   0  0  0  0  0  0  0  0  0  0  0  0
   10.2562    2.2100   23.3962 H   0  0  0  0  0  0  0  0  0  0  0  0
   11.8253    1.8557   21.9972 C   0  0  0  0  0  0  0  0  0  0  0  0
   12.1716    1.0646   21.3261 H   0  0  0  0  0  0  0  0  0  0  0  0
   11.5410    2.7039   21.3629 H   0  0  0  0  0  0  0  0  0  0  0  0
   12.9716    2.2647   22.9219 C   0  0  0  0  0  0  0  0  0  0  0  0
   13.8476    2.5640   22.3435 H   0  0  0  0  0  0  0  0  0  0  0  0
   12.6562    3.1582   23.4959 H   0  0  0  0  0  0  0  0  0  0  0  0
   13.3445    1.1456   23.7873 N   0  0  0  0  0  0  0  0  0  0  0  0
   14.1203    1.4378   24.3704 H   0  0  0  0  0  0  0  0  0  0  0  0
   12.2317    0.7358   24.6432 C   0  0  0  0  0  0  0  0  0  0  0  0
   12.5711   -0.0719   25.3004 H   0  0  0  0  0  0  0  0  0  0  0  0
   11.8801    1.5637   25.2891 H   0  0  0  0  0  0  0  0  0  0  0  0
   11.0529    0.2625   23.7901 C   0  0  0  0  0  0  0  0  0  0  0  0
   11.3542   -0.6447   23.2514 H   0  0  0  0  0  0  0  0  0  0  0  0
   10.2268   -0.0234   24.4507 H   0  0  0  0  0  0  0  0  0  0  0  0
    8.0669    0.8568   22.6715 C   0  0  0  0  0  0  0  0  0  0  0  0
    8.2351    0.9094   23.7556 H   0  0  0  0  0  0  0  0  0  0  0  0
    7.4536    1.7336   22.4324 H   0  0  0  0  0  0  0  0  0  0  0  0
    5.4635    0.6487   20.1724 C   0  0  0  0  0  0  0  0  0  0  0  0
    5.0084    0.6264   21.1605 H   0  0  0  0  0  0  0  0  0  0  0  0
    4.8260    1.3025   19.1120 C   0  0  0  0  0  0  0  0  0  0  0  0
    3.8899    1.8297   19.2666 H   0  0  0  0  0  0  0  0  0  0  0  0
  1  2  1  0
  2  3  2  0
  3  4  1  0
  4  5  1  0
  4  6  2  0
  6  7  1  0
  7  8  1  0
  8  9  1  1
  8 10  1  0
 10 11  1  0
 10 12  1  0
 10 13  1  0
 13 14  1  0
 13 15  1  0
 13 16  1  0
 16 17  1  6
 16 18  1  0
 18 19  1  0
 18 20  1  0
 18 21  1  0
 21 22  1  6
 21 23  1  0
 23 24  1  0
 23 25  1  0
 25 26  1  0
 25 27  1  0
 25 28  1  0
 28 29  1  0
 28 30  1  0
 28 31  1  0
 31 32  1  0
 31 33  1  0
 33 34  1  0
 33 35  1  0
 33 36  1  0
 36 37  1  0
 36 38  1  0
 21 39  1  0
 39 40  1  0
 39 41  1  0
  6 42  1  0
 42 43  1  0
 42 44  2  0
 44 45  1  0
 44  2  1  0
 16  7  1  0
 36 23  1  0
 39  8  1  0
M  END
>  <cnnaffinity>  (1) 
-5.1944

>  <filename>  (1) 
c1cncc(N2[C@@H]3CC[C@H]2C[C@@H](C2CCNCC2)C3)c1

$$$$
