
     RDKit          3D

 39 41  0  0  0  0  0  0  0  0999 V2000
    4.9248    1.7823   16.9945 H   0  0  0  0  0  0  0  0  0  0  0  0
    5.4058    1.2901   17.8377 C   0  0  0  0  0  0  0  0  0  0  0  0
    6.5650    0.6687   17.5818 N   0  0  0  0  0  0  0  0  0  0  0  0
    7.1558    0.0362   18.6046 C   0  0  0  0  0  0  0  0  0  0  0  0
    8.1152   -0.4249   18.3746 H   0  0  0  0  0  0  0  0  0  0  0  0
    6.6443   -0.0280   19.9075 C   0  0  0  0  0  0  0  0  0  0  0  0
    7.3489   -0.8195   20.9804 C   0  0  0  0  0  0  0  0  0  0  0  0
    6.8113   -2.1795   20.9508 N   0  0  0  0  0  0  0  0  0  0  0  0
    6.9052   -2.5355   20.0074 H   0  0  0  0  0  0  0  0  0  0  0  0
    7.2761   -3.1563   21.9380 C   0  0  0  0  0  0  0  0  0  0  0  0
    8.0040   -2.6832   22.6155 H   0  0  0  0  0  0  0  0  0  0  0  0
    7.9819   -4.3490   21.2790 C   0  0  0  0  0  0  0  0  0  0  0  0
    7.2991   -4.8219   20.5610 H   0  0  0  0  0  0  0  0  0  0  0  0
    8.8262   -3.9622   20.7064 H   0  0  0  0  0  0  0  0  0  0  0  0
    8.4451   -5.3833   22.3084 C   0  0  0  0  0  0  0  0  0  0  0  0
    9.2095   -4.9399   22.9616 H   0  0  0  0  0  0  0  0  0  0  0  0
    8.9264   -6.2396   21.8270 H   0  0  0  0  0  0  0  0  0  0  0  0
    7.2824   -5.8556   23.1777 C   0  0  0  0  0  0  0  0  0  0  0  0
    7.6807   -6.5184   23.9434 H   0  0  0  0  0  0  0  0  0  0  0  0
    6.5763   -6.4296   22.5618 H   0  0  0  0  0  0  0  0  0  0  0  0
    6.5472   -4.6838   23.8355 C   0  0  0  0  0  0  0  0  0  0  0  0
    7.2188   -4.2068   24.5640 H   0  0  0  0  0  0  0  0  0  0  0  0
    5.6864   -5.0457   24.4089 H   0  0  0  0  0  0  0  0  0  0  0  0
    6.1035   -3.6486   22.7955 C   0  0  0  0  0  0  0  0  0  0  0  0
    5.6270   -2.7921   23.2809 H   0  0  0  0  0  0  0  0  0  0  0  0
    5.3530   -4.0851   22.1264 H   0  0  0  0  0  0  0  0  0  0  0  0
    7.3301   -0.1410   22.3797 C   0  0  0  0  0  0  0  0  0  0  0  0
    6.8727    0.8498   22.3725 H   0  0  0  0  0  0  0  0  0  0  0  0
    6.8454   -0.7291   23.1639 H   0  0  0  0  0  0  0  0  0  0  0  0
    8.8746   -0.0937   22.3971 C   0  0  0  0  0  0  0  0  0  0  0  0
    9.2970    0.9133   22.4568 H   0  0  0  0  0  0  0  0  0  0  0  0
    9.3364   -0.7068   23.1773 H   0  0  0  0  0  0  0  0  0  0  0  0
    8.9063   -0.7141   20.9812 C   0  0  0  0  0  0  0  0  0  0  0  0
    9.3086   -0.0490   20.2165 H   0  0  0  0  0  0  0  0  0  0  0  0
    9.4147   -1.6795   20.8968 H   0  0  0  0  0  0  0  0  0  0  0  0
    5.4334    0.6388   20.1525 C   0  0  0  0  0  0  0  0  0  0  0  0
    5.0037    0.6325   21.1584 H   0  0  0  0  0  0  0  0  0  0  0  0
    4.8058    1.3072   19.1027 C   0  0  0  0  0  0  0  0  0  0  0  0
    3.8775    1.8451   19.2571 H   0  0  0  0  0  0  0  0  0  0  0  0
  1  2  1  0
  2  3  2  0
  3  4  1  0
  4  5  1  0
  4  6  2  0
  6  7  1  0
  7  8  1  0
  8  9  1  0
  8 10  1  0
 10 11  1  0
 10 12  1  0
 12 13  1  0
 12 14  1  0
 12 15  1  0
 15 16  1  0
 15 17  1  0
 15 18  1  0
 18 19  1  0
 18 20  1  0
 18 21  1  0
 21 22  1  0
 21 23  1  0
 21 24  1  0
 24 25  1  0
 24 26  1  0
  7 27  1  0
 27 28  1  0
 27 29  1  0
 27 30  1  0
 30 31  1  0
 30 32  1  0
 30 33  1  0
 33 34  1  0
 33 35  1  0
  6 36  1  0
 36 37  1  0
 36 38  2  0
 38 39  1  0
 38  2  1  0
 33  7  1  0
 24 10  1  0
M  END
>  <cnnaffinity>  (1) 
-4.59226

>  <filename>  (1) 
c1cncc(C2(NC3CCCCC3)CCC2)c1

$$$$
