
     RDKit          3D

 41 43  0  0  0  0  0  0  0  0999 V2000
    4.9070    1.8564   16.9922 H   0  0  0  0  0  0  0  0  0  0  0  0
    5.3966    1.3338   17.8113 C   0  0  0  0  0  0  0  0  0  0  0  0
    6.5537    0.7184   17.5199 N   0  0  0  0  0  0  0  0  0  0  0  0
    7.1704    0.0624   18.5120 C   0  0  0  0  0  0  0  0  0  0  0  0
    8.1167   -0.4167   18.2597 H   0  0  0  0  0  0  0  0  0  0  0  0
    6.6712   -0.0556   19.8363 C   0  0  0  0  0  0  0  0  0  0  0  0
    7.3786   -0.8301   20.7969 N   0  0  0  0  0  0  0  0  0  0  0  0
    6.6420   -1.5730   21.8280 C   0  0  0  0  0  0  0  0  0  0  0  0
    5.7559   -2.0349   21.3781 H   0  0  0  0  0  0  0  0  0  0  0  0
    6.3054   -0.9311   22.6614 H   0  0  0  0  0  0  0  0  0  0  0  0
    7.5500   -2.6822   22.3751 C   0  0  0  0  0  0  0  0  0  0  0  0
    7.7479   -3.4145   21.5759 H   0  0  0  0  0  0  0  0  0  0  0  0
    7.0795   -3.2123   23.2076 H   0  0  0  0  0  0  0  0  0  0  0  0
    8.7710   -2.1587   22.8792 O   0  0  0  0  0  0  0  0  0  0  0  0
    9.4913   -1.4498   21.8762 C   0  0  0  0  0  0  0  0  0  0  0  0
   10.3974   -1.0735   22.3583 H   0  0  0  0  0  0  0  0  0  0  0  0
    9.7817   -2.1291   21.0612 H   0  0  0  0  0  0  0  0  0  0  0  0
    8.6741   -0.2937   21.2806 C   0  0  2  0  0  0  0  0  0  0  0  0
    9.2235    0.0778   20.4085 H   0  0  0  0  0  0  0  0  0  0  0  0
    8.5631    0.8789   22.2874 C   0  0  0  0  0  0  0  0  0  0  0  0
    7.8490    1.6239   21.8908 H   0  0  0  0  0  0  0  0  0  0  0  0
    8.1147    0.5043   23.2174 H   0  0  0  0  0  0  0  0  0  0  0  0
    9.8940    1.4421   22.5615 N   0  0  0  0  0  0  0  0  0  0  0  0
   10.2998    2.4750   21.5909 C   0  0  0  0  0  0  0  0  0  0  0  0
   10.2911    2.0502   20.5874 H   0  0  0  0  0  0  0  0  0  0  0  0
    9.5769    3.3104   21.6061 H   0  0  0  0  0  0  0  0  0  0  0  0
   11.7157    3.0400   21.8554 C   0  0  0  0  0  0  0  0  0  0  0  0
   11.9551    3.8273   21.1355 H   0  0  0  0  0  0  0  0  0  0  0  0
   12.4480    2.2415   21.6839 H   0  0  0  0  0  0  0  0  0  0  0  0
   11.9483    3.5234   23.2278 N   0  0  0  0  0  0  0  0  0  0  0  0
   11.3811    4.3591   23.3932 H   0  0  0  0  0  0  0  0  0  0  0  0
   11.5265    2.4266   24.1175 C   0  0  0  0  0  0  0  0  0  0  0  0
   12.1687    1.5793   23.8739 H   0  0  0  0  0  0  0  0  0  0  0  0
   11.7598    2.6568   25.1544 H   0  0  0  0  0  0  0  0  0  0  0  0
   10.0660    1.9729   23.9223 C   0  0  0  0  0  0  0  0  0  0  0  0
    9.8273    1.1853   24.6458 H   0  0  0  0  0  0  0  0  0  0  0  0
    9.3896    2.8317   24.1170 H   0  0  0  0  0  0  0  0  0  0  0  0
    5.4600    0.6089   20.1130 C   0  0  0  0  0  0  0  0  0  0  0  0
    5.0609    0.5899   21.1261 H   0  0  0  0  0  0  0  0  0  0  0  0
    4.8165    1.3088   19.0839 C   0  0  0  0  0  0  0  0  0  0  0  0
    3.8834    1.8374   19.2583 H   0  0  0  0  0  0  0  0  0  0  0  0
  1  2  1  0
  2  3  2  0
  3  4  1  0
  4  5  1  0
  4  6  2  0
  6  7  1  0
  7  8  1  0
  8  9  1  0
  8 10  1  0
  8 11  1  0
 11 12  1  0
 11 13  1  0
 11 14  1  0
 14 15  1  0
 15 16  1  0
 15 17  1  0
 15 18  1  0
 18 19  1  6
 18 20  1  0
 20 21  1  0
 20 22  1  0
 20 23  1  0
 23 24  1  0
 24 25  1  0
 24 26  1  0
 24 27  1  0
 27 28  1  0
 27 29  1  0
 27 30  1  0
 30 31  1  0
 30 32  1  0
 32 33  1  0
 32 34  1  0
 32 35  1  0
 35 36  1  0
 35 37  1  0
  6 38  1  0
 38 39  1  0
 38 40  2  0
 40 41  1  0
 40  2  1  0
 18  7  1  0
 35 23  1  0
M  END
>  <cnnaffinity>  (1) 
-4.59141

>  <filename>  (1) 
c1cncc(N2CCOC[C@@H]2CN2CCNCC2)c1

$$$$
