
     RDKit          3D

 41 44  0  0  0  0  0  0  0  0999 V2000
    4.8131    1.3078   19.1089 C   0  0  0  0  0  0  0  0  0  0  0  0
    5.4030    1.2931   17.8398 C   0  0  0  0  0  0  0  0  0  0  0  0
    6.5583    0.6623   17.5820 N   0  0  0  0  0  0  0  0  0  0  0  0
    7.1690    0.0397   18.5968 C   0  0  0  0  0  0  0  0  0  0  0  0
    6.6619   -0.0048   19.9079 C   0  0  0  0  0  0  0  0  0  0  0  0
    7.3605   -0.6747   20.9575 N   0  0  0  0  0  0  0  0  0  0  0  0
    6.7497   -1.6215   21.7242 N   0  0  0  0  0  0  0  0  0  0  0  0
    7.6881   -1.9645   22.5768 C   0  0  0  0  0  0  0  0  0  0  0  0
    7.4409   -2.9296   23.6854 C   0  0  0  0  0  0  0  0  0  0  0  0
    7.4060   -2.2503   25.0954 C   0  0  0  0  0  0  0  0  0  0  0  0
    8.8461   -3.2202   25.6569 S   0  0  0  0  0  0  0  0  0  0  0  0
    8.6288   -3.8911   23.9726 C   0  0  0  0  0  0  0  0  0  0  0  0
    9.5154   -3.7564   23.3407 H   0  0  0  0  0  0  0  0  0  0  0  0
    8.3701   -4.9537   23.9622 H   0  0  0  0  0  0  0  0  0  0  0  0
    7.5860   -1.1661   25.1060 H   0  0  0  0  0  0  0  0  0  0  0  0
    6.4982   -2.4347   25.6787 H   0  0  0  0  0  0  0  0  0  0  0  0
    6.5056   -3.4463   23.4439 H   0  0  0  0  0  0  0  0  0  0  0  0
    8.8676   -1.3061   22.4306 N   0  0  0  0  0  0  0  0  0  0  0  0
    8.6289   -0.4832   21.4272 C   0  0  0  0  0  0  0  0  0  0  0  0
    9.5154    0.6177   20.9599 C   0  0  0  0  0  0  0  0  0  0  0  0
    9.0241    2.0099   21.4016 C   0  0  0  0  0  0  0  0  0  0  0  0
    8.8995    2.1629   22.9335 C   0  0  0  0  0  0  0  0  0  0  0  0
   10.2282    1.9795   23.6309 C   0  0  0  0  0  0  0  0  0  0  0  0
   10.5946    0.9030   24.3805 C   0  0  0  0  0  0  0  0  0  0  0  0
   12.2554    0.9423   24.8224 S   0  0  0  0  0  0  0  0  0  0  0  0
   12.4920    2.4248   23.9858 C   0  0  0  0  0  0  0  0  0  0  0  0
   11.3343    2.8746   23.4334 C   0  0  0  0  0  0  0  0  0  0  0  0
   11.2500    3.8065   22.8781 H   0  0  0  0  0  0  0  0  0  0  0  0
   13.4871    2.8560   23.9077 H   0  0  0  0  0  0  0  0  0  0  0  0
    9.9906    0.0305   24.6086 H   0  0  0  0  0  0  0  0  0  0  0  0
    8.1721    1.4347   23.3211 H   0  0  0  0  0  0  0  0  0  0  0  0
    8.5055    3.1613   23.1595 H   0  0  0  0  0  0  0  0  0  0  0  0
    9.7364    2.7513   21.0272 H   0  0  0  0  0  0  0  0  0  0  0  0
    8.0633    2.2310   20.9227 H   0  0  0  0  0  0  0  0  0  0  0  0
    9.5644    0.5672   19.8710 H   0  0  0  0  0  0  0  0  0  0  0  0
   10.5235    0.4215   21.3414 H   0  0  0  0  0  0  0  0  0  0  0  0
    5.4451    0.6378   20.1624 C   0  0  0  0  0  0  0  0  0  0  0  0
    5.0198    0.5971   21.1650 H   0  0  0  0  0  0  0  0  0  0  0  0
    8.1110   -0.4508   18.3560 H   0  0  0  0  0  0  0  0  0  0  0  0
    4.9356    1.8005   16.9976 H   0  0  0  0  0  0  0  0  0  0  0  0
    3.8789    1.8401   19.2560 H   0  0  0  0  0  0  0  0  0  0  0  0
  1  2  2  0
  2  3  1  0
  3  4  2  0
  4  5  1  0
  5  6  1  0
  6  7  1  0
  7  8  2  0
  8  9  1  0
  9 10  1  0
 10 11  1  0
 11 12  1  0
 12 13  1  0
 12 14  1  0
 10 15  1  0
 10 16  1  0
  9 17  1  0
  8 18  1  0
 18 19  2  0
 19 20  1  0
 20 21  1  0
 21 22  1  0
 22 23  1  0
 23 24  2  0
 24 25  1  0
 25 26  1  0
 26 27  2  0
 27 28  1  0
 26 29  1  0
 24 30  1  0
 22 31  1  0
 22 32  1  0
 21 33  1  0
 21 34  1  0
 20 35  1  0
 20 36  1  0
  5 37  2  0
 37 38  1  0
  4 39  1  0
  2 40  1  0
  1 41  1  0
 37  1  1  0
 19  6  1  0
 27 23  1  0
 12  9  1  0
M  END
>  <cnnaffinity>  (1) 
-6.25191

>  <filename>  (1) 
c1cncc(-n2nc(C3CSC3)nc2CCCc2ccsc2)c1

$$$$
