
     RDKit          3D

 30 31  0  0  0  0  0  0  0  0999 V2000
    4.9058    1.7730   17.0042 H   0  0  0  0  0  0  0  0  0  0  0  0
    5.4016    1.2921   17.8441 C   0  0  0  0  0  0  0  0  0  0  0  0
    6.5710    0.6827   17.5779 N   0  0  0  0  0  0  0  0  0  0  0  0
    7.1785    0.0607   18.5969 C   0  0  0  0  0  0  0  0  0  0  0  0
    8.1308   -0.4374   18.3782 H   0  0  0  0  0  0  0  0  0  0  0  0
    6.6479   -0.0080   19.8973 C   0  0  0  0  0  0  0  0  0  0  0  0
    7.5224   -0.8351   21.1868 S   0  0  0  0  0  0  0  0  0  0  0  0
    8.4880    0.6202   21.7047 C   0  0  0  0  0  0  0  0  0  0  0  0
    9.0877    0.9445   20.8489 H   0  0  0  0  0  0  0  0  0  0  0  0
    7.7950    1.4346   21.9473 H   0  0  0  0  0  0  0  0  0  0  0  0
    9.3749    0.2997   22.8987 C   0  0  0  0  0  0  0  0  0  0  0  0
    9.9591   -0.6029   22.6554 H   0  0  0  0  0  0  0  0  0  0  0  0
    8.5545    0.0152   24.1712 C   0  0  0  0  0  0  0  0  0  0  0  0
    7.8893    0.8686   24.3749 H   0  0  0  0  0  0  0  0  0  0  0  0
    7.9181   -0.8679   24.0310 H   0  0  0  0  0  0  0  0  0  0  0  0
    9.4681   -0.1837   25.3807 C   0  0  0  0  0  0  0  0  0  0  0  0
    8.8682   -0.3377   26.2868 H   0  0  0  0  0  0  0  0  0  0  0  0
   10.0609   -1.0998   25.2426 H   0  0  0  0  0  0  0  0  0  0  0  0
   10.3898    0.9379   25.5884 N   0  0  0  0  0  0  0  0  0  0  0  0
    9.8191    1.7705   25.7544 H   0  0  0  0  0  0  0  0  0  0  0  0
   11.2077    1.1901   24.3993 C   0  0  0  0  0  0  0  0  0  0  0  0
   11.8770    2.0371   24.5925 H   0  0  0  0  0  0  0  0  0  0  0  0
   11.8530    0.3143   24.2334 H   0  0  0  0  0  0  0  0  0  0  0  0
   10.3670    1.4497   23.1492 C   0  0  0  0  0  0  0  0  0  0  0  0
   11.0229    1.5846   22.2782 H   0  0  0  0  0  0  0  0  0  0  0  0
    9.8106    2.3891   23.2912 H   0  0  0  0  0  0  0  0  0  0  0  0
    5.4404    0.6494   20.1618 C   0  0  0  0  0  0  0  0  0  0  0  0
    5.0087    0.6273   21.1575 H   0  0  0  0  0  0  0  0  0  0  0  0
    4.8041    1.3116   19.1105 C   0  0  0  0  0  0  0  0  0  0  0  0
    3.8682    1.8474   19.2687 H   0  0  0  0  0  0  0  0  0  0  0  0
  1  2  1  0
  2  3  2  0
  3  4  1  0
  4  5  1  0
  4  6  2  0
  6  7  1  0
  7  8  1  0
  8  9  1  0
  8 10  1  0
  8 11  1  0
 11 12  1  0
 11 13  1  0
 13 14  1  0
 13 15  1  0
 13 16  1  0
 16 17  1  0
 16 18  1  0
 16 19  1  0
 19 20  1  0
 19 21  1  0
 21 22  1  0
 21 23  1  0
 21 24  1  0
 24 25  1  0
 24 26  1  0
  6 27  1  0
 27 28  1  0
 27 29  2  0
 29 30  1  0
 29  2  1  0
 24 11  1  0
M  END
>  <cnnaffinity>  (1) 
-4.26764

>  <filename>  (1) 
c1cncc(SCC2CCNCC2)c1

$$$$
