
     RDKit          3D

 35 37  0  0  0  0  0  0  0  0999 V2000
    4.9255    1.7829   16.9952 H   0  0  0  0  0  0  0  0  0  0  0  0
    5.4034    1.2928   17.8406 C   0  0  0  0  0  0  0  0  0  0  0  0
    6.5717    0.6764   17.5905 N   0  0  0  0  0  0  0  0  0  0  0  0
    7.1778    0.0472   18.5992 C   0  0  0  0  0  0  0  0  0  0  0  0
    8.1255   -0.4394   18.3776 H   0  0  0  0  0  0  0  0  0  0  0  0
    6.6507    0.0065   19.9008 C   0  0  0  0  0  0  0  0  0  0  0  0
    7.3593   -0.6602   20.9437 N   0  0  0  0  0  0  0  0  0  0  0  0
    7.8916   -1.8961   20.7384 N   0  0  0  0  0  0  0  0  0  0  0  0
    8.4120   -2.3024   21.8456 N   0  0  0  0  0  0  0  0  0  0  0  0
    8.2364   -1.3465   22.7994 C   0  0  0  0  0  0  0  0  0  0  0  0
    8.5846   -1.4625   23.8140 H   0  0  0  0  0  0  0  0  0  0  0  0
    7.5733   -0.2728   22.2423 C   0  0  0  0  0  0  0  0  0  0  0  0
    7.2013    0.9424   22.7703 N   0  0  0  0  0  0  0  0  0  0  0  0
    6.9939    1.6920   22.1294 H   0  0  0  0  0  0  0  0  0  0  0  0
    7.2549    1.2012   24.1978 C   0  0  0  0  0  0  0  0  0  0  0  0
    8.2166    0.8264   24.5861 H   0  0  0  0  0  0  0  0  0  0  0  0
    6.1326    0.4477   24.9298 C   0  0  0  0  0  0  0  0  0  0  0  0
    6.2377   -0.6257   24.7288 H   0  0  0  0  0  0  0  0  0  0  0  0
    5.1746    0.7519   24.4904 H   0  0  0  0  0  0  0  0  0  0  0  0
    6.1287    0.7433   26.4338 C   0  0  0  0  0  0  0  0  0  0  0  0
    5.2883    0.2303   26.9147 H   0  0  0  0  0  0  0  0  0  0  0  0
    7.0405    0.3297   26.8865 H   0  0  0  0  0  0  0  0  0  0  0  0
    6.0670    2.2538   26.7110 C   0  0  0  0  0  0  0  0  0  0  0  0
    6.1071    2.4470   27.7902 H   0  0  0  0  0  0  0  0  0  0  0  0
    5.0980    2.6403   26.3664 H   0  0  0  0  0  0  0  0  0  0  0  0
    7.1901    3.0099   25.9839 C   0  0  0  0  0  0  0  0  0  0  0  0
    7.1004    4.0879   26.1561 H   0  0  0  0  0  0  0  0  0  0  0  0
    8.1575    2.7131   26.4126 H   0  0  0  0  0  0  0  0  0  0  0  0
    7.1917    2.7068   24.4753 C   0  0  0  0  0  0  0  0  0  0  0  0
    6.2717    3.0982   24.0192 H   0  0  0  0  0  0  0  0  0  0  0  0
    8.0310    3.2096   23.9796 H   0  0  0  0  0  0  0  0  0  0  0  0
    5.4351    0.6466   20.1625 C   0  0  0  0  0  0  0  0  0  0  0  0
    5.0064    0.6231   21.1658 H   0  0  0  0  0  0  0  0  0  0  0  0
    4.8046    1.3045   19.1038 C   0  0  0  0  0  0  0  0  0  0  0  0
    3.8768    1.8395   19.2585 H   0  0  0  0  0  0  0  0  0  0  0  0
  1  2  1  0
  2  3  2  0
  3  4  1  0
  4  5  1  0
  4  6  2  0
  6  7  1  0
  7  8  1  0
  8  9  2  0
  9 10  1  0
 10 11  1  0
 10 12  2  0
 12 13  1  0
 13 14  1  0
 13 15  1  0
 15 16  1  0
 15 17  1  0
 17 18  1  0
 17 19  1  0
 17 20  1  0
 20 21  1  0
 20 22  1  0
 20 23  1  0
 23 24  1  0
 23 25  1  0
 23 26  1  0
 26 27  1  0
 26 28  1  0
 26 29  1  0
 29 30  1  0
 29 31  1  0
  6 32  1  0
 32 33  1  0
 32 34  2  0
 34 35  1  0
 34  2  1  0
 12  7  1  0
 29 15  1  0
M  END
>  <cnnaffinity>  (1) 
-5.11965

>  <filename>  (1) 
c1cncc(-n2nncc2NC2CCCCC2)c1

$$$$
