
     RDKit          3D

 48 51  0  0  0  0  0  0  0  0999 V2000
    4.7987    1.3142   19.0954 C   0  0  0  0  0  0  0  0  0  0  0  0
    5.3957    1.2998   17.8293 C   0  0  0  0  0  0  0  0  0  0  0  0
    6.5595    0.6883   17.5634 N   0  0  0  0  0  0  0  0  0  0  0  0
    7.1597    0.0615   18.5848 C   0  0  0  0  0  0  0  0  0  0  0  0
    6.6429   -0.0096   19.8878 C   0  0  0  0  0  0  0  0  0  0  0  0
    7.4061   -0.6738   20.9961 C   0  0  0  0  0  0  0  0  0  0  0  0
    8.3030    0.3319   21.7356 C   0  0  0  0  0  0  0  0  0  0  0  0
    9.0855   -0.3197   22.8861 C   0  0  0  0  0  0  0  0  0  0  0  0
    8.1889   -0.9148   23.9149 C   0  0  0  0  0  0  0  0  0  0  0  0
    7.9855   -2.2064   24.1037 N   0  0  0  0  0  0  0  0  0  0  0  0
    6.9859   -2.2285   25.0187 C   0  0  0  0  0  0  0  0  0  0  0  0
    6.3567   -3.5033   25.5053 C   0  0  0  0  0  0  0  0  0  0  0  0
    4.8871   -3.6760   25.0506 C   0  0  0  0  0  0  0  0  0  0  0  0
    4.2326   -4.6060   26.0896 C   0  0  0  0  0  0  0  0  0  0  0  0
    5.1470   -4.5972   27.3411 C   0  0  0  0  0  0  0  0  0  0  0  0
    6.3062   -3.6297   27.0421 C   0  0  0  0  0  0  0  0  0  0  0  0
    7.2610   -3.9776   27.4537 H   0  0  0  0  0  0  0  0  0  0  0  0
    6.1120   -2.6426   27.4759 H   0  0  0  0  0  0  0  0  0  0  0  0
    5.5210   -5.6067   27.5461 H   0  0  0  0  0  0  0  0  0  0  0  0
    4.6046   -4.2870   28.2398 H   0  0  0  0  0  0  0  0  0  0  0  0
    3.2186   -4.2674   26.3249 H   0  0  0  0  0  0  0  0  0  0  0  0
    4.1294   -5.6250   25.7006 H   0  0  0  0  0  0  0  0  0  0  0  0
    4.3936   -2.6976   25.0407 H   0  0  0  0  0  0  0  0  0  0  0  0
    4.8217   -4.0716   24.0305 H   0  0  0  0  0  0  0  0  0  0  0  0
    6.9552   -4.3220   25.0940 H   0  0  0  0  0  0  0  0  0  0  0  0
    6.5634   -1.0359   25.4059 N   0  0  0  0  0  0  0  0  0  0  0  0
    7.3563   -0.1800   24.7111 N   0  0  0  0  0  0  0  0  0  0  0  0
    7.1596    1.2309   24.8217 C   0  0  0  0  0  0  0  0  0  0  0  0
    5.8830    1.7886   24.6729 C   0  0  0  0  0  0  0  0  0  0  0  0
    5.7617    3.1793   24.7523 C   0  0  0  0  0  0  0  0  0  0  0  0
    6.9006    3.9587   24.9861 C   0  0  0  0  0  0  0  0  0  0  0  0
    8.1195    3.4350   25.1495 N   0  0  0  0  0  0  0  0  0  0  0  0
    8.2328    2.1053   25.0735 C   0  0  0  0  0  0  0  0  0  0  0  0
    9.2333    1.7088   25.2166 H   0  0  0  0  0  0  0  0  0  0  0  0
    6.8358    5.0429   25.0556 H   0  0  0  0  0  0  0  0  0  0  0  0
    4.7995    3.6641   24.6463 H   0  0  0  0  0  0  0  0  0  0  0  0
    5.0194    1.1425   24.5036 H   0  0  0  0  0  0  0  0  0  0  0  0
    9.7577    0.4081   23.3500 H   0  0  0  0  0  0  0  0  0  0  0  0
    9.7072   -1.1351   22.5052 H   0  0  0  0  0  0  0  0  0  0  0  0
    7.6902    1.1591   22.1196 H   0  0  0  0  0  0  0  0  0  0  0  0
    9.0076    0.7776   21.0247 H   0  0  0  0  0  0  0  0  0  0  0  0
    6.7030   -1.1371   21.7030 H   0  0  0  0  0  0  0  0  0  0  0  0
    8.0232   -1.4927   20.6006 H   0  0  0  0  0  0  0  0  0  0  0  0
    5.4329    0.6467   20.1432 C   0  0  0  0  0  0  0  0  0  0  0  0
    5.0122    0.6355   21.1546 H   0  0  0  0  0  0  0  0  0  0  0  0
    8.1104   -0.4190   18.3559 H   0  0  0  0  0  0  0  0  0  0  0  0
    4.9149    1.7903   16.9872 H   0  0  0  0  0  0  0  0  0  0  0  0
    3.8697    1.8476   19.2505 H   0  0  0  0  0  0  0  0  0  0  0  0
  1  2  2  0
  2  3  1  0
  3  4  2  0
  4  5  1  0
  5  6  1  0
  6  7  1  0
  7  8  1  0
  8  9  1  0
  9 10  2  0
 10 11  1  0
 11 12  1  0
 12 13  1  0
 13 14  1  0
 14 15  1  0
 15 16  1  0
 16 17  1  0
 16 18  1  0
 15 19  1  0
 15 20  1  0
 14 21  1  0
 14 22  1  0
 13 23  1  0
 13 24  1  0
 12 25  1  0
 11 26  2  0
 26 27  1  0
 27 28  1  0
 28 29  2  0
 29 30  1  0
 30 31  2  0
 31 32  1  0
 32 33  2  0
 33 34  1  0
 31 35  1  0
 30 36  1  0
 29 37  1  0
  8 38  1  0
  8 39  1  0
  7 40  1  0
  7 41  1  0
  6 42  1  0
  6 43  1  0
  5 44  2  0
 44 45  1  0
  4 46  1  0
  2 47  1  0
  1 48  1  0
 44  1  1  0
 27  9  1  0
 33 28  1  0
 16 12  1  0
M  END
>  <cnnaffinity>  (1) 
-5.83657

>  <filename>  (1) 
c1cncc(CCCc2nc(C3CCCC3)nn2-c2cccnc2)c1

$$$$
