
     RDKit          3D

 40 43  0  0  0  0  0  0  0  0999 V2000
    5.4257    1.6269   17.1192 H   0  0  0  0  0  0  0  0  0  0  0  0
    5.6741    1.0233   17.9902 C   0  0  0  0  0  0  0  0  0  0  0  0
    6.7125    0.1862   17.8495 N   0  0  0  0  0  0  0  0  0  0  0  0
    7.0631   -0.5504   18.9107 C   0  0  0  0  0  0  0  0  0  0  0  0
    7.9173   -1.2141   18.7749 H   0  0  0  0  0  0  0  0  0  0  0  0
    6.4155   -0.4790   20.1521 C   0  0  0  0  0  0  0  0  0  0  0  0
    6.9680   -1.2034   21.3091 C   0  0  0  0  0  0  0  0  0  0  0  0
    6.6162   -2.4748   21.5281 N   0  0  0  0  0  0  0  0  0  0  0  0
    7.2909   -2.7860   22.6437 N   0  0  0  0  0  0  0  0  0  0  0  0
    8.0594   -1.7994   23.1142 C   0  0  0  0  0  0  0  0  0  0  0  0
    7.8747   -0.7044   22.2979 C   0  0  0  0  0  0  0  0  0  0  0  0
    8.5033    0.6484   22.5443 C   0  0  0  0  0  0  0  0  0  0  0  0
    9.1746    0.5026   23.4133 H   0  0  0  0  0  0  0  0  0  0  0  0
    9.4036    1.1551   21.4044 C   0  0  0  0  0  0  0  0  0  0  0  0
   10.1682    0.4091   21.1693 H   0  0  0  0  0  0  0  0  0  0  0  0
    8.7946    1.3158   20.5038 H   0  0  0  0  0  0  0  0  0  0  0  0
   10.1023    2.4468   21.8318 C   0  0  0  0  0  0  0  0  0  0  0  0
   10.7613    2.7964   21.0286 H   0  0  0  0  0  0  0  0  0  0  0  0
   10.7552    2.2192   22.7016 H   0  0  0  0  0  0  0  0  0  0  0  0
    9.0956    3.4529   22.1533 N   0  0  0  0  0  0  0  0  0  0  0  0
    9.5391    4.3454   22.3432 H   0  0  0  0  0  0  0  0  0  0  0  0
    8.2217    3.0744   23.2555 C   0  0  0  0  0  0  0  0  0  0  0  0
    7.4834    3.8750   23.4039 H   0  0  0  0  0  0  0  0  0  0  0  0
    8.7838    2.9667   24.2050 H   0  0  0  0  0  0  0  0  0  0  0  0
    7.5019    1.7561   22.9446 C   0  0  0  0  0  0  0  0  0  0  0  0
    6.9406    1.4436   23.8299 H   0  0  0  0  0  0  0  0  0  0  0  0
    6.7701    1.9050   22.1384 H   0  0  0  0  0  0  0  0  0  0  0  0
    8.8449   -2.2561   24.2993 C   0  0  0  0  0  0  0  0  0  0  0  0
    9.9111   -2.2845   24.0514 H   0  0  0  0  0  0  0  0  0  0  0  0
    8.7261   -1.5749   25.1467 H   0  0  0  0  0  0  0  0  0  0  0  0
    8.2758   -3.6760   24.5823 C   0  0  0  0  0  0  0  0  0  0  0  0
    7.7793   -3.7066   25.5534 H   0  0  0  0  0  0  0  0  0  0  0  0
    9.0765   -4.4164   24.5919 H   0  0  0  0  0  0  0  0  0  0  0  0
    7.2485   -3.9916   23.4475 C   0  0  0  0  0  0  0  0  0  0  0  0
    7.5288   -4.8548   22.8378 H   0  0  0  0  0  0  0  0  0  0  0  0
    6.2335   -4.1457   23.8314 H   0  0  0  0  0  0  0  0  0  0  0  0
    5.2820    0.3387   20.2585 C   0  0  0  0  0  0  0  0  0  0  0  0
    4.7025    0.3780   21.1828 H   0  0  0  0  0  0  0  0  0  0  0  0
    4.9206    1.1176   19.1627 C   0  0  0  0  0  0  0  0  0  0  0  0
    4.0870    1.8082   19.2119 H   0  0  0  0  0  0  0  0  0  0  0  0
  1  2  1  0
  2  3  2  0
  3  4  1  0
  4  5  1  0
  4  6  2  0
  6  7  1  0
  7  8  2  0
  8  9  1  0
  9 10  1  0
 10 11  2  0
 11 12  1  0
 12 13  1  0
 12 14  1  0
 14 15  1  0
 14 16  1  0
 14 17  1  0
 17 18  1  0
 17 19  1  0
 17 20  1  0
 20 21  1  0
 20 22  1  0
 22 23  1  0
 22 24  1  0
 22 25  1  0
 25 26  1  0
 25 27  1  0
 10 28  1  0
 28 29  1  0
 28 30  1  0
 28 31  1  0
 31 32  1  0
 31 33  1  0
 31 34  1  0
 34 35  1  0
 34 36  1  0
  6 37  1  0
 37 38  1  0
 37 39  2  0
 39 40  1  0
 39  2  1  0
 11  7  1  0
 25 12  1  0
 34  9  1  0
M  END
>  <cnnaffinity>  (1) 
-5.51583

>  <filename>  (1) 
c1cncc(-c2nn3c(c2C2CCNCC2)CCC3)c1

$$$$
