
     RDKit          3D

 42 45  0  0  0  0  0  0  0  0999 V2000
    4.8040    1.3125   19.1089 C   0  0  0  0  0  0  0  0  0  0  0  0
    5.3967    1.2909   17.8471 C   0  0  0  0  0  0  0  0  0  0  0  0
    6.5696    0.6840   17.5937 N   0  0  0  0  0  0  0  0  0  0  0  0
    7.1925    0.0809   18.6055 C   0  0  0  0  0  0  0  0  0  0  0  0
    6.6773    0.0766   19.9246 C   0  0  0  0  0  0  0  0  0  0  0  0
    7.3696   -0.6218   20.9679 N   0  0  0  0  0  0  0  0  0  0  0  0
    7.6660   -0.0544   22.1391 N   0  0  0  0  0  0  0  0  0  0  0  0
    8.2318   -1.0450   22.8278 C   0  0  0  0  0  0  0  0  0  0  0  0
    8.6943   -0.8665   24.2349 C   0  0  0  0  0  0  0  0  0  0  0  0
    7.4992   -0.6573   25.1957 C   0  0  0  0  0  0  0  0  0  0  0  0
    7.2639    0.8587   25.2451 C   0  0  0  0  0  0  0  0  0  0  0  0
    8.5760    1.5312   24.8011 C   0  0  0  0  0  0  0  0  0  0  0  0
    9.5485    0.4074   24.3998 C   0  0  0  0  0  0  0  0  0  0  0  0
   10.2811    0.2454   25.2008 H   0  0  0  0  0  0  0  0  0  0  0  0
   10.0929    0.6536   23.4768 H   0  0  0  0  0  0  0  0  0  0  0  0
    8.3878    2.1888   23.9450 H   0  0  0  0  0  0  0  0  0  0  0  0
    9.0087    2.1255   25.6159 H   0  0  0  0  0  0  0  0  0  0  0  0
    6.9847    1.1653   26.2608 H   0  0  0  0  0  0  0  0  0  0  0  0
    6.4556    1.1314   24.5569 H   0  0  0  0  0  0  0  0  0  0  0  0
    7.7737   -1.0262   26.1930 H   0  0  0  0  0  0  0  0  0  0  0  0
    6.6019   -1.1977   24.8587 H   0  0  0  0  0  0  0  0  0  0  0  0
    9.2664   -1.7520   24.5330 H   0  0  0  0  0  0  0  0  0  0  0  0
    8.2871   -2.2234   22.2030 N   0  0  0  0  0  0  0  0  0  0  0  0
    7.7063   -1.9323   21.0479 C   0  0  0  0  0  0  0  0  0  0  0  0
    7.2036   -2.9682   20.2821 C   0  0  0  0  0  0  0  0  0  0  0  0
    5.8442   -3.4000   20.1455 C   0  0  0  0  0  0  0  0  0  0  0  0
    5.5736   -4.3618   19.0848 C   0  0  0  0  0  0  0  0  0  0  0  0
    5.7166   -5.8086   19.1545 C   0  0  0  0  0  0  0  0  0  0  0  0
    5.4565   -6.4945   17.9260 N   0  0  0  0  0  0  0  0  0  0  0  0
    5.4563   -6.4944   17.9258 C   0  0  0  0  0  0  0  0  0  0  0  0
    5.2333   -3.7900   18.0377 O   0  0  0  0  0  0  0  0  0  0  0  0
    5.7136   -8.6263   17.3531 H   0  0  0  0  0  0  0  0  0  0  0  0
    6.0177   -6.3443   20.0491 H   0  0  0  0  0  0  0  0  0  0  0  0
    5.2096   -2.5519   19.9239 H   0  0  0  0  0  0  0  0  0  0  0  0
    5.6683   -3.8198   21.1039 H   0  0  0  0  0  0  0  0  0  0  0  0
    7.9016   -3.8757   20.4058 H   0  0  0  0  0  0  0  0  0  0  0  0
    6.7220   -1.7802   19.1881 H   0  0  0  0  0  0  0  0  0  0  0  0
    5.4444    0.6665   20.1676 C   0  0  0  0  0  0  0  0  0  0  0  0
    5.0114    0.6265   21.1625 H   0  0  0  0  0  0  0  0  0  0  0  0
    8.1358   -0.4283   18.3769 H   0  0  0  0  0  0  0  0  0  0  0  0
    4.9037    1.7698   17.0076 H   0  0  0  0  0  0  0  0  0  0  0  0
    3.8732    1.8436   19.2680 H   0  0  0  0  0  0  0  0  0  0  0  0
  1  2  2  0
  2  3  1  0
  3  4  2  0
  4  5  1  0
  5  6  1  0
  6  7  1  0
  7  8  2  0
  8  9  1  0
  9 10  1  0
 10 11  1  0
 11 12  1  0
 12 13  1  0
 13 14  1  0
 13 15  1  0
 12 16  1  0
 12 17  1  0
 11 18  1  0
 11 19  1  0
 10 20  1  0
 10 21  1  0
  9 22  1  0
  8 23  1  0
 23 24  2  0
 24 25  1  0
 25 26  1  0
 26 27  1  0
 27 28  2  0
 28 29  1  0
 29 30  2  0
 30 31  1  0
 30 32  1  0
 28 33  1  0
 26 34  1  0
 26 35  1  0
 25 36  1  0
 25 37  1  0
  5 38  2  0
 38 39  1  0
  4 40  1  0
  2 41  1  0
  1 42  1  0
 38  1  1  0
 24  6  1  0
 31 27  1  0
 13  9  1  0
M  END
>  <cnnaffinity>  (1) 
-5.1316

>  <filename>  (1) 
c1cncc(-n2nc(C3CCCC3)nc2CCc2cnco2)c1

$$$$
