
     RDKit          3D

 44 47  0  0  0  0  0  0  0  0999 V2000
    4.8128    1.3105   19.1083 C   0  0  0  0  0  0  0  0  0  0  0  0
    5.4029    1.2954   17.8365 C   0  0  0  0  0  0  0  0  0  0  0  0
    6.5616    0.6735   17.5746 N   0  0  0  0  0  0  0  0  0  0  0  0
    7.1685    0.0541   18.5905 C   0  0  0  0  0  0  0  0  0  0  0  0
    6.6564    0.0060   19.8972 C   0  0  0  0  0  0  0  0  0  0  0  0
    7.3587   -0.6671   20.9390 N   0  0  0  0  0  0  0  0  0  0  0  0
    6.7250   -1.5798   21.7223 N   0  0  0  0  0  0  0  0  0  0  0  0
    7.6492   -1.9145   22.5954 C   0  0  0  0  0  0  0  0  0  0  0  0
    7.3985   -2.8256   23.7627 C   0  0  0  0  0  0  0  0  0  0  0  0
    7.2622   -2.0194   25.0787 C   0  0  0  0  0  0  0  0  0  0  0  0
    7.1358   -2.9602   26.2744 C   0  0  0  0  0  0  0  0  0  0  0  0
    8.2161   -3.8750   26.3365 O   0  0  0  0  0  0  0  0  0  0  0  0
    8.2753   -4.7101   25.1929 C   0  0  0  0  0  0  0  0  0  0  0  0
    8.4933   -3.9029   23.9139 C   0  0  0  0  0  0  0  0  0  0  0  0
    8.4999   -4.5740   23.0466 H   0  0  0  0  0  0  0  0  0  0  0  0
    9.4776   -3.4217   23.9616 H   0  0  0  0  0  0  0  0  0  0  0  0
    7.3409   -5.2924   25.1168 H   0  0  0  0  0  0  0  0  0  0  0  0
    9.0942   -5.4172   25.3604 H   0  0  0  0  0  0  0  0  0  0  0  0
    6.1860   -3.5179   26.2152 H   0  0  0  0  0  0  0  0  0  0  0  0
    7.1395   -2.4052   27.2181 H   0  0  0  0  0  0  0  0  0  0  0  0
    8.1602   -1.4053   25.2130 H   0  0  0  0  0  0  0  0  0  0  0  0
    6.3953   -1.3478   25.0346 H   0  0  0  0  0  0  0  0  0  0  0  0
    6.4406   -3.3128   23.5532 H   0  0  0  0  0  0  0  0  0  0  0  0
    8.8502   -1.2928   22.4263 N   0  0  0  0  0  0  0  0  0  0  0  0
    8.6258   -0.4854   21.4091 C   0  0  0  0  0  0  0  0  0  0  0  0
    9.5122    0.6317   20.9568 C   0  0  0  0  0  0  0  0  0  0  0  0
    9.0270    2.0135   21.4792 C   0  0  0  0  0  0  0  0  0  0  0  0
    8.8906    2.0333   22.9824 C   0  0  0  0  0  0  0  0  0  0  0  0
    9.9117    2.0346   23.8872 C   0  0  0  0  0  0  0  0  0  0  0  0
    9.4736    1.9089   25.2407 C   0  0  0  0  0  0  0  0  0  0  0  0
    8.1188    1.8011   25.3270 C   0  0  0  0  0  0  0  0  0  0  0  0
    7.3664    1.8389   23.7815 S   0  0  0  0  0  0  0  0  0  0  0  0
    7.5196    1.6772   26.2167 H   0  0  0  0  0  0  0  0  0  0  0  0
   10.1399    1.8938   26.1014 H   0  0  0  0  0  0  0  0  0  0  0  0
   10.9585    2.1076   23.5930 H   0  0  0  0  0  0  0  0  0  0  0  0
    8.0757    2.2693   21.0018 H   0  0  0  0  0  0  0  0  0  0  0  0
    9.7526    2.7759   21.1742 H   0  0  0  0  0  0  0  0  0  0  0  0
    9.5723    0.6525   19.8648 H   0  0  0  0  0  0  0  0  0  0  0  0
   10.5184    0.4190   21.3268 H   0  0  0  0  0  0  0  0  0  0  0  0
    5.4392    0.6440   20.1654 C   0  0  0  0  0  0  0  0  0  0  0  0
    5.0133    0.6093   21.1724 H   0  0  0  0  0  0  0  0  0  0  0  0
    8.1142   -0.4336   18.3701 H   0  0  0  0  0  0  0  0  0  0  0  0
    4.9171    1.7842   16.9929 H   0  0  0  0  0  0  0  0  0  0  0  0
    3.8786    1.8408   19.2614 H   0  0  0  0  0  0  0  0  0  0  0  0
  1  2  2  0
  2  3  1  0
  3  4  2  0
  4  5  1  0
  5  6  1  0
  6  7  1  0
  7  8  2  0
  8  9  1  0
  9 10  1  0
 10 11  1  0
 11 12  1  0
 12 13  1  0
 13 14  1  0
 14 15  1  0
 14 16  1  0
 13 17  1  0
 13 18  1  0
 11 19  1  0
 11 20  1  0
 10 21  1  0
 10 22  1  0
  9 23  1  0
  8 24  1  0
 24 25  2  0
 25 26  1  0
 26 27  1  0
 27 28  1  0
 28 29  2  0
 29 30  1  0
 30 31  2  0
 31 32  1  0
 31 33  1  0
 30 34  1  0
 29 35  1  0
 27 36  1  0
 27 37  1  0
 26 38  1  0
 26 39  1  0
  5 40  2  0
 40 41  1  0
  4 42  1  0
  2 43  1  0
  1 44  1  0
 40  1  1  0
 25  6  1  0
 32 28  1  0
 14  9  1  0
M  END
>  <cnnaffinity>  (1) 
-5.81284

>  <filename>  (1) 
c1cncc(-n2nc(C3CCOCC3)nc2CCc2cccs2)c1

$$$$
