
     RDKit          3D

 28 30  0  0  0  0  0  0  0  0999 V2000
    5.1006    1.8167   16.9699 H   0  0  0  0  0  0  0  0  0  0  0  0
    5.5164    1.3127   17.8368 C   0  0  0  0  0  0  0  0  0  0  0  0
    6.6888    0.6845   17.6429 N   0  0  0  0  0  0  0  0  0  0  0  0
    7.2300    0.0650   18.6992 C   0  0  0  0  0  0  0  0  0  0  0  0
    8.1715   -0.4615   18.5285 H   0  0  0  0  0  0  0  0  0  0  0  0
    6.6468    0.0335   19.9744 C   0  0  0  0  0  0  0  0  0  0  0  0
    7.3259   -0.6759   21.0677 C   0  0  0  0  0  0  0  0  0  0  0  0
    8.6482   -0.6522   21.4588 C   0  0  0  0  0  0  0  0  0  0  0  0
    9.6627    0.4093   21.0920 C   0  0  0  0  0  0  0  0  0  0  0  0
   10.6707    0.0906   21.3634 H   0  0  0  0  0  0  0  0  0  0  0  0
    9.6444    0.5851   20.0114 H   0  0  0  0  0  0  0  0  0  0  0  0
    9.3825    1.7127   21.7825 C   0  0  0  0  0  0  0  0  0  0  0  0
    9.8819    2.1133   22.9217 N   0  0  0  0  0  0  0  0  0  0  0  0
    9.2544    3.3065   23.1966 C   0  0  0  0  0  0  0  0  0  0  0  0
    9.4465    3.8488   24.1120 H   0  0  0  0  0  0  0  0  0  0  0  0
    8.3746    3.6342   22.2034 C   0  0  0  0  0  0  0  0  0  0  0  0
    7.7171    4.4875   22.0625 H   0  0  0  0  0  0  0  0  0  0  0  0
    8.4707    2.5998   21.2987 N   0  0  0  0  0  0  0  0  0  0  0  0
    7.8442    2.3806   20.5374 H   0  0  0  0  0  0  0  0  0  0  0  0
    8.7173   -1.6216   22.4883 C   0  0  0  0  0  0  0  0  0  0  0  0
    9.5899   -1.9019   23.0624 H   0  0  0  0  0  0  0  0  0  0  0  0
    7.5378   -2.1732   22.7440 N   0  0  0  0  0  0  0  0  0  0  0  0
    6.7068   -1.5664   21.8805 N   0  0  0  0  0  0  0  0  0  0  0  0
    5.7176   -1.7700   21.8959 H   0  0  0  0  0  0  0  0  0  0  0  0
    5.4157    0.6817   20.1520 C   0  0  0  0  0  0  0  0  0  0  0  0
    4.9507    0.6764   21.1391 H   0  0  0  0  0  0  0  0  0  0  0  0
    4.8407    1.3357   19.0649 C   0  0  0  0  0  0  0  0  0  0  0  0
    3.8903    1.8552   19.1586 H   0  0  0  0  0  0  0  0  0  0  0  0
  1  2  1  0
  2  3  2  0
  3  4  1  0
  4  5  1  0
  4  6  2  0
  6  7  1  0
  7  8  2  0
  8  9  1  0
  9 10  1  0
  9 11  1  0
  9 12  1  0
 12 13  2  0
 13 14  1  0
 14 15  1  0
 14 16  2  0
 16 17  1  0
 16 18  1  0
 18 19  1  0
  8 20  1  0
 20 21  1  0
 20 22  2  0
 22 23  1  0
 23 24  1  0
  6 25  1  0
 25 26  1  0
 25 27  2  0
 27 28  1  0
 27  2  1  0
 23  7  1  0
 18 12  1  0
M  END
>  <cnnaffinity>  (1) 
-5.22745

>  <filename>  (1) 
c1cncc(-c2[nH]ncc2Cc2ncc[nH]2)c1

$$$$
