
     RDKit          3D

 39 41  0  0  0  0  0  0  0  0999 V2000
    4.9493    1.7982   16.9393 H   0  0  0  0  0  0  0  0  0  0  0  0
    5.3923    1.3168   17.8107 C   0  0  0  0  0  0  0  0  0  0  0  0
    6.5582    0.6865   17.6123 N   0  0  0  0  0  0  0  0  0  0  0  0
    7.1315    0.1065   18.6790 C   0  0  0  0  0  0  0  0  0  0  0  0
    8.0675   -0.4168   18.4703 H   0  0  0  0  0  0  0  0  0  0  0  0
    6.6066    0.1236   19.9862 C   0  0  0  0  0  0  0  0  0  0  0  0
    7.2936   -0.6068   21.1428 C   0  0  1  0  0  0  0  0  0  0  0  0
    6.8477   -0.2453   22.0862 H   0  0  0  0  0  0  0  0  0  0  0  0
    6.9859   -2.1145   21.0132 C   0  0  0  0  0  0  0  0  0  0  0  0
    5.9054   -2.2508   21.1523 H   0  0  0  0  0  0  0  0  0  0  0  0
    7.2037   -2.3950   19.9810 H   0  0  0  0  0  0  0  0  0  0  0  0
    7.7728   -3.0482   21.9499 C   0  0  0  0  0  0  0  0  0  0  0  0
    7.3558   -3.0065   22.9693 H   0  0  0  0  0  0  0  0  0  0  0  0
    7.6486   -4.0773   21.5874 H   0  0  0  0  0  0  0  0  0  0  0  0
    9.2709   -2.7078   22.0023 C   0  0  0  0  0  0  0  0  0  0  0  0
    9.7341   -2.9172   21.0268 H   0  0  0  0  0  0  0  0  0  0  0  0
    9.7834   -3.3417   22.7391 H   0  0  0  0  0  0  0  0  0  0  0  0
    9.4898   -1.2250   22.3147 C   0  0  0  0  0  0  0  0  0  0  0  0
    9.0678   -1.0043   23.3070 H   0  0  0  0  0  0  0  0  0  0  0  0
   10.5670   -1.0059   22.3786 H   0  0  0  0  0  0  0  0  0  0  0  0
    8.8288   -0.3439   21.2262 C   0  0  2  0  0  0  0  0  0  0  0  0
    9.2755   -0.6755   20.2725 H   0  0  0  0  0  0  0  0  0  0  0  0
    9.1547    1.1638   21.3872 C   0  0  0  0  0  0  0  0  0  0  0  0
    8.7472    1.6966   20.5205 H   0  0  0  0  0  0  0  0  0  0  0  0
   10.2445    1.3032   21.3559 H   0  0  0  0  0  0  0  0  0  0  0  0
    8.5991    1.7860   22.6452 C   0  0  0  0  0  0  0  0  0  0  0  0
    7.3446    2.4108   22.6692 C   0  0  0  0  0  0  0  0  0  0  0  0
    6.7583    2.5099   21.7673 H   0  0  0  0  0  0  0  0  0  0  0  0
    6.8199    2.8671   23.8799 C   0  0  0  0  0  0  0  0  0  0  0  0
    5.8332    3.3251   23.9084 H   0  0  0  0  0  0  0  0  0  0  0  0
    7.4551    2.7696   25.0531 N   0  0  0  0  0  0  0  0  0  0  0  0
    8.6608    2.1920   25.0312 C   0  0  0  0  0  0  0  0  0  0  0  0
    9.1700    2.1074   25.9883 H   0  0  0  0  0  0  0  0  0  0  0  0
    9.2654    1.6965   23.8731 C   0  0  0  0  0  0  0  0  0  0  0  0
   10.2295    1.2119   23.9439 H   0  0  0  0  0  0  0  0  0  0  0  0
    5.3635    0.7568   20.1523 C   0  0  0  0  0  0  0  0  0  0  0  0
    4.8879    0.7806   21.1345 H   0  0  0  0  0  0  0  0  0  0  0  0
    4.7504    1.3628   19.0499 C   0  0  0  0  0  0  0  0  0  0  0  0
    3.7983    1.8701   19.1432 H   0  0  0  0  0  0  0  0  0  0  0  0
  1  2  1  0
  2  3  2  0
  3  4  1  0
  4  5  1  0
  4  6  2  0
  6  7  1  0
  7  8  1  1
  7  9  1  0
  9 10  1  0
  9 11  1  0
  9 12  1  0
 12 13  1  0
 12 14  1  0
 12 15  1  0
 15 16  1  0
 15 17  1  0
 15 18  1  0
 18 19  1  0
 18 20  1  0
 18 21  1  0
 21 22  1  6
 21 23  1  0
 23 24  1  0
 23 25  1  0
 23 26  1  0
 26 27  2  0
 27 28  1  0
 27 29  1  0
 29 30  1  0
 29 31  2  0
 31 32  1  0
 32 33  1  0
 32 34  2  0
 34 35  1  0
  6 36  1  0
 36 37  1  0
 36 38  2  0
 38 39  1  0
 38  2  1  0
 21  7  1  0
 34 26  1  0
M  END
>  <cnnaffinity>  (1) 
-5.27384

>  <filename>  (1) 
c1cncc([C@H]2CCCC[C@@H]2Cc2ccncc2)c1

$$$$
