
     RDKit          3D

 46 49  0  0  0  0  0  0  0  0999 V2000
    4.8230    1.3977   18.9982 C   0  0  0  0  0  0  0  0  0  0  0  0
    5.4377    1.3049   17.7465 C   0  0  0  0  0  0  0  0  0  0  0  0
    6.5766    0.6211   17.5367 N   0  0  0  0  0  0  0  0  0  0  0  0
    7.1562    0.0348   18.5897 C   0  0  0  0  0  0  0  0  0  0  0  0
    6.6589    0.1479   19.9009 C   0  0  0  0  0  0  0  0  0  0  0  0
    7.3735   -0.4528   20.9765 N   0  0  0  0  0  0  0  0  0  0  0  0
    7.6609   -1.7756   20.9115 N   0  0  0  0  0  0  0  0  0  0  0  0
    8.2050   -2.0281   22.0916 C   0  0  0  0  0  0  0  0  0  0  0  0
    8.6966   -3.4097   22.4639 C   0  0  0  0  0  0  0  0  0  0  0  0
    8.7965   -3.7240   23.9766 C   0  0  0  0  0  0  0  0  0  0  0  0
    8.6815   -5.2657   24.1050 C   0  0  0  0  0  0  0  0  0  0  0  0
    8.2142   -5.8055   22.7342 C   0  0  0  0  0  0  0  0  0  0  0  0
    7.8547   -4.5761   21.8897 C   0  0  0  0  0  0  0  0  0  0  0  0
    8.0249   -4.7355   20.8198 H   0  0  0  0  0  0  0  0  0  0  0  0
    6.7912   -4.3405   22.0117 H   0  0  0  0  0  0  0  0  0  0  0  0
    9.0051   -6.3921   22.2549 H   0  0  0  0  0  0  0  0  0  0  0  0
    7.3664   -6.4905   22.8451 H   0  0  0  0  0  0  0  0  0  0  0  0
    7.9698   -5.5405   24.8930 H   0  0  0  0  0  0  0  0  0  0  0  0
    9.6385   -5.7269   24.3740 H   0  0  0  0  0  0  0  0  0  0  0  0
    7.9901   -3.2261   24.5269 H   0  0  0  0  0  0  0  0  0  0  0  0
    9.7336   -3.3381   24.3932 H   0  0  0  0  0  0  0  0  0  0  0  0
    9.7155   -3.4334   22.0616 H   0  0  0  0  0  0  0  0  0  0  0  0
    8.3501   -0.9318   22.8840 N   0  0  0  0  0  0  0  0  0  0  0  0
    7.8182    0.0445   22.1677 C   0  0  0  0  0  0  0  0  0  0  0  0
    7.7651    1.4831   22.5802 C   0  0  0  0  0  0  0  0  0  0  0  0
    8.8671    2.3878   21.9956 C   0  0  0  0  0  0  0  0  0  0  0  0
   10.2470    2.0368   22.5553 C   0  0  0  0  0  0  0  0  0  0  0  0
   11.2645    2.9569   22.0743 N   0  0  0  0  0  0  0  0  0  0  0  0
   11.9294    2.8395   20.8767 C   0  0  0  0  0  0  0  0  0  0  0  0
   12.7142    3.9521   20.7765 C   0  0  0  0  0  0  0  0  0  0  0  0
   12.5556    4.7528   21.8775 N   0  0  0  0  0  0  0  0  0  0  0  0
   11.6698    4.1382   22.6198 C   0  0  0  0  0  0  0  0  0  0  0  0
   11.3004    4.5099   23.5681 H   0  0  0  0  0  0  0  0  0  0  0  0
   13.4444    4.1930   20.0158 H   0  0  0  0  0  0  0  0  0  0  0  0
   11.7543    1.9921   20.2329 H   0  0  0  0  0  0  0  0  0  0  0  0
   10.2399    2.0362   23.6550 H   0  0  0  0  0  0  0  0  0  0  0  0
   10.5326    1.0203   22.2589 H   0  0  0  0  0  0  0  0  0  0  0  0
    8.8938    2.3368   20.8969 H   0  0  0  0  0  0  0  0  0  0  0  0
    8.6499    3.4306   22.2591 H   0  0  0  0  0  0  0  0  0  0  0  0
    7.8495    1.4977   23.6725 H   0  0  0  0  0  0  0  0  0  0  0  0
    6.7826    1.8962   22.3379 H   0  0  0  0  0  0  0  0  0  0  0  0
    5.4421    0.8086   20.1055 C   0  0  0  0  0  0  0  0  0  0  0  0
    4.9854    0.8380   21.0968 H   0  0  0  0  0  0  0  0  0  0  0  0
    8.0584   -0.5404   18.3934 H   0  0  0  0  0  0  0  0  0  0  0  0
    4.9960    1.7835   16.8745 H   0  0  0  0  0  0  0  0  0  0  0  0
    3.8853    1.9321   19.1048 H   0  0  0  0  0  0  0  0  0  0  0  0
  1  2  2  0
  2  3  1  0
  3  4  2  0
  4  5  1  0
  5  6  1  0
  6  7  1  0
  7  8  2  0
  8  9  1  0
  9 10  1  0
 10 11  1  0
 11 12  1  0
 12 13  1  0
 13 14  1  0
 13 15  1  0
 12 16  1  0
 12 17  1  0
 11 18  1  0
 11 19  1  0
 10 20  1  0
 10 21  1  0
  9 22  1  0
  8 23  1  0
 23 24  2  0
 24 25  1  0
 25 26  1  0
 26 27  1  0
 27 28  1  0
 28 29  1  0
 29 30  2  0
 30 31  1  0
 31 32  2  0
 32 33  1  0
 30 34  1  0
 29 35  1  0
 27 36  1  0
 27 37  1  0
 26 38  1  0
 26 39  1  0
 25 40  1  0
 25 41  1  0
  5 42  2  0
 42 43  1  0
  4 44  1  0
  2 45  1  0
  1 46  1  0
 42  1  1  0
 24  6  1  0
 32 28  1  0
 13  9  1  0
M  END
>  <cnnaffinity>  (1) 
-6.14243

>  <filename>  (1) 
c1cncc(-n2nc(C3CCCC3)nc2CCCn2ccnc2)c1

$$$$
