
     RDKit          3D

 39 42  0  0  0  0  0  0  0  0999 V2000
    4.8118    1.3117   19.1088 C   0  0  0  0  0  0  0  0  0  0  0  0
    5.4026    1.2954   17.8367 C   0  0  0  0  0  0  0  0  0  0  0  0
    6.5614    0.6724   17.5763 N   0  0  0  0  0  0  0  0  0  0  0  0
    7.1662    0.0526   18.5935 C   0  0  0  0  0  0  0  0  0  0  0  0
    6.6492    0.0018   19.8999 C   0  0  0  0  0  0  0  0  0  0  0  0
    7.3313   -0.6902   20.9348 N   0  0  0  0  0  0  0  0  0  0  0  0
    6.6734   -1.5481   21.7613 N   0  0  0  0  0  0  0  0  0  0  0  0
    7.6286   -1.9892   22.5577 C   0  0  0  0  0  0  0  0  0  0  0  0
    7.3720   -2.9428   23.6873 C   0  0  0  0  0  0  0  0  0  0  0  0
    8.3765   -4.1181   23.7240 C   0  0  0  0  0  0  0  0  0  0  0  0
    9.5278   -3.6855   24.6597 C   0  0  0  0  0  0  0  0  0  0  0  0
    9.0142   -2.4758   25.4698 C   0  0  0  0  0  0  0  0  0  0  0  0
    7.5409   -2.2648   25.0701 C   0  0  0  0  0  0  0  0  0  0  0  0
    6.8708   -2.7416   25.7953 H   0  0  0  0  0  0  0  0  0  0  0  0
    7.2636   -1.2043   25.0467 H   0  0  0  0  0  0  0  0  0  0  0  0
    9.6015   -1.5853   25.2275 H   0  0  0  0  0  0  0  0  0  0  0  0
    9.1085   -2.6295   26.5499 H   0  0  0  0  0  0  0  0  0  0  0  0
    9.8309   -4.5152   25.3075 H   0  0  0  0  0  0  0  0  0  0  0  0
   10.4120   -3.4051   24.0787 H   0  0  0  0  0  0  0  0  0  0  0  0
    7.8767   -5.0104   24.1187 H   0  0  0  0  0  0  0  0  0  0  0  0
    8.7344   -4.3840   22.7236 H   0  0  0  0  0  0  0  0  0  0  0  0
    6.3484   -3.2850   23.5331 H   0  0  0  0  0  0  0  0  0  0  0  0
    8.8544   -1.4692   22.3140 N   0  0  0  0  0  0  0  0  0  0  0  0
    8.6372   -0.6354   21.3249 C   0  0  0  0  0  0  0  0  0  0  0  0
    9.6780    0.1892   20.6622 C   0  0  0  0  0  0  0  0  0  0  0  0
   10.7014    0.6636   21.6416 C   0  0  0  0  0  0  0  0  0  0  0  0
   11.8388    0.0632   21.8325 N   0  0  0  0  0  0  0  0  0  0  0  0
   12.4455    0.7217   22.8846 O   0  0  0  0  0  0  0  0  0  0  0  0
   11.6466    1.7184   23.2934 C   0  0  0  0  0  0  0  0  0  0  0  0
   10.5200    1.7496   22.5454 C   0  0  0  0  0  0  0  0  0  0  0  0
    9.6767    2.4185   22.6199 H   0  0  0  0  0  0  0  0  0  0  0  0
   12.0208    2.3143   24.1153 H   0  0  0  0  0  0  0  0  0  0  0  0
   10.1142   -0.4479   19.8909 H   0  0  0  0  0  0  0  0  0  0  0  0
    9.2171    1.0651   20.2026 H   0  0  0  0  0  0  0  0  0  0  0  0
    5.4361    0.6455   20.1666 C   0  0  0  0  0  0  0  0  0  0  0  0
    5.0152    0.6104   21.1753 H   0  0  0  0  0  0  0  0  0  0  0  0
    8.1130   -0.4280   18.3656 H   0  0  0  0  0  0  0  0  0  0  0  0
    4.9196    1.7837   16.9925 H   0  0  0  0  0  0  0  0  0  0  0  0
    3.8780    1.8416   19.2608 H   0  0  0  0  0  0  0  0  0  0  0  0
  1  2  2  0
  2  3  1  0
  3  4  2  0
  4  5  1  0
  5  6  1  0
  6  7  1  0
  7  8  2  0
  8  9  1  0
  9 10  1  0
 10 11  1  0
 11 12  1  0
 12 13  1  0
 13 14  1  0
 13 15  1  0
 12 16  1  0
 12 17  1  0
 11 18  1  0
 11 19  1  0
 10 20  1  0
 10 21  1  0
  9 22  1  0
  8 23  1  0
 23 24  2  0
 24 25  1  0
 25 26  1  0
 26 27  2  0
 27 28  1  0
 28 29  1  0
 29 30  2  0
 30 31  1  0
 29 32  1  0
 25 33  1  0
 25 34  1  0
  5 35  2  0
 35 36  1  0
  4 37  1  0
  2 38  1  0
  1 39  1  0
 35  1  1  0
 24  6  1  0
 30 26  1  0
 13  9  1  0
M  END
>  <cnnaffinity>  (1) 
-6.21059

>  <filename>  (1) 
c1cncc(-n2nc(C3CCCC3)nc2Cc2ccon2)c1

$$$$
