
     RDKit          3D

 34 37  0  0  0  0  0  0  0  0999 V2000
    4.9309    1.8171   16.9112 H   0  0  0  0  0  0  0  0  0  0  0  0
    5.3837    1.3548   17.7844 C   0  0  0  0  0  0  0  0  0  0  0  0
    6.5679    0.7557   17.5831 N   0  0  0  0  0  0  0  0  0  0  0  0
    7.1358    0.1631   18.6400 C   0  0  0  0  0  0  0  0  0  0  0  0
    8.0961   -0.3194   18.4546 H   0  0  0  0  0  0  0  0  0  0  0  0
    6.5738    0.1290   19.9353 C   0  0  0  0  0  0  0  0  0  0  0  0
    7.2219   -0.6168   21.0532 C   0  0  0  0  0  0  0  0  0  0  0  0
    7.6036   -1.9665   20.9087 C   0  0  0  0  0  0  0  0  0  0  0  0
    7.3214   -2.5037   20.0192 H   0  0  0  0  0  0  0  0  0  0  0  0
    8.2238   -2.6730   21.8569 N   0  0  0  0  0  0  0  0  0  0  0  0
    8.4678   -2.1117   23.0477 N   0  0  0  0  0  0  0  0  0  0  0  0
    8.1139   -0.8343   23.2856 C   0  0  0  0  0  0  0  0  0  0  0  0
    8.3801   -0.3080   24.6475 C   0  0  0  0  0  0  0  0  0  0  0  0
    8.0074   -1.0353   25.7574 C   0  0  0  0  0  0  0  0  0  0  0  0
    7.7599   -2.0911   25.6739 H   0  0  0  0  0  0  0  0  0  0  0  0
    7.8860   -0.5091   27.0026 N   0  0  0  0  0  0  0  0  0  0  0  0
    8.1778    0.7645   27.1658 C   0  0  0  0  0  0  0  0  0  0  0  0
    8.0526    1.1684   28.1743 H   0  0  0  0  0  0  0  0  0  0  0  0
    8.6528    1.6167   26.1206 C   0  0  0  0  0  0  0  0  0  0  0  0
    8.8929    3.0143   26.2764 C   0  0  0  0  0  0  0  0  0  0  0  0
    8.6621    3.4983   27.2189 H   0  0  0  0  0  0  0  0  0  0  0  0
    9.4101    3.7527   25.2391 C   0  0  0  0  0  0  0  0  0  0  0  0
    9.5641    4.8229   25.3464 H   0  0  0  0  0  0  0  0  0  0  0  0
    9.7753    3.1250   24.0219 C   0  0  0  0  0  0  0  0  0  0  0  0
   10.1897    3.7238   23.2177 H   0  0  0  0  0  0  0  0  0  0  0  0
    9.5523    1.7763   23.8389 C   0  0  0  0  0  0  0  0  0  0  0  0
    9.8685    1.2629   22.9374 H   0  0  0  0  0  0  0  0  0  0  0  0
    8.8849    1.0177   24.8503 C   0  0  0  0  0  0  0  0  0  0  0  0
    7.4686   -0.0535   22.2953 C   0  0  0  0  0  0  0  0  0  0  0  0
    7.1869    0.9734   22.5142 H   0  0  0  0  0  0  0  0  0  0  0  0
    5.3549    0.7951   20.1234 C   0  0  0  0  0  0  0  0  0  0  0  0
    4.9004    0.8170   21.1158 H   0  0  0  0  0  0  0  0  0  0  0  0
    4.7399    1.3993   19.0252 C   0  0  0  0  0  0  0  0  0  0  0  0
    3.7861    1.9055   19.1195 H   0  0  0  0  0  0  0  0  0  0  0  0
  1  2  1  0
  2  3  2  0
  3  4  1  0
  4  5  1  0
  4  6  2  0
  6  7  1  0
  7  8  2  0
  8  9  1  0
  8 10  1  0
 10 11  2  0
 11 12  1  0
 12 13  1  0
 13 14  2  0
 14 15  1  0
 14 16  1  0
 16 17  2  0
 17 18  1  0
 17 19  1  0
 19 20  2  0
 20 21  1  0
 20 22  1  0
 22 23  1  0
 22 24  2  0
 24 25  1  0
 24 26  1  0
 26 27  1  0
 26 28  2  0
 12 29  2  0
 29 30  1  0
  6 31  1  0
 31 32  1  0
 31 33  2  0
 33 34  1  0
 33  2  1  0
 29  7  1  0
 28 13  1  0
 28 19  1  0
M  END
>  <cnnaffinity>  (1) 
-5.4326

>  <filename>  (1) 
c1cncc(-c2cnnc(-c3cncc4ccccc34)c2)c1

$$$$
