
     RDKit          3D

 33 35  0  0  0  0  0  0  0  0999 V2000
    4.9134    1.7917   16.9870 H   0  0  0  0  0  0  0  0  0  0  0  0
    5.3963    1.2995   17.8294 C   0  0  0  0  0  0  0  0  0  0  0  0
    6.5588    0.6775   17.5718 N   0  0  0  0  0  0  0  0  0  0  0  0
    7.1705    0.0623   18.5963 C   0  0  0  0  0  0  0  0  0  0  0  0
    8.1184   -0.4216   18.3684 H   0  0  0  0  0  0  0  0  0  0  0  0
    6.6739    0.0271   19.9279 C   0  0  0  0  0  0  0  0  0  0  0  0
    7.3231   -0.6540   20.9873 N   0  0  0  0  0  0  0  0  0  0  0  0
    7.7246   -0.1938   22.2467 C   0  0  0  0  0  0  0  0  0  0  0  0
    7.6563    1.2741   22.5849 C   0  0  0  0  0  0  0  0  0  0  0  0
    6.6041    1.5724   22.5558 H   0  0  0  0  0  0  0  0  0  0  0  0
    8.2366    1.5963   23.9682 C   0  0  0  0  0  0  0  0  0  0  0  0
    9.1357    0.9916   24.1216 H   0  0  0  0  0  0  0  0  0  0  0  0
    7.5437    1.3388   24.7748 H   0  0  0  0  0  0  0  0  0  0  0  0
    8.5659    3.0904   23.9225 C   0  0  0  0  0  0  0  0  0  0  0  0
    9.4081    3.3373   24.5769 H   0  0  0  0  0  0  0  0  0  0  0  0
    7.7194    3.6835   24.2868 H   0  0  0  0  0  0  0  0  0  0  0  0
    8.8611    3.4228   22.4400 C   0  0  0  0  0  0  0  0  0  0  0  0
    8.3271    4.3271   22.1320 H   0  0  0  0  0  0  0  0  0  0  0  0
    9.9244    3.6363   22.2898 H   0  0  0  0  0  0  0  0  0  0  0  0
    8.4321    2.1903   21.6084 C   0  0  0  0  0  0  0  0  0  0  0  0
    9.3168    1.6736   21.2237 H   0  0  0  0  0  0  0  0  0  0  0  0
    7.8252    2.4483   20.7355 H   0  0  0  0  0  0  0  0  0  0  0  0
    8.2227   -1.0855   23.0209 N   0  0  0  0  0  0  0  0  0  0  0  0
    8.2098   -2.3584   22.3162 C   0  0  0  0  0  0  0  0  0  0  0  0
    9.2254   -2.7726   22.2682 H   0  0  0  0  0  0  0  0  0  0  0  0
    7.5927   -3.0831   22.8563 H   0  0  0  0  0  0  0  0  0  0  0  0
    7.6630   -2.0694   20.9079 C   0  0  0  0  0  0  0  0  0  0  0  0
    6.7927   -2.6864   20.6334 H   0  0  0  0  0  0  0  0  0  0  0  0
    8.4585   -2.1940   20.1763 H   0  0  0  0  0  0  0  0  0  0  0  0
    5.4476    0.6688   20.1627 C   0  0  0  0  0  0  0  0  0  0  0  0
    5.0267    0.6210   21.1692 H   0  0  0  0  0  0  0  0  0  0  0  0
    4.8083    1.3147   19.0991 C   0  0  0  0  0  0  0  0  0  0  0  0
    3.8764    1.8381   19.2570 H   0  0  0  0  0  0  0  0  0  0  0  0
  1  2  1  0
  2  3  2  0
  3  4  1  0
  4  5  1  0
  4  6  2  0
  6  7  1  0
  7  8  1  0
  8  9  1  0
  9 10  1  0
  9 11  1  0
 11 12  1  0
 11 13  1  0
 11 14  1  0
 14 15  1  0
 14 16  1  0
 14 17  1  0
 17 18  1  0
 17 19  1  0
 17 20  1  0
 20 21  1  0
 20 22  1  0
  8 23  2  0
 23 24  1  0
 24 25  1  0
 24 26  1  0
 24 27  1  0
 27 28  1  0
 27 29  1  0
  6 30  1  0
 30 31  1  0
 30 32  2  0
 32 33  1  0
 32  2  1  0
 27  7  1  0
 20  9  1  0
M  END
>  <cnnaffinity>  (1) 
-4.63063

>  <filename>  (1) 
c1cncc(N2CCN=C2C2CCCC2)c1

$$$$
