
     RDKit          3D

 34 37  0  0  0  0  0  0  0  0999 V2000
    4.8885    1.9309   16.7689 H   0  0  0  0  0  0  0  0  0  0  0  0
    5.4020    1.4238   17.5785 C   0  0  0  0  0  0  0  0  0  0  0  0
    6.5524    0.8130   17.2472 N   0  0  0  0  0  0  0  0  0  0  0  0
    7.2163    0.1844   18.2255 C   0  0  0  0  0  0  0  0  0  0  0  0
    8.1364   -0.3247   17.9336 H   0  0  0  0  0  0  0  0  0  0  0  0
    6.7800    0.1249   19.5632 C   0  0  0  0  0  0  0  0  0  0  0  0
    7.5095   -0.6335   20.5887 C   0  0  0  0  0  0  0  0  0  0  0  0
    8.9016   -0.9563   20.6599 C   0  0  0  0  0  0  0  0  0  0  0  0
    9.6626   -0.5867   19.9821 H   0  0  0  0  0  0  0  0  0  0  0  0
    9.0812   -1.7589   21.7598 C   0  0  0  0  0  0  0  0  0  0  0  0
    9.9578   -2.2322   22.1772 H   0  0  0  0  0  0  0  0  0  0  0  0
    7.8576   -1.9392   22.3765 N   0  0  0  0  0  0  0  0  0  0  0  0
    7.5478   -2.6359   23.5708 C   0  0  0  0  0  0  0  0  0  0  0  0
    6.6151   -3.6454   23.5679 C   0  0  0  0  0  0  0  0  0  0  0  0
    6.0782   -3.9121   22.6624 H   0  0  0  0  0  0  0  0  0  0  0  0
    6.2843   -4.3799   24.6616 N   0  0  0  0  0  0  0  0  0  0  0  0
    6.8622   -4.0800   25.8041 C   0  0  0  0  0  0  0  0  0  0  0  0
    6.5740   -4.6880   26.6590 H   0  0  0  0  0  0  0  0  0  0  0  0
    7.7894   -2.9996   25.9711 C   0  0  0  0  0  0  0  0  0  0  0  0
    8.3594   -2.6289   27.2225 C   0  0  0  0  0  0  0  0  0  0  0  0
    8.1688   -3.2879   28.0623 H   0  0  0  0  0  0  0  0  0  0  0  0
    9.1041   -1.4757   27.3386 C   0  0  0  0  0  0  0  0  0  0  0  0
    9.4806   -1.1715   28.3122 H   0  0  0  0  0  0  0  0  0  0  0  0
    9.3666   -0.6547   26.2050 C   0  0  0  0  0  0  0  0  0  0  0  0
    9.9379    0.2652   26.3351 H   0  0  0  0  0  0  0  0  0  0  0  0
    8.8840   -1.0334   24.9705 C   0  0  0  0  0  0  0  0  0  0  0  0
    9.0608   -0.4420   24.0795 H   0  0  0  0  0  0  0  0  0  0  0  0
    8.1035   -2.2198   24.8243 C   0  0  0  0  0  0  0  0  0  0  0  0
    6.9189   -1.2491   21.6594 C   0  0  0  0  0  0  0  0  0  0  0  0
    5.8831   -1.2650   21.9577 H   0  0  0  0  0  0  0  0  0  0  0  0
    5.5732    0.7730   19.8769 C   0  0  0  0  0  0  0  0  0  0  0  0
    5.2148    0.7776   20.9062 H   0  0  0  0  0  0  0  0  0  0  0  0
    4.8649    1.4263   18.8716 C   0  0  0  0  0  0  0  0  0  0  0  0
    3.9244    1.9325   19.0792 H   0  0  0  0  0  0  0  0  0  0  0  0
  1  2  1  0
  2  3  2  0
  3  4  1  0
  4  5  1  0
  4  6  2  0
  6  7  1  0
  7  8  1  0
  8  9  1  0
  8 10  2  0
 10 11  1  0
 10 12  1  0
 12 13  1  0
 13 14  2  0
 14 15  1  0
 14 16  1  0
 16 17  2  0
 17 18  1  0
 17 19  1  0
 19 20  2  0
 20 21  1  0
 20 22  1  0
 22 23  1  0
 22 24  2  0
 24 25  1  0
 24 26  1  0
 26 27  1  0
 26 28  2  0
 12 29  1  0
 29 30  1  0
  6 31  1  0
 31 32  1  0
 31 33  2  0
 33 34  1  0
 33  2  1  0
 29  7  2  0
 28 13  1  0
 28 19  1  0
M  END
>  <cnnaffinity>  (1) 
-5.46925

>  <filename>  (1) 
c1cncc(-c2ccn(-c3cncc4ccccc34)c2)c1

$$$$
