
     RDKit          3D

 40 44  0  0  0  0  0  0  0  0999 V2000
    5.0164    1.8111   16.9977 H   0  0  0  0  0  0  0  0  0  0  0  0
    5.4324    1.2959   17.8598 C   0  0  0  0  0  0  0  0  0  0  0  0
    6.5873    0.6449   17.6567 N   0  0  0  0  0  0  0  0  0  0  0  0
    7.1269    0.0126   18.7081 C   0  0  0  0  0  0  0  0  0  0  0  0
    8.0815   -0.4752   18.5029 H   0  0  0  0  0  0  0  0  0  0  0  0
    6.5715   -0.0240   20.0025 C   0  0  0  0  0  0  0  0  0  0  0  0
    7.2297   -0.8243   21.1499 C   0  0  2  0  0  0  0  0  0  0  0  0
    6.5956   -2.2230   21.2191 C   0  0  0  0  0  0  0  0  0  0  0  0
    6.9252   -3.2401   20.5025 N   0  0  0  0  0  0  0  0  0  0  0  0
    6.0874   -4.2654   20.9039 C   0  0  0  0  0  0  0  0  0  0  0  0
    6.0141   -5.6068   20.5071 C   0  0  0  0  0  0  0  0  0  0  0  0
    6.6556   -5.9958   19.7258 H   0  0  0  0  0  0  0  0  0  0  0  0
    5.0724   -6.4171   21.1285 C   0  0  0  0  0  0  0  0  0  0  0  0
    5.0263   -7.4478   20.8002 H   0  0  0  0  0  0  0  0  0  0  0  0
    4.2016   -5.9082   22.1180 C   0  0  0  0  0  0  0  0  0  0  0  0
    3.4747   -6.5768   22.5779 H   0  0  0  0  0  0  0  0  0  0  0  0
    4.2687   -4.5693   22.5277 C   0  0  0  0  0  0  0  0  0  0  0  0
    3.6376   -4.1772   23.3236 H   0  0  0  0  0  0  0  0  0  0  0  0
    5.2283   -3.7817   21.8904 C   0  0  0  0  0  0  0  0  0  0  0  0
    5.5566   -2.4687   22.0874 O   0  0  0  0  0  0  0  0  0  0  0  0
    7.1589   -0.1227   22.5580 C   0  0  0  0  0  0  0  0  0  0  0  0
    6.8133    0.9114   22.4390 H   0  0  0  0  0  0  0  0  0  0  0  0
    6.4687   -0.6384   23.2295 H   0  0  0  0  0  0  0  0  0  0  0  0
    8.6090   -0.1558   23.0925 C   0  0  2  0  0  0  0  0  0  0  0  0
    8.6779   -0.1270   24.1829 H   0  0  0  0  0  0  0  0  0  0  0  0
    9.3850    0.9689   22.3794 C   0  0  0  0  0  0  0  0  0  0  0  0
    8.8350    1.9169   22.3878 H   0  0  0  0  0  0  0  0  0  0  0  0
   10.3591    1.1530   22.8482 H   0  0  0  0  0  0  0  0  0  0  0  0
    9.5429    0.3829   20.9487 C   0  0  0  0  0  0  0  0  0  0  0  0
   10.6034    0.1944   20.7610 H   0  0  0  0  0  0  0  0  0  0  0  0
    9.1765    1.0517   20.1667 H   0  0  0  0  0  0  0  0  0  0  0  0
    8.8017   -0.9767   21.0160 C   0  0  1  0  0  0  0  0  0  0  0  0
    9.1006   -1.6659   20.2195 H   0  0  0  0  0  0  0  0  0  0  0  0
    9.2028   -1.4118   22.4332 C   0  0  0  0  0  0  0  0  0  0  0  0
    8.7532   -2.3583   22.7575 H   0  0  0  0  0  0  0  0  0  0  0  0
   10.2929   -1.5001   22.5568 H   0  0  0  0  0  0  0  0  0  0  0  0
    5.3481    0.6520   20.1748 C   0  0  0  0  0  0  0  0  0  0  0  0
    4.8569    0.6762   21.1492 H   0  0  0  0  0  0  0  0  0  0  0  0
    4.7754    1.3217   19.0920 C   0  0  0  0  0  0  0  0  0  0  0  0
    3.8508    1.8840   19.1927 H   0  0  0  0  0  0  0  0  0  0  0  0
  1  2  1  0
  2  3  2  0
  3  4  1  0
  4  5  1  0
  4  6  2  0
  7  6  1  6
  7  8  1  0
  8  9  2  0
  9 10  1  0
 10 11  2  0
 11 12  1  0
 11 13  1  0
 13 14  1  0
 13 15  2  0
 15 16  1  0
 15 17  1  0
 17 18  1  0
 17 19  2  0
 19 20  1  0
  7 21  1  0
 21 22  1  0
 21 23  1  0
 21 24  1  0
 24 25  1  1
 24 26  1  0
 26 27  1  0
 26 28  1  0
 26 29  1  0
 29 30  1  0
 29 31  1  0
 29 32  1  0
 32 33  1  6
 32 34  1  0
 34 35  1  0
 34 36  1  0
  6 37  1  0
 37 38  1  0
 37 39  2  0
 39 40  1  0
 39  2  1  0
 32  7  1  0
 20  8  1  0
 34 24  1  0
 19 10  1  0
M  END
>  <cnnaffinity>  (1) 
-5.73142

>  <filename>  (1) 
c1cncc([C@]2(c3nc4ccccc4o3)C[C@@H]3CC[C@H]2C3)c1

$$$$
