
     RDKit          3D

 34 36  0  0  0  0  0  0  0  0999 V2000
    4.9684    1.7956   16.9776 H   0  0  0  0  0  0  0  0  0  0  0  0
    5.4206    1.2932   17.8303 C   0  0  0  0  0  0  0  0  0  0  0  0
    6.5799    0.6638   17.5879 N   0  0  0  0  0  0  0  0  0  0  0  0
    7.1772    0.0544   18.6175 C   0  0  0  0  0  0  0  0  0  0  0  0
    8.1330   -0.4175   18.3961 H   0  0  0  0  0  0  0  0  0  0  0  0
    6.6363    0.0083   19.9080 C   0  0  0  0  0  0  0  0  0  0  0  0
    7.3268   -0.7548   20.9680 C   0  0  0  0  0  0  0  0  0  0  0  0
    6.6912   -1.3544   21.9005 N   0  0  0  0  0  0  0  0  0  0  0  0
    7.6829   -1.9740   22.7810 C   0  0  0  0  0  0  0  0  0  0  0  0
    7.5391   -1.5896   23.7993 H   0  0  0  0  0  0  0  0  0  0  0  0
    7.5196   -3.0602   22.8176 H   0  0  0  0  0  0  0  0  0  0  0  0
    9.0760   -1.6214   22.2149 C   0  0  0  0  0  0  0  0  0  0  0  0
    9.6772   -0.9770   22.8748 H   0  0  0  0  0  0  0  0  0  0  0  0
    9.6934   -2.4983   21.9688 H   0  0  0  0  0  0  0  0  0  0  0  0
    8.7166   -0.8879   21.0110 N   0  0  0  0  0  0  0  0  0  0  0  0
    9.6859   -0.0962   20.3777 N   0  0  0  0  0  0  0  0  0  0  0  0
   10.5945   -0.5470   20.5324 H   0  0  0  0  0  0  0  0  0  0  0  0
    9.7370    1.3159   20.8223 C   0  0  0  0  0  0  0  0  0  0  0  0
   10.5772    1.7583   20.2821 H   0  0  0  0  0  0  0  0  0  0  0  0
    8.8251    1.8194   20.4831 H   0  0  0  0  0  0  0  0  0  0  0  0
    9.9718    1.5805   22.2967 C   0  0  0  0  0  0  0  0  0  0  0  0
   11.2864    1.6133   22.7830 C   0  0  0  0  0  0  0  0  0  0  0  0
   12.1196    1.4953   22.0949 H   0  0  0  0  0  0  0  0  0  0  0  0
   11.5119    1.8292   24.1446 C   0  0  0  0  0  0  0  0  0  0  0  0
   12.5302    1.8328   24.5316 H   0  0  0  0  0  0  0  0  0  0  0  0
   10.5286    2.0337   25.0316 N   0  0  0  0  0  0  0  0  0  0  0  0
    9.2694    2.0321   24.5679 C   0  0  0  0  0  0  0  0  0  0  0  0
    8.4961    2.2029   25.3155 H   0  0  0  0  0  0  0  0  0  0  0  0
    8.9406    1.8232   23.2192 C   0  0  0  0  0  0  0  0  0  0  0  0
    7.9036    1.8470   22.8871 H   0  0  0  0  0  0  0  0  0  0  0  0
    5.4154    0.6578   20.1519 C   0  0  0  0  0  0  0  0  0  0  0  0
    4.9651    0.6295   21.1479 H   0  0  0  0  0  0  0  0  0  0  0  0
    4.8034    1.3207   19.0893 C   0  0  0  0  0  0  0  0  0  0  0  0
    3.8635    1.8531   19.2140 H   0  0  0  0  0  0  0  0  0  0  0  0
  1  2  1  0
  2  3  2  0
  3  4  1  0
  4  5  1  0
  4  6  2  0
  6  7  1  0
  7  8  2  0
  8  9  1  0
  9 10  1  0
  9 11  1  0
  9 12  1  0
 12 13  1  0
 12 14  1  0
 12 15  1  0
 15 16  1  0
 16 17  1  0
 16 18  1  0
 18 19  1  0
 18 20  1  0
 18 21  1  0
 21 22  2  0
 22 23  1  0
 22 24  1  0
 24 25  1  0
 24 26  2  0
 26 27  1  0
 27 28  1  0
 27 29  2  0
 29 30  1  0
  6 31  1  0
 31 32  1  0
 31 33  2  0
 33 34  1  0
 33  2  1  0
 15  7  1  0
 29 21  1  0
M  END
>  <cnnaffinity>  (1) 
-5.05262

>  <filename>  (1) 
c1cncc(C2=NCCN2NCc2ccncc2)c1

$$$$
