
     RDKit          3D

 28 31  0  0  0  0  0  0  0  0999 V2000
    5.4835    3.5337   28.1127 H   0  0  0  0  0  0  0  0  0  0  0  0
    5.8281    2.8761   27.3156 C   0  0  0  0  0  0  0  0  0  0  0  0
    6.6761    1.9092   27.6660 N   0  0  0  0  0  0  0  0  0  0  0  0
    7.0989    1.1058   26.7001 C   0  0  0  0  0  0  0  0  0  0  0  0
    7.7942    0.3125   26.9980 H   0  0  0  0  0  0  0  0  0  0  0  0
    6.6831    1.2561   25.3802 C   0  0  0  0  0  0  0  0  0  0  0  0
    7.1344    0.3797   24.3263 C   0  0  0  0  0  0  0  0  0  0  0  0
    6.7437    0.5409   23.1022 N   0  0  0  0  0  0  0  0  0  0  0  0
    7.3256   -0.4096   22.3410 N   0  0  0  0  0  0  0  0  0  0  0  0
    7.4026   -0.6636   20.9753 C   0  0  0  0  0  0  0  0  0  0  0  0
    6.6574    0.0313   19.9123 C   0  0  0  0  0  0  0  0  0  0  0  0
    7.1531    0.0749   18.5874 C   0  0  0  0  0  0  0  0  0  0  0  0
    8.1040   -0.3961   18.3436 H   0  0  0  0  0  0  0  0  0  0  0  0
    6.5444    0.6837   17.5656 N   0  0  0  0  0  0  0  0  0  0  0  0
    5.3809    1.3030   17.8216 C   0  0  0  0  0  0  0  0  0  0  0  0
    4.9127    1.8063   16.9755 H   0  0  0  0  0  0  0  0  0  0  0  0
    4.7898    1.3156   19.0885 C   0  0  0  0  0  0  0  0  0  0  0  0
    3.8593    1.8494   19.2353 H   0  0  0  0  0  0  0  0  0  0  0  0
    5.4276    0.6679   20.1497 C   0  0  0  0  0  0  0  0  0  0  0  0
    5.0154    0.6552   21.1567 H   0  0  0  0  0  0  0  0  0  0  0  0
    8.3086   -1.6960   20.9152 C   0  0  0  0  0  0  0  0  0  0  0  0
    8.7026   -2.1174   20.0126 H   0  0  0  0  0  0  0  0  0  0  0  0
    8.7679   -2.1068   22.1349 N   0  0  0  0  0  0  0  0  0  0  0  0
    8.1652   -1.2894   22.9574 C   0  0  0  0  0  0  0  0  0  0  0  0
    8.2478   -0.9503   24.6434 S   0  0  0  0  0  0  0  0  0  0  0  0
    5.7966    2.3024   25.1206 C   0  0  0  0  0  0  0  0  0  0  0  0
    5.4137    2.5050   24.1150 H   0  0  0  0  0  0  0  0  0  0  0  0
    5.3685    3.1085   26.0871 N   0  0  0  0  0  0  0  0  0  0  0  0
  1  2  1  0
  2  3  2  0
  3  4  1  0
  4  5  1  0
  4  6  2  0
  6  7  1  0
  7  8  2  0
  8  9  1  0
  9 10  1  0
 10 11  1  0
 11 12  2  0
 12 13  1  0
 12 14  1  0
 14 15  2  0
 15 16  1  0
 15 17  1  0
 17 18  1  0
 17 19  2  0
 19 20  1  0
 10 21  2  0
 21 22  1  0
 21 23  1  0
 23 24  2  0
 24 25  1  0
  6 26  1  0
 26 27  1  0
 26 28  2  0
 28  2  1  0
 25  7  1  0
 24  9  1  0
 19 11  1  0
M  END
>  <cnnaffinity>  (1) 
-5.17886

>  <filename>  (1) 
c1cncc(-c2cnc3sc(-c4cncnc4)nn23)c1

$$$$
