
     RDKit          3D

 47 50  0  0  0  0  0  0  0  0999 V2000
    4.7862    1.3725   18.9679 C   0  0  0  0  0  0  0  0  0  0  0  0
    5.4113    1.3221   17.7213 C   0  0  0  0  0  0  0  0  0  0  0  0
    6.5398    0.6232   17.5006 N   0  0  0  0  0  0  0  0  0  0  0  0
    7.0934   -0.0246   18.5324 C   0  0  0  0  0  0  0  0  0  0  0  0
    6.5880    0.0404   19.8438 C   0  0  0  0  0  0  0  0  0  0  0  0
    7.2962   -0.5872   20.9168 N   0  0  0  0  0  0  0  0  0  0  0  0
    7.5814   -1.9127   20.8472 N   0  0  0  0  0  0  0  0  0  0  0  0
    8.1558   -2.1626   22.0167 C   0  0  0  0  0  0  0  0  0  0  0  0
    8.6819   -3.5199   22.4178 C   0  0  0  0  0  0  0  0  0  0  0  0
    7.9129   -4.6988   21.7859 C   0  0  0  0  0  0  0  0  0  0  0  0
    8.2904   -5.9236   22.6275 C   0  0  0  0  0  0  0  0  0  0  0  0
    8.6156   -5.4019   24.0457 C   0  0  0  0  0  0  0  0  0  0  0  0
    8.7041   -3.8556   23.9380 C   0  0  0  0  0  0  0  0  0  0  0  0
    9.6224   -3.4758   24.4018 H   0  0  0  0  0  0  0  0  0  0  0  0
    7.8550   -3.3896   24.4526 H   0  0  0  0  0  0  0  0  0  0  0  0
    9.5602   -5.8301   24.4119 H   0  0  0  0  0  0  0  0  0  0  0  0
    7.8358   -5.7103   24.7538 H   0  0  0  0  0  0  0  0  0  0  0  0
    9.1670   -6.4153   22.1975 H   0  0  0  0  0  0  0  0  0  0  0  0
    7.4996   -6.6806   22.6282 H   0  0  0  0  0  0  0  0  0  0  0  0
    8.1631   -4.8419   20.7290 H   0  0  0  0  0  0  0  0  0  0  0  0
    6.8352   -4.4868   21.8559 H   0  0  0  0  0  0  0  0  0  0  0  0
    9.7248   -3.4795   22.0815 H   0  0  0  0  0  0  0  0  0  0  0  0
    8.3133   -1.0751   22.8018 N   0  0  0  0  0  0  0  0  0  0  0  0
    7.7682   -0.0974   22.1019 C   0  0  0  0  0  0  0  0  0  0  0  0
    7.7416    1.3173   22.5880 C   0  0  0  0  0  0  0  0  0  0  0  0
    7.4422    1.4252   24.1022 C   0  0  0  0  0  0  0  0  0  0  0  0
    7.5059    2.8711   24.6001 C   0  0  0  0  0  0  0  0  0  0  0  0
    7.2314    2.9589   26.1181 C   0  0  0  0  0  0  0  0  0  0  0  0
    6.2506    1.8652   26.6091 C   0  0  0  0  0  0  0  0  0  0  0  0
    5.4206    1.3665   25.5791 O   0  0  0  0  0  0  0  0  0  0  0  0
    6.0824    0.7784   24.4703 C   0  0  0  0  0  0  0  0  0  0  0  0
    5.3712    0.8812   23.6389 H   0  0  0  0  0  0  0  0  0  0  0  0
    6.2334   -0.3039   24.6253 H   0  0  0  0  0  0  0  0  0  0  0  0
    6.8067    1.0443   27.0941 H   0  0  0  0  0  0  0  0  0  0  0  0
    5.5603    2.2710   27.3542 H   0  0  0  0  0  0  0  0  0  0  0  0
    8.1643    2.8493   26.6841 H   0  0  0  0  0  0  0  0  0  0  0  0
    6.8350    3.9519   26.3547 H   0  0  0  0  0  0  0  0  0  0  0  0
    8.4901    3.3020   24.3728 H   0  0  0  0  0  0  0  0  0  0  0  0
    6.7685    3.4751   24.0524 H   0  0  0  0  0  0  0  0  0  0  0  0
    8.2217    0.8511   24.6284 H   0  0  0  0  0  0  0  0  0  0  0  0
    7.0292    1.9090   22.0046 H   0  0  0  0  0  0  0  0  0  0  0  0
    8.7334    1.7422   22.3930 H   0  0  0  0  0  0  0  0  0  0  0  0
    5.3855    0.7263   20.0546 C   0  0  0  0  0  0  0  0  0  0  0  0
    4.9168    0.7382   21.0398 H   0  0  0  0  0  0  0  0  0  0  0  0
    7.9862   -0.6029   18.3073 H   0  0  0  0  0  0  0  0  0  0  0  0
    4.9930    1.8480   16.8648 H   0  0  0  0  0  0  0  0  0  0  0  0
    3.8526    1.9131   19.0796 H   0  0  0  0  0  0  0  0  0  0  0  0
  1  2  2  0
  2  3  1  0
  3  4  2  0
  4  5  1  0
  5  6  1  0
  6  7  1  0
  7  8  2  0
  8  9  1  0
  9 10  1  0
 10 11  1  0
 11 12  1  0
 12 13  1  0
 13 14  1  0
 13 15  1  0
 12 16  1  0
 12 17  1  0
 11 18  1  0
 11 19  1  0
 10 20  1  0
 10 21  1  0
  9 22  1  0
  8 23  1  0
 23 24  2  0
 24 25  1  0
 25 26  1  0
 26 27  1  0
 27 28  1  0
 28 29  1  0
 29 30  1  0
 30 31  1  0
 31 32  1  0
 31 33  1  0
 29 34  1  0
 29 35  1  0
 28 36  1  0
 28 37  1  0
 27 38  1  0
 27 39  1  0
 26 40  1  0
 25 41  1  0
 25 42  1  0
  5 43  2  0
 43 44  1  0
  4 45  1  0
  2 46  1  0
  1 47  1  0
 43  1  1  0
 24  6  1  0
 31 26  1  0
 13  9  1  0
M  END
>  <cnnaffinity>  (1) 
-5.94427

>  <filename>  (1) 
c1cncc(-n2nc(C3CCCC3)nc2CC2CCCOC2)c1

$$$$
