
     RDKit          3D

 25 27  0  0  0  0  0  0  0  0999 V2000
    9.2770   -3.3137   21.3280 H   0  0  0  0  0  0  0  0  0  0  0  0
    8.7279   -2.4273   21.6272 C   0  0  0  0  0  0  0  0  0  0  0  0
    8.1084   -1.7973   20.6377 N   0  0  0  0  0  0  0  0  0  0  0  0
    7.4050   -0.7183   20.9807 C   0  0  0  0  0  0  0  0  0  0  0  0
    6.6620   -0.0099   19.9166 C   0  0  0  0  0  0  0  0  0  0  0  0
    7.1781    0.0435   18.6137 C   0  0  0  0  0  0  0  0  0  0  0  0
    8.1240   -0.4331   18.3736 H   0  0  0  0  0  0  0  0  0  0  0  0
    6.5749    0.6721   17.5998 N   0  0  0  0  0  0  0  0  0  0  0  0
    5.4089    1.2854   17.8508 C   0  0  0  0  0  0  0  0  0  0  0  0
    4.9270    1.7745   17.0055 H   0  0  0  0  0  0  0  0  0  0  0  0
    4.8107    1.3011   19.1140 C   0  0  0  0  0  0  0  0  0  0  0  0
    3.8815    1.8375   19.2625 H   0  0  0  0  0  0  0  0  0  0  0  0
    5.4455    0.6454   20.1653 C   0  0  0  0  0  0  0  0  0  0  0  0
    4.9980    0.6314   21.1628 H   0  0  0  0  0  0  0  0  0  0  0  0
    7.3766   -0.2673   22.2875 C   0  0  0  0  0  0  0  0  0  0  0  0
    6.8572    0.6241   22.5747 H   0  0  0  0  0  0  0  0  0  0  0  0
    8.0794   -0.9984   23.2314 C   0  0  0  0  0  0  0  0  0  0  0  0
    8.0905   -0.5901   24.5935 N   0  0  0  0  0  0  0  0  0  0  0  0
    7.4327    0.5133   25.0823 N   0  0  0  0  0  0  0  0  0  0  0  0
    7.7356    0.4756   26.3588 C   0  0  0  0  0  0  0  0  0  0  0  0
    7.3687    1.2231   27.0551 H   0  0  0  0  0  0  0  0  0  0  0  0
    8.5321   -0.5618   26.7342 N   0  0  0  0  0  0  0  0  0  0  0  0
    8.7370   -1.2030   25.6147 C   0  0  0  0  0  0  0  0  0  0  0  0
    9.3366   -2.0960   25.5123 H   0  0  0  0  0  0  0  0  0  0  0  0
    8.7614   -2.0952   22.9213 N   0  0  0  0  0  0  0  0  0  0  0  0
  1  2  1  0
  2  3  2  0
  3  4  1  0
  4  5  1  0
  5  6  2  0
  6  7  1  0
  6  8  1  0
  8  9  2  0
  9 10  1  0
  9 11  1  0
 11 12  1  0
 11 13  2  0
 13 14  1  0
  4 15  2  0
 15 16  1  0
 15 17  1  0
 17 18  1  0
 18 19  1  0
 19 20  2  0
 20 21  1  0
 20 22  1  0
 22 23  2  0
 23 24  1  0
 17 25  2  0
 25  2  1  0
 13  5  1  0
 23 18  1  0
M  END
>  <cnnaffinity>  (1) 
-4.74416

>  <filename>  (1) 
c1cncc(-c2cc(-n3cncn3)ncn2)c1

$$$$
