
     RDKit          3D

 41 45  0  0  0  0  0  0  0  0999 V2000
    4.9954    1.8070   16.8188 H   0  0  0  0  0  0  0  0  0  0  0  0
    5.4722    1.3502   17.6843 C   0  0  0  0  0  0  0  0  0  0  0  0
    6.6520    0.7469   17.4648 N   0  0  0  0  0  0  0  0  0  0  0  0
    7.2490    0.1483   18.5009 C   0  0  0  0  0  0  0  0  0  0  0  0
    8.2016   -0.3303   18.2805 H   0  0  0  0  0  0  0  0  0  0  0  0
    6.7058    0.0993   19.8006 C   0  0  0  0  0  0  0  0  0  0  0  0
    7.3437   -0.6933   20.8770 C   0  0  0  0  0  0  0  0  0  0  0  0
    8.5420   -1.2695   20.6936 N   0  0  0  0  0  0  0  0  0  0  0  0
    8.7099   -1.9825   21.8270 N   0  0  0  0  0  0  0  0  0  0  0  0
    9.7546   -2.7339   22.3471 C   0  0  0  0  0  0  0  0  0  0  0  0
   10.7002   -2.7777   21.8330 H   0  0  0  0  0  0  0  0  0  0  0  0
    9.3053   -3.2010   23.5372 C   0  0  0  0  0  0  0  0  0  0  0  0
    9.7647   -3.7685   24.3291 H   0  0  0  0  0  0  0  0  0  0  0  0
    8.0039   -2.7664   23.7457 N   0  0  0  0  0  0  0  0  0  0  0  0
    7.3601   -3.0524   24.9374 N   0  0  0  0  0  0  0  0  0  0  0  0
    6.4147   -2.0339   25.4230 C   0  0  0  0  0  0  0  0  0  0  0  0
    5.4940   -2.0203   24.8047 H   0  0  0  0  0  0  0  0  0  0  0  0
    6.8589   -1.0356   25.3265 H   0  0  0  0  0  0  0  0  0  0  0  0
    5.9858   -2.3165   26.8601 C   0  0  0  0  0  0  0  0  0  0  0  0
    5.4431   -1.2952   27.6565 C   0  0  0  0  0  0  0  0  0  0  0  0
    5.4390   -0.2705   27.2865 H   0  0  0  0  0  0  0  0  0  0  0  0
    4.8974   -1.5812   28.9130 C   0  0  0  0  0  0  0  0  0  0  0  0
    4.5089   -0.7805   29.5402 H   0  0  0  0  0  0  0  0  0  0  0  0
    4.8830   -2.8986   29.3831 C   0  0  0  0  0  0  0  0  0  0  0  0
    4.4759   -3.1275   30.3655 H   0  0  0  0  0  0  0  0  0  0  0  0
    5.4360   -3.9167   28.5992 C   0  0  0  0  0  0  0  0  0  0  0  0
    5.4085   -4.9464   28.9448 H   0  0  0  0  0  0  0  0  0  0  0  0
    6.0427   -3.6309   27.3700 C   0  0  0  0  0  0  0  0  0  0  0  0
    6.8051   -4.6962   26.5985 C   0  0  0  0  0  0  0  0  0  0  0  0
    6.3940   -5.6852   26.8219 H   0  0  0  0  0  0  0  0  0  0  0  0
    7.8539   -4.7065   26.9270 H   0  0  0  0  0  0  0  0  0  0  0  0
    6.8002   -4.4080   25.0965 C   0  0  0  0  0  0  0  0  0  0  0  0
    5.7775   -4.4686   24.6859 H   0  0  0  0  0  0  0  0  0  0  0  0
    7.3856   -5.1555   24.5507 H   0  0  0  0  0  0  0  0  0  0  0  0
    7.6726   -1.9243   22.6889 C   0  0  0  0  0  0  0  0  0  0  0  0
    6.7796   -1.0057   22.1418 C   0  0  0  0  0  0  0  0  0  0  0  0
    5.9668   -0.5148   22.6406 H   0  0  0  0  0  0  0  0  0  0  0  0
    5.4895    0.7720   20.0127 C   0  0  0  0  0  0  0  0  0  0  0  0
    5.0549    0.8085   21.0110 H   0  0  0  0  0  0  0  0  0  0  0  0
    4.8592    1.3943   18.9392 C   0  0  0  0  0  0  0  0  0  0  0  0
    3.9133    1.9127   19.0622 H   0  0  0  0  0  0  0  0  0  0  0  0
  1  2  1  0
  2  3  2  0
  3  4  1  0
  4  5  1  0
  4  6  2  0
  6  7  1  0
  7  8  2  0
  8  9  1  0
  9 10  1  0
 10 11  1  0
 10 12  2  0
 12 13  1  0
 12 14  1  0
 14 15  1  0
 15 16  1  0
 16 17  1  0
 16 18  1  0
 16 19  1  0
 19 20  2  0
 20 21  1  0
 20 22  1  0
 22 23  1  0
 22 24  2  0
 24 25  1  0
 24 26  1  0
 26 27  1  0
 26 28  2  0
 28 29  1  0
 29 30  1  0
 29 31  1  0
 29 32  1  0
 32 33  1  0
 32 34  1  0
 14 35  1  0
 35 36  2  0
 36 37  1  0
  6 38  1  0
 38 39  1  0
 38 40  2  0
 40 41  1  0
 40  2  1  0
 36  7  1  0
 35  9  1  0
 32 15  1  0
 28 19  1  0
M  END
>  <cnnaffinity>  (1) 
-5.59621

>  <filename>  (1) 
c1cncc(-c2cc3n(N4CCc5ccccc5C4)ccn3n2)c1

$$$$
