
     RDKit          3D

 33 36  0  0  0  0  0  0  0  0999 V2000
    4.9161    1.7810   16.9937 H   0  0  0  0  0  0  0  0  0  0  0  0
    5.4006    1.2938   17.8368 C   0  0  0  0  0  0  0  0  0  0  0  0
    6.5655    0.6754   17.5820 N   0  0  0  0  0  0  0  0  0  0  0  0
    7.1780    0.0626   18.5989 C   0  0  0  0  0  0  0  0  0  0  0  0
    8.1168   -0.4339   18.3682 H   0  0  0  0  0  0  0  0  0  0  0  0
    6.6628    0.0084   19.9062 C   0  0  0  0  0  0  0  0  0  0  0  0
    7.3651   -0.6768   20.9293 N   0  0  0  0  0  0  0  0  0  0  0  0
    8.7435   -0.7967   21.0527 C   0  0  0  0  0  0  0  0  0  0  0  0
    9.4035   -0.3216   20.3376 H   0  0  0  0  0  0  0  0  0  0  0  0
    9.0108   -1.5097   22.1844 C   0  0  0  0  0  0  0  0  0  0  0  0
    9.9902   -1.7323   22.5853 H   0  0  0  0  0  0  0  0  0  0  0  0
    7.7653   -1.8563   22.8053 C   0  0  0  0  0  0  0  0  0  0  0  0
    7.5478   -2.5888   24.0590 C   0  0  0  0  0  0  0  0  0  0  0  0
    6.5016   -2.2421   24.9248 C   0  0  0  0  0  0  0  0  0  0  0  0
    5.8436   -1.4183   24.6498 H   0  0  0  0  0  0  0  0  0  0  0  0
    6.3053   -2.9201   26.1469 C   0  0  0  0  0  0  0  0  0  0  0  0
    5.4846   -2.6198   26.7945 H   0  0  0  0  0  0  0  0  0  0  0  0
    7.1373   -3.9686   26.5320 C   0  0  0  0  0  0  0  0  0  0  0  0
    6.9992   -4.5106   27.4657 H   0  0  0  0  0  0  0  0  0  0  0  0
    8.1707   -4.3234   25.6567 C   0  0  0  0  0  0  0  0  0  0  0  0
    8.3965   -3.6636   24.4279 C   0  0  0  0  0  0  0  0  0  0  0  0
    9.4993   -4.3384   23.8070 C   0  0  0  0  0  0  0  0  0  0  0  0
    9.8791   -4.0748   22.8357 H   0  0  0  0  0  0  0  0  0  0  0  0
    9.9067   -5.3366   24.6435 C   0  0  0  0  0  0  0  0  0  0  0  0
   10.7037   -6.0634   24.5377 H   0  0  0  0  0  0  0  0  0  0  0  0
    9.1041   -5.3236   25.7622 N   0  0  0  0  0  0  0  0  0  0  0  0
    9.1605   -5.9552   26.5396 H   0  0  0  0  0  0  0  0  0  0  0  0
    6.7918   -1.3288   21.9973 C   0  0  0  0  0  0  0  0  0  0  0  0
    5.7182   -1.3994   22.0826 H   0  0  0  0  0  0  0  0  0  0  0  0
    5.4379    0.6485   20.1620 C   0  0  0  0  0  0  0  0  0  0  0  0
    5.0093    0.6428   21.1664 H   0  0  0  0  0  0  0  0  0  0  0  0
    4.8084    1.3101   19.1051 C   0  0  0  0  0  0  0  0  0  0  0  0
    3.8754    1.8416   19.2613 H   0  0  0  0  0  0  0  0  0  0  0  0
  1  2  1  0
  2  3  2  0
  3  4  1  0
  4  5  1  0
  4  6  2  0
  6  7  1  0
  7  8  1  0
  8  9  1  0
  8 10  2  0
 10 11  1  0
 10 12  1  0
 12 13  1  0
 13 14  2  0
 14 15  1  0
 14 16  1  0
 16 17  1  0
 16 18  2  0
 18 19  1  0
 18 20  1  0
 20 21  2  0
 21 22  1  0
 22 23  1  0
 22 24  2  0
 24 25  1  0
 24 26  1  0
 26 27  1  0
 12 28  2  0
 28 29  1  0
  6 30  1  0
 30 31  1  0
 30 32  2  0
 32 33  1  0
 32  2  1  0
 28  7  1  0
 21 13  1  0
 26 20  1  0
M  END
>  <cnnaffinity>  (1) 
-5.23393

>  <filename>  (1) 
c1cncc(-n2ccc(-c3cccc4[nH]ccc34)c2)c1

$$$$
