
     RDKit          3D

 39 42  0  0  0  0  0  0  0  0999 V2000
    4.8130    1.3090   19.1107 C   0  0  0  0  0  0  0  0  0  0  0  0
    5.4007    1.2956   17.8391 C   0  0  0  0  0  0  0  0  0  0  0  0
    6.5607    0.6740   17.5787 N   0  0  0  0  0  0  0  0  0  0  0  0
    7.1699    0.0534   18.5947 C   0  0  0  0  0  0  0  0  0  0  0  0
    6.6618    0.0043   19.9039 C   0  0  0  0  0  0  0  0  0  0  0  0
    7.3749   -0.6657   20.9400 N   0  0  0  0  0  0  0  0  0  0  0  0
    6.7511   -1.5814   21.7222 N   0  0  0  0  0  0  0  0  0  0  0  0
    7.6890   -1.9308   22.5855 C   0  0  0  0  0  0  0  0  0  0  0  0
    7.4239   -2.8577   23.7219 C   0  0  0  0  0  0  0  0  0  0  0  0
    6.3731   -2.3440   24.7591 C   0  0  0  0  0  0  0  0  0  0  0  0
    5.4560   -3.5331   24.3989 C   0  0  0  0  0  0  0  0  0  0  0  0
    6.5093   -4.0749   23.4064 C   0  0  0  0  0  0  0  0  0  0  0  0
    6.9401   -5.0434   23.6732 H   0  0  0  0  0  0  0  0  0  0  0  0
    6.1816   -4.1194   22.3629 H   0  0  0  0  0  0  0  0  0  0  0  0
    5.2227   -4.1989   25.2336 H   0  0  0  0  0  0  0  0  0  0  0  0
    4.5111   -3.2421   23.9308 H   0  0  0  0  0  0  0  0  0  0  0  0
    5.9673   -1.3534   24.5212 H   0  0  0  0  0  0  0  0  0  0  0  0
    6.7237   -2.3179   25.7939 H   0  0  0  0  0  0  0  0  0  0  0  0
    8.3882   -3.1139   24.1630 H   0  0  0  0  0  0  0  0  0  0  0  0
    8.8835   -1.3100   22.4141 N   0  0  0  0  0  0  0  0  0  0  0  0
    8.6480   -0.4955   21.4023 C   0  0  0  0  0  0  0  0  0  0  0  0
    9.5323    0.6094   20.9365 C   0  0  0  0  0  0  0  0  0  0  0  0
    9.0511    2.0148   21.3901 C   0  0  0  0  0  0  0  0  0  0  0  0
    8.8793    2.1104   22.8804 C   0  0  0  0  0  0  0  0  0  0  0  0
    7.7605    1.8742   23.6189 C   0  0  0  0  0  0  0  0  0  0  0  0
    7.8809    1.8868   24.9841 N   0  0  0  0  0  0  0  0  0  0  0  0
    9.1178    2.1269   25.2959 C   0  0  0  0  0  0  0  0  0  0  0  0
   10.1949    2.3526   23.9684 S   0  0  0  0  0  0  0  0  0  0  0  0
    9.4804    2.2117   26.3089 H   0  0  0  0  0  0  0  0  0  0  0  0
    6.7985    1.6455   23.1817 H   0  0  0  0  0  0  0  0  0  0  0  0
    8.0925    2.2360   20.9027 H   0  0  0  0  0  0  0  0  0  0  0  0
    9.7660    2.7646   21.0384 H   0  0  0  0  0  0  0  0  0  0  0  0
    9.6054    0.5852   19.8477 H   0  0  0  0  0  0  0  0  0  0  0  0
   10.5248    0.4014   21.3399 H   0  0  0  0  0  0  0  0  0  0  0  0
    5.4423    0.6405   20.1670 C   0  0  0  0  0  0  0  0  0  0  0  0
    5.0126    0.6089   21.1716 H   0  0  0  0  0  0  0  0  0  0  0  0
    8.1143   -0.4343   18.3687 H   0  0  0  0  0  0  0  0  0  0  0  0
    4.9185    1.7846   16.9943 H   0  0  0  0  0  0  0  0  0  0  0  0
    3.8800    1.8390   19.2630 H   0  0  0  0  0  0  0  0  0  0  0  0
  1  2  2  0
  2  3  1  0
  3  4  2  0
  4  5  1  0
  5  6  1  0
  6  7  1  0
  7  8  2  0
  8  9  1  0
  9 10  1  0
 10 11  1  0
 11 12  1  0
 12 13  1  0
 12 14  1  0
 11 15  1  0
 11 16  1  0
 10 17  1  0
 10 18  1  0
  9 19  1  0
  8 20  1  0
 20 21  2  0
 21 22  1  0
 22 23  1  0
 23 24  1  0
 24 25  2  0
 25 26  1  0
 26 27  2  0
 27 28  1  0
 27 29  1  0
 25 30  1  0
 23 31  1  0
 23 32  1  0
 22 33  1  0
 22 34  1  0
  5 35  2  0
 35 36  1  0
  4 37  1  0
  2 38  1  0
  1 39  1  0
 35  1  1  0
 21  6  1  0
 28 24  1  0
 12  9  1  0
M  END
>  <cnnaffinity>  (1) 
-5.96018

>  <filename>  (1) 
c1cncc(-n2nc(C3CCC3)nc2CCc2cncs2)c1

$$$$
