
     RDKit          3D

 44 47  0  0  0  0  0  0  0  0999 V2000
    4.8143    1.3039   19.1131 C   0  0  0  0  0  0  0  0  0  0  0  0
    5.4032    1.2915   17.8428 C   0  0  0  0  0  0  0  0  0  0  0  0
    6.5597    0.6653   17.5790 N   0  0  0  0  0  0  0  0  0  0  0  0
    7.1760    0.0473   18.5924 C   0  0  0  0  0  0  0  0  0  0  0  0
    6.6771    0.0127   19.9046 C   0  0  0  0  0  0  0  0  0  0  0  0
    7.3813   -0.6512   20.9493 N   0  0  0  0  0  0  0  0  0  0  0  0
    6.7509   -1.5990   21.6889 N   0  0  0  0  0  0  0  0  0  0  0  0
    7.6832   -1.9757   22.5456 C   0  0  0  0  0  0  0  0  0  0  0  0
    7.4533   -2.9773   23.6259 C   0  0  0  0  0  0  0  0  0  0  0  0
    6.7214   -4.2855   23.1874 C   0  0  0  0  0  0  0  0  0  0  0  0
    5.5281   -3.9255   24.1100 C   0  0  0  0  0  0  0  0  0  0  0  0
    6.2680   -2.6535   24.5982 C   0  0  0  0  0  0  0  0  0  0  0  0
    6.5415   -2.6429   25.6596 H   0  0  0  0  0  0  0  0  0  0  0  0
    5.7660   -1.7013   24.3827 H   0  0  0  0  0  0  0  0  0  0  0  0
    5.3010   -4.6618   24.8899 H   0  0  0  0  0  0  0  0  0  0  0  0
    4.5952   -3.7188   23.5713 H   0  0  0  0  0  0  0  0  0  0  0  0
    7.2568   -5.2065   23.4432 H   0  0  0  0  0  0  0  0  0  0  0  0
    6.4892   -4.3225   22.1150 H   0  0  0  0  0  0  0  0  0  0  0  0
    8.4240   -3.1212   24.1173 H   0  0  0  0  0  0  0  0  0  0  0  0
    8.8726   -1.3337   22.4109 N   0  0  0  0  0  0  0  0  0  0  0  0
    8.6519   -0.4887   21.4210 C   0  0  0  0  0  0  0  0  0  0  0  0
    9.5533    0.5970   20.9371 C   0  0  0  0  0  0  0  0  0  0  0  0
    9.0664    2.0071   21.3173 C   0  0  0  0  0  0  0  0  0  0  0  0
    8.9401    2.2220   22.8387 C   0  0  0  0  0  0  0  0  0  0  0  0
   10.1969    2.0488   23.5520 N   0  0  0  0  0  0  0  0  0  0  0  0
   11.2982    2.8372   23.3778 C   0  0  0  0  0  0  0  0  0  0  0  0
   12.3535    2.2875   24.0614 C   0  0  0  0  0  0  0  0  0  0  0  0
   11.8622    1.1245   24.7169 C   0  0  0  0  0  0  0  0  0  0  0  0
   10.5404    0.9965   24.3578 C   0  0  0  0  0  0  0  0  0  0  0  0
    9.8303    0.1953   24.5048 H   0  0  0  0  0  0  0  0  0  0  0  0
   12.4078    0.4710   25.3886 H   0  0  0  0  0  0  0  0  0  0  0  0
   13.3753    2.6534   24.0219 H   0  0  0  0  0  0  0  0  0  0  0  0
   11.2239    3.7396   22.7881 H   0  0  0  0  0  0  0  0  0  0  0  0
    8.5637    3.2322   23.0428 H   0  0  0  0  0  0  0  0  0  0  0  0
    8.2297    1.5030   23.2642 H   0  0  0  0  0  0  0  0  0  0  0  0
    9.7703    2.7382   20.9067 H   0  0  0  0  0  0  0  0  0  0  0  0
    8.0950    2.2098   20.8505 H   0  0  0  0  0  0  0  0  0  0  0  0
    9.6124    0.5098   19.8500 H   0  0  0  0  0  0  0  0  0  0  0  0
   10.5521    0.4140   21.3470 H   0  0  0  0  0  0  0  0  0  0  0  0
    5.4530    0.6389   20.1655 C   0  0  0  0  0  0  0  0  0  0  0  0
    5.0248    0.5979   21.1666 H   0  0  0  0  0  0  0  0  0  0  0  0
    8.1142   -0.4510   18.3549 H   0  0  0  0  0  0  0  0  0  0  0  0
    4.9296    1.7972   17.0036 H   0  0  0  0  0  0  0  0  0  0  0  0
    3.8789    1.8360   19.2630 H   0  0  0  0  0  0  0  0  0  0  0  0
  1  2  2  0
  2  3  1  0
  3  4  2  0
  4  5  1  0
  5  6  1  0
  6  7  1  0
  7  8  2  0
  8  9  1  0
  9 10  1  0
 10 11  1  0
 11 12  1  0
 12 13  1  0
 12 14  1  0
 11 15  1  0
 11 16  1  0
 10 17  1  0
 10 18  1  0
  9 19  1  0
  8 20  1  0
 20 21  2  0
 21 22  1  0
 22 23  1  0
 23 24  1  0
 24 25  1  0
 25 26  1  0
 26 27  2  0
 27 28  1  0
 28 29  2  0
 29 30  1  0
 28 31  1  0
 27 32  1  0
 26 33  1  0
 24 34  1  0
 24 35  1  0
 23 36  1  0
 23 37  1  0
 22 38  1  0
 22 39  1  0
  5 40  2  0
 40 41  1  0
  4 42  1  0
  2 43  1  0
  1 44  1  0
 40  1  1  0
 21  6  1  0
 29 25  1  0
 12  9  1  0
M  END
>  <cnnaffinity>  (1) 
-6.10297

>  <filename>  (1) 
c1cncc(-n2nc(C3CCC3)nc2CCCn2cccc2)c1

$$$$
