
     RDKit          3D

 48 52  0  0  0  0  0  0  0  0999 V2000
    4.8979    1.2126   19.1642 C   0  0  0  0  0  0  0  0  0  0  0  0
    5.5720    1.2340   17.9380 C   0  0  0  0  0  0  0  0  0  0  0  0
    6.6407    0.4668   17.6773 N   0  0  0  0  0  0  0  0  0  0  0  0
    7.0993   -0.3155   18.6608 C   0  0  0  0  0  0  0  0  0  0  0  0
    6.5310   -0.3641   19.9503 C   0  0  0  0  0  0  0  0  0  0  0  0
    7.1773   -1.1031   20.9861 N   0  0  0  0  0  0  0  0  0  0  0  0
    6.5323   -2.0857   21.6807 N   0  0  0  0  0  0  0  0  0  0  0  0
    7.4571   -2.5049   22.5215 C   0  0  0  0  0  0  0  0  0  0  0  0
    7.2699   -3.4326   23.6874 C   0  0  0  0  0  0  0  0  0  0  0  0
    8.3851   -4.4946   23.8520 C   0  0  0  0  0  0  0  0  0  0  0  0
    8.3587   -4.8750   25.3475 C   0  0  0  0  0  0  0  0  0  0  0  0
    7.7439   -3.6656   26.0995 C   0  0  0  0  0  0  0  0  0  0  0  0
    7.3859   -2.6376   25.0170 C   0  0  0  0  0  0  0  0  0  0  0  0
    8.2184   -1.9267   24.9114 H   0  0  0  0  0  0  0  0  0  0  0  0
    6.4863   -2.0486   25.2310 H   0  0  0  0  0  0  0  0  0  0  0  0
    6.8573   -3.9703   26.6673 H   0  0  0  0  0  0  0  0  0  0  0  0
    8.4429   -3.2318   26.8245 H   0  0  0  0  0  0  0  0  0  0  0  0
    7.7481   -5.7708   25.5135 H   0  0  0  0  0  0  0  0  0  0  0  0
    9.3641   -5.1179   25.7111 H   0  0  0  0  0  0  0  0  0  0  0  0
    9.3495   -4.0327   23.6002 H   0  0  0  0  0  0  0  0  0  0  0  0
    8.2619   -5.3633   23.1936 H   0  0  0  0  0  0  0  0  0  0  0  0
    6.2854   -3.9081   23.5979 H   0  0  0  0  0  0  0  0  0  0  0  0
    8.6600   -1.8795   22.4046 N   0  0  0  0  0  0  0  0  0  0  0  0
    8.4520   -0.9893   21.4666 C   0  0  0  0  0  0  0  0  0  0  0  0
    9.3872    0.1319   21.2015 C   0  0  0  0  0  0  0  0  0  0  0  0
    9.0352    1.3513   22.0621 C   0  0  0  0  0  0  0  0  0  0  0  0
    9.5268    1.2955   23.5340 C   0  0  0  0  0  0  0  0  0  0  0  0
   10.1428    2.7129   23.6869 C   0  0  0  0  0  0  0  0  0  0  0  0
   11.5568    2.7699   23.0744 C   0  0  0  0  0  0  0  0  0  0  0  0
   11.2160    2.6152   21.5629 C   0  0  0  0  0  0  0  0  0  0  0  0
    9.6703    2.6716   21.6114 C   0  0  0  0  0  0  0  0  0  0  0  0
    9.4100    3.4956   22.7435 O   0  0  0  0  0  0  0  0  0  0  0  0
    9.1743    3.0741   20.7309 H   0  0  0  0  0  0  0  0  0  0  0  0
   11.6403    3.4410   20.9873 H   0  0  0  0  0  0  0  0  0  0  0  0
   11.5650    1.6800   21.1145 H   0  0  0  0  0  0  0  0  0  0  0  0
   11.9787    3.7636   23.2657 H   0  0  0  0  0  0  0  0  0  0  0  0
   12.2364    2.0105   23.4723 H   0  0  0  0  0  0  0  0  0  0  0  0
   10.0473    3.1569   24.6783 H   0  0  0  0  0  0  0  0  0  0  0  0
    8.7079    1.1061   24.2373 H   0  0  0  0  0  0  0  0  0  0  0  0
   10.2919    0.5230   23.6790 H   0  0  0  0  0  0  0  0  0  0  0  0
    7.9519    1.5412   22.0560 H   0  0  0  0  0  0  0  0  0  0  0  0
   10.3845   -0.2243   21.4755 H   0  0  0  0  0  0  0  0  0  0  0  0
    9.4148    0.3810   20.1376 H   0  0  0  0  0  0  0  0  0  0  0  0
    5.3647    0.3804   20.1900 C   0  0  0  0  0  0  0  0  0  0  0  0
    4.8551    0.3182   21.1522 H   0  0  0  0  0  0  0  0  0  0  0  0
    7.9721   -0.9261   18.4292 H   0  0  0  0  0  0  0  0  0  0  0  0
    5.2335    1.8755   17.1258 H   0  0  0  0  0  0  0  0  0  0  0  0
    4.0313    1.8516   19.3033 H   0  0  0  0  0  0  0  0  0  0  0  0
  1  2  2  0
  2  3  1  0
  3  4  2  0
  4  5  1  0
  5  6  1  0
  6  7  1  0
  7  8  2  0
  8  9  1  0
  9 10  1  0
 10 11  1  0
 11 12  1  0
 12 13  1  0
 13 14  1  0
 13 15  1  0
 12 16  1  0
 12 17  1  0
 11 18  1  0
 11 19  1  0
 10 20  1  0
 10 21  1  0
  9 22  1  0
  8 23  1  0
 23 24  2  0
 24 25  1  0
 25 26  1  0
 26 27  1  0
 27 28  1  0
 28 29  1  0
 29 30  1  0
 30 31  1  0
 31 32  1  0
 31 33  1  0
 30 34  1  0
 30 35  1  0
 29 36  1  0
 29 37  1  0
 28 38  1  0
 27 39  1  0
 27 40  1  0
 26 41  1  0
 25 42  1  0
 25 43  1  0
  5 44  2  0
 44 45  1  0
  4 46  1  0
  2 47  1  0
  1 48  1  0
 44  1  1  0
 24  6  1  0
 31 26  1  0
 13  9  1  0
 32 28  1  0
M  END
>  <cnnaffinity>  (1) 
-6.27599

>  <filename>  (1) 
c1cncc(-n2nc(C3CCCC3)nc2CC2CC3CCC2O3)c1

$$$$
