
     RDKit          3D

 37 40  0  0  0  0  0  0  0  0999 V2000
    5.0141    1.6900   16.8871 H   0  0  0  0  0  0  0  0  0  0  0  0
    5.5069    1.2747   17.7653 C   0  0  0  0  0  0  0  0  0  0  0  0
    6.7081    0.7206   17.5495 N   0  0  0  0  0  0  0  0  0  0  0  0
    7.3251    0.1890   18.6136 C   0  0  0  0  0  0  0  0  0  0  0  0
    8.3019   -0.2616   18.4231 H   0  0  0  0  0  0  0  0  0  0  0  0
    6.7907    0.1690   19.9104 C   0  0  0  0  0  0  0  0  0  0  0  0
    7.4413   -0.6169   21.0171 C   0  0  0  0  0  0  0  0  0  0  0  0
    6.9405   -2.0287   21.1160 C   0  0  0  0  0  0  0  0  0  0  0  0
    5.6937   -2.3253   20.9207 N   0  0  0  0  0  0  0  0  0  0  0  0
    5.4364   -3.6621   20.9251 N   0  0  0  0  0  0  0  0  0  0  0  0
    6.5107   -4.3597   21.0698 C   0  0  0  0  0  0  0  0  0  0  0  0
    6.5739   -5.6910   20.9933 O   0  0  0  0  0  0  0  0  0  0  0  0
    5.8842   -6.4456   22.0120 C   0  0  0  0  0  0  0  0  0  0  0  0
    6.1542   -7.4745   21.7671 H   0  0  0  0  0  0  0  0  0  0  0  0
    6.3384   -6.1514   23.4456 C   0  0  0  0  0  0  0  0  0  0  0  0
    6.2698   -5.0744   23.6407 H   0  0  0  0  0  0  0  0  0  0  0  0
    7.3816   -6.4306   23.6251 H   0  0  0  0  0  0  0  0  0  0  0  0
    5.2559   -6.8930   24.2478 C   0  0  0  0  0  0  0  0  0  0  0  0
    5.2939   -6.7174   25.3278 H   0  0  0  0  0  0  0  0  0  0  0  0
    5.3465   -7.9791   24.0972 H   0  0  0  0  0  0  0  0  0  0  0  0
    3.9687   -6.4159   23.5609 C   0  0  0  0  0  0  0  0  0  0  0  0
    3.1181   -7.0820   23.7370 H   0  0  0  0  0  0  0  0  0  0  0  0
    3.6864   -5.4253   23.9414 H   0  0  0  0  0  0  0  0  0  0  0  0
    4.3434   -6.3137   22.0628 C   0  0  0  0  0  0  0  0  0  0  0  0
    3.8722   -7.1053   21.4759 H   0  0  0  0  0  0  0  0  0  0  0  0
    4.0235   -5.3599   21.6496 H   0  0  0  0  0  0  0  0  0  0  0  0
    7.9577   -3.4349   21.3409 S   0  0  0  0  0  0  0  0  0  0  0  0
    8.8787   -0.2796   21.3144 C   0  0  0  0  0  0  0  0  0  0  0  0
    9.3259    0.4880   20.6856 H   0  0  0  0  0  0  0  0  0  0  0  0
    9.5342   -1.0904   21.6135 H   0  0  0  0  0  0  0  0  0  0  0  0
    7.8218    0.1534   22.2772 C   0  0  0  0  0  0  0  0  0  0  0  0
    7.7302   -0.3438   23.2403 H   0  0  0  0  0  0  0  0  0  0  0  0
    7.5347    1.2049   22.2864 H   0  0  0  0  0  0  0  0  0  0  0  0
    5.5586    0.7963   20.1172 C   0  0  0  0  0  0  0  0  0  0  0  0
    5.1378    0.8262   21.1253 H   0  0  0  0  0  0  0  0  0  0  0  0
    4.8920    1.3422   19.0196 C   0  0  0  0  0  0  0  0  0  0  0  0
    3.9326    1.8352   19.1298 H   0  0  0  0  0  0  0  0  0  0  0  0
  1  2  1  0
  2  3  2  0
  3  4  1  0
  4  5  1  0
  4  6  2  0
  6  7  1  0
  7  8  1  0
  8  9  2  0
  9 10  1  0
 10 11  2  0
 11 12  1  0
 12 13  1  0
 13 14  1  0
 13 15  1  0
 15 16  1  0
 15 17  1  0
 15 18  1  0
 18 19  1  0
 18 20  1  0
 18 21  1  0
 21 22  1  0
 21 23  1  0
 21 24  1  0
 24 25  1  0
 24 26  1  0
 11 27  1  0
  7 28  1  0
 28 29  1  0
 28 30  1  0
 28 31  1  0
 31 32  1  0
 31 33  1  0
  6 34  1  0
 34 35  1  0
 34 36  2  0
 36 37  1  0
 36  2  1  0
 31  7  1  0
 27  8  1  0
 24 13  1  0
M  END
>  <cnnaffinity>  (1) 
-5.25225

>  <filename>  (1) 
c1cncc(C2(c3nnc(OC4CCCC4)s3)CC2)c1

$$$$
