
     RDKit          3D

 40 43  0  0  0  0  0  0  0  0999 V2000
    4.8165    1.3016   19.1133 C   0  0  0  0  0  0  0  0  0  0  0  0
    5.4014    1.2893   17.8464 C   0  0  0  0  0  0  0  0  0  0  0  0
    6.5692    0.6679   17.5977 N   0  0  0  0  0  0  0  0  0  0  0  0
    7.1794    0.0525   18.6170 C   0  0  0  0  0  0  0  0  0  0  0  0
    6.6683   -0.0023   19.9389 C   0  0  0  0  0  0  0  0  0  0  0  0
    7.4170   -0.6800   20.8546 O   0  0  0  0  0  0  0  0  0  0  0  0
    6.9702   -0.7769   22.2048 C   0  0  0  0  0  0  0  0  0  0  0  0
    8.0098   -1.5929   22.9762 C   0  0  0  0  0  0  0  0  0  0  0  0
    7.6119   -1.7900   24.3973 C   0  0  0  0  0  0  0  0  0  0  0  0
    7.0888   -2.8902   24.8919 N   0  0  0  0  0  0  0  0  0  0  0  0
    6.7411   -2.5270   26.1586 C   0  0  0  0  0  0  0  0  0  0  0  0
    6.0219   -3.4511   27.0794 C   0  0  0  0  0  0  0  0  0  0  0  0
    4.7242   -4.0891   26.6399 C   0  0  0  0  0  0  0  0  0  0  0  0
    4.7124   -3.0175   27.6882 C   0  0  0  0  0  0  0  0  0  0  0  0
    4.4959   -3.2899   28.7184 H   0  0  0  0  0  0  0  0  0  0  0  0
    4.3608   -2.0283   27.4050 H   0  0  0  0  0  0  0  0  0  0  0  0
    4.3723   -3.8388   25.6413 H   0  0  0  0  0  0  0  0  0  0  0  0
    4.5107   -5.1131   26.9397 H   0  0  0  0  0  0  0  0  0  0  0  0
    6.6820   -4.0629   27.6892 H   0  0  0  0  0  0  0  0  0  0  0  0
    7.0212   -1.2749   26.4720 N   0  0  0  0  0  0  0  0  0  0  0  0
    7.5970   -0.7973   25.3373 N   0  0  0  0  0  0  0  0  0  0  0  0
    8.0770    0.5420   25.2574 C   0  0  0  0  0  0  0  0  0  0  0  0
    9.3818    0.8256   24.8360 C   0  0  0  0  0  0  0  0  0  0  0  0
    9.7748    2.1634   24.7577 C   0  0  0  0  0  0  0  0  0  0  0  0
    8.8602    3.1618   25.0980 C   0  0  0  0  0  0  0  0  0  0  0  0
    7.6143    2.8976   25.5136 N   0  0  0  0  0  0  0  0  0  0  0  0
    7.2405    1.6186   25.6031 C   0  0  0  0  0  0  0  0  0  0  0  0
    6.2249    1.4417   25.9433 H   0  0  0  0  0  0  0  0  0  0  0  0
    9.1383    4.2130   25.0435 H   0  0  0  0  0  0  0  0  0  0  0  0
   10.7725    2.4263   24.4324 H   0  0  0  0  0  0  0  0  0  0  0  0
   10.0777    0.0195   24.6015 H   0  0  0  0  0  0  0  0  0  0  0  0
    8.9757   -1.0893   22.9055 H   0  0  0  0  0  0  0  0  0  0  0  0
    8.1191   -2.5762   22.5161 H   0  0  0  0  0  0  0  0  0  0  0  0
    6.0025   -1.2914   22.2421 H   0  0  0  0  0  0  0  0  0  0  0  0
    6.8515    0.2225   22.6508 H   0  0  0  0  0  0  0  0  0  0  0  0
    5.4465    0.6412   20.1833 C   0  0  0  0  0  0  0  0  0  0  0  0
    5.0014    0.6313   21.1790 H   0  0  0  0  0  0  0  0  0  0  0  0
    8.1247   -0.4359   18.3997 H   0  0  0  0  0  0  0  0  0  0  0  0
    4.9225    1.7802   16.9984 H   0  0  0  0  0  0  0  0  0  0  0  0
    3.8840    1.8348   19.2619 H   0  0  0  0  0  0  0  0  0  0  0  0
  1  2  2  0
  2  3  1  0
  3  4  2  0
  4  5  1  0
  5  6  1  0
  6  7  1  0
  7  8  1  0
  8  9  1  0
  9 10  2  0
 10 11  1  0
 11 12  1  0
 12 13  1  0
 13 14  1  0
 14 15  1  0
 14 16  1  0
 13 17  1  0
 13 18  1  0
 12 19  1  0
 11 20  2  0
 20 21  1  0
 21 22  1  0
 22 23  2  0
 23 24  1  0
 24 25  2  0
 25 26  1  0
 26 27  2  0
 27 28  1  0
 25 29  1  0
 24 30  1  0
 23 31  1  0
  8 32  1  0
  8 33  1  0
  7 34  1  0
  7 35  1  0
  5 36  2  0
 36 37  1  0
  4 38  1  0
  2 39  1  0
  1 40  1  0
 36  1  1  0
 21  9  1  0
 27 22  1  0
 14 12  1  0
M  END
>  <cnnaffinity>  (1) 
-5.49294

>  <filename>  (1) 
c1cncc(OCCc2nc(C3CC3)nn2-c2cccnc2)c1

$$$$
