
     RDKit          3D

 41 44  0  0  0  0  0  0  0  0999 V2000
    4.8137    1.3051   19.1128 C   0  0  0  0  0  0  0  0  0  0  0  0
    5.4027    1.2925   17.8427 C   0  0  0  0  0  0  0  0  0  0  0  0
    6.5602    0.6685   17.5806 N   0  0  0  0  0  0  0  0  0  0  0  0
    7.1750    0.0486   18.5944 C   0  0  0  0  0  0  0  0  0  0  0  0
    6.6704    0.0087   19.9051 C   0  0  0  0  0  0  0  0  0  0  0  0
    7.3729   -0.6590   20.9497 N   0  0  0  0  0  0  0  0  0  0  0  0
    6.7411   -1.5999   21.6989 N   0  0  0  0  0  0  0  0  0  0  0  0
    7.6686   -1.9695   22.5583 C   0  0  0  0  0  0  0  0  0  0  0  0
    7.4243   -2.9659   23.6436 C   0  0  0  0  0  0  0  0  0  0  0  0
    6.3034   -2.5485   24.6428 C   0  0  0  0  0  0  0  0  0  0  0  0
    5.2919   -4.0056   24.2091 S   0  0  0  0  0  0  0  0  0  0  0  0
    6.7623   -4.2867   23.1649 C   0  0  0  0  0  0  0  0  0  0  0  0
    6.5237   -4.3170   22.0961 H   0  0  0  0  0  0  0  0  0  0  0  0
    7.3119   -5.1924   23.4365 H   0  0  0  0  0  0  0  0  0  0  0  0
    6.6098   -2.5367   25.6929 H   0  0  0  0  0  0  0  0  0  0  0  0
    5.8099   -1.5982   24.4111 H   0  0  0  0  0  0  0  0  0  0  0  0
    8.3856   -3.1253   24.1377 H   0  0  0  0  0  0  0  0  0  0  0  0
    8.8563   -1.3312   22.4279 N   0  0  0  0  0  0  0  0  0  0  0  0
    8.6399   -0.4913   21.4303 C   0  0  0  0  0  0  0  0  0  0  0  0
    9.5456    0.5888   20.9415 C   0  0  0  0  0  0  0  0  0  0  0  0
    9.0621    2.0089   21.3046 C   0  0  0  0  0  0  0  0  0  0  0  0
    8.8840    2.2343   22.8258 C   0  0  0  0  0  0  0  0  0  0  0  0
   10.1485    2.0142   23.6189 C   0  0  0  0  0  0  0  0  0  0  0  0
   10.4497    0.9829   24.4640 C   0  0  0  0  0  0  0  0  0  0  0  0
   11.8154    0.9807   24.8951 C   0  0  0  0  0  0  0  0  0  0  0  0
   12.5240    1.9945   24.3291 C   0  0  0  0  0  0  0  0  0  0  0  0
   11.5385    3.0100   23.3626 S   0  0  0  0  0  0  0  0  0  0  0  0
   13.5903    2.1835   24.3677 H   0  0  0  0  0  0  0  0  0  0  0  0
   12.2179    0.2749   25.6139 H   0  0  0  0  0  0  0  0  0  0  0  0
    9.7275    0.1931   24.6444 H   0  0  0  0  0  0  0  0  0  0  0  0
    8.4902    3.2456   22.9972 H   0  0  0  0  0  0  0  0  0  0  0  0
    8.1304    1.5270   23.2012 H   0  0  0  0  0  0  0  0  0  0  0  0
    9.7866    2.7300   20.9130 H   0  0  0  0  0  0  0  0  0  0  0  0
    8.1094    2.2113   20.7980 H   0  0  0  0  0  0  0  0  0  0  0  0
   10.5434    0.3980   21.3533 H   0  0  0  0  0  0  0  0  0  0  0  0
    9.6180    0.5020   19.8546 H   0  0  0  0  0  0  0  0  0  0  0  0
    5.4475    0.6378   20.1670 C   0  0  0  0  0  0  0  0  0  0  0  0
    5.0225    0.5994   21.1712 H   0  0  0  0  0  0  0  0  0  0  0  0
    8.1157   -0.4457   18.3606 H   0  0  0  0  0  0  0  0  0  0  0  0
    4.9267    1.7925   17.0014 H   0  0  0  0  0  0  0  0  0  0  0  0
    3.8802    1.8366   19.2627 H   0  0  0  0  0  0  0  0  0  0  0  0
  1  2  2  0
  2  3  1  0
  3  4  2  0
  4  5  1  0
  5  6  1  0
  6  7  1  0
  7  8  2  0
  8  9  1  0
  9 10  1  0
 10 11  1  0
 11 12  1  0
 12 13  1  0
 12 14  1  0
 10 15  1  0
 10 16  1  0
  9 17  1  0
  8 18  1  0
 18 19  2  0
 19 20  1  0
 20 21  1  0
 21 22  1  0
 22 23  1  0
 23 24  2  0
 24 25  1  0
 25 26  2  0
 26 27  1  0
 26 28  1  0
 25 29  1  0
 24 30  1  0
 22 31  1  0
 22 32  1  0
 21 33  1  0
 21 34  1  0
 20 35  1  0
 20 36  1  0
  5 37  2  0
 37 38  1  0
  4 39  1  0
  2 40  1  0
  1 41  1  0
 37  1  1  0
 19  6  1  0
 27 23  1  0
 12  9  1  0
M  END
>  <cnnaffinity>  (1) 
-6.06346

>  <filename>  (1) 
c1cncc(-n2nc(C3CSC3)nc2CCCc2cccs2)c1

$$$$
