
     RDKit          3D

 30 32  0  0  0  0  0  0  0  0999 V2000
    4.9525    1.8009   16.9935 H   0  0  0  0  0  0  0  0  0  0  0  0
    5.4109    1.2898   17.8344 C   0  0  0  0  0  0  0  0  0  0  0  0
    6.5695    0.6584   17.5779 N   0  0  0  0  0  0  0  0  0  0  0  0
    7.1731    0.0384   18.5961 C   0  0  0  0  0  0  0  0  0  0  0  0
    8.1116   -0.4648   18.3625 H   0  0  0  0  0  0  0  0  0  0  0  0
    6.6552   -0.0019   19.9086 C   0  0  0  0  0  0  0  0  0  0  0  0
    7.3723   -0.6706   20.9316 N   0  0  0  0  0  0  0  0  0  0  0  0
    6.9122   -1.3510   22.0339 C   0  0  0  0  0  0  0  0  0  0  0  0
    5.8598   -1.4843   22.2286 H   0  0  0  0  0  0  0  0  0  0  0  0
    7.8695   -1.8775   22.7512 N   0  0  0  0  0  0  0  0  0  0  0  0
    9.0105   -1.5437   22.0868 C   0  0  0  0  0  0  0  0  0  0  0  0
   10.1546   -2.0466   22.6130 N   0  0  0  0  0  0  0  0  0  0  0  0
    9.9231   -2.3750   23.5358 H   0  0  0  0  0  0  0  0  0  0  0  0
   11.4493   -1.6270   22.1583 C   0  0  0  0  0  0  0  0  0  0  0  0
   11.4643   -1.7689   21.0722 H   0  0  0  0  0  0  0  0  0  0  0  0
   12.2166   -2.3087   22.5444 H   0  0  0  0  0  0  0  0  0  0  0  0
   11.7918   -0.1724   22.4046 C   0  0  0  0  0  0  0  0  0  0  0  0
   11.0534    0.4947   21.9685 H   0  0  0  0  0  0  0  0  0  0  0  0
   13.2165    0.2863   22.3259 C   0  0  0  0  0  0  0  0  0  0  0  0
   13.9955   -0.4699   22.2055 H   0  0  0  0  0  0  0  0  0  0  0  0
   13.4296    1.2314   21.8360 H   0  0  0  0  0  0  0  0  0  0  0  0
   12.4688    0.3721   23.6306 C   0  0  0  0  0  0  0  0  0  0  0  0
   12.7317   -0.2760   24.4586 H   0  0  0  0  0  0  0  0  0  0  0  0
   12.1662    1.3694   23.9562 H   0  0  0  0  0  0  0  0  0  0  0  0
    8.7617   -0.8029   20.9770 C   0  0  0  0  0  0  0  0  0  0  0  0
    9.4433   -0.3759   20.2616 H   0  0  0  0  0  0  0  0  0  0  0  0
    5.4394    0.6491   20.1628 C   0  0  0  0  0  0  0  0  0  0  0  0
    5.0151    0.6787   21.1685 H   0  0  0  0  0  0  0  0  0  0  0  0
    4.8122    1.3040   19.0986 C   0  0  0  0  0  0  0  0  0  0  0  0
    3.8782    1.8354   19.2440 H   0  0  0  0  0  0  0  0  0  0  0  0
  1  2  1  0
  2  3  2  0
  3  4  1  0
  4  5  1  0
  4  6  2  0
  6  7  1  0
  7  8  1  0
  8  9  1  0
  8 10  2  0
 10 11  1  0
 11 12  1  0
 12 13  1  0
 12 14  1  0
 14 15  1  0
 14 16  1  0
 14 17  1  0
 17 18  1  0
 17 19  1  0
 19 20  1  0
 19 21  1  0
 19 22  1  0
 22 23  1  0
 22 24  1  0
 11 25  2  0
 25 26  1  0
  6 27  1  0
 27 28  1  0
 27 29  2  0
 29 30  1  0
 29  2  1  0
 25  7  1  0
 22 17  1  0
M  END
>  <cnnaffinity>  (1) 
-4.66952

>  <filename>  (1) 
c1cncc(-n2cnc(NCC3CC3)c2)c1

$$$$
