
     RDKit          3D

 39 42  0  0  0  0  0  0  0  0999 V2000
    4.8129    1.3094   19.1101 C   0  0  0  0  0  0  0  0  0  0  0  0
    5.4011    1.2952   17.8387 C   0  0  0  0  0  0  0  0  0  0  0  0
    6.5618    0.6742   17.5778 N   0  0  0  0  0  0  0  0  0  0  0  0
    7.1712    0.0558   18.5955 C   0  0  0  0  0  0  0  0  0  0  0  0
    6.6629    0.0093   19.9052 C   0  0  0  0  0  0  0  0  0  0  0  0
    7.3675   -0.6651   20.9438 N   0  0  0  0  0  0  0  0  0  0  0  0
    6.7569   -1.6335   21.6754 N   0  0  0  0  0  0  0  0  0  0  0  0
    7.6919   -1.9922   22.5333 C   0  0  0  0  0  0  0  0  0  0  0  0
    7.4562   -2.9790   23.6167 C   0  0  0  0  0  0  0  0  0  0  0  0
    6.3022   -2.7735   24.5605 C   0  0  0  0  0  0  0  0  0  0  0  0
    7.7036   -2.5756   25.0473 C   0  0  0  0  0  0  0  0  0  0  0  0
    8.1220   -3.3066   25.7321 H   0  0  0  0  0  0  0  0  0  0  0  0
    8.0413   -1.5551   25.2221 H   0  0  0  0  0  0  0  0  0  0  0  0
    5.6980   -1.8873   24.3901 H   0  0  0  0  0  0  0  0  0  0  0  0
    5.7465   -3.6414   24.9016 H   0  0  0  0  0  0  0  0  0  0  0  0
    7.7072   -3.9991   23.3408 H   0  0  0  0  0  0  0  0  0  0  0  0
    8.8716   -1.3224   22.4116 N   0  0  0  0  0  0  0  0  0  0  0  0
    8.6343   -0.4835   21.4237 C   0  0  0  0  0  0  0  0  0  0  0  0
    9.5348    0.6029   20.9438 C   0  0  0  0  0  0  0  0  0  0  0  0
    9.0584    2.0095   21.3516 C   0  0  0  0  0  0  0  0  0  0  0  0
    8.9408    2.1922   22.8735 C   0  0  0  0  0  0  0  0  0  0  0  0
   10.2382    1.9973   23.5952 C   0  0  0  0  0  0  0  0  0  0  0  0
   10.6197    0.9429   24.3755 C   0  0  0  0  0  0  0  0  0  0  0  0
   11.8889    1.2374   24.7340 N   0  0  0  0  0  0  0  0  0  0  0  0
   12.2770    2.4023   24.2144 N   0  0  0  0  0  0  0  0  0  0  0  0
   11.2861    2.8689   23.5274 N   0  0  0  0  0  0  0  0  0  0  0  0
   12.5408    0.7349   25.3176 H   0  0  0  0  0  0  0  0  0  0  0  0
   10.0943    0.0375   24.6309 H   0  0  0  0  0  0  0  0  0  0  0  0
    8.5444    3.1847   23.0984 H   0  0  0  0  0  0  0  0  0  0  0  0
    8.2200    1.4668   23.2730 H   0  0  0  0  0  0  0  0  0  0  0  0
    9.7700    2.7465   20.9701 H   0  0  0  0  0  0  0  0  0  0  0  0
    8.0903    2.2205   20.8763 H   0  0  0  0  0  0  0  0  0  0  0  0
   10.5331    0.3954   21.3411 H   0  0  0  0  0  0  0  0  0  0  0  0
    9.6106    0.5537   19.8550 H   0  0  0  0  0  0  0  0  0  0  0  0
    5.4415    0.6431   20.1677 C   0  0  0  0  0  0  0  0  0  0  0  0
    5.0154    0.6103   21.1725 H   0  0  0  0  0  0  0  0  0  0  0  0
    8.1151   -0.4350   18.3711 H   0  0  0  0  0  0  0  0  0  0  0  0
    4.9171    1.7834   16.9951 H   0  0  0  0  0  0  0  0  0  0  0  0
    3.8797    1.8395   19.2620 H   0  0  0  0  0  0  0  0  0  0  0  0
  1  2  2  0
  2  3  1  0
  3  4  2  0
  4  5  1  0
  5  6  1  0
  6  7  1  0
  7  8  2  0
  8  9  1  0
  9 10  1  0
 10 11  1  0
 11 12  1  0
 11 13  1  0
 10 14  1  0
 10 15  1  0
  9 16  1  0
  8 17  1  0
 17 18  2  0
 18 19  1  0
 19 20  1  0
 20 21  1  0
 21 22  1  0
 22 23  2  0
 23 24  1  0
 24 25  1  0
 25 26  2  0
 24 27  1  0
 23 28  1  0
 21 29  1  0
 21 30  1  0
 20 31  1  0
 20 32  1  0
 19 33  1  0
 19 34  1  0
  5 35  2  0
 35 36  1  0
  4 37  1  0
  2 38  1  0
  1 39  1  0
 35  1  1  0
 18  6  1  0
 26 22  1  0
 11  9  1  0
M  END
>  <cnnaffinity>  (1) 
-5.94648

>  <filename>  (1) 
c1cncc(-n2nc(C3CC3)nc2CCCc2c[nH]nn2)c1

$$$$
