
     RDKit          3D

 23 25  0  0  0  0  0  0  0  0999 V2000
    8.5479   -3.3050   22.1736 H   0  0  0  0  0  0  0  0  0  0  0  0
    8.1724   -2.3127   21.9549 C   0  0  0  0  0  0  0  0  0  0  0  0
    8.1695   -1.3069   22.8709 N   0  0  0  0  0  0  0  0  0  0  0  0
    7.6531   -0.2973   22.1986 C   0  0  0  0  0  0  0  0  0  0  0  0
    7.5258    1.0578   22.7207 C   0  0  0  0  0  0  0  0  0  0  0  0
    7.5400    2.5142   21.7817 S   0  0  0  0  0  0  0  0  0  0  0  0
    7.4793    3.4244   23.2457 C   0  0  0  0  0  0  0  0  0  0  0  0
    7.4574    4.5104   23.2117 H   0  0  0  0  0  0  0  0  0  0  0  0
    7.4640    2.7184   24.3381 N   0  0  0  0  0  0  0  0  0  0  0  0
    7.5034    1.3803   24.0455 C   0  0  0  0  0  0  0  0  0  0  0  0
    7.5144    0.6458   24.8457 H   0  0  0  0  0  0  0  0  0  0  0  0
    7.3376   -0.7102   20.9268 N   0  0  0  0  0  0  0  0  0  0  0  0
    6.6571    0.0069   19.9020 C   0  0  0  0  0  0  0  0  0  0  0  0
    7.1830    0.0524   18.5983 C   0  0  0  0  0  0  0  0  0  0  0  0
    8.1319   -0.4398   18.3813 H   0  0  0  0  0  0  0  0  0  0  0  0
    6.5715    0.6798   17.5897 N   0  0  0  0  0  0  0  0  0  0  0  0
    5.4007    1.2917   17.8452 C   0  0  0  0  0  0  0  0  0  0  0  0
    4.9076    1.7732   17.0038 H   0  0  0  0  0  0  0  0  0  0  0  0
    4.8047    1.3081   19.1094 C   0  0  0  0  0  0  0  0  0  0  0  0
    3.8722    1.8456   19.2682 H   0  0  0  0  0  0  0  0  0  0  0  0
    5.4373    0.6376   20.1601 C   0  0  0  0  0  0  0  0  0  0  0  0
    5.0092    0.6248   21.1611 H   0  0  0  0  0  0  0  0  0  0  0  0
    7.6904   -2.0078   20.7684 N   0  0  0  0  0  0  0  0  0  0  0  0
  1  2  1  0
  2  3  1  0
  3  4  2  0
  4  5  1  0
  5  6  1  0
  6  7  1  0
  7  8  1  0
  7  9  2  0
  9 10  1  0
 10 11  1  0
  4 12  1  0
 12 13  1  0
 13 14  2  0
 14 15  1  0
 14 16  1  0
 16 17  2  0
 17 18  1  0
 17 19  1  0
 19 20  1  0
 19 21  2  0
 21 22  1  0
 12 23  1  0
 23  2  2  0
 10  5  2  0
 21 13  1  0
M  END
>  <cnnaffinity>  (1) 
-4.70172

>  <filename>  (1) 
c1cncc(-n2ncnc2-c2cncs2)c1

$$$$
