
     RDKit          3D

 28 30  0  0  0  0  0  0  0  0999 V2000
    5.0267    1.7605   17.0059 H   0  0  0  0  0  0  0  0  0  0  0  0
    5.5022    1.3018   17.8711 C   0  0  0  0  0  0  0  0  0  0  0  0
    6.6896    0.7125   17.6603 N   0  0  0  0  0  0  0  0  0  0  0  0
    7.2758    0.1253   18.7116 C   0  0  0  0  0  0  0  0  0  0  0  0
    8.2200   -0.3760   18.4963 H   0  0  0  0  0  0  0  0  0  0  0  0
    6.7142    0.0648   19.9990 C   0  0  0  0  0  0  0  0  0  0  0  0
    7.4021   -0.7247   21.0608 C   0  0  0  0  0  0  0  0  0  0  0  0
    8.6289   -0.1225   21.5479 N   0  0  0  0  0  0  0  0  0  0  0  0
    9.0931    0.2420   20.7200 H   0  0  0  0  0  0  0  0  0  0  0  0
    8.5165    0.9599   22.4307 N   0  0  0  0  0  0  0  0  0  0  0  0
    9.5951    1.7060   22.8044 C   0  0  0  0  0  0  0  0  0  0  0  0
   10.5700    1.5090   22.3881 H   0  0  0  0  0  0  0  0  0  0  0  0
    9.1800    2.6164   23.7405 C   0  0  0  0  0  0  0  0  0  0  0  0
    9.8083    3.3373   24.2480 H   0  0  0  0  0  0  0  0  0  0  0  0
    7.7928    2.4067   23.9463 C   0  0  0  0  0  0  0  0  0  0  0  0
    7.1559    2.9390   24.6418 H   0  0  0  0  0  0  0  0  0  0  0  0
    7.4172    1.3756   23.1274 C   0  0  0  0  0  0  0  0  0  0  0  0
    6.4593    0.9176   22.9676 H   0  0  0  0  0  0  0  0  0  0  0  0
    6.6659   -1.6293   22.0017 C   0  0  0  0  0  0  0  0  0  0  0  0
    7.0357   -1.6512   23.0205 H   0  0  0  0  0  0  0  0  0  0  0  0
    5.5930   -1.7138   21.8679 H   0  0  0  0  0  0  0  0  0  0  0  0
    7.5138   -2.2108   20.9163 C   0  0  0  0  0  0  0  0  0  0  0  0
    6.9755   -2.6595   20.0936 H   0  0  0  0  0  0  0  0  0  0  0  0
    8.4613   -2.6675   21.1755 H   0  0  0  0  0  0  0  0  0  0  0  0
    5.4893    0.7136   20.2039 C   0  0  0  0  0  0  0  0  0  0  0  0
    5.0249    0.6973   21.1939 H   0  0  0  0  0  0  0  0  0  0  0  0
    4.8678    1.3316   19.1207 C   0  0  0  0  0  0  0  0  0  0  0  0
    3.9045    1.8193   19.2299 H   0  0  0  0  0  0  0  0  0  0  0  0
  1  2  1  0
  2  3  2  0
  3  4  1  0
  4  5  1  0
  4  6  2  0
  6  7  1  0
  7  8  1  0
  8  9  1  0
  8 10  1  0
 10 11  1  0
 11 12  1  0
 11 13  2  0
 13 14  1  0
 13 15  1  0
 15 16  1  0
 15 17  2  0
 17 18  1  0
  7 19  1  0
 19 20  1  0
 19 21  1  0
 19 22  1  0
 22 23  1  0
 22 24  1  0
  6 25  1  0
 25 26  1  0
 25 27  2  0
 27 28  1  0
 27  2  1  0
 22  7  1  0
 17 10  1  0
M  END
>  <cnnaffinity>  (1) 
-4.29092

>  <filename>  (1) 
c1cncc(C2(Nn3cccc3)CC2)c1

$$$$
