
     RDKit          3D

 45 48  0  0  0  0  0  0  0  0999 V2000
    4.8004    1.3143   19.0971 C   0  0  0  0  0  0  0  0  0  0  0  0
    5.3990    1.2982   17.8303 C   0  0  0  0  0  0  0  0  0  0  0  0
    6.5609    0.6875   17.5643 N   0  0  0  0  0  0  0  0  0  0  0  0
    7.1605    0.0627   18.5858 C   0  0  0  0  0  0  0  0  0  0  0  0
    6.6427   -0.0095   19.8896 C   0  0  0  0  0  0  0  0  0  0  0  0
    7.4063   -0.6748   21.0009 C   0  0  0  0  0  0  0  0  0  0  0  0
    8.3230    0.3210   21.7238 C   0  0  0  0  0  0  0  0  0  0  0  0
    9.1124   -0.3364   22.8660 C   0  0  0  0  0  0  0  0  0  0  0  0
    8.2163   -0.8871   23.9318 C   0  0  0  0  0  0  0  0  0  0  0  0
    7.9306   -2.1575   24.1192 N   0  0  0  0  0  0  0  0  0  0  0  0
    6.9495   -2.1235   25.0643 C   0  0  0  0  0  0  0  0  0  0  0  0
    6.2967   -3.3814   25.5349 C   0  0  0  0  0  0  0  0  0  0  0  0
    7.2369   -4.5857   25.8447 C   0  0  0  0  0  0  0  0  0  0  0  0
    6.5620   -5.4045   24.7237 C   0  0  0  0  0  0  0  0  0  0  0  0
    5.6019   -4.2341   24.4268 C   0  0  0  0  0  0  0  0  0  0  0  0
    4.5440   -4.4462   24.6085 H   0  0  0  0  0  0  0  0  0  0  0  0
    5.6885   -3.8066   23.4219 H   0  0  0  0  0  0  0  0  0  0  0  0
    7.2276   -5.6638   23.8937 H   0  0  0  0  0  0  0  0  0  0  0  0
    6.0740   -6.3275   25.0521 H   0  0  0  0  0  0  0  0  0  0  0  0
    7.1221   -5.0054   26.8492 H   0  0  0  0  0  0  0  0  0  0  0  0
    8.3000   -4.3760   25.6903 H   0  0  0  0  0  0  0  0  0  0  0  0
    5.6360   -3.1144   26.3615 H   0  0  0  0  0  0  0  0  0  0  0  0
    6.6063   -0.9124   25.4592 N   0  0  0  0  0  0  0  0  0  0  0  0
    7.4381   -0.1097   24.7442 N   0  0  0  0  0  0  0  0  0  0  0  0
    7.3859    1.3062   24.8744 C   0  0  0  0  0  0  0  0  0  0  0  0
    8.5442    2.0627   25.0897 C   0  0  0  0  0  0  0  0  0  0  0  0
    8.4139    3.4499   25.1850 C   0  0  0  0  0  0  0  0  0  0  0  0
    7.1478    4.0285   25.0621 C   0  0  0  0  0  0  0  0  0  0  0  0
    6.0322    3.3108   24.8652 N   0  0  0  0  0  0  0  0  0  0  0  0
    6.1544    1.9822   24.7839 C   0  0  0  0  0  0  0  0  0  0  0  0
    5.2354    1.4311   24.6284 H   0  0  0  0  0  0  0  0  0  0  0  0
    7.0219    5.1049   25.1312 H   0  0  0  0  0  0  0  0  0  0  0  0
    9.2837    4.0722   25.3485 H   0  0  0  0  0  0  0  0  0  0  0  0
    9.5107    1.5749   25.2042 H   0  0  0  0  0  0  0  0  0  0  0  0
    9.8169    0.3831   23.2928 H   0  0  0  0  0  0  0  0  0  0  0  0
    9.7080   -1.1656   22.4713 H   0  0  0  0  0  0  0  0  0  0  0  0
    7.7259    1.1574   22.1103 H   0  0  0  0  0  0  0  0  0  0  0  0
    9.0193    0.7590   20.9988 H   0  0  0  0  0  0  0  0  0  0  0  0
    6.7041   -1.1262   21.7172 H   0  0  0  0  0  0  0  0  0  0  0  0
    8.0081   -1.5030   20.6019 H   0  0  0  0  0  0  0  0  0  0  0  0
    5.4343    0.6477   20.1479 C   0  0  0  0  0  0  0  0  0  0  0  0
    5.0107    0.6362   21.1577 H   0  0  0  0  0  0  0  0  0  0  0  0
    8.1099   -0.4188   18.3598 H   0  0  0  0  0  0  0  0  0  0  0  0
    4.9141    1.7877   16.9891 H   0  0  0  0  0  0  0  0  0  0  0  0
    3.8689    1.8478   19.2538 H   0  0  0  0  0  0  0  0  0  0  0  0
  1  2  2  0
  2  3  1  0
  3  4  2  0
  4  5  1  0
  5  6  1  0
  6  7  1  0
  7  8  1  0
  8  9  1  0
  9 10  2  0
 10 11  1  0
 11 12  1  0
 12 13  1  0
 13 14  1  0
 14 15  1  0
 15 16  1  0
 15 17  1  0
 14 18  1  0
 14 19  1  0
 13 20  1  0
 13 21  1  0
 12 22  1  0
 11 23  2  0
 23 24  1  0
 24 25  1  0
 25 26  2  0
 26 27  1  0
 27 28  2  0
 28 29  1  0
 29 30  2  0
 30 31  1  0
 28 32  1  0
 27 33  1  0
 26 34  1  0
  8 35  1  0
  8 36  1  0
  7 37  1  0
  7 38  1  0
  6 39  1  0
  6 40  1  0
  5 41  2  0
 41 42  1  0
  4 43  1  0
  2 44  1  0
  1 45  1  0
 41  1  1  0
 24  9  1  0
 30 25  1  0
 15 12  1  0
M  END
>  <cnnaffinity>  (1) 
-6.13207

>  <filename>  (1) 
c1cncc(CCCc2nc(C3CCC3)nn2-c2cccnc2)c1

$$$$
