
     RDKit          3D

 31 34  0  0  0  0  0  0  0  0999 V2000
    4.9190    1.7817   16.9937 H   0  0  0  0  0  0  0  0  0  0  0  0
    5.4016    1.2926   17.8386 C   0  0  0  0  0  0  0  0  0  0  0  0
    6.5658    0.6728   17.5879 N   0  0  0  0  0  0  0  0  0  0  0  0
    7.1779    0.0600   18.6051 C   0  0  0  0  0  0  0  0  0  0  0  0
    8.1157   -0.4340   18.3677 H   0  0  0  0  0  0  0  0  0  0  0  0
    6.6647    0.0037   19.9140 C   0  0  0  0  0  0  0  0  0  0  0  0
    7.3656   -0.6850   20.9409 N   0  0  0  0  0  0  0  0  0  0  0  0
    8.7451   -0.8090   21.0554 C   0  0  0  0  0  0  0  0  0  0  0  0
    9.3951   -0.3367   20.3325 H   0  0  0  0  0  0  0  0  0  0  0  0
    9.0276   -1.5276   22.1766 C   0  0  0  0  0  0  0  0  0  0  0  0
   10.0050   -1.7945   22.5576 H   0  0  0  0  0  0  0  0  0  0  0  0
    7.7827   -1.8754   22.7901 C   0  0  0  0  0  0  0  0  0  0  0  0
    7.6362   -2.6517   24.0172 C   0  0  0  0  0  0  0  0  0  0  0  0
    8.6271   -3.1273   24.7001 N   0  0  0  0  0  0  0  0  0  0  0  0
    8.1731   -3.8169   25.8064 C   0  0  0  0  0  0  0  0  0  0  0  0
    8.9923   -4.4543   26.7566 C   0  0  0  0  0  0  0  0  0  0  0  0
   10.0717   -4.4135   26.6292 H   0  0  0  0  0  0  0  0  0  0  0  0
    8.3976   -5.1209   27.8238 C   0  0  0  0  0  0  0  0  0  0  0  0
    9.0220   -5.6300   28.5561 H   0  0  0  0  0  0  0  0  0  0  0  0
    6.9903   -5.1545   27.9615 C   0  0  0  0  0  0  0  0  0  0  0  0
    6.5415   -5.6803   28.8039 H   0  0  0  0  0  0  0  0  0  0  0  0
    6.1685   -4.5267   27.0271 C   0  0  0  0  0  0  0  0  0  0  0  0
    5.0858   -4.5508   27.1231 H   0  0  0  0  0  0  0  0  0  0  0  0
    6.7664   -3.8607   25.9519 C   0  0  0  0  0  0  0  0  0  0  0  0
    6.0255   -2.9985   24.6446 S   0  0  0  0  0  0  0  0  0  0  0  0
    6.7872   -1.3424   22.0004 C   0  0  0  0  0  0  0  0  0  0  0  0
    5.7118   -1.3988   22.0694 H   0  0  0  0  0  0  0  0  0  0  0  0
    5.4395    0.6459   20.1654 C   0  0  0  0  0  0  0  0  0  0  0  0
    5.0098    0.6427   21.1690 H   0  0  0  0  0  0  0  0  0  0  0  0
    4.8109    1.3079   19.1068 C   0  0  0  0  0  0  0  0  0  0  0  0
    3.8782    1.8396   19.2610 H   0  0  0  0  0  0  0  0  0  0  0  0
  1  2  1  0
  2  3  2  0
  3  4  1  0
  4  5  1  0
  4  6  2  0
  6  7  1  0
  7  8  1  0
  8  9  1  0
  8 10  2  0
 10 11  1  0
 10 12  1  0
 12 13  1  0
 13 14  2  0
 14 15  1  0
 15 16  2  0
 16 17  1  0
 16 18  1  0
 18 19  1  0
 18 20  2  0
 20 21  1  0
 20 22  1  0
 22 23  1  0
 22 24  2  0
 24 25  1  0
 12 26  2  0
 26 27  1  0
  6 28  1  0
 28 29  1  0
 28 30  2  0
 30 31  1  0
 30  2  1  0
 26  7  1  0
 25 13  1  0
 24 15  1  0
M  END
>  <cnnaffinity>  (1) 
-5.26923

>  <filename>  (1) 
c1cncc(-n2ccc(-c3nc4ccccc4s3)c2)c1

$$$$
