
     RDKit          3D

 43 46  0  0  0  0  0  0  0  0999 V2000
    4.8038    1.3739   18.9883 C   0  0  0  0  0  0  0  0  0  0  0  0
    5.4354    1.3186   17.7425 C   0  0  0  0  0  0  0  0  0  0  0  0
    6.5635    0.6180   17.5285 N   0  0  0  0  0  0  0  0  0  0  0  0
    7.1193   -0.0087   18.5718 C   0  0  0  0  0  0  0  0  0  0  0  0
    6.6137    0.0724   19.8824 C   0  0  0  0  0  0  0  0  0  0  0  0
    7.3244   -0.5500   20.9517 N   0  0  0  0  0  0  0  0  0  0  0  0
    7.6886   -1.8591   20.8591 N   0  0  0  0  0  0  0  0  0  0  0  0
    8.1030   -2.1366   22.0843 C   0  0  0  0  0  0  0  0  0  0  0  0
    8.6295   -3.4959   22.4698 C   0  0  0  0  0  0  0  0  0  0  0  0
    7.7977   -4.6831   21.9379 C   0  0  0  0  0  0  0  0  0  0  0  0
    8.1802   -5.8855   22.8086 C   0  0  0  0  0  0  0  0  0  0  0  0
    8.5812   -5.3017   24.1793 C   0  0  0  0  0  0  0  0  0  0  0  0
    8.7213   -3.7716   23.9869 C   0  0  0  0  0  0  0  0  0  0  0  0
    9.6544   -3.3889   24.4143 H   0  0  0  0  0  0  0  0  0  0  0  0
    7.8939   -3.2607   24.4882 H   0  0  0  0  0  0  0  0  0  0  0  0
    7.8245   -5.5094   24.9448 H   0  0  0  0  0  0  0  0  0  0  0  0
    9.5037   -5.7736   24.5342 H   0  0  0  0  0  0  0  0  0  0  0  0
    7.3498   -6.5995   22.8741 H   0  0  0  0  0  0  0  0  0  0  0  0
    9.0345   -6.4197   22.3770 H   0  0  0  0  0  0  0  0  0  0  0  0
    6.7331   -4.4480   22.0674 H   0  0  0  0  0  0  0  0  0  0  0  0
    7.9670   -4.8624   20.8740 H   0  0  0  0  0  0  0  0  0  0  0  0
    9.6459   -3.4971   22.0654 H   0  0  0  0  0  0  0  0  0  0  0  0
    8.0831   -1.0830   22.9428 N   0  0  0  0  0  0  0  0  0  0  0  0
    7.6429   -0.0887   22.1978 C   0  0  0  0  0  0  0  0  0  0  0  0
    7.6684    1.3506   22.6142 C   0  0  0  0  0  0  0  0  0  0  0  0
    8.6758    2.2588   21.8437 C   0  0  0  0  0  0  0  0  0  0  0  0
    8.6443    3.6869   22.2864 C   0  0  0  0  0  0  0  0  0  0  0  0
    7.8750    4.6191   21.7859 N   0  0  0  0  0  0  0  0  0  0  0  0
    8.1170    5.7528   22.5181 C   0  0  0  0  0  0  0  0  0  0  0  0
    9.0412    5.5007   23.4907 C   0  0  0  0  0  0  0  0  0  0  0  0
    9.3742    4.1727   23.3360 N   0  0  0  0  0  0  0  0  0  0  0  0
   10.0568    3.6504   23.8617 H   0  0  0  0  0  0  0  0  0  0  0  0
    9.4417    6.1290   24.2705 H   0  0  0  0  0  0  0  0  0  0  0  0
    7.5998    6.6819   22.3174 H   0  0  0  0  0  0  0  0  0  0  0  0
    9.7026    1.8888   21.9578 H   0  0  0  0  0  0  0  0  0  0  0  0
    8.4377    2.2528   20.7751 H   0  0  0  0  0  0  0  0  0  0  0  0
    6.6651    1.7754   22.5096 H   0  0  0  0  0  0  0  0  0  0  0  0
    7.9064    1.3492   23.6831 H   0  0  0  0  0  0  0  0  0  0  0  0
    5.4048    0.7523   20.0875 C   0  0  0  0  0  0  0  0  0  0  0  0
    4.9277    0.7688   21.0694 H   0  0  0  0  0  0  0  0  0  0  0  0
    8.0032   -0.6071   18.3699 H   0  0  0  0  0  0  0  0  0  0  0  0
    5.0182    1.8485   16.8874 H   0  0  0  0  0  0  0  0  0  0  0  0
    3.8610    1.9001   19.0887 H   0  0  0  0  0  0  0  0  0  0  0  0
  1  2  2  0
  2  3  1  0
  3  4  2  0
  4  5  1  0
  5  6  1  0
  6  7  1  0
  7  8  2  0
  8  9  1  0
  9 10  1  0
 10 11  1  0
 11 12  1  0
 12 13  1  0
 13 14  1  0
 13 15  1  0
 12 16  1  0
 12 17  1  0
 11 18  1  0
 11 19  1  0
 10 20  1  0
 10 21  1  0
  9 22  1  0
  8 23  1  0
 23 24  2  0
 24 25  1  0
 25 26  1  0
 26 27  1  0
 27 28  2  0
 28 29  1  0
 29 30  2  0
 30 31  1  0
 31 32  1  0
 30 33  1  0
 29 34  1  0
 26 35  1  0
 26 36  1  0
 25 37  1  0
 25 38  1  0
  5 39  2  0
 39 40  1  0
  4 41  1  0
  2 42  1  0
  1 43  1  0
 39  1  1  0
 24  6  1  0
 31 27  1  0
 13  9  1  0
M  END
>  <cnnaffinity>  (1) 
-5.97769

>  <filename>  (1) 
c1cncc(-n2nc(C3CCCC3)nc2CCc2ncc[nH]2)c1

$$$$
