
     RDKit          3D

 45 47  0  0  0  0  0  0  0  0999 V2000
    4.9709    1.7714   16.9329 H   0  0  0  0  0  0  0  0  0  0  0  0
    5.4011    1.3155   17.8241 C   0  0  0  0  0  0  0  0  0  0  0  0
    6.5782    0.6915   17.6693 N   0  0  0  0  0  0  0  0  0  0  0  0
    7.1173    0.1203   18.7557 C   0  0  0  0  0  0  0  0  0  0  0  0
    8.0622   -0.3968   18.5792 H   0  0  0  0  0  0  0  0  0  0  0  0
    6.5587    0.1384   20.0498 C   0  0  0  0  0  0  0  0  0  0  0  0
    7.2962   -0.5580   21.1989 C   0  0  1  0  0  0  0  0  0  0  0  0
    6.7704   -0.3554   22.1465 H   0  0  0  0  0  0  0  0  0  0  0  0
    7.2739   -2.0709   20.9493 C   0  0  0  0  0  0  0  0  0  0  0  0
    6.2492   -2.4333   20.8306 H   0  0  0  0  0  0  0  0  0  0  0  0
    7.7408   -2.1558   19.9765 H   0  0  0  0  0  0  0  0  0  0  0  0
    8.0562   -2.9240   21.9500 C   0  0  0  0  0  0  0  0  0  0  0  0
    7.5352   -2.9640   22.9163 H   0  0  0  0  0  0  0  0  0  0  0  0
    8.0762   -3.9613   21.5946 H   0  0  0  0  0  0  0  0  0  0  0  0
    9.4875   -2.4036   22.1331 C   0  0  0  0  0  0  0  0  0  0  0  0
   10.0005   -2.9868   22.9091 H   0  0  0  0  0  0  0  0  0  0  0  0
   10.0430   -2.5712   21.1962 H   0  0  0  0  0  0  0  0  0  0  0  0
    9.5087   -0.9000   22.4641 C   0  0  0  0  0  0  0  0  0  0  0  0
   10.5572   -0.5733   22.5424 H   0  0  0  0  0  0  0  0  0  0  0  0
    9.0412   -0.7296   23.4421 H   0  0  0  0  0  0  0  0  0  0  0  0
    8.7866   -0.0932   21.3532 C   0  0  2  0  0  0  0  0  0  0  0  0
    9.3342   -0.3690   20.4358 H   0  0  0  0  0  0  0  0  0  0  0  0
    8.8959    1.4435   21.4630 C   0  0  0  0  0  0  0  0  0  0  0  0
    8.6404    1.8799   20.4885 H   0  0  0  0  0  0  0  0  0  0  0  0
    9.9413    1.7279   21.6595 H   0  0  0  0  0  0  0  0  0  0  0  0
    7.9742    2.0747   22.5085 C   0  0  0  0  0  0  0  0  0  0  0  0
    6.9347    1.7850   22.2971 H   0  0  0  0  0  0  0  0  0  0  0  0
    8.0062    3.1778   22.4036 H   0  0  0  0  0  0  0  0  0  0  0  0
    8.3307    1.6720   23.8577 N   0  0  0  0  0  0  0  0  0  0  0  0
    7.3112    1.8955   24.8776 C   0  0  0  0  0  0  0  0  0  0  0  0
    6.8511    2.8989   24.7881 H   0  0  0  0  0  0  0  0  0  0  0  0
    6.5048    1.1522   24.8160 H   0  0  0  0  0  0  0  0  0  0  0  0
    8.0946    1.7629   26.1770 C   0  0  0  0  0  0  0  0  0  0  0  0
    8.2610    0.7016   26.4032 H   0  0  0  0  0  0  0  0  0  0  0  0
    7.5837    2.2156   27.0347 H   0  0  0  0  0  0  0  0  0  0  0  0
    9.4283    2.4333   25.8402 C   0  0  0  0  0  0  0  0  0  0  0  0
   10.2507    1.9596   26.3761 H   0  0  0  0  0  0  0  0  0  0  0  0
    9.4054    3.5022   26.0898 H   0  0  0  0  0  0  0  0  0  0  0  0
    9.6057    2.2250   24.3278 C   0  0  0  0  0  0  0  0  0  0  0  0
    9.8525    3.1783   23.8273 H   0  0  0  0  0  0  0  0  0  0  0  0
   10.4425    1.5416   24.1116 H   0  0  0  0  0  0  0  0  0  0  0  0
    5.3196    0.7939   20.1785 C   0  0  0  0  0  0  0  0  0  0  0  0
    4.8162    0.8423   21.1439 H   0  0  0  0  0  0  0  0  0  0  0  0
    4.7332    1.3817   19.0487 C   0  0  0  0  0  0  0  0  0  0  0  0
    3.7795    1.8941   19.1076 H   0  0  0  0  0  0  0  0  0  0  0  0
  1  2  1  0
  2  3  2  0
  3  4  1  0
  4  5  1  0
  4  6  2  0
  6  7  1  0
  7  8  1  1
  7  9  1  0
  9 10  1  0
  9 11  1  0
  9 12  1  0
 12 13  1  0
 12 14  1  0
 12 15  1  0
 15 16  1  0
 15 17  1  0
 15 18  1  0
 18 19  1  0
 18 20  1  0
 18 21  1  0
 21 22  1  6
 21 23  1  0
 23 24  1  0
 23 25  1  0
 23 26  1  0
 26 27  1  0
 26 28  1  0
 26 29  1  0
 29 30  1  0
 30 31  1  0
 30 32  1  0
 30 33  1  0
 33 34  1  0
 33 35  1  0
 33 36  1  0
 36 37  1  0
 36 38  1  0
 36 39  1  0
 39 40  1  0
 39 41  1  0
  6 42  1  0
 42 43  1  0
 42 44  2  0
 44 45  1  0
 44  2  1  0
 21  7  1  0
 39 29  1  0
M  END
>  <cnnaffinity>  (1) 
-5.34433

>  <filename>  (1) 
c1cncc([C@H]2CCCC[C@@H]2CCN2CCCC2)c1

$$$$
