
     RDKit          3D

 46 49  0  0  0  0  0  0  0  0999 V2000
    4.8115    1.3145   19.1081 C   0  0  0  0  0  0  0  0  0  0  0  0
    5.3985    1.2972   17.8369 C   0  0  0  0  0  0  0  0  0  0  0  0
    6.5550    0.6700   17.5744 N   0  0  0  0  0  0  0  0  0  0  0  0
    7.1626    0.0464   18.5910 C   0  0  0  0  0  0  0  0  0  0  0  0
    6.6512    0.0023   19.9019 C   0  0  0  0  0  0  0  0  0  0  0  0
    7.3368   -0.6839   20.9419 N   0  0  0  0  0  0  0  0  0  0  0  0
    6.6811   -1.5657   21.7477 N   0  0  0  0  0  0  0  0  0  0  0  0
    7.6314   -1.9925   22.5612 C   0  0  0  0  0  0  0  0  0  0  0  0
    7.3725   -2.9373   23.6958 C   0  0  0  0  0  0  0  0  0  0  0  0
    7.2655   -2.1966   25.0542 C   0  0  0  0  0  0  0  0  0  0  0  0
    8.6979   -2.1629   25.6268 C   0  0  0  0  0  0  0  0  0  0  0  0
    9.4652   -3.3385   24.9726 C   0  0  0  0  0  0  0  0  0  0  0  0
    8.5196   -3.9537   23.9120 C   0  0  0  0  0  0  0  0  0  0  0  0
    8.0992   -4.8977   24.2758 H   0  0  0  0  0  0  0  0  0  0  0  0
    9.0452   -4.1860   22.9791 H   0  0  0  0  0  0  0  0  0  0  0  0
    9.7641   -4.0949   25.7073 H   0  0  0  0  0  0  0  0  0  0  0  0
   10.3880   -2.9785   24.5067 H   0  0  0  0  0  0  0  0  0  0  0  0
    9.1829   -1.2081   25.3813 H   0  0  0  0  0  0  0  0  0  0  0  0
    8.6855   -2.2348   26.7194 H   0  0  0  0  0  0  0  0  0  0  0  0
    6.8340   -1.1931   24.9453 H   0  0  0  0  0  0  0  0  0  0  0  0
    6.5943   -2.7544   25.7166 H   0  0  0  0  0  0  0  0  0  0  0  0
    6.4336   -3.4234   23.4292 H   0  0  0  0  0  0  0  0  0  0  0  0
    8.8554   -1.4594   22.3344 N   0  0  0  0  0  0  0  0  0  0  0  0
    8.6333   -0.5975   21.3652 C   0  0  0  0  0  0  0  0  0  0  0  0
    9.6733    0.2665   20.7206 C   0  0  0  0  0  0  0  0  0  0  0  0
   10.5857    0.8848   21.6023 O   0  0  0  0  0  0  0  0  0  0  0  0
   10.1560    2.1533   22.0997 C   0  0  0  0  0  0  0  0  0  0  0  0
    8.9115    2.1004   22.9616 C   0  0  0  0  0  0  0  0  0  0  0  0
    8.9646    1.6214   24.2764 C   0  0  0  0  0  0  0  0  0  0  0  0
    7.7927    1.5662   25.0329 C   0  0  0  0  0  0  0  0  0  0  0  0
    6.5890    1.9291   24.5760 N   0  0  0  0  0  0  0  0  0  0  0  0
    6.5363    2.3611   23.3107 C   0  0  0  0  0  0  0  0  0  0  0  0
    7.6509    2.4680   22.4752 C   0  0  0  0  0  0  0  0  0  0  0  0
    7.5262    2.8101   21.4546 H   0  0  0  0  0  0  0  0  0  0  0  0
    5.5484    2.6496   22.9583 H   0  0  0  0  0  0  0  0  0  0  0  0
    7.8178    1.2260   26.0662 H   0  0  0  0  0  0  0  0  0  0  0  0
    9.9030    1.2945   24.7026 H   0  0  0  0  0  0  0  0  0  0  0  0
    9.9812    2.8261   21.2481 H   0  0  0  0  0  0  0  0  0  0  0  0
   11.0038    2.5257   22.6824 H   0  0  0  0  0  0  0  0  0  0  0  0
    9.1801    1.0226   20.0937 H   0  0  0  0  0  0  0  0  0  0  0  0
   10.2478   -0.4210   20.0936 H   0  0  0  0  0  0  0  0  0  0  0  0
    5.4376    0.6462   20.1639 C   0  0  0  0  0  0  0  0  0  0  0  0
    5.0149    0.5992   21.1710 H   0  0  0  0  0  0  0  0  0  0  0  0
    8.1090   -0.4362   18.3588 H   0  0  0  0  0  0  0  0  0  0  0  0
    4.9198    1.7870   16.9930 H   0  0  0  0  0  0  0  0  0  0  0  0
    3.8779    1.8405   19.2579 H   0  0  0  0  0  0  0  0  0  0  0  0
  1  2  2  0
  2  3  1  0
  3  4  2  0
  4  5  1  0
  5  6  1  0
  6  7  1  0
  7  8  2  0
  8  9  1  0
  9 10  1  0
 10 11  1  0
 11 12  1  0
 12 13  1  0
 13 14  1  0
 13 15  1  0
 12 16  1  0
 12 17  1  0
 11 18  1  0
 11 19  1  0
 10 20  1  0
 10 21  1  0
  9 22  1  0
  8 23  1  0
 23 24  2  0
 24 25  1  0
 25 26  1  0
 26 27  1  0
 27 28  1  0
 28 29  2  0
 29 30  1  0
 30 31  2  0
 31 32  1  0
 32 33  2  0
 33 34  1  0
 32 35  1  0
 30 36  1  0
 29 37  1  0
 27 38  1  0
 27 39  1  0
 25 40  1  0
 25 41  1  0
  5 42  2  0
 42 43  1  0
  4 44  1  0
  2 45  1  0
  1 46  1  0
 42  1  1  0
 24  6  1  0
 33 28  1  0
 13  9  1  0
M  END
>  <cnnaffinity>  (1) 
-5.97218

>  <filename>  (1) 
c1cncc(-n2nc(C3CCCC3)nc2COCc2ccncc2)c1

$$$$
