
     RDKit          3D

 28 31  0  0  0  0  0  0  0  0999 V2000
    8.1447    0.4761   28.5641 H   0  0  0  0  0  0  0  0  0  0  0  0
    8.0196    0.0270   27.5850 C   0  0  0  0  0  0  0  0  0  0  0  0
    6.8800   -0.1148   26.9789 N   0  0  0  0  0  0  0  0  0  0  0  0
    7.0814   -0.6790   25.7430 C   0  0  0  0  0  0  0  0  0  0  0  0
    6.2676   -0.8793   25.0583 H   0  0  0  0  0  0  0  0  0  0  0  0
    8.3702   -0.9611   25.3997 C   0  0  0  0  0  0  0  0  0  0  0  0
    8.8038   -1.4066   24.1506 N   0  0  0  0  0  0  0  0  0  0  0  0
   10.0009   -2.0657   23.8329 C   0  0  0  0  0  0  0  0  0  0  0  0
   10.7030   -2.3688   24.5971 H   0  0  0  0  0  0  0  0  0  0  0  0
   10.0718   -2.2282   22.4914 C   0  0  0  0  0  0  0  0  0  0  0  0
   10.8180   -2.6252   21.8226 H   0  0  0  0  0  0  0  0  0  0  0  0
    8.9189   -1.6526   21.9699 N   0  0  0  0  0  0  0  0  0  0  0  0
    8.4934   -1.3709   20.7227 N   0  0  0  0  0  0  0  0  0  0  0  0
    7.3749   -0.6617   20.9428 C   0  0  0  0  0  0  0  0  0  0  0  0
    6.6113   -0.0497   19.8376 C   0  0  0  0  0  0  0  0  0  0  0  0
    7.1444    0.0004   18.5351 C   0  0  0  0  0  0  0  0  0  0  0  0
    8.0951   -0.4785   18.3059 H   0  0  0  0  0  0  0  0  0  0  0  0
    6.5651    0.6565   17.5247 N   0  0  0  0  0  0  0  0  0  0  0  0
    5.4158    1.2985   17.7749 C   0  0  0  0  0  0  0  0  0  0  0  0
    4.9741    1.8363   16.9407 H   0  0  0  0  0  0  0  0  0  0  0  0
    4.7879    1.3012   19.0232 C   0  0  0  0  0  0  0  0  0  0  0  0
    3.8707    1.8594   19.1718 H   0  0  0  0  0  0  0  0  0  0  0  0
    5.3933    0.6163   20.0695 C   0  0  0  0  0  0  0  0  0  0  0  0
    4.9382    0.6457   21.0614 H   0  0  0  0  0  0  0  0  0  0  0  0
    7.0832   -0.5038   22.3217 C   0  0  0  0  0  0  0  0  0  0  0  0
    6.2476    0.0422   22.7264 H   0  0  0  0  0  0  0  0  0  0  0  0
    8.1406   -1.1522   22.9469 C   0  0  0  0  0  0  0  0  0  0  0  0
    9.4115   -0.5452   26.7242 S   0  0  0  0  0  0  0  0  0  0  0  0
  1  2  1  0
  2  3  2  0
  3  4  1  0
  4  5  1  0
  4  6  2  0
  6  7  1  0
  7  8  1  0
  8  9  1  0
  8 10  2  0
 10 11  1  0
 10 12  1  0
 12 13  1  0
 13 14  2  0
 14 15  1  0
 15 16  2  0
 16 17  1  0
 16 18  1  0
 18 19  2  0
 19 20  1  0
 19 21  1  0
 21 22  1  0
 21 23  2  0
 23 24  1  0
 14 25  1  0
 25 26  1  0
 25 27  2  0
  6 28  1  0
 28  2  1  0
 27  7  1  0
 27 12  1  0
 23 15  1  0
M  END
>  <cnnaffinity>  (1) 
-5.19978

>  <filename>  (1) 
c1cncc(-c2cc3n(-c4cncs4)ccn3n2)c1

$$$$
