
     RDKit          3D

 38 41  0  0  0  0  0  0  0  0999 V2000
    4.9099    1.8332   16.9638 H   0  0  0  0  0  0  0  0  0  0  0  0
    5.3876    1.3178   17.7941 C   0  0  0  0  0  0  0  0  0  0  0  0
    6.5448    0.6993   17.5145 N   0  0  0  0  0  0  0  0  0  0  0  0
    7.1683    0.0809   18.5254 C   0  0  0  0  0  0  0  0  0  0  0  0
    8.1115   -0.4049   18.2722 H   0  0  0  0  0  0  0  0  0  0  0  0
    6.6940    0.0240   19.8501 C   0  0  0  0  0  0  0  0  0  0  0  0
    7.4685   -0.6899   20.9466 C   0  0  1  0  0  0  0  0  0  0  0  0
    8.4041   -1.0702   20.5149 H   0  0  0  0  0  0  0  0  0  0  0  0
    7.8543    0.2572   22.1410 C   0  0  0  0  0  0  0  0  0  0  0  0
    7.4684    1.2748   22.0426 H   0  0  0  0  0  0  0  0  0  0  0  0
    8.9427    0.3557   22.2106 H   0  0  0  0  0  0  0  0  0  0  0  0
    7.2729   -0.4339   23.3357 C   0  0  0  0  0  0  0  0  0  0  0  0
    7.2139   -0.1614   24.6260 N   0  0  0  0  0  0  0  0  0  0  0  0
    6.6232   -1.2668   25.1411 N   0  0  0  0  0  0  0  0  0  0  0  0
    6.6044   -1.3375   26.1492 H   0  0  0  0  0  0  0  0  0  0  0  0
    6.3124   -2.2289   24.2122 C   0  0  0  0  0  0  0  0  0  0  0  0
    5.7019   -3.5943   24.4377 C   0  0  0  0  0  0  0  0  0  0  0  0
    6.5099   -4.3295   24.3014 H   0  0  0  0  0  0  0  0  0  0  0  0
    4.5855   -3.9534   23.4328 C   0  0  0  0  0  0  0  0  0  0  0  0
    3.9377   -3.0846   23.3152 H   0  0  0  0  0  0  0  0  0  0  0  0
    4.9754   -4.2102   22.4421 H   0  0  0  0  0  0  0  0  0  0  0  0
    3.7774   -5.0961   24.0775 C   0  0  0  0  0  0  0  0  0  0  0  0
    2.7048   -4.9558   23.9058 H   0  0  0  0  0  0  0  0  0  0  0  0
    4.0359   -6.0664   23.6426 H   0  0  0  0  0  0  0  0  0  0  0  0
    4.1374   -5.0747   25.5815 C   0  0  0  0  0  0  0  0  0  0  0  0
    3.2503   -5.0482   26.2214 H   0  0  0  0  0  0  0  0  0  0  0  0
    4.6884   -5.9831   25.8451 H   0  0  0  0  0  0  0  0  0  0  0  0
    5.0284   -3.8386   25.7936 C   0  0  0  0  0  0  0  0  0  0  0  0
    5.7587   -3.9747   26.5976 H   0  0  0  0  0  0  0  0  0  0  0  0
    4.4095   -2.9674   26.0369 H   0  0  0  0  0  0  0  0  0  0  0  0
    6.7199   -1.6724   23.0220 C   0  0  0  0  0  0  0  0  0  0  0  0
    6.6943   -1.9191   21.5511 C   0  0  0  0  0  0  0  0  0  0  0  0
    5.6552   -1.9517   21.1963 H   0  0  0  0  0  0  0  0  0  0  0  0
    7.1667   -2.8643   21.2505 H   0  0  0  0  0  0  0  0  0  0  0  0
    5.4672    0.6635   20.1047 C   0  0  0  0  0  0  0  0  0  0  0  0
    5.0368    0.6613   21.1072 H   0  0  0  0  0  0  0  0  0  0  0  0
    4.8037    1.3201   19.0646 C   0  0  0  0  0  0  0  0  0  0  0  0
    3.8653    1.8437   19.2200 H   0  0  0  0  0  0  0  0  0  0  0  0
  1  2  1  0
  2  3  2  0
  3  4  1  0
  4  5  1  0
  4  6  2  0
  6  7  1  0
  7  8  1  6
  7  9  1  0
  9 10  1  0
  9 11  1  0
  9 12  1  0
 12 13  2  0
 13 14  1  0
 14 15  1  0
 14 16  1  0
 16 17  1  0
 17 18  1  0
 17 19  1  0
 19 20  1  0
 19 21  1  0
 19 22  1  0
 22 23  1  0
 22 24  1  0
 22 25  1  0
 25 26  1  0
 25 27  1  0
 25 28  1  0
 28 29  1  0
 28 30  1  0
 16 31  2  0
 31 32  1  0
 32 33  1  0
 32 34  1  0
  6 35  1  0
 35 36  1  0
 35 37  2  0
 37 38  1  0
 37  2  1  0
 32  7  1  0
 31 12  1  0
 28 17  1  0
M  END
>  <cnnaffinity>  (1) 
-5.19619

>  <filename>  (1) 
c1cncc([C@H]2Cc3n[nH]c(C4CCCC4)c3C2)c1

$$$$
