
     RDKit          3D

 34 38  0  0  0  0  0  0  0  0999 V2000
    4.9165    1.7758   17.0019 H   0  0  0  0  0  0  0  0  0  0  0  0
    5.4045    1.2899   17.8427 C   0  0  0  0  0  0  0  0  0  0  0  0
    6.5701    0.6777   17.5769 N   0  0  0  0  0  0  0  0  0  0  0  0
    7.1746    0.0563   18.5908 C   0  0  0  0  0  0  0  0  0  0  0  0
    8.1245   -0.4346   18.3738 H   0  0  0  0  0  0  0  0  0  0  0  0
    6.6476    0.0111   19.8922 C   0  0  0  0  0  0  0  0  0  0  0  0
    7.4018   -0.6985   20.9193 C   0  0  0  0  0  0  0  0  0  0  0  0
    8.3279   -1.5994   20.7012 N   0  0  0  0  0  0  0  0  0  0  0  0
    8.8282   -2.0320   21.9093 N   0  0  0  0  0  0  0  0  0  0  0  0
    8.1937   -1.3487   22.8210 C   0  0  0  0  0  0  0  0  0  0  0  0
    8.2605   -1.0907   24.5348 S   0  0  0  0  0  0  0  0  0  0  0  0
    7.0298    0.1813   24.3241 C   0  0  0  0  0  0  0  0  0  0  0  0
    6.5552    0.9533   25.4834 C   0  0  0  0  0  0  0  0  0  0  0  0
    5.5700    1.9782   25.2929 C   0  0  0  0  0  0  0  0  0  0  0  0
    5.1943    2.1602   24.2889 H   0  0  0  0  0  0  0  0  0  0  0  0
    5.0784    2.7247   26.2562 N   0  0  0  0  0  0  0  0  0  0  0  0
    5.5429    2.5104   27.5353 C   0  0  0  0  0  0  0  0  0  0  0  0
    5.0342    3.3035   28.6110 C   0  0  0  0  0  0  0  0  0  0  0  0
    4.2893    4.0555   28.3709 H   0  0  0  0  0  0  0  0  0  0  0  0
    5.4790    3.1122   29.9039 C   0  0  0  0  0  0  0  0  0  0  0  0
    5.0898    3.7160   30.7250 H   0  0  0  0  0  0  0  0  0  0  0  0
    6.4600    2.1150   30.1907 C   0  0  0  0  0  0  0  0  0  0  0  0
    6.7987    1.9746   31.2159 H   0  0  0  0  0  0  0  0  0  0  0  0
    6.9732    1.3338   29.1834 C   0  0  0  0  0  0  0  0  0  0  0  0
    7.7237    0.5706   29.3902 H   0  0  0  0  0  0  0  0  0  0  0  0
    6.5262    1.5140   27.8360 C   0  0  0  0  0  0  0  0  0  0  0  0
    7.0266    0.7313   26.7666 C   0  0  0  0  0  0  0  0  0  0  0  0
    7.7768   -0.0289   26.9924 H   0  0  0  0  0  0  0  0  0  0  0  0
    6.6153    0.3656   23.1108 N   0  0  0  0  0  0  0  0  0  0  0  0
    7.2663   -0.5130   22.2822 N   0  0  0  0  0  0  0  0  0  0  0  0
    5.4326    0.6524   20.1620 C   0  0  0  0  0  0  0  0  0  0  0  0
    5.0090    0.6359   21.1695 H   0  0  0  0  0  0  0  0  0  0  0  0
    4.8047    1.3083   19.1087 C   0  0  0  0  0  0  0  0  0  0  0  0
    3.8741    1.8435   19.2615 H   0  0  0  0  0  0  0  0  0  0  0  0
  1  2  1  0
  2  3  2  0
  3  4  1  0
  4  5  1  0
  4  6  2  0
  6  7  1  0
  7  8  2  0
  8  9  1  0
  9 10  2  0
 10 11  1  0
 11 12  1  0
 12 13  1  0
 13 14  2  0
 14 15  1  0
 14 16  1  0
 16 17  2  0
 17 18  1  0
 18 19  1  0
 18 20  2  0
 20 21  1  0
 20 22  1  0
 22 23  1  0
 22 24  2  0
 24 25  1  0
 24 26  1  0
 26 27  2  0
 27 28  1  0
 12 29  2  0
 29 30  1  0
  6 31  1  0
 31 32  1  0
 31 33  2  0
 33 34  1  0
 33  2  1  0
 30  7  1  0
 30 10  1  0
 27 13  1  0
 26 17  1  0
M  END
>  <cnnaffinity>  (1) 
-5.58112

>  <filename>  (1) 
c1cncc(-c2nnc3sc(-c4cnc5ccccc5c4)nn23)c1

$$$$
