
     RDKit          3D

 41 44  0  0  0  0  0  0  0  0999 V2000
    4.7907    1.4107   19.0112 C   0  0  0  0  0  0  0  0  0  0  0  0
    5.4203    1.3270   17.7658 C   0  0  0  0  0  0  0  0  0  0  0  0
    6.5612    0.6454   17.5643 N   0  0  0  0  0  0  0  0  0  0  0  0
    7.1250    0.0440   18.6170 C   0  0  0  0  0  0  0  0  0  0  0  0
    6.6135    0.1490   19.9253 C   0  0  0  0  0  0  0  0  0  0  0  0
    7.3164   -0.4765   20.9915 N   0  0  0  0  0  0  0  0  0  0  0  0
    7.7548   -1.7454   20.8155 N   0  0  0  0  0  0  0  0  0  0  0  0
    8.1399   -2.1070   22.0214 C   0  0  0  0  0  0  0  0  0  0  0  0
    8.6845   -3.4813   22.2430 C   0  0  0  0  0  0  0  0  0  0  0  0
    7.8262   -4.3921   23.1051 C   0  0  0  0  0  0  0  0  0  0  0  0
    8.4684   -5.4245   23.9844 C   0  0  0  0  0  0  0  0  0  0  0  0
    7.8180   -4.2082   24.5946 C   0  0  0  0  0  0  0  0  0  0  0  0
    6.8771   -4.3190   25.1290 H   0  0  0  0  0  0  0  0  0  0  0  0
    8.4630   -3.4361   25.0152 H   0  0  0  0  0  0  0  0  0  0  0  0
    7.9839   -6.3898   24.0995 H   0  0  0  0  0  0  0  0  0  0  0  0
    9.5524   -5.4927   24.0284 H   0  0  0  0  0  0  0  0  0  0  0  0
    6.8774   -4.6809   22.6472 H   0  0  0  0  0  0  0  0  0  0  0  0
    8.7796   -3.9143   21.2478 H   0  0  0  0  0  0  0  0  0  0  0  0
    9.6909   -3.3880   22.6672 H   0  0  0  0  0  0  0  0  0  0  0  0
    8.0366   -1.1313   22.9646 N   0  0  0  0  0  0  0  0  0  0  0  0
    7.5505   -0.1033   22.2878 C   0  0  0  0  0  0  0  0  0  0  0  0
    7.4928    1.3261   22.7431 C   0  0  0  0  0  0  0  0  0  0  0  0
    8.4643    2.2563   21.9701 C   0  0  0  0  0  0  0  0  0  0  0  0
    9.9070    1.8294   22.1109 C   0  0  0  0  0  0  0  0  0  0  0  0
   10.4804    0.8276   21.3372 C   0  0  0  0  0  0  0  0  0  0  0  0
   11.7179    0.3553   21.5247 N   0  0  0  0  0  0  0  0  0  0  0  0
   12.4089    0.8985   22.5193 C   0  0  0  0  0  0  0  0  0  0  0  0
   11.9986    1.8851   23.3149 N   0  0  0  0  0  0  0  0  0  0  0  0
   10.7639    2.3387   23.0903 C   0  0  0  0  0  0  0  0  0  0  0  0
   10.4414    3.1668   23.7248 H   0  0  0  0  0  0  0  0  0  0  0  0
   13.4016    0.4900   22.6991 H   0  0  0  0  0  0  0  0  0  0  0  0
    9.9083    0.3755   20.5287 H   0  0  0  0  0  0  0  0  0  0  0  0
    8.3505    3.2841   22.3395 H   0  0  0  0  0  0  0  0  0  0  0  0
    8.1702    2.2620   20.9119 H   0  0  0  0  0  0  0  0  0  0  0  0
    7.7291    1.3275   23.8116 H   0  0  0  0  0  0  0  0  0  0  0  0
    6.4721    1.7025   22.6244 H   0  0  0  0  0  0  0  0  0  0  0  0
    5.3983    0.8142   20.1213 C   0  0  0  0  0  0  0  0  0  0  0  0
    4.9316    0.8367   21.1070 H   0  0  0  0  0  0  0  0  0  0  0  0
    8.0086   -0.5587   18.4101 H   0  0  0  0  0  0  0  0  0  0  0  0
    4.9826    1.7966   16.8885 H   0  0  0  0  0  0  0  0  0  0  0  0
    3.8439    1.9330   19.1060 H   0  0  0  0  0  0  0  0  0  0  0  0
  1  2  2  0
  2  3  1  0
  3  4  2  0
  4  5  1  0
  5  6  1  0
  6  7  1  0
  7  8  2  0
  8  9  1  0
  9 10  1  0
 10 11  1  0
 11 12  1  0
 12 13  1  0
 12 14  1  0
 11 15  1  0
 11 16  1  0
 10 17  1  0
  9 18  1  0
  9 19  1  0
  8 20  1  0
 20 21  2  0
 21 22  1  0
 22 23  1  0
 23 24  1  0
 24 25  2  0
 25 26  1  0
 26 27  2  0
 27 28  1  0
 28 29  2  0
 29 30  1  0
 27 31  1  0
 25 32  1  0
 23 33  1  0
 23 34  1  0
 22 35  1  0
 22 36  1  0
  5 37  2  0
 37 38  1  0
  4 39  1  0
  2 40  1  0
  1 41  1  0
 37  1  1  0
 21  6  1  0
 29 24  1  0
 12 10  1  0
M  END
>  <cnnaffinity>  (1) 
-5.80826

>  <filename>  (1) 
c1cncc(-n2nc(CC3CC3)nc2CCc2cncnc2)c1

$$$$
