
     RDKit          3D

 34 37  0  0  0  0  0  0  0  0999 V2000
    4.9141    1.7796   16.9960 H   0  0  0  0  0  0  0  0  0  0  0  0
    5.4003    1.2936   17.8388 C   0  0  0  0  0  0  0  0  0  0  0  0
    6.5657    0.6765   17.5827 N   0  0  0  0  0  0  0  0  0  0  0  0
    7.1794    0.0637   18.5984 C   0  0  0  0  0  0  0  0  0  0  0  0
    8.1187   -0.4341   18.3687 H   0  0  0  0  0  0  0  0  0  0  0  0
    6.6645    0.0106   19.9061 C   0  0  0  0  0  0  0  0  0  0  0  0
    7.3674   -0.6738   20.9283 N   0  0  0  0  0  0  0  0  0  0  0  0
    8.7427   -0.8084   21.0487 C   0  0  0  0  0  0  0  0  0  0  0  0
    9.4095   -0.3518   20.3295 H   0  0  0  0  0  0  0  0  0  0  0  0
    9.0075   -1.5539   22.1628 C   0  0  0  0  0  0  0  0  0  0  0  0
    9.9822   -1.8276   22.5436 H   0  0  0  0  0  0  0  0  0  0  0  0
    7.7642   -1.8948   22.7737 C   0  0  0  0  0  0  0  0  0  0  0  0
    7.5787   -2.7278   23.9668 C   0  0  0  0  0  0  0  0  0  0  0  0
    8.2519   -3.9294   24.0738 C   0  0  0  0  0  0  0  0  0  0  0  0
    8.9414   -4.2243   23.2854 H   0  0  0  0  0  0  0  0  0  0  0  0
    8.1015   -4.8275   25.0804 N   0  0  0  0  0  0  0  0  0  0  0  0
    7.2582   -4.5060   26.0410 C   0  0  0  0  0  0  0  0  0  0  0  0
    7.1294   -5.2206   26.8511 H   0  0  0  0  0  0  0  0  0  0  0  0
    6.5147   -3.2910   26.0931 C   0  0  0  0  0  0  0  0  0  0  0  0
    5.6218   -2.9806   27.1660 C   0  0  0  0  0  0  0  0  0  0  0  0
    5.4853   -3.7023   27.9704 H   0  0  0  0  0  0  0  0  0  0  0  0
    4.9552   -1.7790   27.1867 C   0  0  0  0  0  0  0  0  0  0  0  0
    4.2795   -1.5375   28.0035 H   0  0  0  0  0  0  0  0  0  0  0  0
    5.1514   -0.8276   26.1478 C   0  0  0  0  0  0  0  0  0  0  0  0
    4.6316    0.1258   26.1786 H   0  0  0  0  0  0  0  0  0  0  0  0
    6.0056   -1.1011   25.1047 C   0  0  0  0  0  0  0  0  0  0  0  0
    6.1796   -0.3731   24.3146 H   0  0  0  0  0  0  0  0  0  0  0  0
    6.6927   -2.3546   25.0332 C   0  0  0  0  0  0  0  0  0  0  0  0
    6.7895   -1.3463   21.9792 C   0  0  0  0  0  0  0  0  0  0  0  0
    5.7171   -1.4297   22.0768 H   0  0  0  0  0  0  0  0  0  0  0  0
    5.4401    0.6480   20.1637 C   0  0  0  0  0  0  0  0  0  0  0  0
    5.0119    0.6377   21.1679 H   0  0  0  0  0  0  0  0  0  0  0  0
    4.8088    1.3101   19.1074 C   0  0  0  0  0  0  0  0  0  0  0  0
    3.8752    1.8418   19.2628 H   0  0  0  0  0  0  0  0  0  0  0  0
  1  2  1  0
  2  3  2  0
  3  4  1  0
  4  5  1  0
  4  6  2  0
  6  7  1  0
  7  8  1  0
  8  9  1  0
  8 10  2  0
 10 11  1  0
 10 12  1  0
 12 13  1  0
 13 14  2  0
 14 15  1  0
 14 16  1  0
 16 17  2  0
 17 18  1  0
 17 19  1  0
 19 20  2  0
 20 21  1  0
 20 22  1  0
 22 23  1  0
 22 24  2  0
 24 25  1  0
 24 26  1  0
 26 27  1  0
 26 28  2  0
 12 29  2  0
 29 30  1  0
  6 31  1  0
 31 32  1  0
 31 33  2  0
 33 34  1  0
 33  2  1  0
 29  7  1  0
 28 13  1  0
 28 19  1  0
M  END
>  <cnnaffinity>  (1) 
-5.40014

>  <filename>  (1) 
c1cncc(-n2ccc(-c3cncc4ccccc34)c2)c1

$$$$
