
     RDKit          3D

 33 36  0  0  0  0  0  0  0  0999 V2000
    4.9318    1.7814   16.9986 H   0  0  0  0  0  0  0  0  0  0  0  0
    5.4096    1.2858   17.8422 C   0  0  0  0  0  0  0  0  0  0  0  0
    6.5754    0.6672   17.5907 N   0  0  0  0  0  0  0  0  0  0  0  0
    7.1657    0.0301   18.6083 C   0  0  0  0  0  0  0  0  0  0  0  0
    8.1176   -0.4424   18.3721 H   0  0  0  0  0  0  0  0  0  0  0  0
    6.6405   -0.0227   19.9043 C   0  0  0  0  0  0  0  0  0  0  0  0
    7.3747   -0.7498   20.9696 C   0  0  0  0  0  0  0  0  0  0  0  0
    7.7020   -2.0164   20.6736 N   0  0  0  0  0  0  0  0  0  0  0  0
    8.2330   -2.7661   21.6385 C   0  0  0  0  0  0  0  0  0  0  0  0
    8.4417   -3.7975   21.3679 H   0  0  0  0  0  0  0  0  0  0  0  0
    8.5271   -2.2982   22.9254 C   0  0  0  0  0  0  0  0  0  0  0  0
    8.9817   -2.9576   23.6560 H   0  0  0  0  0  0  0  0  0  0  0  0
    8.2531   -0.9731   23.2298 C   0  0  0  0  0  0  0  0  0  0  0  0
    8.4811   -0.5354   24.2069 H   0  0  0  0  0  0  0  0  0  0  0  0
    7.6772   -0.1666   22.2289 C   0  0  0  0  0  0  0  0  0  0  0  0
    7.5044    1.2763   22.4534 C   0  0  0  0  0  0  0  0  0  0  0  0
    7.1534    1.6958   23.7156 O   0  0  0  0  0  0  0  0  0  0  0  0
    7.0700    3.0590   23.6615 C   0  0  0  0  0  0  0  0  0  0  0  0
    6.7301    3.9313   24.7014 C   0  0  0  0  0  0  0  0  0  0  0  0
    6.4780    3.5616   25.6934 H   0  0  0  0  0  0  0  0  0  0  0  0
    6.7386    5.2973   24.3907 C   0  0  0  0  0  0  0  0  0  0  0  0
    6.4835    6.0254   25.1606 H   0  0  0  0  0  0  0  0  0  0  0  0
    7.0696    5.7738   23.0967 C   0  0  0  0  0  0  0  0  0  0  0  0
    7.0646    6.8452   22.8847 H   0  0  0  0  0  0  0  0  0  0  0  0
    7.4039    4.8870   22.0807 C   0  0  0  0  0  0  0  0  0  0  0  0
    7.6622    5.2242   21.0782 H   0  0  0  0  0  0  0  0  0  0  0  0
    7.4079    3.5125   22.3743 C   0  0  0  0  0  0  0  0  0  0  0  0
    7.6993    2.3312   21.6224 C   0  0  0  0  0  0  0  0  0  0  0  0
    7.9785    2.2673   20.5834 H   0  0  0  0  0  0  0  0  0  0  0  0
    5.4216    0.6275   20.1572 C   0  0  0  0  0  0  0  0  0  0  0  0
    4.9975    0.6427   21.1662 H   0  0  0  0  0  0  0  0  0  0  0  0
    4.8040    1.2961   19.1026 C   0  0  0  0  0  0  0  0  0  0  0  0
    3.8786    1.8386   19.2503 H   0  0  0  0  0  0  0  0  0  0  0  0
  1  2  1  0
  2  3  2  0
  3  4  1  0
  4  5  1  0
  4  6  2  0
  6  7  1  0
  7  8  2  0
  8  9  1  0
  9 10  1  0
  9 11  2  0
 11 12  1  0
 11 13  1  0
 13 14  1  0
 13 15  2  0
 15 16  1  0
 16 17  1  0
 17 18  1  0
 18 19  2  0
 19 20  1  0
 19 21  1  0
 21 22  1  0
 21 23  2  0
 23 24  1  0
 23 25  1  0
 25 26  1  0
 25 27  2  0
 27 28  1  0
 28 29  1  0
  6 30  1  0
 30 31  1  0
 30 32  2  0
 32 33  1  0
 32  2  1  0
 15  7  1  0
 28 16  2  0
 27 18  1  0
M  END
>  <cnnaffinity>  (1) 
-5.04947

>  <filename>  (1) 
c1cncc(-c2ncccc2-c2cc3ccccc3o2)c1

$$$$
