
     RDKit          3D

 30 33  0  0  0  0  0  0  0  0999 V2000
    4.9170    1.7795   16.9975 H   0  0  0  0  0  0  0  0  0  0  0  0
    5.4032    1.2906   17.8412 C   0  0  0  0  0  0  0  0  0  0  0  0
    6.5704    0.6748   17.5857 N   0  0  0  0  0  0  0  0  0  0  0  0
    7.1814    0.0535   18.5973 C   0  0  0  0  0  0  0  0  0  0  0  0
    8.1274   -0.4365   18.3769 H   0  0  0  0  0  0  0  0  0  0  0  0
    6.6551    0.0180   19.9062 C   0  0  0  0  0  0  0  0  0  0  0  0
    7.3578   -0.6403   20.9677 N   0  0  0  0  0  0  0  0  0  0  0  0
    8.1387   -1.7281   20.7273 N   0  0  0  0  0  0  0  0  0  0  0  0
    8.6229   -2.0979   21.8503 N   0  0  0  0  0  0  0  0  0  0  0  0
    8.2028   -1.3038   22.8663 N   0  0  0  0  0  0  0  0  0  0  0  0
    7.4292   -0.4127   22.3006 C   0  0  0  0  0  0  0  0  0  0  0  0
    6.7956    0.6339   22.8439 O   0  0  0  0  0  0  0  0  0  0  0  0
    6.6940    0.8017   24.2208 C   0  0  0  0  0  0  0  0  0  0  0  0
    6.7682   -0.1572   25.1697 C   0  0  0  0  0  0  0  0  0  0  0  0
    6.9711   -1.2066   25.0128 H   0  0  0  0  0  0  0  0  0  0  0  0
    6.5126    0.4618   26.7675 S   0  0  0  0  0  0  0  0  0  0  0  0
    6.2581    2.0764   26.1572 C   0  0  0  0  0  0  0  0  0  0  0  0
    5.9642    3.2390   26.9015 C   0  0  0  0  0  0  0  0  0  0  0  0
    5.8767    3.2053   27.9863 H   0  0  0  0  0  0  0  0  0  0  0  0
    5.7862    4.4356   26.2102 C   0  0  0  0  0  0  0  0  0  0  0  0
    5.5574    5.3501   26.7582 H   0  0  0  0  0  0  0  0  0  0  0  0
    5.8962    4.4845   24.8006 C   0  0  0  0  0  0  0  0  0  0  0  0
    5.7537    5.4275   24.2777 H   0  0  0  0  0  0  0  0  0  0  0  0
    6.1878    3.3336   24.0717 C   0  0  0  0  0  0  0  0  0  0  0  0
    6.2741    3.3582   22.9876 H   0  0  0  0  0  0  0  0  0  0  0  0
    6.3791    2.1097   24.7463 C   0  0  0  0  0  0  0  0  0  0  0  0
    5.4367    0.6503   20.1676 C   0  0  0  0  0  0  0  0  0  0  0  0
    5.0081    0.6363   21.1698 H   0  0  0  0  0  0  0  0  0  0  0  0
    4.8065    1.3039   19.1057 C   0  0  0  0  0  0  0  0  0  0  0  0
    3.8763    1.8399   19.2621 H   0  0  0  0  0  0  0  0  0  0  0  0
  1  2  1  0
  2  3  2  0
  3  4  1  0
  4  5  1  0
  4  6  2  0
  6  7  1  0
  7  8  1  0
  8  9  2  0
  9 10  1  0
 10 11  2  0
 11 12  1  0
 12 13  1  0
 13 14  2  0
 14 15  1  0
 14 16  1  0
 16 17  1  0
 17 18  2  0
 18 19  1  0
 18 20  1  0
 20 21  1  0
 20 22  2  0
 22 23  1  0
 22 24  1  0
 24 25  1  0
 24 26  2  0
  6 27  1  0
 27 28  1  0
 27 29  2  0
 29 30  1  0
 29  2  1  0
 11  7  1  0
 26 13  1  0
 26 17  1  0
M  END
>  <cnnaffinity>  (1) 
-5.23494

>  <filename>  (1) 
c1cncc(-n2nnnc2Oc2csc3ccccc23)c1

$$$$
