
     RDKit          3D

 46 50  0  0  0  0  0  0  0  0999 V2000
    4.7019    1.3773   18.9647 C   0  0  0  0  0  0  0  0  0  0  0  0
    5.3975    1.3645   17.7519 C   0  0  0  0  0  0  0  0  0  0  0  0
    6.5642    0.7260   17.5706 N   0  0  0  0  0  0  0  0  0  0  0  0
    7.0757    0.0806   18.6238 C   0  0  0  0  0  0  0  0  0  0  0  0
    6.4567    0.0175   19.8832 C   0  0  0  0  0  0  0  0  0  0  0  0
    7.1464   -0.7161   21.0040 C   0  0  0  0  0  0  0  0  0  0  0  0
    8.3912   -0.0798   21.4167 N   0  0  0  0  0  0  0  0  0  0  0  0
    9.5619   -0.7068   21.1908 N   0  0  0  0  0  0  0  0  0  0  0  0
   10.4538    0.1079   21.7296 C   0  0  0  0  0  0  0  0  0  0  0  0
   11.8892   -0.2748   21.8990 C   0  0  0  0  0  0  0  0  0  0  0  0
   12.8095    0.5670   22.5468 C   0  0  0  0  0  0  0  0  0  0  0  0
   14.1213    0.1292   22.7405 C   0  0  0  0  0  0  0  0  0  0  0  0
   14.5624   -1.0786   22.3751 N   0  0  0  0  0  0  0  0  0  0  0  0
   13.6920   -1.8795   21.7486 C   0  0  0  0  0  0  0  0  0  0  0  0
   12.3753   -1.5252   21.4712 C   0  0  0  0  0  0  0  0  0  0  0  0
   11.7258   -2.2155   20.9507 H   0  0  0  0  0  0  0  0  0  0  0  0
   14.0632   -2.8579   21.4564 H   0  0  0  0  0  0  0  0  0  0  0  0
   14.8491    0.7947   23.1939 H   0  0  0  0  0  0  0  0  0  0  0  0
   12.5143    1.5345   22.9322 H   0  0  0  0  0  0  0  0  0  0  0  0
    9.9177    1.2480   22.2431 N   0  0  0  0  0  0  0  0  0  0  0  0
    8.6219    1.0898   22.0503 C   0  0  0  0  0  0  0  0  0  0  0  0
    7.5464    1.8874   22.7463 C   0  0  0  0  0  0  0  0  0  0  0  0
    7.0061    1.1052   23.9107 C   0  0  0  0  0  0  0  0  0  0  0  0
    5.7964    0.5833   24.2937 C   0  0  0  0  0  0  0  0  0  0  0  0
    5.9409   -0.2410   25.3789 N   0  0  0  0  0  0  0  0  0  0  0  0
    7.2207   -0.2260   25.6718 C   0  0  0  0  0  0  0  0  0  0  0  0
    7.8702   -0.9248   26.7912 C   0  0  0  0  0  0  0  0  0  0  0  0
    9.3079   -1.3936   26.7178 C   0  0  0  0  0  0  0  0  0  0  0  0
    8.9642   -0.2050   27.5475 C   0  0  0  0  0  0  0  0  0  0  0  0
    9.0123   -0.2663   28.6304 H   0  0  0  0  0  0  0  0  0  0  0  0
    9.2243    0.7652   27.1320 H   0  0  0  0  0  0  0  0  0  0  0  0
    9.5618   -2.3174   27.2281 H   0  0  0  0  0  0  0  0  0  0  0  0
    9.8644   -1.2372   25.7952 H   0  0  0  0  0  0  0  0  0  0  0  0
    7.1779   -1.5473   27.3463 H   0  0  0  0  0  0  0  0  0  0  0  0
    7.8961    0.6005   24.8233 N   0  0  0  0  0  0  0  0  0  0  0  0
    8.8998    0.6357   24.7020 H   0  0  0  0  0  0  0  0  0  0  0  0
    4.8316    0.7322   23.8274 H   0  0  0  0  0  0  0  0  0  0  0  0
    8.0261    2.8047   23.1007 H   0  0  0  0  0  0  0  0  0  0  0  0
    6.7434    2.1648   22.0598 H   0  0  0  0  0  0  0  0  0  0  0  0
    6.4909   -0.8184   21.8739 H   0  0  0  0  0  0  0  0  0  0  0  0
    7.4289   -1.7260   20.6927 H   0  0  0  0  0  0  0  0  0  0  0  0
    5.2428    0.6872   20.0503 C   0  0  0  0  0  0  0  0  0  0  0  0
    4.7375    0.6800   21.0188 H   0  0  0  0  0  0  0  0  0  0  0  0
    8.0321   -0.4199   18.4677 H   0  0  0  0  0  0  0  0  0  0  0  0
    4.9974    1.8791   16.8822 H   0  0  0  0  0  0  0  0  0  0  0  0
    3.7696    1.9227   19.0476 H   0  0  0  0  0  0  0  0  0  0  0  0
  1  2  2  0
  2  3  1  0
  3  4  2  0
  4  5  1  0
  5  6  1  0
  6  7  1  0
  7  8  1  0
  8  9  2  0
  9 10  1  0
 10 11  2  0
 11 12  1  0
 12 13  2  0
 13 14  1  0
 14 15  2  0
 15 16  1  0
 14 17  1  0
 12 18  1  0
 11 19  1  0
  9 20  1  0
 20 21  2  0
 21 22  1  0
 22 23  1  0
 23 24  2  0
 24 25  1  0
 25 26  2  0
 26 27  1  0
 27 28  1  0
 28 29  1  0
 29 30  1  0
 29 31  1  0
 28 32  1  0
 28 33  1  0
 27 34  1  0
 26 35  1  0
 35 36  1  0
 24 37  1  0
 22 38  1  0
 22 39  1  0
  6 40  1  0
  6 41  1  0
  5 42  2  0
 42 43  1  0
  4 44  1  0
  2 45  1  0
  1 46  1  0
 42  1  1  0
 21  7  1  0
 35 23  1  0
 15 10  1  0
 29 27  1  0
M  END
>  <cnnaffinity>  (1) 
-6.75529

>  <filename>  (1) 
c1cncc(Cn2nc(-c3ccncc3)nc2Cc2cnc(C3CC3)[nH]2)c1

$$$$
