
     RDKit          3D

 40 43  0  0  0  0  0  0  0  0999 V2000
    4.8019    1.3184   19.1009 C   0  0  0  0  0  0  0  0  0  0  0  0
    5.3943    1.2975   17.8327 C   0  0  0  0  0  0  0  0  0  0  0  0
    6.5499    0.6658   17.5775 N   0  0  0  0  0  0  0  0  0  0  0  0
    7.1555    0.0362   18.5898 C   0  0  0  0  0  0  0  0  0  0  0  0
    6.6311   -0.0114   19.8953 C   0  0  0  0  0  0  0  0  0  0  0  0
    7.2911   -0.6960   20.9460 N   0  0  0  0  0  0  0  0  0  0  0  0
    6.6295   -1.5685   21.7530 N   0  0  0  0  0  0  0  0  0  0  0  0
    7.5798   -2.0150   22.5464 C   0  0  0  0  0  0  0  0  0  0  0  0
    7.3607   -2.9939   23.6553 C   0  0  0  0  0  0  0  0  0  0  0  0
    7.7274   -2.4260   25.0533 C   0  0  0  0  0  0  0  0  0  0  0  0
    8.0249   -3.6605   25.9324 C   0  0  0  0  0  0  0  0  0  0  0  0
    8.3389   -4.8334   24.9618 C   0  0  0  0  0  0  0  0  0  0  0  0
    8.2408   -4.2626   23.5311 C   0  0  0  0  0  0  0  0  0  0  0  0
    9.2371   -3.9857   23.1544 H   0  0  0  0  0  0  0  0  0  0  0  0
    7.8149   -4.9743   22.8118 H   0  0  0  0  0  0  0  0  0  0  0  0
    7.6188   -5.6489   25.1069 H   0  0  0  0  0  0  0  0  0  0  0  0
    9.3290   -5.2671   25.1480 H   0  0  0  0  0  0  0  0  0  0  0  0
    8.8554   -3.4639   26.6214 H   0  0  0  0  0  0  0  0  0  0  0  0
    7.1623   -3.9100   26.5634 H   0  0  0  0  0  0  0  0  0  0  0  0
    8.6184   -1.7841   24.9726 H   0  0  0  0  0  0  0  0  0  0  0  0
    6.9210   -1.7972   25.4545 H   0  0  0  0  0  0  0  0  0  0  0  0
    6.2926   -3.2546   23.6190 H   0  0  0  0  0  0  0  0  0  0  0  0
    8.8104   -1.4888   22.3118 N   0  0  0  0  0  0  0  0  0  0  0  0
    8.5917   -0.6260   21.3454 C   0  0  0  0  0  0  0  0  0  0  0  0
    9.6379    0.2034   20.6733 C   0  0  0  0  0  0  0  0  0  0  0  0
   10.7187    0.6923   21.5975 C   0  0  0  0  0  0  0  0  0  0  0  0
   11.9323    0.1667   21.9595 C   0  0  0  0  0  0  0  0  0  0  0  0
   12.4735    0.8550   23.0194 N   0  0  0  0  0  0  0  0  0  0  0  0
   11.6049    1.7904   23.2961 C   0  0  0  0  0  0  0  0  0  0  0  0
   10.5274    1.7529   22.4607 N   0  0  0  0  0  0  0  0  0  0  0  0
    9.7018    2.3274   22.5361 H   0  0  0  0  0  0  0  0  0  0  0  0
   11.6872    2.5285   24.0851 H   0  0  0  0  0  0  0  0  0  0  0  0
   12.4243   -0.7053   21.5343 H   0  0  0  0  0  0  0  0  0  0  0  0
   10.0564   -0.4513   19.9015 H   0  0  0  0  0  0  0  0  0  0  0  0
    9.1476    1.0385   20.1669 H   0  0  0  0  0  0  0  0  0  0  0  0
    5.4254    0.6448   20.1516 C   0  0  0  0  0  0  0  0  0  0  0  0
    5.0125    0.6043   21.1585 H   0  0  0  0  0  0  0  0  0  0  0  0
    8.1072   -0.4392   18.3514 H   0  0  0  0  0  0  0  0  0  0  0  0
    4.9312    1.8021   16.9893 H   0  0  0  0  0  0  0  0  0  0  0  0
    3.8704    1.8513   19.2499 H   0  0  0  0  0  0  0  0  0  0  0  0
  1  2  2  0
  2  3  1  0
  3  4  2  0
  4  5  1  0
  5  6  1  0
  6  7  1  0
  7  8  2  0
  8  9  1  0
  9 10  1  0
 10 11  1  0
 11 12  1  0
 12 13  1  0
 13 14  1  0
 13 15  1  0
 12 16  1  0
 12 17  1  0
 11 18  1  0
 11 19  1  0
 10 20  1  0
 10 21  1  0
  9 22  1  0
  8 23  1  0
 23 24  2  0
 24 25  1  0
 25 26  1  0
 26 27  2  0
 27 28  1  0
 28 29  2  0
 29 30  1  0
 30 31  1  0
 29 32  1  0
 27 33  1  0
 25 34  1  0
 25 35  1  0
  5 36  2  0
 36 37  1  0
  4 38  1  0
  2 39  1  0
  1 40  1  0
 36  1  1  0
 24  6  1  0
 30 26  1  0
 13  9  1  0
M  END
>  <cnnaffinity>  (1) 
-6.12942

>  <filename>  (1) 
c1cncc(-n2nc(C3CCCC3)nc2Cc2cnc[nH]2)c1

$$$$
