
     RDKit          3D

 34 37  0  0  0  0  0  0  0  0999 V2000
    4.9448    1.8035   16.9766 H   0  0  0  0  0  0  0  0  0  0  0  0
    5.3960    1.2906   17.8270 C   0  0  0  0  0  0  0  0  0  0  0  0
    6.5551    0.6586   17.5818 N   0  0  0  0  0  0  0  0  0  0  0  0
    7.1496    0.0321   18.5999 C   0  0  0  0  0  0  0  0  0  0  0  0
    8.0934   -0.4583   18.3634 H   0  0  0  0  0  0  0  0  0  0  0  0
    6.6432    0.0130   19.9081 C   0  0  0  0  0  0  0  0  0  0  0  0
    7.4207   -0.6874   20.9359 C   0  0  0  0  0  0  0  0  0  0  0  0
    8.0594   -1.8125   20.7309 N   0  0  0  0  0  0  0  0  0  0  0  0
    8.5750   -2.1920   21.9430 C   0  0  0  0  0  0  0  0  0  0  0  0
    9.1307   -3.1196   22.0311 H   0  0  0  0  0  0  0  0  0  0  0  0
    8.2697   -1.2581   22.8920 C   0  0  0  0  0  0  0  0  0  0  0  0
    8.4987   -1.1524   23.9393 H   0  0  0  0  0  0  0  0  0  0  0  0
    7.5282   -0.2821   22.2494 N   0  0  0  0  0  0  0  0  0  0  0  0
    7.1688    0.9879   22.8066 C   0  0  0  0  0  0  0  0  0  0  0  0
    7.6796    2.1390   22.2432 C   0  0  0  0  0  0  0  0  0  0  0  0
    8.3319    2.0594   21.3772 H   0  0  0  0  0  0  0  0  0  0  0  0
    7.3514    3.4081   22.7808 C   0  0  0  0  0  0  0  0  0  0  0  0
    7.7809    4.2990   22.3268 H   0  0  0  0  0  0  0  0  0  0  0  0
    6.5014    3.5117   23.8579 C   0  0  0  0  0  0  0  0  0  0  0  0
    6.2509    4.4805   24.2792 H   0  0  0  0  0  0  0  0  0  0  0  0
    5.9297    2.3443   24.4545 C   0  0  0  0  0  0  0  0  0  0  0  0
    5.0269    2.4244   25.5642 C   0  0  0  0  0  0  0  0  0  0  0  0
    4.8066    3.4068   25.9705 H   0  0  0  0  0  0  0  0  0  0  0  0
    4.4661    1.2948   26.1106 C   0  0  0  0  0  0  0  0  0  0  0  0
    3.7765    1.3732   26.9491 H   0  0  0  0  0  0  0  0  0  0  0  0
    4.7888    0.0164   25.5886 C   0  0  0  0  0  0  0  0  0  0  0  0
    4.3089   -0.8714   25.9914 H   0  0  0  0  0  0  0  0  0  0  0  0
    5.6903   -0.0964   24.5521 C   0  0  0  0  0  0  0  0  0  0  0  0
    5.9474   -1.0657   24.1377 H   0  0  0  0  0  0  0  0  0  0  0  0
    6.2723    1.0569   23.9352 C   0  0  0  0  0  0  0  0  0  0  0  0
    5.4192    0.6618   20.1485 C   0  0  0  0  0  0  0  0  0  0  0  0
    4.9962    0.6794   21.1546 H   0  0  0  0  0  0  0  0  0  0  0  0
    4.7894    1.3084   19.0877 C   0  0  0  0  0  0  0  0  0  0  0  0
    3.8587    1.8480   19.2205 H   0  0  0  0  0  0  0  0  0  0  0  0
  1  2  1  0
  2  3  2  0
  3  4  1  0
  4  5  1  0
  4  6  2  0
  6  7  1  0
  7  8  2  0
  8  9  1  0
  9 10  1  0
  9 11  2  0
 11 12  1  0
 11 13  1  0
 13 14  1  0
 14 15  2  0
 15 16  1  0
 15 17  1  0
 17 18  1  0
 17 19  2  0
 19 20  1  0
 19 21  1  0
 21 22  2  0
 22 23  1  0
 22 24  1  0
 24 25  1  0
 24 26  2  0
 26 27  1  0
 26 28  1  0
 28 29  1  0
 28 30  2  0
  6 31  1  0
 31 32  1  0
 31 33  2  0
 33 34  1  0
 33  2  1  0
 13  7  1  0
 30 14  1  0
 30 21  1  0
M  END
>  <cnnaffinity>  (1) 
-4.92337

>  <filename>  (1) 
c1cncc(-c2nccn2-c2cccc3ccccc23)c1

$$$$
