
     RDKit          3D

 44 47  0  0  0  0  0  0  0  0999 V2000
    4.8230    1.3026   19.1081 C   0  0  0  0  0  0  0  0  0  0  0  0
    5.4131    1.2959   17.8398 C   0  0  0  0  0  0  0  0  0  0  0  0
    6.5637    0.6600   17.5658 N   0  0  0  0  0  0  0  0  0  0  0  0
    7.1815    0.0363   18.5776 C   0  0  0  0  0  0  0  0  0  0  0  0
    6.6843    0.0136   19.8918 C   0  0  0  0  0  0  0  0  0  0  0  0
    7.3743   -0.6425   20.9460 N   0  0  0  0  0  0  0  0  0  0  0  0
    6.7353   -1.5870   21.6838 N   0  0  0  0  0  0  0  0  0  0  0  0
    7.6613   -1.9635   22.5445 C   0  0  0  0  0  0  0  0  0  0  0  0
    7.4335   -2.9665   23.6217 C   0  0  0  0  0  0  0  0  0  0  0  0
    6.7038   -4.2806   23.2123 C   0  0  0  0  0  0  0  0  0  0  0  0
    5.5215   -3.9148   24.1378 C   0  0  0  0  0  0  0  0  0  0  0  0
    6.2726   -2.6544   24.6200 C   0  0  0  0  0  0  0  0  0  0  0  0
    6.5694   -2.6680   25.6727 H   0  0  0  0  0  0  0  0  0  0  0  0
    5.7622   -1.7075   24.4240 H   0  0  0  0  0  0  0  0  0  0  0  0
    5.2846   -4.6466   24.9151 H   0  0  0  0  0  0  0  0  0  0  0  0
    4.5961   -3.6914   23.5979 H   0  0  0  0  0  0  0  0  0  0  0  0
    7.2411   -5.1927   23.4889 H   0  0  0  0  0  0  0  0  0  0  0  0
    6.4537   -4.3326   22.1489 H   0  0  0  0  0  0  0  0  0  0  0  0
    8.4070   -3.1099   24.0963 H   0  0  0  0  0  0  0  0  0  0  0  0
    8.8537   -1.3215   22.4213 N   0  0  0  0  0  0  0  0  0  0  0  0
    8.6388   -0.4722   21.4337 C   0  0  0  0  0  0  0  0  0  0  0  0
    9.5313    0.6120   20.9368 C   0  0  0  0  0  0  0  0  0  0  0  0
    9.0153    2.0252   21.2630 C   0  0  0  0  0  0  0  0  0  0  0  0
    8.8182    2.2690   22.7753 C   0  0  0  0  0  0  0  0  0  0  0  0
   10.1074    2.0894   23.5327 C   0  0  0  0  0  0  0  0  0  0  0  0
   10.3656    0.9529   24.3321 C   0  0  0  0  0  0  0  0  0  0  0  0
   11.5816    0.6701   24.8432 N   0  0  0  0  0  0  0  0  0  0  0  0
   12.5364    1.5681   24.5617 C   0  0  0  0  0  0  0  0  0  0  0  0
   12.2715    2.7507   23.8430 C   0  0  0  0  0  0  0  0  0  0  0  0
   11.0638    3.0204   23.3266 N   0  0  0  0  0  0  0  0  0  0  0  0
   13.0494    3.4877   23.6675 H   0  0  0  0  0  0  0  0  0  0  0  0
   13.5396    1.3435   24.9055 H   0  0  0  0  0  0  0  0  0  0  0  0
    9.5513    0.2575   24.5168 H   0  0  0  0  0  0  0  0  0  0  0  0
    8.4442    3.2823   22.9450 H   0  0  0  0  0  0  0  0  0  0  0  0
    8.0581    1.5816   23.1629 H   0  0  0  0  0  0  0  0  0  0  0  0
    9.7400    2.7517   20.8874 H   0  0  0  0  0  0  0  0  0  0  0  0
    8.0790    2.2085   20.7233 H   0  0  0  0  0  0  0  0  0  0  0  0
    9.6163    0.4952   19.8552 H   0  0  0  0  0  0  0  0  0  0  0  0
   10.5357    0.4624   21.3442 H   0  0  0  0  0  0  0  0  0  0  0  0
    5.4586    0.6345   20.1575 C   0  0  0  0  0  0  0  0  0  0  0  0
    5.0371    0.5764   21.1615 H   0  0  0  0  0  0  0  0  0  0  0  0
    8.1105   -0.4819   18.3348 H   0  0  0  0  0  0  0  0  0  0  0  0
    4.9424    1.8171   17.0100 H   0  0  0  0  0  0  0  0  0  0  0  0
    3.8846    1.8241   19.2668 H   0  0  0  0  0  0  0  0  0  0  0  0
  1  2  2  0
  2  3  1  0
  3  4  2  0
  4  5  1  0
  5  6  1  0
  6  7  1  0
  7  8  2  0
  8  9  1  0
  9 10  1  0
 10 11  1  0
 11 12  1  0
 12 13  1  0
 12 14  1  0
 11 15  1  0
 11 16  1  0
 10 17  1  0
 10 18  1  0
  9 19  1  0
  8 20  1  0
 20 21  2  0
 21 22  1  0
 22 23  1  0
 23 24  1  0
 24 25  1  0
 25 26  2  0
 26 27  1  0
 27 28  2  0
 28 29  1  0
 29 30  2  0
 29 31  1  0
 28 32  1  0
 26 33  1  0
 24 34  1  0
 24 35  1  0
 23 36  1  0
 23 37  1  0
 22 38  1  0
 22 39  1  0
  5 40  2  0
 40 41  1  0
  4 42  1  0
  2 43  1  0
  1 44  1  0
 40  1  1  0
 21  6  1  0
 30 25  1  0
 12  9  1  0
M  END
>  <cnnaffinity>  (1) 
-6.27202

>  <filename>  (1) 
c1cncc(-n2nc(C3CCC3)nc2CCCc2cnccn2)c1

$$$$
