
     RDKit          3D

 36 40  0  0  0  0  0  0  0  0999 V2000
    4.9239    1.8189   16.9791 H   0  0  0  0  0  0  0  0  0  0  0  0
    5.4653    1.3381   17.7949 C   0  0  0  0  0  0  0  0  0  0  0  0
    6.6332    0.7511   17.4856 N   0  0  0  0  0  0  0  0  0  0  0  0
    7.2834    0.1035   18.4608 C   0  0  0  0  0  0  0  0  0  0  0  0
    8.2103   -0.3898   18.1787 H   0  0  0  0  0  0  0  0  0  0  0  0
    6.8213   -0.0035   19.7831 C   0  0  0  0  0  0  0  0  0  0  0  0
    7.5272   -0.7983   20.7277 N   0  0  0  0  0  0  0  0  0  0  0  0
    8.8906   -0.8008   21.0528 C   0  0  0  0  0  0  0  0  0  0  0  0
    9.5974   -0.1655   20.5481 H   0  0  0  0  0  0  0  0  0  0  0  0
    9.1158   -1.6935   22.0524 C   0  0  0  0  0  0  0  0  0  0  0  0
    9.9891   -1.9905   22.6046 H   0  0  0  0  0  0  0  0  0  0  0  0
    7.8877   -2.2587   22.3449 N   0  0  0  0  0  0  0  0  0  0  0  0
    7.4543   -3.2200   23.1920 N   0  0  0  0  0  0  0  0  0  0  0  0
    6.1447   -3.3124   22.8845 C   0  0  0  0  0  0  0  0  0  0  0  0
    5.1627   -4.2599   23.4817 C   0  0  0  0  0  0  0  0  0  0  0  0
    3.9609   -4.5067   22.7993 C   0  0  0  0  0  0  0  0  0  0  0  0
    3.7842   -4.0142   21.8523 H   0  0  0  0  0  0  0  0  0  0  0  0
    2.9932   -5.4084   23.2730 C   0  0  0  0  0  0  0  0  0  0  0  0
    2.0749   -5.5297   22.7029 H   0  0  0  0  0  0  0  0  0  0  0  0
    3.1979   -6.1251   24.4480 C   0  0  0  0  0  0  0  0  0  0  0  0
    2.4477   -6.8166   24.8202 H   0  0  0  0  0  0  0  0  0  0  0  0
    4.3973   -5.8979   25.1418 C   0  0  0  0  0  0  0  0  0  0  0  0
    5.3755   -4.9658   24.7021 C   0  0  0  0  0  0  0  0  0  0  0  0
    6.4336   -5.0057   25.6776 C   0  0  0  0  0  0  0  0  0  0  0  0
    7.3167   -4.3834   25.6367 H   0  0  0  0  0  0  0  0  0  0  0  0
    6.0987   -5.9371   26.6199 C   0  0  0  0  0  0  0  0  0  0  0  0
    6.6573   -6.2877   27.4815 H   0  0  0  0  0  0  0  0  0  0  0  0
    4.8625   -6.4675   26.3066 N   0  0  0  0  0  0  0  0  0  0  0  0
    4.3994   -7.2205   26.7913 H   0  0  0  0  0  0  0  0  0  0  0  0
    5.7787   -2.4236   21.8505 C   0  0  0  0  0  0  0  0  0  0  0  0
    4.7803   -2.2726   21.5313 H   0  0  0  0  0  0  0  0  0  0  0  0
    6.9359   -1.7525   21.5366 C   0  0  0  0  0  0  0  0  0  0  0  0
    5.6196    0.6550   20.1084 C   0  0  0  0  0  0  0  0  0  0  0  0
    5.2438    0.6676   21.1329 H   0  0  0  0  0  0  0  0  0  0  0  0
    4.9303    1.3184   19.0877 C   0  0  0  0  0  0  0  0  0  0  0  0
    3.9772    1.8032   19.2749 H   0  0  0  0  0  0  0  0  0  0  0  0
  1  2  1  0
  2  3  2  0
  3  4  1  0
  4  5  1  0
  4  6  2  0
  6  7  1  0
  7  8  1  0
  8  9  1  0
  8 10  2  0
 10 11  1  0
 10 12  1  0
 12 13  1  0
 13 14  2  0
 14 15  1  0
 15 16  2  0
 16 17  1  0
 16 18  1  0
 18 19  1  0
 18 20  2  0
 20 21  1  0
 20 22  1  0
 22 23  2  0
 23 24  1  0
 24 25  1  0
 24 26  2  0
 26 27  1  0
 26 28  1  0
 28 29  1  0
 14 30  1  0
 30 31  1  0
 30 32  2  0
  6 33  1  0
 33 34  1  0
 33 35  2  0
 35 36  1  0
 35  2  1  0
 32  7  1  0
 32 12  1  0
 23 15  1  0
 28 22  1  0
M  END
>  <cnnaffinity>  (1) 
-5.53301

>  <filename>  (1) 
c1cncc(-n2ccn3nc(-c4cccc5[nH]ccc45)cc23)c1

$$$$
