
     RDKit          3D

 38 41  0  0  0  0  0  0  0  0999 V2000
    4.8134    1.3079   19.1105 C   0  0  0  0  0  0  0  0  0  0  0  0
    5.4014    1.2957   17.8381 C   0  0  0  0  0  0  0  0  0  0  0  0
    6.5606    0.6731   17.5780 N   0  0  0  0  0  0  0  0  0  0  0  0
    7.1688    0.0525   18.5953 C   0  0  0  0  0  0  0  0  0  0  0  0
    6.6616    0.0004   19.9056 C   0  0  0  0  0  0  0  0  0  0  0  0
    7.3705   -0.6704   20.9470 N   0  0  0  0  0  0  0  0  0  0  0  0
    6.7419   -1.5893   21.7220 N   0  0  0  0  0  0  0  0  0  0  0  0
    7.6699   -1.9373   22.5894 C   0  0  0  0  0  0  0  0  0  0  0  0
    7.3920   -2.8803   23.7145 C   0  0  0  0  0  0  0  0  0  0  0  0
    6.3590   -2.3420   24.7488 C   0  0  0  0  0  0  0  0  0  0  0  0
    5.2197   -3.7272   24.4113 S   0  0  0  0  0  0  0  0  0  0  0  0
    6.6123   -4.1597   23.3155 C   0  0  0  0  0  0  0  0  0  0  0  0
    6.3202   -4.1975   22.2611 H   0  0  0  0  0  0  0  0  0  0  0  0
    7.1010   -5.0975   23.5993 H   0  0  0  0  0  0  0  0  0  0  0  0
    6.7161   -2.3202   25.7838 H   0  0  0  0  0  0  0  0  0  0  0  0
    5.9304   -1.3657   24.4956 H   0  0  0  0  0  0  0  0  0  0  0  0
    8.3550   -3.0987   24.1706 H   0  0  0  0  0  0  0  0  0  0  0  0
    8.8673   -1.3217   22.4314 N   0  0  0  0  0  0  0  0  0  0  0  0
    8.6424   -0.5027   21.4173 C   0  0  0  0  0  0  0  0  0  0  0  0
    9.5269    0.5991   20.9277 C   0  0  0  0  0  0  0  0  0  0  0  0
    9.0400    2.0092   21.3495 C   0  0  0  0  0  0  0  0  0  0  0  0
    8.8884    2.1204   22.8401 C   0  0  0  0  0  0  0  0  0  0  0  0
    7.7704    1.8883   23.5788 C   0  0  0  0  0  0  0  0  0  0  0  0
    8.0449    1.9350   24.9033 O   0  0  0  0  0  0  0  0  0  0  0  0
    9.3703    2.1999   25.0257 C   0  0  0  0  0  0  0  0  0  0  0  0
    9.9446    2.3102   23.8022 C   0  0  0  0  0  0  0  0  0  0  0  0
   10.9930    2.4909   23.5958 H   0  0  0  0  0  0  0  0  0  0  0  0
    9.7433    2.2988   26.0374 H   0  0  0  0  0  0  0  0  0  0  0  0
    6.7503    1.6502   23.3067 H   0  0  0  0  0  0  0  0  0  0  0  0
    8.0867    2.2337   20.8524 H   0  0  0  0  0  0  0  0  0  0  0  0
    9.7635    2.7568   21.0111 H   0  0  0  0  0  0  0  0  0  0  0  0
    9.6086    0.5566   19.8403 H   0  0  0  0  0  0  0  0  0  0  0  0
   10.5184    0.4014   21.3403 H   0  0  0  0  0  0  0  0  0  0  0  0
    5.4420    0.6374   20.1673 C   0  0  0  0  0  0  0  0  0  0  0  0
    5.0142    0.6082   21.1734 H   0  0  0  0  0  0  0  0  0  0  0  0
    8.1129   -0.4336   18.3683 H   0  0  0  0  0  0  0  0  0  0  0  0
    4.9199    1.7859   16.9931 H   0  0  0  0  0  0  0  0  0  0  0  0
    3.8801    1.8388   19.2624 H   0  0  0  0  0  0  0  0  0  0  0  0
  1  2  2  0
  2  3  1  0
  3  4  2  0
  4  5  1  0
  5  6  1  0
  6  7  1  0
  7  8  2  0
  8  9  1  0
  9 10  1  0
 10 11  1  0
 11 12  1  0
 12 13  1  0
 12 14  1  0
 10 15  1  0
 10 16  1  0
  9 17  1  0
  8 18  1  0
 18 19  2  0
 19 20  1  0
 20 21  1  0
 21 22  1  0
 22 23  2  0
 23 24  1  0
 24 25  1  0
 25 26  2  0
 26 27  1  0
 25 28  1  0
 23 29  1  0
 21 30  1  0
 21 31  1  0
 20 32  1  0
 20 33  1  0
  5 34  2  0
 34 35  1  0
  4 36  1  0
  2 37  1  0
  1 38  1  0
 34  1  1  0
 19  6  1  0
 26 22  1  0
 12  9  1  0
M  END
>  <cnnaffinity>  (1) 
-5.6455

>  <filename>  (1) 
c1cncc(-n2nc(C3CSC3)nc2CCc2ccoc2)c1

$$$$
