
     RDKit          3D

 43 46  0  0  0  0  0  0  0  0999 V2000
    4.8141    1.3046   19.1134 C   0  0  0  0  0  0  0  0  0  0  0  0
    5.3996    1.2925   17.8432 C   0  0  0  0  0  0  0  0  0  0  0  0
    6.5571    0.6676   17.5822 N   0  0  0  0  0  0  0  0  0  0  0  0
    7.1736    0.0468   18.5940 C   0  0  0  0  0  0  0  0  0  0  0  0
    6.6729    0.0107   19.9058 C   0  0  0  0  0  0  0  0  0  0  0  0
    7.3815   -0.6550   20.9446 N   0  0  0  0  0  0  0  0  0  0  0  0
    6.7551   -1.6016   21.6900 N   0  0  0  0  0  0  0  0  0  0  0  0
    7.6873   -1.9705   22.5499 C   0  0  0  0  0  0  0  0  0  0  0  0
    7.4567   -2.9743   23.6299 C   0  0  0  0  0  0  0  0  0  0  0  0
    6.2655   -2.6491   24.5984 C   0  0  0  0  0  0  0  0  0  0  0  0
    5.5276   -3.9243   24.1085 C   0  0  0  0  0  0  0  0  0  0  0  0
    6.7242   -4.2837   23.1855 C   0  0  0  0  0  0  0  0  0  0  0  0
    6.4946   -4.3199   22.1112 H   0  0  0  0  0  0  0  0  0  0  0  0
    7.2597   -5.2050   23.4415 H   0  0  0  0  0  0  0  0  0  0  0  0
    5.3016   -4.6612   24.8891 H   0  0  0  0  0  0  0  0  0  0  0  0
    4.5947   -3.7197   23.5687 H   0  0  0  0  0  0  0  0  0  0  0  0
    6.5375   -2.6362   25.6603 H   0  0  0  0  0  0  0  0  0  0  0  0
    5.7651   -1.6958   24.3793 H   0  0  0  0  0  0  0  0  0  0  0  0
    8.4267   -3.1187   24.1251 H   0  0  0  0  0  0  0  0  0  0  0  0
    8.8730   -1.3215   22.4179 N   0  0  0  0  0  0  0  0  0  0  0  0
    8.6512   -0.4868   21.4192 C   0  0  0  0  0  0  0  0  0  0  0  0
    9.5505    0.5957   20.9347 C   0  0  0  0  0  0  0  0  0  0  0  0
    9.0650    2.0053   21.3241 C   0  0  0  0  0  0  0  0  0  0  0  0
    8.9432    2.2146   22.8453 C   0  0  0  0  0  0  0  0  0  0  0  0
   10.2090    2.0447   23.5443 N   0  0  0  0  0  0  0  0  0  0  0  0
   11.3174    2.8487   23.4045 C   0  0  0  0  0  0  0  0  0  0  0  0
   12.3172    2.2379   24.0999 C   0  0  0  0  0  0  0  0  0  0  0  0
   11.8546    1.0932   24.6972 N   0  0  0  0  0  0  0  0  0  0  0  0
   10.5995    1.0021   24.3292 C   0  0  0  0  0  0  0  0  0  0  0  0
    9.9308    0.1715   24.5259 H   0  0  0  0  0  0  0  0  0  0  0  0
   13.3616    2.5282   24.1486 H   0  0  0  0  0  0  0  0  0  0  0  0
   11.2834    3.7538   22.8197 H   0  0  0  0  0  0  0  0  0  0  0  0
    8.2395    1.4903   23.2770 H   0  0  0  0  0  0  0  0  0  0  0  0
    8.5709    3.2249   23.0575 H   0  0  0  0  0  0  0  0  0  0  0  0
    9.7703    2.7396   20.9197 H   0  0  0  0  0  0  0  0  0  0  0  0
    8.0907    2.2108   20.8638 H   0  0  0  0  0  0  0  0  0  0  0  0
   10.5479    0.4069   21.3459 H   0  0  0  0  0  0  0  0  0  0  0  0
    9.6084    0.5161   19.8476 H   0  0  0  0  0  0  0  0  0  0  0  0
    5.4498    0.6384   20.1652 C   0  0  0  0  0  0  0  0  0  0  0  0
    5.0237    0.5997   21.1667 H   0  0  0  0  0  0  0  0  0  0  0  0
    8.1148   -0.4475   18.3566 H   0  0  0  0  0  0  0  0  0  0  0  0
    4.9290    1.7949   17.0019 H   0  0  0  0  0  0  0  0  0  0  0  0
    3.8823    1.8365   19.2604 H   0  0  0  0  0  0  0  0  0  0  0  0
  1  2  2  0
  2  3  1  0
  3  4  2  0
  4  5  1  0
  5  6  1  0
  6  7  1  0
  7  8  2  0
  8  9  1  0
  9 10  1  0
 10 11  1  0
 11 12  1  0
 12 13  1  0
 12 14  1  0
 11 15  1  0
 11 16  1  0
 10 17  1  0
 10 18  1  0
  9 19  1  0
  8 20  1  0
 20 21  2  0
 21 22  1  0
 22 23  1  0
 23 24  1  0
 24 25  1  0
 25 26  1  0
 26 27  2  0
 27 28  1  0
 28 29  2  0
 29 30  1  0
 27 31  1  0
 26 32  1  0
 24 33  1  0
 24 34  1  0
 23 35  1  0
 23 36  1  0
 22 37  1  0
 22 38  1  0
  5 39  2  0
 39 40  1  0
  4 41  1  0
  2 42  1  0
  1 43  1  0
 39  1  1  0
 21  6  1  0
 29 25  1  0
 12  9  1  0
M  END
>  <cnnaffinity>  (1) 
-5.93784

>  <filename>  (1) 
c1cncc(-n2nc(C3CCC3)nc2CCCn2ccnc2)c1

$$$$
