
     RDKit          3D

 41 44  0  0  0  0  0  0  0  0999 V2000
    4.8129    1.3151   19.0989 C   0  0  0  0  0  0  0  0  0  0  0  0
    5.4086    1.3057   17.8326 C   0  0  0  0  0  0  0  0  0  0  0  0
    6.5598    0.6680   17.5675 N   0  0  0  0  0  0  0  0  0  0  0  0
    7.1674    0.0376   18.5796 C   0  0  0  0  0  0  0  0  0  0  0  0
    6.6609    0.0097   19.8912 C   0  0  0  0  0  0  0  0  0  0  0  0
    7.3463   -0.6579   20.9441 N   0  0  0  0  0  0  0  0  0  0  0  0
    6.6992   -1.5662   21.7193 N   0  0  0  0  0  0  0  0  0  0  0  0
    7.6589   -2.0120   22.5068 C   0  0  0  0  0  0  0  0  0  0  0  0
    7.4246   -2.9578   23.6237 C   0  0  0  0  0  0  0  0  0  0  0  0
    7.7810   -2.5652   25.0376 C   0  0  0  0  0  0  0  0  0  0  0  0
    6.3397   -2.7009   24.6362 C   0  0  0  0  0  0  0  0  0  0  0  0
    5.7535   -1.7899   24.5263 H   0  0  0  0  0  0  0  0  0  0  0  0
    5.7674   -3.5540   24.9918 H   0  0  0  0  0  0  0  0  0  0  0  0
    8.2237   -3.3296   25.6724 H   0  0  0  0  0  0  0  0  0  0  0  0
    8.1764   -1.5603   25.1884 H   0  0  0  0  0  0  0  0  0  0  0  0
    7.6254   -3.9908   23.3554 H   0  0  0  0  0  0  0  0  0  0  0  0
    8.8883   -1.4763   22.2756 N   0  0  0  0  0  0  0  0  0  0  0  0
    8.6409   -0.5579   21.3678 C   0  0  0  0  0  0  0  0  0  0  0  0
    9.5335    0.5587   20.9328 C   0  0  0  0  0  0  0  0  0  0  0  0
    9.0224    1.9763   21.2923 C   0  0  0  0  0  0  0  0  0  0  0  0
    8.7492    2.2043   22.7991 C   0  0  0  0  0  0  0  0  0  0  0  0
    9.9780    1.9803   23.6431 C   0  0  0  0  0  0  0  0  0  0  0  0
   11.0927    2.8511   23.5631 C   0  0  0  0  0  0  0  0  0  0  0  0
   12.2802    2.5652   24.1259 N   0  0  0  0  0  0  0  0  0  0  0  0
   12.3315    1.4064   24.8118 C   0  0  0  0  0  0  0  0  0  0  0  0
   11.2097    0.5815   24.9750 C   0  0  0  0  0  0  0  0  0  0  0  0
   10.0274    0.8673   24.4009 N   0  0  0  0  0  0  0  0  0  0  0  0
   11.2514   -0.3358   25.5575 H   0  0  0  0  0  0  0  0  0  0  0  0
   13.2789    1.1333   25.2631 H   0  0  0  0  0  0  0  0  0  0  0  0
   11.0015    3.7980   23.0335 H   0  0  0  0  0  0  0  0  0  0  0  0
    7.9687    1.5164   23.1409 H   0  0  0  0  0  0  0  0  0  0  0  0
    8.3697    3.2232   22.9602 H   0  0  0  0  0  0  0  0  0  0  0  0
    8.1115    2.1981   20.7207 H   0  0  0  0  0  0  0  0  0  0  0  0
    9.7824    2.6940   20.9597 H   0  0  0  0  0  0  0  0  0  0  0  0
    9.6370    0.4851   19.8476 H   0  0  0  0  0  0  0  0  0  0  0  0
   10.5200    0.3782   21.3698 H   0  0  0  0  0  0  0  0  0  0  0  0
    5.4413    0.6437   20.1504 C   0  0  0  0  0  0  0  0  0  0  0  0
    5.0170    0.5911   21.1530 H   0  0  0  0  0  0  0  0  0  0  0  0
    8.0997   -0.4779   18.3412 H   0  0  0  0  0  0  0  0  0  0  0  0
    4.9435    1.8238   16.9978 H   0  0  0  0  0  0  0  0  0  0  0  0
    3.8755    1.8394   19.2497 H   0  0  0  0  0  0  0  0  0  0  0  0
  1  2  2  0
  2  3  1  0
  3  4  2  0
  4  5  1  0
  5  6  1  0
  6  7  1  0
  7  8  2  0
  8  9  1  0
  9 10  1  0
 10 11  1  0
 11 12  1  0
 11 13  1  0
 10 14  1  0
 10 15  1  0
  9 16  1  0
  8 17  1  0
 17 18  2  0
 18 19  1  0
 19 20  1  0
 20 21  1  0
 21 22  1  0
 22 23  2  0
 23 24  1  0
 24 25  2  0
 25 26  1  0
 26 27  2  0
 26 28  1  0
 25 29  1  0
 23 30  1  0
 21 31  1  0
 21 32  1  0
 20 33  1  0
 20 34  1  0
 19 35  1  0
 19 36  1  0
  5 37  2  0
 37 38  1  0
  4 39  1  0
  2 40  1  0
  1 41  1  0
 37  1  1  0
 18  6  1  0
 27 22  1  0
 11  9  1  0
M  END
>  <cnnaffinity>  (1) 
-6.02536

>  <filename>  (1) 
c1cncc(-n2nc(C3CC3)nc2CCCc2cnccn2)c1

$$$$
