
     RDKit          3D

 30 32  0  0  0  0  0  0  0  0999 V2000
    4.9236    1.8111   16.9725 H   0  0  0  0  0  0  0  0  0  0  0  0
    5.3892    1.3041   17.8148 C   0  0  0  0  0  0  0  0  0  0  0  0
    6.5515    0.6853   17.5533 N   0  0  0  0  0  0  0  0  0  0  0  0
    7.1602    0.0729   18.5755 C   0  0  0  0  0  0  0  0  0  0  0  0
    8.1056   -0.4149   18.3398 H   0  0  0  0  0  0  0  0  0  0  0  0
    6.6481    0.0098   19.8888 C   0  0  0  0  0  0  0  0  0  0  0  0
    7.3792   -0.7041   20.9699 C   0  0  0  0  0  0  0  0  0  0  0  0
    6.7214   -1.5378   21.8959 C   0  0  0  0  0  0  0  0  0  0  0  0
    5.6475   -1.7124   21.8188 H   0  0  0  0  0  0  0  0  0  0  0  0
    7.3491   -2.1958   22.8759 N   0  0  0  0  0  0  0  0  0  0  0  0
    8.6758   -2.0466   22.9886 C   0  0  0  0  0  0  0  0  0  0  0  0
    9.1305   -2.5992   23.8159 H   0  0  0  0  0  0  0  0  0  0  0  0
    9.4472   -1.2604   22.1150 C   0  0  0  0  0  0  0  0  0  0  0  0
   10.9442   -1.0674   22.3146 C   0  0  0  0  0  0  0  0  0  0  0  0
   11.3738   -1.9707   22.7658 H   0  0  0  0  0  0  0  0  0  0  0  0
   11.4384   -0.9266   21.3449 H   0  0  0  0  0  0  0  0  0  0  0  0
   11.2236    0.1050   23.2280 C   0  0  0  0  0  0  0  0  0  0  0  0
   11.4650    1.7085   22.6253 S   0  0  0  0  0  0  0  0  0  0  0  0
   11.4293    2.3782   24.2089 C   0  0  0  0  0  0  0  0  0  0  0  0
   11.6030    3.4396   24.3242 H   0  0  0  0  0  0  0  0  0  0  0  0
   11.2096    1.4233   25.1563 C   0  0  0  0  0  0  0  0  0  0  0  0
   11.0086    1.6219   26.2020 H   0  0  0  0  0  0  0  0  0  0  0  0
   11.1550    0.1179   24.5881 C   0  0  0  0  0  0  0  0  0  0  0  0
   11.0862   -0.7921   25.1705 H   0  0  0  0  0  0  0  0  0  0  0  0
    8.7688   -0.5790   21.1016 C   0  0  0  0  0  0  0  0  0  0  0  0
    9.3073    0.0845   20.4218 H   0  0  0  0  0  0  0  0  0  0  0  0
    5.4262    0.6548   20.1324 C   0  0  0  0  0  0  0  0  0  0  0  0
    5.0075    0.6536   21.1393 H   0  0  0  0  0  0  0  0  0  0  0  0
    4.7912    1.3174   19.0800 C   0  0  0  0  0  0  0  0  0  0  0  0
    3.8597    1.8520   19.2274 H   0  0  0  0  0  0  0  0  0  0  0  0
  1  2  1  0
  2  3  2  0
  3  4  1  0
  4  5  1  0
  4  6  2  0
  6  7  1  0
  7  8  2  0
  8  9  1  0
  8 10  1  0
 10 11  2  0
 11 12  1  0
 11 13  1  0
 13 14  1  0
 14 15  1  0
 14 16  1  0
 14 17  1  0
 17 18  1  0
 18 19  1  0
 19 20  1  0
 19 21  2  0
 21 22  1  0
 21 23  1  0
 23 24  1  0
 13 25  2  0
 25 26  1  0
  6 27  1  0
 27 28  1  0
 27 29  2  0
 29 30  1  0
 29  2  1  0
 25  7  1  0
 23 17  2  0
M  END
>  <cnnaffinity>  (1) 
-5.34897

>  <filename>  (1) 
c1cncc(-c2cncc(Cc3cccs3)c2)c1

$$$$
