
     RDKit          3D

 41 43  0  0  0  0  0  0  0  0999 V2000
    4.9128    1.7932   16.9853 H   0  0  0  0  0  0  0  0  0  0  0  0
    5.3950    1.3000   17.8263 C   0  0  0  0  0  0  0  0  0  0  0  0
    6.5573    0.6792   17.5687 N   0  0  0  0  0  0  0  0  0  0  0  0
    7.1669    0.0626   18.5970 C   0  0  0  0  0  0  0  0  0  0  0  0
    8.1112   -0.4301   18.3592 H   0  0  0  0  0  0  0  0  0  0  0  0
    6.6671    0.0258   19.9304 C   0  0  0  0  0  0  0  0  0  0  0  0
    7.2591   -0.6481   21.0288 N   0  0  0  0  0  0  0  0  0  0  0  0
    7.3488   -1.6430   20.9460 H   0  0  0  0  0  0  0  0  0  0  0  0
    8.2032   -0.0421   21.9294 C   0  0  0  0  0  0  0  0  0  0  0  0
    7.4560    0.8702   22.7502 N   0  0  0  0  0  0  0  0  0  0  0  0
    6.9949    1.4797   22.0909 H   0  0  0  0  0  0  0  0  0  0  0  0
    8.1064    1.5623   23.8600 C   0  0  0  0  0  0  0  0  0  0  0  0
    9.1686    1.2668   23.9032 H   0  0  0  0  0  0  0  0  0  0  0  0
    8.0854    3.0930   23.7097 C   0  0  0  0  0  0  0  0  0  0  0  0
    7.0402    3.4288   23.7357 H   0  0  0  0  0  0  0  0  0  0  0  0
    8.4774    3.3886   22.7293 H   0  0  0  0  0  0  0  0  0  0  0  0
    8.8977    3.8010   24.8257 C   0  0  0  0  0  0  0  0  0  0  0  0
    9.9340    3.9661   24.5033 H   0  0  0  0  0  0  0  0  0  0  0  0
    8.4766    4.7996   24.9931 H   0  0  0  0  0  0  0  0  0  0  0  0
    8.9117    3.0164   26.1580 C   0  0  0  0  0  0  0  0  0  0  0  0
    9.0275    3.7187   26.9881 H   0  0  0  0  0  0  0  0  0  0  0  0
    9.7821    2.3478   26.1876 H   0  0  0  0  0  0  0  0  0  0  0  0
    7.6457    2.1741   26.3479 C   0  0  0  0  0  0  0  0  0  0  0  0
    7.6605    1.6720   27.3221 H   0  0  0  0  0  0  0  0  0  0  0  0
    6.7787    2.8468   26.3743 H   0  0  0  0  0  0  0  0  0  0  0  0
    7.4652    1.1394   25.2101 C   0  0  0  0  0  0  0  0  0  0  0  0
    6.3973    0.9552   25.0544 H   0  0  0  0  0  0  0  0  0  0  0  0
    7.9088    0.1808   25.5063 H   0  0  0  0  0  0  0  0  0  0  0  0
    9.0570   -1.0894   22.6699 C   0  0  0  0  0  0  0  0  0  0  0  0
    8.8202   -2.1177   22.3911 H   0  0  0  0  0  0  0  0  0  0  0  0
    8.9555   -1.0219   23.7544 H   0  0  0  0  0  0  0  0  0  0  0  0
   10.3527   -0.4837   22.0597 C   0  0  0  0  0  0  0  0  0  0  0  0
   10.9243   -1.1712   21.4317 H   0  0  0  0  0  0  0  0  0  0  0  0
   11.0459   -0.0444   22.7861 H   0  0  0  0  0  0  0  0  0  0  0  0
    9.4913    0.5462   21.2817 C   0  0  0  0  0  0  0  0  0  0  0  0
    9.6494    1.6011   21.5243 H   0  0  0  0  0  0  0  0  0  0  0  0
    9.4966    0.4564   20.1971 H   0  0  0  0  0  0  0  0  0  0  0  0
    5.4439    0.6644   20.1567 C   0  0  0  0  0  0  0  0  0  0  0  0
    5.0328    0.6119   21.1675 H   0  0  0  0  0  0  0  0  0  0  0  0
    4.8037    1.3131   19.0933 C   0  0  0  0  0  0  0  0  0  0  0  0
    3.8751    1.8409   19.2556 H   0  0  0  0  0  0  0  0  0  0  0  0
  1  2  1  0
  2  3  2  0
  3  4  1  0
  4  5  1  0
  4  6  2  0
  6  7  1  0
  7  8  1  0
  7  9  1  0
  9 10  1  0
 10 11  1  0
 10 12  1  0
 12 13  1  0
 12 14  1  0
 14 15  1  0
 14 16  1  0
 14 17  1  0
 17 18  1  0
 17 19  1  0
 17 20  1  0
 20 21  1  0
 20 22  1  0
 20 23  1  0
 23 24  1  0
 23 25  1  0
 23 26  1  0
 26 27  1  0
 26 28  1  0
  9 29  1  0
 29 30  1  0
 29 31  1  0
 29 32  1  0
 32 33  1  0
 32 34  1  0
 32 35  1  0
 35 36  1  0
 35 37  1  0
  6 38  1  0
 38 39  1  0
 38 40  2  0
 40 41  1  0
 40  2  1  0
 35  9  1  0
 26 12  1  0
M  END
>  <cnnaffinity>  (1) 
-4.7579

>  <filename>  (1) 
c1cncc(NC2(NC3CCCCC3)CCC2)c1

$$$$
