
     RDKit          3D

 34 37  0  0  0  0  0  0  0  0999 V2000
    9.0183    1.7249   26.9350 H   0  0  0  0  0  0  0  0  0  0  0  0
    8.8885    1.7553   25.8585 C   0  0  0  0  0  0  0  0  0  0  0  0
    9.8552    2.1374   24.9770 N   0  0  0  0  0  0  0  0  0  0  0  0
    9.2573    1.9930   23.8138 C   0  0  0  0  0  0  0  0  0  0  0  0
    9.7115    2.1960   22.8490 H   0  0  0  0  0  0  0  0  0  0  0  0
    7.9856    1.5552   23.9767 N   0  0  0  0  0  0  0  0  0  0  0  0
    6.9995    1.0741   22.9917 C   0  0  0  0  0  0  0  0  0  0  0  0
    6.0534    0.9975   23.5493 H   0  0  0  0  0  0  0  0  0  0  0  0
    6.8660    1.8495   22.2251 H   0  0  0  0  0  0  0  0  0  0  0  0
    7.3645   -0.2594   22.3623 C   0  0  0  0  0  0  0  0  0  0  0  0
    7.2509   -0.7085   21.0102 C   0  0  0  0  0  0  0  0  0  0  0  0
    6.6141    0.0098   19.8994 C   0  0  0  0  0  0  0  0  0  0  0  0
    7.1571    0.0177   18.5988 C   0  0  0  0  0  0  0  0  0  0  0  0
    8.0788   -0.5134   18.3653 H   0  0  0  0  0  0  0  0  0  0  0  0
    6.6003    0.6641   17.5664 N   0  0  0  0  0  0  0  0  0  0  0  0
    5.4470    1.3151   17.7847 C   0  0  0  0  0  0  0  0  0  0  0  0
    5.0105    1.8319   16.9305 H   0  0  0  0  0  0  0  0  0  0  0  0
    4.8088    1.3430   19.0278 C   0  0  0  0  0  0  0  0  0  0  0  0
    3.8663    1.8617   19.1426 H   0  0  0  0  0  0  0  0  0  0  0  0
    5.4028    0.6874   20.1015 C   0  0  0  0  0  0  0  0  0  0  0  0
    4.9216    0.6718   21.0820 H   0  0  0  0  0  0  0  0  0  0  0  0
    7.7682   -1.9253   20.8489 N   0  0  0  0  0  0  0  0  0  0  0  0
    8.1361   -2.2703   22.0849 N   0  0  0  0  0  0  0  0  0  0  0  0
    7.9394   -1.3309   23.0207 C   0  0  0  0  0  0  0  0  0  0  0  0
    8.5281   -1.7795   24.3344 C   0  0  0  0  0  0  0  0  0  0  0  0
    7.7999   -1.7418   25.1468 H   0  0  0  0  0  0  0  0  0  0  0  0
    9.3739   -1.1414   24.6049 H   0  0  0  0  0  0  0  0  0  0  0  0
    8.9855   -3.2334   24.0336 C   0  0  0  0  0  0  0  0  0  0  0  0
    8.3074   -3.9713   24.4702 H   0  0  0  0  0  0  0  0  0  0  0  0
    9.9781   -3.4258   24.4408 H   0  0  0  0  0  0  0  0  0  0  0  0
    8.9631   -3.3803   22.4914 C   0  0  0  0  0  0  0  0  0  0  0  0
    9.9567   -3.2523   22.0522 H   0  0  0  0  0  0  0  0  0  0  0  0
    8.5205   -4.3196   22.1569 H   0  0  0  0  0  0  0  0  0  0  0  0
    7.7511    1.3914   25.2996 N   0  0  0  0  0  0  0  0  0  0  0  0
  1  2  1  0
  2  3  1  0
  3  4  2  0
  4  5  1  0
  4  6  1  0
  6  7  1  0
  7  8  1  0
  7  9  1  0
  7 10  1  0
 10 11  1  0
 11 12  1  0
 12 13  2  0
 13 14  1  0
 13 15  1  0
 15 16  2  0
 16 17  1  0
 16 18  1  0
 18 19  1  0
 18 20  2  0
 20 21  1  0
 11 22  2  0
 22 23  1  0
 23 24  1  0
 24 25  1  0
 25 26  1  0
 25 27  1  0
 25 28  1  0
 28 29  1  0
 28 30  1  0
 28 31  1  0
 31 32  1  0
 31 33  1  0
  6 34  1  0
 34  2  2  0
 24 10  2  0
 20 12  1  0
 31 23  1  0
M  END
>  <cnnaffinity>  (1) 
-5.69671

>  <filename>  (1) 
c1cncc(-c2nn3c(c2Cn2cncn2)CCC3)c1

$$$$
