
     RDKit          3D

 36 39  0  0  0  0  0  0  0  0999 V2000
    5.0298    1.8821   16.8997 H   0  0  0  0  0  0  0  0  0  0  0  0
    5.4407    1.3229   17.7355 C   0  0  0  0  0  0  0  0  0  0  0  0
    6.5787    0.6559   17.4836 N   0  0  0  0  0  0  0  0  0  0  0  0
    7.1289   -0.0315   18.4859 C   0  0  0  0  0  0  0  0  0  0  0  0
    8.0512   -0.5685   18.2645 H   0  0  0  0  0  0  0  0  0  0  0  0
    6.5894   -0.0713   19.7748 C   0  0  0  0  0  0  0  0  0  0  0  0
    7.3260   -0.7994   20.8102 C   0  0  0  0  0  0  0  0  0  0  0  0
    7.7698   -2.0245   20.7392 N   0  0  0  0  0  0  0  0  0  0  0  0
    8.3835   -2.3166   21.9309 N   0  0  0  0  0  0  0  0  0  0  0  0
    8.3090   -1.2449   22.6726 C   0  0  0  0  0  0  0  0  0  0  0  0
    8.7253   -1.1174   23.6647 H   0  0  0  0  0  0  0  0  0  0  0  0
    7.6520   -0.2400   22.0138 N   0  0  0  0  0  0  0  0  0  0  0  0
    7.4615    1.1323   22.4963 C   0  0  0  0  0  0  0  0  0  0  0  0
    6.8460    1.6972   21.7925 H   0  0  0  0  0  0  0  0  0  0  0  0
    8.4439    1.6307   22.5321 H   0  0  0  0  0  0  0  0  0  0  0  0
    6.8557    1.1481   23.8884 C   0  0  0  0  0  0  0  0  0  0  0  0
    5.4550    1.0480   24.1587 C   0  0  0  0  0  0  0  0  0  0  0  0
    4.7589    0.9802   23.3225 H   0  0  0  0  0  0  0  0  0  0  0  0
    4.9839    1.0168   25.4546 C   0  0  0  0  0  0  0  0  0  0  0  0
    3.9226    0.9338   25.6726 H   0  0  0  0  0  0  0  0  0  0  0  0
    5.8834    1.0613   26.5616 C   0  0  0  0  0  0  0  0  0  0  0  0
    5.4503    1.1011   27.9216 C   0  0  0  0  0  0  0  0  0  0  0  0
    4.3827    1.1396   28.1172 H   0  0  0  0  0  0  0  0  0  0  0  0
    6.3689    1.1007   28.9487 C   0  0  0  0  0  0  0  0  0  0  0  0
    6.0523    1.1785   29.9838 H   0  0  0  0  0  0  0  0  0  0  0  0
    7.7617    0.9995   28.6689 C   0  0  0  0  0  0  0  0  0  0  0  0
    8.4897    0.9633   29.4750 H   0  0  0  0  0  0  0  0  0  0  0  0
    8.1959    0.9599   27.3671 C   0  0  0  0  0  0  0  0  0  0  0  0
    9.2360    0.8290   27.0986 H   0  0  0  0  0  0  0  0  0  0  0  0
    7.2812    1.0674   26.2914 C   0  0  0  0  0  0  0  0  0  0  0  0
    7.7273    1.1833   24.9512 C   0  0  0  0  0  0  0  0  0  0  0  0
    8.7918    1.3130   24.7745 H   0  0  0  0  0  0  0  0  0  0  0  0
    5.3799    0.5929   20.0165 C   0  0  0  0  0  0  0  0  0  0  0  0
    4.9223    0.5447   21.0058 H   0  0  0  0  0  0  0  0  0  0  0  0
    4.7911    1.3088   18.9758 C   0  0  0  0  0  0  0  0  0  0  0  0
    3.8725    1.8657   19.1255 H   0  0  0  0  0  0  0  0  0  0  0  0
  1  2  1  0
  2  3  2  0
  3  4  1  0
  4  5  1  0
  4  6  2  0
  6  7  1  0
  7  8  2  0
  8  9  1  0
  9 10  2  0
 10 11  1  0
 10 12  1  0
 12 13  1  0
 13 14  1  0
 13 15  1  0
 13 16  1  0
 16 17  2  0
 17 18  1  0
 17 19  1  0
 19 20  1  0
 19 21  2  0
 21 22  1  0
 22 23  1  0
 22 24  2  0
 24 25  1  0
 24 26  1  0
 26 27  1  0
 26 28  2  0
 28 29  1  0
 28 30  1  0
 30 31  2  0
 31 32  1  0
  6 33  1  0
 33 34  1  0
 33 35  2  0
 35 36  1  0
 35  2  1  0
 12  7  1  0
 31 16  1  0
 30 21  1  0
M  END
>  <cnnaffinity>  (1) 
-4.5846

>  <filename>  (1) 
c1cncc(-c2nncn2Cc2ccc3ccccc3c2)c1

$$$$
