
     RDKit          3D

 41 44  0  0  0  0  0  0  0  0999 V2000
    4.9628    1.8707   16.8730 H   0  0  0  0  0  0  0  0  0  0  0  0
    5.3773    1.3644   17.7406 C   0  0  0  0  0  0  0  0  0  0  0  0
    6.5390    0.7254   17.5429 N   0  0  0  0  0  0  0  0  0  0  0  0
    7.0860    0.1156   18.6018 C   0  0  0  0  0  0  0  0  0  0  0  0
    8.0296   -0.3951   18.3994 H   0  0  0  0  0  0  0  0  0  0  0  0
    6.5394    0.1027   19.9044 C   0  0  0  0  0  0  0  0  0  0  0  0
    7.3419   -0.4959   21.0726 C   0  0  2  0  0  0  0  0  0  0  0  0
    8.2700    0.6411   21.5987 C   0  0  0  0  0  0  0  0  0  0  0  0
    8.8844    0.9571   20.7480 H   0  0  0  0  0  0  0  0  0  0  0  0
    7.6233    1.4980   21.8171 H   0  0  0  0  0  0  0  0  0  0  0  0
    9.1595    0.3325   22.7726 C   0  0  0  0  0  0  0  0  0  0  0  0
   10.3974   -0.2482   22.5631 C   0  0  0  0  0  0  0  0  0  0  0  0
   10.7262   -0.5111   21.5556 H   0  0  0  0  0  0  0  0  0  0  0  0
   11.2886   -0.5624   23.5334 N   0  0  0  0  0  0  0  0  0  0  0  0
   10.9247   -0.3568   24.7838 C   0  0  0  0  0  0  0  0  0  0  0  0
   11.6571   -0.5930   25.5527 H   0  0  0  0  0  0  0  0  0  0  0  0
    9.6533    0.1558   25.1751 C   0  0  0  0  0  0  0  0  0  0  0  0
    9.2512    0.2703   26.5389 C   0  0  0  0  0  0  0  0  0  0  0  0
    9.9111   -0.1145   27.3123 H   0  0  0  0  0  0  0  0  0  0  0  0
    8.0478    0.8466   26.8746 C   0  0  0  0  0  0  0  0  0  0  0  0
    7.7560    0.9344   27.9180 H   0  0  0  0  0  0  0  0  0  0  0  0
    7.1897    1.3313   25.8626 C   0  0  0  0  0  0  0  0  0  0  0  0
    6.2485    1.8052   26.1242 H   0  0  0  0  0  0  0  0  0  0  0  0
    7.5368    1.1894   24.5299 C   0  0  0  0  0  0  0  0  0  0  0  0
    6.8540    1.5286   23.7584 H   0  0  0  0  0  0  0  0  0  0  0  0
    8.7582    0.5713   24.1343 C   0  0  0  0  0  0  0  0  0  0  0  0
    8.0958   -1.7825   20.6486 C   0  0  0  0  0  0  0  0  0  0  0  0
    7.3644   -2.3293   20.0382 H   0  0  0  0  0  0  0  0  0  0  0  0
    8.9858   -1.6086   20.0307 H   0  0  0  0  0  0  0  0  0  0  0  0
    8.3816   -2.5874   21.8325 N   0  0  0  0  0  0  0  0  0  0  0  0
    9.3180   -2.4376   22.1832 H   0  0  0  0  0  0  0  0  0  0  0  0
    7.3883   -2.2188   22.8538 C   0  0  0  0  0  0  0  0  0  0  0  0
    7.8789   -1.8515   23.7696 H   0  0  0  0  0  0  0  0  0  0  0  0
    6.7947   -3.0998   23.1379 H   0  0  0  0  0  0  0  0  0  0  0  0
    6.4985   -1.1322   22.2043 C   0  0  0  0  0  0  0  0  0  0  0  0
    6.1504   -0.4100   22.9471 H   0  0  0  0  0  0  0  0  0  0  0  0
    5.6248   -1.6127   21.7459 H   0  0  0  0  0  0  0  0  0  0  0  0
    5.3154    0.7715   20.0742 C   0  0  0  0  0  0  0  0  0  0  0  0
    4.8357    0.8136   21.0546 H   0  0  0  0  0  0  0  0  0  0  0  0
    4.7240    1.4047   18.9754 C   0  0  0  0  0  0  0  0  0  0  0  0
    3.7889    1.9432   19.0646 H   0  0  0  0  0  0  0  0  0  0  0  0
  1  2  1  0
  2  3  2  0
  3  4  1  0
  4  5  1  0
  4  6  2  0
  6  7  1  0
  7  8  1  1
  8  9  1  0
  8 10  1  0
  8 11  1  0
 11 12  2  0
 12 13  1  0
 12 14  1  0
 14 15  2  0
 15 16  1  0
 15 17  1  0
 17 18  2  0
 18 19  1  0
 18 20  1  0
 20 21  1  0
 20 22  2  0
 22 23  1  0
 22 24  1  0
 24 25  1  0
 24 26  2  0
  7 27  1  0
 27 28  1  0
 27 29  1  0
 27 30  1  0
 30 31  1  0
 30 32  1  0
 32 33  1  0
 32 34  1  0
 32 35  1  0
 35 36  1  0
 35 37  1  0
  6 38  1  0
 38 39  1  0
 38 40  2  0
 40 41  1  0
 40  2  1  0
 35  7  1  0
 26 11  1  0
 26 17  1  0
M  END
>  <cnnaffinity>  (1) 
-4.79105

>  <filename>  (1) 
c1cncc([C@@]2(Cc3cncc4ccccc34)CCNC2)c1

$$$$
