
     RDKit          3D

 33 36  0  0  0  0  0  0  0  0999 V2000
    4.9892    1.8556   16.7078 H   0  0  0  0  0  0  0  0  0  0  0  0
    5.4678    1.3723   17.5590 C   0  0  0  0  0  0  0  0  0  0  0  0
    6.6350    0.7523   17.3226 N   0  0  0  0  0  0  0  0  0  0  0  0
    7.2552    0.1765   18.3599 C   0  0  0  0  0  0  0  0  0  0  0  0
    8.2218   -0.2739   18.1446 H   0  0  0  0  0  0  0  0  0  0  0  0
    6.7305    0.1368   19.6601 C   0  0  0  0  0  0  0  0  0  0  0  0
    7.4624   -0.5686   20.7429 C   0  0  0  0  0  0  0  0  0  0  0  0
    8.8047   -0.5916   20.6710 N   0  0  0  0  0  0  0  0  0  0  0  0
    9.4656   -1.0875   21.7262 C   0  0  0  0  0  0  0  0  0  0  0  0
   10.5507   -1.0646   21.6739 H   0  0  0  0  0  0  0  0  0  0  0  0
    8.8388   -1.6303   22.8471 C   0  0  0  0  0  0  0  0  0  0  0  0
    9.4229   -1.9399   23.7045 H   0  0  0  0  0  0  0  0  0  0  0  0
    7.4404   -1.7285   22.8767 C   0  0  0  0  0  0  0  0  0  0  0  0
    6.7617   -2.3834   24.0279 C   0  0  0  0  0  0  0  0  0  0  0  0
    5.8188   -1.7843   24.7990 C   0  0  0  0  0  0  0  0  0  0  0  0
    5.4437   -0.7783   24.6800 H   0  0  0  0  0  0  0  0  0  0  0  0
    5.2377   -2.7424   26.1123 S   0  0  0  0  0  0  0  0  0  0  0  0
    6.3526   -4.0158   25.7172 C   0  0  0  0  0  0  0  0  0  0  0  0
    6.5779   -5.1946   26.4562 C   0  0  0  0  0  0  0  0  0  0  0  0
    6.0203   -5.4260   27.3605 H   0  0  0  0  0  0  0  0  0  0  0  0
    7.5713   -6.0599   26.0209 C   0  0  0  0  0  0  0  0  0  0  0  0
    7.8033   -6.9258   26.6255 H   0  0  0  0  0  0  0  0  0  0  0  0
    8.2940   -5.8007   24.8365 C   0  0  0  0  0  0  0  0  0  0  0  0
    9.0594   -6.5005   24.5184 H   0  0  0  0  0  0  0  0  0  0  0  0
    8.0466   -4.6501   24.0951 C   0  0  0  0  0  0  0  0  0  0  0  0
    8.5894   -4.4508   23.1742 H   0  0  0  0  0  0  0  0  0  0  0  0
    7.0998   -3.7047   24.5578 C   0  0  0  0  0  0  0  0  0  0  0  0
    6.7536   -1.1597   21.8025 C   0  0  0  0  0  0  0  0  0  0  0  0
    5.6714   -1.1831   21.7525 H   0  0  0  0  0  0  0  0  0  0  0  0
    5.5057    0.7918   19.8887 C   0  0  0  0  0  0  0  0  0  0  0  0
    5.0723    0.8378   20.8904 H   0  0  0  0  0  0  0  0  0  0  0  0
    4.8688    1.4200   18.8222 C   0  0  0  0  0  0  0  0  0  0  0  0
    3.9329    1.9516   18.9647 H   0  0  0  0  0  0  0  0  0  0  0  0
  1  2  1  0
  2  3  2  0
  3  4  1  0
  4  5  1  0
  4  6  2  0
  6  7  1  0
  7  8  2  0
  8  9  1  0
  9 10  1  0
  9 11  2  0
 11 12  1  0
 11 13  1  0
 13 14  1  0
 14 15  2  0
 15 16  1  0
 15 17  1  0
 17 18  1  0
 18 19  2  0
 19 20  1  0
 19 21  1  0
 21 22  1  0
 21 23  2  0
 23 24  1  0
 23 25  1  0
 25 26  1  0
 25 27  2  0
 13 28  2  0
 28 29  1  0
  6 30  1  0
 30 31  1  0
 30 32  2  0
 32 33  1  0
 32  2  1  0
 28  7  1  0
 27 14  1  0
 27 18  1  0
M  END
>  <cnnaffinity>  (1) 
-5.37819

>  <filename>  (1) 
c1cncc(-c2cc(-c3csc4ccccc34)ccn2)c1

$$$$
