
     RDKit          3D

 49 53  0  0  0  0  0  0  0  0999 V2000
    4.8594    1.2944   19.0830 C   0  0  0  0  0  0  0  0  0  0  0  0
    5.4544    1.2977   17.8174 C   0  0  0  0  0  0  0  0  0  0  0  0
    6.5798    0.6213   17.5421 N   0  0  0  0  0  0  0  0  0  0  0  0
    7.1675   -0.0512   18.5414 C   0  0  0  0  0  0  0  0  0  0  0  0
    6.6863   -0.0665   19.8633 C   0  0  0  0  0  0  0  0  0  0  0  0
    7.3717   -0.7622   20.9152 N   0  0  0  0  0  0  0  0  0  0  0  0
    6.6726   -1.6716   21.6506 N   0  0  0  0  0  0  0  0  0  0  0  0
    7.5561   -2.0894   22.5401 C   0  0  0  0  0  0  0  0  0  0  0  0
    7.2754   -3.0843   23.6421 C   0  0  0  0  0  0  0  0  0  0  0  0
    6.3711   -2.5188   24.7776 C   0  0  0  0  0  0  0  0  0  0  0  0
    6.0730   -3.6025   25.8191 C   0  0  0  0  0  0  0  0  0  0  0  0
    5.5184   -4.7627   25.2234 O   0  0  0  0  0  0  0  0  0  0  0  0
    6.3808   -5.3636   24.2741 C   0  0  0  0  0  0  0  0  0  0  0  0
    6.6908   -4.4173   23.1118 C   0  0  0  0  0  0  0  0  0  0  0  0
    7.3937   -4.9031   22.4213 H   0  0  0  0  0  0  0  0  0  0  0  0
    5.7674   -4.2064   22.5569 H   0  0  0  0  0  0  0  0  0  0  0  0
    5.8635   -6.2618   23.9244 H   0  0  0  0  0  0  0  0  0  0  0  0
    7.3220   -5.6802   24.7624 H   0  0  0  0  0  0  0  0  0  0  0  0
    5.3316   -3.2559   26.5459 H   0  0  0  0  0  0  0  0  0  0  0  0
    6.9938   -3.8616   26.3742 H   0  0  0  0  0  0  0  0  0  0  0  0
    5.4192   -2.1735   24.3601 H   0  0  0  0  0  0  0  0  0  0  0  0
    6.8461   -1.6598   25.2720 H   0  0  0  0  0  0  0  0  0  0  0  0
    8.2639   -3.2855   24.0807 H   0  0  0  0  0  0  0  0  0  0  0  0
    8.7761   -1.5215   22.4258 N   0  0  0  0  0  0  0  0  0  0  0  0
    8.6455   -0.6766   21.4199 C   0  0  0  0  0  0  0  0  0  0  0  0
    9.8043    0.1519   20.9504 C   0  0  0  0  0  0  0  0  0  0  0  0
   10.5915    0.7682   22.1348 C   0  0  0  0  0  0  0  0  0  0  0  0
    9.6951    1.6887   23.0272 C   0  0  0  0  0  0  0  0  0  0  0  0
   10.4482    3.0293   22.9294 C   0  0  0  0  0  0  0  0  0  0  0  0
   11.7423    2.9764   23.7714 C   0  0  0  0  0  0  0  0  0  0  0  0
   12.6452    2.0823   22.8685 C   0  0  0  0  0  0  0  0  0  0  0  0
   11.6774    1.7833   21.6993 C   0  0  0  0  0  0  0  0  0  0  0  0
   10.9478    2.9955   21.5959 O   0  0  0  0  0  0  0  0  0  0  0  0
   12.1592    1.5921   20.7390 H   0  0  0  0  0  0  0  0  0  0  0  0
   13.5135    2.6415   22.5006 H   0  0  0  0  0  0  0  0  0  0  0  0
   12.9976    1.1675   23.3625 H   0  0  0  0  0  0  0  0  0  0  0  0
   11.5786    2.5526   24.7653 H   0  0  0  0  0  0  0  0  0  0  0  0
   12.1563    3.9800   23.9060 H   0  0  0  0  0  0  0  0  0  0  0  0
    9.8304    3.9239   23.0373 H   0  0  0  0  0  0  0  0  0  0  0  0
    8.6868    1.7901   22.6078 H   0  0  0  0  0  0  0  0  0  0  0  0
    9.5818    1.3191   24.0504 H   0  0  0  0  0  0  0  0  0  0  0  0
   11.0379   -0.0505   22.7181 H   0  0  0  0  0  0  0  0  0  0  0  0
    9.4676    0.9361   20.2658 H   0  0  0  0  0  0  0  0  0  0  0  0
   10.4624   -0.5246   20.3925 H   0  0  0  0  0  0  0  0  0  0  0  0
    5.4696    0.5838   20.1215 C   0  0  0  0  0  0  0  0  0  0  0  0
    5.0102    0.5060   21.1076 H   0  0  0  0  0  0  0  0  0  0  0  0
    8.0478   -0.6302   18.2668 H   0  0  0  0  0  0  0  0  0  0  0  0
    5.0033    1.8488   16.9907 H   0  0  0  0  0  0  0  0  0  0  0  0
    3.9335    1.8438   19.2364 H   0  0  0  0  0  0  0  0  0  0  0  0
  1  2  2  0
  2  3  1  0
  3  4  2  0
  4  5  1  0
  5  6  1  0
  6  7  1  0
  7  8  2  0
  8  9  1  0
  9 10  1  0
 10 11  1  0
 11 12  1  0
 12 13  1  0
 13 14  1  0
 14 15  1  0
 14 16  1  0
 13 17  1  0
 13 18  1  0
 11 19  1  0
 11 20  1  0
 10 21  1  0
 10 22  1  0
  9 23  1  0
  8 24  1  0
 24 25  2  0
 25 26  1  0
 26 27  1  0
 27 28  1  0
 28 29  1  0
 29 30  1  0
 30 31  1  0
 31 32  1  0
 32 33  1  0
 32 34  1  0
 31 35  1  0
 31 36  1  0
 30 37  1  0
 30 38  1  0
 29 39  1  0
 28 40  1  0
 28 41  1  0
 27 42  1  0
 26 43  1  0
 26 44  1  0
  5 45  2  0
 45 46  1  0
  4 47  1  0
  2 48  1  0
  1 49  1  0
 45  1  1  0
 25  6  1  0
 32 27  1  0
 14  9  1  0
 33 29  1  0
M  END
>  <cnnaffinity>  (1) 
-6.09885

>  <filename>  (1) 
c1cncc(-n2nc(C3CCOCC3)nc2CC2CC3CCC2O3)c1

$$$$
