
     RDKit          3D

 32 34  0  0  0  0  0  0  0  0999 V2000
    5.0963    1.7739   16.9447 H   0  0  0  0  0  0  0  0  0  0  0  0
    5.5063    1.2511   17.8053 C   0  0  0  0  0  0  0  0  0  0  0  0
    6.6631    0.5926   17.6059 N   0  0  0  0  0  0  0  0  0  0  0  0
    7.2024   -0.0382   18.6523 C   0  0  0  0  0  0  0  0  0  0  0  0
    8.1368   -0.5707   18.4969 H   0  0  0  0  0  0  0  0  0  0  0  0
    6.6281   -0.0387   19.9347 C   0  0  0  0  0  0  0  0  0  0  0  0
    7.3259   -0.6307   21.0006 N   0  0  0  0  0  0  0  0  0  0  0  0
    8.3893   -1.4434   20.7624 N   0  0  0  0  0  0  0  0  0  0  0  0
    8.8343   -1.7584   21.9620 C   0  0  0  0  0  0  0  0  0  0  0  0
    9.9559   -2.5462   22.0929 N   0  0  0  0  0  0  0  0  0  0  0  0
   10.0071   -3.1414   21.2810 H   0  0  0  0  0  0  0  0  0  0  0  0
   10.2215   -3.1589   23.3885 C   0  0  0  0  0  0  0  0  0  0  0  0
   11.2016   -3.6461   23.3363 H   0  0  0  0  0  0  0  0  0  0  0  0
   10.3302   -2.3489   24.1268 H   0  0  0  0  0  0  0  0  0  0  0  0
    9.1475   -4.1358   23.8919 C   0  0  0  0  0  0  0  0  0  0  0  0
    8.6146   -4.0046   25.1851 C   0  0  0  0  0  0  0  0  0  0  0  0
    9.0200   -3.2793   25.8864 H   0  0  0  0  0  0  0  0  0  0  0  0
    7.5552   -4.8258   25.5885 C   0  0  0  0  0  0  0  0  0  0  0  0
    7.1386   -4.7049   26.5896 H   0  0  0  0  0  0  0  0  0  0  0  0
    7.0083   -5.7690   24.8151 N   0  0  0  0  0  0  0  0  0  0  0  0
    7.5405   -5.9296   23.5973 C   0  0  0  0  0  0  0  0  0  0  0  0
    7.1113   -6.7178   22.9772 H   0  0  0  0  0  0  0  0  0  0  0  0
    8.6044   -5.1685   23.1033 C   0  0  0  0  0  0  0  0  0  0  0  0
    8.9778   -5.4333   22.1228 H   0  0  0  0  0  0  0  0  0  0  0  0
    8.0666   -1.1686   22.9935 C   0  0  0  0  0  0  0  0  0  0  0  0
    8.1689   -1.3319   24.0514 H   0  0  0  0  0  0  0  0  0  0  0  0
    7.1226   -0.4320   22.3348 C   0  0  0  0  0  0  0  0  0  0  0  0
    6.3543    0.2498   22.6951 H   0  0  0  0  0  0  0  0  0  0  0  0
    5.3944    0.6018   20.1257 C   0  0  0  0  0  0  0  0  0  0  0  0
    4.8938    0.5828   21.0954 H   0  0  0  0  0  0  0  0  0  0  0  0
    4.8355    1.2708   19.0355 C   0  0  0  0  0  0  0  0  0  0  0  0
    3.9069    1.8256   19.1424 H   0  0  0  0  0  0  0  0  0  0  0  0
  1  2  1  0
  2  3  2  0
  3  4  1  0
  4  5  1  0
  4  6  2  0
  6  7  1  0
  7  8  1  0
  8  9  2  0
  9 10  1  0
 10 11  1  0
 10 12  1  0
 12 13  1  0
 12 14  1  0
 12 15  1  0
 15 16  2  0
 16 17  1  0
 16 18  1  0
 18 19  1  0
 18 20  2  0
 20 21  1  0
 21 22  1  0
 21 23  2  0
 23 24  1  0
  9 25  1  0
 25 26  1  0
 25 27  2  0
 27 28  1  0
  6 29  1  0
 29 30  1  0
 29 31  2  0
 31 32  1  0
 31  2  1  0
 27  7  1  0
 23 15  1  0
M  END
>  <cnnaffinity>  (1) 
-5.43055

>  <filename>  (1) 
c1cncc(-n2ccc(NCc3ccncc3)n2)c1

$$$$
