
     RDKit          3D

 40 43  0  0  0  0  0  0  0  0999 V2000
    4.8138    1.3087   19.1108 C   0  0  0  0  0  0  0  0  0  0  0  0
    5.4000    1.2958   17.8388 C   0  0  0  0  0  0  0  0  0  0  0  0
    6.5593    0.6729   17.5771 N   0  0  0  0  0  0  0  0  0  0  0  0
    7.1686    0.0523   18.5940 C   0  0  0  0  0  0  0  0  0  0  0  0
    6.6621    0.0049   19.9040 C   0  0  0  0  0  0  0  0  0  0  0  0
    7.3759   -0.6652   20.9388 N   0  0  0  0  0  0  0  0  0  0  0  0
    6.7472   -1.5699   21.7293 N   0  0  0  0  0  0  0  0  0  0  0  0
    7.6839   -1.9222   22.5912 C   0  0  0  0  0  0  0  0  0  0  0  0
    7.4106   -2.8108   23.7578 C   0  0  0  0  0  0  0  0  0  0  0  0
    6.3979   -3.9649   23.5131 C   0  0  0  0  0  0  0  0  0  0  0  0
    5.4356   -3.3327   24.5459 C   0  0  0  0  0  0  0  0  0  0  0  0
    6.4501   -2.2024   24.8354 C   0  0  0  0  0  0  0  0  0  0  0  0
    6.1031   -1.1874   24.6017 H   0  0  0  0  0  0  0  0  0  0  0  0
    6.8543   -2.1855   25.8511 H   0  0  0  0  0  0  0  0  0  0  0  0
    4.4884   -2.9895   24.1204 H   0  0  0  0  0  0  0  0  0  0  0  0
    5.1952   -3.9658   25.4042 H   0  0  0  0  0  0  0  0  0  0  0  0
    6.0167   -4.0047   22.4870 H   0  0  0  0  0  0  0  0  0  0  0  0
    6.7724   -4.9580   23.7760 H   0  0  0  0  0  0  0  0  0  0  0  0
    8.3780   -3.1241   24.1550 H   0  0  0  0  0  0  0  0  0  0  0  0
    8.8855   -1.3183   22.4073 N   0  0  0  0  0  0  0  0  0  0  0  0
    8.6521   -0.5023   21.3963 C   0  0  0  0  0  0  0  0  0  0  0  0
    9.5322    0.6122   20.9419 C   0  0  0  0  0  0  0  0  0  0  0  0
    9.0463    2.0112   21.4204 C   0  0  0  0  0  0  0  0  0  0  0  0
    8.8454    2.0796   22.9138 C   0  0  0  0  0  0  0  0  0  0  0  0
    7.6930    1.8211   23.6007 C   0  0  0  0  0  0  0  0  0  0  0  0
    7.8603    1.7938   25.0179 C   0  0  0  0  0  0  0  0  0  0  0  0
    9.1518    2.0376   25.3776 C   0  0  0  0  0  0  0  0  0  0  0  0
   10.1674    2.2881   24.0124 S   0  0  0  0  0  0  0  0  0  0  0  0
    9.5708    2.0949   26.3706 H   0  0  0  0  0  0  0  0  0  0  0  0
    7.0555    1.6056   25.7235 H   0  0  0  0  0  0  0  0  0  0  0  0
    6.7591    1.5949   23.0972 H   0  0  0  0  0  0  0  0  0  0  0  0
    8.0941    2.2418   20.9244 H   0  0  0  0  0  0  0  0  0  0  0  0
    9.7653    2.7680   21.0929 H   0  0  0  0  0  0  0  0  0  0  0  0
   10.5280    0.4019   21.3355 H   0  0  0  0  0  0  0  0  0  0  0  0
    9.5968    0.6041   19.8525 H   0  0  0  0  0  0  0  0  0  0  0  0
    5.4431    0.6407   20.1670 C   0  0  0  0  0  0  0  0  0  0  0  0
    5.0146    0.6085   21.1721 H   0  0  0  0  0  0  0  0  0  0  0  0
    8.1136   -0.4351   18.3676 H   0  0  0  0  0  0  0  0  0  0  0  0
    4.9198    1.7861   16.9944 H   0  0  0  0  0  0  0  0  0  0  0  0
    3.8813    1.8380   19.2629 H   0  0  0  0  0  0  0  0  0  0  0  0
  1  2  2  0
  2  3  1  0
  3  4  2  0
  4  5  1  0
  5  6  1  0
  6  7  1  0
  7  8  2  0
  8  9  1  0
  9 10  1  0
 10 11  1  0
 11 12  1  0
 12 13  1  0
 12 14  1  0
 11 15  1  0
 11 16  1  0
 10 17  1  0
 10 18  1  0
  9 19  1  0
  8 20  1  0
 20 21  2  0
 21 22  1  0
 22 23  1  0
 23 24  1  0
 24 25  2  0
 25 26  1  0
 26 27  2  0
 27 28  1  0
 27 29  1  0
 26 30  1  0
 25 31  1  0
 23 32  1  0
 23 33  1  0
 22 34  1  0
 22 35  1  0
  5 36  2  0
 36 37  1  0
  4 38  1  0
  2 39  1  0
  1 40  1  0
 36  1  1  0
 21  6  1  0
 28 24  1  0
 12  9  1  0
M  END
>  <cnnaffinity>  (1) 
-5.86933

>  <filename>  (1) 
c1cncc(-n2nc(C3CCC3)nc2CCc2cccs2)c1

$$$$
