
     RDKit          3D

 40 43  0  0  0  0  0  0  0  0999 V2000
    4.9851    2.1058   16.4052 H   0  0  0  0  0  0  0  0  0  0  0  0
    5.4240    1.5814   17.2506 C   0  0  0  0  0  0  0  0  0  0  0  0
    6.6218    1.0110   17.0457 N   0  0  0  0  0  0  0  0  0  0  0  0
    7.1953    0.3752   18.0800 C   0  0  0  0  0  0  0  0  0  0  0  0
    8.1673   -0.0786   17.8883 H   0  0  0  0  0  0  0  0  0  0  0  0
    6.6071    0.2461   19.3662 C   0  0  0  0  0  0  0  0  0  0  0  0
    7.1965   -0.4115   20.4505 N   0  0  0  0  0  0  0  0  0  0  0  0
    6.4283   -1.3471   21.2801 C   0  0  0  0  0  0  0  0  0  0  0  0
    6.6703   -2.3931   21.0208 H   0  0  0  0  0  0  0  0  0  0  0  0
    5.3519   -1.2229   21.1145 H   0  0  0  0  0  0  0  0  0  0  0  0
    6.7680   -1.0988   22.7545 C   0  0  0  0  0  0  0  0  0  0  0  0
    6.5307   -0.0466   22.9777 H   0  0  0  0  0  0  0  0  0  0  0  0
    6.1745   -1.7198   23.4244 H   0  0  0  0  0  0  0  0  0  0  0  0
    8.1977   -1.3243   22.9830 N   0  0  0  0  0  0  0  0  0  0  0  0
    8.6431   -2.2002   23.9468 C   0  0  0  0  0  0  0  0  0  0  0  0
    7.7637   -2.5906   24.8507 N   0  0  0  0  0  0  0  0  0  0  0  0
    8.1825   -3.4559   25.8174 C   0  0  0  0  0  0  0  0  0  0  0  0
    7.2327   -3.8323   26.8063 C   0  0  0  0  0  0  0  0  0  0  0  0
    6.2558   -3.3689   26.7228 H   0  0  0  0  0  0  0  0  0  0  0  0
    7.5699   -4.7220   27.8024 C   0  0  0  0  0  0  0  0  0  0  0  0
    6.8485   -4.9917   28.5727 H   0  0  0  0  0  0  0  0  0  0  0  0
    8.8792   -5.2742   27.8416 C   0  0  0  0  0  0  0  0  0  0  0  0
    9.1197   -5.9744   28.6336 H   0  0  0  0  0  0  0  0  0  0  0  0
    9.8319   -4.9130   26.9145 C   0  0  0  0  0  0  0  0  0  0  0  0
   10.8430   -5.3138   26.9723 H   0  0  0  0  0  0  0  0  0  0  0  0
    9.5007   -4.0081   25.8662 C   0  0  0  0  0  0  0  0  0  0  0  0
   10.4088   -3.6015   24.8385 C   0  0  0  0  0  0  0  0  0  0  0  0
   11.4152   -4.0263   24.8158 H   0  0  0  0  0  0  0  0  0  0  0  0
   10.0016   -2.6843   23.9098 C   0  0  0  0  0  0  0  0  0  0  0  0
   10.6644   -2.3307   23.1312 H   0  0  0  0  0  0  0  0  0  0  0  0
    9.0140   -0.4203   22.1659 C   0  0  0  0  0  0  0  0  0  0  0  0
    8.8707    0.6139   22.5162 H   0  0  0  0  0  0  0  0  0  0  0  0
   10.0799   -0.6309   22.2739 H   0  0  0  0  0  0  0  0  0  0  0  0
    8.6451   -0.4917   20.6612 C   0  0  0  0  0  0  0  0  0  0  0  0
    9.0508   -1.4269   20.2412 H   0  0  0  0  0  0  0  0  0  0  0  0
    9.1295    0.3473   20.1437 H   0  0  0  0  0  0  0  0  0  0  0  0
    5.3404    0.8391   19.5377 C   0  0  0  0  0  0  0  0  0  0  0  0
    4.8660    0.7871   20.5164 H   0  0  0  0  0  0  0  0  0  0  0  0
    4.7465    1.5162   18.4739 C   0  0  0  0  0  0  0  0  0  0  0  0
    3.7765    1.9898   18.5898 H   0  0  0  0  0  0  0  0  0  0  0  0
  1  2  1  0
  2  3  2  0
  3  4  1  0
  4  5  1  0
  4  6  2  0
  6  7  1  0
  7  8  1  0
  8  9  1  0
  8 10  1  0
  8 11  1  0
 11 12  1  0
 11 13  1  0
 11 14  1  0
 14 15  1  0
 15 16  2  0
 16 17  1  0
 17 18  2  0
 18 19  1  0
 18 20  1  0
 20 21  1  0
 20 22  2  0
 22 23  1  0
 22 24  1  0
 24 25  1  0
 24 26  2  0
 26 27  1  0
 27 28  1  0
 27 29  2  0
 29 30  1  0
 14 31  1  0
 31 32  1  0
 31 33  1  0
 31 34  1  0
 34 35  1  0
 34 36  1  0
  6 37  1  0
 37 38  1  0
 37 39  2  0
 39 40  1  0
 39  2  1  0
 34  7  1  0
 29 15  1  0
 26 17  1  0
M  END
>  <cnnaffinity>  (1) 
-5.20026

>  <filename>  (1) 
c1cncc(N2CCN(c3ccc4ccccc4n3)CC2)c1

$$$$
