
     RDKit          3D

 43 46  0  0  0  0  0  0  0  0999 V2000
    5.1026    1.4880   18.8842 C   0  0  0  0  0  0  0  0  0  0  0  0
    5.7187    1.3653   17.6372 C   0  0  0  0  0  0  0  0  0  0  0  0
    6.9032    0.7557   17.4628 N   0  0  0  0  0  0  0  0  0  0  0  0
    7.4999    0.2220   18.5339 C   0  0  0  0  0  0  0  0  0  0  0  0
    6.9251    0.2235   19.8159 C   0  0  0  0  0  0  0  0  0  0  0  0
    7.5542   -0.5187   20.8632 N   0  0  0  0  0  0  0  0  0  0  0  0
    8.8597   -0.3354   21.2022 N   0  0  0  0  0  0  0  0  0  0  0  0
    9.0333   -1.2071   22.1837 C   0  0  0  0  0  0  0  0  0  0  0  0
   10.2645   -1.3959   22.9967 C   0  0  0  0  0  0  0  0  0  0  0  0
   10.9274   -0.0833   23.5185 C   0  0  0  0  0  0  0  0  0  0  0  0
   11.9492   -0.1956   22.3664 C   0  0  0  0  0  0  0  0  0  0  0  0
   11.5742   -1.6832   22.1984 C   0  0  0  0  0  0  0  0  0  0  0  0
   12.2232   -2.3721   22.7459 H   0  0  0  0  0  0  0  0  0  0  0  0
   11.4794   -2.0818   21.1842 H   0  0  0  0  0  0  0  0  0  0  0  0
   12.9943    0.0531   22.5746 H   0  0  0  0  0  0  0  0  0  0  0  0
   11.6114    0.3784   21.4994 H   0  0  0  0  0  0  0  0  0  0  0  0
   10.2909    0.8083   23.5564 H   0  0  0  0  0  0  0  0  0  0  0  0
   11.3690   -0.2230   24.5128 H   0  0  0  0  0  0  0  0  0  0  0  0
   10.0076   -2.1343   23.7616 H   0  0  0  0  0  0  0  0  0  0  0  0
    7.9530   -1.9813   22.4468 N   0  0  0  0  0  0  0  0  0  0  0  0
    7.0507   -1.5503   21.5923 C   0  0  0  0  0  0  0  0  0  0  0  0
    5.7223   -2.1660   21.3744 C   0  0  0  0  0  0  0  0  0  0  0  0
    5.6421   -3.3415   19.9824 S   0  0  0  0  0  0  0  0  0  0  0  0
    6.7460   -4.6745   20.5803 C   0  0  0  0  0  0  0  0  0  0  0  0
    6.2092   -5.3775   21.7969 C   0  0  0  0  0  0  0  0  0  0  0  0
    6.6279   -5.0326   23.0865 C   0  0  0  0  0  0  0  0  0  0  0  0
    5.9947   -5.6162   24.1905 C   0  0  0  0  0  0  0  0  0  0  0  0
    4.9798   -6.4810   24.0839 N   0  0  0  0  0  0  0  0  0  0  0  0
    4.5974   -6.8143   22.8464 C   0  0  0  0  0  0  0  0  0  0  0  0
    5.1934   -6.3282   21.6834 C   0  0  0  0  0  0  0  0  0  0  0  0
    4.9052   -6.7257   20.7157 H   0  0  0  0  0  0  0  0  0  0  0  0
    3.7633   -7.5065   22.7744 H   0  0  0  0  0  0  0  0  0  0  0  0
    6.3146   -5.3871   25.2041 H   0  0  0  0  0  0  0  0  0  0  0  0
    7.4004   -4.2861   23.2165 H   0  0  0  0  0  0  0  0  0  0  0  0
    6.7892   -5.3749   19.7443 H   0  0  0  0  0  0  0  0  0  0  0  0
    7.7461   -4.2625   20.7642 H   0  0  0  0  0  0  0  0  0  0  0  0
    5.0038   -1.3804   21.1588 H   0  0  0  0  0  0  0  0  0  0  0  0
    5.4195   -2.6454   22.3062 H   0  0  0  0  0  0  0  0  0  0  0  0
    5.7167    0.9129   20.0044 C   0  0  0  0  0  0  0  0  0  0  0  0
    5.2738    1.0128   20.9968 H   0  0  0  0  0  0  0  0  0  0  0  0
    8.4664   -0.2482   18.3744 H   0  0  0  0  0  0  0  0  0  0  0  0
    5.2465    1.7702   16.7440 H   0  0  0  0  0  0  0  0  0  0  0  0
    4.1603    2.0161   18.9711 H   0  0  0  0  0  0  0  0  0  0  0  0
  1  2  2  0
  2  3  1  0
  3  4  2  0
  4  5  1  0
  5  6  1  0
  6  7  1  0
  7  8  2  0
  8  9  1  0
  9 10  1  0
 10 11  1  0
 11 12  1  0
 12 13  1  0
 12 14  1  0
 11 15  1  0
 11 16  1  0
 10 17  1  0
 10 18  1  0
  9 19  1  0
  8 20  1  0
 20 21  2  0
 21 22  1  0
 22 23  1  0
 23 24  1  0
 24 25  1  0
 25 26  2  0
 26 27  1  0
 27 28  2  0
 28 29  1  0
 29 30  2  0
 30 31  1  0
 29 32  1  0
 27 33  1  0
 26 34  1  0
 24 35  1  0
 24 36  1  0
 22 37  1  0
 22 38  1  0
  5 39  2  0
 39 40  1  0
  4 41  1  0
  2 42  1  0
  1 43  1  0
 39  1  1  0
 21  6  1  0
 30 25  1  0
 12  9  1  0
M  END
>  <cnnaffinity>  (1) 
-4.88553

>  <filename>  (1) 
c1cncc(-n2nc(C3CCC3)nc2CSCc2ccncc2)c1

$$$$
