
     RDKit          3D

 28 30  0  0  0  0  0  0  0  0999 V2000
    5.1014    1.7683   16.9898 H   0  0  0  0  0  0  0  0  0  0  0  0
    5.5203    1.2380   17.8429 C   0  0  0  0  0  0  0  0  0  0  0  0
    6.6669    0.5728   17.6249 N   0  0  0  0  0  0  0  0  0  0  0  0
    7.2096   -0.0717   18.6687 C   0  0  0  0  0  0  0  0  0  0  0  0
    8.1322   -0.6176   18.4684 H   0  0  0  0  0  0  0  0  0  0  0  0
    6.6609   -0.0935   19.9648 C   0  0  0  0  0  0  0  0  0  0  0  0
    7.3467   -0.7810   21.0788 C   0  0  0  0  0  0  0  0  0  0  0  0
    8.6571   -0.7428   21.5321 C   0  0  0  0  0  0  0  0  0  0  0  0
    9.6960    0.2955   21.1472 C   0  0  0  0  0  0  0  0  0  0  0  0
   10.6913    0.0260   21.5160 H   0  0  0  0  0  0  0  0  0  0  0  0
    9.7234    0.3467   20.0560 H   0  0  0  0  0  0  0  0  0  0  0  0
    9.3601    1.6704   21.6621 C   0  0  0  0  0  0  0  0  0  0  0  0
    9.9340    2.1758   22.7412 N   0  0  0  0  0  0  0  0  0  0  0  0
    9.2829    3.3221   22.9725 N   0  0  0  0  0  0  0  0  0  0  0  0
    9.5440    3.8665   23.7802 H   0  0  0  0  0  0  0  0  0  0  0  0
    8.2952    3.5753   22.0814 C   0  0  0  0  0  0  0  0  0  0  0  0
    7.6452    4.4428   22.1598 H   0  0  0  0  0  0  0  0  0  0  0  0
    8.3419    2.5275   21.1977 C   0  0  0  0  0  0  0  0  0  0  0  0
    7.7048    2.3117   20.3588 H   0  0  0  0  0  0  0  0  0  0  0  0
    8.6876   -1.6885   22.5813 C   0  0  0  0  0  0  0  0  0  0  0  0
    9.5337   -1.9647   23.1954 H   0  0  0  0  0  0  0  0  0  0  0  0
    7.4981   -2.2322   22.8098 N   0  0  0  0  0  0  0  0  0  0  0  0
    6.7026   -1.6501   21.9012 N   0  0  0  0  0  0  0  0  0  0  0  0
    5.7099   -1.8307   21.9147 H   0  0  0  0  0  0  0  0  0  0  0  0
    5.4479    0.5923   20.1593 C   0  0  0  0  0  0  0  0  0  0  0  0
    4.9996    0.6238   21.1534 H   0  0  0  0  0  0  0  0  0  0  0  0
    4.8715    1.2629   19.0832 C   0  0  0  0  0  0  0  0  0  0  0  0
    3.9378    1.8043   19.1968 H   0  0  0  0  0  0  0  0  0  0  0  0
  1  2  1  0
  2  3  2  0
  3  4  1  0
  4  5  1  0
  4  6  2  0
  6  7  1  0
  7  8  2  0
  8  9  1  0
  9 10  1  0
  9 11  1  0
  9 12  1  0
 12 13  2  0
 13 14  1  0
 14 15  1  0
 14 16  1  0
 16 17  1  0
 16 18  2  0
 18 19  1  0
  8 20  1  0
 20 21  1  0
 20 22  2  0
 22 23  1  0
 23 24  1  0
  6 25  1  0
 25 26  1  0
 25 27  2  0
 27 28  1  0
 27  2  1  0
 23  7  1  0
 18 12  1  0
M  END
>  <cnnaffinity>  (1) 
-5.07273

>  <filename>  (1) 
c1cncc(-c2[nH]ncc2Cc2cc[nH]n2)c1

$$$$
