
     RDKit          3D

 42 45  0  0  0  0  0  0  0  0999 V2000
    4.7726    1.3402   19.0202 C   0  0  0  0  0  0  0  0  0  0  0  0
    5.3941    1.3002   17.7704 C   0  0  0  0  0  0  0  0  0  0  0  0
    6.5380    0.6333   17.5448 N   0  0  0  0  0  0  0  0  0  0  0  0
    7.1152    0.0061   18.5740 C   0  0  0  0  0  0  0  0  0  0  0  0
    6.6093    0.0638   19.8866 C   0  0  0  0  0  0  0  0  0  0  0  0
    7.3249   -0.5497   20.9503 N   0  0  0  0  0  0  0  0  0  0  0  0
    7.8190   -1.8133   20.8402 N   0  0  0  0  0  0  0  0  0  0  0  0
    8.3046   -2.0420   22.0461 C   0  0  0  0  0  0  0  0  0  0  0  0
    9.0494   -3.2732   22.4057 C   0  0  0  0  0  0  0  0  0  0  0  0
   10.4445   -3.0084   23.0661 C   0  0  0  0  0  0  0  0  0  0  0  0
   10.0674   -3.9268   24.2470 C   0  0  0  0  0  0  0  0  0  0  0  0
    8.6385   -4.0956   23.6715 C   0  0  0  0  0  0  0  0  0  0  0  0
    7.8600   -3.6243   24.2863 H   0  0  0  0  0  0  0  0  0  0  0  0
    8.3426   -5.1245   23.4319 H   0  0  0  0  0  0  0  0  0  0  0  0
   10.1084   -3.4420   25.2313 H   0  0  0  0  0  0  0  0  0  0  0  0
   10.6484   -4.8517   24.3025 H   0  0  0  0  0  0  0  0  0  0  0  0
   11.3291   -3.2650   22.4796 H   0  0  0  0  0  0  0  0  0  0  0  0
   10.5445   -1.9643   23.3815 H   0  0  0  0  0  0  0  0  0  0  0  0
    9.0252   -3.8576   21.4849 H   0  0  0  0  0  0  0  0  0  0  0  0
    8.2015   -1.0096   22.9114 N   0  0  0  0  0  0  0  0  0  0  0  0
    7.6194   -0.0748   22.1938 C   0  0  0  0  0  0  0  0  0  0  0  0
    7.3663    1.2636   22.7626 C   0  0  0  0  0  0  0  0  0  0  0  0
    6.3212    1.1736   23.8804 C   0  0  0  0  0  0  0  0  0  0  0  0
    5.8355    2.5623   24.2810 C   0  0  0  0  0  0  0  0  0  0  0  0
    5.0929    3.1787   23.1379 C   0  0  0  0  0  0  0  0  0  0  0  0
    5.4747    4.0744   22.1711 C   0  0  0  0  0  0  0  0  0  0  0  0
    4.3792    4.1756   21.3776 N   0  0  0  0  0  0  0  0  0  0  0  0
    3.3923    3.3817   21.7942 N   0  0  0  0  0  0  0  0  0  0  0  0
    3.8248    2.7624   22.8463 N   0  0  0  0  0  0  0  0  0  0  0  0
    4.2450    4.7164   20.5336 H   0  0  0  0  0  0  0  0  0  0  0  0
    6.3956    4.6019   21.9770 H   0  0  0  0  0  0  0  0  0  0  0  0
    6.6949    3.1804   24.5625 H   0  0  0  0  0  0  0  0  0  0  0  0
    5.1648    2.5035   25.1434 H   0  0  0  0  0  0  0  0  0  0  0  0
    5.4599    0.5794   23.5454 H   0  0  0  0  0  0  0  0  0  0  0  0
    6.7559    0.6323   24.7282 H   0  0  0  0  0  0  0  0  0  0  0  0
    8.3106    1.6318   23.1777 H   0  0  0  0  0  0  0  0  0  0  0  0
    7.0797    1.9747   21.9845 H   0  0  0  0  0  0  0  0  0  0  0  0
    5.4012    0.7295   20.1117 C   0  0  0  0  0  0  0  0  0  0  0  0
    4.9625    0.7577   21.1102 H   0  0  0  0  0  0  0  0  0  0  0  0
    8.0224   -0.5535   18.3579 H   0  0  0  0  0  0  0  0  0  0  0  0
    4.9605    1.8182   16.9166 H   0  0  0  0  0  0  0  0  0  0  0  0
    3.8129    1.8282   19.1250 H   0  0  0  0  0  0  0  0  0  0  0  0
  1  2  2  0
  2  3  1  0
  3  4  2  0
  4  5  1  0
  5  6  1  0
  6  7  1  0
  7  8  2  0
  8  9  1  0
  9 10  1  0
 10 11  1  0
 11 12  1  0
 12 13  1  0
 12 14  1  0
 11 15  1  0
 11 16  1  0
 10 17  1  0
 10 18  1  0
  9 19  1  0
  8 20  1  0
 20 21  2  0
 21 22  1  0
 22 23  1  0
 23 24  1  0
 24 25  1  0
 25 26  2  0
 26 27  1  0
 27 28  1  0
 28 29  2  0
 27 30  1  0
 26 31  1  0
 24 32  1  0
 24 33  1  0
 23 34  1  0
 23 35  1  0
 22 36  1  0
 22 37  1  0
  5 38  2  0
 38 39  1  0
  4 40  1  0
  2 41  1  0
  1 42  1  0
 38  1  1  0
 21  6  1  0
 29 25  1  0
 12  9  1  0
M  END
>  <cnnaffinity>  (1) 
-5.81391

>  <filename>  (1) 
c1cncc(-n2nc(C3CCC3)nc2CCCc2c[nH]nn2)c1

$$$$
