
     RDKit          3D

 28 30  0  0  0  0  0  0  0  0999 V2000
    4.9089    1.7842   16.9927 H   0  0  0  0  0  0  0  0  0  0  0  0
    5.3988    1.2973   17.8315 C   0  0  0  0  0  0  0  0  0  0  0  0
    6.5655    0.6839   17.5653 N   0  0  0  0  0  0  0  0  0  0  0  0
    7.1739    0.0599   18.5820 C   0  0  0  0  0  0  0  0  0  0  0  0
    8.1234   -0.4278   18.3641 H   0  0  0  0  0  0  0  0  0  0  0  0
    6.6686    0.0016   19.9018 C   0  0  0  0  0  0  0  0  0  0  0  0
    7.3464   -0.6901   20.9201 N   0  0  0  0  0  0  0  0  0  0  0  0
    8.0055   -1.4086   20.6447 H   0  0  0  0  0  0  0  0  0  0  0  0
    7.2812   -0.3859   22.2958 C   0  0  0  0  0  0  0  0  0  0  0  0
    7.3263    0.9208   22.7754 C   0  0  0  0  0  0  0  0  0  0  0  0
    7.4159    1.7377   22.0661 H   0  0  0  0  0  0  0  0  0  0  0  0
    7.2804    1.2788   24.0920 N   0  0  0  0  0  0  0  0  0  0  0  0
    7.1767    0.3083   24.9753 C   0  0  0  0  0  0  0  0  0  0  0  0
    7.1453    0.5875   26.0256 H   0  0  0  0  0  0  0  0  0  0  0  0
    7.1077   -1.0812   24.6439 C   0  0  0  0  0  0  0  0  0  0  0  0
    6.9972   -2.1066   25.6327 C   0  0  0  0  0  0  0  0  0  0  0  0
    6.9715   -1.8277   26.6857 H   0  0  0  0  0  0  0  0  0  0  0  0
    6.9212   -3.4261   25.2572 C   0  0  0  0  0  0  0  0  0  0  0  0
    6.8367   -4.2081   26.0100 H   0  0  0  0  0  0  0  0  0  0  0  0
    6.9455   -3.7920   23.8832 C   0  0  0  0  0  0  0  0  0  0  0  0
    6.8786   -4.8371   23.5970 H   0  0  0  0  0  0  0  0  0  0  0  0
    7.0543   -2.8245   22.9086 C   0  0  0  0  0  0  0  0  0  0  0  0
    7.0535   -3.0922   21.8549 H   0  0  0  0  0  0  0  0  0  0  0  0
    7.1532   -1.4470   23.2620 C   0  0  0  0  0  0  0  0  0  0  0  0
    5.4459    0.6452   20.1541 C   0  0  0  0  0  0  0  0  0  0  0  0
    5.0223    0.6189   21.1612 H   0  0  0  0  0  0  0  0  0  0  0  0
    4.8097    1.3073   19.1012 C   0  0  0  0  0  0  0  0  0  0  0  0
    3.8791    1.8398   19.2625 H   0  0  0  0  0  0  0  0  0  0  0  0
  1  2  1  0
  2  3  2  0
  3  4  1  0
  4  5  1  0
  4  6  2  0
  6  7  1  0
  7  8  1  0
  7  9  1  0
  9 10  2  0
 10 11  1  0
 10 12  1  0
 12 13  2  0
 13 14  1  0
 13 15  1  0
 15 16  2  0
 16 17  1  0
 16 18  1  0
 18 19  1  0
 18 20  2  0
 20 21  1  0
 20 22  1  0
 22 23  1  0
 22 24  2  0
  6 25  1  0
 25 26  1  0
 25 27  2  0
 27 28  1  0
 27  2  1  0
 24  9  1  0
 24 15  1  0
M  END
>  <cnnaffinity>  (1) 
-4.86616

>  <filename>  (1) 
c1cncc(Nc2cncc3ccccc23)c1

$$$$
