
     RDKit          3D

 37 40  0  0  0  0  0  0  0  0999 V2000
    4.8667    1.3363   19.0236 C   0  0  0  0  0  0  0  0  0  0  0  0
    5.4918    1.2587   17.7781 C   0  0  0  0  0  0  0  0  0  0  0  0
    6.6453    0.6085   17.5684 N   0  0  0  0  0  0  0  0  0  0  0  0
    7.2145    0.0255   18.6328 C   0  0  0  0  0  0  0  0  0  0  0  0
    6.6857    0.0549   19.9292 C   0  0  0  0  0  0  0  0  0  0  0  0
    7.3888   -0.5837   21.1109 C   0  0  0  0  0  0  0  0  0  0  0  0
    7.7298    0.3696   22.1640 N   0  0  0  0  0  0  0  0  0  0  0  0
    6.9264    0.5329   23.2423 N   0  0  0  0  0  0  0  0  0  0  0  0
    7.5384    1.4751   23.9431 C   0  0  0  0  0  0  0  0  0  0  0  0
    7.1065    1.9711   25.2678 C   0  0  0  0  0  0  0  0  0  0  0  0
    7.8418    2.9000   25.9641 C   0  0  0  0  0  0  0  0  0  0  0  0
    7.1716    3.2593   27.4913 S   0  0  0  0  0  0  0  0  0  0  0  0
    5.8732    2.1623   27.2335 C   0  0  0  0  0  0  0  0  0  0  0  0
    5.9529    1.5468   26.0251 C   0  0  0  0  0  0  0  0  0  0  0  0
    5.2289    0.8082   25.6899 H   0  0  0  0  0  0  0  0  0  0  0  0
    5.1334    2.0264   28.0138 H   0  0  0  0  0  0  0  0  0  0  0  0
    8.7630    3.3718   25.6417 H   0  0  0  0  0  0  0  0  0  0  0  0
    8.6818    1.9348   23.3540 N   0  0  0  0  0  0  0  0  0  0  0  0
    8.7700    1.2220   22.2535 C   0  0  0  0  0  0  0  0  0  0  0  0
    9.9206    1.2709   21.2927 C   0  0  0  0  0  0  0  0  0  0  0  0
   11.0646    0.3469   21.6290 C   0  0  0  0  0  0  0  0  0  0  0  0
   12.0044    0.3997   22.6268 C   0  0  0  0  0  0  0  0  0  0  0  0
   12.8421   -0.6874   22.5703 N   0  0  0  0  0  0  0  0  0  0  0  0
   12.4211   -1.3937   21.5569 C   0  0  0  0  0  0  0  0  0  0  0  0
   11.3306   -0.8286   20.9681 N   0  0  0  0  0  0  0  0  0  0  0  0
   10.9096   -1.1608   20.1136 H   0  0  0  0  0  0  0  0  0  0  0  0
   12.8617   -2.3115   21.1980 H   0  0  0  0  0  0  0  0  0  0  0  0
   12.1424    1.1693   23.3754 H   0  0  0  0  0  0  0  0  0  0  0  0
   10.2827    2.2997   21.3149 H   0  0  0  0  0  0  0  0  0  0  0  0
    9.5512    1.0868   20.2810 H   0  0  0  0  0  0  0  0  0  0  0  0
    8.3023   -1.0971   20.7869 H   0  0  0  0  0  0  0  0  0  0  0  0
    6.7484   -1.3320   21.5871 H   0  0  0  0  0  0  0  0  0  0  0  0
    5.4718    0.7253   20.1243 C   0  0  0  0  0  0  0  0  0  0  0  0
    5.0244    0.7663   21.1190 H   0  0  0  0  0  0  0  0  0  0  0  0
    8.1431   -0.5111   18.4315 H   0  0  0  0  0  0  0  0  0  0  0  0
    5.0475    1.7425   16.9088 H   0  0  0  0  0  0  0  0  0  0  0  0
    3.9356    1.8803   19.1220 H   0  0  0  0  0  0  0  0  0  0  0  0
  1  2  2  0
  2  3  1  0
  3  4  2  0
  4  5  1  0
  5  6  1  0
  6  7  1  0
  7  8  1  0
  8  9  2  0
  9 10  1  0
 10 11  2  0
 11 12  1  0
 12 13  1  0
 13 14  2  0
 14 15  1  0
 13 16  1  0
 11 17  1  0
  9 18  1  0
 18 19  2  0
 19 20  1  0
 20 21  1  0
 21 22  2  0
 22 23  1  0
 23 24  2  0
 24 25  1  0
 25 26  1  0
 24 27  1  0
 22 28  1  0
 20 29  1  0
 20 30  1  0
  6 31  1  0
  6 32  1  0
  5 33  2  0
 33 34  1  0
  4 35  1  0
  2 36  1  0
  1 37  1  0
 33  1  1  0
 19  7  1  0
 25 21  1  0
 14 10  1  0
M  END
>  <cnnaffinity>  (1) 
-5.84319

>  <filename>  (1) 
c1cncc(Cn2nc(-c3ccsc3)nc2Cc2cnc[nH]2)c1

$$$$
