
     RDKit          3D

 41 44  0  0  0  0  0  0  0  0999 V2000
    4.8823    2.7377   16.4650 H   0  0  0  0  0  0  0  0  0  0  0  0
    5.3684    2.2148   17.2832 C   0  0  0  0  0  0  0  0  0  0  0  0
    6.4371    1.4753   16.9455 N   0  0  0  0  0  0  0  0  0  0  0  0
    7.0837    0.8431   17.9326 C   0  0  0  0  0  0  0  0  0  0  0  0
    7.9579    0.2709   17.6318 H   0  0  0  0  0  0  0  0  0  0  0  0
    6.7347    0.8923   19.3098 C   0  0  0  0  0  0  0  0  0  0  0  0
    7.5041    0.2416   20.2900 N   0  0  0  0  0  0  0  0  0  0  0  0
    7.9908   -1.1159   19.9987 C   0  0  0  0  0  0  0  0  0  0  0  0
    8.7069   -1.0599   19.1668 H   0  0  0  0  0  0  0  0  0  0  0  0
    7.1707   -1.7556   19.6306 H   0  0  0  0  0  0  0  0  0  0  0  0
    8.7003   -1.8503   21.1593 C   0  0  0  0  0  0  0  0  0  0  0  0
    9.0573   -2.8141   20.7702 H   0  0  0  0  0  0  0  0  0  0  0  0
    9.6045   -1.2740   21.4109 H   0  0  0  0  0  0  0  0  0  0  0  0
    7.8825   -2.1061   22.3530 N   0  0  0  0  0  0  0  0  0  0  0  0
    8.4439   -2.8107   23.3874 C   0  0  0  0  0  0  0  0  0  0  0  0
    7.6571   -3.0135   24.4837 O   0  0  0  0  0  0  0  0  0  0  0  0
    8.4076   -3.7468   25.3642 C   0  0  0  0  0  0  0  0  0  0  0  0
    8.0095   -4.1161   26.6413 C   0  0  0  0  0  0  0  0  0  0  0  0
    7.0347   -3.8404   27.0230 H   0  0  0  0  0  0  0  0  0  0  0  0
    8.9429   -4.8350   27.3932 C   0  0  0  0  0  0  0  0  0  0  0  0
    8.6856   -5.1541   28.3950 H   0  0  0  0  0  0  0  0  0  0  0  0
   10.2140   -5.1660   26.8759 C   0  0  0  0  0  0  0  0  0  0  0  0
   10.9087   -5.7008   27.5125 H   0  0  0  0  0  0  0  0  0  0  0  0
   10.5748   -4.8059   25.5772 C   0  0  0  0  0  0  0  0  0  0  0  0
   11.5414   -5.0945   25.1701 H   0  0  0  0  0  0  0  0  0  0  0  0
    9.6653   -4.0404   24.8153 C   0  0  0  0  0  0  0  0  0  0  0  0
    9.6703   -3.3877   23.5253 C   0  0  0  0  0  0  0  0  0  0  0  0
   10.4842   -3.2673   22.8314 H   0  0  0  0  0  0  0  0  0  0  0  0
    6.5553   -1.4969   22.4588 C   0  0  0  0  0  0  0  0  0  0  0  0
    6.0080   -1.7176   21.5323 H   0  0  0  0  0  0  0  0  0  0  0  0
    6.0127   -1.9768   23.2767 H   0  0  0  0  0  0  0  0  0  0  0  0
    6.5962    0.0278   22.6467 C   0  0  0  0  0  0  0  0  0  0  0  0
    6.8953    0.2768   23.6731 H   0  0  0  0  0  0  0  0  0  0  0  0
    5.5806    0.4267   22.5145 H   0  0  0  0  0  0  0  0  0  0  0  0
    7.5555    0.7321   21.6698 C   0  0  0  0  0  0  0  0  0  0  0  0
    7.3577    1.8109   21.6684 H   0  0  0  0  0  0  0  0  0  0  0  0
    8.5875    0.6042   22.0283 H   0  0  0  0  0  0  0  0  0  0  0  0
    5.6001    1.6727   19.6284 C   0  0  0  0  0  0  0  0  0  0  0  0
    5.2674    1.7515   20.6608 H   0  0  0  0  0  0  0  0  0  0  0  0
    4.9125    2.3318   18.6015 C   0  0  0  0  0  0  0  0  0  0  0  0
    4.0350    2.9342   18.8154 H   0  0  0  0  0  0  0  0  0  0  0  0
  1  2  1  0
  2  3  2  0
  3  4  1  0
  4  5  1  0
  4  6  2  0
  6  7  1  0
  7  8  1  0
  8  9  1  0
  8 10  1  0
  8 11  1  0
 11 12  1  0
 11 13  1  0
 11 14  1  0
 14 15  1  0
 15 16  1  0
 16 17  1  0
 17 18  2  0
 18 19  1  0
 18 20  1  0
 20 21  1  0
 20 22  2  0
 22 23  1  0
 22 24  1  0
 24 25  1  0
 24 26  2  0
 26 27  1  0
 27 28  1  0
 14 29  1  0
 29 30  1  0
 29 31  1  0
 29 32  1  0
 32 33  1  0
 32 34  1  0
 32 35  1  0
 35 36  1  0
 35 37  1  0
  6 38  1  0
 38 39  1  0
 38 40  2  0
 40 41  1  0
 40  2  1  0
 35  7  1  0
 27 15  2  0
 26 17  1  0
M  END
>  <cnnaffinity>  (1) 
-5.42553

>  <filename>  (1) 
c1cncc(N2CCCN(c3cc4ccccc4o3)CC2)c1

$$$$
