
     RDKit          3D

 39 43  0  0  0  0  0  0  0  0999 V2000
    5.0704    1.8014   19.0641 C   0  0  0  0  0  0  0  0  0  0  0  0
    5.7397    1.5001   17.8768 C   0  0  0  0  0  0  0  0  0  0  0  0
    6.7157    0.5780   17.8003 N   0  0  0  0  0  0  0  0  0  0  0  0
    7.0847   -0.0330   18.9285 C   0  0  0  0  0  0  0  0  0  0  0  0
    6.5368    0.2748   20.1920 C   0  0  0  0  0  0  0  0  0  0  0  0
    7.0755   -0.3721   21.3280 N   0  0  0  0  0  0  0  0  0  0  0  0
    7.5549   -1.6360   21.2038 N   0  0  0  0  0  0  0  0  0  0  0  0
    7.9930   -1.9140   22.4187 C   0  0  0  0  0  0  0  0  0  0  0  0
    8.7786   -3.1592   22.6133 C   0  0  0  0  0  0  0  0  0  0  0  0
    8.1037   -4.5332   22.4544 C   0  0  0  0  0  0  0  0  0  0  0  0
    8.6908   -4.0975   23.7601 C   0  0  0  0  0  0  0  0  0  0  0  0
    8.3496   -4.0610   25.2063 C   0  0  0  0  0  0  0  0  0  0  0  0
    9.6817   -4.6466   24.7233 C   0  0  0  0  0  0  0  0  0  0  0  0
    9.8099   -5.7275   24.7406 H   0  0  0  0  0  0  0  0  0  0  0  0
   10.5935   -4.0736   24.8863 H   0  0  0  0  0  0  0  0  0  0  0  0
    8.3640   -3.0741   25.6672 H   0  0  0  0  0  0  0  0  0  0  0  0
    7.5842   -4.7520   25.5519 H   0  0  0  0  0  0  0  0  0  0  0  0
    8.6260   -5.3117   21.8975 H   0  0  0  0  0  0  0  0  0  0  0  0
    7.0177   -4.5710   22.3778 H   0  0  0  0  0  0  0  0  0  0  0  0
    9.7758   -3.0436   22.1844 H   0  0  0  0  0  0  0  0  0  0  0  0
    7.8323   -0.9106   23.3236 N   0  0  0  0  0  0  0  0  0  0  0  0
    7.2971    0.0531   22.6057 C   0  0  0  0  0  0  0  0  0  0  0  0
    7.0771    1.4558   23.0635 C   0  0  0  0  0  0  0  0  0  0  0  0
    7.7023    2.5380   22.2263 C   0  0  0  0  0  0  0  0  0  0  0  0
    7.4296    2.7441   22.0060 C   0  0  0  0  0  0  0  0  0  0  0  0
    8.6207    2.2140   21.0718 N   0  0  0  0  0  0  0  0  0  0  0  0
    9.8077    1.9944   21.8373 C   0  0  0  0  0  0  0  0  0  0  0  0
    9.7313    1.9046   23.1599 C   0  0  0  0  0  0  0  0  0  0  0  0
   10.4730    1.7805   23.9391 H   0  0  0  0  0  0  0  0  0  0  0  0
   10.7429    1.8848   21.2842 H   0  0  0  0  0  0  0  0  0  0  0  0
    8.7285    3.0505   20.5496 H   0  0  0  0  0  0  0  0  0  0  0  0
    6.5884    2.8928   21.3504 H   0  0  0  0  0  0  0  0  0  0  0  0
    7.4463    1.4961   24.0817 H   0  0  0  0  0  0  0  0  0  0  0  0
    6.0090    1.5783   23.1457 H   0  0  0  0  0  0  0  0  0  0  0  0
    5.4577    1.1636   20.2494 C   0  0  0  0  0  0  0  0  0  0  0  0
    4.9019    1.3249   21.1704 H   0  0  0  0  0  0  0  0  0  0  0  0
    7.8526   -0.8025   18.8342 H   0  0  0  0  0  0  0  0  0  0  0  0
    5.4844    2.0107   16.9521 H   0  0  0  0  0  0  0  0  0  0  0  0
    4.2452    2.5071   19.0330 H   0  0  0  0  0  0  0  0  0  0  0  0
  1  2  2  0
  2  3  1  0
  3  4  2  0
  4  5  1  0
  5  6  1  0
  6  7  1  0
  7  8  2  0
  8  9  1  0
  9 10  1  0
 10 11  1  0
 11 12  1  0
 12 13  1  0
 13 14  1  0
 13 15  1  0
 12 16  1  0
 12 17  1  0
 10 18  1  0
 10 19  1  0
  9 20  1  0
  8 21  1  0
 21 22  2  0
 22 23  1  0
 23 24  1  0
 24 25  2  0
 25 26  1  0
 26 27  1  0
 27 28  2  0
 28 29  1  0
 27 30  1  0
 26 31  1  0
 25 32  1  0
 23 33  1  0
 23 34  1  0
  5 35  2  0
 35 36  1  0
  4 37  1  0
  2 38  1  0
  1 39  1  0
 35  1  1  0
 22  6  1  0
 28 24  1  0
 11  9  1  0
 13 11  1  0
M  END
>  <cnnaffinity>  (1) 
-5.69477

>  <filename>  (1) 
c1cncc(-n2nc(C3CC34CC4)nc2Cc2cc[nH]c2)c1

$$$$
