
     RDKit          3D

 41 44  0  0  0  0  0  0  0  0999 V2000
    4.7993    1.3145   19.0964 C   0  0  0  0  0  0  0  0  0  0  0  0
    5.3956    1.2996   17.8304 C   0  0  0  0  0  0  0  0  0  0  0  0
    6.5594    0.6878   17.5653 N   0  0  0  0  0  0  0  0  0  0  0  0
    7.1597    0.0612   18.5865 C   0  0  0  0  0  0  0  0  0  0  0  0
    6.6430   -0.0095   19.8900 C   0  0  0  0  0  0  0  0  0  0  0  0
    7.4054   -0.6754   20.9988 C   0  0  0  0  0  0  0  0  0  0  0  0
    8.3164    0.3241   21.7280 C   0  0  0  0  0  0  0  0  0  0  0  0
    9.1015   -0.3317   22.8773 C   0  0  0  0  0  0  0  0  0  0  0  0
    8.2115   -0.8994   23.9344 C   0  0  0  0  0  0  0  0  0  0  0  0
    7.9670   -2.1777   24.1390 N   0  0  0  0  0  0  0  0  0  0  0  0
    6.9785   -2.1571   25.0741 C   0  0  0  0  0  0  0  0  0  0  0  0
    6.3223   -3.4032   25.5481 C   0  0  0  0  0  0  0  0  0  0  0  0
    5.7108   -4.3516   24.5453 C   0  0  0  0  0  0  0  0  0  0  0  0
    4.8257   -3.5333   25.4390 C   0  0  0  0  0  0  0  0  0  0  0  0
    4.2839   -4.0259   26.2421 H   0  0  0  0  0  0  0  0  0  0  0  0
    4.3055   -2.6817   25.0052 H   0  0  0  0  0  0  0  0  0  0  0  0
    5.7858   -4.0679   23.4971 H   0  0  0  0  0  0  0  0  0  0  0  0
    5.7829   -5.4230   24.7197 H   0  0  0  0  0  0  0  0  0  0  0  0
    6.8116   -3.8472   26.4113 H   0  0  0  0  0  0  0  0  0  0  0  0
    6.6013   -0.9532   25.4628 N   0  0  0  0  0  0  0  0  0  0  0  0
    7.4102   -0.1386   24.7349 N   0  0  0  0  0  0  0  0  0  0  0  0
    7.3418    1.2704   24.8596 C   0  0  0  0  0  0  0  0  0  0  0  0
    8.4702    2.0508   25.0701 C   0  0  0  0  0  0  0  0  0  0  0  0
    8.2752    3.4330   25.1621 C   0  0  0  0  0  0  0  0  0  0  0  0
    7.0765    4.0168   25.0542 N   0  0  0  0  0  0  0  0  0  0  0  0
    5.9972    3.2566   24.8520 N   0  0  0  0  0  0  0  0  0  0  0  0
    6.1038    1.9294   24.7701 C   0  0  0  0  0  0  0  0  0  0  0  0
    5.1717    1.4024   24.6134 H   0  0  0  0  0  0  0  0  0  0  0  0
    9.1065    4.1062   25.3273 H   0  0  0  0  0  0  0  0  0  0  0  0
    9.4586    1.6145   25.1998 H   0  0  0  0  0  0  0  0  0  0  0  0
    9.7006   -1.1617   22.4897 H   0  0  0  0  0  0  0  0  0  0  0  0
    9.8001    0.3895   23.3120 H   0  0  0  0  0  0  0  0  0  0  0  0
    9.0182    0.7618   21.0076 H   0  0  0  0  0  0  0  0  0  0  0  0
    7.7138    1.1593   22.1074 H   0  0  0  0  0  0  0  0  0  0  0  0
    8.0132   -1.5010   20.6025 H   0  0  0  0  0  0  0  0  0  0  0  0
    6.7044   -1.1299   21.7138 H   0  0  0  0  0  0  0  0  0  0  0  0
    5.4332    0.6481   20.1455 C   0  0  0  0  0  0  0  0  0  0  0  0
    5.0120    0.6384   21.1561 H   0  0  0  0  0  0  0  0  0  0  0  0
    8.1108   -0.4193   18.3568 H   0  0  0  0  0  0  0  0  0  0  0  0
    4.9148    1.7900   16.9879 H   0  0  0  0  0  0  0  0  0  0  0  0
    3.8702    1.8475   19.2516 H   0  0  0  0  0  0  0  0  0  0  0  0
  1  2  2  0
  2  3  1  0
  3  4  2  0
  4  5  1  0
  5  6  1  0
  6  7  1  0
  7  8  1  0
  8  9  1  0
  9 10  2  0
 10 11  1  0
 11 12  1  0
 12 13  1  0
 13 14  1  0
 14 15  1  0
 14 16  1  0
 13 17  1  0
 13 18  1  0
 12 19  1  0
 11 20  2  0
 20 21  1  0
 21 22  1  0
 22 23  2  0
 23 24  1  0
 24 25  2  0
 25 26  1  0
 26 27  2  0
 27 28  1  0
 24 29  1  0
 23 30  1  0
  8 31  1  0
  8 32  1  0
  7 33  1  0
  7 34  1  0
  6 35  1  0
  6 36  1  0
  5 37  2  0
 37 38  1  0
  4 39  1  0
  2 40  1  0
  1 41  1  0
 37  1  1  0
 21  9  1  0
 27 22  1  0
 14 12  1  0
M  END
>  <cnnaffinity>  (1) 
-5.68159

>  <filename>  (1) 
c1cncc(CCCc2nc(C3CC3)nn2-c2ccnnc2)c1

$$$$
