
     RDKit          3D

 43 46  0  0  0  0  0  0  0  0999 V2000
    4.8275    1.3689   19.0163 C   0  0  0  0  0  0  0  0  0  0  0  0
    5.4702    1.3089   17.7764 C   0  0  0  0  0  0  0  0  0  0  0  0
    6.6087    0.6201   17.5719 N   0  0  0  0  0  0  0  0  0  0  0  0
    7.1540   -0.0133   18.6127 C   0  0  0  0  0  0  0  0  0  0  0  0
    6.6269    0.0685   19.9124 C   0  0  0  0  0  0  0  0  0  0  0  0
    7.3268   -0.5674   20.9747 N   0  0  0  0  0  0  0  0  0  0  0  0
    7.6529   -1.8761   20.8521 N   0  0  0  0  0  0  0  0  0  0  0  0
    8.1602   -2.1726   22.0285 C   0  0  0  0  0  0  0  0  0  0  0  0
    8.6240   -3.5548   22.3395 C   0  0  0  0  0  0  0  0  0  0  0  0
    7.6321   -4.3468   23.1930 C   0  0  0  0  0  0  0  0  0  0  0  0
    7.9764   -5.8396   23.4042 C   0  0  0  0  0  0  0  0  0  0  0  0
    6.6798   -6.2455   22.6640 C   0  0  0  0  0  0  0  0  0  0  0  0
    6.3423   -4.7505   22.4337 C   0  0  0  0  0  0  0  0  0  0  0  0
    6.3658   -4.4548   21.3782 H   0  0  0  0  0  0  0  0  0  0  0  0
    5.4025   -4.3751   22.8516 H   0  0  0  0  0  0  0  0  0  0  0  0
    6.8279   -6.8203   21.7446 H   0  0  0  0  0  0  0  0  0  0  0  0
    5.9721   -6.7832   23.3001 H   0  0  0  0  0  0  0  0  0  0  0  0
    8.0060   -6.1488   24.4525 H   0  0  0  0  0  0  0  0  0  0  0  0
    8.9151   -6.1625   22.9421 H   0  0  0  0  0  0  0  0  0  0  0  0
    7.4405   -3.8276   24.1388 H   0  0  0  0  0  0  0  0  0  0  0  0
    8.7348   -4.0668   21.3813 H   0  0  0  0  0  0  0  0  0  0  0  0
    9.6068   -3.5014   22.8175 H   0  0  0  0  0  0  0  0  0  0  0  0
    8.2281   -1.1295   22.8972 N   0  0  0  0  0  0  0  0  0  0  0  0
    7.7201   -0.1270   22.2025 C   0  0  0  0  0  0  0  0  0  0  0  0
    7.6948    1.3049   22.6356 C   0  0  0  0  0  0  0  0  0  0  0  0
    8.6537    2.2540   21.8514 C   0  0  0  0  0  0  0  0  0  0  0  0
    8.6004    3.6909   22.2917 C   0  0  0  0  0  0  0  0  0  0  0  0
    9.3796    4.2578   23.1784 N   0  0  0  0  0  0  0  0  0  0  0  0
    8.9450    5.5578   23.2858 C   0  0  0  0  0  0  0  0  0  0  0  0
    7.8874    5.7882   22.4541 C   0  0  0  0  0  0  0  0  0  0  0  0
    7.6760    4.5797   21.8248 N   0  0  0  0  0  0  0  0  0  0  0  0
    7.0249    4.3779   21.0835 H   0  0  0  0  0  0  0  0  0  0  0  0
    7.2796    6.6694   22.2779 H   0  0  0  0  0  0  0  0  0  0  0  0
    9.4309    6.2648   23.9419 H   0  0  0  0  0  0  0  0  0  0  0  0
    8.4289    2.1957   20.7804 H   0  0  0  0  0  0  0  0  0  0  0  0
    9.6937    1.9279   21.9740 H   0  0  0  0  0  0  0  0  0  0  0  0
    6.6663    1.6727   22.5535 H   0  0  0  0  0  0  0  0  0  0  0  0
    7.9603    1.2960   23.6960 H   0  0  0  0  0  0  0  0  0  0  0  0
    5.4152    0.7371   20.1152 C   0  0  0  0  0  0  0  0  0  0  0  0
    4.9404    0.7317   21.0991 H   0  0  0  0  0  0  0  0  0  0  0  0
    8.0510   -0.6026   18.4176 H   0  0  0  0  0  0  0  0  0  0  0  0
    5.0434    1.7989   16.9063 H   0  0  0  0  0  0  0  0  0  0  0  0
    3.8848    1.8962   19.1128 H   0  0  0  0  0  0  0  0  0  0  0  0
  1  2  2  0
  2  3  1  0
  3  4  2  0
  4  5  1  0
  5  6  1  0
  6  7  1  0
  7  8  2  0
  8  9  1  0
  9 10  1  0
 10 11  1  0
 11 12  1  0
 12 13  1  0
 13 14  1  0
 13 15  1  0
 12 16  1  0
 12 17  1  0
 11 18  1  0
 11 19  1  0
 10 20  1  0
  9 21  1  0
  9 22  1  0
  8 23  1  0
 23 24  2  0
 24 25  1  0
 25 26  1  0
 26 27  1  0
 27 28  2  0
 28 29  1  0
 29 30  2  0
 30 31  1  0
 31 32  1  0
 30 33  1  0
 29 34  1  0
 26 35  1  0
 26 36  1  0
 25 37  1  0
 25 38  1  0
  5 39  2  0
 39 40  1  0
  4 41  1  0
  2 42  1  0
  1 43  1  0
 39  1  1  0
 24  6  1  0
 31 27  1  0
 13 10  1  0
M  END
>  <cnnaffinity>  (1) 
-5.89343

>  <filename>  (1) 
c1cncc(-n2nc(CC3CCC3)nc2CCc2ncc[nH]2)c1

$$$$
