
     RDKit          3D

 46 49  0  0  0  0  0  0  0  0999 V2000
    4.7978    1.2285   18.9689 C   0  0  0  0  0  0  0  0  0  0  0  0
    5.4765    1.3308   17.7520 C   0  0  0  0  0  0  0  0  0  0  0  0
    6.6538    0.7334   17.5062 N   0  0  0  0  0  0  0  0  0  0  0  0
    7.2011    0.0397   18.5098 C   0  0  0  0  0  0  0  0  0  0  0  0
    6.6184   -0.1210   19.7768 C   0  0  0  0  0  0  0  0  0  0  0  0
    7.4295   -0.7996   20.8542 C   0  0  0  0  0  0  0  0  0  0  0  0
    8.5761   -0.0012   21.1745 O   0  0  0  0  0  0  0  0  0  0  0  0
    8.3123    1.0301   22.1248 C   0  0  0  0  0  0  0  0  0  0  0  0
    8.3891    0.5242   23.5344 C   0  0  0  0  0  0  0  0  0  0  0  0
    7.3766    0.2833   24.3506 N   0  0  0  0  0  0  0  0  0  0  0  0
    7.9811   -0.2824   25.4324 C   0  0  0  0  0  0  0  0  0  0  0  0
    7.2608   -0.8410   26.6153 C   0  0  0  0  0  0  0  0  0  0  0  0
    6.6160   -2.2167   26.3194 C   0  0  0  0  0  0  0  0  0  0  0  0
    5.4727   -2.3776   27.3431 C   0  0  0  0  0  0  0  0  0  0  0  0
    5.3310   -1.0121   28.0554 C   0  0  0  0  0  0  0  0  0  0  0  0
    6.1197    0.0000   27.2066 C   0  0  0  0  0  0  0  0  0  0  0  0
    5.5023    0.4223   26.4053 H   0  0  0  0  0  0  0  0  0  0  0  0
    6.4933    0.8330   27.8112 H   0  0  0  0  0  0  0  0  0  0  0  0
    5.7645   -1.0697   29.0614 H   0  0  0  0  0  0  0  0  0  0  0  0
    4.2845   -0.7226   28.1889 H   0  0  0  0  0  0  0  0  0  0  0  0
    4.5478   -2.6572   26.8290 H   0  0  0  0  0  0  0  0  0  0  0  0
    5.6812   -3.1726   28.0667 H   0  0  0  0  0  0  0  0  0  0  0  0
    6.2192   -2.2263   25.2961 H   0  0  0  0  0  0  0  0  0  0  0  0
    7.3595   -3.0152   26.3839 H   0  0  0  0  0  0  0  0  0  0  0  0
    8.0297   -0.9701   27.3844 H   0  0  0  0  0  0  0  0  0  0  0  0
    9.2847   -0.3836   25.3370 N   0  0  0  0  0  0  0  0  0  0  0  0
    9.5602    0.1242   24.1088 N   0  0  0  0  0  0  0  0  0  0  0  0
   10.9163    0.4387   23.7985 C   0  0  0  0  0  0  0  0  0  0  0  0
   11.5810   -0.0240   22.6565 C   0  0  0  0  0  0  0  0  0  0  0  0
   12.9226    0.3486   22.5035 C   0  0  0  0  0  0  0  0  0  0  0  0
   13.5097    1.1917   23.4417 C   0  0  0  0  0  0  0  0  0  0  0  0
   12.8705    1.6345   24.5340 N   0  0  0  0  0  0  0  0  0  0  0  0
   11.6134    1.2443   24.7171 C   0  0  0  0  0  0  0  0  0  0  0  0
   11.0930    1.5909   25.6077 H   0  0  0  0  0  0  0  0  0  0  0  0
   14.5386    1.5162   23.3243 H   0  0  0  0  0  0  0  0  0  0  0  0
   13.5484   -0.0091   21.6963 H   0  0  0  0  0  0  0  0  0  0  0  0
   11.0741   -0.6525   21.9271 H   0  0  0  0  0  0  0  0  0  0  0  0
    9.0667    1.8061   21.9590 H   0  0  0  0  0  0  0  0  0  0  0  0
    7.3167    1.4822   21.9833 H   0  0  0  0  0  0  0  0  0  0  0  0
    6.8225   -0.9966   21.7529 H   0  0  0  0  0  0  0  0  0  0  0  0
    7.8481   -1.7552   20.5133 H   0  0  0  0  0  0  0  0  0  0  0  0
    5.3731    0.4800   20.0004 C   0  0  0  0  0  0  0  0  0  0  0  0
    4.8754    0.3914   20.9714 H   0  0  0  0  0  0  0  0  0  0  0  0
    8.1665   -0.4172   18.2953 H   0  0  0  0  0  0  0  0  0  0  0  0
    5.0527    1.9083   16.9329 H   0  0  0  0  0  0  0  0  0  0  0  0
    3.8548    1.7441   19.1023 H   0  0  0  0  0  0  0  0  0  0  0  0
  1  2  2  0
  2  3  1  0
  3  4  2  0
  4  5  1  0
  5  6  1  0
  6  7  1  0
  7  8  1  0
  8  9  1  0
  9 10  2  0
 10 11  1  0
 11 12  1  0
 12 13  1  0
 13 14  1  0
 14 15  1  0
 15 16  1  0
 16 17  1  0
 16 18  1  0
 15 19  1  0
 15 20  1  0
 14 21  1  0
 14 22  1  0
 13 23  1  0
 13 24  1  0
 12 25  1  0
 11 26  2  0
 26 27  1  0
 27 28  1  0
 28 29  2  0
 29 30  1  0
 30 31  2  0
 31 32  1  0
 32 33  2  0
 33 34  1  0
 31 35  1  0
 30 36  1  0
 29 37  1  0
  8 38  1  0
  8 39  1  0
  6 40  1  0
  6 41  1  0
  5 42  2  0
 42 43  1  0
  4 44  1  0
  2 45  1  0
  1 46  1  0
 42  1  1  0
 27  9  1  0
 33 28  1  0
 16 12  1  0
M  END
>  <cnnaffinity>  (1) 
-5.99866

>  <filename>  (1) 
c1cncc(COCc2nc(C3CCCC3)nn2-c2cccnc2)c1

$$$$
