
     RDKit          3D

 36 39  0  0  0  0  0  0  0  0999 V2000
    4.9171    1.7840   16.9936 H   0  0  0  0  0  0  0  0  0  0  0  0
    5.4028    1.2976   17.8353 C   0  0  0  0  0  0  0  0  0  0  0  0
    6.5660    0.6811   17.5748 N   0  0  0  0  0  0  0  0  0  0  0  0
    7.1659    0.0646   18.6027 C   0  0  0  0  0  0  0  0  0  0  0  0
    8.1119   -0.4224   18.3725 H   0  0  0  0  0  0  0  0  0  0  0  0
    6.6589   -0.0039   19.9120 C   0  0  0  0  0  0  0  0  0  0  0  0
    7.3561   -0.8456   20.9856 C   0  0  0  0  0  0  0  0  0  0  0  0
    6.8953   -2.3233   20.9596 C   0  0  0  0  0  0  0  0  0  0  0  0
    5.9241   -2.7448   20.0641 C   0  0  0  0  0  0  0  0  0  0  0  0
    5.4311   -2.0360   19.4070 H   0  0  0  0  0  0  0  0  0  0  0  0
    5.4741   -4.0127   19.8861 N   0  0  0  0  0  0  0  0  0  0  0  0
    5.9603   -4.9370   20.6735 C   0  0  0  0  0  0  0  0  0  0  0  0
    5.5733   -5.9462   20.5546 H   0  0  0  0  0  0  0  0  0  0  0  0
    6.9501   -4.6969   21.6658 C   0  0  0  0  0  0  0  0  0  0  0  0
    7.4436   -5.7727   22.4700 C   0  0  0  0  0  0  0  0  0  0  0  0
    7.0497   -6.7783   22.3148 H   0  0  0  0  0  0  0  0  0  0  0  0
    8.3933   -5.5380   23.4317 C   0  0  0  0  0  0  0  0  0  0  0  0
    8.7709   -6.3515   24.0513 H   0  0  0  0  0  0  0  0  0  0  0  0
    8.8779   -4.2144   23.6248 C   0  0  0  0  0  0  0  0  0  0  0  0
    9.6248   -4.0328   24.3925 H   0  0  0  0  0  0  0  0  0  0  0  0
    8.4166   -3.1633   22.8595 C   0  0  0  0  0  0  0  0  0  0  0  0
    8.8034   -2.1657   23.0456 H   0  0  0  0  0  0  0  0  0  0  0  0
    7.4351   -3.3614   21.8321 C   0  0  0  0  0  0  0  0  0  0  0  0
    7.3151   -0.1224   22.3848 C   0  0  0  0  0  0  0  0  0  0  0  0
    6.6734    0.7610   22.4292 H   0  0  0  0  0  0  0  0  0  0  0  0
    7.0314   -0.7793   23.2093 H   0  0  0  0  0  0  0  0  0  0  0  0
    8.8162    0.2191   22.2853 C   0  0  0  0  0  0  0  0  0  0  0  0
    9.4450   -0.1266   23.1130 H   0  0  0  0  0  0  0  0  0  0  0  0
    9.0022    1.2887   22.1464 H   0  0  0  0  0  0  0  0  0  0  0  0
    8.9103   -0.5866   20.9719 C   0  0  0  0  0  0  0  0  0  0  0  0
    9.5124   -1.4959   21.0166 H   0  0  0  0  0  0  0  0  0  0  0  0
    9.2719    0.0105   20.1317 H   0  0  0  0  0  0  0  0  0  0  0  0
    5.4412    0.6532   20.1562 C   0  0  0  0  0  0  0  0  0  0  0  0
    5.0056    0.6319   21.1586 H   0  0  0  0  0  0  0  0  0  0  0  0
    4.8076    1.3133   19.1025 C   0  0  0  0  0  0  0  0  0  0  0  0
    3.8768    1.8450   19.2577 H   0  0  0  0  0  0  0  0  0  0  0  0
  1  2  1  0
  2  3  2  0
  3  4  1  0
  4  5  1  0
  4  6  2  0
  6  7  1  0
  7  8  1  0
  8  9  2  0
  9 10  1  0
  9 11  1  0
 11 12  2  0
 12 13  1  0
 12 14  1  0
 14 15  2  0
 15 16  1  0
 15 17  1  0
 17 18  1  0
 17 19  2  0
 19 20  1  0
 19 21  1  0
 21 22  1  0
 21 23  2  0
  7 24  1  0
 24 25  1  0
 24 26  1  0
 24 27  1  0
 27 28  1  0
 27 29  1  0
 27 30  1  0
 30 31  1  0
 30 32  1  0
  6 33  1  0
 33 34  1  0
 33 35  2  0
 35 36  1  0
 35  2  1  0
 30  7  1  0
 23  8  1  0
 23 14  1  0
M  END
>  <cnnaffinity>  (1) 
-5.17768

>  <filename>  (1) 
c1cncc(C2(c3cncc4ccccc34)CCC2)c1

$$$$
