
     RDKit          3D

 43 46  0  0  0  0  0  0  0  0999 V2000
    4.8311    1.3100   19.0704 C   0  0  0  0  0  0  0  0  0  0  0  0
    5.4952    1.2842   17.8436 C   0  0  0  0  0  0  0  0  0  0  0  0
    6.6619    0.6400   17.6562 N   0  0  0  0  0  0  0  0  0  0  0  0
    7.1988    0.0081   18.7046 C   0  0  0  0  0  0  0  0  0  0  0  0
    6.5970   -0.0386   19.9842 C   0  0  0  0  0  0  0  0  0  0  0  0
    7.2771   -0.7366   20.9317 O   0  0  0  0  0  0  0  0  0  0  0  0
    6.6996   -0.9699   22.2144 C   0  0  0  0  0  0  0  0  0  0  0  0
    7.7228   -1.6338   23.0754 C   0  0  0  0  0  0  0  0  0  0  0  0
    7.5508   -2.6764   23.8700 N   0  0  0  0  0  0  0  0  0  0  0  0
    8.8026   -2.9058   24.3605 C   0  0  0  0  0  0  0  0  0  0  0  0
    9.2181   -3.9937   25.3123 C   0  0  0  0  0  0  0  0  0  0  0  0
    8.5309   -3.8902   26.6921 C   0  0  0  0  0  0  0  0  0  0  0  0
    7.1396   -4.5129   26.4649 C   0  0  0  0  0  0  0  0  0  0  0  0
    7.3112   -5.5062   25.2927 C   0  0  0  0  0  0  0  0  0  0  0  0
    8.7915   -5.4094   24.8694 C   0  0  0  0  0  0  0  0  0  0  0  0
    8.9547   -5.6047   23.8031 H   0  0  0  0  0  0  0  0  0  0  0  0
    9.4070   -6.1314   25.4251 H   0  0  0  0  0  0  0  0  0  0  0  0
    7.0366   -6.5221   25.5891 H   0  0  0  0  0  0  0  0  0  0  0  0
    6.6656   -5.2185   24.4581 H   0  0  0  0  0  0  0  0  0  0  0  0
    6.7627   -4.9966   27.3732 H   0  0  0  0  0  0  0  0  0  0  0  0
    6.4177   -3.7384   26.1881 H   0  0  0  0  0  0  0  0  0  0  0  0
    9.1194   -4.4886   27.4021 H   0  0  0  0  0  0  0  0  0  0  0  0
    8.4886   -2.8681   27.0863 H   0  0  0  0  0  0  0  0  0  0  0  0
   10.3063   -3.8927   25.3828 H   0  0  0  0  0  0  0  0  0  0  0  0
    9.7088   -2.0620   23.9206 N   0  0  0  0  0  0  0  0  0  0  0  0
    9.0189   -1.2222   23.1173 N   0  0  0  0  0  0  0  0  0  0  0  0
    9.7279   -0.1617   22.4916 C   0  0  0  0  0  0  0  0  0  0  0  0
    9.2440    1.1452   22.3774 C   0  0  0  0  0  0  0  0  0  0  0  0
   10.1190    2.1108   21.8640 C   0  0  0  0  0  0  0  0  0  0  0  0
   11.3866    1.7278   21.4228 C   0  0  0  0  0  0  0  0  0  0  0  0
   11.8472    0.4716   21.5350 N   0  0  0  0  0  0  0  0  0  0  0  0
   11.0402   -0.4436   22.0652 C   0  0  0  0  0  0  0  0  0  0  0  0
   11.4084   -1.4630   22.1598 H   0  0  0  0  0  0  0  0  0  0  0  0
   12.0766    2.4509   20.9893 H   0  0  0  0  0  0  0  0  0  0  0  0
    9.8575    3.1637   21.8296 H   0  0  0  0  0  0  0  0  0  0  0  0
    8.2312    1.4119   22.6950 H   0  0  0  0  0  0  0  0  0  0  0  0
    6.3946   -0.0211   22.6782 H   0  0  0  0  0  0  0  0  0  0  0  0
    5.8353   -1.6311   22.1387 H   0  0  0  0  0  0  0  0  0  0  0  0
    5.3843    0.6352   20.1683 C   0  0  0  0  0  0  0  0  0  0  0  0
    4.8904    0.6357   21.1388 H   0  0  0  0  0  0  0  0  0  0  0  0
    8.1514   -0.5019   18.5548 H   0  0  0  0  0  0  0  0  0  0  0  0
    5.0848    1.7945   16.9750 H   0  0  0  0  0  0  0  0  0  0  0  0
    3.8997    1.8606   19.1673 H   0  0  0  0  0  0  0  0  0  0  0  0
  1  2  2  0
  2  3  1  0
  3  4  2  0
  4  5  1  0
  5  6  1  0
  6  7  1  0
  7  8  1  0
  8  9  2  0
  9 10  1  0
 10 11  1  0
 11 12  1  0
 12 13  1  0
 13 14  1  0
 14 15  1  0
 15 16  1  0
 15 17  1  0
 14 18  1  0
 14 19  1  0
 13 20  1  0
 13 21  1  0
 12 22  1  0
 12 23  1  0
 11 24  1  0
 10 25  2  0
 25 26  1  0
 26 27  1  0
 27 28  2  0
 28 29  1  0
 29 30  2  0
 30 31  1  0
 31 32  2  0
 32 33  1  0
 30 34  1  0
 29 35  1  0
 28 36  1  0
  7 37  1  0
  7 38  1  0
  5 39  2  0
 39 40  1  0
  4 41  1  0
  2 42  1  0
  1 43  1  0
 39  1  1  0
 26  8  1  0
 32 27  1  0
 15 11  1  0
M  END
>  <cnnaffinity>  (1) 
-5.62201

>  <filename>  (1) 
c1cncc(OCc2nc(C3CCCC3)nn2-c2cccnc2)c1

$$$$
