
     RDKit          3D

 39 42  0  0  0  0  0  0  0  0999 V2000
    5.0181    1.2412   18.9049 C   0  0  0  0  0  0  0  0  0  0  0  0
    5.6964    1.1792   17.6870 C   0  0  0  0  0  0  0  0  0  0  0  0
    6.8980    0.5949   17.5503 N   0  0  0  0  0  0  0  0  0  0  0  0
    7.4653    0.0641   18.6407 C   0  0  0  0  0  0  0  0  0  0  0  0
    6.8536    0.0507   19.9062 C   0  0  0  0  0  0  0  0  0  0  0  0
    7.5580   -0.5330   21.0009 N   0  0  0  0  0  0  0  0  0  0  0  0
    8.8308   -0.1411   21.2736 N   0  0  0  0  0  0  0  0  0  0  0  0
    9.1503   -0.8764   22.3255 C   0  0  0  0  0  0  0  0  0  0  0  0
   10.5129   -0.8439   22.9526 C   0  0  0  0  0  0  0  0  0  0  0  0
   11.6021   -1.4110   22.0038 C   0  0  0  0  0  0  0  0  0  0  0  0
   12.9343   -0.7582   22.4248 C   0  0  0  0  0  0  0  0  0  0  0  0
   12.5798    0.3892   23.4075 C   0  0  0  0  0  0  0  0  0  0  0  0
   11.0436    0.5500   23.3586 C   0  0  0  0  0  0  0  0  0  0  0  0
   10.6230    0.8890   24.3166 H   0  0  0  0  0  0  0  0  0  0  0  0
   10.7613    1.2901   22.5966 H   0  0  0  0  0  0  0  0  0  0  0  0
   13.0829    1.3199   23.1272 H   0  0  0  0  0  0  0  0  0  0  0  0
   12.9310    0.1727   24.4249 H   0  0  0  0  0  0  0  0  0  0  0  0
   13.4729   -0.3818   21.5565 H   0  0  0  0  0  0  0  0  0  0  0  0
   13.6386   -1.4787   22.8378 H   0  0  0  0  0  0  0  0  0  0  0  0
   11.6125   -2.5074   22.0477 H   0  0  0  0  0  0  0  0  0  0  0  0
   11.3587   -1.1253   20.9726 H   0  0  0  0  0  0  0  0  0  0  0  0
   10.4324   -1.4811   23.8402 H   0  0  0  0  0  0  0  0  0  0  0  0
    8.1854   -1.7425   22.7298 N   0  0  0  0  0  0  0  0  0  0  0  0
    7.2111   -1.5279   21.8661 C   0  0  0  0  0  0  0  0  0  0  0  0
    5.9010   -2.2415   21.7889 C   0  0  0  0  0  0  0  0  0  0  0  0
    5.7304   -3.2364   20.6583 C   0  0  0  0  0  0  0  0  0  0  0  0
    5.4413   -2.9208   19.3692 C   0  0  0  0  0  0  0  0  0  0  0  0
    5.3652   -4.0195   18.6275 O   0  0  0  0  0  0  0  0  0  0  0  0
    5.5934   -5.1219   19.4112 N   0  0  0  0  0  0  0  0  0  0  0  0
    5.8178   -4.6605   20.6127 C   0  0  0  0  0  0  0  0  0  0  0  0
    6.0208   -5.3592   21.4186 H   0  0  0  0  0  0  0  0  0  0  0  0
    5.2730   -1.9899   18.8476 H   0  0  0  0  0  0  0  0  0  0  0  0
    5.1753   -1.4503   21.5960 H   0  0  0  0  0  0  0  0  0  0  0  0
    5.7108   -2.6736   22.7776 H   0  0  0  0  0  0  0  0  0  0  0  0
    5.5969    0.6597   20.0391 C   0  0  0  0  0  0  0  0  0  0  0  0
    5.1064    0.7326   21.0089 H   0  0  0  0  0  0  0  0  0  0  0  0
    8.4527   -0.3728   18.5173 H   0  0  0  0  0  0  0  0  0  0  0  0
    5.2660    1.6227   16.7898 H   0  0  0  0  0  0  0  0  0  0  0  0
    4.0665    1.7566   18.9656 H   0  0  0  0  0  0  0  0  0  0  0  0
  1  2  2  0
  2  3  1  0
  3  4  2  0
  4  5  1  0
  5  6  1  0
  6  7  1  0
  7  8  2  0
  8  9  1  0
  9 10  1  0
 10 11  1  0
 11 12  1  0
 12 13  1  0
 13 14  1  0
 13 15  1  0
 12 16  1  0
 12 17  1  0
 11 18  1  0
 11 19  1  0
 10 20  1  0
 10 21  1  0
  9 22  1  0
  8 23  1  0
 23 24  2  0
 24 25  1  0
 25 26  1  0
 26 27  2  0
 27 28  1  0
 28 29  1  0
 29 30  2  0
 30 31  1  0
 27 32  1  0
 25 33  1  0
 25 34  1  0
  5 35  2  0
 35 36  1  0
  4 37  1  0
  2 38  1  0
  1 39  1  0
 35  1  1  0
 24  6  1  0
 30 26  1  0
 13  9  1  0
M  END
>  <cnnaffinity>  (1) 
-5.68067

>  <filename>  (1) 
c1cncc(-n2nc(C3CCCC3)nc2Cc2cnoc2)c1

$$$$
