
     RDKit          3D

 48 51  0  0  0  0  0  0  0  0999 V2000
    4.8031    1.3115   19.0887 C   0  0  0  0  0  0  0  0  0  0  0  0
    5.4022    1.3046   17.8227 C   0  0  0  0  0  0  0  0  0  0  0  0
    6.5454    0.6527   17.5587 N   0  0  0  0  0  0  0  0  0  0  0  0
    7.1388    0.0057   18.5682 C   0  0  0  0  0  0  0  0  0  0  0  0
    6.6232   -0.0348   19.8790 C   0  0  0  0  0  0  0  0  0  0  0  0
    7.2967   -0.7117   20.9364 N   0  0  0  0  0  0  0  0  0  0  0  0
    6.6343   -1.5919   21.7343 N   0  0  0  0  0  0  0  0  0  0  0  0
    7.5662   -1.9922   22.5713 C   0  0  0  0  0  0  0  0  0  0  0  0
    7.3495   -2.9932   23.6750 C   0  0  0  0  0  0  0  0  0  0  0  0
    8.2023   -4.2767   23.4754 C   0  0  0  0  0  0  0  0  0  0  0  0
    8.0556   -5.2101   24.6801 C   0  0  0  0  0  0  0  0  0  0  0  0
    8.3716   -4.5626   25.8988 O   0  0  0  0  0  0  0  0  0  0  0  0
    7.5694   -3.4267   26.1635 C   0  0  0  0  0  0  0  0  0  0  0  0
    7.6807   -2.3751   25.0601 C   0  0  0  0  0  0  0  0  0  0  0  0
    8.7052   -1.9814   25.0322 H   0  0  0  0  0  0  0  0  0  0  0  0
    7.0128   -1.5339   25.2858 H   0  0  0  0  0  0  0  0  0  0  0  0
    6.5114   -3.7202   26.2851 H   0  0  0  0  0  0  0  0  0  0  0  0
    7.9174   -3.0362   27.1235 H   0  0  0  0  0  0  0  0  0  0  0  0
    7.0264   -5.6105   24.7129 H   0  0  0  0  0  0  0  0  0  0  0  0
    8.7389   -6.0610   24.6140 H   0  0  0  0  0  0  0  0  0  0  0  0
    9.2559   -3.9883   23.3652 H   0  0  0  0  0  0  0  0  0  0  0  0
    7.9094   -4.8125   22.5633 H   0  0  0  0  0  0  0  0  0  0  0  0
    6.2856   -3.2601   23.6423 H   0  0  0  0  0  0  0  0  0  0  0  0
    8.7840   -1.4165   22.3863 N   0  0  0  0  0  0  0  0  0  0  0  0
    8.5855   -0.6017   21.3772 C   0  0  0  0  0  0  0  0  0  0  0  0
    9.6167    0.2606   20.7349 C   0  0  0  0  0  0  0  0  0  0  0  0
   10.6501    0.7948   21.7246 C   0  0  0  0  0  0  0  0  0  0  0  0
   11.4663    2.0092   21.2568 C   0  0  0  0  0  0  0  0  0  0  0  0
   12.5237    2.3725   22.3114 C   0  0  0  0  0  0  0  0  0  0  0  0
   13.3856    1.1370   22.6034 C   0  0  0  0  0  0  0  0  0  0  0  0
   12.4846   -0.0376   22.9834 C   0  0  0  0  0  0  0  0  0  0  0  0
   11.5218   -0.3015   21.9821 O   0  0  0  0  0  0  0  0  0  0  0  0
   13.0593   -0.9584   23.0707 H   0  0  0  0  0  0  0  0  0  0  0  0
   11.9931    0.1623   23.9533 H   0  0  0  0  0  0  0  0  0  0  0  0
   14.1210    1.3309   23.3904 H   0  0  0  0  0  0  0  0  0  0  0  0
   13.9537    0.8292   21.7220 H   0  0  0  0  0  0  0  0  0  0  0  0
   13.1373    3.2192   21.9804 H   0  0  0  0  0  0  0  0  0  0  0  0
   12.0244    2.6871   23.2414 H   0  0  0  0  0  0  0  0  0  0  0  0
   11.9681    1.7656   20.3215 H   0  0  0  0  0  0  0  0  0  0  0  0
   10.8034    2.8486   21.0352 H   0  0  0  0  0  0  0  0  0  0  0  0
   10.1378    1.0984   22.6543 H   0  0  0  0  0  0  0  0  0  0  0  0
    9.1217    1.0598   20.1799 H   0  0  0  0  0  0  0  0  0  0  0  0
   10.1363   -0.3942   20.0331 H   0  0  0  0  0  0  0  0  0  0  0  0
    5.4160    0.6221   20.1357 C   0  0  0  0  0  0  0  0  0  0  0  0
    4.9951    0.5871   21.1422 H   0  0  0  0  0  0  0  0  0  0  0  0
    8.0807   -0.4879   18.3274 H   0  0  0  0  0  0  0  0  0  0  0  0
    4.9484    1.8361   16.9904 H   0  0  0  0  0  0  0  0  0  0  0  0
    3.8780    1.8559   19.2420 H   0  0  0  0  0  0  0  0  0  0  0  0
  1  2  2  0
  2  3  1  0
  3  4  2  0
  4  5  1  0
  5  6  1  0
  6  7  1  0
  7  8  2  0
  8  9  1  0
  9 10  1  0
 10 11  1  0
 11 12  1  0
 12 13  1  0
 13 14  1  0
 14 15  1  0
 14 16  1  0
 13 17  1  0
 13 18  1  0
 11 19  1  0
 11 20  1  0
 10 21  1  0
 10 22  1  0
  9 23  1  0
  8 24  1  0
 24 25  2  0
 25 26  1  0
 26 27  1  0
 27 28  1  0
 28 29  1  0
 29 30  1  0
 30 31  1  0
 31 32  1  0
 31 33  1  0
 31 34  1  0
 30 35  1  0
 30 36  1  0
 29 37  1  0
 29 38  1  0
 28 39  1  0
 28 40  1  0
 27 41  1  0
 26 42  1  0
 26 43  1  0
  5 44  2  0
 44 45  1  0
  4 46  1  0
  2 47  1  0
  1 48  1  0
 44  1  1  0
 25  6  1  0
 32 27  1  0
 14  9  1  0
M  END
>  <cnnaffinity>  (1) 
-6.01623

>  <filename>  (1) 
c1cncc(-n2nc(C3CCOCC3)nc2CC2CCCCO2)c1

$$$$
