
     RDKit          3D

 33 36  0  0  0  0  0  0  0  0999 V2000
    4.9344    1.5972   16.9465 H   0  0  0  0  0  0  0  0  0  0  0  0
    5.4009    1.2305   17.8591 C   0  0  0  0  0  0  0  0  0  0  0  0
    6.5967    0.6575   17.7000 N   0  0  0  0  0  0  0  0  0  0  0  0
    7.2355    0.2519   18.8260 C   0  0  0  0  0  0  0  0  0  0  0  0
    8.1278   -0.3559   18.6130 H   0  0  0  0  0  0  0  0  0  0  0  0
    6.5359    0.0701   20.0672 C   0  0  0  0  0  0  0  0  0  0  0  0
    7.2417   -0.7154   21.0887 C   0  0  0  0  0  0  0  0  0  0  0  0
    8.0807   -1.6711   20.7768 N   0  0  0  0  0  0  0  0  0  0  0  0
    8.5731   -2.1548   21.9605 C   0  0  0  0  0  0  0  0  0  0  0  0
    9.3480   -2.9135   21.9574 H   0  0  0  0  0  0  0  0  0  0  0  0
    8.0244   -1.4802   23.0152 C   0  0  0  0  0  0  0  0  0  0  0  0
    8.2090   -1.5054   24.0764 H   0  0  0  0  0  0  0  0  0  0  0  0
    7.1545   -0.5443   22.4674 N   0  0  0  0  0  0  0  0  0  0  0  0
    6.7214    0.6306   23.1579 C   0  0  0  0  0  0  0  0  0  0  0  0
    5.8009    0.5895   24.1893 C   0  0  0  0  0  0  0  0  0  0  0  0
    5.4440   -0.3667   24.5693 H   0  0  0  0  0  0  0  0  0  0  0  0
    5.2620    1.7076   24.7527 N   0  0  0  0  0  0  0  0  0  0  0  0
    5.6538    2.8860   24.3082 C   0  0  0  0  0  0  0  0  0  0  0  0
    5.1747    3.7706   24.7336 H   0  0  0  0  0  0  0  0  0  0  0  0
    6.6576    3.0574   23.2897 C   0  0  0  0  0  0  0  0  0  0  0  0
    7.0729    4.3240   22.7784 C   0  0  0  0  0  0  0  0  0  0  0  0
    6.5571    5.2232   23.0954 H   0  0  0  0  0  0  0  0  0  0  0  0
    8.1451    4.4282   21.8898 C   0  0  0  0  0  0  0  0  0  0  0  0
    8.4269    5.4127   21.5238 H   0  0  0  0  0  0  0  0  0  0  0  0
    8.7475    3.2482   21.5440 C   0  0  0  0  0  0  0  0  0  0  0  0
    8.1460    1.5888   19.3710 H   0  0  0  0  0  0  0  0  0  0  0  0
    8.4429    2.0063   21.8856 C   0  0  0  0  0  0  0  0  0  0  0  0
    8.9554    1.1096   21.5660 H   0  0  0  0  0  0  0  0  0  0  0  0
    7.2768    1.8868   22.7802 C   0  0  0  0  0  0  0  0  0  0  0  0
    5.3155    0.7225   20.2215 C   0  0  0  0  0  0  0  0  0  0  0  0
    4.8040    0.7492   21.1863 H   0  0  0  0  0  0  0  0  0  0  0  0
    4.7445    1.3273   19.0956 C   0  0  0  0  0  0  0  0  0  0  0  0
    3.7986    1.8548   19.1462 H   0  0  0  0  0  0  0  0  0  0  0  0
  1  2  1  0
  2  3  2  0
  3  4  1  0
  4  5  1  0
  4  6  2  0
  6  7  1  0
  7  8  2  0
  8  9  1  0
  9 10  1  0
  9 11  2  0
 11 12  1  0
 11 13  1  0
 13 14  1  0
 14 15  2  0
 15 16  1  0
 15 17  1  0
 17 18  2  0
 18 19  1  0
 18 20  1  0
 20 21  2  0
 21 22  1  0
 21 23  1  0
 23 24  1  0
 23 25  2  0
 25 26  1  0
 25 27  1  0
 27 28  1  0
 27 29  2  0
  6 30  1  0
 30 31  1  0
 30 32  2  0
 32 33  1  0
 32  2  1  0
 13  7  1  0
 29 14  1  0
 29 20  1  0
M  END
>  <cnnaffinity>  (1) 
-4.97143

>  <filename>  (1) 
c1cncc(-c2nccn2-c2cncc3ccccc23)c1

$$$$
