
     RDKit          3D

 35 39  0  0  0  0  0  0  0  0999 V2000
    4.9585    1.8094   16.9492 H   0  0  0  0  0  0  0  0  0  0  0  0
    5.4272    1.3007   17.7859 C   0  0  0  0  0  0  0  0  0  0  0  0
    6.5870    0.6791   17.5254 N   0  0  0  0  0  0  0  0  0  0  0  0
    7.1933    0.0526   18.5395 C   0  0  0  0  0  0  0  0  0  0  0  0
    8.1407   -0.4311   18.3063 H   0  0  0  0  0  0  0  0  0  0  0  0
    6.6759    0.0032   19.8469 C   0  0  0  0  0  0  0  0  0  0  0  0
    7.3982   -0.7009   20.9239 C   0  0  0  0  0  0  0  0  0  0  0  0
    8.5985   -1.2757   20.7271 N   0  0  0  0  0  0  0  0  0  0  0  0
    8.8876   -1.7796   21.9475 N   0  0  0  0  0  0  0  0  0  0  0  0
    9.9572   -2.4618   22.5040 C   0  0  0  0  0  0  0  0  0  0  0  0
   10.8206   -2.6808   21.9012 H   0  0  0  0  0  0  0  0  0  0  0  0
    9.6248   -2.6916   23.8019 C   0  0  0  0  0  0  0  0  0  0  0  0
   10.1902   -3.1590   24.5946 H   0  0  0  0  0  0  0  0  0  0  0  0
    8.3603   -2.1451   24.0531 N   0  0  0  0  0  0  0  0  0  0  0  0
    7.5881   -2.1267   25.2318 C   0  0  0  0  0  0  0  0  0  0  0  0
    6.9271   -1.0276   25.6682 C   0  0  0  0  0  0  0  0  0  0  0  0
    6.9768   -0.0559   25.2007 H   0  0  0  0  0  0  0  0  0  0  0  0
    5.9641   -1.2896   27.0757 S   0  0  0  0  0  0  0  0  0  0  0  0
    6.4387   -2.9701   27.1180 C   0  0  0  0  0  0  0  0  0  0  0  0
    6.0539   -3.9444   28.0588 C   0  0  0  0  0  0  0  0  0  0  0  0
    5.2914   -3.7171   28.8004 H   0  0  0  0  0  0  0  0  0  0  0  0
    6.6729   -5.1893   28.0222 C   0  0  0  0  0  0  0  0  0  0  0  0
    6.4635   -5.9245   28.7983 H   0  0  0  0  0  0  0  0  0  0  0  0
    7.5748   -5.5067   26.9825 C   0  0  0  0  0  0  0  0  0  0  0  0
    8.0503   -6.4812   26.9636 H   0  0  0  0  0  0  0  0  0  0  0  0
    7.8644   -4.5908   25.9812 C   0  0  0  0  0  0  0  0  0  0  0  0
    8.5071   -4.8536   25.1411 H   0  0  0  0  0  0  0  0  0  0  0  0
    7.3347   -3.2847   26.0677 C   0  0  0  0  0  0  0  0  0  0  0  0
    7.9289   -1.5654   22.8692 C   0  0  0  0  0  0  0  0  0  0  0  0
    6.9297   -0.8423   22.2506 C   0  0  0  0  0  0  0  0  0  0  0  0
    6.0222   -0.4537   22.6755 H   0  0  0  0  0  0  0  0  0  0  0  0
    5.4537    0.6584   20.0939 C   0  0  0  0  0  0  0  0  0  0  0  0
    5.0060    0.6793   21.0889 H   0  0  0  0  0  0  0  0  0  0  0  0
    4.8212    1.3132   19.0446 C   0  0  0  0  0  0  0  0  0  0  0  0
    3.8850    1.8397   19.1930 H   0  0  0  0  0  0  0  0  0  0  0  0
  1  2  1  0
  2  3  2  0
  3  4  1  0
  4  5  1  0
  4  6  2  0
  6  7  1  0
  7  8  2  0
  8  9  1  0
  9 10  1  0
 10 11  1  0
 10 12  2  0
 12 13  1  0
 12 14  1  0
 14 15  1  0
 15 16  2  0
 16 17  1  0
 16 18  1  0
 18 19  1  0
 19 20  2  0
 20 21  1  0
 20 22  1  0
 22 23  1  0
 22 24  2  0
 24 25  1  0
 24 26  1  0
 26 27  1  0
 26 28  2  0
 14 29  1  0
 29 30  2  0
 30 31  1  0
  6 32  1  0
 32 33  1  0
 32 34  2  0
 34 35  1  0
 34  2  1  0
 30  7  1  0
 29  9  1  0
 28 15  1  0
 28 19  1  0
M  END
>  <cnnaffinity>  (1) 
-5.88874

>  <filename>  (1) 
c1cncc(-c2cc3n(-c4csc5ccccc45)ccn3n2)c1

$$$$
