
     RDKit          3D

 39 42  0  0  0  0  0  0  0  0999 V2000
    4.8142    1.3077   19.1070 C   0  0  0  0  0  0  0  0  0  0  0  0
    5.4054    1.2962   17.8381 C   0  0  0  0  0  0  0  0  0  0  0  0
    6.5582    0.6640   17.5725 N   0  0  0  0  0  0  0  0  0  0  0  0
    7.1724    0.0401   18.5830 C   0  0  0  0  0  0  0  0  0  0  0  0
    6.6700    0.0049   19.8961 C   0  0  0  0  0  0  0  0  0  0  0  0
    7.3693   -0.6668   20.9390 N   0  0  0  0  0  0  0  0  0  0  0  0
    6.7476   -1.6196   21.6806 N   0  0  0  0  0  0  0  0  0  0  0  0
    7.6813   -1.9857   22.5359 C   0  0  0  0  0  0  0  0  0  0  0  0
    7.4445   -2.9680   23.6232 C   0  0  0  0  0  0  0  0  0  0  0  0
    6.2864   -2.7895   24.5732 C   0  0  0  0  0  0  0  0  0  0  0  0
    7.6929   -2.5868   25.0641 C   0  0  0  0  0  0  0  0  0  0  0  0
    8.1463   -3.3333   25.7135 H   0  0  0  0  0  0  0  0  0  0  0  0
    8.0367   -1.5704   25.2714 H   0  0  0  0  0  0  0  0  0  0  0  0
    5.6562   -1.9129   24.4253 H   0  0  0  0  0  0  0  0  0  0  0  0
    5.7325   -3.6756   24.8777 H   0  0  0  0  0  0  0  0  0  0  0  0
    7.7114   -3.9810   23.3241 H   0  0  0  0  0  0  0  0  0  0  0  0
    8.8778   -1.3531   22.3830 N   0  0  0  0  0  0  0  0  0  0  0  0
    8.6405   -0.4984   21.4116 C   0  0  0  0  0  0  0  0  0  0  0  0
    9.5351    0.6008   20.9481 C   0  0  0  0  0  0  0  0  0  0  0  0
    9.0544    2.0103   21.3522 C   0  0  0  0  0  0  0  0  0  0  0  0
    8.9187    2.2143   22.8784 C   0  0  0  0  0  0  0  0  0  0  0  0
   10.2203    2.0111   23.6002 C   0  0  0  0  0  0  0  0  0  0  0  0
   10.6313    0.9445   24.3351 C   0  0  0  0  0  0  0  0  0  0  0  0
   11.9555    0.9031   24.7106 N   0  0  0  0  0  0  0  0  0  0  0  0
   12.5579    1.9561   24.2582 C   0  0  0  0  0  0  0  0  0  0  0  0
   11.5647    3.0680   23.3841 S   0  0  0  0  0  0  0  0  0  0  0  0
   13.6282    2.1348   24.3645 H   0  0  0  0  0  0  0  0  0  0  0  0
    9.9758    0.1346   24.6161 H   0  0  0  0  0  0  0  0  0  0  0  0
    8.4957    3.2078   23.0770 H   0  0  0  0  0  0  0  0  0  0  0  0
    8.1951    1.4871   23.2685 H   0  0  0  0  0  0  0  0  0  0  0  0
    9.7594    2.7410   20.9438 H   0  0  0  0  0  0  0  0  0  0  0  0
    8.0890    2.2151   20.8765 H   0  0  0  0  0  0  0  0  0  0  0  0
   10.5386    0.4059   21.3438 H   0  0  0  0  0  0  0  0  0  0  0  0
    9.5948    0.5336   19.8606 H   0  0  0  0  0  0  0  0  0  0  0  0
    5.4484    0.6384   20.1578 C   0  0  0  0  0  0  0  0  0  0  0  0
    5.0239    0.5888   21.1596 H   0  0  0  0  0  0  0  0  0  0  0  0
    8.1093   -0.4642   18.3461 H   0  0  0  0  0  0  0  0  0  0  0  0
    4.9373    1.8099   17.0016 H   0  0  0  0  0  0  0  0  0  0  0  0
    3.8787    1.8367   19.2578 H   0  0  0  0  0  0  0  0  0  0  0  0
  1  2  2  0
  2  3  1  0
  3  4  2  0
  4  5  1  0
  5  6  1  0
  6  7  1  0
  7  8  2  0
  8  9  1  0
  9 10  1  0
 10 11  1  0
 11 12  1  0
 11 13  1  0
 10 14  1  0
 10 15  1  0
  9 16  1  0
  8 17  1  0
 17 18  2  0
 18 19  1  0
 19 20  1  0
 20 21  1  0
 21 22  1  0
 22 23  2  0
 23 24  1  0
 24 25  2  0
 25 26  1  0
 25 27  1  0
 23 28  1  0
 21 29  1  0
 21 30  1  0
 20 31  1  0
 20 32  1  0
 19 33  1  0
 19 34  1  0
  5 35  2  0
 35 36  1  0
  4 37  1  0
  2 38  1  0
  1 39  1  0
 35  1  1  0
 18  6  1  0
 26 22  1  0
 11  9  1  0
M  END
>  <cnnaffinity>  (1) 
-5.92975

>  <filename>  (1) 
c1cncc(-n2nc(C3CC3)nc2CCCc2cncs2)c1

$$$$
