
     RDKit          3D

 36 39  0  0  0  0  0  0  0  0999 V2000
    4.9641    1.7036   17.0749 H   0  0  0  0  0  0  0  0  0  0  0  0
    5.5174    1.2019   17.8659 C   0  0  0  0  0  0  0  0  0  0  0  0
    6.6678    0.6040   17.5092 N   0  0  0  0  0  0  0  0  0  0  0  0
    7.3762   -0.0055   18.4705 C   0  0  0  0  0  0  0  0  0  0  0  0
    8.2834   -0.5086   18.1304 H   0  0  0  0  0  0  0  0  0  0  0  0
    7.0099   -0.0429   19.8445 C   0  0  0  0  0  0  0  0  0  0  0  0
    7.8161   -0.6386   20.8155 N   0  0  0  0  0  0  0  0  0  0  0  0
    8.4360   -1.3765   20.5189 H   0  0  0  0  0  0  0  0  0  0  0  0
    7.7352   -0.4439   22.2604 C   0  0  0  0  0  0  0  0  0  0  0  0
    7.8258    1.0133   22.6632 C   0  0  0  0  0  0  0  0  0  0  0  0
    6.8398    1.8014   23.1552 C   0  0  0  0  0  0  0  0  0  0  0  0
    5.8226    1.5055   23.3930 H   0  0  0  0  0  0  0  0  0  0  0  0
    7.3192    3.4523   23.4027 S   0  0  0  0  0  0  0  0  0  0  0  0
    8.9399    3.1059   22.8581 C   0  0  0  0  0  0  0  0  0  0  0  0
   10.0399    3.9835   22.7873 C   0  0  0  0  0  0  0  0  0  0  0  0
    9.9385    5.0291   23.0552 H   0  0  0  0  0  0  0  0  0  0  0  0
   11.2550    3.4984   22.3118 C   0  0  0  0  0  0  0  0  0  0  0  0
   12.1062    4.1646   22.2301 H   0  0  0  0  0  0  0  0  0  0  0  0
   11.3772    2.1621   21.8751 C   0  0  0  0  0  0  0  0  0  0  0  0
   12.3225    1.8116   21.4767 H   0  0  0  0  0  0  0  0  0  0  0  0
   10.2950    1.3040   21.9385 C   0  0  0  0  0  0  0  0  0  0  0  0
   10.3895    0.2843   21.5781 H   0  0  0  0  0  0  0  0  0  0  0  0
    9.0600    1.7605   22.4613 C   0  0  0  0  0  0  0  0  0  0  0  0
    8.7958   -1.3494   22.9477 C   0  0  0  0  0  0  0  0  0  0  0  0
    9.4146   -0.7963   23.6489 H   0  0  0  0  0  0  0  0  0  0  0  0
    9.4438   -1.8716   22.2435 H   0  0  0  0  0  0  0  0  0  0  0  0
    7.7110   -2.2179   23.6118 C   0  0  0  0  0  0  0  0  0  0  0  0
    7.6997   -2.2028   24.7066 H   0  0  0  0  0  0  0  0  0  0  0  0
    7.7104   -3.2695   23.2994 H   0  0  0  0  0  0  0  0  0  0  0  0
    6.6359   -1.3047   22.9667 C   0  0  0  0  0  0  0  0  0  0  0  0
    5.9692   -1.7950   22.2501 H   0  0  0  0  0  0  0  0  0  0  0  0
    6.0673   -0.7485   23.7129 H   0  0  0  0  0  0  0  0  0  0  0  0
    5.7795    0.5454   20.1719 C   0  0  0  0  0  0  0  0  0  0  0  0
    5.4319    0.4828   21.2004 H   0  0  0  0  0  0  0  0  0  0  0  0
    5.0286    1.1722   19.1740 C   0  0  0  0  0  0  0  0  0  0  0  0
    4.0736    1.6303   19.4051 H   0  0  0  0  0  0  0  0  0  0  0  0
  1  2  1  0
  2  3  2  0
  3  4  1  0
  4  5  1  0
  4  6  2  0
  6  7  1  0
  7  8  1  0
  7  9  1  0
  9 10  1  0
 10 11  2  0
 11 12  1  0
 11 13  1  0
 13 14  1  0
 14 15  2  0
 15 16  1  0
 15 17  1  0
 17 18  1  0
 17 19  2  0
 19 20  1  0
 19 21  1  0
 21 22  1  0
 21 23  2  0
  9 24  1  0
 24 25  1  0
 24 26  1  0
 24 27  1  0
 27 28  1  0
 27 29  1  0
 27 30  1  0
 30 31  1  0
 30 32  1  0
  6 33  1  0
 33 34  1  0
 33 35  2  0
 35 36  1  0
 35  2  1  0
 30  9  1  0
 23 10  1  0
 23 14  1  0
M  END
>  <cnnaffinity>  (1) 
-5.44535

>  <filename>  (1) 
c1cncc(NC2(c3csc4ccccc34)CCC2)c1

$$$$
