
     RDKit          3D

 40 43  0  0  0  0  0  0  0  0999 V2000
    4.7839    1.3409   19.0090 C   0  0  0  0  0  0  0  0  0  0  0  0
    5.4142    1.3126   17.7614 C   0  0  0  0  0  0  0  0  0  0  0  0
    6.5584    0.6418   17.5342 N   0  0  0  0  0  0  0  0  0  0  0  0
    7.1234    0.0004   18.5621 C   0  0  0  0  0  0  0  0  0  0  0  0
    6.5953    0.0254   19.8659 C   0  0  0  0  0  0  0  0  0  0  0  0
    7.2777   -0.6122   20.9311 N   0  0  0  0  0  0  0  0  0  0  0  0
    7.7976   -1.8627   20.7961 N   0  0  0  0  0  0  0  0  0  0  0  0
    8.2053   -2.1367   22.0200 C   0  0  0  0  0  0  0  0  0  0  0  0
    8.9936   -3.3365   22.3687 C   0  0  0  0  0  0  0  0  0  0  0  0
    8.5641   -4.2129   23.5774 C   0  0  0  0  0  0  0  0  0  0  0  0
    9.9452   -4.0071   24.2252 C   0  0  0  0  0  0  0  0  0  0  0  0
   10.3353   -3.0213   23.1090 C   0  0  0  0  0  0  0  0  0  0  0  0
   10.3525   -1.9848   23.4701 H   0  0  0  0  0  0  0  0  0  0  0  0
   11.2531   -3.2140   22.5533 H   0  0  0  0  0  0  0  0  0  0  0  0
    9.9084   -3.5611   25.2195 H   0  0  0  0  0  0  0  0  0  0  0  0
   10.5629   -4.9067   24.2832 H   0  0  0  0  0  0  0  0  0  0  0  0
    7.7363   -3.7806   24.1387 H   0  0  0  0  0  0  0  0  0  0  0  0
    8.3054   -5.2493   23.3543 H   0  0  0  0  0  0  0  0  0  0  0  0
    9.0360   -3.8986   21.4409 H   0  0  0  0  0  0  0  0  0  0  0  0
    7.9915   -1.1615   22.9329 N   0  0  0  0  0  0  0  0  0  0  0  0
    7.4674   -0.1928   22.2188 C   0  0  0  0  0  0  0  0  0  0  0  0
    7.2302    1.1593   22.7859 C   0  0  0  0  0  0  0  0  0  0  0  0
    8.3204    1.5900   23.7895 C   0  0  0  0  0  0  0  0  0  0  0  0
    8.0136    2.9424   24.3468 C   0  0  0  0  0  0  0  0  0  0  0  0
    8.3478    4.1517   23.7824 C   0  0  0  0  0  0  0  0  0  0  0  0
    7.7385    5.1076   24.5226 N   0  0  0  0  0  0  0  0  0  0  0  0
    7.0283    4.6072   25.5435 N   0  0  0  0  0  0  0  0  0  0  0  0
    7.1929    3.2918   25.4457 C   0  0  0  0  0  0  0  0  0  0  0  0
    6.7130    2.6239   26.1518 H   0  0  0  0  0  0  0  0  0  0  0  0
    7.7508    6.1059   24.3655 H   0  0  0  0  0  0  0  0  0  0  0  0
    8.9495    4.3736   22.9097 H   0  0  0  0  0  0  0  0  0  0  0  0
    8.3985    0.8410   24.5885 H   0  0  0  0  0  0  0  0  0  0  0  0
    9.3005    1.6170   23.2924 H   0  0  0  0  0  0  0  0  0  0  0  0
    6.2697    1.1313   23.3107 H   0  0  0  0  0  0  0  0  0  0  0  0
    7.1371    1.9053   21.9911 H   0  0  0  0  0  0  0  0  0  0  0  0
    5.3822    0.6889   20.0891 C   0  0  0  0  0  0  0  0  0  0  0  0
    4.9164    0.6837   21.0751 H   0  0  0  0  0  0  0  0  0  0  0  0
    8.0376   -0.5514   18.3587 H   0  0  0  0  0  0  0  0  0  0  0  0
    4.9862    1.8457   16.9140 H   0  0  0  0  0  0  0  0  0  0  0  0
    3.8515    1.8791   19.1317 H   0  0  0  0  0  0  0  0  0  0  0  0
  1  2  2  0
  2  3  1  0
  3  4  2  0
  4  5  1  0
  5  6  1  0
  6  7  1  0
  7  8  2  0
  8  9  1  0
  9 10  1  0
 10 11  1  0
 11 12  1  0
 12 13  1  0
 12 14  1  0
 11 15  1  0
 11 16  1  0
 10 17  1  0
 10 18  1  0
  9 19  1  0
  8 20  1  0
 20 21  2  0
 21 22  1  0
 22 23  1  0
 23 24  1  0
 24 25  2  0
 25 26  1  0
 26 27  1  0
 27 28  2  0
 28 29  1  0
 26 30  1  0
 25 31  1  0
 23 32  1  0
 23 33  1  0
 22 34  1  0
 22 35  1  0
  5 36  2  0
 36 37  1  0
  4 38  1  0
  2 39  1  0
  1 40  1  0
 36  1  1  0
 21  6  1  0
 28 24  1  0
 12  9  1  0
M  END
>  <cnnaffinity>  (1) 
-5.99007

>  <filename>  (1) 
c1cncc(-n2nc(C3CCC3)nc2CCc2cn[nH]c2)c1

$$$$
