
     RDKit          3D

 36 39  0  0  0  0  0  0  0  0999 V2000
    4.9839    1.7753   16.9971 H   0  0  0  0  0  0  0  0  0  0  0  0
    5.4307    1.2981   17.8666 C   0  0  0  0  0  0  0  0  0  0  0  0
    6.5808    0.6421   17.6439 N   0  0  0  0  0  0  0  0  0  0  0  0
    7.1510    0.0398   18.6870 C   0  0  0  0  0  0  0  0  0  0  0  0
    8.0598   -0.5278   18.4901 H   0  0  0  0  0  0  0  0  0  0  0  0
    6.6431    0.0909   19.9951 C   0  0  0  0  0  0  0  0  0  0  0  0
    7.4115   -0.6300   21.0146 C   0  0  0  0  0  0  0  0  0  0  0  0
    8.0130   -1.7735   20.7977 N   0  0  0  0  0  0  0  0  0  0  0  0
    8.6331   -2.1566   21.9552 N   0  0  0  0  0  0  0  0  0  0  0  0
    8.4116   -1.2165   22.8314 C   0  0  0  0  0  0  0  0  0  0  0  0
    8.7804   -1.2134   23.8478 H   0  0  0  0  0  0  0  0  0  0  0  0
    7.6496   -0.2113   22.2991 N   0  0  0  0  0  0  0  0  0  0  0  0
    7.3288    1.0492   22.9641 C   0  0  0  0  0  0  0  0  0  0  0  0
    8.2496    1.4558   23.4020 H   0  0  0  0  0  0  0  0  0  0  0  0
    6.9924    1.7649   22.2062 H   0  0  0  0  0  0  0  0  0  0  0  0
    6.2845    0.9793   24.0629 C   0  0  0  0  0  0  0  0  0  0  0  0
    5.8324   -0.2165   24.5755 C   0  0  0  0  0  0  0  0  0  0  0  0
    6.3046   -1.1383   24.2534 H   0  0  0  0  0  0  0  0  0  0  0  0
    4.7048   -0.2756   25.4428 C   0  0  0  0  0  0  0  0  0  0  0  0
    4.3171   -1.2408   25.7616 H   0  0  0  0  0  0  0  0  0  0  0  0
    4.0602    0.8774   25.8146 C   0  0  0  0  0  0  0  0  0  0  0  0
    3.1425    0.8441   26.4001 H   0  0  0  0  0  0  0  0  0  0  0  0
    4.5989    2.1526   25.4428 C   0  0  0  0  0  0  0  0  0  0  0  0
    4.0373    3.3662   25.9355 C   0  0  0  0  0  0  0  0  0  0  0  0
    3.1095    3.2939   26.4954 H   0  0  0  0  0  0  0  0  0  0  0  0
    4.6468    4.5785   25.7136 C   0  0  0  0  0  0  0  0  0  0  0  0
    4.2392    5.4859   26.1580 H   0  0  0  0  0  0  0  0  0  0  0  0
    5.8363    4.6442   24.9416 C   0  0  0  0  0  0  0  0  0  0  0  0
    6.3191    5.6071   24.7829 H   0  0  0  0  0  0  0  0  0  0  0  0
    6.3726    3.4963   24.3926 C   0  0  0  0  0  0  0  0  0  0  0  0
    7.2723    3.5629   23.7844 H   0  0  0  0  0  0  0  0  0  0  0  0
    5.7649    2.2143   24.6103 C   0  0  0  0  0  0  0  0  0  0  0  0
    5.4316    0.7607   20.2128 C   0  0  0  0  0  0  0  0  0  0  0  0
    4.9889    0.7871   21.2122 H   0  0  0  0  0  0  0  0  0  0  0  0
    4.8087    1.3663   19.1191 C   0  0  0  0  0  0  0  0  0  0  0  0
    3.8668    1.8932   19.2237 H   0  0  0  0  0  0  0  0  0  0  0  0
  1  2  1  0
  2  3  2  0
  3  4  1  0
  4  5  1  0
  4  6  2  0
  6  7  1  0
  7  8  2  0
  8  9  1  0
  9 10  2  0
 10 11  1  0
 10 12  1  0
 12 13  1  0
 13 14  1  0
 13 15  1  0
 13 16  1  0
 16 17  2  0
 17 18  1  0
 17 19  1  0
 19 20  1  0
 19 21  2  0
 21 22  1  0
 21 23  1  0
 23 24  2  0
 24 25  1  0
 24 26  1  0
 26 27  1  0
 26 28  2  0
 28 29  1  0
 28 30  1  0
 30 31  1  0
 30 32  2  0
  6 33  1  0
 33 34  1  0
 33 35  2  0
 35 36  1  0
 35  2  1  0
 12  7  1  0
 32 16  1  0
 32 23  1  0
M  END
>  <cnnaffinity>  (1) 
-5.57429

>  <filename>  (1) 
c1cncc(-c2nncn2Cc2cccc3ccccc23)c1

$$$$
