
     RDKit          3D

 34 37  0  0  0  0  0  0  0  0999 V2000
    4.9361    1.8168   16.9838 H   0  0  0  0  0  0  0  0  0  0  0  0
    5.3959    1.3058   17.8275 C   0  0  0  0  0  0  0  0  0  0  0  0
    6.5543    0.6770   17.5767 N   0  0  0  0  0  0  0  0  0  0  0  0
    7.1515    0.0489   18.5913 C   0  0  0  0  0  0  0  0  0  0  0  0
    8.0911   -0.4475   18.3567 H   0  0  0  0  0  0  0  0  0  0  0  0
    6.6445    0.0164   19.8993 C   0  0  0  0  0  0  0  0  0  0  0  0
    7.4155   -0.7211   20.9151 C   0  0  0  0  0  0  0  0  0  0  0  0
    7.8123   -1.9616   20.8041 N   0  0  0  0  0  0  0  0  0  0  0  0
    8.4756   -2.3015   21.9548 N   0  0  0  0  0  0  0  0  0  0  0  0
    8.4812   -1.2442   22.7173 C   0  0  0  0  0  0  0  0  0  0  0  0
    8.9244   -1.1566   23.7004 H   0  0  0  0  0  0  0  0  0  0  0  0
    7.8290   -0.2013   22.1181 N   0  0  0  0  0  0  0  0  0  0  0  0
    7.7704    1.1863   22.5911 C   0  0  0  0  0  0  0  0  0  0  0  0
    6.8623    1.6377   22.1861 H   0  0  0  0  0  0  0  0  0  0  0  0
    8.6217    1.7482   22.1866 H   0  0  0  0  0  0  0  0  0  0  0  0
    7.7694    1.3128   24.0976 C   0  0  0  0  0  0  0  0  0  0  0  0
    8.8528    1.8249   24.7883 C   0  0  0  0  0  0  0  0  0  0  0  0
    9.7184    2.1856   24.2455 H   0  0  0  0  0  0  0  0  0  0  0  0
    8.8641    1.8993   26.1934 C   0  0  0  0  0  0  0  0  0  0  0  0
    9.7381    2.3368   26.6344 H   0  0  0  0  0  0  0  0  0  0  0  0
    7.8087    1.4403   26.9707 C   0  0  0  0  0  0  0  0  0  0  0  0
    7.8326    1.5066   28.0537 H   0  0  0  0  0  0  0  0  0  0  0  0
    6.7043    0.9047   26.2824 C   0  0  0  0  0  0  0  0  0  0  0  0
    6.6673    0.8906   24.8669 C   0  0  0  0  0  0  0  0  0  0  0  0
    5.3881    0.4090   24.4894 C   0  0  0  0  0  0  0  0  0  0  0  0
    5.0807    0.4314   23.4541 H   0  0  0  0  0  0  0  0  0  0  0  0
    4.7155    0.0655   25.6226 C   0  0  0  0  0  0  0  0  0  0  0  0
    3.7559   -0.4243   25.7495 H   0  0  0  0  0  0  0  0  0  0  0  0
    5.5102    0.3640   26.7110 N   0  0  0  0  0  0  0  0  0  0  0  0
    5.2076    0.2793   27.6664 H   0  0  0  0  0  0  0  0  0  0  0  0
    5.4211    0.6637   20.1421 C   0  0  0  0  0  0  0  0  0  0  0  0
    4.9670    0.6509   21.1355 H   0  0  0  0  0  0  0  0  0  0  0  0
    4.7847    1.3170   19.0847 C   0  0  0  0  0  0  0  0  0  0  0  0
    3.8512    1.8521   19.2260 H   0  0  0  0  0  0  0  0  0  0  0  0
  1  2  1  0
  2  3  2  0
  3  4  1  0
  4  5  1  0
  4  6  2  0
  6  7  1  0
  7  8  2  0
  8  9  1  0
  9 10  2  0
 10 11  1  0
 10 12  1  0
 12 13  1  0
 13 14  1  0
 13 15  1  0
 13 16  1  0
 16 17  2  0
 17 18  1  0
 17 19  1  0
 19 20  1  0
 19 21  2  0
 21 22  1  0
 21 23  1  0
 23 24  2  0
 24 25  1  0
 25 26  1  0
 25 27  2  0
 27 28  1  0
 27 29  1  0
 29 30  1  0
  6 31  1  0
 31 32  1  0
 31 33  2  0
 33 34  1  0
 33  2  1  0
 12  7  1  0
 24 16  1  0
 29 23  1  0
M  END
>  <cnnaffinity>  (1) 
-5.05082

>  <filename>  (1) 
c1cncc(-c2nncn2Cc2cccc3[nH]ccc23)c1

$$$$
