
     RDKit          3D

 28 31  0  0  0  0  0  0  0  0999 V2000
    4.9121    1.8173   16.9693 H   0  0  0  0  0  0  0  0  0  0  0  0
    5.3741    1.3067   17.8161 C   0  0  0  0  0  0  0  0  0  0  0  0
    6.5366    0.6860   17.5618 N   0  0  0  0  0  0  0  0  0  0  0  0
    7.1502    0.0782   18.5805 C   0  0  0  0  0  0  0  0  0  0  0  0
    8.1010   -0.3882   18.3292 H   0  0  0  0  0  0  0  0  0  0  0  0
    6.6617    0.0301   19.9075 C   0  0  0  0  0  0  0  0  0  0  0  0
    7.4184   -0.6702   20.9615 C   0  0  0  0  0  0  0  0  0  0  0  0
    8.3367   -1.6937   20.9001 C   0  0  0  0  0  0  0  0  0  0  0  0
    8.7568   -2.1082   20.0013 H   0  0  0  0  0  0  0  0  0  0  0  0
    8.7833   -2.1145   22.1201 N   0  0  0  0  0  0  0  0  0  0  0  0
    8.1658   -1.3102   22.9427 C   0  0  0  0  0  0  0  0  0  0  0  0
    8.2496   -0.9755   24.6296 S   0  0  0  0  0  0  0  0  0  0  0  0
    7.1403    0.3594   24.3156 C   0  0  0  0  0  0  0  0  0  0  0  0
    6.7003    1.2380   25.4046 C   0  0  0  0  0  0  0  0  0  0  0  0
    5.8052    2.2974   25.1377 C   0  0  0  0  0  0  0  0  0  0  0  0
    5.4160    2.5113   24.1430 H   0  0  0  0  0  0  0  0  0  0  0  0
    5.3715    3.1132   26.1015 N   0  0  0  0  0  0  0  0  0  0  0  0
    5.7821    2.9499   27.3652 N   0  0  0  0  0  0  0  0  0  0  0  0
    6.6343    1.9649   27.6750 C   0  0  0  0  0  0  0  0  0  0  0  0
    6.9174    1.9008   28.7209 H   0  0  0  0  0  0  0  0  0  0  0  0
    7.1325    1.0695   26.7224 C   0  0  0  0  0  0  0  0  0  0  0  0
    7.8272    0.2797   27.0113 H   0  0  0  0  0  0  0  0  0  0  0  0
    6.7479    0.5276   23.0939 N   0  0  0  0  0  0  0  0  0  0  0  0
    7.3272   -0.4269   22.3279 N   0  0  0  0  0  0  0  0  0  0  0  0
    5.4308    0.6711   20.1437 C   0  0  0  0  0  0  0  0  0  0  0  0
    5.0173    0.6651   21.1496 H   0  0  0  0  0  0  0  0  0  0  0  0
    4.7854    1.3171   19.0846 C   0  0  0  0  0  0  0  0  0  0  0  0
    3.8522    1.8521   19.2249 H   0  0  0  0  0  0  0  0  0  0  0  0
  1  2  1  0
  2  3  2  0
  3  4  1  0
  4  5  1  0
  4  6  2  0
  6  7  1  0
  7  8  2  0
  8  9  1  0
  8 10  1  0
 10 11  2  0
 11 12  1  0
 12 13  1  0
 13 14  1  0
 14 15  2  0
 15 16  1  0
 15 17  1  0
 17 18  2  0
 18 19  1  0
 19 20  1  0
 19 21  2  0
 21 22  1  0
 13 23  2  0
 23 24  1  0
  6 25  1  0
 25 26  1  0
 25 27  2  0
 27 28  1  0
 27  2  1  0
 24  7  1  0
 24 11  1  0
 21 14  1  0
M  END
>  <cnnaffinity>  (1) 
-5.12265

>  <filename>  (1) 
c1cncc(-c2cnc3sc(-c4ccnnc4)nn23)c1

$$$$
