
     RDKit          3D

 38 40  0  0  0  0  0  0  0  0999 V2000
    4.9070    1.7733   17.0041 H   0  0  0  0  0  0  0  0  0  0  0  0
    5.4000    1.2920   17.8463 C   0  0  0  0  0  0  0  0  0  0  0  0
    6.5708    0.6809   17.5898 N   0  0  0  0  0  0  0  0  0  0  0  0
    7.1829    0.0532   18.5968 C   0  0  0  0  0  0  0  0  0  0  0  0
    8.1318   -0.4410   18.3853 H   0  0  0  0  0  0  0  0  0  0  0  0
    6.6578    0.0052   19.8995 C   0  0  0  0  0  0  0  0  0  0  0  0
    7.3644   -0.6882   20.9274 N   0  0  0  0  0  0  0  0  0  0  0  0
    7.9005   -1.9123   20.7488 N   0  0  0  0  0  0  0  0  0  0  0  0
    8.4678   -2.2388   21.8478 N   0  0  0  0  0  0  0  0  0  0  0  0
    8.3412   -1.2565   22.7696 N   0  0  0  0  0  0  0  0  0  0  0  0
    7.6747   -0.2964   22.1868 C   0  0  0  0  0  0  0  0  0  0  0  0
    7.3241    1.0259   22.7881 C   0  0  0  0  0  0  0  0  0  0  0  0
    8.1395    1.3171   23.4668 H   0  0  0  0  0  0  0  0  0  0  0  0
    7.2637    1.7952   22.0122 H   0  0  0  0  0  0  0  0  0  0  0  0
    6.0794    0.9659   23.4572 O   0  0  0  0  0  0  0  0  0  0  0  0
    6.2073    0.5768   24.8212 C   0  0  0  0  0  0  0  0  0  0  0  0
    6.7950   -0.3554   24.8892 H   0  0  0  0  0  0  0  0  0  0  0  0
    6.7706    1.3625   25.3534 H   0  0  0  0  0  0  0  0  0  0  0  0
    4.8248    0.3746   25.4398 C   0  0  0  0  0  0  0  0  0  0  0  0
    4.3149   -0.3820   24.8418 H   0  0  0  0  0  0  0  0  0  0  0  0
    3.9706    1.6595   25.4204 C   0  0  0  0  0  0  0  0  0  0  0  0
    2.9259    1.3855   25.6220 H   0  0  0  0  0  0  0  0  0  0  0  0
    4.0027    2.1290   24.4307 H   0  0  0  0  0  0  0  0  0  0  0  0
    4.4090    2.6610   26.4969 C   0  0  0  0  0  0  0  0  0  0  0  0
    5.4052    3.0643   26.2605 H   0  0  0  0  0  0  0  0  0  0  0  0
    3.7292    3.5212   26.5062 H   0  0  0  0  0  0  0  0  0  0  0  0
    4.4530    2.0722   27.8402 N   0  0  0  0  0  0  0  0  0  0  0  0
    3.5100    1.7492   28.0638 H   0  0  0  0  0  0  0  0  0  0  0  0
    5.3388    0.9025   27.8872 C   0  0  0  0  0  0  0  0  0  0  0  0
    6.3703    1.2367   27.6989 H   0  0  0  0  0  0  0  0  0  0  0  0
    5.3342    0.4888   28.9026 H   0  0  0  0  0  0  0  0  0  0  0  0
    4.9394   -0.1807   26.8758 C   0  0  0  0  0  0  0  0  0  0  0  0
    5.6517   -1.0167   26.9151 H   0  0  0  0  0  0  0  0  0  0  0  0
    3.9611   -0.5816   27.1785 H   0  0  0  0  0  0  0  0  0  0  0  0
    5.4453    0.6489   20.1681 C   0  0  0  0  0  0  0  0  0  0  0  0
    5.0132    0.6285   21.1658 H   0  0  0  0  0  0  0  0  0  0  0  0
    4.8062    1.3095   19.1117 C   0  0  0  0  0  0  0  0  0  0  0  0
    3.8720    1.8448   19.2676 H   0  0  0  0  0  0  0  0  0  0  0  0
  1  2  1  0
  2  3  2  0
  3  4  1  0
  4  5  1  0
  4  6  2  0
  6  7  1  0
  7  8  1  0
  8  9  2  0
  9 10  1  0
 10 11  2  0
 11 12  1  0
 12 13  1  0
 12 14  1  0
 12 15  1  0
 15 16  1  0
 16 17  1  0
 16 18  1  0
 16 19  1  0
 19 20  1  0
 19 21  1  0
 21 22  1  0
 21 23  1  0
 21 24  1  0
 24 25  1  0
 24 26  1  0
 24 27  1  0
 27 28  1  0
 27 29  1  0
 29 30  1  0
 29 31  1  0
 29 32  1  0
 32 33  1  0
 32 34  1  0
  6 35  1  0
 35 36  1  0
 35 37  2  0
 37 38  1  0
 37  2  1  0
 11  7  1  0
 32 19  1  0
M  END
>  <cnnaffinity>  (1) 
-4.5996

>  <filename>  (1) 
c1cncc(-n2nnnc2COCC2CCNCC2)c1

$$$$
