
     RDKit          3D

 35 39  0  0  0  0  0  0  0  0999 V2000
    4.9133    1.8114   16.9704 H   0  0  0  0  0  0  0  0  0  0  0  0
    5.3781    1.3051   17.8170 C   0  0  0  0  0  0  0  0  0  0  0  0
    6.5407    0.6851   17.5607 N   0  0  0  0  0  0  0  0  0  0  0  0
    7.1497    0.0766   18.5824 C   0  0  0  0  0  0  0  0  0  0  0  0
    8.1010   -0.3908   18.3366 H   0  0  0  0  0  0  0  0  0  0  0  0
    6.6568    0.0312   19.9087 C   0  0  0  0  0  0  0  0  0  0  0  0
    7.4051   -0.6644   20.9703 C   0  0  0  0  0  0  0  0  0  0  0  0
    8.3154   -1.6958   20.9119 C   0  0  0  0  0  0  0  0  0  0  0  0
    8.7228   -2.1092   20.0100 H   0  0  0  0  0  0  0  0  0  0  0  0
    8.7691   -2.1089   22.1336 N   0  0  0  0  0  0  0  0  0  0  0  0
    8.1633   -1.2916   22.9537 C   0  0  0  0  0  0  0  0  0  0  0  0
    8.2424   -0.9463   24.6352 S   0  0  0  0  0  0  0  0  0  0  0  0
    7.1291    0.3893   24.3216 C   0  0  0  0  0  0  0  0  0  0  0  0
    6.6975    1.2567   25.4129 C   0  0  0  0  0  0  0  0  0  0  0  0
    5.7879    2.3305   25.1423 C   0  0  0  0  0  0  0  0  0  0  0  0
    5.4315    2.4942   24.1223 H   0  0  0  0  0  0  0  0  0  0  0  0
    5.3426    3.1504   26.0638 N   0  0  0  0  0  0  0  0  0  0  0  0
    5.7802    2.9678   27.3540 C   0  0  0  0  0  0  0  0  0  0  0  0
    5.3061    3.8542   28.3623 C   0  0  0  0  0  0  0  0  0  0  0  0
    4.6195    4.6260   28.0342 H   0  0  0  0  0  0  0  0  0  0  0  0
    5.7194    3.7042   29.6682 C   0  0  0  0  0  0  0  0  0  0  0  0
    5.3574    4.3757   30.4425 H   0  0  0  0  0  0  0  0  0  0  0  0
    6.6250    2.6645   30.0271 C   0  0  0  0  0  0  0  0  0  0  0  0
    6.9332    2.5580   31.0619 H   0  0  0  0  0  0  0  0  0  0  0  0
    7.1033    1.7943   29.0805 C   0  0  0  0  0  0  0  0  0  0  0  0
    7.7955    0.9943   29.3391 H   0  0  0  0  0  0  0  0  0  0  0  0
    6.6891    1.9288   27.7242 C   0  0  0  0  0  0  0  0  0  0  0  0
    7.1438    1.0645   26.7066 C   0  0  0  0  0  0  0  0  0  0  0  0
    7.8394    0.2638   26.9697 H   0  0  0  0  0  0  0  0  0  0  0  0
    6.7409    0.5441   23.0961 N   0  0  0  0  0  0  0  0  0  0  0  0
    7.3243   -0.4103   22.3371 N   0  0  0  0  0  0  0  0  0  0  0  0
    5.4263    0.6685   20.1470 C   0  0  0  0  0  0  0  0  0  0  0  0
    5.0181    0.6571   21.1565 H   0  0  0  0  0  0  0  0  0  0  0  0
    4.7882    1.3160   19.0849 C   0  0  0  0  0  0  0  0  0  0  0  0
    3.8580    1.8503   19.2303 H   0  0  0  0  0  0  0  0  0  0  0  0
  1  2  1  0
  2  3  2  0
  3  4  1  0
  4  5  1  0
  4  6  2  0
  6  7  1  0
  7  8  2  0
  8  9  1  0
  8 10  1  0
 10 11  2  0
 11 12  1  0
 12 13  1  0
 13 14  1  0
 14 15  2  0
 15 16  1  0
 15 17  1  0
 17 18  2  0
 18 19  1  0
 19 20  1  0
 19 21  2  0
 21 22  1  0
 21 23  1  0
 23 24  1  0
 23 25  2  0
 25 26  1  0
 25 27  1  0
 27 28  2  0
 28 29  1  0
 13 30  2  0
 30 31  1  0
  6 32  1  0
 32 33  1  0
 32 34  2  0
 34 35  1  0
 34  2  1  0
 31  7  1  0
 31 11  1  0
 28 14  1  0
 27 18  1  0
M  END
>  <cnnaffinity>  (1) 
-5.47543

>  <filename>  (1) 
c1cncc(-c2cnc3sc(-c4cnc5ccccc5c4)nn23)c1

$$$$
