
     RDKit          3D

 34 37  0  0  0  0  0  0  0  0999 V2000
    5.0258    1.7794   16.9582 H   0  0  0  0  0  0  0  0  0  0  0  0
    5.4658    1.2770   17.8183 C   0  0  0  0  0  0  0  0  0  0  0  0
    6.6131    0.6195   17.5915 N   0  0  0  0  0  0  0  0  0  0  0  0
    7.1844    0.0025   18.6307 C   0  0  0  0  0  0  0  0  0  0  0  0
    8.0914   -0.5561   18.4124 H   0  0  0  0  0  0  0  0  0  0  0  0
    6.6806    0.0437   19.9435 C   0  0  0  0  0  0  0  0  0  0  0  0
    7.4572   -0.6118   21.0235 C   0  0  0  0  0  0  0  0  0  0  0  0
    8.1349   -1.7078   20.6483 N   0  0  0  0  0  0  0  0  0  0  0  0
    8.7626   -2.4119   21.5918 C   0  0  0  0  0  0  0  0  0  0  0  0
    9.2576   -3.3176   21.2480 H   0  0  0  0  0  0  0  0  0  0  0  0
    8.8095   -2.0361   22.9329 C   0  0  0  0  0  0  0  0  0  0  0  0
    9.3084   -2.6825   23.6456 H   0  0  0  0  0  0  0  0  0  0  0  0
    8.1730   -0.8486   23.3352 C   0  0  0  0  0  0  0  0  0  0  0  0
    8.2102   -0.4108   24.7620 C   0  0  0  0  0  0  0  0  0  0  0  0
    9.4106   -0.4282   25.4927 C   0  0  0  0  0  0  0  0  0  0  0  0
   10.3320   -0.7156   25.0047 H   0  0  0  0  0  0  0  0  0  0  0  0
    9.4619   -0.0789   26.8560 C   0  0  0  0  0  0  0  0  0  0  0  0
   10.4138   -0.0901   27.3822 H   0  0  0  0  0  0  0  0  0  0  0  0
    8.3048    0.2660   27.5466 C   0  0  0  0  0  0  0  0  0  0  0  0
    8.3279    0.5642   28.5904 H   0  0  0  0  0  0  0  0  0  0  0  0
    7.0966    0.2510   26.8334 C   0  0  0  0  0  0  0  0  0  0  0  0
    7.0268   -0.0111   25.4440 C   0  0  0  0  0  0  0  0  0  0  0  0
    5.6435    0.1661   25.0786 C   0  0  0  0  0  0  0  0  0  0  0  0
    5.2487    0.1706   24.0753 H   0  0  0  0  0  0  0  0  0  0  0  0
    4.9419    0.4332   26.2144 C   0  0  0  0  0  0  0  0  0  0  0  0
    3.8684    0.5579   26.3369 H   0  0  0  0  0  0  0  0  0  0  0  0
    5.8161    0.4856   27.2762 N   0  0  0  0  0  0  0  0  0  0  0  0
    5.5989    0.7424   28.2243 H   0  0  0  0  0  0  0  0  0  0  0  0
    7.4907   -0.1293   22.3416 C   0  0  0  0  0  0  0  0  0  0  0  0
    6.9925    0.8023   22.5950 H   0  0  0  0  0  0  0  0  0  0  0  0
    5.4526    0.6917   20.1504 C   0  0  0  0  0  0  0  0  0  0  0  0
    4.9735    0.6922   21.1313 H   0  0  0  0  0  0  0  0  0  0  0  0
    4.8354    1.3160   19.0656 C   0  0  0  0  0  0  0  0  0  0  0  0
    3.8907    1.8387   19.1708 H   0  0  0  0  0  0  0  0  0  0  0  0
  1  2  1  0
  2  3  2  0
  3  4  1  0
  4  5  1  0
  4  6  2  0
  6  7  1  0
  7  8  2  0
  8  9  1  0
  9 10  1  0
  9 11  2  0
 11 12  1  0
 11 13  1  0
 13 14  1  0
 14 15  2  0
 15 16  1  0
 15 17  1  0
 17 18  1  0
 17 19  2  0
 19 20  1  0
 19 21  1  0
 21 22  2  0
 22 23  1  0
 23 24  1  0
 23 25  2  0
 25 26  1  0
 25 27  1  0
 27 28  1  0
 13 29  2  0
 29 30  1  0
  6 31  1  0
 31 32  1  0
 31 33  2  0
 33 34  1  0
 33  2  1  0
 29  7  1  0
 22 14  1  0
 27 21  1  0
M  END
>  <cnnaffinity>  (1) 
-5.31246

>  <filename>  (1) 
c1cncc(-c2cc(-c3cccc4[nH]ccc34)ccn2)c1

$$$$
