
     RDKit          3D

 40 43  0  0  0  0  0  0  0  0999 V2000
    4.8604    1.3870   19.0115 C   0  0  0  0  0  0  0  0  0  0  0  0
    5.4756    1.2559   17.7638 C   0  0  0  0  0  0  0  0  0  0  0  0
    6.6092    0.5574   17.5737 N   0  0  0  0  0  0  0  0  0  0  0  0
    7.1683   -0.0272   18.6372 C   0  0  0  0  0  0  0  0  0  0  0  0
    6.6483    0.0810   19.9394 C   0  0  0  0  0  0  0  0  0  0  0  0
    7.3326   -0.5423   21.0207 N   0  0  0  0  0  0  0  0  0  0  0  0
    7.6991   -1.8479   20.9382 N   0  0  0  0  0  0  0  0  0  0  0  0
    8.3282   -2.0487   22.0804 C   0  0  0  0  0  0  0  0  0  0  0  0
    8.9255   -3.3429   22.4818 C   0  0  0  0  0  0  0  0  0  0  0  0
    8.1963   -4.6390   22.2464 C   0  0  0  0  0  0  0  0  0  0  0  0
    8.4042   -4.1500   23.6491 C   0  0  0  0  0  0  0  0  0  0  0  0
    9.1545   -4.6484   24.2612 H   0  0  0  0  0  0  0  0  0  0  0  0
    7.5472   -3.7788   24.2059 H   0  0  0  0  0  0  0  0  0  0  0  0
    8.7507   -5.5088   21.9047 H   0  0  0  0  0  0  0  0  0  0  0  0
    7.1948   -4.5424   21.8287 H   0  0  0  0  0  0  0  0  0  0  0  0
   10.0094   -3.3110   22.3985 H   0  0  0  0  0  0  0  0  0  0  0  0
    8.4585   -0.9456   22.8635 N   0  0  0  0  0  0  0  0  0  0  0  0
    7.8021   -0.0201   22.1922 C   0  0  0  0  0  0  0  0  0  0  0  0
    7.6838    1.4082   22.6101 C   0  0  0  0  0  0  0  0  0  0  0  0
    8.7844    2.3168   22.0401 C   0  0  0  0  0  0  0  0  0  0  0  0
   10.1893    1.9949   22.5533 C   0  0  0  0  0  0  0  0  0  0  0  0
   11.1930    2.8774   21.9873 N   0  0  0  0  0  0  0  0  0  0  0  0
   11.8112    2.7789   20.7909 C   0  0  0  0  0  0  0  0  0  0  0  0
   12.6451    3.8676   20.6938 C   0  0  0  0  0  0  0  0  0  0  0  0
   12.4303    4.5915   21.8817 C   0  0  0  0  0  0  0  0  0  0  0  0
   11.5461    3.9838   22.6556 N   0  0  0  0  0  0  0  0  0  0  0  0
   12.8787    5.5305   22.1917 H   0  0  0  0  0  0  0  0  0  0  0  0
   13.3338    4.1042   19.9049 H   0  0  0  0  0  0  0  0  0  0  0  0
   11.5834    1.9793   20.0966 H   0  0  0  0  0  0  0  0  0  0  0  0
   10.2587    2.1320   23.6335 H   0  0  0  0  0  0  0  0  0  0  0  0
   10.4662    0.9608   22.3373 H   0  0  0  0  0  0  0  0  0  0  0  0
    8.5732    3.3583   22.2953 H   0  0  0  0  0  0  0  0  0  0  0  0
    8.7680    2.2501   20.9483 H   0  0  0  0  0  0  0  0  0  0  0  0
    6.7112    1.8001   22.3005 H   0  0  0  0  0  0  0  0  0  0  0  0
    7.7072    1.4199   23.7038 H   0  0  0  0  0  0  0  0  0  0  0  0
    5.4558    0.7902   20.1288 C   0  0  0  0  0  0  0  0  0  0  0  0
    5.0028    0.8524   21.1184 H   0  0  0  0  0  0  0  0  0  0  0  0
    8.0799   -0.5958   18.4634 H   0  0  0  0  0  0  0  0  0  0  0  0
    5.0452    1.7286   16.8834 H   0  0  0  0  0  0  0  0  0  0  0  0
    3.9475    1.9628   19.1115 H   0  0  0  0  0  0  0  0  0  0  0  0
  1  2  2  0
  2  3  1  0
  3  4  2  0
  4  5  1  0
  5  6  1  0
  6  7  1  0
  7  8  2  0
  8  9  1  0
  9 10  1  0
 10 11  1  0
 11 12  1  0
 11 13  1  0
 10 14  1  0
 10 15  1  0
  9 16  1  0
  8 17  1  0
 17 18  2  0
 18 19  1  0
 19 20  1  0
 20 21  1  0
 21 22  1  0
 22 23  1  0
 23 24  2  0
 24 25  1  0
 25 26  2  0
 25 27  1  0
 24 28  1  0
 23 29  1  0
 21 30  1  0
 21 31  1  0
 20 32  1  0
 20 33  1  0
 19 34  1  0
 19 35  1  0
  5 36  2  0
 36 37  1  0
  4 38  1  0
  2 39  1  0
  1 40  1  0
 36  1  1  0
 18  6  1  0
 26 22  1  0
 11  9  1  0
M  END
>  <cnnaffinity>  (1) 
-5.892

>  <filename>  (1) 
c1cncc(-n2nc(C3CC3)nc2CCCn2cccn2)c1

$$$$
