
     RDKit          3D

 48 50  0  0  0  0  0  0  0  0999 V2000
    4.9897    1.7337   16.9445 H   0  0  0  0  0  0  0  0  0  0  0  0
    5.4318    1.3114   17.8447 C   0  0  0  0  0  0  0  0  0  0  0  0
    6.6222    0.7175   17.6847 N   0  0  0  0  0  0  0  0  0  0  0  0
    7.2009    0.2061   18.7803 C   0  0  0  0  0  0  0  0  0  0  0  0
    8.1464   -0.3078   18.5988 H   0  0  0  0  0  0  0  0  0  0  0  0
    6.6602    0.2601   20.0821 C   0  0  0  0  0  0  0  0  0  0  0  0
    7.3773   -0.4455   21.2325 C   0  0  1  0  0  0  0  0  0  0  0  0
    6.8409   -0.2395   22.1748 H   0  0  0  0  0  0  0  0  0  0  0  0
    7.3387   -1.9574   20.9235 C   0  0  0  0  0  0  0  0  0  0  0  0
    6.3050   -2.2845   20.7662 H   0  0  0  0  0  0  0  0  0  0  0  0
    7.8384   -2.0404   19.9570 H   0  0  0  0  0  0  0  0  0  0  0  0
    8.0667   -2.8435   21.9355 C   0  0  0  0  0  0  0  0  0  0  0  0
    7.5251   -2.8268   22.8914 H   0  0  0  0  0  0  0  0  0  0  0  0
    8.0687   -3.8845   21.5868 H   0  0  0  0  0  0  0  0  0  0  0  0
    9.5045   -2.3606   22.1471 C   0  0  0  0  0  0  0  0  0  0  0  0
   10.0689   -2.5020   21.2145 H   0  0  0  0  0  0  0  0  0  0  0  0
   10.0200   -2.9611   22.9075 H   0  0  0  0  0  0  0  0  0  0  0  0
    9.5526   -0.8751   22.5093 C   0  0  0  0  0  0  0  0  0  0  0  0
    9.0798   -0.6957   23.4887 H   0  0  0  0  0  0  0  0  0  0  0  0
   10.5997   -0.5729   22.6197 H   0  0  0  0  0  0  0  0  0  0  0  0
    8.8551    0.0083   21.4491 C   0  0  2  0  0  0  0  0  0  0  0  0
    9.3845   -0.1468   20.4923 H   0  0  0  0  0  0  0  0  0  0  0  0
    8.9478    1.4943   21.8228 C   0  0  0  0  0  0  0  0  0  0  0  0
    8.5207    2.1119   21.0239 H   0  0  0  0  0  0  0  0  0  0  0  0
    8.3281    1.6592   22.7128 H   0  0  0  0  0  0  0  0  0  0  0  0
   10.3647    1.9991   22.1052 C   0  0  0  0  0  0  0  0  0  0  0  0
   10.8468    1.4322   22.9246 H   0  0  0  0  0  0  0  0  0  0  0  0
   10.9776    1.8264   21.2070 H   0  0  0  0  0  0  0  0  0  0  0  0
   10.4005    3.4227   22.3841 N   0  0  0  0  0  0  0  0  0  0  0  0
   11.7674    3.9321   22.4464 C   0  0  0  0  0  0  0  0  0  0  0  0
   12.2905    3.5067   23.3270 H   0  0  0  0  0  0  0  0  0  0  0  0
   12.3215    3.5697   21.5669 H   0  0  0  0  0  0  0  0  0  0  0  0
   11.8051    5.4652   22.5031 C   0  0  0  0  0  0  0  0  0  0  0  0
   12.8336    5.7909   22.7143 H   0  0  0  0  0  0  0  0  0  0  0  0
   11.5734    5.8385   21.5000 H   0  0  0  0  0  0  0  0  0  0  0  0
   10.8127    6.0639   23.5245 C   0  0  0  0  0  0  0  0  0  0  0  0
   10.6952    7.1382   23.3615 H   0  0  0  0  0  0  0  0  0  0  0  0
   11.1919    5.9299   24.5486 H   0  0  0  0  0  0  0  0  0  0  0  0
    9.4409    5.3823   23.4374 C   0  0  0  0  0  0  0  0  0  0  0  0
    8.7744    5.7490   24.2295 H   0  0  0  0  0  0  0  0  0  0  0  0
    8.9601    5.6087   22.4734 H   0  0  0  0  0  0  0  0  0  0  0  0
    9.6305    3.8704   23.5431 C   0  0  0  0  0  0  0  0  0  0  0  0
    8.6643    3.3671   23.5634 H   0  0  0  0  0  0  0  0  0  0  0  0
   10.1283    3.6184   24.5068 H   0  0  0  0  0  0  0  0  0  0  0  0
    5.3933    0.8548   20.2112 C   0  0  0  0  0  0  0  0  0  0  0  0
    4.8973    0.8879   21.1835 H   0  0  0  0  0  0  0  0  0  0  0  0
    4.7723    1.3939   19.0756 C   0  0  0  0  0  0  0  0  0  0  0  0
    3.8073    1.8843   19.1335 H   0  0  0  0  0  0  0  0  0  0  0  0
  1  2  1  0
  2  3  2  0
  3  4  1  0
  4  5  1  0
  4  6  2  0
  6  7  1  0
  7  8  1  1
  7  9  1  0
  9 10  1  0
  9 11  1  0
  9 12  1  0
 12 13  1  0
 12 14  1  0
 12 15  1  0
 15 16  1  0
 15 17  1  0
 15 18  1  0
 18 19  1  0
 18 20  1  0
 18 21  1  0
 21 22  1  6
 21 23  1  0
 23 24  1  0
 23 25  1  0
 23 26  1  0
 26 27  1  0
 26 28  1  0
 26 29  1  0
 29 30  1  0
 30 31  1  0
 30 32  1  0
 30 33  1  0
 33 34  1  0
 33 35  1  0
 33 36  1  0
 36 37  1  0
 36 38  1  0
 36 39  1  0
 39 40  1  0
 39 41  1  0
 39 42  1  0
 42 43  1  0
 42 44  1  0
  6 45  1  0
 45 46  1  0
 45 47  2  0
 47 48  1  0
 47  2  1  0
 21  7  1  0
 42 29  1  0
M  END
>  <cnnaffinity>  (1) 
-5.49382

>  <filename>  (1) 
c1cncc([C@H]2CCCC[C@@H]2CCN2CCCCC2)c1

$$$$
