
     RDKit          3D

 29 32  0  0  0  0  0  0  0  0999 V2000
    4.9970    1.8584   16.8935 H   0  0  0  0  0  0  0  0  0  0  0  0
    5.4193    1.2966   17.7265 C   0  0  0  0  0  0  0  0  0  0  0  0
    6.5614    0.6346   17.4826 N   0  0  0  0  0  0  0  0  0  0  0  0
    7.1333   -0.0051   18.5091 C   0  0  0  0  0  0  0  0  0  0  0  0
    8.0590   -0.5307   18.2882 H   0  0  0  0  0  0  0  0  0  0  0  0
    6.6084   -0.0243   19.8194 C   0  0  0  0  0  0  0  0  0  0  0  0
    7.3773   -0.6140   20.9349 C   0  0  0  0  0  0  0  0  0  0  0  0
    8.5088   -1.3030   20.7086 N   0  0  0  0  0  0  0  0  0  0  0  0
    8.9631   -1.5446   21.9538 N   0  0  0  0  0  0  0  0  0  0  0  0
   10.0676   -2.1996   22.4789 C   0  0  0  0  0  0  0  0  0  0  0  0
   10.7866   -2.6575   21.8309 H   0  0  0  0  0  0  0  0  0  0  0  0
    9.9849   -2.0790   23.8243 C   0  0  0  0  0  0  0  0  0  0  0  0
   10.6168   -2.4505   24.6156 H   0  0  0  0  0  0  0  0  0  0  0  0
    8.8486   -1.3293   24.1243 N   0  0  0  0  0  0  0  0  0  0  0  0
    8.4569   -0.8909   25.3735 N   0  0  0  0  0  0  0  0  0  0  0  0
    7.1457   -0.7271   25.7497 C   0  0  0  0  0  0  0  0  0  0  0  0
    6.3396   -1.0472   25.1014 H   0  0  0  0  0  0  0  0  0  0  0  0
    7.0395   -0.1347   26.9051 N   0  0  0  0  0  0  0  0  0  0  0  0
    8.3319    0.1183   27.3030 C   0  0  0  0  0  0  0  0  0  0  0  0
    8.5326    0.6656   28.2145 H   0  0  0  0  0  0  0  0  0  0  0  0
    9.2296   -0.3425   26.3916 C   0  0  0  0  0  0  0  0  0  0  0  0
   10.3047   -0.3411   26.3873 H   0  0  0  0  0  0  0  0  0  0  0  0
    8.2046   -1.0246   22.9350 C   0  0  0  0  0  0  0  0  0  0  0  0
    7.1078   -0.4363   22.3127 C   0  0  0  0  0  0  0  0  0  0  0  0
    6.2290    0.0187   22.7328 H   0  0  0  0  0  0  0  0  0  0  0  0
    5.3783    0.6188   20.0373 C   0  0  0  0  0  0  0  0  0  0  0  0
    4.8980    0.6077   21.0210 H   0  0  0  0  0  0  0  0  0  0  0  0
    4.7856    1.2955   18.9754 C   0  0  0  0  0  0  0  0  0  0  0  0
    3.8711    1.8610   19.1148 H   0  0  0  0  0  0  0  0  0  0  0  0
  1  2  1  0
  2  3  2  0
  3  4  1  0
  4  5  1  0
  4  6  2  0
  6  7  1  0
  7  8  2  0
  8  9  1  0
  9 10  1  0
 10 11  1  0
 10 12  2  0
 12 13  1  0
 12 14  1  0
 14 15  1  0
 15 16  1  0
 16 17  1  0
 16 18  2  0
 18 19  1  0
 19 20  1  0
 19 21  2  0
 21 22  1  0
 14 23  1  0
 23 24  2  0
 24 25  1  0
  6 26  1  0
 26 27  1  0
 26 28  2  0
 28 29  1  0
 28  2  1  0
 24  7  1  0
 23  9  1  0
 21 15  1  0
M  END
>  <cnnaffinity>  (1) 
-5.13148

>  <filename>  (1) 
c1cncc(-c2cc3n(-n4ccnc4)ccn3n2)c1

$$$$
