
     RDKit          3D

 35 38  0  0  0  0  0  0  0  0999 V2000
    4.9233    1.7746   17.0036 H   0  0  0  0  0  0  0  0  0  0  0  0
    5.4067    1.2856   17.8475 C   0  0  0  0  0  0  0  0  0  0  0  0
    6.5680    0.6667   17.5877 N   0  0  0  0  0  0  0  0  0  0  0  0
    7.1891    0.0665   18.6071 C   0  0  0  0  0  0  0  0  0  0  0  0
    8.1302   -0.4224   18.3731 H   0  0  0  0  0  0  0  0  0  0  0  0
    6.6801    0.0178   19.9109 C   0  0  0  0  0  0  0  0  0  0  0  0
    7.4363   -0.7050   20.9534 C   0  0  0  0  0  0  0  0  0  0  0  0
    8.7754   -0.6859   20.8869 N   0  0  0  0  0  0  0  0  0  0  0  0
    9.4467   -1.3028   21.8688 C   0  0  0  0  0  0  0  0  0  0  0  0
   10.5293   -1.2692   21.8041 H   0  0  0  0  0  0  0  0  0  0  0  0
    8.8468   -2.0031   22.9143 C   0  0  0  0  0  0  0  0  0  0  0  0
    9.4420   -2.4977   23.6726 H   0  0  0  0  0  0  0  0  0  0  0  0
    7.4516   -2.0482   22.9739 C   0  0  0  0  0  0  0  0  0  0  0  0
    6.7572   -2.7964   24.0513 C   0  0  0  0  0  0  0  0  0  0  0  0
    6.9773   -4.1555   24.1697 C   0  0  0  0  0  0  0  0  0  0  0  0
    7.6763   -4.6368   23.4851 H   0  0  0  0  0  0  0  0  0  0  0  0
    6.2993   -4.9244   25.1443 C   0  0  0  0  0  0  0  0  0  0  0  0
    6.5015   -5.9919   25.2017 H   0  0  0  0  0  0  0  0  0  0  0  0
    5.4090   -4.3202   26.0063 C   0  0  0  0  0  0  0  0  0  0  0  0
    4.8753   -4.8790   26.7646 H   0  0  0  0  0  0  0  0  0  0  0  0
    5.1625   -2.9149   25.9390 C   0  0  0  0  0  0  0  0  0  0  0  0
    4.2654   -2.3695   26.8266 N   0  0  0  0  0  0  0  0  0  0  0  0
    4.0680   -1.0723   26.7652 C   0  0  0  0  0  0  0  0  0  0  0  0
    3.3592   -0.6489   27.4766 H   0  0  0  0  0  0  0  0  0  0  0  0
    4.7189   -0.1955   25.8488 C   0  0  0  0  0  0  0  0  0  0  0  0
    4.4974    0.8684   25.8594 H   0  0  0  0  0  0  0  0  0  0  0  0
    5.6234   -0.7186   24.9653 C   0  0  0  0  0  0  0  0  0  0  0  0
    6.1392   -0.0887   24.2353 H   0  0  0  0  0  0  0  0  0  0  0  0
    5.8597   -2.1330   24.9615 C   0  0  0  0  0  0  0  0  0  0  0  0
    6.7521   -1.3957   21.9577 C   0  0  0  0  0  0  0  0  0  0  0  0
    5.6745   -1.4425   21.9325 H   0  0  0  0  0  0  0  0  0  0  0  0
    5.4484    0.6470   20.1631 C   0  0  0  0  0  0  0  0  0  0  0  0
    5.0047    0.6404   21.1621 H   0  0  0  0  0  0  0  0  0  0  0  0
    4.8131    1.3068   19.1136 C   0  0  0  0  0  0  0  0  0  0  0  0
    3.8797    1.8378   19.2615 H   0  0  0  0  0  0  0  0  0  0  0  0
  1  2  1  0
  2  3  2  0
  3  4  1  0
  4  5  1  0
  4  6  2  0
  6  7  1  0
  7  8  2  0
  8  9  1  0
  9 10  1  0
  9 11  2  0
 11 12  1  0
 11 13  1  0
 13 14  1  0
 14 15  2  0
 15 16  1  0
 15 17  1  0
 17 18  1  0
 17 19  2  0
 19 20  1  0
 19 21  1  0
 21 22  2  0
 22 23  1  0
 23 24  1  0
 23 25  2  0
 25 26  1  0
 25 27  1  0
 27 28  1  0
 27 29  2  0
 13 30  2  0
 30 31  1  0
  6 32  1  0
 32 33  1  0
 32 34  2  0
 34 35  1  0
 34  2  1  0
 30  7  1  0
 29 14  1  0
 29 21  1  0
M  END
>  <cnnaffinity>  (1) 
-5.36416

>  <filename>  (1) 
c1cncc(-c2cc(-c3cccc4ncccc34)ccn2)c1

$$$$
