
     RDKit          3D

 40 43  0  0  0  0  0  0  0  0999 V2000
    4.8035    1.3678   19.0223 C   0  0  0  0  0  0  0  0  0  0  0  0
    5.4140    1.3100   17.7668 C   0  0  0  0  0  0  0  0  0  0  0  0
    6.5413    0.6135   17.5328 N   0  0  0  0  0  0  0  0  0  0  0  0
    7.1128   -0.0221   18.5625 C   0  0  0  0  0  0  0  0  0  0  0  0
    6.6230    0.0564   19.8795 C   0  0  0  0  0  0  0  0  0  0  0  0
    7.3292   -0.5673   20.9498 N   0  0  0  0  0  0  0  0  0  0  0  0
    7.6504   -1.8848   20.8716 N   0  0  0  0  0  0  0  0  0  0  0  0
    8.2378   -2.1255   22.0322 C   0  0  0  0  0  0  0  0  0  0  0  0
    8.7430   -3.4907   22.4287 C   0  0  0  0  0  0  0  0  0  0  0  0
    7.9555   -4.6709   21.8259 C   0  0  0  0  0  0  0  0  0  0  0  0
    8.3392   -5.8946   22.6631 C   0  0  0  0  0  0  0  0  0  0  0  0
    8.6814   -5.3464   24.0666 C   0  0  0  0  0  0  0  0  0  0  0  0
    8.7431   -3.8078   23.9362 C   0  0  0  0  0  0  0  0  0  0  0  0
    9.6201   -3.3914   24.4413 H   0  0  0  0  0  0  0  0  0  0  0  0
    7.8480   -3.3722   24.3846 H   0  0  0  0  0  0  0  0  0  0  0  0
    9.6274   -5.7576   24.4348 H   0  0  0  0  0  0  0  0  0  0  0  0
    7.9184   -5.6320   24.7999 H   0  0  0  0  0  0  0  0  0  0  0  0
    7.5305   -6.6336   22.6870 H   0  0  0  0  0  0  0  0  0  0  0  0
    9.1965   -6.4068   22.2168 H   0  0  0  0  0  0  0  0  0  0  0  0
    6.8839   -4.4719   21.9488 H   0  0  0  0  0  0  0  0  0  0  0  0
    8.1479   -4.8104   20.7593 H   0  0  0  0  0  0  0  0  0  0  0  0
    9.7861   -3.4895   22.1059 H   0  0  0  0  0  0  0  0  0  0  0  0
    8.3866   -1.0272   22.8185 N   0  0  0  0  0  0  0  0  0  0  0  0
    7.7938   -0.0655   22.1293 C   0  0  0  0  0  0  0  0  0  0  0  0
    7.6186    1.3376   22.6408 C   0  0  0  0  0  0  0  0  0  0  0  0
    6.4189    1.4657   23.5677 C   0  0  0  0  0  0  0  0  0  0  0  0
    6.2627    0.6869   24.6770 C   0  0  0  0  0  0  0  0  0  0  0  0
    4.8281    1.0468   25.5424 S   0  0  0  0  0  0  0  0  0  0  0  0
    4.4025    2.2597   24.4059 C   0  0  0  0  0  0  0  0  0  0  0  0
    5.3280    2.3694   23.4094 C   0  0  0  0  0  0  0  0  0  0  0  0
    5.2231    3.0512   22.5684 H   0  0  0  0  0  0  0  0  0  0  0  0
    3.4972    2.8308   24.5323 H   0  0  0  0  0  0  0  0  0  0  0  0
    6.9139   -0.1173   24.9902 H   0  0  0  0  0  0  0  0  0  0  0  0
    7.5606    2.0664   21.8236 H   0  0  0  0  0  0  0  0  0  0  0  0
    8.5341    1.5810   23.1951 H   0  0  0  0  0  0  0  0  0  0  0  0
    5.4238    0.7404   20.1074 C   0  0  0  0  0  0  0  0  0  0  0  0
    4.9933    0.7626   21.1085 H   0  0  0  0  0  0  0  0  0  0  0  0
    8.0027   -0.6098   18.3430 H   0  0  0  0  0  0  0  0  0  0  0  0
    4.9773    1.8375   16.9195 H   0  0  0  0  0  0  0  0  0  0  0  0
    3.8629    1.8933   19.1428 H   0  0  0  0  0  0  0  0  0  0  0  0
  1  2  2  0
  2  3  1  0
  3  4  2  0
  4  5  1  0
  5  6  1  0
  6  7  1  0
  7  8  2  0
  8  9  1  0
  9 10  1  0
 10 11  1  0
 11 12  1  0
 12 13  1  0
 13 14  1  0
 13 15  1  0
 12 16  1  0
 12 17  1  0
 11 18  1  0
 11 19  1  0
 10 20  1  0
 10 21  1  0
  9 22  1  0
  8 23  1  0
 23 24  2  0
 24 25  1  0
 25 26  1  0
 26 27  2  0
 27 28  1  0
 28 29  1  0
 29 30  2  0
 30 31  1  0
 29 32  1  0
 27 33  1  0
 25 34  1  0
 25 35  1  0
  5 36  2  0
 36 37  1  0
  4 38  1  0
  2 39  1  0
  1 40  1  0
 36  1  1  0
 24  6  1  0
 30 26  1  0
 13  9  1  0
M  END
>  <cnnaffinity>  (1) 
-5.86093

>  <filename>  (1) 
c1cncc(-n2nc(C3CCCC3)nc2Cc2ccsc2)c1

$$$$
