
     RDKit          3D

 32 35  0  0  0  0  0  0  0  0999 V2000
    4.9192    1.7758   16.9985 H   0  0  0  0  0  0  0  0  0  0  0  0
    5.4063    1.2893   17.8434 C   0  0  0  0  0  0  0  0  0  0  0  0
    6.5709    0.6695   17.5954 N   0  0  0  0  0  0  0  0  0  0  0  0
    7.1770    0.0561   18.6136 C   0  0  0  0  0  0  0  0  0  0  0  0
    8.1159   -0.4342   18.3717 H   0  0  0  0  0  0  0  0  0  0  0  0
    6.6603    0.0023   19.9160 C   0  0  0  0  0  0  0  0  0  0  0  0
    7.3669   -0.6875   20.9383 N   0  0  0  0  0  0  0  0  0  0  0  0
    6.7290   -1.0802   22.0562 N   0  0  0  0  0  0  0  0  0  0  0  0
    7.6505   -1.6589   22.8250 C   0  0  0  0  0  0  0  0  0  0  0  0
    7.3455   -2.1862   24.1746 C   0  0  0  0  0  0  0  0  0  0  0  0
    6.3702   -1.5846   24.9828 C   0  0  0  0  0  0  0  0  0  0  0  0
    5.8152   -0.7402   24.5806 H   0  0  0  0  0  0  0  0  0  0  0  0
    6.1040   -2.0600   26.2861 C   0  0  0  0  0  0  0  0  0  0  0  0
    5.3343   -1.5740   26.8774 H   0  0  0  0  0  0  0  0  0  0  0  0
    6.7957   -3.1459   26.8219 C   0  0  0  0  0  0  0  0  0  0  0  0
    6.5874   -3.5378   27.8156 H   0  0  0  0  0  0  0  0  0  0  0  0
    7.7675   -3.7479   26.0111 C   0  0  0  0  0  0  0  0  0  0  0  0
    8.0614   -3.3008   24.7008 C   0  0  0  0  0  0  0  0  0  0  0  0
    9.0568   -4.2031   24.1905 C   0  0  0  0  0  0  0  0  0  0  0  0
    9.4625   -4.1655   23.1921 H   0  0  0  0  0  0  0  0  0  0  0  0
    9.3338   -5.1250   25.1612 C   0  0  0  0  0  0  0  0  0  0  0  0
   10.0210   -5.9697   25.1409 H   0  0  0  0  0  0  0  0  0  0  0  0
    8.5586   -4.8424   26.2662 N   0  0  0  0  0  0  0  0  0  0  0  0
    8.5291   -5.3622   27.1260 H   0  0  0  0  0  0  0  0  0  0  0  0
    8.9135   -1.6118   22.1820 C   0  0  0  0  0  0  0  0  0  0  0  0
    9.8551   -1.9446   22.5901 H   0  0  0  0  0  0  0  0  0  0  0  0
    8.6992   -0.9821   20.9867 C   0  0  0  0  0  0  0  0  0  0  0  0
    9.3819   -0.6926   20.1961 H   0  0  0  0  0  0  0  0  0  0  0  0
    5.4400    0.6483   20.1737 C   0  0  0  0  0  0  0  0  0  0  0  0
    5.0120    0.6204   21.1780 H   0  0  0  0  0  0  0  0  0  0  0  0
    4.8128    1.3071   19.1132 C   0  0  0  0  0  0  0  0  0  0  0  0
    3.8779    1.8404   19.2646 H   0  0  0  0  0  0  0  0  0  0  0  0
  1  2  1  0
  2  3  2  0
  3  4  1  0
  4  5  1  0
  4  6  2  0
  6  7  1  0
  7  8  1  0
  8  9  2  0
  9 10  1  0
 10 11  2  0
 11 12  1  0
 11 13  1  0
 13 14  1  0
 13 15  2  0
 15 16  1  0
 15 17  1  0
 17 18  2  0
 18 19  1  0
 19 20  1  0
 19 21  2  0
 21 22  1  0
 21 23  1  0
 23 24  1  0
  9 25  1  0
 25 26  1  0
 25 27  2  0
 27 28  1  0
  6 29  1  0
 29 30  1  0
 29 31  2  0
 31 32  1  0
 31  2  1  0
 27  7  1  0
 18 10  1  0
 23 17  1  0
M  END
>  <cnnaffinity>  (1) 
-5.30731

>  <filename>  (1) 
c1cncc(-n2ccc(-c3cccc4[nH]ccc34)n2)c1

$$$$
