
     RDKit          3D

 30 32  0  0  0  0  0  0  0  0999 V2000
    4.9142    1.7890   16.9926 H   0  0  0  0  0  0  0  0  0  0  0  0
    5.3949    1.2985   17.8353 C   0  0  0  0  0  0  0  0  0  0  0  0
    6.5580    0.6825   17.5689 N   0  0  0  0  0  0  0  0  0  0  0  0
    7.1694    0.0599   18.5848 C   0  0  0  0  0  0  0  0  0  0  0  0
    8.1182   -0.4280   18.3743 H   0  0  0  0  0  0  0  0  0  0  0  0
    6.6611   -0.0149   19.9051 C   0  0  0  0  0  0  0  0  0  0  0  0
    7.3283   -0.7207   20.9131 N   0  0  0  0  0  0  0  0  0  0  0  0
    6.7719   -1.1150   21.6622 H   0  0  0  0  0  0  0  0  0  0  0  0
    8.7098   -0.6929   21.1416 C   0  0  0  0  0  0  0  0  0  0  0  0
    9.6876    0.2086   20.6645 C   0  0  0  0  0  0  0  0  0  0  0  0
    9.5188    1.0309   19.9928 H   0  0  0  0  0  0  0  0  0  0  0  0
   10.8986   -0.0633   21.1371 N   0  0  0  0  0  0  0  0  0  0  0  0
   10.7030   -1.1398   21.9091 N   0  0  0  0  0  0  0  0  0  0  0  0
   11.4991   -1.5207   22.3941 H   0  0  0  0  0  0  0  0  0  0  0  0
    9.4113   -1.5645   21.9482 C   0  0  0  0  0  0  0  0  0  0  0  0
    8.9267   -2.6500   22.8442 C   0  0  0  0  0  0  0  0  0  0  0  0
    9.6858   -3.4361   22.9521 H   0  0  0  0  0  0  0  0  0  0  0  0
    8.0442   -3.1207   22.3993 H   0  0  0  0  0  0  0  0  0  0  0  0
    8.5525   -2.1498   24.1590 N   0  0  0  0  0  0  0  0  0  0  0  0
    9.4186   -1.7988   25.1524 C   0  0  0  0  0  0  0  0  0  0  0  0
   10.4806   -1.9534   25.0301 H   0  0  0  0  0  0  0  0  0  0  0  0
    8.8096   -1.2747   26.1829 N   0  0  0  0  0  0  0  0  0  0  0  0
    7.4795   -1.2450   25.8353 C   0  0  0  0  0  0  0  0  0  0  0  0
    6.7203   -0.8656   26.5106 H   0  0  0  0  0  0  0  0  0  0  0  0
    7.2961   -1.7581   24.5854 C   0  0  0  0  0  0  0  0  0  0  0  0
    6.4131   -1.8803   23.9714 H   0  0  0  0  0  0  0  0  0  0  0  0
    5.4406    0.6302   20.1612 C   0  0  0  0  0  0  0  0  0  0  0  0
    5.0205    0.6227   21.1699 H   0  0  0  0  0  0  0  0  0  0  0  0
    4.8123    1.3050   19.1079 C   0  0  0  0  0  0  0  0  0  0  0  0
    3.8838    1.8367   19.2632 H   0  0  0  0  0  0  0  0  0  0  0  0
  1  2  1  0
  2  3  2  0
  3  4  1  0
  4  5  1  0
  4  6  2  0
  6  7  1  0
  7  8  1  0
  7  9  1  0
  9 10  1  0
 10 11  1  0
 10 12  2  0
 12 13  1  0
 13 14  1  0
 13 15  1  0
 15 16  1  0
 16 17  1  0
 16 18  1  0
 16 19  1  0
 19 20  1  0
 20 21  1  0
 20 22  2  0
 22 23  1  0
 23 24  1  0
 23 25  2  0
 25 26  1  0
  6 27  1  0
 27 28  1  0
 27 29  2  0
 29 30  1  0
 29  2  1  0
 15  9  2  0
 25 19  1  0
M  END
>  <cnnaffinity>  (1) 
-5.4719

>  <filename>  (1) 
c1cncc(Nc2cn[nH]c2Cn2ccnc2)c1

$$$$
