
     RDKit          3D

 33 36  0  0  0  0  0  0  0  0999 V2000
    4.9175    1.7740   17.0046 H   0  0  0  0  0  0  0  0  0  0  0  0
    5.4068    1.2874   17.8480 C   0  0  0  0  0  0  0  0  0  0  0  0
    6.5732    0.6770   17.5922 N   0  0  0  0  0  0  0  0  0  0  0  0
    7.1775    0.0469   18.6051 C   0  0  0  0  0  0  0  0  0  0  0  0
    8.1236   -0.4350   18.3764 H   0  0  0  0  0  0  0  0  0  0  0  0
    6.6613   -0.0084   19.9075 C   0  0  0  0  0  0  0  0  0  0  0  0
    7.4082   -0.7309   20.9633 C   0  0  0  0  0  0  0  0  0  0  0  0
    8.0960   -1.8175   20.5945 N   0  0  0  0  0  0  0  0  0  0  0  0
    8.7421   -2.4949   21.5520 C   0  0  0  0  0  0  0  0  0  0  0  0
    9.2785   -3.3781   21.2362 H   0  0  0  0  0  0  0  0  0  0  0  0
    8.7765   -2.1206   22.8918 C   0  0  0  0  0  0  0  0  0  0  0  0
    9.3338   -2.7121   23.6061 H   0  0  0  0  0  0  0  0  0  0  0  0
    8.0844   -0.9666   23.2786 C   0  0  0  0  0  0  0  0  0  0  0  0
    8.0620   -0.4920   24.6781 C   0  0  0  0  0  0  0  0  0  0  0  0
    9.2133   -1.1122   25.8449 S   0  0  0  0  0  0  0  0  0  0  0  0
    8.5333   -0.1266   27.1043 C   0  0  0  0  0  0  0  0  0  0  0  0
    8.9231   -0.0575   28.4476 C   0  0  0  0  0  0  0  0  0  0  0  0
    9.7676   -0.6369   28.8045 H   0  0  0  0  0  0  0  0  0  0  0  0
    8.2438    0.8214   29.2946 C   0  0  0  0  0  0  0  0  0  0  0  0
    8.5512    0.9068   30.3340 H   0  0  0  0  0  0  0  0  0  0  0  0
    7.1728    1.6099   28.8161 C   0  0  0  0  0  0  0  0  0  0  0  0
    6.6488    2.2807   29.4901 H   0  0  0  0  0  0  0  0  0  0  0  0
    6.7764    1.5275   27.4884 C   0  0  0  0  0  0  0  0  0  0  0  0
    5.9493    2.1153   27.0975 H   0  0  0  0  0  0  0  0  0  0  0  0
    7.4620    0.6530   26.6193 C   0  0  0  0  0  0  0  0  0  0  0  0
    7.2186    0.4143   25.2317 C   0  0  0  0  0  0  0  0  0  0  0  0
    6.4090    0.9165   24.7060 H   0  0  0  0  0  0  0  0  0  0  0  0
    7.3940   -0.2689   22.2858 C   0  0  0  0  0  0  0  0  0  0  0  0
    6.8736    0.6528   22.5158 H   0  0  0  0  0  0  0  0  0  0  0  0
    5.4478    0.6491   20.1625 C   0  0  0  0  0  0  0  0  0  0  0  0
    5.0024    0.6313   21.1608 H   0  0  0  0  0  0  0  0  0  0  0  0
    4.8074    1.3054   19.1128 C   0  0  0  0  0  0  0  0  0  0  0  0
    3.8757    1.8423   19.2639 H   0  0  0  0  0  0  0  0  0  0  0  0
  1  2  1  0
  2  3  2  0
  3  4  1  0
  4  5  1  0
  4  6  2  0
  6  7  1  0
  7  8  2  0
  8  9  1  0
  9 10  1  0
  9 11  2  0
 11 12  1  0
 11 13  1  0
 13 14  1  0
 14 15  1  0
 15 16  1  0
 16 17  2  0
 17 18  1  0
 17 19  1  0
 19 20  1  0
 19 21  2  0
 21 22  1  0
 21 23  1  0
 23 24  1  0
 23 25  2  0
 25 26  1  0
 26 27  1  0
 13 28  2  0
 28 29  1  0
  6 30  1  0
 30 31  1  0
 30 32  2  0
 32 33  1  0
 32  2  1  0
 28  7  1  0
 26 14  2  0
 25 16  1  0
M  END
>  <cnnaffinity>  (1) 
-5.1587

>  <filename>  (1) 
c1cncc(-c2cc(-c3cc4ccccc4s3)ccn2)c1

$$$$
