
     RDKit          3D

 31 33  0  0  0  0  0  0  0  0999 V2000
    4.9175    1.7928   16.9860 H   0  0  0  0  0  0  0  0  0  0  0  0
    5.3957    1.3002   17.8295 C   0  0  0  0  0  0  0  0  0  0  0  0
    6.5591    0.6815   17.5790 N   0  0  0  0  0  0  0  0  0  0  0  0
    7.1723    0.0657   18.5973 C   0  0  0  0  0  0  0  0  0  0  0  0
    8.1245   -0.4100   18.3675 H   0  0  0  0  0  0  0  0  0  0  0  0
    6.6583    0.0155   19.9097 C   0  0  0  0  0  0  0  0  0  0  0  0
    7.3538   -0.6790   20.9477 N   0  0  0  0  0  0  0  0  0  0  0  0
    7.6959   -2.0067   20.9418 C   0  0  0  0  0  0  0  0  0  0  0  0
    7.3598   -2.6155   20.1251 H   0  0  0  0  0  0  0  0  0  0  0  0
    8.3165   -2.3948   22.0236 N   0  0  0  0  0  0  0  0  0  0  0  0
    8.3694   -1.2714   22.8041 C   0  0  0  0  0  0  0  0  0  0  0  0
    8.8121   -1.2834   23.7950 H   0  0  0  0  0  0  0  0  0  0  0  0
    7.7838   -0.1994   22.1814 C   0  0  0  0  0  0  0  0  0  0  0  0
    7.6494    1.2261   22.5920 C   0  0  0  0  0  0  0  0  0  0  0  0
    6.5832    1.4723   22.7048 H   0  0  0  0  0  0  0  0  0  0  0  0
    8.2510    2.2430   21.5954 C   0  0  0  0  0  0  0  0  0  0  0  0
    9.1067    1.7948   21.0800 H   0  0  0  0  0  0  0  0  0  0  0  0
    7.5266    2.4956   20.8140 H   0  0  0  0  0  0  0  0  0  0  0  0
    8.6993    3.4589   22.4421 C   0  0  0  0  0  0  0  0  0  0  0  0
    8.1015    4.3509   22.2227 H   0  0  0  0  0  0  0  0  0  0  0  0
    9.7378    3.7240   22.2134 H   0  0  0  0  0  0  0  0  0  0  0  0
    8.5532    3.0473   23.9274 C   0  0  0  0  0  0  0  0  0  0  0  0
    7.6846    3.5397   24.3816 H   0  0  0  0  0  0  0  0  0  0  0  0
    9.4218    3.3397   24.5290 H   0  0  0  0  0  0  0  0  0  0  0  0
    8.3587    1.5302   23.9164 C   0  0  0  0  0  0  0  0  0  0  0  0
    7.7936    1.1549   24.7772 H   0  0  0  0  0  0  0  0  0  0  0  0
    9.3310    1.0217   23.9261 H   0  0  0  0  0  0  0  0  0  0  0  0
    5.4367    0.6553   20.1570 C   0  0  0  0  0  0  0  0  0  0  0  0
    5.0073    0.6286   21.1621 H   0  0  0  0  0  0  0  0  0  0  0  0
    4.8068    1.3141   19.0982 C   0  0  0  0  0  0  0  0  0  0  0  0
    3.8757    1.8412   19.2531 H   0  0  0  0  0  0  0  0  0  0  0  0
  1  2  1  0
  2  3  2  0
  3  4  1  0
  4  5  1  0
  4  6  2  0
  6  7  1  0
  7  8  1  0
  8  9  1  0
  8 10  2  0
 10 11  1  0
 11 12  1  0
 11 13  2  0
 13 14  1  0
 14 15  1  0
 14 16  1  0
 16 17  1  0
 16 18  1  0
 16 19  1  0
 19 20  1  0
 19 21  1  0
 19 22  1  0
 22 23  1  0
 22 24  1  0
 22 25  1  0
 25 26  1  0
 25 27  1  0
  6 28  1  0
 28 29  1  0
 28 30  2  0
 30 31  1  0
 30  2  1  0
 13  7  1  0
 25 14  1  0
M  END
>  <cnnaffinity>  (1) 
-4.90885

>  <filename>  (1) 
c1cncc(-n2cncc2C2CCCC2)c1

$$$$
