
     RDKit          3D

 28 30  0  0  0  0  0  0  0  0999 V2000
    6.1166   -0.1839   22.6512 H   0  0  0  0  0  0  0  0  0  0  0  0
    6.9968   -0.6987   22.3067 C   0  0  0  0  0  0  0  0  0  0  0  0
    7.8936   -0.9544   23.3305 N   0  0  0  0  0  0  0  0  0  0  0  0
    9.0028   -1.6025   22.9447 N   0  0  0  0  0  0  0  0  0  0  0  0
    9.0432   -2.3241   21.5986 C   0  0  0  0  0  0  0  0  0  0  0  0
    8.9934   -2.3532   21.6046 C   0  0  0  0  0  0  0  0  0  0  0  0
    9.1659   -3.6185   21.8992 H   0  0  0  0  0  0  0  0  0  0  0  0
   10.2929   -2.3042   21.3534 H   0  0  0  0  0  0  0  0  0  0  0  0
    8.2673   -4.6906   22.0567 C   0  0  0  0  0  0  0  0  0  0  0  0
    8.2610   -6.2988   22.6670 S   0  0  0  0  0  0  0  0  0  0  0  0
    6.8072   -6.6550   21.7957 C   0  0  0  0  0  0  0  0  0  0  0  0
    6.3777   -7.6494   21.8737 H   0  0  0  0  0  0  0  0  0  0  0  0
    6.3576   -5.5728   21.0927 C   0  0  0  0  0  0  0  0  0  0  0  0
    5.4785   -5.6227   20.4599 H   0  0  0  0  0  0  0  0  0  0  0  0
    7.1888   -4.4146   21.2748 C   0  0  0  0  0  0  0  0  0  0  0  0
    7.0498   -3.4335   20.8476 H   0  0  0  0  0  0  0  0  0  0  0  0
    8.4666   -1.5312   20.5377 N   0  0  0  0  0  0  0  0  0  0  0  0
    7.2262   -0.8499   20.9263 C   0  0  0  0  0  0  0  0  0  0  0  0
    6.5466   -0.1411   19.8630 C   0  0  0  0  0  0  0  0  0  0  0  0
    7.1319   -0.1014   18.5731 C   0  0  0  0  0  0  0  0  0  0  0  0
    8.0676   -0.6370   18.4168 H   0  0  0  0  0  0  0  0  0  0  0  0
    6.6143    0.5641   17.5382 N   0  0  0  0  0  0  0  0  0  0  0  0
    5.4811    1.2517   17.7513 C   0  0  0  0  0  0  0  0  0  0  0  0
    5.0850    1.7986   16.8986 H   0  0  0  0  0  0  0  0  0  0  0  0
    4.8245    1.2934   18.9857 C   0  0  0  0  0  0  0  0  0  0  0  0
    3.9311    1.8984   19.0949 H   0  0  0  0  0  0  0  0  0  0  0  0
    5.3577    0.5920   20.0633 C   0  0  0  0  0  0  0  0  0  0  0  0
    4.8637    0.6320   21.0354 H   0  0  0  0  0  0  0  0  0  0  0  0
  1  2  1  0
  2  3  2  0
  3  4  1  0
  4  5  2  0
  5  6  1  0
  6  7  1  0
  6  8  1  0
  6  9  1  0
  9 10  1  0
 10 11  1  0
 11 12  1  0
 11 13  2  0
 13 14  1  0
 13 15  1  0
 15 16  1  0
  5 17  1  0
 17 18  2  0
 18 19  1  0
 19 20  2  0
 20 21  1  0
 20 22  1  0
 22 23  2  0
 23 24  1  0
 23 25  1  0
 25 26  1  0
 25 27  2  0
 27 28  1  0
 18  2  1  0
 27 19  1  0
 15  9  2  0
M  END
>  <cnnaffinity>  (1) 
-5.30511

>  <filename>  (1) 
c1cncc(-c2cnnc(Cc3cccs3)n2)c1

$$$$
