
     RDKit          3D

 31 34  0  0  0  0  0  0  0  0999 V2000
    4.9165    1.8125   16.9712 H   0  0  0  0  0  0  0  0  0  0  0  0
    5.3871    1.3066   17.8126 C   0  0  0  0  0  0  0  0  0  0  0  0
    6.5510    0.6888   17.5523 N   0  0  0  0  0  0  0  0  0  0  0  0
    7.1535    0.0588   18.5655 C   0  0  0  0  0  0  0  0  0  0  0  0
    8.1113   -0.4026   18.3267 H   0  0  0  0  0  0  0  0  0  0  0  0
    6.6440   -0.0046   19.8788 C   0  0  0  0  0  0  0  0  0  0  0  0
    7.3497   -0.7053   20.9625 C   0  0  0  0  0  0  0  0  0  0  0  0
    7.5894   -0.3401   22.2876 C   0  0  0  0  0  0  0  0  0  0  0  0
    7.3577    0.9692   22.8335 C   0  0  0  0  0  0  0  0  0  0  0  0
    7.2619    1.0869   24.1997 O   0  0  0  0  0  0  0  0  0  0  0  0
    7.0751    2.4116   24.4628 C   0  0  0  0  0  0  0  0  0  0  0  0
    6.9146    3.0065   25.7198 C   0  0  0  0  0  0  0  0  0  0  0  0
    6.9248    2.4175   26.6322 H   0  0  0  0  0  0  0  0  0  0  0  0
    6.7441    4.3945   25.7308 C   0  0  0  0  0  0  0  0  0  0  0  0
    6.6161    4.9104   26.6791 H   0  0  0  0  0  0  0  0  0  0  0  0
    6.7329    5.1569   24.5403 C   0  0  0  0  0  0  0  0  0  0  0  0
    6.5981    6.2355   24.5887 H   0  0  0  0  0  0  0  0  0  0  0  0
    6.8943    4.5441   23.3026 C   0  0  0  0  0  0  0  0  0  0  0  0
    6.8873    5.1065   22.3736 H   0  0  0  0  0  0  0  0  0  0  0  0
    7.0705    3.1495   23.2663 C   0  0  0  0  0  0  0  0  0  0  0  0
    7.2666    2.1832   22.2273 C   0  0  0  0  0  0  0  0  0  0  0  0
    7.3255    2.3690   21.1649 H   0  0  0  0  0  0  0  0  0  0  0  0
    8.2024   -1.4764   22.8771 C   0  0  0  0  0  0  0  0  0  0  0  0
    8.5520   -1.6208   23.8949 H   0  0  0  0  0  0  0  0  0  0  0  0
    8.3518   -2.4477   21.9945 N   0  0  0  0  0  0  0  0  0  0  0  0
    7.8457   -1.9556   20.8513 N   0  0  0  0  0  0  0  0  0  0  0  0
    7.7874   -2.5401   20.0264 H   0  0  0  0  0  0  0  0  0  0  0  0
    5.4227    0.6431   20.1260 C   0  0  0  0  0  0  0  0  0  0  0  0
    5.0098    0.6472   21.1357 H   0  0  0  0  0  0  0  0  0  0  0  0
    4.7910    1.3118   19.0770 C   0  0  0  0  0  0  0  0  0  0  0  0
    3.8654    1.8491   19.2353 H   0  0  0  0  0  0  0  0  0  0  0  0
  1  2  1  0
  2  3  2  0
  3  4  1  0
  4  5  1  0
  4  6  2  0
  6  7  1  0
  7  8  2  0
  8  9  1  0
  9 10  1  0
 10 11  1  0
 11 12  2  0
 12 13  1  0
 12 14  1  0
 14 15  1  0
 14 16  2  0
 16 17  1  0
 16 18  1  0
 18 19  1  0
 18 20  2  0
 20 21  1  0
 21 22  1  0
  8 23  1  0
 23 24  1  0
 23 25  2  0
 25 26  1  0
 26 27  1  0
  6 28  1  0
 28 29  1  0
 28 30  2  0
 30 31  1  0
 30  2  1  0
 26  7  1  0
 21  9  2  0
 20 11  1  0
M  END
>  <cnnaffinity>  (1) 
-5.15082

>  <filename>  (1) 
c1cncc(-c2[nH]ncc2-c2cc3ccccc3o2)c1

$$$$
