
     RDKit          3D

 36 40  0  0  0  0  0  0  0  0999 V2000
    4.9433    1.7935   16.9249 H   0  0  0  0  0  0  0  0  0  0  0  0
    5.4310    1.3166   17.7721 C   0  0  0  0  0  0  0  0  0  0  0  0
    6.6017    0.7129   17.5140 N   0  0  0  0  0  0  0  0  0  0  0  0
    7.2237    0.1148   18.5349 C   0  0  0  0  0  0  0  0  0  0  0  0
    8.1646   -0.3830   18.3087 H   0  0  0  0  0  0  0  0  0  0  0  0
    6.7213    0.0878   19.8474 C   0  0  0  0  0  0  0  0  0  0  0  0
    7.4193   -0.6618   20.9056 C   0  0  0  0  0  0  0  0  0  0  0  0
    8.6386   -1.1980   20.7389 N   0  0  0  0  0  0  0  0  0  0  0  0
    8.7993   -1.9075   21.8812 N   0  0  0  0  0  0  0  0  0  0  0  0
    9.7461   -2.8042   22.3544 C   0  0  0  0  0  0  0  0  0  0  0  0
   10.7124   -2.8847   21.8898 H   0  0  0  0  0  0  0  0  0  0  0  0
    9.1986   -3.3732   23.4597 C   0  0  0  0  0  0  0  0  0  0  0  0
    9.5810   -4.1689   24.0736 H   0  0  0  0  0  0  0  0  0  0  0  0
    7.9442   -2.8086   23.7060 N   0  0  0  0  0  0  0  0  0  0  0  0
    6.9854   -3.1705   24.6897 C   0  0  0  0  0  0  0  0  0  0  0  0
    6.6229   -4.5085   24.8708 C   0  0  0  0  0  0  0  0  0  0  0  0
    7.1216   -5.2729   24.2771 H   0  0  0  0  0  0  0  0  0  0  0  0
    5.5845   -4.8597   25.7643 C   0  0  0  0  0  0  0  0  0  0  0  0
    5.3002   -5.9081   25.8533 H   0  0  0  0  0  0  0  0  0  0  0  0
    4.9148   -3.8926   26.5077 C   0  0  0  0  0  0  0  0  0  0  0  0
    4.0991   -4.1469   27.1811 H   0  0  0  0  0  0  0  0  0  0  0  0
    5.3114   -2.5526   26.3451 C   0  0  0  0  0  0  0  0  0  0  0  0
    6.3356   -2.1603   25.4528 C   0  0  0  0  0  0  0  0  0  0  0  0
    6.4282   -0.7241   25.5513 C   0  0  0  0  0  0  0  0  0  0  0  0
    7.1054   -0.0936   24.9867 H   0  0  0  0  0  0  0  0  0  0  0  0
    5.4989   -0.3101   26.4604 C   0  0  0  0  0  0  0  0  0  0  0  0
    5.2517    0.6895   26.8060 H   0  0  0  0  0  0  0  0  0  0  0  0
    4.8263   -1.4157   26.9398 N   0  0  0  0  0  0  0  0  0  0  0  0
    4.0808   -1.4289   27.6146 H   0  0  0  0  0  0  0  0  0  0  0  0
    7.7301   -1.8793   22.6995 C   0  0  0  0  0  0  0  0  0  0  0  0
    6.8257   -1.0004   22.1396 C   0  0  0  0  0  0  0  0  0  0  0  0
    5.9608   -0.5384   22.5769 H   0  0  0  0  0  0  0  0  0  0  0  0
    5.4912    0.7223   20.0994 C   0  0  0  0  0  0  0  0  0  0  0  0
    5.0430    0.7256   21.0972 H   0  0  0  0  0  0  0  0  0  0  0  0
    4.8389    1.3445   19.0408 C   0  0  0  0  0  0  0  0  0  0  0  0
    3.8830    1.8380   19.1819 H   0  0  0  0  0  0  0  0  0  0  0  0
  1  2  1  0
  2  3  2  0
  3  4  1  0
  4  5  1  0
  4  6  2  0
  6  7  1  0
  7  8  2  0
  8  9  1  0
  9 10  1  0
 10 11  1  0
 10 12  2  0
 12 13  1  0
 12 14  1  0
 14 15  1  0
 15 16  2  0
 16 17  1  0
 16 18  1  0
 18 19  1  0
 18 20  2  0
 20 21  1  0
 20 22  1  0
 22 23  2  0
 23 24  1  0
 24 25  1  0
 24 26  2  0
 26 27  1  0
 26 28  1  0
 28 29  1  0
 14 30  1  0
 30 31  2  0
 31 32  1  0
  6 33  1  0
 33 34  1  0
 33 35  2  0
 35 36  1  0
 35  2  1  0
 31  7  1  0
 30  9  1  0
 23 15  1  0
 28 22  1  0
M  END
>  <cnnaffinity>  (1) 
-5.87551

>  <filename>  (1) 
c1cncc(-c2cc3n(-c4cccc5[nH]ccc45)ccn3n2)c1

$$$$
