
     RDKit          3D

 32 34  0  0  0  0  0  0  0  0999 V2000
    4.9082    1.7742   17.0028 H   0  0  0  0  0  0  0  0  0  0  0  0
    5.4022    1.2923   17.8434 C   0  0  0  0  0  0  0  0  0  0  0  0
    6.5724    0.6803   17.5911 N   0  0  0  0  0  0  0  0  0  0  0  0
    7.1819    0.0543   18.6024 C   0  0  0  0  0  0  0  0  0  0  0  0
    8.1295   -0.4390   18.3834 H   0  0  0  0  0  0  0  0  0  0  0  0
    6.6563    0.0028   19.9039 C   0  0  0  0  0  0  0  0  0  0  0  0
    7.3685   -0.6824   20.9323 N   0  0  0  0  0  0  0  0  0  0  0  0
    7.7058   -1.9779   20.8089 N   0  0  0  0  0  0  0  0  0  0  0  0
    8.3580   -2.3295   21.8680 N   0  0  0  0  0  0  0  0  0  0  0  0
    8.4555   -1.2552   22.6908 C   0  0  0  0  0  0  0  0  0  0  0  0
    8.9910   -1.2703   23.6233 H   0  0  0  0  0  0  0  0  0  0  0  0
    7.8253   -0.1829   22.1192 C   0  0  0  0  0  0  0  0  0  0  0  0
    7.7951    1.2644   22.5107 C   0  0  0  0  0  0  0  0  0  0  0  0
    6.8214    1.6779   22.2148 H   0  0  0  0  0  0  0  0  0  0  0  0
    8.9000    2.0462   21.7650 C   0  0  0  0  0  0  0  0  0  0  0  0
    8.7266    3.1153   21.9334 H   0  0  0  0  0  0  0  0  0  0  0  0
    8.8044    1.8850   20.6848 H   0  0  0  0  0  0  0  0  0  0  0  0
   10.3250    1.6690   22.2337 C   0  0  0  0  0  0  0  0  0  0  0  0
   10.9583    2.5727   22.1721 H   0  0  0  0  0  0  0  0  0  0  0  0
   10.7499    0.9274   21.5440 H   0  0  0  0  0  0  0  0  0  0  0  0
   10.3444    1.0973   23.5926 N   0  0  0  0  0  0  0  0  0  0  0  0
   11.2802    1.2168   23.9691 H   0  0  0  0  0  0  0  0  0  0  0  0
    9.3927    1.7513   24.4859 C   0  0  0  0  0  0  0  0  0  0  0  0
    9.5426    2.8478   24.5006 H   0  0  0  0  0  0  0  0  0  0  0  0
    9.5450    1.3899   25.5092 H   0  0  0  0  0  0  0  0  0  0  0  0
    7.9475    1.4484   24.0440 C   0  0  0  0  0  0  0  0  0  0  0  0
    7.3081    2.2773   24.3651 H   0  0  0  0  0  0  0  0  0  0  0  0
    7.5718    0.5583   24.5675 H   0  0  0  0  0  0  0  0  0  0  0  0
    5.4425    0.6498   20.1636 C   0  0  0  0  0  0  0  0  0  0  0  0
    5.0076    0.6266   21.1627 H   0  0  0  0  0  0  0  0  0  0  0  0
    4.8049    1.3088   19.1082 C   0  0  0  0  0  0  0  0  0  0  0  0
    3.8714    1.8451   19.2681 H   0  0  0  0  0  0  0  0  0  0  0  0
  1  2  1  0
  2  3  2  0
  3  4  1  0
  4  5  1  0
  4  6  2  0
  6  7  1  0
  7  8  1  0
  8  9  2  0
  9 10  1  0
 10 11  1  0
 10 12  2  0
 12 13  1  0
 13 14  1  0
 13 15  1  0
 15 16  1  0
 15 17  1  0
 15 18  1  0
 18 19  1  0
 18 20  1  0
 18 21  1  0
 21 22  1  0
 21 23  1  0
 23 24  1  0
 23 25  1  0
 23 26  1  0
 26 27  1  0
 26 28  1  0
  6 29  1  0
 29 30  1  0
 29 31  2  0
 31 32  1  0
 31  2  1  0
 12  7  1  0
 26 13  1  0
M  END
>  <cnnaffinity>  (1) 
-4.89325

>  <filename>  (1) 
c1cncc(-n2nncc2C2CCNCC2)c1

$$$$
