
     RDKit          3D

 39 41  0  0  0  0  0  0  0  0999 V2000
    4.9369    1.7937   16.9850 H   0  0  0  0  0  0  0  0  0  0  0  0
    5.3985    1.2881   17.8321 C   0  0  0  0  0  0  0  0  0  0  0  0
    6.5602    0.6636   17.5874 N   0  0  0  0  0  0  0  0  0  0  0  0
    7.1729    0.0577   18.6142 C   0  0  0  0  0  0  0  0  0  0  0  0
    8.1145   -0.4285   18.3685 H   0  0  0  0  0  0  0  0  0  0  0  0
    6.6741    0.0353   19.9462 C   0  0  0  0  0  0  0  0  0  0  0  0
    7.3534   -0.6129   21.0055 N   0  0  0  0  0  0  0  0  0  0  0  0
    7.4017   -0.3285   22.3684 C   0  0  0  0  0  0  0  0  0  0  0  0
    6.8683    0.8360   22.7650 O   0  0  0  0  0  0  0  0  0  0  0  0
    6.9453    1.1459   24.1812 C   0  0  0  0  0  0  0  0  0  0  0  0
    6.4292    0.3649   24.7497 H   0  0  0  0  0  0  0  0  0  0  0  0
    8.0027    1.1595   24.4801 H   0  0  0  0  0  0  0  0  0  0  0  0
    6.2838    2.5124   24.3952 C   0  0  0  0  0  0  0  0  0  0  0  0
    5.2569    2.4659   24.0070 H   0  0  0  0  0  0  0  0  0  0  0  0
    6.8223    3.2691   23.7833 H   0  0  0  0  0  0  0  0  0  0  0  0
    6.2229    2.8989   25.8098 N   0  0  0  0  0  0  0  0  0  0  0  0
    5.3377    4.0398   26.0542 C   0  0  0  0  0  0  0  0  0  0  0  0
    5.4231    4.8066   25.2603 H   0  0  0  0  0  0  0  0  0  0  0  0
    4.2878    3.7152   26.0595 H   0  0  0  0  0  0  0  0  0  0  0  0
    5.7776    4.6252   27.4040 C   0  0  0  0  0  0  0  0  0  0  0  0
    5.6653    5.7152   27.4116 H   0  0  0  0  0  0  0  0  0  0  0  0
    5.1523    4.2495   28.2208 H   0  0  0  0  0  0  0  0  0  0  0  0
    7.2462    4.1746   27.5774 C   0  0  0  0  0  0  0  0  0  0  0  0
    7.9480    5.0153   27.5520 H   0  0  0  0  0  0  0  0  0  0  0  0
    7.3943    3.6832   28.5449 H   0  0  0  0  0  0  0  0  0  0  0  0
    7.5281    3.2130   26.4033 C   0  0  0  0  0  0  0  0  0  0  0  0
    8.1936    3.6959   25.6628 H   0  0  0  0  0  0  0  0  0  0  0  0
    8.0423    2.2980   26.7326 H   0  0  0  0  0  0  0  0  0  0  0  0
    7.9828   -1.1888   23.1142 N   0  0  0  0  0  0  0  0  0  0  0  0
    8.4207   -2.2864   22.2530 C   0  0  0  0  0  0  0  0  0  0  0  0
    7.9276   -3.2262   22.5473 H   0  0  0  0  0  0  0  0  0  0  0  0
    9.5055   -2.4514   22.3419 H   0  0  0  0  0  0  0  0  0  0  0  0
    8.0302   -1.8885   20.8134 C   0  0  0  0  0  0  0  0  0  0  0  0
    7.3419   -2.6115   20.3592 H   0  0  0  0  0  0  0  0  0  0  0  0
    8.9002   -1.7787   20.1506 H   0  0  0  0  0  0  0  0  0  0  0  0
    5.4420    0.6659   20.1673 C   0  0  0  0  0  0  0  0  0  0  0  0
    5.0240    0.6390   21.1673 H   0  0  0  0  0  0  0  0  0  0  0  0
    4.8032    1.3053   19.0983 C   0  0  0  0  0  0  0  0  0  0  0  0
    3.8687    1.8350   19.2416 H   0  0  0  0  0  0  0  0  0  0  0  0
  1  2  1  0
  2  3  2  0
  3  4  1  0
  4  5  1  0
  4  6  2  0
  6  7  1  0
  7  8  1  0
  8  9  1  0
  9 10  1  0
 10 11  1  0
 10 12  1  0
 10 13  1  0
 13 14  1  0
 13 15  1  0
 13 16  1  0
 16 17  1  0
 17 18  1  0
 17 19  1  0
 17 20  1  0
 20 21  1  0
 20 22  1  0
 20 23  1  0
 23 24  1  0
 23 25  1  0
 23 26  1  0
 26 27  1  0
 26 28  1  0
  8 29  2  0
 29 30  1  0
 30 31  1  0
 30 32  1  0
 30 33  1  0
 33 34  1  0
 33 35  1  0
  6 36  1  0
 36 37  1  0
 36 38  2  0
 38 39  1  0
 38  2  1  0
 33  7  1  0
 26 16  1  0
M  END
>  <cnnaffinity>  (1) 
-4.16755

>  <filename>  (1) 
c1cncc(N2CCN=C2OCCN2CCCC2)c1

$$$$
