
     RDKit          3D

 30 33  0  0  0  0  0  0  0  0999 V2000
    4.9085    1.7698   17.0079 H   0  0  0  0  0  0  0  0  0  0  0  0
    5.4043    1.2880   17.8489 C   0  0  0  0  0  0  0  0  0  0  0  0
    6.5735    0.6772   17.5914 N   0  0  0  0  0  0  0  0  0  0  0  0
    7.1866    0.0556   18.6064 C   0  0  0  0  0  0  0  0  0  0  0  0
    8.1340   -0.4373   18.3791 H   0  0  0  0  0  0  0  0  0  0  0  0
    6.6576    0.0109   19.9006 C   0  0  0  0  0  0  0  0  0  0  0  0
    7.3477   -0.6850   20.9723 C   0  0  0  0  0  0  0  0  0  0  0  0
    6.9321   -0.7658   22.1899 N   0  0  0  0  0  0  0  0  0  0  0  0
    7.8912   -1.5153   22.8402 C   0  0  0  0  0  0  0  0  0  0  0  0
    7.8423   -1.7960   24.2673 C   0  0  0  0  0  0  0  0  0  0  0  0
    7.3544   -0.9356   25.1965 C   0  0  0  0  0  0  0  0  0  0  0  0
    6.9170    0.0360   24.9955 H   0  0  0  0  0  0  0  0  0  0  0  0
    7.5058   -1.5114   26.8162 S   0  0  0  0  0  0  0  0  0  0  0  0
    8.2443   -2.9900   26.2645 C   0  0  0  0  0  0  0  0  0  0  0  0
    8.6684   -4.0707   27.0578 C   0  0  0  0  0  0  0  0  0  0  0  0
    8.5663   -4.0281   28.1374 H   0  0  0  0  0  0  0  0  0  0  0  0
    9.1945   -5.1877   26.4228 C   0  0  0  0  0  0  0  0  0  0  0  0
    9.5244   -6.0338   27.0128 H   0  0  0  0  0  0  0  0  0  0  0  0
    9.2896   -5.2387   25.0166 C   0  0  0  0  0  0  0  0  0  0  0  0
    9.6846   -6.1242   24.5357 H   0  0  0  0  0  0  0  0  0  0  0  0
    8.8702   -4.1745   24.2370 C   0  0  0  0  0  0  0  0  0  0  0  0
    8.9026   -4.2264   23.1550 H   0  0  0  0  0  0  0  0  0  0  0  0
    8.3575   -3.0153   24.8595 C   0  0  0  0  0  0  0  0  0  0  0  0
    8.8621   -1.8359   21.9527 C   0  0  0  0  0  0  0  0  0  0  0  0
    9.7952   -2.3627   22.0855 H   0  0  0  0  0  0  0  0  0  0  0  0
    8.5289   -1.3061   20.7425 O   0  0  0  0  0  0  0  0  0  0  0  0
    5.4383    0.6550   20.1579 C   0  0  0  0  0  0  0  0  0  0  0  0
    5.0112    0.6272   21.1587 H   0  0  0  0  0  0  0  0  0  0  0  0
    4.8042    1.3119   19.1131 C   0  0  0  0  0  0  0  0  0  0  0  0
    3.8720    1.8453   19.2678 H   0  0  0  0  0  0  0  0  0  0  0  0
  1  2  1  0
  2  3  2  0
  3  4  1  0
  4  5  1  0
  4  6  2  0
  6  7  1  0
  7  8  2  0
  8  9  1  0
  9 10  1  0
 10 11  2  0
 11 12  1  0
 11 13  1  0
 13 14  1  0
 14 15  2  0
 15 16  1  0
 15 17  1  0
 17 18  1  0
 17 19  2  0
 19 20  1  0
 19 21  1  0
 21 22  1  0
 21 23  2  0
  9 24  2  0
 24 25  1  0
 24 26  1  0
  6 27  1  0
 27 28  1  0
 27 29  2  0
 29 30  1  0
 29  2  1  0
 26  7  1  0
 23 10  1  0
 23 14  1  0
M  END
>  <cnnaffinity>  (1) 
-5.34061

>  <filename>  (1) 
c1cncc(-c2nc(-c3csc4ccccc34)co2)c1

$$$$
