
     RDKit          3D

 25 27  0  0  0  0  0  0  0  0999 V2000
    4.9202    1.7883   16.9925 H   0  0  0  0  0  0  0  0  0  0  0  0
    5.4002    1.2973   17.8368 C   0  0  0  0  0  0  0  0  0  0  0  0
    6.5642    0.6817   17.5752 N   0  0  0  0  0  0  0  0  0  0  0  0
    7.1685    0.0615   18.5930 C   0  0  0  0  0  0  0  0  0  0  0  0
    8.1136   -0.4260   18.3685 H   0  0  0  0  0  0  0  0  0  0  0  0
    6.6578    0.0070   19.9079 C   0  0  0  0  0  0  0  0  0  0  0  0
    7.3608   -0.6989   20.9968 C   0  0  0  0  0  0  0  0  0  0  0  0
    8.0724   -2.2466   20.8232 S   0  0  0  0  0  0  0  0  0  0  0  0
    8.5033   -2.4409   22.4048 N   0  0  0  0  0  0  0  0  0  0  0  0
    8.1570   -1.3780   23.0691 C   0  0  0  0  0  0  0  0  0  0  0  0
    8.3982   -1.3577   24.1263 H   0  0  0  0  0  0  0  0  0  0  0  0
    7.5164   -0.3367   22.3213 C   0  0  0  0  0  0  0  0  0  0  0  0
    7.1508    0.8907   22.8942 N   0  0  0  0  0  0  0  0  0  0  0  0
    6.6557    1.0694   24.1722 C   0  0  0  0  0  0  0  0  0  0  0  0
    6.4776    0.2037   24.8002 H   0  0  0  0  0  0  0  0  0  0  0  0
    6.4612    2.4089   24.3750 C   0  0  0  0  0  0  0  0  0  0  0  0
    6.0915    2.8581   25.2888 H   0  0  0  0  0  0  0  0  0  0  0  0
    6.8585    3.0848   23.1797 C   0  0  0  0  0  0  0  0  0  0  0  0
    6.8498    4.1547   23.0035 H   0  0  0  0  0  0  0  0  0  0  0  0
    7.2814    2.1279   22.2962 C   0  0  0  0  0  0  0  0  0  0  0  0
    7.6623    2.1902   21.2835 H   0  0  0  0  0  0  0  0  0  0  0  0
    5.4347    0.6509   20.1549 C   0  0  0  0  0  0  0  0  0  0  0  0
    5.0207    0.6445   21.1655 H   0  0  0  0  0  0  0  0  0  0  0  0
    4.8007    1.3092   19.1010 C   0  0  0  0  0  0  0  0  0  0  0  0
    3.8722    1.8422   19.2529 H   0  0  0  0  0  0  0  0  0  0  0  0
  1  2  1  0
  2  3  2  0
  3  4  1  0
  4  5  1  0
  4  6  2  0
  6  7  1  0
  7  8  1  0
  8  9  1  0
  9 10  2  0
 10 11  1  0
 10 12  1  0
 12 13  1  0
 13 14  1  0
 14 15  1  0
 14 16  2  0
 16 17  1  0
 16 18  1  0
 18 19  1  0
 18 20  2  0
 20 21  1  0
  6 22  1  0
 22 23  1  0
 22 24  2  0
 24 25  1  0
 24  2  1  0
 12  7  2  0
 20 13  1  0
M  END
>  <cnnaffinity>  (1) 
-4.72265

>  <filename>  (1) 
c1cncc(-c2sncc2-n2cccc2)c1

$$$$
