
     RDKit          3D

 37 40  0  0  0  0  0  0  0  0999 V2000
    5.0894    1.9921   16.8423 H   0  0  0  0  0  0  0  0  0  0  0  0
    5.4523    1.3899   17.6746 C   0  0  0  0  0  0  0  0  0  0  0  0
    6.6054    0.7333   17.4789 N   0  0  0  0  0  0  0  0  0  0  0  0
    7.0798    0.0102   18.5018 C   0  0  0  0  0  0  0  0  0  0  0  0
    8.0447   -0.4610   18.3340 H   0  0  0  0  0  0  0  0  0  0  0  0
    6.4383   -0.1348   19.7557 C   0  0  0  0  0  0  0  0  0  0  0  0
    7.0552   -0.8811   20.8848 C   0  0  0  0  0  0  0  0  0  0  0  0
    7.3397   -2.2039   21.1144 C   0  0  0  0  0  0  0  0  0  0  0  0
    6.9897   -3.0567   20.5520 H   0  0  0  0  0  0  0  0  0  0  0  0
    8.1049   -2.3660   22.2412 N   0  0  0  0  0  0  0  0  0  0  0  0
    8.2441   -1.1582   22.7270 C   0  0  0  0  0  0  0  0  0  0  0  0
    8.7721   -0.8833   23.6339 H   0  0  0  0  0  0  0  0  0  0  0  0
    7.6093   -0.2153   21.9695 N   0  0  0  0  0  0  0  0  0  0  0  0
    7.4301    1.1883   22.3466 C   0  0  0  0  0  0  0  0  0  0  0  0
    8.4073    1.6825   22.3116 H   0  0  0  0  0  0  0  0  0  0  0  0
    6.8071    1.6686   21.5907 H   0  0  0  0  0  0  0  0  0  0  0  0
    6.8152    1.3395   23.7314 C   0  0  0  0  0  0  0  0  0  0  0  0
    5.4161    1.1291   23.9519 C   0  0  0  0  0  0  0  0  0  0  0  0
    4.7615    0.9831   23.0947 H   0  0  0  0  0  0  0  0  0  0  0  0
    4.8837    1.0828   25.2241 C   0  0  0  0  0  0  0  0  0  0  0  0
    3.8243    0.8893   25.3927 H   0  0  0  0  0  0  0  0  0  0  0  0
    5.7297    1.2438   26.3656 C   0  0  0  0  0  0  0  0  0  0  0  0
    5.2478    1.1781   27.7105 C   0  0  0  0  0  0  0  0  0  0  0  0
    4.1768    1.0514   27.8820 H   0  0  0  0  0  0  0  0  0  0  0  0
    6.1263    1.2625   28.7708 C   0  0  0  0  0  0  0  0  0  0  0  0
    5.7670    1.2294   29.7928 H   0  0  0  0  0  0  0  0  0  0  0  0
    7.5267    1.4071   28.5546 C   0  0  0  0  0  0  0  0  0  0  0  0
    8.2136    1.4493   29.4018 H   0  0  0  0  0  0  0  0  0  0  0  0
    8.0040    1.4924   27.2714 C   0  0  0  0  0  0  0  0  0  0  0  0
    9.0587    1.5703   27.0520 H   0  0  0  0  0  0  0  0  0  0  0  0
    7.1290    1.4435   26.1510 C   0  0  0  0  0  0  0  0  0  0  0  0
    7.6323    1.5502   24.8208 C   0  0  0  0  0  0  0  0  0  0  0  0
    8.6909    1.7882   24.7028 H   0  0  0  0  0  0  0  0  0  0  0  0
    5.2164    0.5346   19.9110 C   0  0  0  0  0  0  0  0  0  0  0  0
    4.6883    0.4638   20.8626 H   0  0  0  0  0  0  0  0  0  0  0  0
    4.7261    1.3201   18.8649 C   0  0  0  0  0  0  0  0  0  0  0  0
    3.8184    1.8961   18.9756 H   0  0  0  0  0  0  0  0  0  0  0  0
  1  2  1  0
  2  3  2  0
  3  4  1  0
  4  5  1  0
  4  6  2  0
  6  7  1  0
  7  8  2  0
  8  9  1  0
  8 10  1  0
 10 11  2  0
 11 12  1  0
 11 13  1  0
 13 14  1  0
 14 15  1  0
 14 16  1  0
 14 17  1  0
 17 18  2  0
 18 19  1  0
 18 20  1  0
 20 21  1  0
 20 22  2  0
 22 23  1  0
 23 24  1  0
 23 25  2  0
 25 26  1  0
 25 27  1  0
 27 28  1  0
 27 29  2  0
 29 30  1  0
 29 31  1  0
 31 32  2  0
 32 33  1  0
  6 34  1  0
 34 35  1  0
 34 36  2  0
 36 37  1  0
 36  2  1  0
 13  7  1  0
 32 17  1  0
 31 22  1  0
M  END
>  <cnnaffinity>  (1) 
-4.6707

>  <filename>  (1) 
c1cncc(-c2cncn2Cc2ccc3ccccc3c2)c1

$$$$
