
     RDKit          3D

 31 34  0  0  0  0  0  0  0  0999 V2000
    5.0114    1.7763   16.9852 H   0  0  0  0  0  0  0  0  0  0  0  0
    5.4600    1.2791   17.8400 C   0  0  0  0  0  0  0  0  0  0  0  0
    6.6213    0.6496   17.6041 N   0  0  0  0  0  0  0  0  0  0  0  0
    7.1976    0.0184   18.6303 C   0  0  0  0  0  0  0  0  0  0  0  0
    8.1403   -0.4843   18.4112 H   0  0  0  0  0  0  0  0  0  0  0  0
    6.6528   -0.0249   19.9216 C   0  0  0  0  0  0  0  0  0  0  0  0
    7.3448   -0.7591   20.9910 C   0  0  0  0  0  0  0  0  0  0  0  0
    6.8303   -0.9132   22.1716 N   0  0  0  0  0  0  0  0  0  0  0  0
    7.6732   -1.5776   23.0280 C   0  0  0  0  0  0  0  0  0  0  0  0
    7.2650   -1.7686   24.4389 C   0  0  0  0  0  0  0  0  0  0  0  0
    5.9885   -2.2660   24.7368 C   0  0  0  0  0  0  0  0  0  0  0  0
    5.3485   -2.5747   23.9123 H   0  0  0  0  0  0  0  0  0  0  0  0
    5.5464   -2.3843   26.0659 C   0  0  0  0  0  0  0  0  0  0  0  0
    4.5278   -2.7206   26.2453 H   0  0  0  0  0  0  0  0  0  0  0  0
    6.3651   -2.0299   27.1381 C   0  0  0  0  0  0  0  0  0  0  0  0
    6.0156   -2.0946   28.1678 H   0  0  0  0  0  0  0  0  0  0  0  0
    7.6670   -1.5844   26.8431 C   0  0  0  0  0  0  0  0  0  0  0  0
    8.1362   -1.4335   25.5106 C   0  0  0  0  0  0  0  0  0  0  0  0
    9.4653   -0.8804   25.6013 C   0  0  0  0  0  0  0  0  0  0  0  0
   10.0913   -0.5933   24.7616 H   0  0  0  0  0  0  0  0  0  0  0  0
    9.7516   -0.7458   26.9317 C   0  0  0  0  0  0  0  0  0  0  0  0
   10.6235   -0.3457   27.4330 H   0  0  0  0  0  0  0  0  0  0  0  0
    8.6827   -1.1829   27.6806 N   0  0  0  0  0  0  0  0  0  0  0  0
    8.6654   -1.2591   28.6865 H   0  0  0  0  0  0  0  0  0  0  0  0
    8.8324   -2.0173   22.4621 C   0  0  0  0  0  0  0  0  0  0  0  0
    9.5852   -2.6331   22.9281 H   0  0  0  0  0  0  0  0  0  0  0  0
    8.9218   -1.5048   20.8216 S   0  0  0  0  0  0  0  0  0  0  0  0
    5.4357    0.6503   20.1567 C   0  0  0  0  0  0  0  0  0  0  0  0
    4.9866    0.6527   21.1521 H   0  0  0  0  0  0  0  0  0  0  0  0
    4.8305    1.3082   19.0896 C   0  0  0  0  0  0  0  0  0  0  0  0
    3.8933    1.8445   19.2098 H   0  0  0  0  0  0  0  0  0  0  0  0
  1  2  1  0
  2  3  2  0
  3  4  1  0
  4  5  1  0
  4  6  2  0
  6  7  1  0
  7  8  2  0
  8  9  1  0
  9 10  1  0
 10 11  2  0
 11 12  1  0
 11 13  1  0
 13 14  1  0
 13 15  2  0
 15 16  1  0
 15 17  1  0
 17 18  2  0
 18 19  1  0
 19 20  1  0
 19 21  2  0
 21 22  1  0
 21 23  1  0
 23 24  1  0
  9 25  2  0
 25 26  1  0
 25 27  1  0
  6 28  1  0
 28 29  1  0
 28 30  2  0
 30 31  1  0
 30  2  1  0
 27  7  1  0
 18 10  1  0
 23 17  1  0
M  END
>  <cnnaffinity>  (1) 
-5.32751

>  <filename>  (1) 
c1cncc(-c2nc(-c3cccc4[nH]ccc34)cs2)c1

$$$$
