
     RDKit          3D

 39 42  0  0  0  0  0  0  0  0999 V2000
    4.7919    1.3787   18.9908 C   0  0  0  0  0  0  0  0  0  0  0  0
    5.4131    1.3102   17.7409 C   0  0  0  0  0  0  0  0  0  0  0  0
    6.5453    0.6180   17.5259 N   0  0  0  0  0  0  0  0  0  0  0  0
    7.1031   -0.0130   18.5629 C   0  0  0  0  0  0  0  0  0  0  0  0
    6.5956    0.0611   19.8747 C   0  0  0  0  0  0  0  0  0  0  0  0
    7.2984   -0.5683   20.9403 N   0  0  0  0  0  0  0  0  0  0  0  0
    7.6662   -1.8708   20.8237 N   0  0  0  0  0  0  0  0  0  0  0  0
    8.1933   -2.1444   22.0056 C   0  0  0  0  0  0  0  0  0  0  0  0
    8.7051   -3.5130   22.3845 C   0  0  0  0  0  0  0  0  0  0  0  0
    7.9037   -4.6775   21.7564 C   0  0  0  0  0  0  0  0  0  0  0  0
    8.2596   -5.9156   22.5894 C   0  0  0  0  0  0  0  0  0  0  0  0
    8.6171   -5.4091   24.0051 C   0  0  0  0  0  0  0  0  0  0  0  0
    8.7142   -3.8615   23.8996 C   0  0  0  0  0  0  0  0  0  0  0  0
    7.8494   -3.3969   24.3885 H   0  0  0  0  0  0  0  0  0  0  0  0
    9.6161   -3.4787   24.3900 H   0  0  0  0  0  0  0  0  0  0  0  0
    9.5671   -5.8581   24.3293 H   0  0  0  0  0  0  0  0  0  0  0  0
    7.8594   -5.7199   24.7369 H   0  0  0  0  0  0  0  0  0  0  0  0
    9.1244   -6.4294   22.1604 H   0  0  0  0  0  0  0  0  0  0  0  0
    7.4488   -6.6528   22.5869 H   0  0  0  0  0  0  0  0  0  0  0  0
    8.1144   -4.8270   20.6913 H   0  0  0  0  0  0  0  0  0  0  0  0
    6.8363   -4.4302   21.8612 H   0  0  0  0  0  0  0  0  0  0  0  0
    9.7464   -3.4629   22.0519 H   0  0  0  0  0  0  0  0  0  0  0  0
    8.2730   -1.0822   22.8409 N   0  0  0  0  0  0  0  0  0  0  0  0
    7.6774   -0.1133   22.1699 C   0  0  0  0  0  0  0  0  0  0  0  0
    7.4951    1.2654   22.7349 C   0  0  0  0  0  0  0  0  0  0  0  0
    6.6046    1.2753   23.9600 C   0  0  0  0  0  0  0  0  0  0  0  0
    6.9560    0.8149   25.2000 C   0  0  0  0  0  0  0  0  0  0  0  0
    5.8460    0.8760   26.0924 C   0  0  0  0  0  0  0  0  0  0  0  0
    4.7276    1.3471   25.6023 N   0  0  0  0  0  0  0  0  0  0  0  0
    4.9565    1.7413   24.0061 S   0  0  0  0  0  0  0  0  0  0  0  0
    5.8605    0.5577   27.1339 H   0  0  0  0  0  0  0  0  0  0  0  0
    7.9333    0.4118   25.4341 H   0  0  0  0  0  0  0  0  0  0  0  0
    8.4970    1.5803   23.0513 H   0  0  0  0  0  0  0  0  0  0  0  0
    7.1618    1.9710   21.9686 H   0  0  0  0  0  0  0  0  0  0  0  0
    5.3985    0.7564   20.0884 C   0  0  0  0  0  0  0  0  0  0  0  0
    4.9461    0.7989   21.0796 H   0  0  0  0  0  0  0  0  0  0  0  0
    7.9993   -0.5922   18.3502 H   0  0  0  0  0  0  0  0  0  0  0  0
    4.9903    1.8230   16.8777 H   0  0  0  0  0  0  0  0  0  0  0  0
    3.8563    1.9147   19.0929 H   0  0  0  0  0  0  0  0  0  0  0  0
  1  2  2  0
  2  3  1  0
  3  4  2  0
  4  5  1  0
  5  6  1  0
  6  7  1  0
  7  8  2  0
  8  9  1  0
  9 10  1  0
 10 11  1  0
 11 12  1  0
 12 13  1  0
 13 14  1  0
 13 15  1  0
 12 16  1  0
 12 17  1  0
 11 18  1  0
 11 19  1  0
 10 20  1  0
 10 21  1  0
  9 22  1  0
  8 23  1  0
 23 24  2  0
 24 25  1  0
 25 26  1  0
 26 27  2  0
 27 28  1  0
 28 29  2  0
 29 30  1  0
 28 31  1  0
 27 32  1  0
 25 33  1  0
 25 34  1  0
  5 35  2  0
 35 36  1  0
  4 37  1  0
  2 38  1  0
  1 39  1  0
 35  1  1  0
 24  6  1  0
 30 26  1  0
 13  9  1  0
M  END
>  <cnnaffinity>  (1) 
-5.90301

>  <filename>  (1) 
c1cncc(-n2nc(C3CCCC3)nc2Cc2ccns2)c1

$$$$
