
     RDKit          3D

 35 39  0  0  0  0  0  0  0  0999 V2000
    4.9492    1.8296   16.9534 H   0  0  0  0  0  0  0  0  0  0  0  0
    5.4044    1.3032   17.7881 C   0  0  0  0  0  0  0  0  0  0  0  0
    6.5593    0.6708   17.5322 N   0  0  0  0  0  0  0  0  0  0  0  0
    7.1499    0.0190   18.5387 C   0  0  0  0  0  0  0  0  0  0  0  0
    8.1039   -0.4517   18.3048 H   0  0  0  0  0  0  0  0  0  0  0  0
    6.6195   -0.0481   19.8395 C   0  0  0  0  0  0  0  0  0  0  0  0
    7.3678   -0.6999   20.9279 C   0  0  0  0  0  0  0  0  0  0  0  0
    8.4784   -1.4201   20.7014 N   0  0  0  0  0  0  0  0  0  0  0  0
    8.8990   -1.7120   21.9498 N   0  0  0  0  0  0  0  0  0  0  0  0
   10.0827   -2.2170   22.4738 C   0  0  0  0  0  0  0  0  0  0  0  0
   10.8302   -2.5971   21.8017 H   0  0  0  0  0  0  0  0  0  0  0  0
   10.0244   -2.0121   23.8096 C   0  0  0  0  0  0  0  0  0  0  0  0
   10.7432   -2.2120   24.5927 H   0  0  0  0  0  0  0  0  0  0  0  0
    8.7946   -1.4087   24.1213 N   0  0  0  0  0  0  0  0  0  0  0  0
    8.3796   -0.9488   25.3631 C   0  0  0  0  0  0  0  0  0  0  0  0
    9.1446   -0.7992   26.4037 N   0  0  0  0  0  0  0  0  0  0  0  0
    8.3112   -0.2471   27.3606 C   0  0  0  0  0  0  0  0  0  0  0  0
    8.6228    0.1801   28.6552 C   0  0  0  0  0  0  0  0  0  0  0  0
    9.6280    0.0075   29.0255 H   0  0  0  0  0  0  0  0  0  0  0  0
    7.6186    0.7439   29.4407 C   0  0  0  0  0  0  0  0  0  0  0  0
    7.8431    1.0892   30.4488 H   0  0  0  0  0  0  0  0  0  0  0  0
    6.2957    0.8283   28.9449 C   0  0  0  0  0  0  0  0  0  0  0  0
    5.5207    1.2473   29.5776 H   0  0  0  0  0  0  0  0  0  0  0  0
    5.9566    0.3879   27.6623 C   0  0  0  0  0  0  0  0  0  0  0  0
    4.9254    0.4237   27.3151 H   0  0  0  0  0  0  0  0  0  0  0  0
    6.9891   -0.1236   26.8719 C   0  0  0  0  0  0  0  0  0  0  0  0
    7.0776   -0.5752   25.5652 N   0  0  0  0  0  0  0  0  0  0  0  0
    6.3447   -0.8549   24.9423 H   0  0  0  0  0  0  0  0  0  0  0  0
    8.1161   -1.2134   22.9178 C   0  0  0  0  0  0  0  0  0  0  0  0
    7.0726   -0.5518   22.3047 C   0  0  0  0  0  0  0  0  0  0  0  0
    6.2990    0.0490   22.7493 H   0  0  0  0  0  0  0  0  0  0  0  0
    5.4087    0.6249   20.0857 C   0  0  0  0  0  0  0  0  0  0  0  0
    4.9657    0.6424   21.0818 H   0  0  0  0  0  0  0  0  0  0  0  0
    4.7916    1.3075   19.0440 C   0  0  0  0  0  0  0  0  0  0  0  0
    3.8688    1.8560   19.2000 H   0  0  0  0  0  0  0  0  0  0  0  0
  1  2  1  0
  2  3  2  0
  3  4  1  0
  4  5  1  0
  4  6  2  0
  6  7  1  0
  7  8  2  0
  8  9  1  0
  9 10  1  0
 10 11  1  0
 10 12  2  0
 12 13  1  0
 12 14  1  0
 14 15  1  0
 15 16  2  0
 16 17  1  0
 17 18  2  0
 18 19  1  0
 18 20  1  0
 20 21  1  0
 20 22  2  0
 22 23  1  0
 22 24  1  0
 24 25  1  0
 24 26  2  0
 26 27  1  0
 27 28  1  0
 14 29  1  0
 29 30  2  0
 30 31  1  0
  6 32  1  0
 32 33  1  0
 32 34  2  0
 34 35  1  0
 34  2  1  0
 30  7  1  0
 29  9  1  0
 27 15  1  0
 26 17  1  0
M  END
>  <cnnaffinity>  (1) 
-5.80435

>  <filename>  (1) 
c1cncc(-c2cc3n(-c4nc5ccccc5[nH]4)ccn3n2)c1

$$$$
