
     RDKit          3D

 45 48  0  0  0  0  0  0  0  0999 V2000
    4.8508    1.4223   18.9481 C   0  0  0  0  0  0  0  0  0  0  0  0
    5.5070    1.2257   17.7310 C   0  0  0  0  0  0  0  0  0  0  0  0
    6.6490    0.5248   17.6160 N   0  0  0  0  0  0  0  0  0  0  0  0
    7.1688    0.0010   18.7280 C   0  0  0  0  0  0  0  0  0  0  0  0
    6.6026    0.1727   20.0030 C   0  0  0  0  0  0  0  0  0  0  0  0
    7.2694   -0.3829   21.1261 N   0  0  0  0  0  0  0  0  0  0  0  0
    7.7962   -1.6355   21.0608 N   0  0  0  0  0  0  0  0  0  0  0  0
    8.3543   -1.7875   22.2459 C   0  0  0  0  0  0  0  0  0  0  0  0
    9.1382   -3.0044   22.5924 C   0  0  0  0  0  0  0  0  0  0  0  0
   10.5632   -2.7669   23.1855 C   0  0  0  0  0  0  0  0  0  0  0  0
   10.2141   -3.6930   24.3690 C   0  0  0  0  0  0  0  0  0  0  0  0
    8.7571   -3.8146   23.8715 C   0  0  0  0  0  0  0  0  0  0  0  0
    8.0125   -3.3147   24.4980 H   0  0  0  0  0  0  0  0  0  0  0  0
    8.4201   -4.8411   23.6870 H   0  0  0  0  0  0  0  0  0  0  0  0
   10.7572   -4.6398   24.3553 H   0  0  0  0  0  0  0  0  0  0  0  0
   10.3359   -3.2694   25.3674 H   0  0  0  0  0  0  0  0  0  0  0  0
   11.3916   -3.0990   22.5524 H   0  0  0  0  0  0  0  0  0  0  0  0
   10.7332   -1.7211   23.4662 H   0  0  0  0  0  0  0  0  0  0  0  0
    9.1249   -3.6145   21.6876 H   0  0  0  0  0  0  0  0  0  0  0  0
    8.2556   -0.7032   23.0613 N   0  0  0  0  0  0  0  0  0  0  0  0
    7.6046    0.1777   22.3243 C   0  0  0  0  0  0  0  0  0  0  0  0
    7.5100    1.6360   22.6425 C   0  0  0  0  0  0  0  0  0  0  0  0
    8.7331    2.4629   22.1835 C   0  0  0  0  0  0  0  0  0  0  0  0
   10.0699    2.0243   22.8092 C   0  0  0  0  0  0  0  0  0  0  0  0
   11.1771    2.9716   22.4239 C   0  0  0  0  0  0  0  0  0  0  0  0
   11.6169    3.9725   23.2971 C   0  0  0  0  0  0  0  0  0  0  0  0
   12.5408    4.9162   22.8429 C   0  0  0  0  0  0  0  0  0  0  0  0
   13.0575    4.9221   21.6088 N   0  0  0  0  0  0  0  0  0  0  0  0
   12.6558    3.9441   20.7864 C   0  0  0  0  0  0  0  0  0  0  0  0
   11.7410    2.9502   21.1401 C   0  0  0  0  0  0  0  0  0  0  0  0
   11.4601    2.1884   20.4222 H   0  0  0  0  0  0  0  0  0  0  0  0
   13.0867    3.9560   19.7869 H   0  0  0  0  0  0  0  0  0  0  0  0
   12.8911    5.7014   23.5101 H   0  0  0  0  0  0  0  0  0  0  0  0
   11.2350    4.0265   24.3096 H   0  0  0  0  0  0  0  0  0  0  0  0
   10.3077    0.9979   22.4936 H   0  0  0  0  0  0  0  0  0  0  0  0
    9.9611    1.9937   23.9042 H   0  0  0  0  0  0  0  0  0  0  0  0
    8.8199    2.4467   21.0866 H   0  0  0  0  0  0  0  0  0  0  0  0
    8.5418    3.5120   22.4373 H   0  0  0  0  0  0  0  0  0  0  0  0
    7.3850    1.7225   23.7275 H   0  0  0  0  0  0  0  0  0  0  0  0
    6.6087    2.0548   22.1938 H   0  0  0  0  0  0  0  0  0  0  0  0
    5.4041    0.8900   20.1191 C   0  0  0  0  0  0  0  0  0  0  0  0
    4.9122    1.0187   21.0842 H   0  0  0  0  0  0  0  0  0  0  0  0
    8.0892   -0.5722   18.6301 H   0  0  0  0  0  0  0  0  0  0  0  0
    5.1051    1.6350   16.8070 H   0  0  0  0  0  0  0  0  0  0  0  0
    3.9332    1.9976   18.9774 H   0  0  0  0  0  0  0  0  0  0  0  0
  1  2  2  0
  2  3  1  0
  3  4  2  0
  4  5  1  0
  5  6  1  0
  6  7  1  0
  7  8  2  0
  8  9  1  0
  9 10  1  0
 10 11  1  0
 11 12  1  0
 12 13  1  0
 12 14  1  0
 11 15  1  0
 11 16  1  0
 10 17  1  0
 10 18  1  0
  9 19  1  0
  8 20  1  0
 20 21  2  0
 21 22  1  0
 22 23  1  0
 23 24  1  0
 24 25  1  0
 25 26  2  0
 26 27  1  0
 27 28  2  0
 28 29  1  0
 29 30  2  0
 30 31  1  0
 29 32  1  0
 27 33  1  0
 26 34  1  0
 24 35  1  0
 24 36  1  0
 23 37  1  0
 23 38  1  0
 22 39  1  0
 22 40  1  0
  5 41  2  0
 41 42  1  0
  4 43  1  0
  2 44  1  0
  1 45  1  0
 41  1  1  0
 21  6  1  0
 30 25  1  0
 12  9  1  0
M  END
>  <cnnaffinity>  (1) 
-6.36243

>  <filename>  (1) 
c1cncc(-n2nc(C3CCC3)nc2CCCc2ccncc2)c1

$$$$
