
     RDKit          3D

 30 33  0  0  0  0  0  0  0  0999 V2000
    4.9102    1.7707   17.0062 H   0  0  0  0  0  0  0  0  0  0  0  0
    5.4039    1.2889   17.8479 C   0  0  0  0  0  0  0  0  0  0  0  0
    6.5728    0.6753   17.5943 N   0  0  0  0  0  0  0  0  0  0  0  0
    7.1826    0.0562   18.6116 C   0  0  0  0  0  0  0  0  0  0  0  0
    8.1292   -0.4336   18.3765 H   0  0  0  0  0  0  0  0  0  0  0  0
    6.6604    0.0044   19.9164 C   0  0  0  0  0  0  0  0  0  0  0  0
    7.3553   -0.6982   21.0028 C   0  0  0  0  0  0  0  0  0  0  0  0
    6.8833   -0.7642   22.2135 N   0  0  0  0  0  0  0  0  0  0  0  0
    7.7166   -1.4817   23.0449 C   0  0  0  0  0  0  0  0  0  0  0  0
    7.3909   -1.7385   24.4538 C   0  0  0  0  0  0  0  0  0  0  0  0
    7.8430   -2.8149   25.1583 C   0  0  0  0  0  0  0  0  0  0  0  0
    8.4855   -3.6092   24.7909 H   0  0  0  0  0  0  0  0  0  0  0  0
    7.2600   -2.8962   26.7818 S   0  0  0  0  0  0  0  0  0  0  0  0
    6.3683   -1.4138   26.5681 C   0  0  0  0  0  0  0  0  0  0  0  0
    5.5752   -0.7600   27.5298 C   0  0  0  0  0  0  0  0  0  0  0  0
    5.4610   -1.1852   28.5258 H   0  0  0  0  0  0  0  0  0  0  0  0
    4.9581    0.4340   27.1768 C   0  0  0  0  0  0  0  0  0  0  0  0
    4.3435    0.9578   27.9018 H   0  0  0  0  0  0  0  0  0  0  0  0
    5.1298    0.9785   25.8882 C   0  0  0  0  0  0  0  0  0  0  0  0
    4.6527    1.9160   25.6266 H   0  0  0  0  0  0  0  0  0  0  0  0
    5.9119    0.3367   24.9436 C   0  0  0  0  0  0  0  0  0  0  0  0
    6.0653    0.7603   23.9552 H   0  0  0  0  0  0  0  0  0  0  0  0
    6.5346   -0.8890   25.2675 C   0  0  0  0  0  0  0  0  0  0  0  0
    8.8537   -1.9528   22.4474 C   0  0  0  0  0  0  0  0  0  0  0  0
    9.6492   -2.5191   22.9121 H   0  0  0  0  0  0  0  0  0  0  0  0
    8.8942   -1.5005   20.7989 S   0  0  0  0  0  0  0  0  0  0  0  0
    5.4388    0.6545   20.1601 C   0  0  0  0  0  0  0  0  0  0  0  0
    5.0075    0.6267   21.1586 H   0  0  0  0  0  0  0  0  0  0  0  0
    4.8038    1.3120   19.1118 C   0  0  0  0  0  0  0  0  0  0  0  0
    3.8701    1.8462   19.2670 H   0  0  0  0  0  0  0  0  0  0  0  0
  1  2  1  0
  2  3  2  0
  3  4  1  0
  4  5  1  0
  4  6  2  0
  6  7  1  0
  7  8  2  0
  8  9  1  0
  9 10  1  0
 10 11  2  0
 11 12  1  0
 11 13  1  0
 13 14  1  0
 14 15  2  0
 15 16  1  0
 15 17  1  0
 17 18  1  0
 17 19  2  0
 19 20  1  0
 19 21  1  0
 21 22  1  0
 21 23  2  0
  9 24  2  0
 24 25  1  0
 24 26  1  0
  6 27  1  0
 27 28  1  0
 27 29  2  0
 29 30  1  0
 29  2  1  0
 26  7  1  0
 23 10  1  0
 23 14  1  0
M  END
>  <cnnaffinity>  (1) 
-5.50358

>  <filename>  (1) 
c1cncc(-c2nc(-c3csc4ccccc34)cs2)c1

$$$$
