
     RDKit          3D

 34 37  0  0  0  0  0  0  0  0999 V2000
    4.9679    2.0974   16.5184 H   0  0  0  0  0  0  0  0  0  0  0  0
    5.4705    1.5637   17.3220 C   0  0  0  0  0  0  0  0  0  0  0  0
    6.5887    0.9020   16.9830 N   0  0  0  0  0  0  0  0  0  0  0  0
    7.2286    0.2268   17.9459 C   0  0  0  0  0  0  0  0  0  0  0  0
    8.1440   -0.2860   17.6495 H   0  0  0  0  0  0  0  0  0  0  0  0
    6.7769    0.1449   19.2761 C   0  0  0  0  0  0  0  0  0  0  0  0
    7.4315   -0.6925   20.2958 C   0  0  0  0  0  0  0  0  0  0  0  0
    9.1082   -1.1253   20.2621 S   0  0  0  0  0  0  0  0  0  0  0  0
    8.9847   -1.9461   21.7696 C   0  0  0  0  0  0  0  0  0  0  0  0
    9.8406   -2.4301   22.2220 H   0  0  0  0  0  0  0  0  0  0  0  0
    7.7161   -1.9011   22.2821 C   0  0  0  0  0  0  0  0  0  0  0  0
    7.2859   -2.4906   23.5684 C   0  0  0  0  0  0  0  0  0  0  0  0
    6.3089   -3.4755   23.5692 C   0  0  0  0  0  0  0  0  0  0  0  0
    5.7840   -3.7028   22.6433 H   0  0  0  0  0  0  0  0  0  0  0  0
    5.9850   -4.1938   24.7460 C   0  0  0  0  0  0  0  0  0  0  0  0
    5.2356   -4.9815   24.7119 H   0  0  0  0  0  0  0  0  0  0  0  0
    6.6704   -3.9368   25.9090 C   0  0  0  0  0  0  0  0  0  0  0  0
    6.4691   -4.5064   26.8138 H   0  0  0  0  0  0  0  0  0  0  0  0
    7.6475   -2.8999   25.9607 C   0  0  0  0  0  0  0  0  0  0  0  0
    8.3635   -2.6414   27.1629 C   0  0  0  0  0  0  0  0  0  0  0  0
    8.2264   -3.3483   27.9752 H   0  0  0  0  0  0  0  0  0  0  0  0
    9.1723   -1.5395   27.2863 C   0  0  0  0  0  0  0  0  0  0  0  0
    9.6994   -1.3343   28.2154 H   0  0  0  0  0  0  0  0  0  0  0  0
    9.3348   -0.6504   26.1917 C   0  0  0  0  0  0  0  0  0  0  0  0
    9.9413    0.2465   26.3181 H   0  0  0  0  0  0  0  0  0  0  0  0
    8.7204   -0.9149   24.9851 C   0  0  0  0  0  0  0  0  0  0  0  0
    8.8081   -0.2096   24.1608 H   0  0  0  0  0  0  0  0  0  0  0  0
    7.9001   -2.0853   24.8119 C   0  0  0  0  0  0  0  0  0  0  0  0
    6.8277   -1.2232   21.3955 C   0  0  0  0  0  0  0  0  0  0  0  0
    5.7567   -1.1595   21.5505 H   0  0  0  0  0  0  0  0  0  0  0  0
    5.6264    0.8761   19.6154 C   0  0  0  0  0  0  0  0  0  0  0  0
    5.2859    0.8983   20.6502 H   0  0  0  0  0  0  0  0  0  0  0  0
    4.9592    1.5899   18.6220 C   0  0  0  0  0  0  0  0  0  0  0  0
    4.0695    2.1663   18.8456 H   0  0  0  0  0  0  0  0  0  0  0  0
  1  2  1  0
  2  3  2  0
  3  4  1  0
  4  5  1  0
  4  6  2  0
  6  7  1  0
  7  8  1  0
  8  9  1  0
  9 10  1  0
  9 11  2  0
 11 12  1  0
 12 13  2  0
 13 14  1  0
 13 15  1  0
 15 16  1  0
 15 17  2  0
 17 18  1  0
 17 19  1  0
 19 20  2  0
 20 21  1  0
 20 22  1  0
 22 23  1  0
 22 24  2  0
 24 25  1  0
 24 26  1  0
 26 27  1  0
 26 28  2  0
 11 29  1  0
 29 30  1  0
  6 31  1  0
 31 32  1  0
 31 33  2  0
 33 34  1  0
 33  2  1  0
 29  7  2  0
 28 12  1  0
 28 19  1  0
M  END
>  <cnnaffinity>  (1) 
-5.06573

>  <filename>  (1) 
c1cncc(-c2cc(-c3cccc4ccccc34)cs2)c1

$$$$
