
     RDKit          3D

 39 43  0  0  0  0  0  0  0  0999 V2000
    4.8796    0.3762   18.8902 C   0  0  0  0  0  0  0  0  0  0  0  0
    5.7062    0.4435   17.7638 C   0  0  0  0  0  0  0  0  0  0  0  0
    6.9344   -0.0968   17.7239 N   0  0  0  0  0  0  0  0  0  0  0  0
    7.3688   -0.7319   18.8162 C   0  0  0  0  0  0  0  0  0  0  0  0
    6.6347   -0.8113   20.0123 C   0  0  0  0  0  0  0  0  0  0  0  0
    7.1714   -1.4541   21.1662 N   0  0  0  0  0  0  0  0  0  0  0  0
    6.4914   -2.4683   21.7644 N   0  0  0  0  0  0  0  0  0  0  0  0
    7.3324   -2.8943   22.6872 C   0  0  0  0  0  0  0  0  0  0  0  0
    6.9616   -4.0357   23.5656 C   0  0  0  0  0  0  0  0  0  0  0  0
    7.1948   -5.4919   23.1198 C   0  0  0  0  0  0  0  0  0  0  0  0
    7.9857   -4.8809   24.2383 C   0  0  0  0  0  0  0  0  0  0  0  0
    9.3787   -4.6809   24.7256 C   0  0  0  0  0  0  0  0  0  0  0  0
    8.2806   -5.1747   25.6646 C   0  0  0  0  0  0  0  0  0  0  0  0
    8.3341   -6.2234   25.9536 H   0  0  0  0  0  0  0  0  0  0  0  0
    7.8655   -4.4972   26.4100 H   0  0  0  0  0  0  0  0  0  0  0  0
   10.1372   -5.4068   24.4384 H   0  0  0  0  0  0  0  0  0  0  0  0
    9.7027   -3.6413   24.7704 H   0  0  0  0  0  0  0  0  0  0  0  0
    6.4443   -6.2222   23.4244 H   0  0  0  0  0  0  0  0  0  0  0  0
    7.6907   -5.6907   22.1688 H   0  0  0  0  0  0  0  0  0  0  0  0
    6.0557   -3.8415   24.1453 H   0  0  0  0  0  0  0  0  0  0  0  0
    8.5050   -2.2026   22.7403 N   0  0  0  0  0  0  0  0  0  0  0  0
    8.3640   -1.2829   21.8113 C   0  0  0  0  0  0  0  0  0  0  0  0
    9.3922   -0.2635   21.4330 C   0  0  0  0  0  0  0  0  0  0  0  0
    8.9097    1.1453   21.6387 C   0  0  0  0  0  0  0  0  0  0  0  0
    8.9705    1.4996   23.1497 C   0  0  0  0  0  0  0  0  0  0  0  0
    8.8544    2.7924   23.2331 C   0  0  0  0  0  0  0  0  0  0  0  0
    9.1583    3.0033   23.1802 C   0  0  0  0  0  0  0  0  0  0  0  0
    8.2975    1.8643   20.8010 N   0  0  0  0  0  0  0  0  0  0  0  0
    8.2600    1.4497   19.8580 H   0  0  0  0  0  0  0  0  0  0  0  0
   10.0961    3.4682   22.7147 H   0  0  0  0  0  0  0  0  0  0  0  0
    8.3596    3.8131   23.6479 H   0  0  0  0  0  0  0  0  0  0  0  0
    7.9589    1.5009   23.4873 H   0  0  0  0  0  0  0  0  0  0  0  0
    9.7262   -0.4432   20.4006 H   0  0  0  0  0  0  0  0  0  0  0  0
   10.2401   -0.4549   22.0915 H   0  0  0  0  0  0  0  0  0  0  0  0
    5.3484   -0.2596   20.0437 C   0  0  0  0  0  0  0  0  0  0  0  0
    4.7345   -0.3470   20.9422 H   0  0  0  0  0  0  0  0  0  0  0  0
    8.3582   -1.1818   18.7457 H   0  0  0  0  0  0  0  0  0  0  0  0
    5.3677    0.9339   16.8543 H   0  0  0  0  0  0  0  0  0  0  0  0
    3.8863    0.8118   18.8494 H   0  0  0  0  0  0  0  0  0  0  0  0
  1  2  2  0
  2  3  1  0
  3  4  2  0
  4  5  1  0
  5  6  1  0
  6  7  1  0
  7  8  2  0
  8  9  1  0
  9 10  1  0
 10 11  1  0
 11 12  1  0
 12 13  1  0
 13 14  1  0
 13 15  1  0
 12 16  1  0
 12 17  1  0
 10 18  1  0
 10 19  1  0
  9 20  1  0
  8 21  1  0
 21 22  2  0
 22 23  1  0
 23 24  1  0
 24 25  2  0
 25 26  1  0
 26 27  2  0
 27 28  1  0
 28 29  1  0
 27 30  1  0
 26 31  1  0
 25 32  1  0
 23 33  1  0
 23 34  1  0
  5 35  2  0
 35 36  1  0
  4 37  1  0
  2 38  1  0
  1 39  1  0
 35  1  1  0
 22  6  1  0
 28 24  1  0
 11  9  1  0
 13 11  1  0
M  END
>  <cnnaffinity>  (1) 
-5.76056

>  <filename>  (1) 
c1cncc(-n2nc(C3CC34CC4)nc2Cc2ccc[nH]2)c1

$$$$
