
     RDKit          3D

 50 53  0  0  0  0  0  0  0  0999 V2000
    4.9697    1.7478   16.9169 H   0  0  0  0  0  0  0  0  0  0  0  0
    5.4336    1.3421   17.8122 C   0  0  0  0  0  0  0  0  0  0  0  0
    6.6358    0.7728   17.6396 N   0  0  0  0  0  0  0  0  0  0  0  0
    7.2188    0.2393   18.7220 C   0  0  0  0  0  0  0  0  0  0  0  0
    8.1724   -0.2630   18.5440 H   0  0  0  0  0  0  0  0  0  0  0  0
    6.6568    0.2332   20.0081 C   0  0  0  0  0  0  0  0  0  0  0  0
    7.3901   -0.4951   21.1216 C   0  0  0  0  0  0  0  0  0  0  0  0
    8.4397    0.3259   21.7574 N   0  0  0  0  0  0  0  0  0  0  0  0
    8.8794   -0.2709   22.4617 H   0  0  0  0  0  0  0  0  0  0  0  0
    7.9163    1.5157   22.3406 N   0  0  0  0  0  0  0  0  0  0  0  0
    8.1742    2.6504   21.4642 C   0  0  0  0  0  0  0  0  0  0  0  0
    8.0628    2.3036   20.4313 H   0  0  0  0  0  0  0  0  0  0  0  0
    9.2163    3.0042   21.5588 H   0  0  0  0  0  0  0  0  0  0  0  0
    7.1692    3.7634   21.7776 C   0  0  0  0  0  0  0  0  0  0  0  0
    6.3003    3.7012   21.1162 H   0  0  0  0  0  0  0  0  0  0  0  0
    7.6396    4.7350   21.5950 H   0  0  0  0  0  0  0  0  0  0  0  0
    6.6210    3.6948   23.2104 C   0  0  0  0  0  0  0  0  0  0  0  0
    5.8009    2.9668   23.2130 H   0  0  0  0  0  0  0  0  0  0  0  0
    6.0371    4.9929   23.5215 N   0  0  0  0  0  0  0  0  0  0  0  0
    6.9489    6.1199   23.7285 C   0  0  0  0  0  0  0  0  0  0  0  0
    6.5609    7.0066   23.2029 H   0  0  0  0  0  0  0  0  0  0  0  0
    7.9507    5.9368   23.3226 H   0  0  0  0  0  0  0  0  0  0  0  0
    6.9468    6.3417   25.2379 C   0  0  0  0  0  0  0  0  0  0  0  0
    7.3352    7.3220   25.5257 H   0  0  0  0  0  0  0  0  0  0  0  0
    7.5698    5.5724   25.7062 H   0  0  0  0  0  0  0  0  0  0  0  0
    5.4710    6.1155   25.5918 C   0  0  0  0  0  0  0  0  0  0  0  0
    5.3196    5.7794   26.6228 H   0  0  0  0  0  0  0  0  0  0  0  0
    4.9059    7.0454   25.4653 H   0  0  0  0  0  0  0  0  0  0  0  0
    4.9983    5.0643   24.5547 C   0  0  0  0  0  0  0  0  0  0  0  0
    4.8300    4.0815   25.0166 H   0  0  0  0  0  0  0  0  0  0  0  0
    4.0342    5.3598   24.1138 H   0  0  0  0  0  0  0  0  0  0  0  0
    7.6791    3.1520   24.1959 C   0  0  0  0  0  0  0  0  0  0  0  0
    8.5289    3.8436   24.2474 H   0  0  0  0  0  0  0  0  0  0  0  0
    7.2480    3.0937   25.2018 H   0  0  0  0  0  0  0  0  0  0  0  0
    8.1850    1.7524   23.7657 C   0  0  0  0  0  0  0  0  0  0  0  0
    7.6485    0.9791   24.3325 H   0  0  0  0  0  0  0  0  0  0  0  0
    9.2571    1.6347   24.0066 H   0  0  0  0  0  0  0  0  0  0  0  0
    7.9535   -1.8609   20.6780 C   0  0  0  0  0  0  0  0  0  0  0  0
    7.3556   -2.1730   19.8175 H   0  0  0  0  0  0  0  0  0  0  0  0
    9.0222   -1.9165   20.4464 H   0  0  0  0  0  0  0  0  0  0  0  0
    7.3964   -2.5561   21.9395 C   0  0  0  0  0  0  0  0  0  0  0  0
    6.8570   -3.4955   21.7617 H   0  0  0  0  0  0  0  0  0  0  0  0
    8.1413   -2.7352   22.7240 H   0  0  0  0  0  0  0  0  0  0  0  0
    6.5218   -1.2855   22.1492 C   0  0  0  0  0  0  0  0  0  0  0  0
    6.4378   -0.8394   23.1500 H   0  0  0  0  0  0  0  0  0  0  0  0
    5.5343   -1.4490   21.7110 H   0  0  0  0  0  0  0  0  0  0  0  0
    5.4213    0.8796   20.1709 C   0  0  0  0  0  0  0  0  0  0  0  0
    4.9679    0.9336   21.1618 H   0  0  0  0  0  0  0  0  0  0  0  0
    4.7853    1.4216   19.0503 C   0  0  0  0  0  0  0  0  0  0  0  0
    3.8033    1.8820   19.1164 H   0  0  0  0  0  0  0  0  0  0  0  0
  1  2  1  0
  2  3  2  0
  3  4  1  0
  4  5  1  0
  4  6  2  0
  6  7  1  0
  7  8  1  0
  8  9  1  0
  8 10  1  0
 10 11  1  0
 11 12  1  0
 11 13  1  0
 11 14  1  0
 14 15  1  0
 14 16  1  0
 14 17  1  0
 17 18  1  0
 17 19  1  0
 19 20  1  0
 20 21  1  0
 20 22  1  0
 20 23  1  0
 23 24  1  0
 23 25  1  0
 23 26  1  0
 26 27  1  0
 26 28  1  0
 26 29  1  0
 29 30  1  0
 29 31  1  0
 17 32  1  0
 32 33  1  0
 32 34  1  0
 32 35  1  0
 35 36  1  0
 35 37  1  0
  7 38  1  0
 38 39  1  0
 38 40  1  0
 38 41  1  0
 41 42  1  0
 41 43  1  0
 41 44  1  0
 44 45  1  0
 44 46  1  0
  6 47  1  0
 47 48  1  0
 47 49  2  0
 49 50  1  0
 49  2  1  0
 44  7  1  0
 35 10  1  0
 29 19  1  0
M  END
>  <cnnaffinity>  (1) 
-4.76264

>  <filename>  (1) 
c1cncc(C2(NN3CCC(N4CCCC4)CC3)CCC2)c1

$$$$
