
     RDKit          3D

 32 35  0  0  0  0  0  0  0  0999 V2000
    4.9202    1.7728   17.0028 H   0  0  0  0  0  0  0  0  0  0  0  0
    5.4080    1.2866   17.8475 C   0  0  0  0  0  0  0  0  0  0  0  0
    6.5732    0.6691   17.5991 N   0  0  0  0  0  0  0  0  0  0  0  0
    7.1790    0.0534   18.6199 C   0  0  0  0  0  0  0  0  0  0  0  0
    8.1243   -0.4293   18.3752 H   0  0  0  0  0  0  0  0  0  0  0  0
    6.6564    0.0028   19.9231 C   0  0  0  0  0  0  0  0  0  0  0  0
    7.3566   -0.7006   21.0150 C   0  0  0  0  0  0  0  0  0  0  0  0
    6.9086   -0.7403   22.2350 N   0  0  0  0  0  0  0  0  0  0  0  0
    7.7302   -1.4674   23.0568 C   0  0  0  0  0  0  0  0  0  0  0  0
    7.4202   -1.6188   24.4868 C   0  0  0  0  0  0  0  0  0  0  0  0
    7.1250   -0.4970   25.2336 C   0  0  0  0  0  0  0  0  0  0  0  0
    7.0791    0.4775   24.7647 H   0  0  0  0  0  0  0  0  0  0  0  0
    6.9090   -0.5016   26.5750 N   0  0  0  0  0  0  0  0  0  0  0  0
    6.9653   -1.6616   27.1954 C   0  0  0  0  0  0  0  0  0  0  0  0
    6.7717   -1.6562   28.2628 H   0  0  0  0  0  0  0  0  0  0  0  0
    7.2360   -2.9068   26.5590 C   0  0  0  0  0  0  0  0  0  0  0  0
    7.2696   -4.1516   27.2659 C   0  0  0  0  0  0  0  0  0  0  0  0
    7.1005   -4.1822   28.3385 H   0  0  0  0  0  0  0  0  0  0  0  0
    7.4935   -5.3245   26.5914 C   0  0  0  0  0  0  0  0  0  0  0  0
    7.5166   -6.2719   27.1272 H   0  0  0  0  0  0  0  0  0  0  0  0
    7.6842   -5.3138   25.1847 C   0  0  0  0  0  0  0  0  0  0  0  0
    7.8487   -6.2461   24.6588 H   0  0  0  0  0  0  0  0  0  0  0  0
    7.6562   -4.1311   24.4793 C   0  0  0  0  0  0  0  0  0  0  0  0
    7.7684   -4.1315   23.4009 H   0  0  0  0  0  0  0  0  0  0  0  0
    7.4548   -2.8881   25.1500 C   0  0  0  0  0  0  0  0  0  0  0  0
    8.8573   -1.9411   22.4516 C   0  0  0  0  0  0  0  0  0  0  0  0
    9.6499   -2.4940   22.9246 H   0  0  0  0  0  0  0  0  0  0  0  0
    8.8906   -1.5126   20.7920 S   0  0  0  0  0  0  0  0  0  0  0  0
    5.4352    0.6531   20.1655 C   0  0  0  0  0  0  0  0  0  0  0  0
    5.0045    0.6313   21.1689 H   0  0  0  0  0  0  0  0  0  0  0  0
    4.8054    1.3097   19.1109 C   0  0  0  0  0  0  0  0  0  0  0  0
    3.8723    1.8445   19.2619 H   0  0  0  0  0  0  0  0  0  0  0  0
  1  2  1  0
  2  3  2  0
  3  4  1  0
  4  5  1  0
  4  6  2  0
  6  7  1  0
  7  8  2  0
  8  9  1  0
  9 10  1  0
 10 11  2  0
 11 12  1  0
 11 13  1  0
 13 14  2  0
 14 15  1  0
 14 16  1  0
 16 17  2  0
 17 18  1  0
 17 19  1  0
 19 20  1  0
 19 21  2  0
 21 22  1  0
 21 23  1  0
 23 24  1  0
 23 25  2  0
  9 26  2  0
 26 27  1  0
 26 28  1  0
  6 29  1  0
 29 30  1  0
 29 31  2  0
 31 32  1  0
 31  2  1  0
 28  7  1  0
 25 10  1  0
 25 16  1  0
M  END
>  <cnnaffinity>  (1) 
-5.5089

>  <filename>  (1) 
c1cncc(-c2nc(-c3cncc4ccccc34)cs2)c1

$$$$
