
     RDKit          3D

 42 45  0  0  0  0  0  0  0  0999 V2000
    4.8120    1.3115   19.1085 C   0  0  0  0  0  0  0  0  0  0  0  0
    5.4016    1.2957   17.8371 C   0  0  0  0  0  0  0  0  0  0  0  0
    6.5622    0.6754   17.5752 N   0  0  0  0  0  0  0  0  0  0  0  0
    7.1708    0.0566   18.5924 C   0  0  0  0  0  0  0  0  0  0  0  0
    6.6589    0.0109   19.8993 C   0  0  0  0  0  0  0  0  0  0  0  0
    7.3560   -0.6679   20.9349 N   0  0  0  0  0  0  0  0  0  0  0  0
    6.7257   -1.6088   21.6899 N   0  0  0  0  0  0  0  0  0  0  0  0
    7.6508   -1.9608   22.5557 C   0  0  0  0  0  0  0  0  0  0  0  0
    7.4243   -2.9179   23.6746 C   0  0  0  0  0  0  0  0  0  0  0  0
    7.5194   -2.2921   25.1030 C   0  0  0  0  0  0  0  0  0  0  0  0
    8.7198   -3.2088   25.4211 C   0  0  0  0  0  0  0  0  0  0  0  0
    8.6136   -3.8596   24.0244 C   0  0  0  0  0  0  0  0  0  0  0  0
    8.3528   -4.9204   24.0372 H   0  0  0  0  0  0  0  0  0  0  0  0
    9.4946   -3.7258   23.3888 H   0  0  0  0  0  0  0  0  0  0  0  0
    8.5626   -3.8916   26.2613 H   0  0  0  0  0  0  0  0  0  0  0  0
    9.6556   -2.6704   25.5906 H   0  0  0  0  0  0  0  0  0  0  0  0
    6.6370   -2.4537   25.7266 H   0  0  0  0  0  0  0  0  0  0  0  0
    7.7471   -1.2203   25.1022 H   0  0  0  0  0  0  0  0  0  0  0  0
    6.4834   -3.4365   23.4855 H   0  0  0  0  0  0  0  0  0  0  0  0
    8.8405   -1.3140   22.4134 N   0  0  0  0  0  0  0  0  0  0  0  0
    8.6228   -0.4876   21.4164 C   0  0  0  0  0  0  0  0  0  0  0  0
    9.5267    0.6081   20.9470 C   0  0  0  0  0  0  0  0  0  0  0  0
    9.0522    2.0081   21.3848 C   0  0  0  0  0  0  0  0  0  0  0  0
    8.9085    2.1552   22.9129 C   0  0  0  0  0  0  0  0  0  0  0  0
   10.2013    1.9539   23.6501 C   0  0  0  0  0  0  0  0  0  0  0  0
   11.3003    2.7471   23.5947 C   0  0  0  0  0  0  0  0  0  0  0  0
   12.4018    2.3383   24.2991 N   0  0  0  0  0  0  0  0  0  0  0  0
   12.1404    1.2219   24.8972 C   0  0  0  0  0  0  0  0  0  0  0  0
   10.5574    0.6000   24.6554 S   0  0  0  0  0  0  0  0  0  0  0  0
   12.8382    0.6963   25.5332 H   0  0  0  0  0  0  0  0  0  0  0  0
   11.3556    3.6766   23.0399 H   0  0  0  0  0  0  0  0  0  0  0  0
    8.5286    3.1598   23.1337 H   0  0  0  0  0  0  0  0  0  0  0  0
    8.1582    1.4479   23.2847 H   0  0  0  0  0  0  0  0  0  0  0  0
    8.0915    2.2355   20.9046 H   0  0  0  0  0  0  0  0  0  0  0  0
    9.7697    2.7506   21.0203 H   0  0  0  0  0  0  0  0  0  0  0  0
    9.6001    0.5793   19.8569 H   0  0  0  0  0  0  0  0  0  0  0  0
   10.5295    0.4048   21.3370 H   0  0  0  0  0  0  0  0  0  0  0  0
    5.4397    0.6465   20.1653 C   0  0  0  0  0  0  0  0  0  0  0  0
    5.0153    0.6111   21.1717 H   0  0  0  0  0  0  0  0  0  0  0  0
    8.1151   -0.4347   18.3714 H   0  0  0  0  0  0  0  0  0  0  0  0
    4.9166    1.7835   16.9939 H   0  0  0  0  0  0  0  0  0  0  0  0
    3.8782    1.8407   19.2616 H   0  0  0  0  0  0  0  0  0  0  0  0
  1  2  2  0
  2  3  1  0
  3  4  2  0
  4  5  1  0
  5  6  1  0
  6  7  1  0
  7  8  2  0
  8  9  1  0
  9 10  1  0
 10 11  1  0
 11 12  1  0
 12 13  1  0
 12 14  1  0
 11 15  1  0
 11 16  1  0
 10 17  1  0
 10 18  1  0
  9 19  1  0
  8 20  1  0
 20 21  2  0
 21 22  1  0
 22 23  1  0
 23 24  1  0
 24 25  1  0
 25 26  2  0
 26 27  1  0
 27 28  2  0
 28 29  1  0
 28 30  1  0
 26 31  1  0
 24 32  1  0
 24 33  1  0
 23 34  1  0
 23 35  1  0
 22 36  1  0
 22 37  1  0
  5 38  2  0
 38 39  1  0
  4 40  1  0
  2 41  1  0
  1 42  1  0
 38  1  1  0
 21  6  1  0
 29 25  1  0
 12  9  1  0
M  END
>  <cnnaffinity>  (1) 
-6.26293

>  <filename>  (1) 
c1cncc(-n2nc(C3CCC3)nc2CCCc2cncs2)c1

$$$$
