
     RDKit          3D

 41 44  0  0  0  0  0  0  0  0999 V2000
    7.2679    5.4441   25.2605 C   0  0  0  0  0  0  0  0  0  0  0  0
    8.0956    5.2749   24.1595 C   0  0  0  0  0  0  0  0  0  0  0  0
    8.4732    4.0779   23.7230 N   0  0  0  0  0  0  0  0  0  0  0  0
    8.0008    3.0185   24.3864 C   0  0  0  0  0  0  0  0  0  0  0  0
    8.2857    1.6674   23.8068 C   0  0  0  0  0  0  0  0  0  0  0  0
    7.1733    1.2273   22.8038 C   0  0  0  0  0  0  0  0  0  0  0  0
    7.3909   -0.1453   22.2550 C   0  0  0  0  0  0  0  0  0  0  0  0
    7.9095   -1.1142   22.9806 N   0  0  0  0  0  0  0  0  0  0  0  0
    8.1674   -2.0830   22.0733 C   0  0  0  0  0  0  0  0  0  0  0  0
    8.9720   -3.2815   22.4259 C   0  0  0  0  0  0  0  0  0  0  0  0
   10.3254   -2.9742   23.1652 C   0  0  0  0  0  0  0  0  0  0  0  0
    9.9408   -3.9794   24.2762 C   0  0  0  0  0  0  0  0  0  0  0  0
    8.5458   -4.1860   23.6295 C   0  0  0  0  0  0  0  0  0  0  0  0
    8.3037   -5.2197   23.3481 H   0  0  0  0  0  0  0  0  0  0  0  0
    7.7130   -3.7701   24.2120 H   0  0  0  0  0  0  0  0  0  0  0  0
    9.9149   -3.5666   25.2917 H   0  0  0  0  0  0  0  0  0  0  0  0
   10.5660   -4.8777   24.3080 H   0  0  0  0  0  0  0  0  0  0  0  0
   10.3676   -1.9408   23.5328 H   0  0  0  0  0  0  0  0  0  0  0  0
   11.2509   -3.1524   22.6063 H   0  0  0  0  0  0  0  0  0  0  0  0
    9.0380   -3.8214   21.4811 H   0  0  0  0  0  0  0  0  0  0  0  0
    7.7851   -1.8066   20.8397 N   0  0  0  0  0  0  0  0  0  0  0  0
    7.2330   -0.5702   20.9637 N   0  0  0  0  0  0  0  0  0  0  0  0
    6.5724    0.0524   19.8726 C   0  0  0  0  0  0  0  0  0  0  0  0
    5.3652    0.7295   20.0685 C   0  0  0  0  0  0  0  0  0  0  0  0
    4.7839    1.3704   18.9746 C   0  0  0  0  0  0  0  0  0  0  0  0
    5.4303    1.3132   17.7345 C   0  0  0  0  0  0  0  0  0  0  0  0
    6.5682    0.6260   17.5305 N   0  0  0  0  0  0  0  0  0  0  0  0
    7.1152   -0.0080   18.5731 C   0  0  0  0  0  0  0  0  0  0  0  0
    8.0184   -0.5818   18.3793 H   0  0  0  0  0  0  0  0  0  0  0  0
    5.0105    1.8239   16.8721 H   0  0  0  0  0  0  0  0  0  0  0  0
    3.8500    1.9105   19.0758 H   0  0  0  0  0  0  0  0  0  0  0  0
    4.8865    0.7388   21.0507 H   0  0  0  0  0  0  0  0  0  0  0  0
    7.1002    1.9524   21.9810 H   0  0  0  0  0  0  0  0  0  0  0  0
    6.2076    1.2126   23.3307 H   0  0  0  0  0  0  0  0  0  0  0  0
    9.2584    1.7053   23.3062 H   0  0  0  0  0  0  0  0  0  0  0  0
    8.3561    0.9326   24.6152 H   0  0  0  0  0  0  0  0  0  0  0  0
    7.2098    3.0686   25.4640 N   0  0  0  0  0  0  0  0  0  0  0  0
    6.8540    4.2779   25.8851 C   0  0  0  0  0  0  0  0  0  0  0  0
    6.2034    4.3077   26.7588 H   0  0  0  0  0  0  0  0  0  0  0  0
    8.4726    6.1308   23.6014 H   0  0  0  0  0  0  0  0  0  0  0  0
    6.9633    6.4198   25.6046 H   0  0  0  0  0  0  0  0  0  0  0  0
  1  2  2  0
  2  3  1  0
  3  4  2  0
  4  5  1  0
  5  6  1  0
  6  7  1  0
  7  8  2  0
  8  9  1  0
  9 10  1  0
 10 11  1  0
 11 12  1  0
 12 13  1  0
 13 14  1  0
 13 15  1  0
 12 16  1  0
 12 17  1  0
 11 18  1  0
 11 19  1  0
 10 20  1  0
  9 21  2  0
 21 22  1  0
 22 23  1  0
 23 24  2  0
 24 25  1  0
 25 26  2  0
 26 27  1  0
 27 28  2  0
 28 29  1  0
 26 30  1  0
 25 31  1  0
 24 32  1  0
  6 33  1  0
  6 34  1  0
  5 35  1  0
  5 36  1  0
  4 37  1  0
 37 38  2  0
 38 39  1  0
  2 40  1  0
  1 41  1  0
 38  1  1  0
 22  7  1  0
 28 23  1  0
 13 10  1  0
M  END
>  <cnnaffinity>  (1) 
-6.12768

>  <filename>  (1) 
c1cnc(CCc2nc(C3CCC3)nn2-c2cccnc2)nc1

$$$$
