
     RDKit          3D

 46 49  0  0  0  0  0  0  0  0999 V2000
    4.9565    1.8566   16.9613 H   0  0  0  0  0  0  0  0  0  0  0  0
    5.3943    1.3017   17.7888 C   0  0  0  0  0  0  0  0  0  0  0  0
    6.5415    0.6526   17.5324 N   0  0  0  0  0  0  0  0  0  0  0  0
    7.1351    0.0116   18.5473 C   0  0  0  0  0  0  0  0  0  0  0  0
    8.0651   -0.5018   18.3033 H   0  0  0  0  0  0  0  0  0  0  0  0
    6.6334    0.0045   19.8642 C   0  0  0  0  0  0  0  0  0  0  0  0
    7.3895   -0.6253   20.9527 C   0  0  0  0  0  0  0  0  0  0  0  0
    7.9798   -1.8051   20.7719 N   0  0  0  0  0  0  0  0  0  0  0  0
    8.5638   -2.0435   21.9438 N   0  0  0  0  0  0  0  0  0  0  0  0
    8.4464   -1.0625   22.8495 C   0  0  0  0  0  0  0  0  0  0  0  0
    7.6538   -0.0969   22.2578 C   0  0  0  0  0  0  0  0  0  0  0  0
    7.2486    1.1965   22.9103 C   0  0  0  0  0  0  0  0  0  0  0  0
    8.1333    1.6532   23.3709 H   0  0  0  0  0  0  0  0  0  0  0  0
    6.9143    1.9195   22.1586 H   0  0  0  0  0  0  0  0  0  0  0  0
    6.1696    1.0465   23.9923 C   0  0  0  0  0  0  0  0  0  0  0  0
    5.3161    0.5287   23.5422 H   0  0  0  0  0  0  0  0  0  0  0  0
    5.7927    2.0503   24.2733 H   0  0  0  0  0  0  0  0  0  0  0  0
    6.6082    0.2882   25.1648 N   0  0  0  0  0  0  0  0  0  0  0  0
    7.5679    1.0358   26.0008 C   0  0  0  0  0  0  0  0  0  0  0  0
    7.3233    2.1143   26.0147 H   0  0  0  0  0  0  0  0  0  0  0  0
    8.5724    0.9660   25.5654 H   0  0  0  0  0  0  0  0  0  0  0  0
    7.6101    0.5325   27.4472 C   0  0  0  0  0  0  0  0  0  0  0  0
    8.3624    1.0965   28.0039 H   0  0  0  0  0  0  0  0  0  0  0  0
    7.9508   -0.5094   27.4347 H   0  0  0  0  0  0  0  0  0  0  0  0
    6.2304    0.6239   28.1390 C   0  0  0  0  0  0  0  0  0  0  0  0
    6.1209    1.5933   28.6380 H   0  0  0  0  0  0  0  0  0  0  0  0
    6.1749   -0.1361   28.9269 H   0  0  0  0  0  0  0  0  0  0  0  0
    5.0727    0.4371   27.1268 C   0  0  0  0  0  0  0  0  0  0  0  0
    4.7405    1.4171   26.7605 H   0  0  0  0  0  0  0  0  0  0  0  0
    4.2036   -0.0307   27.5963 H   0  0  0  0  0  0  0  0  0  0  0  0
    5.5322   -0.3828   25.9155 C   0  0  0  0  0  0  0  0  0  0  0  0
    4.6973   -0.6015   25.2426 H   0  0  0  0  0  0  0  0  0  0  0  0
    5.8939   -1.3640   26.2558 H   0  0  0  0  0  0  0  0  0  0  0  0
    9.3222   -1.3597   24.0283 C   0  0  0  0  0  0  0  0  0  0  0  0
    8.7053   -1.5147   24.9117 H   0  0  0  0  0  0  0  0  0  0  0  0
   10.0009   -0.5355   24.2642 H   0  0  0  0  0  0  0  0  0  0  0  0
   10.0826   -2.6509   23.6052 C   0  0  0  0  0  0  0  0  0  0  0  0
   11.1439   -2.4570   23.4998 H   0  0  0  0  0  0  0  0  0  0  0  0
    9.9565   -3.4533   24.3288 H   0  0  0  0  0  0  0  0  0  0  0  0
    9.5388   -3.0536   22.2138 C   0  0  0  0  0  0  0  0  0  0  0  0
   10.3033   -2.9691   21.4424 H   0  0  0  0  0  0  0  0  0  0  0  0
    9.0740   -4.0401   22.1533 H   0  0  0  0  0  0  0  0  0  0  0  0
    5.4080    0.6432   20.0945 C   0  0  0  0  0  0  0  0  0  0  0  0
    4.9683    0.6261   21.0919 H   0  0  0  0  0  0  0  0  0  0  0  0
    4.7767    1.3036   19.0428 C   0  0  0  0  0  0  0  0  0  0  0  0
    3.8542    1.8467   19.1980 H   0  0  0  0  0  0  0  0  0  0  0  0
  1  2  1  0
  2  3  2  0
  3  4  1  0
  4  5  1  0
  4  6  2  0
  6  7  1  0
  7  8  2  0
  8  9  1  0
  9 10  1  0
 10 11  2  0
 11 12  1  0
 12 13  1  0
 12 14  1  0
 12 15  1  0
 15 16  1  0
 15 17  1  0
 15 18  1  0
 18 19  1  0
 19 20  1  0
 19 21  1  0
 19 22  1  0
 22 23  1  0
 22 24  1  0
 22 25  1  0
 25 26  1  0
 25 27  1  0
 25 28  1  0
 28 29  1  0
 28 30  1  0
 28 31  1  0
 31 32  1  0
 31 33  1  0
 10 34  1  0
 34 35  1  0
 34 36  1  0
 34 37  1  0
 37 38  1  0
 37 39  1  0
 37 40  1  0
 40 41  1  0
 40 42  1  0
  6 43  1  0
 43 44  1  0
 43 45  2  0
 45 46  1  0
 45  2  1  0
 11  7  1  0
 31 18  1  0
 40  9  1  0
M  END
>  <cnnaffinity>  (1) 
-5.56586

>  <filename>  (1) 
c1cncc(-c2nn3c(c2CCN2CCCCC2)CCC3)c1

$$$$
