
     RDKit          3D

 44 48  0  0  0  0  0  0  0  0999 V2000
    4.8018    1.3536   18.9697 C   0  0  0  0  0  0  0  0  0  0  0  0
    5.4976    1.3615   17.7579 C   0  0  0  0  0  0  0  0  0  0  0  0
    6.6691    0.7324   17.5774 N   0  0  0  0  0  0  0  0  0  0  0  0
    7.1792    0.0640   18.6182 C   0  0  0  0  0  0  0  0  0  0  0  0
    6.5441   -0.0470   19.8685 C   0  0  0  0  0  0  0  0  0  0  0  0
    7.1727   -0.8938   20.9573 C   0  0  0  0  0  0  0  0  0  0  0  0
    8.4628   -0.3779   21.4059 N   0  0  0  0  0  0  0  0  0  0  0  0
    9.6197   -1.0479   21.1661 N   0  0  0  0  0  0  0  0  0  0  0  0
   10.5412   -0.2019   21.5928 C   0  0  0  0  0  0  0  0  0  0  0  0
   11.9671   -0.4511   21.6928 C   0  0  0  0  0  0  0  0  0  0  0  0
   12.7461   -1.4456   21.1603 C   0  0  0  0  0  0  0  0  0  0  0  0
   14.1118   -1.2948   21.5121 C   0  0  0  0  0  0  0  0  0  0  0  0
   14.3377   -0.1713   22.2524 C   0  0  0  0  0  0  0  0  0  0  0  0
   12.9064    0.6858   22.5954 S   0  0  0  0  0  0  0  0  0  0  0  0
   15.2667    0.2624   22.5751 H   0  0  0  0  0  0  0  0  0  0  0  0
   14.8625   -2.0075   21.2060 H   0  0  0  0  0  0  0  0  0  0  0  0
   12.3735   -2.2238   20.5054 H   0  0  0  0  0  0  0  0  0  0  0  0
   10.0467    0.9721   22.0644 N   0  0  0  0  0  0  0  0  0  0  0  0
    8.7515    0.8217   21.9594 C   0  0  0  0  0  0  0  0  0  0  0  0
    7.7993    1.7301   22.6833 C   0  0  0  0  0  0  0  0  0  0  0  0
    7.5236    1.2154   24.0771 C   0  0  0  0  0  0  0  0  0  0  0  0
    8.3364    1.0534   25.1726 C   0  0  0  0  0  0  0  0  0  0  0  0
    7.6743    0.4094   26.1783 N   0  0  0  0  0  0  0  0  0  0  0  0
    6.4693    0.1567   25.7233 C   0  0  0  0  0  0  0  0  0  0  0  0
    5.4157   -0.5276   26.4979 C   0  0  0  0  0  0  0  0  0  0  0  0
    4.6109   -1.7017   25.9671 C   0  0  0  0  0  0  0  0  0  0  0  0
    3.9444   -0.3829   26.1776 C   0  0  0  0  0  0  0  0  0  0  0  0
    3.6703    0.2008   25.2985 H   0  0  0  0  0  0  0  0  0  0  0  0
    3.2635   -0.2706   27.0154 H   0  0  0  0  0  0  0  0  0  0  0  0
    4.3972   -2.5069   26.6655 H   0  0  0  0  0  0  0  0  0  0  0  0
    4.7934   -2.0363   24.9481 H   0  0  0  0  0  0  0  0  0  0  0  0
    5.7062   -0.5800   27.5464 H   0  0  0  0  0  0  0  0  0  0  0  0
    6.3368    0.6287   24.4461 N   0  0  0  0  0  0  0  0  0  0  0  0
    5.5135    0.5387   23.8796 H   0  0  0  0  0  0  0  0  0  0  0  0
    9.3766    1.3418   25.2826 H   0  0  0  0  0  0  0  0  0  0  0  0
    6.8827    1.8378   22.0977 H   0  0  0  0  0  0  0  0  0  0  0  0
    8.2950    2.7055   22.7472 H   0  0  0  0  0  0  0  0  0  0  0  0
    6.5023   -0.9723   21.8237 H   0  0  0  0  0  0  0  0  0  0  0  0
    7.3649   -1.9112   20.6044 H   0  0  0  0  0  0  0  0  0  0  0  0
    5.3401    0.6424   20.0453 C   0  0  0  0  0  0  0  0  0  0  0  0
    4.8300    0.6239   21.0113 H   0  0  0  0  0  0  0  0  0  0  0  0
    8.1447   -0.4136   18.4463 H   0  0  0  0  0  0  0  0  0  0  0  0
    5.1042    1.9005   16.8970 H   0  0  0  0  0  0  0  0  0  0  0  0
    3.8737    1.9050   19.0597 H   0  0  0  0  0  0  0  0  0  0  0  0
  1  2  2  0
  2  3  1  0
  3  4  2  0
  4  5  1  0
  5  6  1  0
  6  7  1  0
  7  8  1  0
  8  9  2  0
  9 10  1  0
 10 11  2  0
 11 12  1  0
 12 13  2  0
 13 14  1  0
 13 15  1  0
 12 16  1  0
 11 17  1  0
  9 18  1  0
 18 19  2  0
 19 20  1  0
 20 21  1  0
 21 22  2  0
 22 23  1  0
 23 24  2  0
 24 25  1  0
 25 26  1  0
 26 27  1  0
 27 28  1  0
 27 29  1  0
 26 30  1  0
 26 31  1  0
 25 32  1  0
 24 33  1  0
 33 34  1  0
 22 35  1  0
 20 36  1  0
 20 37  1  0
  6 38  1  0
  6 39  1  0
  5 40  2  0
 40 41  1  0
  4 42  1  0
  2 43  1  0
  1 44  1  0
 40  1  1  0
 19  7  1  0
 33 21  1  0
 14 10  1  0
 27 25  1  0
M  END
>  <cnnaffinity>  (1) 
-6.72814

>  <filename>  (1) 
c1cncc(Cn2nc(-c3cccs3)nc2Cc2cnc(C3CC3)[nH]2)c1

$$$$
