
     RDKit          3D

 29 31  0  0  0  0  0  0  0  0999 V2000
    4.9524    1.8149   16.9513 H   0  0  0  0  0  0  0  0  0  0  0  0
    5.4098    1.3208   17.8045 C   0  0  0  0  0  0  0  0  0  0  0  0
    6.5718    0.6920   17.5688 N   0  0  0  0  0  0  0  0  0  0  0  0
    7.1399    0.0361   18.5912 C   0  0  0  0  0  0  0  0  0  0  0  0
    8.1040   -0.4222   18.3772 H   0  0  0  0  0  0  0  0  0  0  0  0
    6.5749   -0.0405   19.8866 C   0  0  0  0  0  0  0  0  0  0  0  0
    7.0544   -0.7911   20.9784 N   0  0  0  0  0  0  0  0  0  0  0  0
    7.1598   -0.1908   21.7945 H   0  0  0  0  0  0  0  0  0  0  0  0
    8.2590   -1.5077   20.7812 N   0  0  0  0  0  0  0  0  0  0  0  0
    8.1698   -2.1070   19.9627 H   0  0  0  0  0  0  0  0  0  0  0  0
    8.7109   -2.2468   21.8954 C   0  0  0  0  0  0  0  0  0  0  0  0
    9.9916   -2.6971   21.9780 C   0  0  0  0  0  0  0  0  0  0  0  0
   10.8050   -2.4869   21.2978 H   0  0  0  0  0  0  0  0  0  0  0  0
   10.1850   -3.4043   23.1426 N   0  0  0  0  0  0  0  0  0  0  0  0
   10.9497   -4.0327   23.3276 H   0  0  0  0  0  0  0  0  0  0  0  0
    9.0082   -3.4130   23.8474 C   0  0  0  0  0  0  0  0  0  0  0  0
    8.7678   -3.9480   25.1289 C   0  0  0  0  0  0  0  0  0  0  0  0
    9.5382   -4.5104   25.6546 H   0  0  0  0  0  0  0  0  0  0  0  0
    7.5208   -3.7039   25.6950 C   0  0  0  0  0  0  0  0  0  0  0  0
    7.3035   -4.0760   26.6962 H   0  0  0  0  0  0  0  0  0  0  0  0
    6.5254   -2.9801   24.9882 C   0  0  0  0  0  0  0  0  0  0  0  0
    5.5642   -2.7899   25.4651 H   0  0  0  0  0  0  0  0  0  0  0  0
    6.7611   -2.4987   23.7014 C   0  0  0  0  0  0  0  0  0  0  0  0
    5.9731   -1.9847   23.1581 H   0  0  0  0  0  0  0  0  0  0  0  0
    8.0367   -2.6863   23.1131 C   0  0  0  0  0  0  0  0  0  0  0  0
    5.3939    0.6809   20.1259 C   0  0  0  0  0  0  0  0  0  0  0  0
    4.9719    0.6849   21.1316 H   0  0  0  0  0  0  0  0  0  0  0  0
    4.7961    1.3525   19.0628 C   0  0  0  0  0  0  0  0  0  0  0  0
    3.8667    1.8925   19.1991 H   0  0  0  0  0  0  0  0  0  0  0  0
  1  2  1  0
  2  3  2  0
  3  4  1  0
  4  5  1  0
  4  6  2  0
  6  7  1  0
  7  8  1  0
  7  9  1  0
  9 10  1  0
  9 11  1  0
 11 12  2  0
 12 13  1  0
 12 14  1  0
 14 15  1  0
 14 16  1  0
 16 17  2  0
 17 18  1  0
 17 19  1  0
 19 20  1  0
 19 21  2  0
 21 22  1  0
 21 23  1  0
 23 24  1  0
 23 25  2  0
  6 26  1  0
 26 27  1  0
 26 28  2  0
 28 29  1  0
 28  2  1  0
 25 11  1  0
 25 16  1  0
M  END
>  <cnnaffinity>  (1) 
-4.98427

>  <filename>  (1) 
c1cncc(NNc2c[nH]c3ccccc23)c1

$$$$
