
     RDKit          3D

 38 41  0  0  0  0  0  0  0  0999 V2000
    4.8143    1.3079   19.1119 C   0  0  0  0  0  0  0  0  0  0  0  0
    5.4008    1.2951   17.8397 C   0  0  0  0  0  0  0  0  0  0  0  0
    6.5602    0.6731   17.5796 N   0  0  0  0  0  0  0  0  0  0  0  0
    7.1697    0.0520   18.5955 C   0  0  0  0  0  0  0  0  0  0  0  0
    6.6609    0.0026   19.9052 C   0  0  0  0  0  0  0  0  0  0  0  0
    7.3700   -0.6680   20.9459 N   0  0  0  0  0  0  0  0  0  0  0  0
    6.7411   -1.5807   21.7299 N   0  0  0  0  0  0  0  0  0  0  0  0
    7.6688   -1.9239   22.5989 C   0  0  0  0  0  0  0  0  0  0  0  0
    7.3868   -2.8305   23.7540 C   0  0  0  0  0  0  0  0  0  0  0  0
    6.5202   -4.0684   23.4137 C   0  0  0  0  0  0  0  0  0  0  0  0
    5.1991   -3.5397   24.5563 S   0  0  0  0  0  0  0  0  0  0  0  0
    6.4240   -2.2132   24.8159 C   0  0  0  0  0  0  0  0  0  0  0  0
    6.0437   -1.2174   24.5606 H   0  0  0  0  0  0  0  0  0  0  0  0
    6.8257   -2.1900   25.8340 H   0  0  0  0  0  0  0  0  0  0  0  0
    6.9681   -5.0252   23.6984 H   0  0  0  0  0  0  0  0  0  0  0  0
    6.1838   -4.1064   22.3726 H   0  0  0  0  0  0  0  0  0  0  0  0
    8.3538   -3.0920   24.1812 H   0  0  0  0  0  0  0  0  0  0  0  0
    8.8681   -1.3150   22.4300 N   0  0  0  0  0  0  0  0  0  0  0  0
    8.6411   -0.4964   21.4174 C   0  0  0  0  0  0  0  0  0  0  0  0
    9.5261    0.6098   20.9434 C   0  0  0  0  0  0  0  0  0  0  0  0
    9.0289    2.0161   21.3868 C   0  0  0  0  0  0  0  0  0  0  0  0
    8.8543    2.1122   22.8815 C   0  0  0  0  0  0  0  0  0  0  0  0
    9.8514    2.1805   23.8128 C   0  0  0  0  0  0  0  0  0  0  0  0
    9.3769    2.1095   25.1590 C   0  0  0  0  0  0  0  0  0  0  0  0
    8.0234    1.9672   25.2152 C   0  0  0  0  0  0  0  0  0  0  0  0
    7.3146    1.9331   23.6495 S   0  0  0  0  0  0  0  0  0  0  0  0
    7.3935    1.8925   26.0887 H   0  0  0  0  0  0  0  0  0  0  0  0
   10.0156    2.1603   26.0344 H   0  0  0  0  0  0  0  0  0  0  0  0
   10.8991    2.2629   23.5408 H   0  0  0  0  0  0  0  0  0  0  0  0
    8.0909    2.2508   20.8708 H   0  0  0  0  0  0  0  0  0  0  0  0
    9.7668    2.7604   21.0673 H   0  0  0  0  0  0  0  0  0  0  0  0
   10.5210    0.4098   21.3476 H   0  0  0  0  0  0  0  0  0  0  0  0
    9.6034    0.5823   19.8548 H   0  0  0  0  0  0  0  0  0  0  0  0
    5.4420    0.6394   20.1692 C   0  0  0  0  0  0  0  0  0  0  0  0
    5.0138    0.6072   21.1744 H   0  0  0  0  0  0  0  0  0  0  0  0
    8.1140   -0.4347   18.3674 H   0  0  0  0  0  0  0  0  0  0  0  0
    4.9202    1.7853   16.9950 H   0  0  0  0  0  0  0  0  0  0  0  0
    3.8818    1.8383   19.2614 H   0  0  0  0  0  0  0  0  0  0  0  0
  1  2  2  0
  2  3  1  0
  3  4  2  0
  4  5  1  0
  5  6  1  0
  6  7  1  0
  7  8  2  0
  8  9  1  0
  9 10  1  0
 10 11  1  0
 11 12  1  0
 12 13  1  0
 12 14  1  0
 10 15  1  0
 10 16  1  0
  9 17  1  0
  8 18  1  0
 18 19  2  0
 19 20  1  0
 20 21  1  0
 21 22  1  0
 22 23  2  0
 23 24  1  0
 24 25  2  0
 25 26  1  0
 25 27  1  0
 24 28  1  0
 23 29  1  0
 21 30  1  0
 21 31  1  0
 20 32  1  0
 20 33  1  0
  5 34  2  0
 34 35  1  0
  4 36  1  0
  2 37  1  0
  1 38  1  0
 34  1  1  0
 19  6  1  0
 26 22  1  0
 12  9  1  0
M  END
>  <cnnaffinity>  (1) 
-5.7473

>  <filename>  (1) 
c1cncc(-n2nc(C3CSC3)nc2CCc2cccs2)c1

$$$$
