
     RDKit          3D

 51 54  0  0  0  0  0  0  0  0999 V2000
    5.3616    1.2490   16.8306 H   0  0  0  0  0  0  0  0  0  0  0  0
    5.9515    0.9725   17.7020 C   0  0  0  0  0  0  0  0  0  0  0  0
    7.0096    0.1873   17.4749 N   0  0  0  0  0  0  0  0  0  0  0  0
    7.7441   -0.2044   18.5234 C   0  0  0  0  0  0  0  0  0  0  0  0
    8.6277   -0.7932   18.2815 H   0  0  0  0  0  0  0  0  0  0  0  0
    7.4642    0.1157   19.8820 C   0  0  0  0  0  0  0  0  0  0  0  0
    8.2589   -0.4057   20.9271 N   0  0  0  0  0  0  0  0  0  0  0  0
    8.7765   -1.7857   20.8524 C   0  0  1  0  0  0  0  0  0  0  0  0
    9.3066   -1.9389   19.9094 H   0  0  0  0  0  0  0  0  0  0  0  0
    9.7610   -1.8278   22.0333 C   0  0  0  0  0  0  0  0  0  0  0  0
    9.8358   -2.8317   22.4618 H   0  0  0  0  0  0  0  0  0  0  0  0
   10.7594   -1.5487   21.6839 H   0  0  0  0  0  0  0  0  0  0  0  0
    9.2071   -0.7756   23.0228 C   0  0  0  0  0  0  0  0  0  0  0  0
    9.0438   -1.1685   24.0315 H   0  0  0  0  0  0  0  0  0  0  0  0
    9.9054    0.0631   23.1144 H   0  0  0  0  0  0  0  0  0  0  0  0
    7.9067   -0.2791   22.3546 C   0  0  2  0  0  0  0  0  0  0  0  0
    7.7055    0.7656   22.6237 H   0  0  0  0  0  0  0  0  0  0  0  0
    6.6519   -1.1331   22.6570 C   0  0  0  0  0  0  0  0  0  0  0  0
    6.3926   -1.0394   23.7206 H   0  0  0  0  0  0  0  0  0  0  0  0
    5.8425   -0.6657   22.0843 H   0  0  0  0  0  0  0  0  0  0  0  0
    6.7427   -2.6311   22.2403 C   0  0  2  0  0  0  0  0  0  0  0  0
    5.7266   -2.9315   21.9496 H   0  0  0  0  0  0  0  0  0  0  0  0
    7.1602   -3.5706   23.3879 C   0  0  0  0  0  0  0  0  0  0  0  0
    7.9183   -4.3013   23.0757 H   0  0  0  0  0  0  0  0  0  0  0  0
    7.6419   -2.9853   24.1810 H   0  0  0  0  0  0  0  0  0  0  0  0
    5.9873   -4.3690   24.0078 C   0  0  0  0  0  0  0  0  0  0  0  0
    5.8595   -5.3303   23.4811 H   0  0  0  0  0  0  0  0  0  0  0  0
    5.0392   -3.8295   23.8702 H   0  0  0  0  0  0  0  0  0  0  0  0
    6.1210   -4.6160   25.4245 N   0  0  0  0  0  0  0  0  0  0  0  0
    5.7486   -3.4674   26.2612 C   0  0  0  0  0  0  0  0  0  0  0  0
    4.6509   -3.4362   26.3368 H   0  0  0  0  0  0  0  0  0  0  0  0
    6.0461   -2.5009   25.8181 H   0  0  0  0  0  0  0  0  0  0  0  0
    6.3499   -3.5615   27.6580 C   0  0  0  0  0  0  0  0  0  0  0  0
    7.3902   -3.2073   27.6257 H   0  0  0  0  0  0  0  0  0  0  0  0
    5.7985   -2.8849   28.3151 H   0  0  0  0  0  0  0  0  0  0  0  0
    6.3220   -4.9999   28.1779 C   0  0  0  0  0  0  0  0  0  0  0  0
    6.7087   -5.0530   29.2000 H   0  0  0  0  0  0  0  0  0  0  0  0
    5.2781   -5.3271   28.2326 H   0  0  0  0  0  0  0  0  0  0  0  0
    7.1169   -5.9387   27.2339 C   0  0  0  0  0  0  0  0  0  0  0  0
    8.0939   -6.1755   27.6675 H   0  0  0  0  0  0  0  0  0  0  0  0
    6.5804   -6.8869   27.1228 H   0  0  0  0  0  0  0  0  0  0  0  0
    7.3288   -5.3254   25.8351 C   0  0  0  0  0  0  0  0  0  0  0  0
    7.5333   -6.1245   25.1118 H   0  0  0  0  0  0  0  0  0  0  0  0
    8.2197   -4.6632   25.8512 H   0  0  0  0  0  0  0  0  0  0  0  0
    7.5994   -2.7833   20.9670 C   0  0  0  0  0  0  0  0  0  0  0  0
    7.9820   -3.8088   20.8768 H   0  0  0  0  0  0  0  0  0  0  0  0
    6.9467   -2.6014   20.1025 H   0  0  0  0  0  0  0  0  0  0  0  0
    6.3895    1.0089   20.0797 C   0  0  0  0  0  0  0  0  0  0  0  0
    6.1566    1.3708   21.0772 H   0  0  0  0  0  0  0  0  0  0  0  0
    5.6164    1.4214   18.9817 C   0  0  0  0  0  0  0  0  0  0  0  0
    4.7655    2.0796   19.1092 H   0  0  0  0  0  0  0  0  0  0  0  0
  1  2  1  0
  2  3  2  0
  3  4  1  0
  4  5  1  0
  4  6  2  0
  6  7  1  0
  7  8  1  0
  8  9  1  6
  8 10  1  0
 10 11  1  0
 10 12  1  0
 10 13  1  0
 13 14  1  0
 13 15  1  0
 13 16  1  0
 16 17  1  1
 16 18  1  0
 18 19  1  0
 18 20  1  0
 18 21  1  0
 21 22  1  6
 21 23  1  0
 23 24  1  0
 23 25  1  0
 23 26  1  0
 26 27  1  0
 26 28  1  0
 26 29  1  0
 29 30  1  0
 30 31  1  0
 30 32  1  0
 30 33  1  0
 33 34  1  0
 33 35  1  0
 33 36  1  0
 36 37  1  0
 36 38  1  0
 36 39  1  0
 39 40  1  0
 39 41  1  0
 39 42  1  0
 42 43  1  0
 42 44  1  0
 21 45  1  0
 45 46  1  0
 45 47  1  0
  6 48  1  0
 48 49  1  0
 48 50  2  0
 50 51  1  0
 50  2  1  0
 16  7  1  0
 42 29  1  0
 45  8  1  0
M  END
>  <cnnaffinity>  (1) 
-5.40477

>  <filename>  (1) 
c1cncc(N2[C@@H]3CC[C@H]2C[C@@H](CCN2CCCCC2)C3)c1

$$$$
