
     RDKit          3D

 32 35  0  0  0  0  0  0  0  0999 V2000
    4.9842    2.2914   16.2885 H   0  0  0  0  0  0  0  0  0  0  0  0
    5.1726    1.7596   17.2169 C   0  0  0  0  0  0  0  0  0  0  0  0
    6.2535    0.9675   17.2223 N   0  0  0  0  0  0  0  0  0  0  0  0
    6.5245    0.3218   18.3573 C   0  0  0  0  0  0  0  0  0  0  0  0
    7.4084   -0.3092   18.3654 H   0  0  0  0  0  0  0  0  0  0  0  0
    5.7485    0.4275   19.5161 C   0  0  0  0  0  0  0  0  0  0  0  0
    6.2349   -0.2834   20.6912 C   0  0  0  0  0  0  0  0  0  0  0  0
    7.2098   -1.2224   20.5724 N   0  0  0  0  0  0  0  0  0  0  0  0
    7.4700   -1.5674   21.8184 C   0  0  0  0  0  0  0  0  0  0  0  0
    8.6881   -2.2715   22.2687 C   0  0  0  0  0  0  0  0  0  0  0  0
    9.9066   -1.8329   21.7637 C   0  0  0  0  0  0  0  0  0  0  0  0
    9.9154   -1.0876   20.9709 H   0  0  0  0  0  0  0  0  0  0  0  0
   11.1371   -2.3035   22.2731 C   0  0  0  0  0  0  0  0  0  0  0  0
   12.0783   -1.9585   21.8453 H   0  0  0  0  0  0  0  0  0  0  0  0
   11.1304   -3.2229   23.2944 C   0  0  0  0  0  0  0  0  0  0  0  0
   12.0224   -3.6174   23.7556 H   0  0  0  0  0  0  0  0  0  0  0  0
    9.9188   -3.7717   23.7825 C   0  0  0  0  0  0  0  0  0  0  0  0
   10.0341   -4.7638   24.7187 N   0  0  0  0  0  0  0  0  0  0  0  0
    8.9257   -5.3133   25.1487 C   0  0  0  0  0  0  0  0  0  0  0  0
    9.0412   -6.1072   25.8846 H   0  0  0  0  0  0  0  0  0  0  0  0
    7.6259   -4.9463   24.7012 C   0  0  0  0  0  0  0  0  0  0  0  0
    6.7774   -5.4779   25.1166 H   0  0  0  0  0  0  0  0  0  0  0  0
    7.4839   -3.9489   23.7630 C   0  0  0  0  0  0  0  0  0  0  0  0
    6.5004   -3.6467   23.3977 H   0  0  0  0  0  0  0  0  0  0  0  0
    8.6633   -3.3070   23.2647 C   0  0  0  0  0  0  0  0  0  0  0  0
    6.6532   -0.8772   22.6373 N   0  0  0  0  0  0  0  0  0  0  0  0
    6.6122   -0.9274   23.6455 H   0  0  0  0  0  0  0  0  0  0  0  0
    5.8616   -0.0333   21.9302 N   0  0  0  0  0  0  0  0  0  0  0  0
    4.6120    1.2466   19.4993 C   0  0  0  0  0  0  0  0  0  0  0  0
    3.9980    1.3596   20.3933 H   0  0  0  0  0  0  0  0  0  0  0  0
    4.3215    1.9193   18.3168 C   0  0  0  0  0  0  0  0  0  0  0  0
    3.4624    2.5741   18.2327 H   0  0  0  0  0  0  0  0  0  0  0  0
  1  2  1  0
  2  3  2  0
  3  4  1  0
  4  5  1  0
  4  6  2  0
  6  7  1  0
  7  8  1  0
  8  9  2  0
  9 10  1  0
 10 11  2  0
 11 12  1  0
 11 13  1  0
 13 14  1  0
 13 15  2  0
 15 16  1  0
 15 17  1  0
 17 18  2  0
 18 19  1  0
 19 20  1  0
 19 21  2  0
 21 22  1  0
 21 23  1  0
 23 24  1  0
 23 25  2  0
  9 26  1  0
 26 27  1  0
 26 28  1  0
  6 29  1  0
 29 30  1  0
 29 31  2  0
 31 32  1  0
 31  2  1  0
 28  7  2  0
 25 10  1  0
 25 17  1  0
M  END
>  <cnnaffinity>  (1) 
-5.5406

>  <filename>  (1) 
c1cncc(-c2n[nH]c(-c3cccc4ncccc34)n2)c1

$$$$
