
     RDKit          3D

 38 41  0  0  0  0  0  0  0  0999 V2000
    5.0024    1.8452   17.2469 H   0  0  0  0  0  0  0  0  0  0  0  0
    5.4868    1.2019   17.9826 C   0  0  0  0  0  0  0  0  0  0  0  0
    6.5948    0.5651   17.5759 N   0  0  0  0  0  0  0  0  0  0  0  0
    7.2429   -0.1876   18.4728 C   0  0  0  0  0  0  0  0  0  0  0  0
    8.1454   -0.6790   18.1047 H   0  0  0  0  0  0  0  0  0  0  0  0
    6.8196   -0.3584   19.8099 C   0  0  0  0  0  0  0  0  0  0  0  0
    7.6696   -1.0444   20.7908 C   0  0  0  0  0  0  0  0  0  0  0  0
    9.0125   -0.8927   21.0499 C   0  0  0  0  0  0  0  0  0  0  0  0
    9.6794   -0.2672   20.4712 H   0  0  0  0  0  0  0  0  0  0  0  0
    9.4177   -1.5568   22.1810 N   0  0  0  0  0  0  0  0  0  0  0  0
    8.3040   -2.0776   22.6293 C   0  0  0  0  0  0  0  0  0  0  0  0
    7.7968   -2.8652   24.1047 S   0  0  0  0  0  0  0  0  0  0  0  0
    6.1596   -2.7261   23.4863 C   0  0  0  0  0  0  0  0  0  0  0  0
    5.0571   -3.0733   24.1711 N   0  0  0  0  0  0  0  0  0  0  0  0
    4.2452   -2.7670   23.6598 H   0  0  0  0  0  0  0  0  0  0  0  0
    4.8774   -3.8230   25.3955 C   0  0  0  0  0  0  0  0  0  0  0  0
    5.6929   -3.6226   26.1112 H   0  0  0  0  0  0  0  0  0  0  0  0
    3.5537   -3.3998   26.0514 C   0  0  0  0  0  0  0  0  0  0  0  0
    3.5698   -2.3241   26.2671 H   0  0  0  0  0  0  0  0  0  0  0  0
    2.7463   -3.5677   25.3214 H   0  0  0  0  0  0  0  0  0  0  0  0
    3.2549   -4.2045   27.3311 C   0  0  0  0  0  0  0  0  0  0  0  0
    2.2645   -3.9349   27.7232 H   0  0  0  0  0  0  0  0  0  0  0  0
    3.9778   -3.9233   28.1129 H   0  0  0  0  0  0  0  0  0  0  0  0
    3.3290   -5.7235   27.0817 C   0  0  0  0  0  0  0  0  0  0  0  0
    3.2230   -6.2614   28.0321 H   0  0  0  0  0  0  0  0  0  0  0  0
    2.4741   -6.0276   26.4583 H   0  0  0  0  0  0  0  0  0  0  0  0
    4.6324   -6.1424   26.3755 C   0  0  0  0  0  0  0  0  0  0  0  0
    4.6139   -7.2168   26.1512 H   0  0  0  0  0  0  0  0  0  0  0  0
    5.4862   -5.9743   27.0512 H   0  0  0  0  0  0  0  0  0  0  0  0
    4.8526   -5.3281   25.0936 C   0  0  0  0  0  0  0  0  0  0  0  0
    5.7804   -5.6100   24.5835 H   0  0  0  0  0  0  0  0  0  0  0  0
    4.0301   -5.5168   24.3847 H   0  0  0  0  0  0  0  0  0  0  0  0
    6.0030   -2.2173   22.2950 N   0  0  0  0  0  0  0  0  0  0  0  0
    7.2282   -1.8410   21.8368 N   0  0  0  0  0  0  0  0  0  0  0  0
    5.6101    0.2493   20.1886 C   0  0  0  0  0  0  0  0  0  0  0  0
    5.2150    0.0735   21.1885 H   0  0  0  0  0  0  0  0  0  0  0  0
    4.9520    1.0657   19.2682 C   0  0  0  0  0  0  0  0  0  0  0  0
    4.0530    1.6070   19.5349 H   0  0  0  0  0  0  0  0  0  0  0  0
  1  2  1  0
  2  3  2  0
  3  4  1  0
  4  5  1  0
  4  6  2  0
  6  7  1  0
  7  8  2  0
  8  9  1  0
  8 10  1  0
 10 11  2  0
 11 12  1  0
 12 13  1  0
 13 14  1  0
 14 15  1  0
 14 16  1  0
 16 17  1  0
 16 18  1  0
 18 19  1  0
 18 20  1  0
 18 21  1  0
 21 22  1  0
 21 23  1  0
 21 24  1  0
 24 25  1  0
 24 26  1  0
 24 27  1  0
 27 28  1  0
 27 29  1  0
 27 30  1  0
 30 31  1  0
 30 32  1  0
 13 33  2  0
 33 34  1  0
  6 35  1  0
 35 36  1  0
 35 37  2  0
 37 38  1  0
 37  2  1  0
 34  7  1  0
 34 11  1  0
 30 16  1  0
M  END
>  <cnnaffinity>  (1) 
-5.2004

>  <filename>  (1) 
c1cncc(-c2cnc3sc(NC4CCCCC4)nn23)c1

$$$$
