
     RDKit          3D

 38 41  0  0  0  0  0  0  0  0999 V2000
    5.3373    1.5496   18.8959 C   0  0  0  0  0  0  0  0  0  0  0  0
    5.9906    1.3716   17.6731 C   0  0  0  0  0  0  0  0  0  0  0  0
    7.2551    0.9142   17.5789 N   0  0  0  0  0  0  0  0  0  0  0  0
    7.8773    0.5536   18.7094 C   0  0  0  0  0  0  0  0  0  0  0  0
    7.2389    0.5436   19.9651 C   0  0  0  0  0  0  0  0  0  0  0  0
    7.8541   -0.1395   21.0536 N   0  0  0  0  0  0  0  0  0  0  0  0
    9.1561    0.0836   21.3718 N   0  0  0  0  0  0  0  0  0  0  0  0
    9.3451   -0.7013   22.4230 C   0  0  0  0  0  0  0  0  0  0  0  0
   10.6783   -0.9571   23.1071 C   0  0  0  0  0  0  0  0  0  0  0  0
   11.5500   -1.9749   22.3078 C   0  0  0  0  0  0  0  0  0  0  0  0
   12.6890   -1.1202   21.7187 C   0  0  0  0  0  0  0  0  0  0  0  0
   12.3404    0.3150   22.1398 C   0  0  0  0  0  0  0  0  0  0  0  0
   11.5048    0.1805   23.2828 O   0  0  0  0  0  0  0  0  0  0  0  0
   13.2088    0.9189   22.4366 H   0  0  0  0  0  0  0  0  0  0  0  0
   11.7913    0.8365   21.3396 H   0  0  0  0  0  0  0  0  0  0  0  0
   13.6571   -1.4329   22.1219 H   0  0  0  0  0  0  0  0  0  0  0  0
   12.7442   -1.2243   20.6314 H   0  0  0  0  0  0  0  0  0  0  0  0
   10.9541   -2.4727   21.5388 H   0  0  0  0  0  0  0  0  0  0  0  0
   11.9404   -2.7598   22.9604 H   0  0  0  0  0  0  0  0  0  0  0  0
   10.4267   -1.3327   24.1024 H   0  0  0  0  0  0  0  0  0  0  0  0
    8.2623   -1.4532   22.7684 N   0  0  0  0  0  0  0  0  0  0  0  0
    7.3597   -1.1234   21.8667 C   0  0  0  0  0  0  0  0  0  0  0  0
    6.0277   -1.7863   21.6875 C   0  0  0  0  0  0  0  0  0  0  0  0
    5.8474   -2.6968   20.4931 C   0  0  0  0  0  0  0  0  0  0  0  0
    5.8677   -4.0499   20.3597 C   0  0  0  0  0  0  0  0  0  0  0  0
    5.5891   -4.4045   19.0786 O   0  0  0  0  0  0  0  0  0  0  0  0
    5.3868   -3.2605   18.3785 C   0  0  0  0  0  0  0  0  0  0  0  0
    5.5381   -2.1944   19.1883 C   0  0  0  0  0  0  0  0  0  0  0  0
    5.4258   -1.1608   18.8967 H   0  0  0  0  0  0  0  0  0  0  0  0
    5.1581   -3.3664   17.3294 H   0  0  0  0  0  0  0  0  0  0  0  0
    6.0864   -4.8703   21.0304 H   0  0  0  0  0  0  0  0  0  0  0  0
    5.2992   -0.9814   21.5498 H   0  0  0  0  0  0  0  0  0  0  0  0
    5.8115   -2.3037   22.6255 H   0  0  0  0  0  0  0  0  0  0  0  0
    5.9748    1.1493   20.0767 C   0  0  0  0  0  0  0  0  0  0  0  0
    5.5100    1.3259   21.0504 H   0  0  0  0  0  0  0  0  0  0  0  0
    8.9040    0.2005   18.6201 H   0  0  0  0  0  0  0  0  0  0  0  0
    5.4889    1.6064   16.7348 H   0  0  0  0  0  0  0  0  0  0  0  0
    4.3413    1.9812   18.9114 H   0  0  0  0  0  0  0  0  0  0  0  0
  1  2  2  0
  2  3  1  0
  3  4  2  0
  4  5  1  0
  5  6  1  0
  6  7  1  0
  7  8  2  0
  8  9  1  0
  9 10  1  0
 10 11  1  0
 11 12  1  0
 12 13  1  0
 12 14  1  0
 12 15  1  0
 11 16  1  0
 11 17  1  0
 10 18  1  0
 10 19  1  0
  9 20  1  0
  8 21  1  0
 21 22  2  0
 22 23  1  0
 23 24  1  0
 24 25  2  0
 25 26  1  0
 26 27  1  0
 27 28  2  0
 28 29  1  0
 27 30  1  0
 25 31  1  0
 23 32  1  0
 23 33  1  0
  5 34  2  0
 34 35  1  0
  4 36  1  0
  2 37  1  0
  1 38  1  0
 34  1  1  0
 22  6  1  0
 28 24  1  0
 13  9  1  0
M  END
>  <cnnaffinity>  (1) 
-5.31751

>  <filename>  (1) 
c1cncc(-n2nc(C3CCCO3)nc2Cc2ccoc2)c1

$$$$
