
     RDKit          3D

 31 33  0  0  0  0  0  0  0  0999 V2000
    4.9626    1.7779   17.0003 H   0  0  0  0  0  0  0  0  0  0  0  0
    5.4122    1.2761   17.8542 C   0  0  0  0  0  0  0  0  0  0  0  0
    6.5756    0.6500   17.6188 N   0  0  0  0  0  0  0  0  0  0  0  0
    7.1714    0.0448   18.6502 C   0  0  0  0  0  0  0  0  0  0  0  0
    8.1247   -0.4218   18.3979 H   0  0  0  0  0  0  0  0  0  0  0  0
    6.6514    0.0173   19.9573 C   0  0  0  0  0  0  0  0  0  0  0  0
    7.3720   -0.6545   21.0502 C   0  0  0  0  0  0  0  0  0  0  0  0
    7.0589   -0.3511   22.3621 N   0  0  0  0  0  0  0  0  0  0  0  0
    7.7599   -1.0854   23.1627 C   0  0  0  0  0  0  0  0  0  0  0  0
    7.7406   -1.0896   24.4874 O   0  0  0  0  0  0  0  0  0  0  0  0
    6.9017   -0.1206   25.1541 C   0  0  0  0  0  0  0  0  0  0  0  0
    5.8861   -0.2097   24.7435 H   0  0  0  0  0  0  0  0  0  0  0  0
    7.4371    1.3097   25.0110 C   0  0  0  0  0  0  0  0  0  0  0  0
    8.5279    1.2600   24.9022 H   0  0  0  0  0  0  0  0  0  0  0  0
    7.0524    1.7755   24.0966 H   0  0  0  0  0  0  0  0  0  0  0  0
    7.0427    2.0343   26.3224 C   0  0  0  0  0  0  0  0  0  0  0  0
    7.8845    2.6202   26.7074 H   0  0  0  0  0  0  0  0  0  0  0  0
    6.2257    2.7480   26.1663 H   0  0  0  0  0  0  0  0  0  0  0  0
    6.6102    0.9262   27.3298 C   0  0  0  0  0  0  0  0  0  0  0  0
    5.5339    0.9960   27.5304 H   0  0  0  0  0  0  0  0  0  0  0  0
    7.1061    1.0275   28.3017 H   0  0  0  0  0  0  0  0  0  0  0  0
    6.9497   -0.4154   26.6511 C   0  0  0  0  0  0  0  0  0  0  0  0
    7.9667   -0.7483   26.9038 H   0  0  0  0  0  0  0  0  0  0  0  0
    6.2725   -1.2364   26.9186 H   0  0  0  0  0  0  0  0  0  0  0  0
    8.8507   -2.2123   22.4125 S   0  0  0  0  0  0  0  0  0  0  0  0
    8.3327   -1.5987   20.8757 C   0  0  0  0  0  0  0  0  0  0  0  0
    8.7717   -1.9151   19.9431 H   0  0  0  0  0  0  0  0  0  0  0  0
    5.4232    0.6654   20.1790 C   0  0  0  0  0  0  0  0  0  0  0  0
    4.9909    0.6672   21.1812 H   0  0  0  0  0  0  0  0  0  0  0  0
    4.7988    1.3039   19.1113 C   0  0  0  0  0  0  0  0  0  0  0  0
    3.8649    1.8412   19.2386 H   0  0  0  0  0  0  0  0  0  0  0  0
  1  2  1  0
  2  3  2  0
  3  4  1  0
  4  5  1  0
  4  6  2  0
  6  7  1  0
  7  8  1  0
  8  9  2  0
  9 10  1  0
 10 11  1  0
 11 12  1  0
 11 13  1  0
 13 14  1  0
 13 15  1  0
 13 16  1  0
 16 17  1  0
 16 18  1  0
 16 19  1  0
 19 20  1  0
 19 21  1  0
 19 22  1  0
 22 23  1  0
 22 24  1  0
  9 25  1  0
 25 26  1  0
 26 27  1  0
  6 28  1  0
 28 29  1  0
 28 30  2  0
 30 31  1  0
 30  2  1  0
 26  7  2  0
 22 11  1  0
M  END
>  <cnnaffinity>  (1) 
-4.93078

>  <filename>  (1) 
c1cncc(-c2csc(OC3CCCC3)n2)c1

$$$$
