
     RDKit          3D

 33 35  0  0  0  0  0  0  0  0999 V2000
    5.0015    1.7686   16.7266 H   0  0  0  0  0  0  0  0  0  0  0  0
    5.4074    1.3816   17.6585 C   0  0  0  0  0  0  0  0  0  0  0  0
    6.6023    0.7754   17.5721 N   0  0  0  0  0  0  0  0  0  0  0  0
    7.1393    0.3033   18.7036 C   0  0  0  0  0  0  0  0  0  0  0  0
    8.1222   -0.1609   18.6299 H   0  0  0  0  0  0  0  0  0  0  0  0
    6.5102    0.3910   19.9570 C   0  0  0  0  0  0  0  0  0  0  0  0
    7.1540   -0.1264   21.1293 N   0  0  0  0  0  0  0  0  0  0  0  0
    7.9237    0.6318   21.9951 C   0  0  0  0  0  0  0  0  0  0  0  0
    7.9957    1.6996   21.8493 H   0  0  0  0  0  0  0  0  0  0  0  0
    8.4595   -0.1905   22.9514 C   0  0  0  0  0  0  0  0  0  0  0  0
    9.1072    0.1019   23.7697 H   0  0  0  0  0  0  0  0  0  0  0  0
    7.9953   -1.5067   22.6768 C   0  0  0  0  0  0  0  0  0  0  0  0
    8.1679   -2.3990   23.2662 H   0  0  0  0  0  0  0  0  0  0  0  0
    7.2071   -1.4439   21.5514 C   0  0  0  0  0  0  0  0  0  0  0  0
    6.5368   -2.4852   20.9164 N   0  0  0  0  0  0  0  0  0  0  0  0
    6.4524   -2.2897   19.9142 H   0  0  0  0  0  0  0  0  0  0  0  0
    7.7068   -4.6932   20.9896 C   0  0  0  0  0  0  0  0  0  0  0  0
    6.8899   -3.5107   21.1215 H   0  0  0  0  0  0  0  0  0  0  0  0
    8.5080   -3.7778   21.0838 H   0  0  0  0  0  0  0  0  0  0  0  0
    7.6674   -4.6886   20.9074 C   0  0  0  0  0  0  0  0  0  0  0  0
    5.4566   -6.0209   20.5095 C   0  0  0  0  0  0  0  0  0  0  0  0
    5.6870   -5.7481   19.5086 H   0  0  0  0  0  0  0  0  0  0  0  0
    5.0813   -6.0803   21.7277 C   0  0  0  0  0  0  0  0  0  0  0  0
    4.0271   -5.9856   22.0793 H   0  0  0  0  0  0  0  0  0  0  0  0
    5.9404   -6.3952   22.8746 N   0  0  0  0  0  0  0  0  0  0  0  0
    7.1647   -6.5696   22.6474 C   0  0  0  0  0  0  0  0  0  0  0  0
    7.8006   -7.1164   23.3461 H   0  0  0  0  0  0  0  0  0  0  0  0
    7.9853   -6.0181   21.5077 C   0  0  0  0  0  0  0  0  0  0  0  0
    9.0163   -6.0814   21.8381 H   0  0  0  0  0  0  0  0  0  0  0  0
    5.2612    1.0182   20.0383 C   0  0  0  0  0  0  0  0  0  0  0  0
    4.7522    1.1066   20.9987 H   0  0  0  0  0  0  0  0  0  0  0  0
    4.7022    1.5179   18.8593 C   0  0  0  0  0  0  0  0  0  0  0  0
    3.7463    2.0295   18.8636 H   0  0  0  0  0  0  0  0  0  0  0  0
  1  2  1  0
  2  3  2  0
  3  4  1  0
  4  5  1  0
  4  6  2  0
  6  7  1  0
  7  8  1  0
  8  9  1  0
  8 10  2  0
 10 11  1  0
 10 12  1  0
 12 13  1  0
 12 14  2  0
 14 15  1  0
 15 16  1  0
 15 17  1  0
 17 18  1  0
 17 19  1  0
 17 20  1  0
 20 21  2  0
 21 22  1  0
 21 23  1  0
 23 24  1  0
 23 25  2  0
 25 26  1  0
 26 27  1  0
 26 28  2  0
 28 29  1  0
  6 30  1  0
 30 31  1  0
 30 32  2  0
 32 33  1  0
 32  2  1  0
 14  7  1  0
 28 20  1  0
M  END
>  <cnnaffinity>  (1) 
-4.54707

>  <filename>  (1) 
c1cncc(-n2cccc2NCc2ccncc2)c1

$$$$
