
     RDKit          3D

 39 42  0  0  0  0  0  0  0  0999 V2000
    4.8327    1.4092   18.8520 C   0  0  0  0  0  0  0  0  0  0  0  0
    5.4874    1.2367   17.6296 C   0  0  0  0  0  0  0  0  0  0  0  0
    6.5932    0.4843   17.4979 N   0  0  0  0  0  0  0  0  0  0  0  0
    7.1015   -0.0911   18.5925 C   0  0  0  0  0  0  0  0  0  0  0  0
    6.5636    0.0845   19.8848 C   0  0  0  0  0  0  0  0  0  0  0  0
    7.2384   -0.4584   21.0207 N   0  0  0  0  0  0  0  0  0  0  0  0
    7.8133   -1.6948   20.9939 N   0  0  0  0  0  0  0  0  0  0  0  0
    8.2973   -1.8348   22.2150 C   0  0  0  0  0  0  0  0  0  0  0  0
    9.0349   -3.0622   22.6548 C   0  0  0  0  0  0  0  0  0  0  0  0
   10.3720   -2.8528   23.4323 C   0  0  0  0  0  0  0  0  0  0  0  0
    9.9224   -3.8772   24.4938 C   0  0  0  0  0  0  0  0  0  0  0  0
    8.5147   -3.9443   23.8493 C   0  0  0  0  0  0  0  0  0  0  0  0
    7.7167   -3.4725   24.4373 H   0  0  0  0  0  0  0  0  0  0  0  0
    8.2062   -4.9637   23.5869 H   0  0  0  0  0  0  0  0  0  0  0  0
   10.4739   -4.8238   24.4462 H   0  0  0  0  0  0  0  0  0  0  0  0
    9.9689   -3.5340   25.5315 H   0  0  0  0  0  0  0  0  0  0  0  0
   11.2857   -3.0770   22.8753 H   0  0  0  0  0  0  0  0  0  0  0  0
   10.4645   -1.8358   23.8245 H   0  0  0  0  0  0  0  0  0  0  0  0
    9.1402   -3.6575   21.7473 H   0  0  0  0  0  0  0  0  0  0  0  0
    8.1193   -0.7513   23.0166 N   0  0  0  0  0  0  0  0  0  0  0  0
    7.4598    0.1000   22.2511 C   0  0  0  0  0  0  0  0  0  0  0  0
    7.0938    1.4833   22.7051 C   0  0  0  0  0  0  0  0  0  0  0  0
    6.0434    1.4909   23.8484 C   0  0  0  0  0  0  0  0  0  0  0  0
    5.7333    2.8491   24.3876 C   0  0  0  0  0  0  0  0  0  0  0  0
    4.8232    3.8109   24.0985 C   0  0  0  0  0  0  0  0  0  0  0  0
    5.0307    4.9232   24.9073 N   0  0  0  0  0  0  0  0  0  0  0  0
    6.0451    4.5908   25.6260 C   0  0  0  0  0  0  0  0  0  0  0  0
    6.5373    3.3568   25.3780 O   0  0  0  0  0  0  0  0  0  0  0  0
    6.5430    5.1712   26.3959 H   0  0  0  0  0  0  0  0  0  0  0  0
    4.0330    3.7811   23.3602 H   0  0  0  0  0  0  0  0  0  0  0  0
    5.1091    1.0412   23.4857 H   0  0  0  0  0  0  0  0  0  0  0  0
    6.4076    0.8585   24.6655 H   0  0  0  0  0  0  0  0  0  0  0  0
    8.0192    1.9555   23.0552 H   0  0  0  0  0  0  0  0  0  0  0  0
    6.7511    2.0982   21.8677 H   0  0  0  0  0  0  0  0  0  0  0  0
    5.3764    0.8260   20.0030 C   0  0  0  0  0  0  0  0  0  0  0  0
    4.8821    0.9546   20.9667 H   0  0  0  0  0  0  0  0  0  0  0  0
    7.9790   -0.7163   18.4507 H   0  0  0  0  0  0  0  0  0  0  0  0
    5.1078    1.7077   16.7228 H   0  0  0  0  0  0  0  0  0  0  0  0
    3.9295    2.0082   18.8989 H   0  0  0  0  0  0  0  0  0  0  0  0
  1  2  2  0
  2  3  1  0
  3  4  2  0
  4  5  1  0
  5  6  1  0
  6  7  1  0
  7  8  2  0
  8  9  1  0
  9 10  1  0
 10 11  1  0
 11 12  1  0
 12 13  1  0
 12 14  1  0
 11 15  1  0
 11 16  1  0
 10 17  1  0
 10 18  1  0
  9 19  1  0
  8 20  1  0
 20 21  2  0
 21 22  1  0
 22 23  1  0
 23 24  1  0
 24 25  2  0
 25 26  1  0
 26 27  2  0
 27 28  1  0
 27 29  1  0
 25 30  1  0
 23 31  1  0
 23 32  1  0
 22 33  1  0
 22 34  1  0
  5 35  2  0
 35 36  1  0
  4 37  1  0
  2 38  1  0
  1 39  1  0
 35  1  1  0
 21  6  1  0
 28 24  1  0
 12  9  1  0
M  END
>  <cnnaffinity>  (1) 
-5.89817

>  <filename>  (1) 
c1cncc(-n2nc(C3CCC3)nc2CCc2cnco2)c1

$$$$
