
     RDKit          3D

 32 35  0  0  0  0  0  0  0  0999 V2000
    4.9935    1.8341   16.9211 H   0  0  0  0  0  0  0  0  0  0  0  0
    5.4275    1.2895   17.7560 C   0  0  0  0  0  0  0  0  0  0  0  0
    6.5745    0.6384   17.5087 N   0  0  0  0  0  0  0  0  0  0  0  0
    7.1502   -0.0052   18.5295 C   0  0  0  0  0  0  0  0  0  0  0  0
    8.0865   -0.5158   18.3093 H   0  0  0  0  0  0  0  0  0  0  0  0
    6.6204   -0.0355   19.8335 C   0  0  0  0  0  0  0  0  0  0  0  0
    7.3774   -0.6578   20.9338 C   0  0  0  0  0  0  0  0  0  0  0  0
    8.5357   -1.2971   20.7005 N   0  0  0  0  0  0  0  0  0  0  0  0
    8.9571   -1.6159   21.9428 N   0  0  0  0  0  0  0  0  0  0  0  0
   10.1057   -2.1749   22.4879 C   0  0  0  0  0  0  0  0  0  0  0  0
   10.8744   -2.5769   21.8545 H   0  0  0  0  0  0  0  0  0  0  0  0
    9.9669   -2.0722   23.8351 C   0  0  0  0  0  0  0  0  0  0  0  0
   10.6548   -2.3665   24.6162 H   0  0  0  0  0  0  0  0  0  0  0  0
    8.7338   -1.4815   24.1359 N   0  0  0  0  0  0  0  0  0  0  0  0
    8.3708   -0.7662   25.3621 C   0  0  0  0  0  0  0  0  0  0  0  0
    8.8689   -1.2444   26.2152 H   0  0  0  0  0  0  0  0  0  0  0  0
    7.2935   -0.8920   25.5090 H   0  0  0  0  0  0  0  0  0  0  0  0
    8.6926    0.7097   25.2746 C   0  0  0  0  0  0  0  0  0  0  0  0
   10.3402    1.2310   25.2673 S   0  0  0  0  0  0  0  0  0  0  0  0
    9.8847    2.8191   24.7923 C   0  0  0  0  0  0  0  0  0  0  0  0
   10.6403    3.5711   24.6123 H   0  0  0  0  0  0  0  0  0  0  0  0
    8.5355    2.9574   24.6882 C   0  0  0  0  0  0  0  0  0  0  0  0
    8.0362    3.8775   24.4020 H   0  0  0  0  0  0  0  0  0  0  0  0
    7.8478    1.7415   24.9820 C   0  0  0  0  0  0  0  0  0  0  0  0
    6.7705    1.6143   24.9165 H   0  0  0  0  0  0  0  0  0  0  0  0
    8.1280   -1.1996   22.9227 C   0  0  0  0  0  0  0  0  0  0  0  0
    7.0492   -0.5860   22.3105 C   0  0  0  0  0  0  0  0  0  0  0  0
    6.1584   -0.1737   22.7482 H   0  0  0  0  0  0  0  0  0  0  0  0
    5.3989    0.6203   20.0629 C   0  0  0  0  0  0  0  0  0  0  0  0
    4.9353    0.6249   21.0524 H   0  0  0  0  0  0  0  0  0  0  0  0
    4.7996    1.2958   19.0057 C   0  0  0  0  0  0  0  0  0  0  0  0
    3.8803    1.8511   19.1463 H   0  0  0  0  0  0  0  0  0  0  0  0
  1  2  1  0
  2  3  2  0
  3  4  1  0
  4  5  1  0
  4  6  2  0
  6  7  1  0
  7  8  2  0
  8  9  1  0
  9 10  1  0
 10 11  1  0
 10 12  2  0
 12 13  1  0
 12 14  1  0
 14 15  1  0
 15 16  1  0
 15 17  1  0
 15 18  1  0
 18 19  1  0
 19 20  1  0
 20 21  1  0
 20 22  2  0
 22 23  1  0
 22 24  1  0
 24 25  1  0
 14 26  1  0
 26 27  2  0
 27 28  1  0
  6 29  1  0
 29 30  1  0
 29 31  2  0
 31 32  1  0
 31  2  1  0
 27  7  1  0
 26  9  1  0
 24 18  2  0
M  END
>  <cnnaffinity>  (1) 
-5.59445

>  <filename>  (1) 
c1cncc(-c2cc3n(Cc4cccs4)ccn3n2)c1

$$$$
