
     RDKit          3D

 38 41  0  0  0  0  0  0  0  0999 V2000
    4.8135    1.3085   19.1107 C   0  0  0  0  0  0  0  0  0  0  0  0
    5.4007    1.2954   17.8390 C   0  0  0  0  0  0  0  0  0  0  0  0
    6.5611    0.6737   17.5788 N   0  0  0  0  0  0  0  0  0  0  0  0
    7.1694    0.0528   18.5957 C   0  0  0  0  0  0  0  0  0  0  0  0
    6.6615    0.0024   19.9054 C   0  0  0  0  0  0  0  0  0  0  0  0
    7.3721   -0.6698   20.9431 N   0  0  0  0  0  0  0  0  0  0  0  0
    6.7457   -1.5906   21.7210 N   0  0  0  0  0  0  0  0  0  0  0  0
    7.6751   -1.9349   22.5893 C   0  0  0  0  0  0  0  0  0  0  0  0
    7.3999   -2.8774   23.7172 C   0  0  0  0  0  0  0  0  0  0  0  0
    6.6163   -4.1549   23.3207 C   0  0  0  0  0  0  0  0  0  0  0  0
    5.2241   -3.7242   24.4182 S   0  0  0  0  0  0  0  0  0  0  0  0
    6.3657   -2.3394   24.7506 C   0  0  0  0  0  0  0  0  0  0  0  0
    5.9367   -1.3647   24.4933 H   0  0  0  0  0  0  0  0  0  0  0  0
    6.7258   -2.3177   25.7835 H   0  0  0  0  0  0  0  0  0  0  0  0
    6.3217   -4.1899   22.2673 H   0  0  0  0  0  0  0  0  0  0  0  0
    7.1057   -5.0903   23.6071 H   0  0  0  0  0  0  0  0  0  0  0  0
    8.3610   -3.0995   24.1776 H   0  0  0  0  0  0  0  0  0  0  0  0
    8.8700   -1.3147   22.4302 N   0  0  0  0  0  0  0  0  0  0  0  0
    8.6424   -0.4954   21.4164 C   0  0  0  0  0  0  0  0  0  0  0  0
    9.5295    0.6041   20.9305 C   0  0  0  0  0  0  0  0  0  0  0  0
    9.0505    2.0137   21.3610 C   0  0  0  0  0  0  0  0  0  0  0  0
    8.9185    2.1229   22.8559 C   0  0  0  0  0  0  0  0  0  0  0  0
    9.9319    2.3203   23.7623 C   0  0  0  0  0  0  0  0  0  0  0  0
    9.3714    2.2077   24.9878 N   0  0  0  0  0  0  0  0  0  0  0  0
    8.0600    1.9375   24.9606 N   0  0  0  0  0  0  0  0  0  0  0  0
    7.7811    1.8845   23.6632 C   0  0  0  0  0  0  0  0  0  0  0  0
    6.7863    1.6403   23.3307 H   0  0  0  0  0  0  0  0  0  0  0  0
    9.8192    2.3125   25.8832 H   0  0  0  0  0  0  0  0  0  0  0  0
   10.9900    2.5158   23.6146 H   0  0  0  0  0  0  0  0  0  0  0  0
    8.0904    2.2340   20.8802 H   0  0  0  0  0  0  0  0  0  0  0  0
    9.7640    2.7606   20.9981 H   0  0  0  0  0  0  0  0  0  0  0  0
   10.5217    0.4036   21.3395 H   0  0  0  0  0  0  0  0  0  0  0  0
    9.6093    0.5640   19.8422 H   0  0  0  0  0  0  0  0  0  0  0  0
    5.4426    0.6401   20.1672 C   0  0  0  0  0  0  0  0  0  0  0  0
    5.0108    0.6090   21.1703 H   0  0  0  0  0  0  0  0  0  0  0  0
    8.1140   -0.4346   18.3705 H   0  0  0  0  0  0  0  0  0  0  0  0
    4.9181    1.7846   16.9947 H   0  0  0  0  0  0  0  0  0  0  0  0
    3.8806    1.8384   19.2631 H   0  0  0  0  0  0  0  0  0  0  0  0
  1  2  2  0
  2  3  1  0
  3  4  2  0
  4  5  1  0
  5  6  1  0
  6  7  1  0
  7  8  2  0
  8  9  1  0
  9 10  1  0
 10 11  1  0
 11 12  1  0
 12 13  1  0
 12 14  1  0
 10 15  1  0
 10 16  1  0
  9 17  1  0
  8 18  1  0
 18 19  2  0
 19 20  1  0
 20 21  1  0
 21 22  1  0
 22 23  2  0
 23 24  1  0
 24 25  1  0
 25 26  2  0
 26 27  1  0
 24 28  1  0
 23 29  1  0
 21 30  1  0
 21 31  1  0
 20 32  1  0
 20 33  1  0
  5 34  2  0
 34 35  1  0
  4 36  1  0
  2 37  1  0
  1 38  1  0
 34  1  1  0
 19  6  1  0
 26 22  1  0
 12  9  1  0
M  END
>  <cnnaffinity>  (1) 
-5.67303

>  <filename>  (1) 
c1cncc(-n2nc(C3CSC3)nc2CCc2cn[nH]c2)c1

$$$$
