
     RDKit          3D

 40 43  0  0  0  0  0  0  0  0999 V2000
    4.8008    1.3373   19.0049 C   0  0  0  0  0  0  0  0  0  0  0  0
    5.4386    1.3059   17.7638 C   0  0  0  0  0  0  0  0  0  0  0  0
    6.5770    0.6232   17.5470 N   0  0  0  0  0  0  0  0  0  0  0  0
    7.1226   -0.0264   18.5831 C   0  0  0  0  0  0  0  0  0  0  0  0
    6.5942    0.0085   19.8887 C   0  0  0  0  0  0  0  0  0  0  0  0
    7.2818   -0.6345   20.9626 N   0  0  0  0  0  0  0  0  0  0  0  0
    7.7291   -1.9100   20.8135 N   0  0  0  0  0  0  0  0  0  0  0  0
    8.2459   -2.1795   21.9967 C   0  0  0  0  0  0  0  0  0  0  0  0
    8.8700   -3.4731   22.3539 C   0  0  0  0  0  0  0  0  0  0  0  0
    8.3749   -4.3637   23.4716 C   0  0  0  0  0  0  0  0  0  0  0  0
    8.2015   -4.7908   22.0458 C   0  0  0  0  0  0  0  0  0  0  0  0
    8.7784   -5.6348   21.6770 H   0  0  0  0  0  0  0  0  0  0  0  0
    7.1960   -4.7225   21.6306 H   0  0  0  0  0  0  0  0  0  0  0  0
    7.4914   -4.0784   24.0418 H   0  0  0  0  0  0  0  0  0  0  0  0
    9.1626   -4.8519   24.0462 H   0  0  0  0  0  0  0  0  0  0  0  0
    9.9524   -3.3598   22.3221 H   0  0  0  0  0  0  0  0  0  0  0  0
    8.2297   -1.1518   22.8766 N   0  0  0  0  0  0  0  0  0  0  0  0
    7.6334   -0.1849   22.2102 C   0  0  0  0  0  0  0  0  0  0  0  0
    7.3282    1.1558   22.7919 C   0  0  0  0  0  0  0  0  0  0  0  0
    8.3730    1.6648   23.7982 C   0  0  0  0  0  0  0  0  0  0  0  0
    7.9909    3.0097   24.4494 C   0  0  0  0  0  0  0  0  0  0  0  0
    7.8865    4.1499   23.4683 C   0  0  0  0  0  0  0  0  0  0  0  0
    6.8036    4.5664   22.7509 C   0  0  0  0  0  0  0  0  0  0  0  0
    7.1028    5.5452   21.7606 C   0  0  0  0  0  0  0  0  0  0  0  0
    8.4209    5.8845   21.7724 C   0  0  0  0  0  0  0  0  0  0  0  0
    9.2977    5.0303   22.9775 S   0  0  0  0  0  0  0  0  0  0  0  0
    8.9401    6.5463   21.0979 H   0  0  0  0  0  0  0  0  0  0  0  0
    6.3777    5.9603   21.0667 H   0  0  0  0  0  0  0  0  0  0  0  0
    5.8016    4.1786   22.9004 H   0  0  0  0  0  0  0  0  0  0  0  0
    7.0303    2.8871   24.9674 H   0  0  0  0  0  0  0  0  0  0  0  0
    8.7259    3.2589   25.2224 H   0  0  0  0  0  0  0  0  0  0  0  0
    9.3506    1.7611   23.3121 H   0  0  0  0  0  0  0  0  0  0  0  0
    8.4848    0.9196   24.5945 H   0  0  0  0  0  0  0  0  0  0  0  0
    7.1798    1.8853   21.9884 H   0  0  0  0  0  0  0  0  0  0  0  0
    6.3629    1.0559   23.3061 H   0  0  0  0  0  0  0  0  0  0  0  0
    5.3853    0.6834   20.0955 C   0  0  0  0  0  0  0  0  0  0  0  0
    4.9092    0.6859   21.0761 H   0  0  0  0  0  0  0  0  0  0  0  0
    8.0292   -0.5861   18.3720 H   0  0  0  0  0  0  0  0  0  0  0  0
    5.0131    1.8395   16.9124 H   0  0  0  0  0  0  0  0  0  0  0  0
    3.8643    1.8672   19.1150 H   0  0  0  0  0  0  0  0  0  0  0  0
  1  2  2  0
  2  3  1  0
  3  4  2  0
  4  5  1  0
  5  6  1  0
  6  7  1  0
  7  8  2  0
  8  9  1  0
  9 10  1  0
 10 11  1  0
 11 12  1  0
 11 13  1  0
 10 14  1  0
 10 15  1  0
  9 16  1  0
  8 17  1  0
 17 18  2  0
 18 19  1  0
 19 20  1  0
 20 21  1  0
 21 22  1  0
 22 23  2  0
 23 24  1  0
 24 25  2  0
 25 26  1  0
 25 27  1  0
 24 28  1  0
 23 29  1  0
 21 30  1  0
 21 31  1  0
 20 32  1  0
 20 33  1  0
 19 34  1  0
 19 35  1  0
  5 36  2  0
 36 37  1  0
  4 38  1  0
  2 39  1  0
  1 40  1  0
 36  1  1  0
 18  6  1  0
 26 22  1  0
 11  9  1  0
M  END
>  <cnnaffinity>  (1) 
-5.79846

>  <filename>  (1) 
c1cncc(-n2nc(C3CC3)nc2CCCc2cccs2)c1

$$$$
