
     RDKit          3D

 37 40  0  0  0  0  0  0  0  0999 V2000
    4.8183    1.3324   19.0386 C   0  0  0  0  0  0  0  0  0  0  0  0
    5.4409    1.3080   17.7885 C   0  0  0  0  0  0  0  0  0  0  0  0
    6.5800    0.6330   17.5592 N   0  0  0  0  0  0  0  0  0  0  0  0
    7.1441   -0.0136   18.5869 C   0  0  0  0  0  0  0  0  0  0  0  0
    6.6305    0.0148   19.8980 C   0  0  0  0  0  0  0  0  0  0  0  0
    7.3434   -0.6178   20.9628 N   0  0  0  0  0  0  0  0  0  0  0  0
    7.7352   -1.9166   20.8649 N   0  0  0  0  0  0  0  0  0  0  0  0
    8.2715   -2.1473   22.0486 C   0  0  0  0  0  0  0  0  0  0  0  0
    8.9033   -3.4255   22.4343 C   0  0  0  0  0  0  0  0  0  0  0  0
    8.2096   -4.7510   22.2562 C   0  0  0  0  0  0  0  0  0  0  0  0
    8.4831   -4.2316   23.6421 C   0  0  0  0  0  0  0  0  0  0  0  0
    9.2969   -4.6918   24.2016 H   0  0  0  0  0  0  0  0  0  0  0  0
    7.6404   -3.8957   24.2449 H   0  0  0  0  0  0  0  0  0  0  0  0
    8.7846   -5.5963   21.8852 H   0  0  0  0  0  0  0  0  0  0  0  0
    7.1764   -4.7086   21.9142 H   0  0  0  0  0  0  0  0  0  0  0  0
    9.9810   -3.3523   22.3011 H   0  0  0  0  0  0  0  0  0  0  0  0
    8.2913   -1.0840   22.8910 N   0  0  0  0  0  0  0  0  0  0  0  0
    7.7323   -0.1299   22.1803 C   0  0  0  0  0  0  0  0  0  0  0  0
    7.7026    1.3083   22.5889 C   0  0  0  0  0  0  0  0  0  0  0  0
    8.6964    2.2239   21.8142 C   0  0  0  0  0  0  0  0  0  0  0  0
    8.6444    3.6514   22.2547 C   0  0  0  0  0  0  0  0  0  0  0  0
    9.4073    4.2241   23.1544 N   0  0  0  0  0  0  0  0  0  0  0  0
    8.9565    5.5190   23.2510 C   0  0  0  0  0  0  0  0  0  0  0  0
    7.9074    5.7290   22.4072 C   0  0  0  0  0  0  0  0  0  0  0  0
    7.7118    4.5205   21.7779 N   0  0  0  0  0  0  0  0  0  0  0  0
    7.0545    4.3046   21.0455 H   0  0  0  0  0  0  0  0  0  0  0  0
    7.2959    6.5997   22.2168 H   0  0  0  0  0  0  0  0  0  0  0  0
    9.3968    6.2311   23.9383 H   0  0  0  0  0  0  0  0  0  0  0  0
    8.4915    2.1865   20.7356 H   0  0  0  0  0  0  0  0  0  0  0  0
    9.7221    1.8766   21.9766 H   0  0  0  0  0  0  0  0  0  0  0  0
    7.9400    1.3155   23.6585 H   0  0  0  0  0  0  0  0  0  0  0  0
    6.6863    1.6957   22.4810 H   0  0  0  0  0  0  0  0  0  0  0  0
    5.4196    0.6815   20.1208 C   0  0  0  0  0  0  0  0  0  0  0  0
    4.9516    0.6775   21.1073 H   0  0  0  0  0  0  0  0  0  0  0  0
    8.0504   -0.5703   18.3677 H   0  0  0  0  0  0  0  0  0  0  0  0
    5.0002    1.8362   16.9426 H   0  0  0  0  0  0  0  0  0  0  0  0
    3.8801    1.8586   19.1609 H   0  0  0  0  0  0  0  0  0  0  0  0
  1  2  2  0
  2  3  1  0
  3  4  2  0
  4  5  1  0
  5  6  1  0
  6  7  1  0
  7  8  2  0
  8  9  1  0
  9 10  1  0
 10 11  1  0
 11 12  1  0
 11 13  1  0
 10 14  1  0
 10 15  1  0
  9 16  1  0
  8 17  1  0
 17 18  2  0
 18 19  1  0
 19 20  1  0
 20 21  1  0
 21 22  2  0
 22 23  1  0
 23 24  2  0
 24 25  1  0
 25 26  1  0
 24 27  1  0
 23 28  1  0
 20 29  1  0
 20 30  1  0
 19 31  1  0
 19 32  1  0
  5 33  2  0
 33 34  1  0
  4 35  1  0
  2 36  1  0
  1 37  1  0
 33  1  1  0
 18  6  1  0
 25 21  1  0
 11  9  1  0
M  END
>  <cnnaffinity>  (1) 
-5.61696

>  <filename>  (1) 
c1cncc(-n2nc(C3CC3)nc2CCc2ncc[nH]2)c1

$$$$
