
     RDKit          3D

 34 37  0  0  0  0  0  0  0  0999 V2000
    4.9879    1.7839   16.9805 H   0  0  0  0  0  0  0  0  0  0  0  0
    5.4282    1.2922   17.8469 C   0  0  0  0  0  0  0  0  0  0  0  0
    6.5721    0.6271   17.6233 N   0  0  0  0  0  0  0  0  0  0  0  0
    7.1430    0.0191   18.6631 C   0  0  0  0  0  0  0  0  0  0  0  0
    8.0503   -0.5475   18.4583 H   0  0  0  0  0  0  0  0  0  0  0  0
    6.6359    0.0718   19.9714 C   0  0  0  0  0  0  0  0  0  0  0  0
    7.4023   -0.6333   20.9973 C   0  0  0  0  0  0  0  0  0  0  0  0
    8.0353   -1.7724   20.8071 N   0  0  0  0  0  0  0  0  0  0  0  0
    8.6028   -2.0956   21.9813 N   0  0  0  0  0  0  0  0  0  0  0  0
    8.3724   -1.1908   22.8655 N   0  0  0  0  0  0  0  0  0  0  0  0
    7.6135   -0.2456   22.2766 N   0  0  0  0  0  0  0  0  0  0  0  0
    7.3292    0.9985   22.9915 C   0  0  0  0  0  0  0  0  0  0  0  0
    8.2647    1.3125   23.4640 H   0  0  0  0  0  0  0  0  0  0  0  0
    7.0639    1.7487   22.2401 H   0  0  0  0  0  0  0  0  0  0  0  0
    6.2497    0.9282   24.0685 C   0  0  0  0  0  0  0  0  0  0  0  0
    5.8432   -0.2598   24.6338 C   0  0  0  0  0  0  0  0  0  0  0  0
    6.4225   -1.1597   24.4411 H   0  0  0  0  0  0  0  0  0  0  0  0
    4.6832   -0.3265   25.4553 C   0  0  0  0  0  0  0  0  0  0  0  0
    4.3294   -1.2996   25.7901 H   0  0  0  0  0  0  0  0  0  0  0  0
    3.9976    0.8192   25.7894 C   0  0  0  0  0  0  0  0  0  0  0  0
    3.0750    0.8051   26.3608 H   0  0  0  0  0  0  0  0  0  0  0  0
    4.4987    2.0933   25.3911 C   0  0  0  0  0  0  0  0  0  0  0  0
    3.8561    3.2056   25.8742 N   0  0  0  0  0  0  0  0  0  0  0  0
    4.4045    4.3748   25.6373 C   0  0  0  0  0  0  0  0  0  0  0  0
    3.8888    5.2402   26.0546 H   0  0  0  0  0  0  0  0  0  0  0  0
    5.6091    4.5563   24.9003 C   0  0  0  0  0  0  0  0  0  0  0  0
    6.0174    5.5542   24.7915 H   0  0  0  0  0  0  0  0  0  0  0  0
    6.2365    3.4541   24.3626 C   0  0  0  0  0  0  0  0  0  0  0  0
    7.1754    3.5483   23.8149 H   0  0  0  0  0  0  0  0  0  0  0  0
    5.6744    2.1575   24.5665 C   0  0  0  0  0  0  0  0  0  0  0  0
    5.4256    0.7435   20.1912 C   0  0  0  0  0  0  0  0  0  0  0  0
    4.9742    0.7648   21.1871 H   0  0  0  0  0  0  0  0  0  0  0  0
    4.8096    1.3593   19.1003 C   0  0  0  0  0  0  0  0  0  0  0  0
    3.8746    1.8961   19.2056 H   0  0  0  0  0  0  0  0  0  0  0  0
  1  2  1  0
  2  3  2  0
  3  4  1  0
  4  5  1  0
  4  6  2  0
  6  7  1  0
  7  8  2  0
  8  9  1  0
  9 10  2  0
 10 11  1  0
 11 12  1  0
 12 13  1  0
 12 14  1  0
 12 15  1  0
 15 16  2  0
 16 17  1  0
 16 18  1  0
 18 19  1  0
 18 20  2  0
 20 21  1  0
 20 22  1  0
 22 23  2  0
 23 24  1  0
 24 25  1  0
 24 26  2  0
 26 27  1  0
 26 28  1  0
 28 29  1  0
 28 30  2  0
  6 31  1  0
 31 32  1  0
 31 33  2  0
 33 34  1  0
 33  2  1  0
 11  7  1  0
 30 15  1  0
 30 22  1  0
M  END
>  <cnnaffinity>  (1) 
-4.75525

>  <filename>  (1) 
c1cncc(-c2nnnn2Cc2cccc3ncccc23)c1

$$$$
