
     RDKit          3D

 34 36  0  0  0  0  0  0  0  0999 V2000
    4.9730    1.8803   16.9795 H   0  0  0  0  0  0  0  0  0  0  0  0
    5.4226    1.3211   17.7982 C   0  0  0  0  0  0  0  0  0  0  0  0
    6.5695    0.6798   17.5229 N   0  0  0  0  0  0  0  0  0  0  0  0
    7.1605    0.0167   18.5313 C   0  0  0  0  0  0  0  0  0  0  0  0
    8.0777   -0.5142   18.2831 H   0  0  0  0  0  0  0  0  0  0  0  0
    6.6523   -0.0468   19.8520 C   0  0  0  0  0  0  0  0  0  0  0  0
    7.2794   -0.7292   20.8978 N   0  0  0  0  0  0  0  0  0  0  0  0
    6.6726   -1.0049   21.6637 H   0  0  0  0  0  0  0  0  0  0  0  0
    8.6699   -0.7480   21.1718 C   0  0  0  0  0  0  0  0  0  0  0  0
    9.7079    0.1555   20.8249 C   0  0  0  0  0  0  0  0  0  0  0  0
    9.6157    1.0389   20.2061 H   0  0  0  0  0  0  0  0  0  0  0  0
   10.8876   -0.1856   21.3332 N   0  0  0  0  0  0  0  0  0  0  0  0
   10.6241   -1.3223   22.0309 N   0  0  0  0  0  0  0  0  0  0  0  0
   11.3610   -1.8664   22.4531 H   0  0  0  0  0  0  0  0  0  0  0  0
    9.3198   -1.6865   21.9455 C   0  0  0  0  0  0  0  0  0  0  0  0
    8.8001   -2.8006   22.4743 O   0  0  0  0  0  0  0  0  0  0  0  0
    9.4899   -3.5034   23.5150 C   0  0  0  0  0  0  0  0  0  0  0  0
   10.4663   -3.8670   23.1598 H   0  0  0  0  0  0  0  0  0  0  0  0
    9.6677   -2.7197   24.8201 C   0  0  0  0  0  0  0  0  0  0  0  0
   10.5915   -2.1343   24.8187 H   0  0  0  0  0  0  0  0  0  0  0  0
    8.8387   -2.0106   24.9252 H   0  0  0  0  0  0  0  0  0  0  0  0
    9.6039   -3.7915   25.9374 C   0  0  0  0  0  0  0  0  0  0  0  0
    8.9318   -3.4610   26.7388 H   0  0  0  0  0  0  0  0  0  0  0  0
   10.5886   -3.9791   26.3743 H   0  0  0  0  0  0  0  0  0  0  0  0
    9.0946   -5.0921   25.2603 C   0  0  0  0  0  0  0  0  0  0  0  0
    8.3173   -5.5963   25.8391 H   0  0  0  0  0  0  0  0  0  0  0  0
    9.9205   -5.8032   25.1338 H   0  0  0  0  0  0  0  0  0  0  0  0
    8.5801   -4.6472   23.8950 C   0  0  0  0  0  0  0  0  0  0  0  0
    8.5665   -5.4368   23.1345 H   0  0  0  0  0  0  0  0  0  0  0  0
    7.5704   -4.2206   23.9890 H   0  0  0  0  0  0  0  0  0  0  0  0
    5.4280    0.5915   20.1022 C   0  0  0  0  0  0  0  0  0  0  0  0
    4.9986    0.5645   21.1059 H   0  0  0  0  0  0  0  0  0  0  0  0
    4.8134    1.2895   19.0585 C   0  0  0  0  0  0  0  0  0  0  0  0
    3.8802    1.8189   19.2177 H   0  0  0  0  0  0  0  0  0  0  0  0
  1  2  1  0
  2  3  2  0
  3  4  1  0
  4  5  1  0
  4  6  2  0
  6  7  1  0
  7  8  1  0
  7  9  1  0
  9 10  1  0
 10 11  1  0
 10 12  2  0
 12 13  1  0
 13 14  1  0
 13 15  1  0
 15 16  1  0
 16 17  1  0
 17 18  1  0
 17 19  1  0
 19 20  1  0
 19 21  1  0
 19 22  1  0
 22 23  1  0
 22 24  1  0
 22 25  1  0
 25 26  1  0
 25 27  1  0
 25 28  1  0
 28 29  1  0
 28 30  1  0
  6 31  1  0
 31 32  1  0
 31 33  2  0
 33 34  1  0
 33  2  1  0
 15  9  2  0
 28 17  1  0
M  END
>  <cnnaffinity>  (1) 
-5.34606

>  <filename>  (1) 
c1cncc(Nc2cn[nH]c2OC2CCCC2)c1

$$$$
