
     RDKit          3D

 40 42  0  0  0  0  0  0  0  0999 V2000
    4.8026    1.3183   19.0977 C   0  0  0  0  0  0  0  0  0  0  0  0
    5.3934    1.3003   17.8296 C   0  0  0  0  0  0  0  0  0  0  0  0
    6.5535    0.6820   17.5622 N   0  0  0  0  0  0  0  0  0  0  0  0
    7.1662    0.0725   18.5830 C   0  0  0  0  0  0  0  0  0  0  0  0
    6.6614    0.0145   19.8955 C   0  0  0  0  0  0  0  0  0  0  0  0
    7.3781   -0.7076   20.9776 C   0  0  0  0  0  0  0  0  0  0  0  0
    6.6718   -1.5242   21.8649 C   0  0  0  0  0  0  0  0  0  0  0  0
    7.3522   -2.1717   22.9012 C   0  0  0  0  0  0  0  0  0  0  0  0
    6.6310   -3.0752   23.8516 C   0  0  0  0  0  0  0  0  0  0  0  0
    6.1319   -2.2761   24.9838 N   0  0  0  0  0  4  0  0  0  0  0  0
    5.3935   -3.0797   25.9728 C   0  0  0  0  0  0  0  0  0  0  0  0
    4.8939   -2.2419   27.1481 C   0  0  0  0  0  0  0  0  0  0  0  0
    4.4995   -3.1375   28.3411 C   0  0  0  0  0  0  0  0  0  0  0  0
    3.1211   -3.7476   28.0486 C   0  0  0  0  0  0  0  0  0  0  0  0
    2.1888   -2.4980   27.1006 S   0  0  0  0  0  0  0  0  0  0  0  0
    3.6324   -1.4200   26.8160 C   0  0  0  0  0  0  0  0  0  0  0  0
    3.5598   -0.5452   27.4667 H   0  0  0  0  0  0  0  0  0  0  0  0
    3.6002   -1.0701   25.7780 H   0  0  0  0  0  0  0  0  0  0  0  0
    3.2026   -4.6612   27.4511 H   0  0  0  0  0  0  0  0  0  0  0  0
    2.5776   -3.9950   28.9651 H   0  0  0  0  0  0  0  0  0  0  0  0
    5.2416   -3.9244   28.5235 H   0  0  0  0  0  0  0  0  0  0  0  0
    4.4553   -2.5339   29.2554 H   0  0  0  0  0  0  0  0  0  0  0  0
    5.7123   -1.5715   27.4359 H   0  0  0  0  0  0  0  0  0  0  0  0
    4.5444   -3.5923   25.4975 H   0  0  0  0  0  0  0  0  0  0  0  0
    6.0366   -3.8892   26.3480 H   0  0  0  0  0  0  0  0  0  0  0  0
    6.9535   -1.7933   25.4297 H   0  0  0  0  0  0  0  0  0  0  0  0
    5.5287   -1.5077   24.5766 H   0  0  0  0  0  0  0  0  0  0  0  0
    7.2899   -3.8762   24.2072 H   0  0  0  0  0  0  0  0  0  0  0  0
    5.7889   -3.5598   23.3420 H   0  0  0  0  0  0  0  0  0  0  0  0
    8.7366   -1.9724   22.9907 C   0  0  0  0  0  0  0  0  0  0  0  0
    9.4434   -1.2026   22.1559 N   0  0  0  0  0  0  0  0  0  0  0  0
    8.7657   -0.5917   21.1806 C   0  0  0  0  0  0  0  0  0  0  0  0
    9.3400    0.0496   20.5130 H   0  0  0  0  0  0  0  0  0  0  0  0
    9.3218   -2.4783   23.7558 H   0  0  0  0  0  0  0  0  0  0  0  0
    5.5976   -1.6586   21.7186 H   0  0  0  0  0  0  0  0  0  0  0  0
    5.4367    0.6507   20.1460 C   0  0  0  0  0  0  0  0  0  0  0  0
    5.0144    0.6378   21.1553 H   0  0  0  0  0  0  0  0  0  0  0  0
    8.1072   -0.4238   18.3558 H   0  0  0  0  0  0  0  0  0  0  0  0
    4.9124    1.7914   16.9868 H   0  0  0  0  0  0  0  0  0  0  0  0
    3.8721    1.8465   19.2523 H   0  0  0  0  0  0  0  0  0  0  0  0
  1  2  2  0
  2  3  1  0
  3  4  2  0
  4  5  1  0
  5  6  1  0
  6  7  2  0
  7  8  1  0
  8  9  1  0
  9 10  1  0
 10 11  1  0
 11 12  1  0
 12 13  1  0
 13 14  1  0
 14 15  1  0
 15 16  1  0
 16 17  1  0
 16 18  1  0
 14 19  1  0
 14 20  1  0
 13 21  1  0
 13 22  1  0
 12 23  1  0
 11 24  1  0
 11 25  1  0
 10 26  1  0
 10 27  1  0
  9 28  1  0
  9 29  1  0
  8 30  2  0
 30 31  1  0
 31 32  2  0
 32 33  1  0
 30 34  1  0
  7 35  1  0
  5 36  2  0
 36 37  1  0
  4 38  1  0
  2 39  1  0
  1 40  1  0
 36  1  1  0
 32  6  1  0
 16 12  1  0
M  CHG  1  10   1
M  END
>  <cnnaffinity>  (1) 
-4.93388

>  <filename>  (1) 
c1cncc(-c2cncc(C[NH2+]CC3CCSC3)c2)c1

$$$$
