
     RDKit          3D

 43 46  0  0  0  0  0  0  0  0999 V2000
    4.7992    1.3143   19.0952 C   0  0  0  0  0  0  0  0  0  0  0  0
    5.3951    1.3002   17.8291 C   0  0  0  0  0  0  0  0  0  0  0  0
    6.5591    0.6881   17.5638 N   0  0  0  0  0  0  0  0  0  0  0  0
    7.1584    0.0612   18.5853 C   0  0  0  0  0  0  0  0  0  0  0  0
    6.6420   -0.0111   19.8895 C   0  0  0  0  0  0  0  0  0  0  0  0
    7.4048   -0.6763   21.0003 C   0  0  0  0  0  0  0  0  0  0  0  0
    8.3177    0.3220   21.7287 C   0  0  0  0  0  0  0  0  0  0  0  0
    9.1018   -0.3370   22.8772 C   0  0  0  0  0  0  0  0  0  0  0  0
    8.2026   -0.8927   23.9353 C   0  0  0  0  0  0  0  0  0  0  0  0
    7.9271   -2.1686   24.1191 N   0  0  0  0  0  0  0  0  0  0  0  0
    6.9392   -2.1464   25.0509 C   0  0  0  0  0  0  0  0  0  0  0  0
    6.2927   -3.4108   25.5172 C   0  0  0  0  0  0  0  0  0  0  0  0
    7.2728   -4.5519   25.9209 C   0  0  0  0  0  0  0  0  0  0  0  0
    6.6090   -5.6675   24.6386 S   0  0  0  0  0  0  0  0  0  0  0  0
    5.5566   -4.2017   24.3927 C   0  0  0  0  0  0  0  0  0  0  0  0
    4.5005   -4.4051   24.5934 H   0  0  0  0  0  0  0  0  0  0  0  0
    5.6608   -3.7739   23.3900 H   0  0  0  0  0  0  0  0  0  0  0  0
    7.1242   -4.9434   26.9326 H   0  0  0  0  0  0  0  0  0  0  0  0
    8.3334   -4.3246   25.7722 H   0  0  0  0  0  0  0  0  0  0  0  0
    5.6227   -3.1385   26.3310 H   0  0  0  0  0  0  0  0  0  0  0  0
    6.5755   -0.9445   25.4483 N   0  0  0  0  0  0  0  0  0  0  0  0
    7.4096   -0.1251   24.7432 N   0  0  0  0  0  0  0  0  0  0  0  0
    7.3515    1.2931   24.8717 C   0  0  0  0  0  0  0  0  0  0  0  0
    8.5037    2.0605   25.0910 C   0  0  0  0  0  0  0  0  0  0  0  0
    8.3647    3.4478   25.1823 C   0  0  0  0  0  0  0  0  0  0  0  0
    7.0958    4.0173   25.0503 C   0  0  0  0  0  0  0  0  0  0  0  0
    5.9889    3.2909   24.8487 N   0  0  0  0  0  0  0  0  0  0  0  0
    6.1181    1.9637   24.7709 C   0  0  0  0  0  0  0  0  0  0  0  0
    5.1999    1.4074   24.6109 H   0  0  0  0  0  0  0  0  0  0  0  0
    6.9579    5.0954   25.1158 H   0  0  0  0  0  0  0  0  0  0  0  0
    9.2268    4.0792   25.3490 H   0  0  0  0  0  0  0  0  0  0  0  0
    9.4761    1.5806   25.2108 H   0  0  0  0  0  0  0  0  0  0  0  0
    9.7034   -1.1642   22.4861 H   0  0  0  0  0  0  0  0  0  0  0  0
    9.8015    0.3843   23.3091 H   0  0  0  0  0  0  0  0  0  0  0  0
    7.7186    1.1579   22.1156 H   0  0  0  0  0  0  0  0  0  0  0  0
    9.0183    0.7612   21.0079 H   0  0  0  0  0  0  0  0  0  0  0  0
    8.0129   -1.5025   20.6061 H   0  0  0  0  0  0  0  0  0  0  0  0
    6.7064   -1.1306   21.7186 H   0  0  0  0  0  0  0  0  0  0  0  0
    5.4324    0.6472   20.1442 C   0  0  0  0  0  0  0  0  0  0  0  0
    5.0108    0.6375   21.1547 H   0  0  0  0  0  0  0  0  0  0  0  0
    8.1099   -0.4182   18.3551 H   0  0  0  0  0  0  0  0  0  0  0  0
    4.9152    1.7913   16.9865 H   0  0  0  0  0  0  0  0  0  0  0  0
    3.8700    1.8475   19.2505 H   0  0  0  0  0  0  0  0  0  0  0  0
  1  2  2  0
  2  3  1  0
  3  4  2  0
  4  5  1  0
  5  6  1  0
  6  7  1  0
  7  8  1  0
  8  9  1  0
  9 10  2  0
 10 11  1  0
 11 12  1  0
 12 13  1  0
 13 14  1  0
 14 15  1  0
 15 16  1  0
 15 17  1  0
 13 18  1  0
 13 19  1  0
 12 20  1  0
 11 21  2  0
 21 22  1  0
 22 23  1  0
 23 24  2  0
 24 25  1  0
 25 26  2  0
 26 27  1  0
 27 28  2  0
 28 29  1  0
 26 30  1  0
 25 31  1  0
 24 32  1  0
  8 33  1  0
  8 34  1  0
  7 35  1  0
  7 36  1  0
  6 37  1  0
  6 38  1  0
  5 39  2  0
 39 40  1  0
  4 41  1  0
  2 42  1  0
  1 43  1  0
 39  1  1  0
 22  9  1  0
 28 23  1  0
 15 12  1  0
M  END
>  <cnnaffinity>  (1) 
-5.64814

>  <filename>  (1) 
c1cncc(CCCc2nc(C3CSC3)nn2-c2cccnc2)c1

$$$$
