
     RDKit          3D

 28 31  0  0  0  0  0  0  0  0999 V2000
    2.4725   -5.5722   23.9210 H   0  0  0  0  0  0  0  0  0  0  0  0
    3.5110   -5.2619   23.9524 C   0  0  0  0  0  0  0  0  0  0  0  0
    4.4478   -5.8165   24.7738 N   0  0  0  0  0  0  0  0  0  0  0  0
    5.5411   -5.1688   24.4536 C   0  0  0  0  0  0  0  0  0  0  0  0
    6.5244   -5.2882   24.8901 H   0  0  0  0  0  0  0  0  0  0  0  0
    5.2829   -4.2651   23.4833 N   0  0  0  0  0  0  0  0  0  0  0  0
    6.1763   -3.3875   22.8441 C   0  0  0  0  0  0  0  0  0  0  0  0
    7.4743   -3.3278   23.1567 N   0  0  0  0  0  0  0  0  0  0  0  0
    7.9045   -2.3695   22.3050 N   0  0  0  0  0  0  0  0  0  0  0  0
    9.1122   -1.7369   22.0769 C   0  0  0  0  0  0  0  0  0  0  0  0
    9.9843   -1.9700   22.6613 H   0  0  0  0  0  0  0  0  0  0  0  0
    8.8843   -0.8347   21.0862 C   0  0  0  0  0  0  0  0  0  0  0  0
    9.5349   -0.1074   20.6275 H   0  0  0  0  0  0  0  0  0  0  0  0
    7.5407   -0.8789   20.7148 N   0  0  0  0  0  0  0  0  0  0  0  0
    6.8753   -0.0649   19.7601 C   0  0  0  0  0  0  0  0  0  0  0  0
    7.3441    0.0647   18.4381 C   0  0  0  0  0  0  0  0  0  0  0  0
    8.2800   -0.4034   18.1284 H   0  0  0  0  0  0  0  0  0  0  0  0
    6.6779    0.7263   17.4834 N   0  0  0  0  0  0  0  0  0  0  0  0
    5.5163    1.3145   17.8191 C   0  0  0  0  0  0  0  0  0  0  0  0
    4.9982    1.8370   17.0219 H   0  0  0  0  0  0  0  0  0  0  0  0
    4.9865    1.2880   19.1136 C   0  0  0  0  0  0  0  0  0  0  0  0
    4.0624    1.8174   19.3367 H   0  0  0  0  0  0  0  0  0  0  0  0
    5.6836    0.5977   20.1057 C   0  0  0  0  0  0  0  0  0  0  0  0
    5.3414    0.5780   21.1398 H   0  0  0  0  0  0  0  0  0  0  0  0
    6.9386   -1.8503   21.5065 C   0  0  0  0  0  0  0  0  0  0  0  0
    5.7758   -2.5292   21.8111 C   0  0  0  0  0  0  0  0  0  0  0  0
    4.7496   -2.4892   21.5263 H   0  0  0  0  0  0  0  0  0  0  0  0
    3.9584   -4.3241   23.1507 N   0  0  0  0  0  0  0  0  0  0  0  0
  1  2  1  0
  2  3  1  0
  3  4  2  0
  4  5  1  0
  4  6  1  0
  6  7  1  0
  7  8  2  0
  8  9  1  0
  9 10  1  0
 10 11  1  0
 10 12  2  0
 12 13  1  0
 12 14  1  0
 14 15  1  0
 15 16  2  0
 16 17  1  0
 16 18  1  0
 18 19  2  0
 19 20  1  0
 19 21  1  0
 21 22  1  0
 21 23  2  0
 23 24  1  0
 14 25  1  0
 25 26  2  0
 26 27  1  0
  6 28  1  0
 28  2  2  0
 26  7  1  0
 25  9  1  0
 23 15  1  0
M  END
>  <cnnaffinity>  (1) 
-4.85141

>  <filename>  (1) 
c1cncc(-n2ccn3nc(-n4cncn4)cc23)c1

$$$$
