
     RDKit          3D

 47 50  0  0  0  0  0  0  0  0999 V2000
    4.8140    1.2196   18.9898 C   0  0  0  0  0  0  0  0  0  0  0  0
    5.4214    1.1692   17.7290 C   0  0  0  0  0  0  0  0  0  0  0  0
    6.5011    0.4170   17.4676 N   0  0  0  0  0  0  0  0  0  0  0  0
    7.0277   -0.2874   18.4779 C   0  0  0  0  0  0  0  0  0  0  0  0
    6.5196   -0.2698   19.7909 C   0  0  0  0  0  0  0  0  0  0  0  0
    7.1831   -0.9500   20.8579 N   0  0  0  0  0  0  0  0  0  0  0  0
    6.5280   -1.8786   21.6018 N   0  0  0  0  0  0  0  0  0  0  0  0
    7.4209   -2.2127   22.5162 C   0  0  0  0  0  0  0  0  0  0  0  0
    7.1747   -3.2038   23.6284 C   0  0  0  0  0  0  0  0  0  0  0  0
    6.2655   -2.6473   24.7615 C   0  0  0  0  0  0  0  0  0  0  0  0
    6.0324   -3.7157   25.8336 C   0  0  0  0  0  0  0  0  0  0  0  0
    5.4871   -4.9003   25.2786 O   0  0  0  0  0  0  0  0  0  0  0  0
    6.3372   -5.4931   24.3131 C   0  0  0  0  0  0  0  0  0  0  0  0
    6.6064   -4.5553   23.1326 C   0  0  0  0  0  0  0  0  0  0  0  0
    5.6688   -4.3732   22.5899 H   0  0  0  0  0  0  0  0  0  0  0  0
    7.3035   -5.0402   22.4383 H   0  0  0  0  0  0  0  0  0  0  0  0
    7.2924   -5.7905   24.7848 H   0  0  0  0  0  0  0  0  0  0  0  0
    5.8300   -6.4036   23.9816 H   0  0  0  0  0  0  0  0  0  0  0  0
    6.9797   -3.9437   26.3568 H   0  0  0  0  0  0  0  0  0  0  0  0
    5.3134   -3.3722   26.5833 H   0  0  0  0  0  0  0  0  0  0  0  0
    6.7126   -1.7586   25.2247 H   0  0  0  0  0  0  0  0  0  0  0  0
    5.2920   -2.3544   24.3504 H   0  0  0  0  0  0  0  0  0  0  0  0
    8.1739   -3.3701   24.0528 H   0  0  0  0  0  0  0  0  0  0  0  0
    8.6009   -1.5512   22.4248 N   0  0  0  0  0  0  0  0  0  0  0  0
    8.4241   -0.7431   21.3991 C   0  0  0  0  0  0  0  0  0  0  0  0
    9.4181    0.2402   20.8755 C   0  0  0  0  0  0  0  0  0  0  0  0
   10.4154    0.7652   21.9202 C   0  0  0  0  0  0  0  0  0  0  0  0
   11.1507    1.9946   21.3391 C   0  0  0  0  0  0  0  0  0  0  0  0
   12.1944    2.6610   22.0867 C   0  0  0  0  0  0  0  0  0  0  0  0
   13.6738    2.1991   23.3411 C   0  0  0  0  0  0  0  0  0  0  0  0
   13.4695    2.4753   23.4194 C   0  0  0  0  0  0  0  0  0  0  0  0
   13.9245    3.9548   23.0924 C   0  0  0  0  0  0  0  0  0  0  0  0
   12.7784    4.3509   21.8001 S   0  0  0  0  0  0  0  0  0  0  0  0
   13.9489    4.5601   23.9717 H   0  0  0  0  0  0  0  0  0  0  0  0
   13.3023    1.6428   24.3561 H   0  0  0  0  0  0  0  0  0  0  0  0
   14.3564    1.4958   22.7213 H   0  0  0  0  0  0  0  0  0  0  0  0
   10.3680    2.7457   21.1303 H   0  0  0  0  0  0  0  0  0  0  0  0
   11.5567    1.7510   20.3410 H   0  0  0  0  0  0  0  0  0  0  0  0
   11.0852   -0.0529   22.2130 H   0  0  0  0  0  0  0  0  0  0  0  0
    9.8590    1.0548   22.8221 H   0  0  0  0  0  0  0  0  0  0  0  0
    9.9505   -0.2566   20.0558 H   0  0  0  0  0  0  0  0  0  0  0  0
    8.8697    1.0785   20.4326 H   0  0  0  0  0  0  0  0  0  0  0  0
    5.3549    0.4690   20.0381 C   0  0  0  0  0  0  0  0  0  0  0  0
    4.9003    0.4499   21.0286 H   0  0  0  0  0  0  0  0  0  0  0  0
    7.8960   -0.9006   18.2401 H   0  0  0  0  0  0  0  0  0  0  0  0
    5.0223    1.7463   16.8969 H   0  0  0  0  0  0  0  0  0  0  0  0
    3.9445    1.8509   19.1394 H   0  0  0  0  0  0  0  0  0  0  0  0
  1  2  2  0
  2  3  1  0
  3  4  2  0
  4  5  1  0
  5  6  1  0
  6  7  1  0
  7  8  2  0
  8  9  1  0
  9 10  1  0
 10 11  1  0
 11 12  1  0
 12 13  1  0
 13 14  1  0
 14 15  1  0
 14 16  1  0
 13 17  1  0
 13 18  1  0
 11 19  1  0
 11 20  1  0
 10 21  1  0
 10 22  1  0
  9 23  1  0
  8 24  1  0
 24 25  2  0
 25 26  1  0
 26 27  1  0
 27 28  1  0
 28 29  1  0
 29 30  2  0
 30 31  1  0
 31 32  2  0
 32 33  1  0
 32 34  1  0
 31 35  1  0
 30 36  1  0
 28 37  1  0
 28 38  1  0
 27 39  1  0
 27 40  1  0
 26 41  1  0
 26 42  1  0
  5 43  2  0
 43 44  1  0
  4 45  1  0
  2 46  1  0
  1 47  1  0
 43  1  1  0
 25  6  1  0
 33 29  1  0
 14  9  1  0
M  END
>  <cnnaffinity>  (1) 
-6.36582

>  <filename>  (1) 
c1cncc(-n2nc(C3CCOCC3)nc2CCCc2cccs2)c1

$$$$
