
     RDKit          3D

 29 31  0  0  0  0  0  0  0  0999 V2000
    4.9403    1.7885   17.0110 H   0  0  0  0  0  0  0  0  0  0  0  0
    5.4194    1.2810   17.8408 C   0  0  0  0  0  0  0  0  0  0  0  0
    6.5817    0.6680   17.5590 N   0  0  0  0  0  0  0  0  0  0  0  0
    7.2126    0.0551   18.5665 C   0  0  0  0  0  0  0  0  0  0  0  0
    8.1575   -0.4423   18.3619 H   0  0  0  0  0  0  0  0  0  0  0  0
    6.7143    0.0184   19.8847 C   0  0  0  0  0  0  0  0  0  0  0  0
    7.3184   -0.6491   20.9928 N   0  0  0  0  0  0  0  0  0  0  0  0
    8.3965   -1.2322   20.7459 N   0  0  0  0  0  0  0  0  0  0  0  0
    9.0082   -1.9065   21.8438 C   0  0  0  0  0  0  0  0  0  0  0  0
   10.3849   -1.8097   21.8505 C   0  0  0  0  0  0  0  0  0  0  0  0
   10.8629   -1.2188   21.0746 H   0  0  0  0  0  0  0  0  0  0  0  0
   11.1461   -2.4422   22.8530 C   0  0  0  0  0  0  0  0  0  0  0  0
   12.2314   -2.3970   22.7642 H   0  0  0  0  0  0  0  0  0  0  0  0
   10.5206   -3.1198   23.8800 C   0  0  0  0  0  0  0  0  0  0  0  0
   11.0950   -3.5287   24.7050 H   0  0  0  0  0  0  0  0  0  0  0  0
    9.1065   -3.3028   23.8888 C   0  0  0  0  0  0  0  0  0  0  0  0
    8.4360   -4.0668   24.8993 C   0  0  0  0  0  0  0  0  0  0  0  0
    9.0192   -4.4626   25.7275 H   0  0  0  0  0  0  0  0  0  0  0  0
    7.0862   -4.3199   24.8225 C   0  0  0  0  0  0  0  0  0  0  0  0
    6.5826   -4.8960   25.5963 H   0  0  0  0  0  0  0  0  0  0  0  0
    6.3347   -3.8222   23.7265 C   0  0  0  0  0  0  0  0  0  0  0  0
    5.2669   -4.0096   23.6655 H   0  0  0  0  0  0  0  0  0  0  0  0
    6.9418   -3.0628   22.7556 C   0  0  0  0  0  0  0  0  0  0  0  0
    6.3830   -2.6632   21.9197 H   0  0  0  0  0  0  0  0  0  0  0  0
    8.3356   -2.7370   22.8130 C   0  0  0  0  0  0  0  0  0  0  0  0
    5.4923    0.6444   20.1590 C   0  0  0  0  0  0  0  0  0  0  0  0
    5.1038    0.5930   21.1775 H   0  0  0  0  0  0  0  0  0  0  0  0
    4.8347    1.2930   19.1159 C   0  0  0  0  0  0  0  0  0  0  0  0
    3.8958    1.8137   19.2747 H   0  0  0  0  0  0  0  0  0  0  0  0
  1  2  1  0
  2  3  2  0
  3  4  1  0
  4  5  1  0
  4  6  2  0
  6  7  1  0
  7  8  2  3
  8  9  1  0
  9 10  2  0
 10 11  1  0
 10 12  1  0
 12 13  1  0
 12 14  2  0
 14 15  1  0
 14 16  1  0
 16 17  2  0
 17 18  1  0
 17 19  1  0
 19 20  1  0
 19 21  2  0
 21 22  1  0
 21 23  1  0
 23 24  1  0
 23 25  2  0
  6 26  1  0
 26 27  1  0
 26 28  2  0
 28 29  1  0
 28  2  1  0
 25  9  1  0
 25 16  1  0
M  END
>  <cnnaffinity>  (1) 
-5.02717

>  <filename>  (1) 
c1cncc(N=Nc2cccc3ccccc23)c1

$$$$
