
     RDKit          3D

 43 46  0  0  0  0  0  0  0  0999 V2000
    5.0975    1.8100   16.8891 H   0  0  0  0  0  0  0  0  0  0  0  0
    5.4949    1.3000   17.7648 C   0  0  0  0  0  0  0  0  0  0  0  0
    6.6455    0.6297   17.5903 N   0  0  0  0  0  0  0  0  0  0  0  0
    7.1537   -0.0263   18.6401 C   0  0  0  0  0  0  0  0  0  0  0  0
    8.0788   -0.5704   18.4525 H   0  0  0  0  0  0  0  0  0  0  0  0
    6.5581   -0.0307   19.9130 C   0  0  0  0  0  0  0  0  0  0  0  0
    7.1606   -0.7515   21.0393 C   0  0  0  0  0  0  0  0  0  0  0  0
    7.6397   -1.9898   20.9053 N   0  0  0  0  0  0  0  0  0  0  0  0
    8.0045   -2.3116   22.1513 N   0  0  0  0  0  0  0  0  0  0  0  0
    7.8200   -1.3437   23.0553 C   0  0  0  0  0  0  0  0  0  0  0  0
    7.2989   -0.2634   22.3729 C   0  0  0  0  0  0  0  0  0  0  0  0
    7.0275    1.1303   22.8732 C   0  0  0  0  0  0  0  0  0  0  0  0
    6.9523    1.8005   22.0063 H   0  0  0  0  0  0  0  0  0  0  0  0
    6.0342    1.1622   23.3624 H   0  0  0  0  0  0  0  0  0  0  0  0
    8.0750    1.6246   23.7599 N   0  0  0  0  0  0  0  0  0  0  0  0
    8.2384    0.9479   24.4946 H   0  0  0  0  0  0  0  0  0  0  0  0
    7.8317    2.9243   24.3625 C   0  0  0  0  0  0  0  0  0  0  0  0
    7.7905    3.6775   23.5555 H   0  0  0  0  0  0  0  0  0  0  0  0
    8.9447    3.3107   25.3372 C   0  0  0  0  0  0  0  0  0  0  0  0
    9.1112    2.4666   26.0213 H   0  0  0  0  0  0  0  0  0  0  0  0
    9.9005    3.4971   24.8356 H   0  0  0  0  0  0  0  0  0  0  0  0
    8.3837    4.5201   26.1066 C   0  0  0  0  0  0  0  0  0  0  0  0
    8.6375    5.4485   25.5831 H   0  0  0  0  0  0  0  0  0  0  0  0
    8.8109    4.6146   27.1091 H   0  0  0  0  0  0  0  0  0  0  0  0
    6.8422    4.3145   26.1272 C   0  0  0  0  0  0  0  0  0  0  0  0
    6.3281    5.1973   25.7317 H   0  0  0  0  0  0  0  0  0  0  0  0
    6.4549    4.1692   27.1409 H   0  0  0  0  0  0  0  0  0  0  0  0
    6.5650    3.0806   25.2351 C   0  0  0  0  0  0  0  0  0  0  0  0
    5.6460    3.1724   24.6417 H   0  0  0  0  0  0  0  0  0  0  0  0
    6.4449    2.1735   25.8450 H   0  0  0  0  0  0  0  0  0  0  0  0
    8.3877   -1.7835   24.3745 C   0  0  0  0  0  0  0  0  0  0  0  0
    7.6678   -1.6927   25.1889 H   0  0  0  0  0  0  0  0  0  0  0  0
    9.2483   -1.1571   24.6209 H   0  0  0  0  0  0  0  0  0  0  0  0
    8.7883   -3.2648   24.1314 C   0  0  0  0  0  0  0  0  0  0  0  0
    9.7744   -3.5103   24.5354 H   0  0  0  0  0  0  0  0  0  0  0  0
    8.0636   -3.9373   24.5921 H   0  0  0  0  0  0  0  0  0  0  0  0
    8.7543   -3.4612   22.5978 C   0  0  0  0  0  0  0  0  0  0  0  0
    9.7572   -3.4162   22.1682 H   0  0  0  0  0  0  0  0  0  0  0  0
    8.2533   -4.3860   22.2972 H   0  0  0  0  0  0  0  0  0  0  0  0
    5.3541    0.6759   20.0735 C   0  0  0  0  0  0  0  0  0  0  0  0
    4.8603    0.7004   21.0427 H   0  0  0  0  0  0  0  0  0  0  0  0
    4.8062    1.3426   18.9793 C   0  0  0  0  0  0  0  0  0  0  0  0
    3.8773    1.8953   19.0653 H   0  0  0  0  0  0  0  0  0  0  0  0
  1  2  1  0
  2  3  2  0
  3  4  1  0
  4  5  1  0
  4  6  2  0
  6  7  1  0
  7  8  2  0
  8  9  1  0
  9 10  1  0
 10 11  2  0
 11 12  1  0
 12 13  1  0
 12 14  1  0
 12 15  1  0
 15 16  1  0
 15 17  1  0
 17 18  1  0
 17 19  1  0
 19 20  1  0
 19 21  1  0
 19 22  1  0
 22 23  1  0
 22 24  1  0
 22 25  1  0
 25 26  1  0
 25 27  1  0
 25 28  1  0
 28 29  1  0
 28 30  1  0
 10 31  1  0
 31 32  1  0
 31 33  1  0
 31 34  1  0
 34 35  1  0
 34 36  1  0
 34 37  1  0
 37 38  1  0
 37 39  1  0
  6 40  1  0
 40 41  1  0
 40 42  2  0
 42 43  1  0
 42  2  1  0
 11  7  1  0
 28 17  1  0
 37  9  1  0
M  END
>  <cnnaffinity>  (1) 
-5.40368

>  <filename>  (1) 
c1cncc(-c2nn3c(c2CNC2CCCC2)CCC3)c1

$$$$
