
     RDKit          3D

 40 42  0  0  0  0  0  0  0  0999 V2000
    4.9200    1.8165   16.9642 H   0  0  0  0  0  0  0  0  0  0  0  0
    5.3781    1.3033   17.8063 C   0  0  0  0  0  0  0  0  0  0  0  0
    6.5402    0.6812   17.5519 N   0  0  0  0  0  0  0  0  0  0  0  0
    7.1568    0.0854   18.5816 C   0  0  0  0  0  0  0  0  0  0  0  0
    8.1078   -0.3872   18.3384 H   0  0  0  0  0  0  0  0  0  0  0  0
    6.6687    0.0592   19.9109 C   0  0  0  0  0  0  0  0  0  0  0  0
    7.4086   -0.6015   21.0213 C   0  0  0  0  0  0  0  0  0  0  0  0
    8.3516   -1.6698   20.9837 C   0  0  0  0  0  0  0  0  0  0  0  0
    8.7521   -2.1615   20.1184 H   0  0  0  0  0  0  0  0  0  0  0  0
    8.7844   -2.0532   22.1729 N   0  0  0  0  0  0  0  0  0  0  0  0
    8.1358   -1.2176   23.0210 N   0  0  0  0  0  0  0  0  0  0  0  0
    8.3953   -1.1798   23.9887 H   0  0  0  0  0  0  0  0  0  0  0  0
    7.3341   -0.3352   22.3857 C   0  0  0  0  0  0  0  0  0  0  0  0
    6.6031    0.6112   23.0196 O   0  0  0  0  0  0  0  0  0  0  0  0
    7.0519    1.1300   24.2872 C   0  0  0  0  0  0  0  0  0  0  0  0
    7.2283    0.3046   24.9841 H   0  0  0  0  0  0  0  0  0  0  0  0
    6.1946    1.7005   24.6516 H   0  0  0  0  0  0  0  0  0  0  0  0
    8.2778    2.0437   24.2045 C   0  0  0  0  0  0  0  0  0  0  0  0
    8.3466    2.5730   25.1711 H   0  0  0  0  0  0  0  0  0  0  0  0
    8.0627    2.8031   23.4397 H   0  0  0  0  0  0  0  0  0  0  0  0
    9.5326    1.3657   23.8760 N   0  0  0  0  0  0  0  0  0  0  0  0
   10.4096    2.1438   22.9911 C   0  0  0  0  0  0  0  0  0  0  0  0
    9.8080    2.4737   22.1341 H   0  0  0  0  0  0  0  0  0  0  0  0
   10.8068    3.0578   23.4821 H   0  0  0  0  0  0  0  0  0  0  0  0
   11.5783    1.2953   22.4883 C   0  0  0  0  0  0  0  0  0  0  0  0
   11.1731    0.4926   21.8561 H   0  0  0  0  0  0  0  0  0  0  0  0
   12.2208    1.9137   21.8459 H   0  0  0  0  0  0  0  0  0  0  0  0
   12.3714    0.6989   23.6629 C   0  0  0  0  0  0  0  0  0  0  0  0
   12.8778    1.5058   24.2147 H   0  0  0  0  0  0  0  0  0  0  0  0
   13.1652    0.0351   23.2975 H   0  0  0  0  0  0  0  0  0  0  0  0
   11.4156   -0.0512   24.6054 C   0  0  0  0  0  0  0  0  0  0  0  0
   11.9377   -0.4227   25.4951 H   0  0  0  0  0  0  0  0  0  0  0  0
   11.0160   -0.9310   24.0883 H   0  0  0  0  0  0  0  0  0  0  0  0
   10.2479    0.8369   25.0401 C   0  0  0  0  0  0  0  0  0  0  0  0
    9.5482    0.2566   25.6568 H   0  0  0  0  0  0  0  0  0  0  0  0
   10.6308    1.6489   25.6938 H   0  0  0  0  0  0  0  0  0  0  0  0
    5.4312    0.6953   20.1329 C   0  0  0  0  0  0  0  0  0  0  0  0
    5.0074    0.6966   21.1366 H   0  0  0  0  0  0  0  0  0  0  0  0
    4.7769    1.3243   19.0689 C   0  0  0  0  0  0  0  0  0  0  0  0
    3.8341    1.8500   19.2013 H   0  0  0  0  0  0  0  0  0  0  0  0
  1  2  1  0
  2  3  2  0
  3  4  1  0
  4  5  1  0
  4  6  2  0
  6  7  1  0
  7  8  1  0
  8  9  1  0
  8 10  2  0
 10 11  1  0
 11 12  1  0
 11 13  1  0
 13 14  1  0
 14 15  1  0
 15 16  1  0
 15 17  1  0
 15 18  1  0
 18 19  1  0
 18 20  1  0
 18 21  1  0
 21 22  1  0
 22 23  1  0
 22 24  1  0
 22 25  1  0
 25 26  1  0
 25 27  1  0
 25 28  1  0
 28 29  1  0
 28 30  1  0
 28 31  1  0
 31 32  1  0
 31 33  1  0
 31 34  1  0
 34 35  1  0
 34 36  1  0
  6 37  1  0
 37 38  1  0
 37 39  2  0
 39 40  1  0
 39  2  1  0
 13  7  2  0
 34 21  1  0
M  END
>  <cnnaffinity>  (1) 
-5.10735

>  <filename>  (1) 
c1cncc(-c2cn[nH]c2OCCN2CCCCC2)c1

$$$$
