
     RDKit          3D

 39 41  0  0  0  0  0  0  0  0999 V2000
    4.9197    1.8441   16.9588 H   0  0  0  0  0  0  0  0  0  0  0  0
    5.3888    1.3201   17.7859 C   0  0  0  0  0  0  0  0  0  0  0  0
    6.5529    0.7041   17.5214 N   0  0  0  0  0  0  0  0  0  0  0  0
    7.1603    0.0662   18.5286 C   0  0  0  0  0  0  0  0  0  0  0  0
    8.1159   -0.3936   18.2718 H   0  0  0  0  0  0  0  0  0  0  0  0
    6.6515   -0.0106   19.8443 C   0  0  0  0  0  0  0  0  0  0  0  0
    7.3643   -0.7203   20.9325 C   0  0  0  0  0  0  0  0  0  0  0  0
    7.5857   -0.3327   22.2377 C   0  0  0  0  0  0  0  0  0  0  0  0
    7.1358    0.9264   22.8858 C   0  0  0  0  0  0  0  0  0  0  0  0
    6.1630    0.7610   23.3762 H   0  0  0  0  0  0  0  0  0  0  0  0
    6.9703    1.7026   22.1183 H   0  0  0  0  0  0  0  0  0  0  0  0
    8.0713    1.3322   23.9185 N   0  0  0  0  0  0  0  0  0  0  0  0
    8.9644    1.5790   23.4958 H   0  0  0  0  0  0  0  0  0  0  0  0
    7.6060    2.4479   24.7247 C   0  0  0  0  0  0  0  0  0  0  0  0
    6.5656    2.2264   25.0136 H   0  0  0  0  0  0  0  0  0  0  0  0
    8.4094    2.5094   26.0262 C   0  0  0  0  0  0  0  0  0  0  0  0
    8.3851    1.5200   26.4919 H   0  0  0  0  0  0  0  0  0  0  0  0
    9.4604    2.7253   25.7799 H   0  0  0  0  0  0  0  0  0  0  0  0
    7.8166    3.5965   26.9282 C   0  0  0  0  0  0  0  0  0  0  0  0
    8.1697    3.5610   27.9554 H   0  0  0  0  0  0  0  0  0  0  0  0
    6.7409    3.3883   27.0306 H   0  0  0  0  0  0  0  0  0  0  0  0
    7.9635    4.9668   26.2539 C   0  0  0  0  0  0  0  0  0  0  0  0
    7.6295    5.7756   26.9136 H   0  0  0  0  0  0  0  0  0  0  0  0
    9.0248    5.1615   26.0230 H   0  0  0  0  0  0  0  0  0  0  0  0
    7.1507    4.9642   24.9451 C   0  0  0  0  0  0  0  0  0  0  0  0
    6.0805    4.8427   25.1844 H   0  0  0  0  0  0  0  0  0  0  0  0
    7.2380    5.9258   24.4237 H   0  0  0  0  0  0  0  0  0  0  0  0
    7.5985    3.8198   24.0158 C   0  0  0  0  0  0  0  0  0  0  0  0
    8.6153    4.0257   23.6570 H   0  0  0  0  0  0  0  0  0  0  0  0
    6.9621    3.7874   23.1247 H   0  0  0  0  0  0  0  0  0  0  0  0
    8.3042   -1.3834   22.8332 C   0  0  0  0  0  0  0  0  0  0  0  0
    8.6516   -1.4640   23.8554 H   0  0  0  0  0  0  0  0  0  0  0  0
    8.5355   -2.3655   21.9698 N   0  0  0  0  0  0  0  0  0  0  0  0
    7.9791   -1.9288   20.8284 N   0  0  0  0  0  0  0  0  0  0  0  0
    7.9559   -2.5418   20.0281 H   0  0  0  0  0  0  0  0  0  0  0  0
    5.4285    0.6420   20.0883 C   0  0  0  0  0  0  0  0  0  0  0  0
    4.9790    0.6168   21.0819 H   0  0  0  0  0  0  0  0  0  0  0  0
    4.7876    1.3129   19.0481 C   0  0  0  0  0  0  0  0  0  0  0  0
    3.8555    1.8459   19.2061 H   0  0  0  0  0  0  0  0  0  0  0  0
  1  2  1  0
  2  3  2  0
  3  4  1  0
  4  5  1  0
  4  6  2  0
  6  7  1  0
  7  8  2  0
  8  9  1  0
  9 10  1  0
  9 11  1  0
  9 12  1  0
 12 13  1  0
 12 14  1  0
 14 15  1  0
 14 16  1  0
 16 17  1  0
 16 18  1  0
 16 19  1  0
 19 20  1  0
 19 21  1  0
 19 22  1  0
 22 23  1  0
 22 24  1  0
 22 25  1  0
 25 26  1  0
 25 27  1  0
 25 28  1  0
 28 29  1  0
 28 30  1  0
  8 31  1  0
 31 32  1  0
 31 33  2  0
 33 34  1  0
 34 35  1  0
  6 36  1  0
 36 37  1  0
 36 38  2  0
 38 39  1  0
 38  2  1  0
 34  7  1  0
 28 14  1  0
M  END
>  <cnnaffinity>  (1) 
-4.85672

>  <filename>  (1) 
c1cncc(-c2[nH]ncc2CNC2CCCCC2)c1

$$$$
