
     RDKit          3D

 36 39  0  0  0  0  0  0  0  0999 V2000
    4.7996    1.3353   19.0571 C   0  0  0  0  0  0  0  0  0  0  0  0
    5.4121    1.3057   17.8012 C   0  0  0  0  0  0  0  0  0  0  0  0
    6.5563    0.6404   17.5616 N   0  0  0  0  0  0  0  0  0  0  0  0
    7.1376    0.0072   18.5871 C   0  0  0  0  0  0  0  0  0  0  0  0
    6.6378    0.0450   19.9026 C   0  0  0  0  0  0  0  0  0  0  0  0
    7.3619   -0.5762   20.9607 N   0  0  0  0  0  0  0  0  0  0  0  0
    7.8112   -1.8528   20.8306 N   0  0  0  0  0  0  0  0  0  0  0  0
    8.3018   -2.1120   22.0298 C   0  0  0  0  0  0  0  0  0  0  0  0
    8.9628   -3.3917   22.3690 C   0  0  0  0  0  0  0  0  0  0  0  0
    8.2453   -4.7045   22.2031 C   0  0  0  0  0  0  0  0  0  0  0  0
    8.5853   -4.2088   23.5764 C   0  0  0  0  0  0  0  0  0  0  0  0
    9.4204   -4.6889   24.0847 H   0  0  0  0  0  0  0  0  0  0  0  0
    7.7846   -3.8466   24.2190 H   0  0  0  0  0  0  0  0  0  0  0  0
    7.2057   -4.6351   21.8918 H   0  0  0  0  0  0  0  0  0  0  0  0
    8.7827   -5.5646   21.8145 H   0  0  0  0  0  0  0  0  0  0  0  0
   10.0305   -3.3333   22.1851 H   0  0  0  0  0  0  0  0  0  0  0  0
    8.2331   -1.0837   22.9157 N   0  0  0  0  0  0  0  0  0  0  0  0
    7.6719   -0.1203   22.2127 C   0  0  0  0  0  0  0  0  0  0  0  0
    7.5896    1.3121   22.6402 C   0  0  0  0  0  0  0  0  0  0  0  0
    8.5240    2.2753   21.8511 C   0  0  0  0  0  0  0  0  0  0  0  0
    9.9786    1.8869   21.9668 C   0  0  0  0  0  0  0  0  0  0  0  0
   10.5490    0.8545   21.2889 C   0  0  0  0  0  0  0  0  0  0  0  0
   11.8164    0.4696   21.6371 N   0  0  0  0  0  0  0  0  0  0  0  0
   12.2492    1.2365   22.5887 C   0  0  0  0  0  0  0  0  0  0  0  0
   11.1456    2.4709   23.1088 S   0  0  0  0  0  0  0  0  0  0  0  0
   13.2229    1.1322   23.0562 H   0  0  0  0  0  0  0  0  0  0  0  0
   10.0287    0.3180   20.5110 H   0  0  0  0  0  0  0  0  0  0  0  0
    8.3426    3.2977   22.1967 H   0  0  0  0  0  0  0  0  0  0  0  0
    8.2433    2.2610   20.7875 H   0  0  0  0  0  0  0  0  0  0  0  0
    6.5535    1.6553   22.5798 H   0  0  0  0  0  0  0  0  0  0  0  0
    7.8559    1.3298   23.7005 H   0  0  0  0  0  0  0  0  0  0  0  0
    5.4196    0.6972   20.1349 C   0  0  0  0  0  0  0  0  0  0  0  0
    4.9656    0.6883   21.1263 H   0  0  0  0  0  0  0  0  0  0  0  0
    8.0439   -0.5512   18.3580 H   0  0  0  0  0  0  0  0  0  0  0  0
    4.9607    1.8235   16.9571 H   0  0  0  0  0  0  0  0  0  0  0  0
    3.8611    1.8622   19.1915 H   0  0  0  0  0  0  0  0  0  0  0  0
  1  2  2  0
  2  3  1  0
  3  4  2  0
  4  5  1  0
  5  6  1  0
  6  7  1  0
  7  8  2  0
  8  9  1  0
  9 10  1  0
 10 11  1  0
 11 12  1  0
 11 13  1  0
 10 14  1  0
 10 15  1  0
  9 16  1  0
  8 17  1  0
 17 18  2  0
 18 19  1  0
 19 20  1  0
 20 21  1  0
 21 22  2  0
 22 23  1  0
 23 24  2  0
 24 25  1  0
 24 26  1  0
 22 27  1  0
 20 28  1  0
 20 29  1  0
 19 30  1  0
 19 31  1  0
  5 32  2  0
 32 33  1  0
  4 34  1  0
  2 35  1  0
  1 36  1  0
 32  1  1  0
 18  6  1  0
 25 21  1  0
 11  9  1  0
M  END
>  <cnnaffinity>  (1) 
-5.86881

>  <filename>  (1) 
c1cncc(-n2nc(C3CC3)nc2CCc2cncs2)c1

$$$$
