
     RDKit          3D

 41 44  0  0  0  0  0  0  0  0999 V2000
    4.7758    1.3095   19.0473 C   0  0  0  0  0  0  0  0  0  0  0  0
    5.3709    1.3061   17.7825 C   0  0  0  0  0  0  0  0  0  0  0  0
    6.5156    0.6688   17.4986 N   0  0  0  0  0  0  0  0  0  0  0  0
    7.1152    0.0280   18.5114 C   0  0  0  0  0  0  0  0  0  0  0  0
    6.6201   -0.0363   19.8285 C   0  0  0  0  0  0  0  0  0  0  0  0
    7.4254   -0.6925   20.9459 C   0  0  0  0  0  0  0  0  0  0  0  0
    8.3770    0.2435   21.6534 C   0  0  0  0  0  0  0  0  0  0  0  0
    9.2763    1.0092   21.0501 N   0  0  0  0  0  0  0  0  0  0  0  0
    9.9598    1.5673   22.0836 C   0  0  0  0  0  0  0  0  0  0  0  0
   11.0809    2.5570   21.9371 C   0  0  0  0  0  0  0  0  0  0  0  0
   12.4532    2.0067   22.3978 C   0  0  0  0  0  0  0  0  0  0  0  0
   13.3193    3.2337   22.7571 C   0  0  0  0  0  0  0  0  0  0  0  0
   12.3481    4.4342   22.8425 C   0  0  0  0  0  0  0  0  0  0  0  0
   10.9407    3.8171   22.8276 C   0  0  0  0  0  0  0  0  0  0  0  0
   10.1652    4.4984   22.4596 H   0  0  0  0  0  0  0  0  0  0  0  0
   10.6698    3.4874   23.8428 H   0  0  0  0  0  0  0  0  0  0  0  0
   12.4875    5.1045   21.9832 H   0  0  0  0  0  0  0  0  0  0  0  0
   12.5262    5.0440   23.7352 H   0  0  0  0  0  0  0  0  0  0  0  0
   14.1026    3.4495   22.0287 H   0  0  0  0  0  0  0  0  0  0  0  0
   13.8289    3.0477   23.7078 H   0  0  0  0  0  0  0  0  0  0  0  0
   12.2803    1.4365   23.3182 H   0  0  0  0  0  0  0  0  0  0  0  0
   12.9000    1.3314   21.6611 H   0  0  0  0  0  0  0  0  0  0  0  0
   11.0969    2.8268   20.8749 H   0  0  0  0  0  0  0  0  0  0  0  0
    9.5686    1.1618   23.2809 N   0  0  0  0  0  0  0  0  0  0  0  0
    8.5224    0.3509   23.0022 N   0  0  0  0  0  0  0  0  0  0  0  0
    7.7803   -0.2269   24.0590 C   0  0  0  0  0  0  0  0  0  0  0  0
    6.3989   -0.1478   24.1415 C   0  0  0  0  0  0  0  0  0  0  0  0
    5.7887   -0.7919   25.2259 C   0  0  0  0  0  0  0  0  0  0  0  0
    6.4772   -1.4609   26.1570 N   0  0  0  0  0  0  0  0  0  0  0  0
    7.8144   -1.5071   26.0778 N   0  0  0  0  0  0  0  0  0  0  0  0
    8.4586   -0.8994   25.0840 C   0  0  0  0  0  0  0  0  0  0  0  0
    9.5403   -0.9662   25.0946 H   0  0  0  0  0  0  0  0  0  0  0  0
    4.7120   -0.7878   25.3478 H   0  0  0  0  0  0  0  0  0  0  0  0
    5.8134    0.4106   23.4156 H   0  0  0  0  0  0  0  0  0  0  0  0
    8.0335   -1.5159   20.5480 H   0  0  0  0  0  0  0  0  0  0  0  0
    6.7608   -1.1475   21.6872 H   0  0  0  0  0  0  0  0  0  0  0  0
    5.4111    0.6249   20.0881 C   0  0  0  0  0  0  0  0  0  0  0  0
    4.9740    0.6278   21.0919 H   0  0  0  0  0  0  0  0  0  0  0  0
    8.0678   -0.4464   18.2767 H   0  0  0  0  0  0  0  0  0  0  0  0
    4.9190    1.8545   16.9603 H   0  0  0  0  0  0  0  0  0  0  0  0
    3.8607    1.8698   19.2084 H   0  0  0  0  0  0  0  0  0  0  0  0
  1  2  2  0
  2  3  1  0
  3  4  2  0
  4  5  1  0
  5  6  1  0
  6  7  1  0
  7  8  2  0
  8  9  1  0
  9 10  1  0
 10 11  1  0
 11 12  1  0
 12 13  1  0
 13 14  1  0
 14 15  1  0
 14 16  1  0
 13 17  1  0
 13 18  1  0
 12 19  1  0
 12 20  1  0
 11 21  1  0
 11 22  1  0
 10 23  1  0
  9 24  2  0
 24 25  1  0
 25 26  1  0
 26 27  2  0
 27 28  1  0
 28 29  2  0
 29 30  1  0
 30 31  2  0
 31 32  1  0
 28 33  1  0
 27 34  1  0
  6 35  1  0
  6 36  1  0
  5 37  2  0
 37 38  1  0
  4 39  1  0
  2 40  1  0
  1 41  1  0
 37  1  1  0
 25  7  1  0
 31 26  1  0
 14 10  1  0
M  END
>  <cnnaffinity>  (1) 
-5.31995

>  <filename>  (1) 
c1cncc(Cc2nc(C3CCCC3)nn2-c2ccnnc2)c1

$$$$
