
     RDKit          3D

 38 41  0  0  0  0  0  0  0  0999 V2000
    4.8095    1.3634   19.0323 C   0  0  0  0  0  0  0  0  0  0  0  0
    5.4333    1.2959   17.7831 C   0  0  0  0  0  0  0  0  0  0  0  0
    6.5675    0.6085   17.5625 N   0  0  0  0  0  0  0  0  0  0  0  0
    7.1359   -0.0141   18.6021 C   0  0  0  0  0  0  0  0  0  0  0  0
    6.6294    0.0657   19.9151 C   0  0  0  0  0  0  0  0  0  0  0  0
    7.3365   -0.5358   20.9963 N   0  0  0  0  0  0  0  0  0  0  0  0
    7.8283   -1.7975   20.8735 N   0  0  0  0  0  0  0  0  0  0  0  0
    8.2468   -2.0690   22.0966 C   0  0  0  0  0  0  0  0  0  0  0  0
    8.9281   -3.3431   22.4337 C   0  0  0  0  0  0  0  0  0  0  0  0
    8.2486   -4.6802   22.2421 C   0  0  0  0  0  0  0  0  0  0  0  0
    8.5476   -4.1842   23.6248 C   0  0  0  0  0  0  0  0  0  0  0  0
    7.7206   -3.8596   24.2463 H   0  0  0  0  0  0  0  0  0  0  0  0
    9.3482   -4.6631   24.1817 H   0  0  0  0  0  0  0  0  0  0  0  0
    7.2131   -4.6758   21.9194 H   0  0  0  0  0  0  0  0  0  0  0  0
    8.7955   -5.5300   21.8468 H   0  0  0  0  0  0  0  0  0  0  0  0
    9.9952   -3.2523   22.2434 H   0  0  0  0  0  0  0  0  0  0  0  0
    8.1070   -1.0563   22.9908 N   0  0  0  0  0  0  0  0  0  0  0  0
    7.5686   -0.0896   22.2737 C   0  0  0  0  0  0  0  0  0  0  0  0
    7.4811    1.3458   22.7042 C   0  0  0  0  0  0  0  0  0  0  0  0
    8.4408    2.2932   21.9380 C   0  0  0  0  0  0  0  0  0  0  0  0
    9.8880    1.8833   22.0855 C   0  0  0  0  0  0  0  0  0  0  0  0
   10.4582    0.8862   21.3052 C   0  0  0  0  0  0  0  0  0  0  0  0
   11.6955    0.4136   21.4785 N   0  0  0  0  0  0  0  0  0  0  0  0
   12.3908    0.9391   22.4800 C   0  0  0  0  0  0  0  0  0  0  0  0
   11.9779    1.9082   23.2974 N   0  0  0  0  0  0  0  0  0  0  0  0
   10.7419    2.3636   23.0859 C   0  0  0  0  0  0  0  0  0  0  0  0
   10.4198    3.1776   23.7389 H   0  0  0  0  0  0  0  0  0  0  0  0
   13.3856    0.5294   22.6531 H   0  0  0  0  0  0  0  0  0  0  0  0
    9.8786    0.4315   20.5005 H   0  0  0  0  0  0  0  0  0  0  0  0
    8.1591    2.2929   20.8771 H   0  0  0  0  0  0  0  0  0  0  0  0
    8.3046    3.3178   22.3054 H   0  0  0  0  0  0  0  0  0  0  0  0
    7.7200    1.3692   23.7721 H   0  0  0  0  0  0  0  0  0  0  0  0
    6.4530    1.7003   22.5938 H   0  0  0  0  0  0  0  0  0  0  0  0
    5.4172    0.7392   20.1260 C   0  0  0  0  0  0  0  0  0  0  0  0
    4.9497    0.7520   21.1103 H   0  0  0  0  0  0  0  0  0  0  0  0
    8.0197   -0.6099   18.3770 H   0  0  0  0  0  0  0  0  0  0  0  0
    5.0080    1.8023   16.9215 H   0  0  0  0  0  0  0  0  0  0  0  0
    3.8732    1.9033   19.1431 H   0  0  0  0  0  0  0  0  0  0  0  0
  1  2  2  0
  2  3  1  0
  3  4  2  0
  4  5  1  0
  5  6  1  0
  6  7  1  0
  7  8  2  0
  8  9  1  0
  9 10  1  0
 10 11  1  0
 11 12  1  0
 11 13  1  0
 10 14  1  0
 10 15  1  0
  9 16  1  0
  8 17  1  0
 17 18  2  0
 18 19  1  0
 19 20  1  0
 20 21  1  0
 21 22  2  0
 22 23  1  0
 23 24  2  0
 24 25  1  0
 25 26  2  0
 26 27  1  0
 24 28  1  0
 22 29  1  0
 20 30  1  0
 20 31  1  0
 19 32  1  0
 19 33  1  0
  5 34  2  0
 34 35  1  0
  4 36  1  0
  2 37  1  0
  1 38  1  0
 34  1  1  0
 18  6  1  0
 26 21  1  0
 11  9  1  0
M  END
>  <cnnaffinity>  (1) 
-5.73192

>  <filename>  (1) 
c1cncc(-n2nc(C3CC3)nc2CCc2cncnc2)c1

$$$$
