
     RDKit          3D

 44 47  0  0  0  0  0  0  0  0999 V2000
    4.8084    1.3114   19.1063 C   0  0  0  0  0  0  0  0  0  0  0  0
    5.3948    1.2968   17.8354 C   0  0  0  0  0  0  0  0  0  0  0  0
    6.5453    0.6618   17.5696 N   0  0  0  0  0  0  0  0  0  0  0  0
    7.1614    0.0358   18.5785 C   0  0  0  0  0  0  0  0  0  0  0  0
    6.6627    0.0022   19.8932 C   0  0  0  0  0  0  0  0  0  0  0  0
    7.3546   -0.6708   20.9376 N   0  0  0  0  0  0  0  0  0  0  0  0
    6.7076   -1.5954   21.6898 N   0  0  0  0  0  0  0  0  0  0  0  0
    7.6485   -2.0082   22.5268 C   0  0  0  0  0  0  0  0  0  0  0  0
    7.4121   -3.0236   23.6117 C   0  0  0  0  0  0  0  0  0  0  0  0
    6.3839   -4.1108   23.2296 C   0  0  0  0  0  0  0  0  0  0  0  0
    6.6927   -5.3125   24.1446 C   0  0  0  0  0  0  0  0  0  0  0  0
    8.1497   -5.1259   24.6538 C   0  0  0  0  0  0  0  0  0  0  0  0
    8.6744   -3.8161   24.0268 C   0  0  0  0  0  0  0  0  0  0  0  0
    9.2867   -4.0169   23.1369 H   0  0  0  0  0  0  0  0  0  0  0  0
    9.3106   -3.2382   24.7102 H   0  0  0  0  0  0  0  0  0  0  0  0
    8.7932   -5.9750   24.3931 H   0  0  0  0  0  0  0  0  0  0  0  0
    8.1629   -5.0678   25.7505 H   0  0  0  0  0  0  0  0  0  0  0  0
    6.5598   -6.2556   23.6028 H   0  0  0  0  0  0  0  0  0  0  0  0
    5.9963   -5.3486   24.9921 H   0  0  0  0  0  0  0  0  0  0  0  0
    5.3532   -3.7442   23.3232 H   0  0  0  0  0  0  0  0  0  0  0  0
    6.5272   -4.3736   22.1719 H   0  0  0  0  0  0  0  0  0  0  0  0
    7.0497   -2.4497   24.4827 H   0  0  0  0  0  0  0  0  0  0  0  0
    8.8493   -1.3892   22.3743 N   0  0  0  0  0  0  0  0  0  0  0  0
    8.6279   -0.5318   21.4032 C   0  0  0  0  0  0  0  0  0  0  0  0
    9.5921    0.5080   20.9528 C   0  0  0  0  0  0  0  0  0  0  0  0
    9.7718    1.8963   22.1078 S   0  0  0  0  0  0  0  0  0  0  0  0
    8.0827    2.5749   21.9546 C   0  0  0  0  0  0  0  0  0  0  0  0
    7.9245    3.8117   22.7645 C   0  0  0  0  0  0  0  0  0  0  0  0
    7.4271    3.8691   23.9704 N   0  0  0  0  0  0  0  0  0  0  0  0
    7.5595    5.1711   24.3797 C   0  0  0  0  0  0  0  0  0  0  0  0
    8.1430    5.9141   23.3872 C   0  0  0  0  0  0  0  0  0  0  0  0
    8.3683    5.0306   22.3509 N   0  0  0  0  0  0  0  0  0  0  0  0
    8.8313    5.1973   21.4702 H   0  0  0  0  0  0  0  0  0  0  0  0
    8.3946    6.9617   23.3267 H   0  0  0  0  0  0  0  0  0  0  0  0
    7.2362    5.4649   25.3743 H   0  0  0  0  0  0  0  0  0  0  0  0
    7.8989    2.7627   20.8977 H   0  0  0  0  0  0  0  0  0  0  0  0
    7.3473    1.8430   22.2968 H   0  0  0  0  0  0  0  0  0  0  0  0
   10.5821    0.0551   20.8740 H   0  0  0  0  0  0  0  0  0  0  0  0
    9.2936    0.8835   19.9767 H   0  0  0  0  0  0  0  0  0  0  0  0
    5.4473    0.6413   20.1557 C   0  0  0  0  0  0  0  0  0  0  0  0
    5.0235    0.6009   21.1604 H   0  0  0  0  0  0  0  0  0  0  0  0
    8.0993   -0.4598   18.3317 H   0  0  0  0  0  0  0  0  0  0  0  0
    4.9278    1.8089   16.9961 H   0  0  0  0  0  0  0  0  0  0  0  0
    3.8737    1.8437   19.2569 H   0  0  0  0  0  0  0  0  0  0  0  0
  1  2  2  0
  2  3  1  0
  3  4  2  0
  4  5  1  0
  5  6  1  0
  6  7  1  0
  7  8  2  0
  8  9  1  0
  9 10  1  0
 10 11  1  0
 11 12  1  0
 12 13  1  0
 13 14  1  0
 13 15  1  0
 12 16  1  0
 12 17  1  0
 11 18  1  0
 11 19  1  0
 10 20  1  0
 10 21  1  0
  9 22  1  0
  8 23  1  0
 23 24  2  0
 24 25  1  0
 25 26  1  0
 26 27  1  0
 27 28  1  0
 28 29  2  0
 29 30  1  0
 30 31  2  0
 31 32  1  0
 32 33  1  0
 31 34  1  0
 30 35  1  0
 27 36  1  0
 27 37  1  0
 25 38  1  0
 25 39  1  0
  5 40  2  0
 40 41  1  0
  4 42  1  0
  2 43  1  0
  1 44  1  0
 40  1  1  0
 24  6  1  0
 32 28  1  0
 13  9  1  0
M  END
>  <cnnaffinity>  (1) 
-6.00393

>  <filename>  (1) 
c1cncc(-n2nc(C3CCCC3)nc2CSCc2ncc[nH]2)c1

$$$$
