
     RDKit          3D

 30 33  0  0  0  0  0  0  0  0999 V2000
    8.9286   -3.1192   22.1877 H   0  0  0  0  0  0  0  0  0  0  0  0
    8.3992   -2.2005   21.9738 C   0  0  0  0  0  0  0  0  0  0  0  0
    7.9407   -1.8967   20.7330 N   0  0  0  0  0  0  0  0  0  0  0  0
    7.3767   -0.7266   20.9143 C   0  0  0  0  0  0  0  0  0  0  0  0
    6.6540    0.0197   19.8977 C   0  0  0  0  0  0  0  0  0  0  0  0
    7.1772    0.0526   18.5998 C   0  0  0  0  0  0  0  0  0  0  0  0
    8.1278   -0.4389   18.3835 H   0  0  0  0  0  0  0  0  0  0  0  0
    6.5739    0.6800   17.5886 N   0  0  0  0  0  0  0  0  0  0  0  0
    5.4041    1.2911   17.8478 C   0  0  0  0  0  0  0  0  0  0  0  0
    4.9090    1.7713   17.0070 H   0  0  0  0  0  0  0  0  0  0  0  0
    4.8023    1.3116   19.1105 C   0  0  0  0  0  0  0  0  0  0  0  0
    3.8705    1.8459   19.2665 H   0  0  0  0  0  0  0  0  0  0  0  0
    5.4331    0.6549   20.1569 C   0  0  0  0  0  0  0  0  0  0  0  0
    5.0041    0.6303   21.1564 H   0  0  0  0  0  0  0  0  0  0  0  0
    7.5138   -0.3278   22.2147 N   0  0  0  0  0  0  0  0  0  0  0  0
    7.1996    0.9347   22.7801 C   0  0  0  0  0  0  0  0  0  0  0  0
    7.4281    2.1358   22.1878 C   0  0  0  0  0  0  0  0  0  0  0  0
    7.8707    2.3041   21.2151 H   0  0  0  0  0  0  0  0  0  0  0  0
    6.9648    3.4898   23.1705 S   0  0  0  0  0  0  0  0  0  0  0  0
    6.4168    2.4263   24.4424 C   0  0  0  0  0  0  0  0  0  0  0  0
    5.8533    2.7954   25.6813 C   0  0  0  0  0  0  0  0  0  0  0  0
    5.7243    3.8464   25.9321 H   0  0  0  0  0  0  0  0  0  0  0  0
    5.4695    1.7848   26.5544 C   0  0  0  0  0  0  0  0  0  0  0  0
    5.0319    2.0421   27.5138 H   0  0  0  0  0  0  0  0  0  0  0  0
    5.6347    0.4282   26.2109 C   0  0  0  0  0  0  0  0  0  0  0  0
    5.3266   -0.3499   26.8975 H   0  0  0  0  0  0  0  0  0  0  0  0
    6.1866    0.0650   24.9920 C   0  0  0  0  0  0  0  0  0  0  0  0
    6.3181   -0.9720   24.7012 H   0  0  0  0  0  0  0  0  0  0  0  0
    6.6003    1.0691   24.0929 C   0  0  0  0  0  0  0  0  0  0  0  0
    8.1752   -1.2955   22.9024 N   0  0  0  0  0  0  0  0  0  0  0  0
  1  2  1  0
  2  3  1  0
  3  4  2  0
  4  5  1  0
  5  6  2  0
  6  7  1  0
  6  8  1  0
  8  9  2  0
  9 10  1  0
  9 11  1  0
 11 12  1  0
 11 13  2  0
 13 14  1  0
  4 15  1  0
 15 16  1  0
 16 17  2  0
 17 18  1  0
 17 19  1  0
 19 20  1  0
 20 21  2  0
 21 22  1  0
 21 23  1  0
 23 24  1  0
 23 25  2  0
 25 26  1  0
 25 27  1  0
 27 28  1  0
 27 29  2  0
 15 30  1  0
 30  2  2  0
 13  5  1  0
 29 16  1  0
 29 20  1  0
M  END
>  <cnnaffinity>  (1) 
-5.27135

>  <filename>  (1) 
c1cncc(-c2ncnn2-c2csc3ccccc23)c1

$$$$
