
     RDKit          3D

 21 22  0  0  0  0  0  0  0  0999 V2000
    4.9404    1.7946   16.9825 H   0  0  0  0  0  0  0  0  0  0  0  0
    5.3997    1.2920   17.8318 C   0  0  0  0  0  0  0  0  0  0  0  0
    6.5628    0.6696   17.5833 N   0  0  0  0  0  0  0  0  0  0  0  0
    7.1696    0.0603   18.6070 C   0  0  0  0  0  0  0  0  0  0  0  0
    8.1154   -0.4263   18.3796 H   0  0  0  0  0  0  0  0  0  0  0  0
    6.6454    0.0177   19.9060 C   0  0  0  0  0  0  0  0  0  0  0  0
    7.6234   -0.7519   21.1737 S   0  0  0  0  0  0  0  0  0  0  0  0
    8.5173    0.5579   21.6930 N   0  0  0  0  0  0  0  0  0  0  0  0
    9.3309    0.9253   21.2256 H   0  0  0  0  0  0  0  0  0  0  0  0
    8.0456    1.4597   22.6238 C   0  0  0  0  0  0  0  0  0  0  0  0
    8.7454    2.5499   22.8648 N   0  0  0  0  0  0  0  0  0  0  0  0
    8.0626    3.1672   23.8607 N   0  0  0  0  0  0  0  0  0  0  0  0
    8.4194    4.0414   24.2240 H   0  0  0  0  0  0  0  0  0  0  0  0
    6.9599    2.4841   24.2383 C   0  0  0  0  0  0  0  0  0  0  0  0
    6.3197    2.8406   25.0375 H   0  0  0  0  0  0  0  0  0  0  0  0
    6.9059    1.3576   23.4451 C   0  0  0  0  0  0  0  0  0  0  0  0
    6.2241    0.5264   23.4280 H   0  0  0  0  0  0  0  0  0  0  0  0
    5.4172    0.6378   20.1519 C   0  0  0  0  0  0  0  0  0  0  0  0
    4.9695    0.6240   21.1448 H   0  0  0  0  0  0  0  0  0  0  0  0
    4.7919    1.3024   19.0936 C   0  0  0  0  0  0  0  0  0  0  0  0
    3.8670    1.8456   19.2396 H   0  0  0  0  0  0  0  0  0  0  0  0
  1  2  1  0
  2  3  2  0
  3  4  1  0
  4  5  1  0
  4  6  2  0
  6  7  1  0
  7  8  1  0
  8  9  1  0
  8 10  1  0
 10 11  2  0
 11 12  1  0
 12 13  1  0
 12 14  1  0
 14 15  1  0
 14 16  2  0
 16 17  1  0
  6 18  1  0
 18 19  1  0
 18 20  2  0
 20 21  1  0
 20  2  1  0
 16 10  1  0
M  END
>  <cnnaffinity>  (1) 
-4.08661

>  <filename>  (1) 
c1cncc(SNc2cc[nH]n2)c1

$$$$
