
     RDKit          3D

 31 33  0  0  0  0  0  0  0  0999 V2000
   10.0324   -5.9618   24.7579 H   0  0  0  0  0  0  0  0  0  0  0  0
    9.9718   -4.9106   24.4955 C   0  0  0  0  0  0  0  0  0  0  0  0
   10.6909   -3.9443   25.1366 N   0  0  0  0  0  0  0  0  0  0  0  0
   10.3089   -2.8539   24.4971 C   0  0  0  0  0  0  0  0  0  0  0  0
   10.6413   -1.8390   24.6700 H   0  0  0  0  0  0  0  0  0  0  0  0
    9.4271   -3.1632   23.5182 N   0  0  0  0  0  0  0  0  0  0  0  0
    8.7183   -2.2647   22.7237 N   0  0  0  0  0  0  0  0  0  0  0  0
    7.3833   -2.7161   22.2488 C   0  0  0  0  0  0  0  0  0  0  0  0
    6.8463   -3.2443   23.0430 H   0  0  0  0  0  0  0  0  0  0  0  0
    7.4886   -3.4079   21.3969 H   0  0  0  0  0  0  0  0  0  0  0  0
    6.5946   -1.4832   21.7743 C   0  0  0  0  0  0  0  0  0  0  0  0
    5.5968   -1.7860   21.4314 H   0  0  0  0  0  0  0  0  0  0  0  0
    6.4823   -0.7996   22.6356 H   0  0  0  0  0  0  0  0  0  0  0  0
    7.3244   -0.8273   20.6795 N   0  0  0  0  0  0  0  0  0  0  0  0
    6.6473   -0.0451   19.7157 C   0  0  0  0  0  0  0  0  0  0  0  0
    7.1578    0.0985   18.3964 C   0  0  0  0  0  0  0  0  0  0  0  0
    8.0979   -0.3864   18.1265 H   0  0  0  0  0  0  0  0  0  0  0  0
    6.5518    0.7942   17.4231 N   0  0  0  0  0  0  0  0  0  0  0  0
    5.3944    1.4111   17.7243 C   0  0  0  0  0  0  0  0  0  0  0  0
    4.9251    1.9711   16.9215 H   0  0  0  0  0  0  0  0  0  0  0  0
    4.7938    1.3405   18.9864 C   0  0  0  0  0  0  0  0  0  0  0  0
    3.8548    1.8538   19.1763 H   0  0  0  0  0  0  0  0  0  0  0  0
    5.4267    0.6024   19.9938 C   0  0  0  0  0  0  0  0  0  0  0  0
    5.0268    0.5342   21.0022 H   0  0  0  0  0  0  0  0  0  0  0  0
    8.6623   -0.4150   21.1438 C   0  0  0  0  0  0  0  0  0  0  0  0
    9.1818    0.1319   20.3488 H   0  0  0  0  0  0  0  0  0  0  0  0
    8.5612    0.2559   22.0140 H   0  0  0  0  0  0  0  0  0  0  0  0
    9.4550   -1.6559   21.5887 C   0  0  0  0  0  0  0  0  0  0  0  0
   10.4809   -1.3890   21.8706 H   0  0  0  0  0  0  0  0  0  0  0  0
    9.5213   -2.3587   20.7443 H   0  0  0  0  0  0  0  0  0  0  0  0
    9.1960   -4.4925   23.5175 N   0  0  0  0  0  0  0  0  0  0  0  0
  1  2  1  0
  2  3  1  0
  3  4  2  0
  4  5  1  0
  4  6  1  0
  6  7  1  0
  7  8  1  0
  8  9  1  0
  8 10  1  0
  8 11  1  0
 11 12  1  0
 11 13  1  0
 11 14  1  0
 14 15  1  0
 15 16  2  0
 16 17  1  0
 16 18  1  0
 18 19  2  0
 19 20  1  0
 19 21  1  0
 21 22  1  0
 21 23  2  0
 23 24  1  0
 14 25  1  0
 25 26  1  0
 25 27  1  0
 25 28  1  0
 28 29  1  0
 28 30  1  0
  6 31  1  0
 31  2  2  0
 28  7  1  0
 23 15  1  0
M  END
>  <cnnaffinity>  (1) 
-4.79049

>  <filename>  (1) 
c1cncc(N2CCN(n3cncn3)CC2)c1

$$$$
