
     RDKit          3D

 44 48  0  0  0  0  0  0  0  0999 V2000
    4.7547    1.3503   19.0012 C   0  0  0  0  0  0  0  0  0  0  0  0
    5.4209    1.3411   17.7715 C   0  0  0  0  0  0  0  0  0  0  0  0
    6.5985    0.7290   17.5703 N   0  0  0  0  0  0  0  0  0  0  0  0
    7.1483    0.1018   18.6155 C   0  0  0  0  0  0  0  0  0  0  0  0
    6.5620    0.0377   19.8896 C   0  0  0  0  0  0  0  0  0  0  0  0
    7.2786   -0.6928   20.9959 C   0  0  0  0  0  0  0  0  0  0  0  0
    8.5487   -0.0830   21.3535 N   0  0  0  0  0  0  0  0  0  0  0  0
    9.7045   -0.7486   21.1563 N   0  0  0  0  0  0  0  0  0  0  0  0
   10.6105    0.0598   21.6867 C   0  0  0  0  0  0  0  0  0  0  0  0
   12.0304   -0.2790   21.8138 C   0  0  0  0  0  0  0  0  0  0  0  0
   12.5854   -1.4541   21.3758 C   0  0  0  0  0  0  0  0  0  0  0  0
   14.2684   -1.5030   21.6389 S   0  0  0  0  0  0  0  0  0  0  0  0
   14.2552    0.0653   22.3544 C   0  0  0  0  0  0  0  0  0  0  0  0
   13.0038    0.5806   22.4227 C   0  0  0  0  0  0  0  0  0  0  0  0
   12.7518    1.5332   22.8860 H   0  0  0  0  0  0  0  0  0  0  0  0
   15.1757    0.5783   22.5839 H   0  0  0  0  0  0  0  0  0  0  0  0
   12.0665   -2.2836   20.9139 H   0  0  0  0  0  0  0  0  0  0  0  0
   10.0915    1.2094   22.1974 N   0  0  0  0  0  0  0  0  0  0  0  0
    8.8000    1.0854   21.9812 C   0  0  0  0  0  0  0  0  0  0  0  0
    7.7527    1.9660   22.6021 C   0  0  0  0  0  0  0  0  0  0  0  0
    7.2687    1.3831   23.9016 C   0  0  0  0  0  0  0  0  0  0  0  0
    6.0655    0.9381   24.3878 C   0  0  0  0  0  0  0  0  0  0  0  0
    6.2342    0.2840   25.5782 N   0  0  0  0  0  0  0  0  0  0  0  0
    7.5247    0.3148   25.8277 C   0  0  0  0  0  0  0  0  0  0  0  0
    8.2161   -0.4012   26.9217 C   0  0  0  0  0  0  0  0  0  0  0  0
    9.5662   -1.0371   26.7211 C   0  0  0  0  0  0  0  0  0  0  0  0
    8.3593   -1.9078   26.8655 C   0  0  0  0  0  0  0  0  0  0  0  0
    8.1893   -2.4542   27.7817 H   0  0  0  0  0  0  0  0  0  0  0  0
    7.9942   -2.4348   25.9871 H   0  0  0  0  0  0  0  0  0  0  0  0
   10.2823   -0.9602   27.5327 H   0  0  0  0  0  0  0  0  0  0  0  0
   10.0187   -0.9904   25.7311 H   0  0  0  0  0  0  0  0  0  0  0  0
    8.0203    0.0368   27.8996 H   0  0  0  0  0  0  0  0  0  0  0  0
    8.1784    1.0158   24.8640 N   0  0  0  0  0  0  0  0  0  0  0  0
    9.1792    1.1193   24.7927 H   0  0  0  0  0  0  0  0  0  0  0  0
    5.0947    1.0100   23.9133 H   0  0  0  0  0  0  0  0  0  0  0  0
    6.9106    2.1017   21.9201 H   0  0  0  0  0  0  0  0  0  0  0  0
    8.2250    2.9386   22.7750 H   0  0  0  0  0  0  0  0  0  0  0  0
    7.5204   -1.7171   20.6988 H   0  0  0  0  0  0  0  0  0  0  0  0
    6.6533   -0.7490   21.8920 H   0  0  0  0  0  0  0  0  0  0  0  0
    5.3416    0.6873   20.0809 C   0  0  0  0  0  0  0  0  0  0  0  0
    4.8657    0.6828   21.0645 H   0  0  0  0  0  0  0  0  0  0  0  0
    8.1070   -0.3862   18.4406 H   0  0  0  0  0  0  0  0  0  0  0  0
    4.9860    1.8344   16.9052 H   0  0  0  0  0  0  0  0  0  0  0  0
    3.8096    1.8701   19.1012 H   0  0  0  0  0  0  0  0  0  0  0  0
  1  2  2  0
  2  3  1  0
  3  4  2  0
  4  5  1  0
  5  6  1  0
  6  7  1  0
  7  8  1  0
  8  9  2  0
  9 10  1  0
 10 11  2  0
 11 12  1  0
 12 13  1  0
 13 14  2  0
 14 15  1  0
 13 16  1  0
 11 17  1  0
  9 18  1  0
 18 19  2  0
 19 20  1  0
 20 21  1  0
 21 22  2  0
 22 23  1  0
 23 24  2  0
 24 25  1  0
 25 26  1  0
 26 27  1  0
 27 28  1  0
 27 29  1  0
 26 30  1  0
 26 31  1  0
 25 32  1  0
 24 33  1  0
 33 34  1  0
 22 35  1  0
 20 36  1  0
 20 37  1  0
  6 38  1  0
  6 39  1  0
  5 40  2  0
 40 41  1  0
  4 42  1  0
  2 43  1  0
  1 44  1  0
 40  1  1  0
 19  7  1  0
 33 21  1  0
 14 10  1  0
 27 25  1  0
M  END
>  <cnnaffinity>  (1) 
-6.9908

>  <filename>  (1) 
c1cncc(Cn2nc(-c3ccsc3)nc2Cc2cnc(C3CC3)[nH]2)c1

$$$$
