
     RDKit          3D

 33 36  0  0  0  0  0  0  0  0999 V2000
    5.2698    1.9030   17.4338 H   0  0  0  0  0  0  0  0  0  0  0  0
    5.5736    1.3326   18.3107 C   0  0  0  0  0  0  0  0  0  0  0  0
    6.6608    0.5617   18.1681 N   0  0  0  0  0  0  0  0  0  0  0  0
    7.0478   -0.1724   19.2193 C   0  0  0  0  0  0  0  0  0  0  0  0
    7.9439   -0.7726   19.0639 H   0  0  0  0  0  0  0  0  0  0  0  0
    6.3814   -0.1773   20.4639 C   0  0  0  0  0  0  0  0  0  0  0  0
    6.8805   -0.9693   21.5513 N   0  0  0  0  0  0  0  0  0  0  0  0
    6.7410   -0.7867   22.9290 C   0  0  0  0  0  0  0  0  0  0  0  0
    6.3847    0.5118   23.5604 C   0  0  0  0  0  0  0  0  0  0  0  0
    5.4363    0.5751   24.5630 C   0  0  0  0  0  0  0  0  0  0  0  0
    4.9968   -0.3460   24.9336 H   0  0  0  0  0  0  0  0  0  0  0  0
    5.0167    1.8153   25.1105 C   0  0  0  0  0  0  0  0  0  0  0  0
    4.2657    1.8184   25.8965 H   0  0  0  0  0  0  0  0  0  0  0  0
    5.5545    3.0040   24.6577 C   0  0  0  0  0  0  0  0  0  0  0  0
    5.2713    3.9785   25.0421 H   0  0  0  0  0  0  0  0  0  0  0  0
    6.5635    2.9947   23.6548 C   0  0  0  0  0  0  0  0  0  0  0  0
    7.0443    4.2066   23.2194 N   0  0  0  0  0  0  0  0  0  0  0  0
    8.0099    4.1859   22.3292 C   0  0  0  0  0  0  0  0  0  0  0  0
    8.3666    5.1471   21.9559 H   0  0  0  0  0  0  0  0  0  0  0  0
    8.6132    2.9947   21.8319 C   0  0  0  0  0  0  0  0  0  0  0  0
    9.4420    3.0449   21.1405 H   0  0  0  0  0  0  0  0  0  0  0  0
    8.1336    1.7754   22.2386 C   0  0  0  0  0  0  0  0  0  0  0  0
    8.5287    0.8342   21.8532 H   0  0  0  0  0  0  0  0  0  0  0  0
    7.0350    1.7375   23.1456 C   0  0  0  0  0  0  0  0  0  0  0  0
    7.0956   -1.8628   23.5900 N   0  0  0  0  0  0  0  0  0  0  0  0
    7.5547   -2.7516   22.6545 C   0  0  0  0  0  0  0  0  0  0  0  0
    7.9385   -3.7204   22.9493 H   0  0  0  0  0  0  0  0  0  0  0  0
    7.4451   -2.2239   21.4057 C   0  0  0  0  0  0  0  0  0  0  0  0
    7.7489   -2.5834   20.4445 H   0  0  0  0  0  0  0  0  0  0  0  0
    5.2336    0.6193   20.5955 C   0  0  0  0  0  0  0  0  0  0  0  0
    4.6856    0.6529   21.5391 H   0  0  0  0  0  0  0  0  0  0  0  0
    4.8344    1.3877   19.4961 C   0  0  0  0  0  0  0  0  0  0  0  0
    3.9823    2.0573   19.5534 H   0  0  0  0  0  0  0  0  0  0  0  0
  1  2  1  0
  2  3  2  0
  3  4  1  0
  4  5  1  0
  4  6  2  0
  6  7  1  0
  7  8  1  0
  8  9  1  0
  9 10  2  0
 10 11  1  0
 10 12  1  0
 12 13  1  0
 12 14  2  0
 14 15  1  0
 14 16  1  0
 16 17  2  0
 17 18  1  0
 18 19  1  0
 18 20  2  0
 20 21  1  0
 20 22  1  0
 22 23  1  0
 22 24  2  0
  8 25  2  0
 25 26  1  0
 26 27  1  0
 26 28  2  0
 28 29  1  0
  6 30  1  0
 30 31  1  0
 30 32  2  0
 32 33  1  0
 32  2  1  0
 28  7  1  0
 24  9  1  0
 24 16  1  0
M  END
>  <cnnaffinity>  (1) 
-5.15099

>  <filename>  (1) 
c1cncc(-n2ccnc2-c2cccc3ncccc23)c1

$$$$
