
     RDKit          3D

 36 39  0  0  0  0  0  0  0  0999 V2000
    4.9856    1.7843   16.8329 H   0  0  0  0  0  0  0  0  0  0  0  0
    5.4676    1.3089   17.6853 C   0  0  0  0  0  0  0  0  0  0  0  0
    6.6377    0.6975   17.4384 N   0  0  0  0  0  0  0  0  0  0  0  0
    7.2478    0.1127   18.4715 C   0  0  0  0  0  0  0  0  0  0  0  0
    8.1955   -0.3795   18.2489 H   0  0  0  0  0  0  0  0  0  0  0  0
    6.7513    0.1055   19.7805 C   0  0  0  0  0  0  0  0  0  0  0  0
    7.5045   -0.5481   20.8437 C   0  0  0  0  0  0  0  0  0  0  0  0
    6.9965   -0.7096   22.0211 N   0  0  0  0  0  0  0  0  0  0  0  0
    7.8532   -1.4409   22.7751 N   0  0  0  0  0  0  0  0  0  0  0  0
    7.6436   -1.4784   24.1755 C   0  0  0  0  0  0  0  0  0  0  0  0
    7.5540   -0.2876   24.8730 C   0  0  0  0  0  0  0  0  0  0  0  0
    7.5277    0.6509   24.3223 H   0  0  0  0  0  0  0  0  0  0  0  0
    7.5260   -0.2925   26.2922 C   0  0  0  0  0  0  0  0  0  0  0  0
    7.4348    0.6437   26.8388 H   0  0  0  0  0  0  0  0  0  0  0  0
    7.6206   -1.4794   26.9761 C   0  0  0  0  0  0  0  0  0  0  0  0
    7.5987   -1.4849   28.0550 H   0  0  0  0  0  0  0  0  0  0  0  0
    7.7007   -2.7269   26.2909 C   0  0  0  0  0  0  0  0  0  0  0  0
    7.8497   -3.9596   26.9992 C   0  0  0  0  0  0  0  0  0  0  0  0
    8.0015   -3.9238   28.0775 H   0  0  0  0  0  0  0  0  0  0  0  0
    7.7857   -5.1591   26.3354 C   0  0  0  0  0  0  0  0  0  0  0  0
    7.9442   -6.0926   26.8772 H   0  0  0  0  0  0  0  0  0  0  0  0
    7.4990   -5.1883   24.9404 C   0  0  0  0  0  0  0  0  0  0  0  0
    7.3392   -6.1431   24.4512 H   0  0  0  0  0  0  0  0  0  0  0  0
    7.4113   -4.0195   24.2094 C   0  0  0  0  0  0  0  0  0  0  0  0
    7.1928   -4.0479   23.1425 H   0  0  0  0  0  0  0  0  0  0  0  0
    7.5942   -2.7505   24.8628 C   0  0  0  0  0  0  0  0  0  0  0  0
    9.1521   -1.6419   22.1367 C   0  0  0  0  0  0  0  0  0  0  0  0
    9.9554   -1.1073   22.6671 H   0  0  0  0  0  0  0  0  0  0  0  0
    9.4258   -2.7045   22.1479 H   0  0  0  0  0  0  0  0  0  0  0  0
    8.9053   -1.0854   20.7226 C   0  0  0  0  0  0  0  0  0  0  0  0
    9.6099   -0.2910   20.4483 H   0  0  0  0  0  0  0  0  0  0  0  0
    8.9844   -1.8506   19.9447 H   0  0  0  0  0  0  0  0  0  0  0  0
    5.5203    0.7386   20.0271 C   0  0  0  0  0  0  0  0  0  0  0  0
    5.1079    0.7444   21.0397 H   0  0  0  0  0  0  0  0  0  0  0  0
    4.8731    1.3451   18.9541 C   0  0  0  0  0  0  0  0  0  0  0  0
    3.9227    1.8505   19.0850 H   0  0  0  0  0  0  0  0  0  0  0  0
  1  2  1  0
  2  3  2  0
  3  4  1  0
  4  5  1  0
  4  6  2  0
  6  7  1  0
  7  8  2  0
  8  9  1  0
  9 10  1  0
 10 11  2  0
 11 12  1  0
 11 13  1  0
 13 14  1  0
 13 15  2  0
 15 16  1  0
 15 17  1  0
 17 18  2  0
 18 19  1  0
 18 20  1  0
 20 21  1  0
 20 22  2  0
 22 23  1  0
 22 24  1  0
 24 25  1  0
 24 26  2  0
  9 27  1  0
 27 28  1  0
 27 29  1  0
 27 30  1  0
 30 31  1  0
 30 32  1  0
  6 33  1  0
 33 34  1  0
 33 35  2  0
 35 36  1  0
 35  2  1  0
 30  7  1  0
 26 10  1  0
 26 17  1  0
M  END
>  <cnnaffinity>  (1) 
-5.14595

>  <filename>  (1) 
c1cncc(C2=NN(c3cccc4ccccc34)CC2)c1

$$$$
