
     RDKit          3D

 29 31  0  0  0  0  0  0  0  0999 V2000
    4.9217    1.8258   16.9775 H   0  0  0  0  0  0  0  0  0  0  0  0
    5.3916    1.3108   17.8120 C   0  0  0  0  0  0  0  0  0  0  0  0
    6.5510    0.6863   17.5532 N   0  0  0  0  0  0  0  0  0  0  0  0
    7.1538    0.0633   18.5687 C   0  0  0  0  0  0  0  0  0  0  0  0
    8.1013   -0.4181   18.3308 H   0  0  0  0  0  0  0  0  0  0  0  0
    6.6483    0.0053   19.8789 C   0  0  0  0  0  0  0  0  0  0  0  0
    7.3907   -0.7157   20.9301 C   0  0  0  0  0  0  0  0  0  0  0  0
    6.8850   -0.7692   22.2305 N   0  0  0  0  0  0  0  0  0  0  0  0
    7.7558   -1.4465   22.8980 C   0  0  0  0  0  0  0  0  0  0  0  0
    7.7422   -1.8286   24.3316 C   0  0  1  0  0  0  0  0  0  0  0  0
    6.8264   -1.3997   24.7489 H   0  0  0  0  0  0  0  0  0  0  0  0
    7.6923   -3.3517   24.5340 C   0  0  0  0  0  0  0  0  0  0  0  0
    8.2632   -3.8741   23.7577 H   0  0  0  0  0  0  0  0  0  0  0  0
    6.6572   -3.7133   24.4649 H   0  0  0  0  0  0  0  0  0  0  0  0
    8.2916   -3.5924   25.8478 N   0  0  0  0  0  0  0  0  0  0  0  0
    9.0157   -4.2956   25.7868 H   0  0  0  0  0  0  0  0  0  0  0  0
    8.8065   -2.3294   26.3937 C   0  0  0  0  0  0  0  0  0  0  0  0
    9.7419   -2.4807   26.9414 H   0  0  0  0  0  0  0  0  0  0  0  0
    8.0971   -1.9161   27.1222 H   0  0  0  0  0  0  0  0  0  0  0  0
    8.9438   -1.3896   25.1928 C   0  0  0  0  0  0  0  0  0  0  0  0
    8.8917   -0.3299   25.4662 H   0  0  0  0  0  0  0  0  0  0  0  0
    9.8938   -1.5706   24.6746 H   0  0  0  0  0  0  0  0  0  0  0  0
    8.8049   -1.8737   22.1626 O   0  0  0  0  0  0  0  0  0  0  0  0
    8.5680   -1.3943   20.9049 C   0  0  0  0  0  0  0  0  0  0  0  0
    9.3324   -1.6212   20.1769 H   0  0  0  0  0  0  0  0  0  0  0  0
    5.4262    0.6641   20.1276 C   0  0  0  0  0  0  0  0  0  0  0  0
    5.0054    0.6576   21.1342 H   0  0  0  0  0  0  0  0  0  0  0  0
    4.7896    1.3221   19.0764 C   0  0  0  0  0  0  0  0  0  0  0  0
    3.8522    1.8530   19.2221 H   0  0  0  0  0  0  0  0  0  0  0  0
  1  2  1  0
  2  3  2  0
  3  4  1  0
  4  5  1  0
  4  6  2  0
  6  7  1  0
  7  8  1  0
  8  9  2  0
  9 10  1  0
 10 11  1  1
 10 12  1  0
 12 13  1  0
 12 14  1  0
 12 15  1  0
 15 16  1  0
 15 17  1  0
 17 18  1  0
 17 19  1  0
 17 20  1  0
 20 21  1  0
 20 22  1  0
  9 23  1  0
 23 24  1  0
 24 25  1  0
  6 26  1  0
 26 27  1  0
 26 28  2  0
 28 29  1  0
 28  2  1  0
 24  7  2  0
 20 10  1  0
M  END
>  <cnnaffinity>  (1) 
-4.52291

>  <filename>  (1) 
c1cncc(-c2coc([C@@H]3CCNC3)n2)c1

$$$$
