
     RDKit          3D

 33 36  0  0  0  0  0  0  0  0999 V2000
    4.9888    2.2931   16.1290 H   0  0  0  0  0  0  0  0  0  0  0  0
    5.2438    1.8253   17.0784 C   0  0  0  0  0  0  0  0  0  0  0  0
    6.3720    1.0974   17.0990 N   0  0  0  0  0  0  0  0  0  0  0  0
    6.7085    0.5363   18.2668 C   0  0  0  0  0  0  0  0  0  0  0  0
    7.6523   -0.0086   18.2825 H   0  0  0  0  0  0  0  0  0  0  0  0
    5.9500    0.6302   19.4480 C   0  0  0  0  0  0  0  0  0  0  0  0
    6.4273   -0.0442   20.6707 C   0  0  0  0  0  0  0  0  0  0  0  0
    5.9434    0.5171   22.2383 S   0  0  0  0  0  0  0  0  0  0  0  0
    6.9385   -0.6360   23.0294 C   0  0  0  0  0  0  0  0  0  0  0  0
    7.0281   -0.6868   24.1038 H   0  0  0  0  0  0  0  0  0  0  0  0
    7.6320   -1.4120   22.1464 C   0  0  0  0  0  0  0  0  0  0  0  0
    8.7639   -2.2805   22.5130 C   0  0  0  0  0  0  0  0  0  0  0  0
    9.9918   -1.9950   21.9421 C   0  0  0  0  0  0  0  0  0  0  0  0
   10.0457   -1.2705   21.1254 H   0  0  0  0  0  0  0  0  0  0  0  0
   11.1794   -2.4971   22.3624 N   0  0  0  0  0  0  0  0  0  0  0  0
   11.1432   -3.3643   23.3544 C   0  0  0  0  0  0  0  0  0  0  0  0
   12.0927   -3.7686   23.7065 H   0  0  0  0  0  0  0  0  0  0  0  0
    9.9465   -3.8489   23.9553 C   0  0  0  0  0  0  0  0  0  0  0  0
    9.9749   -4.8380   24.9834 C   0  0  0  0  0  0  0  0  0  0  0  0
   10.9403   -5.1887   25.3436 H   0  0  0  0  0  0  0  0  0  0  0  0
    8.8015   -5.3272   25.5053 C   0  0  0  0  0  0  0  0  0  0  0  0
    8.8223   -6.0915   26.2792 H   0  0  0  0  0  0  0  0  0  0  0  0
    7.5498   -4.8571   25.0196 C   0  0  0  0  0  0  0  0  0  0  0  0
    6.6314   -5.2518   25.4471 H   0  0  0  0  0  0  0  0  0  0  0  0
    7.4985   -3.8872   24.0330 C   0  0  0  0  0  0  0  0  0  0  0  0
    6.5493   -3.5469   23.6309 H   0  0  0  0  0  0  0  0  0  0  0  0
    8.7012   -3.3238   23.5003 C   0  0  0  0  0  0  0  0  0  0  0  0
    7.3265   -1.0649   20.7917 C   0  0  0  0  0  0  0  0  0  0  0  0
    7.7597   -1.6181   19.9648 H   0  0  0  0  0  0  0  0  0  0  0  0
    4.7719    1.4035   19.4042 C   0  0  0  0  0  0  0  0  0  0  0  0
    4.1592    1.5429   20.2961 H   0  0  0  0  0  0  0  0  0  0  0  0
    4.4187    2.0023   18.1957 C   0  0  0  0  0  0  0  0  0  0  0  0
    3.5268    2.6151   18.1122 H   0  0  0  0  0  0  0  0  0  0  0  0
  1  2  1  0
  2  3  2  0
  3  4  1  0
  4  5  1  0
  4  6  2  0
  6  7  1  0
  7  8  1  0
  8  9  1  0
  9 10  1  0
  9 11  2  0
 11 12  1  0
 12 13  2  0
 13 14  1  0
 13 15  1  0
 15 16  2  0
 16 17  1  0
 16 18  1  0
 18 19  2  0
 19 20  1  0
 19 21  1  0
 21 22  1  0
 21 23  2  0
 23 24  1  0
 23 25  1  0
 25 26  1  0
 25 27  2  0
 11 28  1  0
 28 29  1  0
  6 30  1  0
 30 31  1  0
 30 32  2  0
 32 33  1  0
 32  2  1  0
 28  7  2  0
 27 12  1  0
 27 18  1  0
M  END
>  <cnnaffinity>  (1) 
-5.65807

>  <filename>  (1) 
c1cncc(-c2cc(-c3cncc4ccccc34)cs2)c1

$$$$
