
     RDKit          3D

 39 41  0  0  0  0  0  0  0  0999 V2000
    4.9902    1.8011   16.9233 H   0  0  0  0  0  0  0  0  0  0  0  0
    5.4328    1.2958   17.7793 C   0  0  0  0  0  0  0  0  0  0  0  0
    6.5875    0.6512   17.5492 N   0  0  0  0  0  0  0  0  0  0  0  0
    7.1517    0.0152   18.5833 C   0  0  0  0  0  0  0  0  0  0  0  0
    8.0951   -0.4862   18.3671 H   0  0  0  0  0  0  0  0  0  0  0  0
    6.6219   -0.0189   19.8839 C   0  0  0  0  0  0  0  0  0  0  0  0
    7.3458   -0.7666   20.9624 C   0  0  0  0  0  0  0  0  0  0  0  0
    7.1650   -2.2175   20.9973 N   0  0  0  0  0  0  0  0  0  0  0  0
    7.1726   -2.5199   20.0217 H   0  0  0  0  0  0  0  0  0  0  0  0
    5.8766   -2.6028   21.4404 O   0  0  0  0  0  0  0  0  0  0  0  0
    5.9846   -3.4806   22.5683 C   0  0  0  0  0  0  0  0  0  0  0  0
    6.4115   -2.9444   23.4293 H   0  0  0  0  0  0  0  0  0  0  0  0
    6.6497   -4.3170   22.3266 H   0  0  0  0  0  0  0  0  0  0  0  0
    4.5466   -3.9206   22.8425 C   0  0  0  0  0  0  0  0  0  0  0  0
    3.9719   -3.0011   22.8585 H   0  0  0  0  0  0  0  0  0  0  0  0
    4.1815   -4.5185   22.0002 H   0  0  0  0  0  0  0  0  0  0  0  0
    4.2082   -4.6079   24.0817 N   0  0  0  0  0  0  0  0  0  0  0  0
    4.7039   -5.9612   24.3015 C   0  0  0  0  0  0  0  0  0  0  0  0
    3.9781   -6.4749   24.9489 H   0  0  0  0  0  0  0  0  0  0  0  0
    4.7587   -6.5419   23.3749 H   0  0  0  0  0  0  0  0  0  0  0  0
    6.0380   -5.8125   25.0490 C   0  0  0  0  0  0  0  0  0  0  0  0
    6.8600   -5.7136   24.3326 H   0  0  0  0  0  0  0  0  0  0  0  0
    6.2528   -6.6813   25.6769 H   0  0  0  0  0  0  0  0  0  0  0  0
    5.8462   -4.5147   25.8684 C   0  0  0  0  0  0  0  0  0  0  0  0
    5.7618   -4.7174   26.9397 H   0  0  0  0  0  0  0  0  0  0  0  0
    6.6896   -3.8281   25.7405 H   0  0  0  0  0  0  0  0  0  0  0  0
    4.5249   -3.9069   25.3277 C   0  0  0  0  0  0  0  0  0  0  0  0
    3.7045   -4.0752   26.0394 H   0  0  0  0  0  0  0  0  0  0  0  0
    4.5813   -2.8231   25.1731 H   0  0  0  0  0  0  0  0  0  0  0  0
    8.7645   -0.3827   21.2772 C   0  0  0  0  0  0  0  0  0  0  0  0
    9.4475   -1.1974   21.4924 H   0  0  0  0  0  0  0  0  0  0  0  0
    9.2036    0.4616   20.7526 H   0  0  0  0  0  0  0  0  0  0  0  0
    7.6670   -0.1089   22.2711 C   0  0  0  0  0  0  0  0  0  0  0  0
    7.3654    0.9250   22.4208 H   0  0  0  0  0  0  0  0  0  0  0  0
    7.6123   -0.7391   23.1518 H   0  0  0  0  0  0  0  0  0  0  0  0
    5.4139    0.6644   20.0994 C   0  0  0  0  0  0  0  0  0  0  0  0
    4.9773    0.6669   21.0996 H   0  0  0  0  0  0  0  0  0  0  0  0
    4.8054    1.3232   19.0295 C   0  0  0  0  0  0  0  0  0  0  0  0
    3.8719    1.8652   19.1487 H   0  0  0  0  0  0  0  0  0  0  0  0
  1  2  1  0
  2  3  2  0
  3  4  1  0
  4  5  1  0
  4  6  2  0
  6  7  1  0
  7  8  1  0
  8  9  1  0
  8 10  1  0
 10 11  1  0
 11 12  1  0
 11 13  1  0
 11 14  1  0
 14 15  1  0
 14 16  1  0
 14 17  1  0
 17 18  1  0
 18 19  1  0
 18 20  1  0
 18 21  1  0
 21 22  1  0
 21 23  1  0
 21 24  1  0
 24 25  1  0
 24 26  1  0
 24 27  1  0
 27 28  1  0
 27 29  1  0
  7 30  1  0
 30 31  1  0
 30 32  1  0
 30 33  1  0
 33 34  1  0
 33 35  1  0
  6 36  1  0
 36 37  1  0
 36 38  2  0
 38 39  1  0
 38  2  1  0
 33  7  1  0
 27 17  1  0
M  END
>  <cnnaffinity>  (1) 
-4.58984

>  <filename>  (1) 
c1cncc(C2(NOCCN3CCCC3)CC2)c1

$$$$
