
     RDKit          3D

 37 40  0  0  0  0  0  0  0  0999 V2000
    5.3233    1.6283   17.0616 H   0  0  0  0  0  0  0  0  0  0  0  0
    5.8864    1.2427   17.9099 C   0  0  0  0  0  0  0  0  0  0  0  0
    7.0852    0.7062   17.6290 N   0  0  0  0  0  0  0  0  0  0  0  0
    7.7839    0.1842   18.6424 C   0  0  0  0  0  0  0  0  0  0  0  0
    8.7589   -0.2285   18.3899 H   0  0  0  0  0  0  0  0  0  0  0  0
    7.3170    0.1241   19.9673 C   0  0  0  0  0  0  0  0  0  0  0  0
    8.0783   -0.6217   20.9800 C   0  0  0  0  0  0  0  0  0  0  0  0
    9.4110   -0.5556   21.0285 N   0  0  0  0  0  0  0  0  0  0  0  0
    9.7116   -1.3552   22.0506 N   0  0  0  0  0  0  0  0  0  0  0  0
    8.6673   -1.9742   22.6178 C   0  0  0  0  0  0  0  0  0  0  0  0
    7.5478   -1.5309   21.9542 C   0  0  0  0  0  0  0  0  0  0  0  0
    6.1495   -2.0701   22.0872 C   0  0  0  0  0  0  0  0  0  0  0  0
    5.9185   -2.2963   23.1338 H   0  0  0  0  0  0  0  0  0  0  0  0
    5.4659   -1.2905   21.7508 H   0  0  0  0  0  0  0  0  0  0  0  0
    5.8635   -3.2484   21.1924 C   0  0  0  0  0  0  0  0  0  0  0  0
    5.6735   -4.5592   21.6196 C   0  0  0  0  0  0  0  0  0  0  0  0
    5.6813   -4.8045   22.6773 H   0  0  0  0  0  0  0  0  0  0  0  0
    5.4420   -5.5505   20.6615 C   0  0  0  0  0  0  0  0  0  0  0  0
    5.2897   -6.5858   20.9687 H   0  0  0  0  0  0  0  0  0  0  0  0
    5.3803   -5.3002   19.3477 N   0  0  0  0  0  0  0  0  0  0  0  0
    5.5289   -4.0248   18.9542 C   0  0  0  0  0  0  0  0  0  0  0  0
    5.4384   -3.7933   17.8984 H   0  0  0  0  0  0  0  0  0  0  0  0
    5.7746   -2.9835   19.8284 C   0  0  0  0  0  0  0  0  0  0  0  0
    5.8989   -1.9749   19.4579 H   0  0  0  0  0  0  0  0  0  0  0  0
    9.1341   -2.9502   23.6531 C   0  0  0  0  0  0  0  0  0  0  0  0
    8.9661   -3.9852   23.3327 H   0  0  0  0  0  0  0  0  0  0  0  0
    8.6015   -2.8163   24.5981 H   0  0  0  0  0  0  0  0  0  0  0  0
   10.6377   -2.5972   23.7738 C   0  0  0  0  0  0  0  0  0  0  0  0
   11.2744   -3.4759   23.8751 H   0  0  0  0  0  0  0  0  0  0  0  0
   10.7703   -1.9714   24.6571 H   0  0  0  0  0  0  0  0  0  0  0  0
   11.0097   -1.7743   22.5091 C   0  0  0  0  0  0  0  0  0  0  0  0
   11.4974   -2.3715   21.7348 H   0  0  0  0  0  0  0  0  0  0  0  0
   11.6431   -0.9100   22.7149 H   0  0  0  0  0  0  0  0  0  0  0  0
    6.0926    0.7500   20.2527 C   0  0  0  0  0  0  0  0  0  0  0  0
    5.7263    0.7955   21.2810 H   0  0  0  0  0  0  0  0  0  0  0  0
    5.3640    1.3083   19.2063 C   0  0  0  0  0  0  0  0  0  0  0  0
    4.4040    1.7819   19.3784 H   0  0  0  0  0  0  0  0  0  0  0  0
  1  2  1  0
  2  3  2  0
  3  4  1  0
  4  5  1  0
  4  6  2  0
  6  7  1  0
  7  8  2  0
  8  9  1  0
  9 10  1  0
 10 11  2  0
 11 12  1  0
 12 13  1  0
 12 14  1  0
 12 15  1  0
 15 16  2  0
 16 17  1  0
 16 18  1  0
 18 19  1  0
 18 20  2  0
 20 21  1  0
 21 22  1  0
 21 23  2  0
 23 24  1  0
 10 25  1  0
 25 26  1  0
 25 27  1  0
 25 28  1  0
 28 29  1  0
 28 30  1  0
 28 31  1  0
 31 32  1  0
 31 33  1  0
  6 34  1  0
 34 35  1  0
 34 36  2  0
 36 37  1  0
 36  2  1  0
 11  7  1  0
 23 15  1  0
 31  9  1  0
M  END
>  <cnnaffinity>  (1) 
-5.6042

>  <filename>  (1) 
c1cncc(-c2nn3c(c2Cc2ccncc2)CCC3)c1

$$$$
