
     RDKit          3D

 31 34  0  0  0  0  0  0  0  0999 V2000
    4.9511    1.8054   16.9466 H   0  0  0  0  0  0  0  0  0  0  0  0
    5.4172    1.2995   17.7918 C   0  0  0  0  0  0  0  0  0  0  0  0
    6.5651    0.6547   17.5374 N   0  0  0  0  0  0  0  0  0  0  0  0
    7.1461    0.0211   18.5573 C   0  0  0  0  0  0  0  0  0  0  0  0
    8.0711   -0.5086   18.3492 H   0  0  0  0  0  0  0  0  0  0  0  0
    6.6338    0.0124   19.8636 C   0  0  0  0  0  0  0  0  0  0  0  0
    7.4179   -0.7025   20.8671 C   0  0  0  0  0  0  0  0  0  0  0  0
    8.3227   -1.6247   20.6336 N   0  0  0  0  0  0  0  0  0  0  0  0
    8.8313   -2.0661   21.8357 N   0  0  0  0  0  0  0  0  0  0  0  0
    8.2200   -1.3672   22.7574 C   0  0  0  0  0  0  0  0  0  0  0  0
    8.3082   -1.1064   24.4852 S   0  0  0  0  0  0  0  0  0  0  0  0
    7.1777    0.2392   24.2479 C   0  0  0  0  0  0  0  0  0  0  0  0
    6.7480    1.1163   25.1957 N   0  0  0  0  0  0  0  0  0  0  0  0
    5.9106    1.5450   24.8251 H   0  0  0  0  0  0  0  0  0  0  0  0
    6.8566    0.9338   26.6237 C   0  0  0  0  0  0  0  0  0  0  0  0
    7.9164    0.8963   26.9263 H   0  0  0  0  0  0  0  0  0  0  0  0
    6.4620    1.8375   27.1047 H   0  0  0  0  0  0  0  0  0  0  0  0
    6.1171   -0.2896   27.1365 C   0  0  0  0  0  0  0  0  0  0  0  0
    5.1813   -0.5285   26.6222 H   0  0  0  0  0  0  0  0  0  0  0  0
    6.1431   -0.5531   28.6191 C   0  0  0  0  0  0  0  0  0  0  0  0
    6.7418    0.1040   29.2517 H   0  0  0  0  0  0  0  0  0  0  0  0
    5.2314   -0.9087   29.0938 H   0  0  0  0  0  0  0  0  0  0  0  0
    6.8789   -1.4675   27.6768 C   0  0  0  0  0  0  0  0  0  0  0  0
    7.9684   -1.4043   27.6795 H   0  0  0  0  0  0  0  0  0  0  0  0
    6.4874   -2.4661   27.5020 H   0  0  0  0  0  0  0  0  0  0  0  0
    6.7314    0.4277   23.0430 N   0  0  0  0  0  0  0  0  0  0  0  0
    7.3180   -0.5040   22.2237 N   0  0  0  0  0  0  0  0  0  0  0  0
    5.4316    0.6862   20.1266 C   0  0  0  0  0  0  0  0  0  0  0  0
    5.0095    0.7192   21.1331 H   0  0  0  0  0  0  0  0  0  0  0  0
    4.8115    1.3277   19.0543 C   0  0  0  0  0  0  0  0  0  0  0  0
    3.8746    1.8555   19.1843 H   0  0  0  0  0  0  0  0  0  0  0  0
  1  2  1  0
  2  3  2  0
  3  4  1  0
  4  5  1  0
  4  6  2  0
  6  7  1  0
  7  8  2  0
  8  9  1  0
  9 10  2  0
 10 11  1  0
 11 12  1  0
 12 13  1  0
 13 14  1  0
 13 15  1  0
 15 16  1  0
 15 17  1  0
 15 18  1  0
 18 19  1  0
 18 20  1  0
 20 21  1  0
 20 22  1  0
 20 23  1  0
 23 24  1  0
 23 25  1  0
 12 26  2  0
 26 27  1  0
  6 28  1  0
 28 29  1  0
 28 30  2  0
 30 31  1  0
 30  2  1  0
 27  7  1  0
 27 10  1  0
 23 18  1  0
M  END
>  <cnnaffinity>  (1) 
-4.96833

>  <filename>  (1) 
c1cncc(-c2nnc3sc(NCC4CC4)nn23)c1

$$$$
