
     RDKit          3D

 33 36  0  0  0  0  0  0  0  0999 V2000
    4.9191    1.8163   16.9628 H   0  0  0  0  0  0  0  0  0  0  0  0
    5.3856    1.3075   17.8047 C   0  0  0  0  0  0  0  0  0  0  0  0
    6.5504    0.6890   17.5496 N   0  0  0  0  0  0  0  0  0  0  0  0
    7.1538    0.0673   18.5688 C   0  0  0  0  0  0  0  0  0  0  0  0
    8.1104   -0.3960   18.3285 H   0  0  0  0  0  0  0  0  0  0  0  0
    6.6413    0.0133   19.8817 C   0  0  0  0  0  0  0  0  0  0  0  0
    7.3487   -0.6636   20.9834 C   0  0  0  0  0  0  0  0  0  0  0  0
    7.5298   -0.3313   22.3268 C   0  0  0  0  0  0  0  0  0  0  0  0
    7.2226    0.9239   23.0150 C   0  0  0  0  0  0  0  0  0  0  0  0
    6.9059    0.8576   24.2960 N   0  0  0  0  0  0  0  0  0  0  0  0
    6.5926    2.0243   24.9314 C   0  0  0  0  0  0  0  0  0  0  0  0
    6.2202    1.9499   26.3071 C   0  0  0  0  0  0  0  0  0  0  0  0
    6.2014    0.9549   26.7426 H   0  0  0  0  0  0  0  0  0  0  0  0
    5.9182    3.0918   27.0131 C   0  0  0  0  0  0  0  0  0  0  0  0
    5.6425    3.0358   28.0644 H   0  0  0  0  0  0  0  0  0  0  0  0
    5.9675    4.3678   26.3778 C   0  0  0  0  0  0  0  0  0  0  0  0
    5.7289    5.2583   26.9525 H   0  0  0  0  0  0  0  0  0  0  0  0
    6.3157    4.4757   25.0511 C   0  0  0  0  0  0  0  0  0  0  0  0
    6.3591    5.4434   24.5532 H   0  0  0  0  0  0  0  0  0  0  0  0
    6.6365    3.3099   24.2957 C   0  0  0  0  0  0  0  0  0  0  0  0
    7.0214    3.3416   22.9259 C   0  0  0  0  0  0  0  0  0  0  0  0
    7.0710    4.2992   22.4086 H   0  0  0  0  0  0  0  0  0  0  0  0
    7.3151    2.1596   22.2939 C   0  0  0  0  0  0  0  0  0  0  0  0
    7.6030    2.1210   21.2498 H   0  0  0  0  0  0  0  0  0  0  0  0
    8.1666   -1.4525   22.8996 C   0  0  0  0  0  0  0  0  0  0  0  0
    8.4835   -1.6099   23.9249 H   0  0  0  0  0  0  0  0  0  0  0  0
    8.3948   -2.3911   21.9963 N   0  0  0  0  0  0  0  0  0  0  0  0
    7.9064   -1.8886   20.8532 N   0  0  0  0  0  0  0  0  0  0  0  0
    7.8887   -2.4619   20.0219 H   0  0  0  0  0  0  0  0  0  0  0  0
    5.4125    0.6493   20.1171 C   0  0  0  0  0  0  0  0  0  0  0  0
    4.9921    0.6409   21.1227 H   0  0  0  0  0  0  0  0  0  0  0  0
    4.7821    1.3136   19.0667 C   0  0  0  0  0  0  0  0  0  0  0  0
    3.8548    1.8521   19.2230 H   0  0  0  0  0  0  0  0  0  0  0  0
  1  2  1  0
  2  3  2  0
  3  4  1  0
  4  5  1  0
  4  6  2  0
  6  7  1  0
  7  8  2  0
  8  9  1  0
  9 10  2  0
 10 11  1  0
 11 12  2  0
 12 13  1  0
 12 14  1  0
 14 15  1  0
 14 16  2  0
 16 17  1  0
 16 18  1  0
 18 19  1  0
 18 20  2  0
 20 21  1  0
 21 22  1  0
 21 23  2  0
 23 24  1  0
  8 25  1  0
 25 26  1  0
 25 27  2  0
 27 28  1  0
 28 29  1  0
  6 30  1  0
 30 31  1  0
 30 32  2  0
 32 33  1  0
 32  2  1  0
 28  7  1  0
 23  9  1  0
 20 11  1  0
M  END
>  <cnnaffinity>  (1) 
-5.29245

>  <filename>  (1) 
c1cncc(-c2[nH]ncc2-c2ccc3ccccc3n2)c1

$$$$
