
     RDKit          3D

 35 38  0  0  0  0  0  0  0  0999 V2000
    5.0937    1.8046   16.8800 H   0  0  0  0  0  0  0  0  0  0  0  0
    5.4941    1.3012   17.7566 C   0  0  0  0  0  0  0  0  0  0  0  0
    6.6429    0.6278   17.5851 N   0  0  0  0  0  0  0  0  0  0  0  0
    7.1531   -0.0227   18.6391 C   0  0  0  0  0  0  0  0  0  0  0  0
    8.0713   -0.5796   18.4508 H   0  0  0  0  0  0  0  0  0  0  0  0
    6.5638   -0.0055   19.9185 C   0  0  0  0  0  0  0  0  0  0  0  0
    7.1684   -0.7070   21.0577 C   0  0  0  0  0  0  0  0  0  0  0  0
    7.6575   -1.9400   20.9217 N   0  0  0  0  0  0  0  0  0  0  0  0
    8.0207   -2.2703   22.1605 N   0  0  0  0  0  0  0  0  0  0  0  0
    7.8268   -1.3127   23.0764 C   0  0  0  0  0  0  0  0  0  0  0  0
    7.2956   -0.2236   22.4020 C   0  0  0  0  0  0  0  0  0  0  0  0
    7.0354    1.1632   22.9433 C   0  0  0  0  0  0  0  0  0  0  0  0
    6.0406    1.2080   23.4081 H   0  0  0  0  0  0  0  0  0  0  0  0
    7.0055    1.8723   22.1068 H   0  0  0  0  0  0  0  0  0  0  0  0
    8.0546    1.6486   23.9602 C   0  0  0  0  0  0  0  0  0  0  0  0
    9.0654    1.6820   23.5547 H   0  0  0  0  0  0  0  0  0  0  0  0
    7.7129    2.7229   24.9596 C   0  0  0  0  0  0  0  0  0  0  0  0
    8.4560    3.4777   25.2191 H   0  0  0  0  0  0  0  0  0  0  0  0
    6.6941    3.1129   24.9820 H   0  0  0  0  0  0  0  0  0  0  0  0
    7.9329    1.3057   25.4187 C   0  0  0  0  0  0  0  0  0  0  0  0
    8.8339    1.0726   25.9862 H   0  0  0  0  0  0  0  0  0  0  0  0
    7.0601    0.7423   25.7520 H   0  0  0  0  0  0  0  0  0  0  0  0
    8.3860   -1.7759   24.3893 C   0  0  0  0  0  0  0  0  0  0  0  0
    7.6666   -1.7045   25.2071 H   0  0  0  0  0  0  0  0  0  0  0  0
    9.2386   -1.1473   24.6521 H   0  0  0  0  0  0  0  0  0  0  0  0
    8.8105   -3.2473   24.1208 C   0  0  0  0  0  0  0  0  0  0  0  0
    8.0915   -3.9308   24.5729 H   0  0  0  0  0  0  0  0  0  0  0  0
    9.7983   -3.4835   24.5249 H   0  0  0  0  0  0  0  0  0  0  0  0
    8.7744   -3.4246   22.5868 C   0  0  0  0  0  0  0  0  0  0  0  0
    8.2799   -4.3462   22.2731 H   0  0  0  0  0  0  0  0  0  0  0  0
    9.7694   -3.3718   22.1439 H   0  0  0  0  0  0  0  0  0  0  0  0
    5.3566    0.6950   20.0701 C   0  0  0  0  0  0  0  0  0  0  0  0
    4.8587    0.7163   21.0382 H   0  0  0  0  0  0  0  0  0  0  0  0
    4.8067    1.3501   18.9723 C   0  0  0  0  0  0  0  0  0  0  0  0
    3.8724    1.8910   19.0519 H   0  0  0  0  0  0  0  0  0  0  0  0
  1  2  1  0
  2  3  2  0
  3  4  1  0
  4  5  1  0
  4  6  2  0
  6  7  1  0
  7  8  2  0
  8  9  1  0
  9 10  1  0
 10 11  2  0
 11 12  1  0
 12 13  1  0
 12 14  1  0
 12 15  1  0
 15 16  1  0
 15 17  1  0
 17 18  1  0
 17 19  1  0
 17 20  1  0
 20 21  1  0
 20 22  1  0
 10 23  1  0
 23 24  1  0
 23 25  1  0
 23 26  1  0
 26 27  1  0
 26 28  1  0
 26 29  1  0
 29 30  1  0
 29 31  1  0
  6 32  1  0
 32 33  1  0
 32 34  2  0
 34 35  1  0
 34  2  1  0
 11  7  1  0
 20 15  1  0
 29  9  1  0
M  END
>  <cnnaffinity>  (1) 
-5.21585

>  <filename>  (1) 
c1cncc(-c2nn3c(c2CC2CC2)CCC3)c1

$$$$
