
     RDKit          3D

 37 41  0  0  0  0  0  0  0  0999 V2000
    4.9393    1.7982   16.9515 H   0  0  0  0  0  0  0  0  0  0  0  0
    5.4196    1.3052   17.7898 C   0  0  0  0  0  0  0  0  0  0  0  0
    6.5834    0.6909   17.5329 N   0  0  0  0  0  0  0  0  0  0  0  0
    7.2151    0.1024   18.5532 C   0  0  0  0  0  0  0  0  0  0  0  0
    8.1505   -0.3987   18.3086 H   0  0  0  0  0  0  0  0  0  0  0  0
    6.7140    0.0892   19.8684 C   0  0  0  0  0  0  0  0  0  0  0  0
    7.4076   -0.6521   20.9354 C   0  0  0  0  0  0  0  0  0  0  0  0
    8.6281   -1.1820   20.7628 N   0  0  0  0  0  0  0  0  0  0  0  0
    8.8052   -1.8893   21.9043 N   0  0  0  0  0  0  0  0  0  0  0  0
    9.7478   -2.8040   22.3553 C   0  0  0  0  0  0  0  0  0  0  0  0
   10.6945   -2.9127   21.8586 H   0  0  0  0  0  0  0  0  0  0  0  0
    9.2002   -3.3994   23.4472 C   0  0  0  0  0  0  0  0  0  0  0  0
    9.5439   -4.2287   24.0446 H   0  0  0  0  0  0  0  0  0  0  0  0
    7.9707   -2.7899   23.7303 N   0  0  0  0  0  0  0  0  0  0  0  0
    6.9744   -3.1760   24.6577 C   0  0  0  0  0  0  0  0  0  0  0  0
    6.4586   -4.4526   24.6163 C   0  0  0  0  0  0  0  0  0  0  0  0
    6.8796   -5.1704   23.9153 H   0  0  0  0  0  0  0  0  0  0  0  0
    5.4078   -4.8878   25.3621 N   0  0  0  0  0  0  0  0  0  0  0  0
    4.8435   -4.0269   26.1823 C   0  0  0  0  0  0  0  0  0  0  0  0
    3.9847   -4.3728   26.7601 H   0  0  0  0  0  0  0  0  0  0  0  0
    5.2699   -2.6714   26.3411 C   0  0  0  0  0  0  0  0  0  0  0  0
    4.6150   -1.7572   27.2270 C   0  0  0  0  0  0  0  0  0  0  0  0
    3.7631   -2.0949   27.8145 H   0  0  0  0  0  0  0  0  0  0  0  0
    5.0459   -0.4597   27.3357 C   0  0  0  0  0  0  0  0  0  0  0  0
    4.5564    0.2319   28.0207 H   0  0  0  0  0  0  0  0  0  0  0  0
    6.1417   -0.0012   26.5567 C   0  0  0  0  0  0  0  0  0  0  0  0
    6.4670    1.0322   26.6574 H   0  0  0  0  0  0  0  0  0  0  0  0
    6.7837   -0.8502   25.6799 C   0  0  0  0  0  0  0  0  0  0  0  0
    7.5992   -0.4876   25.0597 H   0  0  0  0  0  0  0  0  0  0  0  0
    6.3735   -2.2193   25.5547 C   0  0  0  0  0  0  0  0  0  0  0  0
    7.7499   -1.8500   22.7367 C   0  0  0  0  0  0  0  0  0  0  0  0
    6.8328   -0.9761   22.1848 C   0  0  0  0  0  0  0  0  0  0  0  0
    5.9588   -0.5254   22.6148 H   0  0  0  0  0  0  0  0  0  0  0  0
    5.4783    0.7132   20.1088 C   0  0  0  0  0  0  0  0  0  0  0  0
    5.0244    0.7083   21.1008 H   0  0  0  0  0  0  0  0  0  0  0  0
    4.8229    1.3321   19.0530 C   0  0  0  0  0  0  0  0  0  0  0  0
    3.8748    1.8343   19.2006 H   0  0  0  0  0  0  0  0  0  0  0  0
  1  2  1  0
  2  3  2  0
  3  4  1  0
  4  5  1  0
  4  6  2  0
  6  7  1  0
  7  8  2  0
  8  9  1  0
  9 10  1  0
 10 11  1  0
 10 12  2  0
 12 13  1  0
 12 14  1  0
 14 15  1  0
 15 16  2  0
 16 17  1  0
 16 18  1  0
 18 19  2  0
 19 20  1  0
 19 21  1  0
 21 22  2  0
 22 23  1  0
 22 24  1  0
 24 25  1  0
 24 26  2  0
 26 27  1  0
 26 28  1  0
 28 29  1  0
 28 30  2  0
 14 31  1  0
 31 32  2  0
 32 33  1  0
  6 34  1  0
 34 35  1  0
 34 36  2  0
 36 37  1  0
 36  2  1  0
 32  7  1  0
 31  9  1  0
 30 15  1  0
 30 21  1  0
M  END
>  <cnnaffinity>  (1) 
-6.01487

>  <filename>  (1) 
c1cncc(-c2cc3n(-c4cncc5ccccc45)ccn3n2)c1

$$$$
