
     RDKit          3D

 30 33  0  0  0  0  0  0  0  0999 V2000
    4.9228    1.7907   16.9901 H   0  0  0  0  0  0  0  0  0  0  0  0
    5.4013    1.2975   17.8340 C   0  0  0  0  0  0  0  0  0  0  0  0
    6.5660    0.6801   17.5742 N   0  0  0  0  0  0  0  0  0  0  0  0
    7.1676    0.0634   18.5954 C   0  0  0  0  0  0  0  0  0  0  0  0
    8.1094   -0.4282   18.3712 H   0  0  0  0  0  0  0  0  0  0  0  0
    6.6639    0.0072   19.9144 C   0  0  0  0  0  0  0  0  0  0  0  0
    7.3583   -0.7294   20.9889 C   0  0  0  0  0  0  0  0  0  0  0  0
    7.9560   -2.3238   20.8465 S   0  0  0  0  0  0  0  0  0  0  0  0
    8.4325   -2.5019   22.4170 N   0  0  0  0  0  0  0  0  0  0  0  0
    8.1689   -1.4076   23.0682 C   0  0  0  0  0  0  0  0  0  0  0  0
    8.4392   -1.3656   24.1194 H   0  0  0  0  0  0  0  0  0  0  0  0
    7.5620   -0.3519   22.3077 C   0  0  0  0  0  0  0  0  0  0  0  0
    7.3101    0.9721   22.8019 C   0  0  0  0  0  0  0  0  0  0  0  0
    7.0867    1.1087   24.1506 O   0  0  0  0  0  0  0  0  0  0  0  0
    6.8950    2.4426   24.3709 C   0  0  0  0  0  0  0  0  0  0  0  0
    6.6150    3.0700   25.5898 C   0  0  0  0  0  0  0  0  0  0  0  0
    6.5131    2.5040   26.5143 H   0  0  0  0  0  0  0  0  0  0  0  0
    6.4791    4.4650   25.5440 C   0  0  0  0  0  0  0  0  0  0  0  0
    6.2619    5.0113   26.4613 H   0  0  0  0  0  0  0  0  0  0  0  0
    6.6143    5.1999   24.3407 C   0  0  0  0  0  0  0  0  0  0  0  0
    6.5022    6.2857   24.3409 H   0  0  0  0  0  0  0  0  0  0  0  0
    6.8920    4.5525   23.1428 C   0  0  0  0  0  0  0  0  0  0  0  0
    7.0027    5.0779   22.1949 H   0  0  0  0  0  0  0  0  0  0  0  0
    7.0361    3.1553   23.1672 C   0  0  0  0  0  0  0  0  0  0  0  0
    7.3216    2.1720   22.1713 C   0  0  0  0  0  0  0  0  0  0  0  0
    7.5019    2.3253   21.1166 H   0  0  0  0  0  0  0  0  0  0  0  0
    5.4307    0.6405   20.1535 C   0  0  0  0  0  0  0  0  0  0  0  0
    5.0067    0.6364   21.1599 H   0  0  0  0  0  0  0  0  0  0  0  0
    4.7997    1.3033   19.0972 C   0  0  0  0  0  0  0  0  0  0  0  0
    3.8729    1.8411   19.2505 H   0  0  0  0  0  0  0  0  0  0  0  0
  1  2  1  0
  2  3  2  0
  3  4  1  0
  4  5  1  0
  4  6  2  0
  6  7  1  0
  7  8  1  0
  8  9  1  0
  9 10  2  0
 10 11  1  0
 10 12  1  0
 12 13  1  0
 13 14  1  0
 14 15  1  0
 15 16  2  0
 16 17  1  0
 16 18  1  0
 18 19  1  0
 18 20  2  0
 20 21  1  0
 20 22  1  0
 22 23  1  0
 22 24  2  0
 24 25  1  0
 25 26  1  0
  6 27  1  0
 27 28  1  0
 27 29  2  0
 29 30  1  0
 29  2  1  0
 12  7  2  0
 25 13  2  0
 24 15  1  0
M  END
>  <cnnaffinity>  (1) 
-4.91881

>  <filename>  (1) 
c1cncc(-c2sncc2-c2cc3ccccc3o2)c1

$$$$
