
     RDKit          3D

 31 33  0  0  0  0  0  0  0  0999 V2000
    4.9699    1.7904   16.9901 H   0  0  0  0  0  0  0  0  0  0  0  0
    5.4347    1.2803   17.8291 C   0  0  0  0  0  0  0  0  0  0  0  0
    6.5958    0.6558   17.5744 N   0  0  0  0  0  0  0  0  0  0  0  0
    7.1946    0.0277   18.5938 C   0  0  0  0  0  0  0  0  0  0  0  0
    8.1443   -0.4535   18.3598 H   0  0  0  0  0  0  0  0  0  0  0  0
    6.6550   -0.0167   19.8976 C   0  0  0  0  0  0  0  0  0  0  0  0
    7.3233   -0.7089   21.0062 C   0  0  0  0  0  0  0  0  0  0  0  0
    8.4555   -1.3826   20.7550 O   0  0  0  0  0  0  0  0  0  0  0  0
    8.9455   -1.9208   21.9484 N   0  0  0  0  0  0  0  0  0  0  0  0
    8.0831   -1.5506   22.8649 C   0  0  0  0  0  0  0  0  0  0  0  0
    8.2937   -1.8822   24.1730 N   0  0  0  0  0  0  0  0  0  0  0  0
    9.0210   -2.5718   24.2352 H   0  0  0  0  0  0  0  0  0  0  0  0
    7.2925   -1.7528   25.2187 C   0  0  0  0  0  0  0  0  0  0  0  0
    7.7968   -1.9176   26.1786 H   0  0  0  0  0  0  0  0  0  0  0  0
    6.9637   -0.7091   25.2538 H   0  0  0  0  0  0  0  0  0  0  0  0
    6.0324   -2.6251   25.1021 C   0  0  0  0  0  0  0  0  0  0  0  0
    6.0761   -4.0242   24.9945 C   0  0  0  0  0  0  0  0  0  0  0  0
    7.0084   -4.5711   25.0869 H   0  0  0  0  0  0  0  0  0  0  0  0
    4.8953   -4.7403   24.7676 C   0  0  0  0  0  0  0  0  0  0  0  0
    4.9231   -5.8212   24.6716 H   0  0  0  0  0  0  0  0  0  0  0  0
    3.6904   -4.1768   24.6138 N   0  0  0  0  0  0  0  0  0  0  0  0
    3.6373   -2.8505   24.7632 C   0  0  0  0  0  0  0  0  0  0  0  0
    2.6617   -2.3905   24.6199 H   0  0  0  0  0  0  0  0  0  0  0  0
    4.7466   -2.0576   25.0742 C   0  0  0  0  0  0  0  0  0  0  0  0
    4.5701   -1.0025   25.2564 H   0  0  0  0  0  0  0  0  0  0  0  0
    7.0223   -0.7910   22.3294 C   0  0  0  0  0  0  0  0  0  0  0  0
    6.1801   -0.4312   22.8902 H   0  0  0  0  0  0  0  0  0  0  0  0
    5.4437    0.6443   20.1406 C   0  0  0  0  0  0  0  0  0  0  0  0
    5.0078    0.6488   21.1429 H   0  0  0  0  0  0  0  0  0  0  0  0
    4.8189    1.3019   19.0857 C   0  0  0  0  0  0  0  0  0  0  0  0
    3.8858    1.8341   19.2311 H   0  0  0  0  0  0  0  0  0  0  0  0
  1  2  1  0
  2  3  2  0
  3  4  1  0
  4  5  1  0
  4  6  2  0
  6  7  1  0
  7  8  1  0
  8  9  1  0
  9 10  2  0
 10 11  1  0
 11 12  1  0
 11 13  1  0
 13 14  1  0
 13 15  1  0
 13 16  1  0
 16 17  2  0
 17 18  1  0
 17 19  1  0
 19 20  1  0
 19 21  2  0
 21 22  1  0
 22 23  1  0
 22 24  2  0
 24 25  1  0
 10 26  1  0
 26 27  1  0
  6 28  1  0
 28 29  1  0
 28 30  2  0
 30 31  1  0
 30  2  1  0
 26  7  2  0
 24 16  1  0
M  END
>  <cnnaffinity>  (1) 
-4.51243

>  <filename>  (1) 
c1cncc(-c2cc(NCc3ccncc3)no2)c1

$$$$
