
     RDKit          3D

 31 34  0  0  0  0  0  0  0  0999 V2000
    4.9157    1.7779   16.9995 H   0  0  0  0  0  0  0  0  0  0  0  0
    5.4038    1.2905   17.8431 C   0  0  0  0  0  0  0  0  0  0  0  0
    6.5683    0.6707   17.5862 N   0  0  0  0  0  0  0  0  0  0  0  0
    7.1852    0.0566   18.5988 C   0  0  0  0  0  0  0  0  0  0  0  0
    8.1297   -0.4325   18.3766 H   0  0  0  0  0  0  0  0  0  0  0  0
    6.6703    0.0089   19.9052 C   0  0  0  0  0  0  0  0  0  0  0  0
    7.3681   -0.6876   20.9384 N   0  0  0  0  0  0  0  0  0  0  0  0
    8.6656   -1.0270   20.8411 N   0  0  0  0  0  0  0  0  0  0  0  0
    9.0028   -1.6501   21.9192 N   0  0  0  0  0  0  0  0  0  0  0  0
    7.9239   -1.7241   22.7651 C   0  0  0  0  0  0  0  0  0  0  0  0
    7.9100   -2.3437   24.1022 C   0  0  0  0  0  0  0  0  0  0  0  0
    6.8594   -2.0893   25.0025 C   0  0  0  0  0  0  0  0  0  0  0  0
    6.0470   -1.4197   24.7249 H   0  0  0  0  0  0  0  0  0  0  0  0
    6.8325   -2.6745   26.2879 C   0  0  0  0  0  0  0  0  0  0  0  0
    6.0088   -2.4525   26.9595 H   0  0  0  0  0  0  0  0  0  0  0  0
    7.8434   -3.5346   26.7185 C   0  0  0  0  0  0  0  0  0  0  0  0
    7.8431   -3.9996   27.7041 H   0  0  0  0  0  0  0  0  0  0  0  0
    8.8825   -3.7918   25.8140 C   0  0  0  0  0  0  0  0  0  0  0  0
    8.9441   -3.2267   24.5170 C   0  0  0  0  0  0  0  0  0  0  0  0
   10.1356   -3.7459   23.9024 C   0  0  0  0  0  0  0  0  0  0  0  0
   10.4514   -3.4894   22.9013 H   0  0  0  0  0  0  0  0  0  0  0  0
   10.7420   -4.5696   24.8042 C   0  0  0  0  0  0  0  0  0  0  0  0
   11.6587   -5.1455   24.7051 H   0  0  0  0  0  0  0  0  0  0  0  0
    9.9873   -4.5939   25.9594 N   0  0  0  0  0  0  0  0  0  0  0  0
   10.1808   -5.1241   26.7902 H   0  0  0  0  0  0  0  0  0  0  0  0
    6.8815   -1.1128   22.1240 C   0  0  0  0  0  0  0  0  0  0  0  0
    5.8618   -0.9829   22.4147 H   0  0  0  0  0  0  0  0  0  0  0  0
    5.4493    0.6460   20.1672 C   0  0  0  0  0  0  0  0  0  0  0  0
    5.0033    0.6436   21.1641 H   0  0  0  0  0  0  0  0  0  0  0  0
    4.8137    1.3055   19.1119 C   0  0  0  0  0  0  0  0  0  0  0  0
    3.8789    1.8385   19.2673 H   0  0  0  0  0  0  0  0  0  0  0  0
  1  2  1  0
  2  3  2  0
  3  4  1  0
  4  5  1  0
  4  6  2  0
  6  7  1  0
  7  8  1  0
  8  9  2  0
  9 10  1  0
 10 11  1  0
 11 12  2  0
 12 13  1  0
 12 14  1  0
 14 15  1  0
 14 16  2  0
 16 17  1  0
 16 18  1  0
 18 19  2  0
 19 20  1  0
 20 21  1  0
 20 22  2  0
 22 23  1  0
 22 24  1  0
 24 25  1  0
 10 26  2  0
 26 27  1  0
  6 28  1  0
 28 29  1  0
 28 30  2  0
 30 31  1  0
 30  2  1  0
 26  7  1  0
 19 11  1  0
 24 18  1  0
M  END
>  <cnnaffinity>  (1) 
-5.31851

>  <filename>  (1) 
c1cncc(-n2cc(-c3cccc4[nH]ccc34)nn2)c1

$$$$
