
     RDKit          3D

 30 32  0  0  0  0  0  0  0  0999 V2000
    4.9231    1.7836   16.9942 H   0  0  0  0  0  0  0  0  0  0  0  0
    5.4071    1.2935   17.8395 C   0  0  0  0  0  0  0  0  0  0  0  0
    6.5725    0.6721   17.5894 N   0  0  0  0  0  0  0  0  0  0  0  0
    7.1764    0.0498   18.6051 C   0  0  0  0  0  0  0  0  0  0  0  0
    8.1215   -0.4377   18.3808 H   0  0  0  0  0  0  0  0  0  0  0  0
    6.6546    0.0076   19.9108 C   0  0  0  0  0  0  0  0  0  0  0  0
    7.3686   -0.6697   20.9417 N   0  0  0  0  0  0  0  0  0  0  0  0
    7.7297   -1.9646   20.7967 N   0  0  0  0  0  0  0  0  0  0  0  0
    8.3240   -2.3439   21.8779 N   0  0  0  0  0  0  0  0  0  0  0  0
    8.3588   -1.3003   22.7412 C   0  0  0  0  0  0  0  0  0  0  0  0
    8.8124   -1.3610   23.7186 H   0  0  0  0  0  0  0  0  0  0  0  0
    7.7486   -0.2123   22.1735 C   0  0  0  0  0  0  0  0  0  0  0  0
    7.5969    1.1986   22.6288 C   0  0  0  0  0  0  0  0  0  0  0  0
    6.5283    1.4213   22.7419 H   0  0  0  0  0  0  0  0  0  0  0  0
    8.2848    1.4702   23.9696 C   0  0  0  0  0  0  0  0  0  0  0  0
    7.7141    1.0671   24.8123 H   0  0  0  0  0  0  0  0  0  0  0  0
    9.2595    0.9713   23.9851 H   0  0  0  0  0  0  0  0  0  0  0  0
    8.4652    2.9859   24.0239 C   0  0  0  0  0  0  0  0  0  0  0  0
    9.3238    3.2700   24.6397 H   0  0  0  0  0  0  0  0  0  0  0  0
    7.5908    3.4565   24.4858 H   0  0  0  0  0  0  0  0  0  0  0  0
    8.6175    3.4418   22.5558 C   0  0  0  0  0  0  0  0  0  0  0  0
    9.6484    3.7383   22.3378 H   0  0  0  0  0  0  0  0  0  0  0  0
    8.0024    4.3234   22.3561 H   0  0  0  0  0  0  0  0  0  0  0  0
    8.1998    2.2473   21.6714 C   0  0  0  0  0  0  0  0  0  0  0  0
    7.4871    2.5145   20.8859 H   0  0  0  0  0  0  0  0  0  0  0  0
    9.0682    1.8226   21.1607 H   0  0  0  0  0  0  0  0  0  0  0  0
    5.4366    0.6487   20.1683 C   0  0  0  0  0  0  0  0  0  0  0  0
    4.9944    0.6302   21.1689 H   0  0  0  0  0  0  0  0  0  0  0  0
    4.8102    1.3074   19.1058 C   0  0  0  0  0  0  0  0  0  0  0  0
    3.8770    1.8394   19.2602 H   0  0  0  0  0  0  0  0  0  0  0  0
  1  2  1  0
  2  3  2  0
  3  4  1  0
  4  5  1  0
  4  6  2  0
  6  7  1  0
  7  8  1  0
  8  9  2  0
  9 10  1  0
 10 11  1  0
 10 12  2  0
 12 13  1  0
 13 14  1  0
 13 15  1  0
 15 16  1  0
 15 17  1  0
 15 18  1  0
 18 19  1  0
 18 20  1  0
 18 21  1  0
 21 22  1  0
 21 23  1  0
 21 24  1  0
 24 25  1  0
 24 26  1  0
  6 27  1  0
 27 28  1  0
 27 29  2  0
 29 30  1  0
 29  2  1  0
 12  7  1  0
 24 13  1  0
M  END
>  <cnnaffinity>  (1) 
-5.20245

>  <filename>  (1) 
c1cncc(-n2nncc2C2CCCC2)c1

$$$$
