
     RDKit          3D

 39 42  0  0  0  0  0  0  0  0999 V2000
    4.8128    1.3082   19.1109 C   0  0  0  0  0  0  0  0  0  0  0  0
    5.4013    1.2955   17.8387 C   0  0  0  0  0  0  0  0  0  0  0  0
    6.5612    0.6739   17.5765 N   0  0  0  0  0  0  0  0  0  0  0  0
    7.1683    0.0522   18.5929 C   0  0  0  0  0  0  0  0  0  0  0  0
    6.6581   -0.0010   19.9014 C   0  0  0  0  0  0  0  0  0  0  0  0
    7.3717   -0.6754   20.9366 N   0  0  0  0  0  0  0  0  0  0  0  0
    6.7537   -1.6030   21.7078 N   0  0  0  0  0  0  0  0  0  0  0  0
    7.6933   -1.9553   22.5688 C   0  0  0  0  0  0  0  0  0  0  0  0
    7.4385   -2.9279   23.6677 C   0  0  0  0  0  0  0  0  0  0  0  0
    6.2890   -2.5356   24.6490 C   0  0  0  0  0  0  0  0  0  0  0  0
    5.4986   -3.7854   24.2039 C   0  0  0  0  0  0  0  0  0  0  0  0
    6.6504   -4.2078   23.2652 C   0  0  0  0  0  0  0  0  0  0  0  0
    7.1454   -5.1446   23.5328 H   0  0  0  0  0  0  0  0  0  0  0  0
    6.3903   -4.2470   22.2027 H   0  0  0  0  0  0  0  0  0  0  0  0
    5.2748   -4.4933   25.0056 H   0  0  0  0  0  0  0  0  0  0  0  0
    4.5626   -3.5578   23.6860 H   0  0  0  0  0  0  0  0  0  0  0  0
    5.8172   -1.5766   24.4137 H   0  0  0  0  0  0  0  0  0  0  0  0
    6.5750   -2.5112   25.7035 H   0  0  0  0  0  0  0  0  0  0  0  0
    8.3920   -3.1194   24.1607 H   0  0  0  0  0  0  0  0  0  0  0  0
    8.8840   -1.3263   22.4062 N   0  0  0  0  0  0  0  0  0  0  0  0
    8.6446   -0.5056   21.4008 C   0  0  0  0  0  0  0  0  0  0  0  0
    9.5268    0.6045   20.9375 C   0  0  0  0  0  0  0  0  0  0  0  0
    9.0529    2.0073   21.4215 C   0  0  0  0  0  0  0  0  0  0  0  0
    8.9908    2.1161   22.9213 C   0  0  0  0  0  0  0  0  0  0  0  0
   10.0576    2.2598   23.7686 C   0  0  0  0  0  0  0  0  0  0  0  0
    9.5109    2.1503   24.9977 N   0  0  0  0  0  0  0  0  0  0  0  0
    8.1924    1.9472   24.9365 N   0  0  0  0  0  0  0  0  0  0  0  0
    7.8680    1.9278   23.6812 N   0  0  0  0  0  0  0  0  0  0  0  0
    9.9288    2.2195   25.9118 H   0  0  0  0  0  0  0  0  0  0  0  0
   11.1112    2.4099   23.5737 H   0  0  0  0  0  0  0  0  0  0  0  0
    8.0736    2.2360   20.9942 H   0  0  0  0  0  0  0  0  0  0  0  0
    9.7544    2.7572   21.0442 H   0  0  0  0  0  0  0  0  0  0  0  0
    9.5909    0.5904   19.8474 H   0  0  0  0  0  0  0  0  0  0  0  0
   10.5246    0.3825   21.3217 H   0  0  0  0  0  0  0  0  0  0  0  0
    5.4403    0.6378   20.1685 C   0  0  0  0  0  0  0  0  0  0  0  0
    5.0175    0.6120   21.1768 H   0  0  0  0  0  0  0  0  0  0  0  0
    8.1136   -0.4338   18.3682 H   0  0  0  0  0  0  0  0  0  0  0  0
    4.9181    1.7845   16.9944 H   0  0  0  0  0  0  0  0  0  0  0  0
    3.8797    1.8401   19.2621 H   0  0  0  0  0  0  0  0  0  0  0  0
  1  2  2  0
  2  3  1  0
  3  4  2  0
  4  5  1  0
  5  6  1  0
  6  7  1  0
  7  8  2  0
  8  9  1  0
  9 10  1  0
 10 11  1  0
 11 12  1  0
 12 13  1  0
 12 14  1  0
 11 15  1  0
 11 16  1  0
 10 17  1  0
 10 18  1  0
  9 19  1  0
  8 20  1  0
 20 21  2  0
 21 22  1  0
 22 23  1  0
 23 24  1  0
 24 25  2  0
 25 26  1  0
 26 27  1  0
 27 28  2  0
 26 29  1  0
 25 30  1  0
 23 31  1  0
 23 32  1  0
 22 33  1  0
 22 34  1  0
  5 35  2  0
 35 36  1  0
  4 37  1  0
  2 38  1  0
  1 39  1  0
 35  1  1  0
 21  6  1  0
 28 24  1  0
 12  9  1  0
M  END
>  <cnnaffinity>  (1) 
-5.74642

>  <filename>  (1) 
c1cncc(-n2nc(C3CCC3)nc2CCc2c[nH]nn2)c1

$$$$
