
     RDKit          3D

 28 31  0  0  0  0  0  0  0  0999 V2000
    8.7795    0.5134   28.1437 H   0  0  0  0  0  0  0  0  0  0  0  0
    8.4488    0.0411   27.2279 C   0  0  0  0  0  0  0  0  0  0  0  0
    7.1258   -0.0303   26.8988 N   0  0  0  0  0  0  0  0  0  0  0  0
    7.1558   -0.6204   25.7323 C   0  0  0  0  0  0  0  0  0  0  0  0
    6.3245   -0.8822   25.0910 H   0  0  0  0  0  0  0  0  0  0  0  0
    8.4318   -0.8885   25.3714 N   0  0  0  0  0  0  0  0  0  0  0  0
    8.8170   -1.3556   24.1255 N   0  0  0  0  0  0  0  0  0  0  0  0
   10.0034   -2.0350   23.8293 C   0  0  0  0  0  0  0  0  0  0  0  0
   10.6762   -2.3076   24.6268 H   0  0  0  0  0  0  0  0  0  0  0  0
   10.0895   -2.1682   22.4889 C   0  0  0  0  0  0  0  0  0  0  0  0
   10.8301   -2.6095   21.8487 H   0  0  0  0  0  0  0  0  0  0  0  0
    8.9544   -1.5719   21.9545 N   0  0  0  0  0  0  0  0  0  0  0  0
    8.5097   -1.3129   20.7069 N   0  0  0  0  0  0  0  0  0  0  0  0
    7.3763   -0.6277   20.9321 C   0  0  0  0  0  0  0  0  0  0  0  0
    6.6134   -0.0197   19.8207 C   0  0  0  0  0  0  0  0  0  0  0  0
    7.1376   -0.0001   18.5108 C   0  0  0  0  0  0  0  0  0  0  0  0
    8.0627   -0.5287   18.2884 H   0  0  0  0  0  0  0  0  0  0  0  0
    6.5594    0.6361   17.4850 N   0  0  0  0  0  0  0  0  0  0  0  0
    5.4173    1.2958   17.7286 C   0  0  0  0  0  0  0  0  0  0  0  0
    4.9934    1.8557   16.8957 H   0  0  0  0  0  0  0  0  0  0  0  0
    4.7889    1.2972   18.9778 C   0  0  0  0  0  0  0  0  0  0  0  0
    3.8750    1.8575   19.1202 H   0  0  0  0  0  0  0  0  0  0  0  0
    5.3847    0.6235   20.0407 C   0  0  0  0  0  0  0  0  0  0  0  0
    4.9059    0.6037   21.0254 H   0  0  0  0  0  0  0  0  0  0  0  0
    7.0936   -0.4683   22.3106 C   0  0  0  0  0  0  0  0  0  0  0  0
    6.2369    0.0197   22.7321 H   0  0  0  0  0  0  0  0  0  0  0  0
    8.1784   -1.0736   22.9309 C   0  0  0  0  0  0  0  0  0  0  0  0
    9.2844   -0.4695   26.3431 N   0  0  0  0  0  0  0  0  0  0  0  0
  1  2  1  0
  2  3  1  0
  3  4  2  0
  4  5  1  0
  4  6  1  0
  6  7  1  0
  7  8  1  0
  8  9  1  0
  8 10  2  0
 10 11  1  0
 10 12  1  0
 12 13  1  0
 13 14  2  0
 14 15  1  0
 15 16  2  0
 16 17  1  0
 16 18  1  0
 18 19  2  0
 19 20  1  0
 19 21  1  0
 21 22  1  0
 21 23  2  0
 23 24  1  0
 14 25  1  0
 25 26  1  0
 25 27  2  0
  6 28  1  0
 28  2  2  0
 27  7  1  0
 27 12  1  0
 23 15  1  0
M  END
>  <cnnaffinity>  (1) 
-5.10055

>  <filename>  (1) 
c1cncc(-c2cc3n(-n4cncn4)ccn3n2)c1

$$$$
