
     RDKit          3D

 35 38  0  0  0  0  0  0  0  0999 V2000
    4.9837    1.7905   16.9947 H   0  0  0  0  0  0  0  0  0  0  0  0
    5.4278    1.2992   17.8577 C   0  0  0  0  0  0  0  0  0  0  0  0
    6.5746    0.6394   17.6305 N   0  0  0  0  0  0  0  0  0  0  0  0
    7.1476    0.0316   18.6696 C   0  0  0  0  0  0  0  0  0  0  0  0
    8.0565   -0.5323   18.4623 H   0  0  0  0  0  0  0  0  0  0  0  0
    6.6424    0.0800   19.9802 C   0  0  0  0  0  0  0  0  0  0  0  0
    7.4081   -0.6405   21.0054 C   0  0  0  0  0  0  0  0  0  0  0  0
    7.9996   -1.7902   20.7986 N   0  0  0  0  0  0  0  0  0  0  0  0
    8.6192   -2.1688   21.9585 N   0  0  0  0  0  0  0  0  0  0  0  0
    8.4077   -1.2199   22.8283 C   0  0  0  0  0  0  0  0  0  0  0  0
    8.7747   -1.2124   23.8461 H   0  0  0  0  0  0  0  0  0  0  0  0
    7.6519   -0.2136   22.2884 N   0  0  0  0  0  0  0  0  0  0  0  0
    7.3570    1.0552   22.9432 C   0  0  0  0  0  0  0  0  0  0  0  0
    8.2973    1.4798   23.3271 H   0  0  0  0  0  0  0  0  0  0  0  0
    7.0003    1.7607   22.1828 H   0  0  0  0  0  0  0  0  0  0  0  0
    6.3369    0.9807   24.0631 C   0  0  0  0  0  0  0  0  0  0  0  0
    5.8591   -0.2048   24.5809 C   0  0  0  0  0  0  0  0  0  0  0  0
    6.3020   -1.1541   24.3003 H   0  0  0  0  0  0  0  0  0  0  0  0
    4.7987   -0.3138   25.4335 N   0  0  0  0  0  0  0  0  0  0  0  0
    4.1954    0.7962   25.7951 C   0  0  0  0  0  0  0  0  0  0  0  0
    3.2959    0.7072   26.4041 H   0  0  0  0  0  0  0  0  0  0  0  0
    4.6533    2.1026   25.4489 C   0  0  0  0  0  0  0  0  0  0  0  0
    4.0366    3.2843   25.9523 C   0  0  0  0  0  0  0  0  0  0  0  0
    3.1053    3.1802   26.4985 H   0  0  0  0  0  0  0  0  0  0  0  0
    4.5932    4.5223   25.7216 C   0  0  0  0  0  0  0  0  0  0  0  0
    4.1348    5.4189   26.1407 H   0  0  0  0  0  0  0  0  0  0  0  0
    5.7730    4.6222   24.9360 C   0  0  0  0  0  0  0  0  0  0  0  0
    6.2115    5.6017   24.7605 H   0  0  0  0  0  0  0  0  0  0  0  0
    6.3524    3.4991   24.3779 C   0  0  0  0  0  0  0  0  0  0  0  0
    7.2196    3.5874   23.7298 H   0  0  0  0  0  0  0  0  0  0  0  0
    5.8046    2.2003   24.6116 C   0  0  0  0  0  0  0  0  0  0  0  0
    5.4317    0.7513   20.1996 C   0  0  0  0  0  0  0  0  0  0  0  0
    4.9877    0.7754   21.1988 H   0  0  0  0  0  0  0  0  0  0  0  0
    4.8076    1.3635   19.1104 C   0  0  0  0  0  0  0  0  0  0  0  0
    3.8689    1.8958   19.2218 H   0  0  0  0  0  0  0  0  0  0  0  0
  1  2  1  0
  2  3  2  0
  3  4  1  0
  4  5  1  0
  4  6  2  0
  6  7  1  0
  7  8  2  0
  8  9  1  0
  9 10  2  0
 10 11  1  0
 10 12  1  0
 12 13  1  0
 13 14  1  0
 13 15  1  0
 13 16  1  0
 16 17  2  0
 17 18  1  0
 17 19  1  0
 19 20  2  0
 20 21  1  0
 20 22  1  0
 22 23  2  0
 23 24  1  0
 23 25  1  0
 25 26  1  0
 25 27  2  0
 27 28  1  0
 27 29  1  0
 29 30  1  0
 29 31  2  0
  6 32  1  0
 32 33  1  0
 32 34  2  0
 34 35  1  0
 34  2  1  0
 12  7  1  0
 31 16  1  0
 31 22  1  0
M  END
>  <cnnaffinity>  (1) 
-5.53477

>  <filename>  (1) 
c1cncc(-c2nncn2Cc2cncc3ccccc23)c1

$$$$
