
     RDKit          3D

 29 31  0  0  0  0  0  0  0  0999 V2000
    4.9197    1.7797   16.9978 H   0  0  0  0  0  0  0  0  0  0  0  0
    5.4025    1.2904   17.8407 C   0  0  0  0  0  0  0  0  0  0  0  0
    6.5708    0.6736   17.5871 N   0  0  0  0  0  0  0  0  0  0  0  0
    7.1820    0.0532   18.5990 C   0  0  0  0  0  0  0  0  0  0  0  0
    8.1271   -0.4373   18.3769 H   0  0  0  0  0  0  0  0  0  0  0  0
    6.6569    0.0198   19.9079 C   0  0  0  0  0  0  0  0  0  0  0  0
    7.3616   -0.6448   20.9611 N   0  0  0  0  0  0  0  0  0  0  0  0
    8.1303   -1.7415   20.7288 N   0  0  0  0  0  0  0  0  0  0  0  0
    8.5983   -2.1203   21.8538 N   0  0  0  0  0  0  0  0  0  0  0  0
    8.1777   -1.3211   22.8701 N   0  0  0  0  0  0  0  0  0  0  0  0
    7.4272   -0.4170   22.2981 C   0  0  0  0  0  0  0  0  0  0  0  0
    6.7560    0.6281   22.8157 O   0  0  0  0  0  0  0  0  0  0  0  0
    6.8946    0.7900   24.2347 N   0  0  0  0  0  0  0  0  0  0  0  0
    6.7604    1.7911   24.3739 H   0  0  0  0  0  0  0  0  0  0  0  0
    5.7597    0.1032   24.8585 C   0  0  0  0  0  0  0  0  0  0  0  0
    4.7894    0.4958   24.5136 H   0  0  0  0  0  0  0  0  0  0  0  0
    5.8132   -0.9427   24.5336 H   0  0  0  0  0  0  0  0  0  0  0  0
    5.8625    0.1485   26.3638 C   0  0  0  0  0  0  0  0  0  0  0  0
    5.8314    1.1457   26.7987 H   0  0  0  0  0  0  0  0  0  0  0  0
    5.2361   -0.9592   27.1629 C   0  0  0  0  0  0  0  0  0  0  0  0
    4.7401   -1.7546   26.6135 H   0  0  0  0  0  0  0  0  0  0  0  0
    4.7722   -0.7273   28.1168 H   0  0  0  0  0  0  0  0  0  0  0  0
    6.7288   -0.8647   27.0598 C   0  0  0  0  0  0  0  0  0  0  0  0
    7.2478   -1.5840   26.4304 H   0  0  0  0  0  0  0  0  0  0  0  0
    7.2872   -0.5626   27.9404 H   0  0  0  0  0  0  0  0  0  0  0  0
    5.4368    0.6505   20.1691 C   0  0  0  0  0  0  0  0  0  0  0  0
    5.0128    0.6354   21.1728 H   0  0  0  0  0  0  0  0  0  0  0  0
    4.8068    1.3027   19.1062 C   0  0  0  0  0  0  0  0  0  0  0  0
    3.8776    1.8389   19.2599 H   0  0  0  0  0  0  0  0  0  0  0  0
  1  2  1  0
  2  3  2  0
  3  4  1  0
  4  5  1  0
  4  6  2  0
  6  7  1  0
  7  8  1  0
  8  9  2  0
  9 10  1  0
 10 11  2  0
 11 12  1  0
 12 13  1  0
 13 14  1  0
 13 15  1  0
 15 16  1  0
 15 17  1  0
 15 18  1  0
 18 19  1  0
 18 20  1  0
 20 21  1  0
 20 22  1  0
 20 23  1  0
 23 24  1  0
 23 25  1  0
  6 26  1  0
 26 27  1  0
 26 28  2  0
 28 29  1  0
 28  2  1  0
 11  7  1  0
 23 18  1  0
M  END
>  <cnnaffinity>  (1) 
-4.80323

>  <filename>  (1) 
c1cncc(-n2nnnc2ONCC2CC2)c1

$$$$
