
     RDKit          3D

 33 36  0  0  0  0  0  0  0  0999 V2000
    4.9375    1.8117   16.9767 H   0  0  0  0  0  0  0  0  0  0  0  0
    5.3958    1.2939   17.8178 C   0  0  0  0  0  0  0  0  0  0  0  0
    6.5638    0.6790   17.5754 N   0  0  0  0  0  0  0  0  0  0  0  0
    7.1634    0.0429   18.5925 C   0  0  0  0  0  0  0  0  0  0  0  0
    8.1208   -0.4197   18.3546 H   0  0  0  0  0  0  0  0  0  0  0  0
    6.6378   -0.0320   19.9057 C   0  0  0  0  0  0  0  0  0  0  0  0
    7.2785   -0.7348   20.9595 N   0  0  0  0  0  0  0  0  0  0  0  0
    7.4795   -0.3443   22.2829 C   0  0  0  0  0  0  0  0  0  0  0  0
    7.4081    1.0925   22.7115 C   0  0  0  0  0  0  0  0  0  0  0  0
    7.4144    2.1676   21.9544 N   0  0  0  0  0  0  0  0  0  0  0  0
    7.3417    3.2222   22.8348 C   0  0  0  0  0  0  0  0  0  0  0  0
    7.2874    4.5972   22.5545 C   0  0  0  0  0  0  0  0  0  0  0  0
    7.2914    4.9094   21.5125 H   0  0  0  0  0  0  0  0  0  0  0  0
    7.2196    5.4795   23.6261 C   0  0  0  0  0  0  0  0  0  0  0  0
    7.1794    6.5446   23.4218 H   0  0  0  0  0  0  0  0  0  0  0  0
    7.2015    5.0075   24.9625 C   0  0  0  0  0  0  0  0  0  0  0  0
    7.1515    5.7297   25.7729 H   0  0  0  0  0  0  0  0  0  0  0  0
    7.2436    3.6445   25.2549 C   0  0  0  0  0  0  0  0  0  0  0  0
    7.2290    3.2823   26.2795 H   0  0  0  0  0  0  0  0  0  0  0  0
    7.3063    2.7582   24.1693 C   0  0  0  0  0  0  0  0  0  0  0  0
    7.3441    1.3863   24.0514 N   0  0  0  0  0  0  0  0  0  0  0  0
    7.3926    0.6770   24.7671 H   0  0  0  0  0  0  0  0  0  0  0  0
    7.7837   -1.2939   23.0951 N   0  0  0  0  0  0  0  0  0  0  0  0
    7.8854   -2.5371   22.3217 C   0  0  0  0  0  0  0  0  0  0  0  0
    8.8867   -2.9814   22.4489 H   0  0  0  0  0  0  0  0  0  0  0  0
    7.1537   -3.2807   22.6814 H   0  0  0  0  0  0  0  0  0  0  0  0
    7.6510   -2.1349   20.8477 C   0  0  0  0  0  0  0  0  0  0  0  0
    6.8536   -2.6959   20.3416 H   0  0  0  0  0  0  0  0  0  0  0  0
    8.5794   -2.2114   20.2718 H   0  0  0  0  0  0  0  0  0  0  0  0
    5.4104    0.6068   20.1308 C   0  0  0  0  0  0  0  0  0  0  0  0
    5.0102    0.6169   21.1426 H   0  0  0  0  0  0  0  0  0  0  0  0
    4.7927    1.2860   19.0778 C   0  0  0  0  0  0  0  0  0  0  0  0
    3.8754    1.8340   19.2407 H   0  0  0  0  0  0  0  0  0  0  0  0
  1  2  1  0
  2  3  2  0
  3  4  1  0
  4  5  1  0
  4  6  2  0
  6  7  1  0
  7  8  1  0
  8  9  1  0
  9 10  2  0
 10 11  1  0
 11 12  2  0
 12 13  1  0
 12 14  1  0
 14 15  1  0
 14 16  2  0
 16 17  1  0
 16 18  1  0
 18 19  1  0
 18 20  2  0
 20 21  1  0
 21 22  1  0
  8 23  2  0
 23 24  1  0
 24 25  1  0
 24 26  1  0
 24 27  1  0
 27 28  1  0
 27 29  1  0
  6 30  1  0
 30 31  1  0
 30 32  2  0
 32 33  1  0
 32  2  1  0
 27  7  1  0
 21  9  1  0
 20 11  1  0
M  END
>  <cnnaffinity>  (1) 
-4.88121

>  <filename>  (1) 
c1cncc(N2CCN=C2c2nc3ccccc3[nH]2)c1

$$$$
