
     RDKit          3D

 35 38  0  0  0  0  0  0  0  0999 V2000
    4.8375    1.3046   19.1225 C   0  0  0  0  0  0  0  0  0  0  0  0
    5.4248    1.2994   17.8528 C   0  0  0  0  0  0  0  0  0  0  0  0
    6.5856    0.6802   17.5849 N   0  0  0  0  0  0  0  0  0  0  0  0
    7.2113    0.0636   18.5967 C   0  0  0  0  0  0  0  0  0  0  0  0
    6.7105    0.0266   19.9121 C   0  0  0  0  0  0  0  0  0  0  0  0
    7.3947   -0.6566   20.9660 N   0  0  0  0  0  0  0  0  0  0  0  0
    6.7327   -1.5898   21.7093 N   0  0  0  0  0  0  0  0  0  0  0  0
    7.6601   -2.0088   22.5458 C   0  0  0  0  0  0  0  0  0  0  0  0
    7.4413   -2.9989   23.6319 C   0  0  0  0  0  0  0  0  0  0  0  0
    6.9159   -4.3631   23.1278 C   0  0  0  0  0  0  0  0  0  0  0  0
    5.3815   -4.1953   24.0962 S   0  0  0  0  0  0  0  0  0  0  0  0
    6.2616   -2.6744   24.5863 C   0  0  0  0  0  0  0  0  0  0  0  0
    6.5293   -2.6627   25.6469 H   0  0  0  0  0  0  0  0  0  0  0  0
    5.7126   -1.7588   24.3461 H   0  0  0  0  0  0  0  0  0  0  0  0
    7.5277   -5.2181   23.4285 H   0  0  0  0  0  0  0  0  0  0  0  0
    6.7368   -4.4007   22.0486 H   0  0  0  0  0  0  0  0  0  0  0  0
    8.3923   -3.0733   24.1622 H   0  0  0  0  0  0  0  0  0  0  0  0
    8.8753   -1.4351   22.3977 N   0  0  0  0  0  0  0  0  0  0  0  0
    8.6741   -0.5692   21.4297 C   0  0  0  0  0  0  0  0  0  0  0  0
    9.6126    0.5434   21.1020 C   0  0  0  0  0  0  0  0  0  0  0  0
    9.1769    1.8184   21.7811 C   0  0  0  0  0  0  0  0  0  0  0  0
    9.1145    2.2966   23.0735 C   0  0  0  0  0  0  0  0  0  0  0  0
    8.4427    3.4946   23.1092 N   0  0  0  0  0  0  0  0  0  0  0  0
    8.0883    3.7411   21.8761 C   0  0  0  0  0  0  0  0  0  0  0  0
    8.4965    2.7420   21.0474 N   0  0  0  0  0  0  0  0  0  0  0  0
    8.2681    2.6887   20.0722 H   0  0  0  0  0  0  0  0  0  0  0  0
    7.5654    4.6120   21.5040 H   0  0  0  0  0  0  0  0  0  0  0  0
    9.4791    1.8518   23.9928 H   0  0  0  0  0  0  0  0  0  0  0  0
    9.6069    0.7006   20.0226 H   0  0  0  0  0  0  0  0  0  0  0  0
   10.6133    0.2342   21.4101 H   0  0  0  0  0  0  0  0  0  0  0  0
    5.4830    0.6481   20.1735 C   0  0  0  0  0  0  0  0  0  0  0  0
    5.0562    0.5930   21.1759 H   0  0  0  0  0  0  0  0  0  0  0  0
    8.1382   -0.4563   18.3444 H   0  0  0  0  0  0  0  0  0  0  0  0
    4.9437    1.8074   17.0211 H   0  0  0  0  0  0  0  0  0  0  0  0
    3.8914    1.8121   19.2789 H   0  0  0  0  0  0  0  0  0  0  0  0
  1  2  2  0
  2  3  1  0
  3  4  2  0
  4  5  1  0
  5  6  1  0
  6  7  1  0
  7  8  2  0
  8  9  1  0
  9 10  1  0
 10 11  1  0
 11 12  1  0
 12 13  1  0
 12 14  1  0
 10 15  1  0
 10 16  1  0
  9 17  1  0
  8 18  1  0
 18 19  2  0
 19 20  1  0
 20 21  1  0
 21 22  2  0
 22 23  1  0
 23 24  2  0
 24 25  1  0
 25 26  1  0
 24 27  1  0
 22 28  1  0
 20 29  1  0
 20 30  1  0
  5 31  2  0
 31 32  1  0
  4 33  1  0
  2 34  1  0
  1 35  1  0
 31  1  1  0
 19  6  1  0
 25 21  1  0
 12  9  1  0
M  END
>  <cnnaffinity>  (1) 
-5.65349

>  <filename>  (1) 
c1cncc(-n2nc(C3CSC3)nc2Cc2cnc[nH]2)c1

$$$$
