
     RDKit          3D

 43 46  0  0  0  0  0  0  0  0999 V2000
    4.8359    1.2950   19.0837 C   0  0  0  0  0  0  0  0  0  0  0  0
    5.4385    1.2718   17.8186 C   0  0  0  0  0  0  0  0  0  0  0  0
    6.6016    0.6504   17.5819 N   0  0  0  0  0  0  0  0  0  0  0  0
    7.2163    0.0607   18.6189 C   0  0  0  0  0  0  0  0  0  0  0  0
    6.7161    0.0746   19.9375 C   0  0  0  0  0  0  0  0  0  0  0  0
    7.3324   -0.4320   21.0386 O   0  0  0  0  0  0  0  0  0  0  0  0
    8.4989   -1.2293   20.8726 C   0  0  0  0  0  0  0  0  0  0  0  0
    8.8069   -1.8817   22.2021 C   0  0  0  0  0  0  0  0  0  0  0  0
    7.7474   -2.8239   22.6699 C   0  0  0  0  0  0  0  0  0  0  0  0
    7.0724   -3.6606   21.9036 N   0  0  0  0  0  0  0  0  0  0  0  0
    6.2419   -4.2797   22.7783 C   0  0  0  0  0  0  0  0  0  0  0  0
    5.1937   -5.2598   22.3679 C   0  0  0  0  0  0  0  0  0  0  0  0
    5.1530   -6.5941   23.1784 C   0  0  0  0  0  0  0  0  0  0  0  0
    3.7311   -6.2500   23.6770 C   0  0  0  0  0  0  0  0  0  0  0  0
    3.7410   -4.9392   22.8582 C   0  0  0  0  0  0  0  0  0  0  0  0
    3.6708   -4.0239   23.4618 H   0  0  0  0  0  0  0  0  0  0  0  0
    2.9965   -4.8976   22.0585 H   0  0  0  0  0  0  0  0  0  0  0  0
    2.9434   -6.9645   23.4100 H   0  0  0  0  0  0  0  0  0  0  0  0
    3.6945   -6.0806   24.7574 H   0  0  0  0  0  0  0  0  0  0  0  0
    5.2344   -7.4931   22.5626 H   0  0  0  0  0  0  0  0  0  0  0  0
    5.9019   -6.6410   23.9759 H   0  0  0  0  0  0  0  0  0  0  0  0
    5.2878   -5.3846   21.2852 H   0  0  0  0  0  0  0  0  0  0  0  0
    6.3850   -3.9051   24.0349 N   0  0  0  0  0  0  0  0  0  0  0  0
    7.3754   -2.9847   23.9779 N   0  0  0  0  0  0  0  0  0  0  0  0
    7.7723   -2.3339   25.1714 C   0  0  0  0  0  0  0  0  0  0  0  0
    6.8203   -2.0339   26.1549 C   0  0  0  0  0  0  0  0  0  0  0  0
    7.2448   -1.3471   27.2952 C   0  0  0  0  0  0  0  0  0  0  0  0
    8.5970   -1.0029   27.4208 C   0  0  0  0  0  0  0  0  0  0  0  0
    9.5133   -1.3446   26.5114 N   0  0  0  0  0  0  0  0  0  0  0  0
    9.1124   -2.0041   25.4211 C   0  0  0  0  0  0  0  0  0  0  0  0
    9.8873   -2.2616   24.7010 H   0  0  0  0  0  0  0  0  0  0  0  0
    8.9643   -0.4327   28.2740 H   0  0  0  0  0  0  0  0  0  0  0  0
    6.5518   -1.1011   28.0926 H   0  0  0  0  0  0  0  0  0  0  0  0
    5.7827   -2.3414   26.0094 H   0  0  0  0  0  0  0  0  0  0  0  0
    8.9608   -1.0825   22.9315 H   0  0  0  0  0  0  0  0  0  0  0  0
    9.7400   -2.4478   22.1020 H   0  0  0  0  0  0  0  0  0  0  0  0
    8.3187   -1.9794   20.1047 H   0  0  0  0  0  0  0  0  0  0  0  0
    9.3425   -0.5978   20.5666 H   0  0  0  0  0  0  0  0  0  0  0  0
    5.4733    0.6850   20.1620 C   0  0  0  0  0  0  0  0  0  0  0  0
    5.0622    0.6626   21.1699 H   0  0  0  0  0  0  0  0  0  0  0  0
    8.1512   -0.4450   18.3857 H   0  0  0  0  0  0  0  0  0  0  0  0
    4.9702    1.7684   16.9717 H   0  0  0  0  0  0  0  0  0  0  0  0
    3.8870    1.8002   19.2184 H   0  0  0  0  0  0  0  0  0  0  0  0
  1  2  2  0
  2  3  1  0
  3  4  2  0
  4  5  1  0
  5  6  1  0
  6  7  1  0
  7  8  1  0
  8  9  1  0
  9 10  2  0
 10 11  1  0
 11 12  1  0
 12 13  1  0
 13 14  1  0
 14 15  1  0
 15 16  1  0
 15 17  1  0
 14 18  1  0
 14 19  1  0
 13 20  1  0
 13 21  1  0
 12 22  1  0
 11 23  2  0
 23 24  1  0
 24 25  1  0
 25 26  2  0
 26 27  1  0
 27 28  2  0
 28 29  1  0
 29 30  2  0
 30 31  1  0
 28 32  1  0
 27 33  1  0
 26 34  1  0
  8 35  1  0
  8 36  1  0
  7 37  1  0
  7 38  1  0
  5 39  2  0
 39 40  1  0
  4 41  1  0
  2 42  1  0
  1 43  1  0
 39  1  1  0
 24  9  1  0
 30 25  1  0
 15 12  1  0
M  END
>  <cnnaffinity>  (1) 
-5.97486

>  <filename>  (1) 
c1cncc(OCCc2nc(C3CCC3)nn2-c2cccnc2)c1

$$$$
