
     RDKit          3D

 49 52  0  0  0  0  0  0  0  0999 V2000
    4.7987    1.3145   19.0932 C   0  0  0  0  0  0  0  0  0  0  0  0
    5.3946    1.3016   17.8267 C   0  0  0  0  0  0  0  0  0  0  0  0
    6.5582    0.6883   17.5606 N   0  0  0  0  0  0  0  0  0  0  0  0
    7.1560    0.0613   18.5833 C   0  0  0  0  0  0  0  0  0  0  0  0
    6.6409   -0.0112   19.8878 C   0  0  0  0  0  0  0  0  0  0  0  0
    7.4064   -0.6751   20.9981 C   0  0  0  0  0  0  0  0  0  0  0  0
    8.3214    0.3246   21.7237 C   0  0  0  0  0  0  0  0  0  0  0  0
    9.1051   -0.3272   22.8752 C   0  0  0  0  0  0  0  0  0  0  0  0
    8.2092   -0.8827   23.9280 C   0  0  0  0  0  0  0  0  0  0  0  0
    7.9572   -2.1648   24.1264 N   0  0  0  0  0  0  0  0  0  0  0  0
    6.9596   -2.1422   25.0456 C   0  0  0  0  0  0  0  0  0  0  0  0
    6.3084   -3.3951   25.5663 C   0  0  0  0  0  0  0  0  0  0  0  0
    6.4985   -3.5680   27.0984 C   0  0  0  0  0  0  0  0  0  0  0  0
    5.4641   -4.5456   27.7004 C   0  0  0  0  0  0  0  0  0  0  0  0
    4.9298   -5.4164   26.7248 O   0  0  0  0  0  0  0  0  0  0  0  0
    4.1275   -4.7304   25.7802 C   0  0  0  0  0  0  0  0  0  0  0  0
    4.8051   -3.4636   25.1990 C   0  0  0  0  0  0  0  0  0  0  0  0
    4.3129   -2.5621   25.5837 H   0  0  0  0  0  0  0  0  0  0  0  0
    4.6768   -3.4423   24.1112 H   0  0  0  0  0  0  0  0  0  0  0  0
    3.9192   -5.4695   25.0023 H   0  0  0  0  0  0  0  0  0  0  0  0
    3.1672   -4.4559   26.2504 H   0  0  0  0  0  0  0  0  0  0  0  0
    5.9113   -5.1793   28.4701 H   0  0  0  0  0  0  0  0  0  0  0  0
    4.6445   -3.9795   28.1750 H   0  0  0  0  0  0  0  0  0  0  0  0
    6.4005   -2.5953   27.5925 H   0  0  0  0  0  0  0  0  0  0  0  0
    7.5149   -3.9287   27.2960 H   0  0  0  0  0  0  0  0  0  0  0  0
    6.8170   -4.2229   25.0661 H   0  0  0  0  0  0  0  0  0  0  0  0
    6.5740   -0.9320   25.4201 N   0  0  0  0  0  0  0  0  0  0  0  0
    7.3996   -0.1172   24.7156 N   0  0  0  0  0  0  0  0  0  0  0  0
    7.3084    1.2974   24.8404 C   0  0  0  0  0  0  0  0  0  0  0  0
    8.4473    2.0839   25.0561 C   0  0  0  0  0  0  0  0  0  0  0  0
    8.2843    3.4688   25.1281 C   0  0  0  0  0  0  0  0  0  0  0  0
    7.0069    4.0157   24.9837 C   0  0  0  0  0  0  0  0  0  0  0  0
    5.9117    3.2705   24.7886 N   0  0  0  0  0  0  0  0  0  0  0  0
    6.0634    1.9443   24.7305 C   0  0  0  0  0  0  0  0  0  0  0  0
    5.1501    1.3814   24.5710 H   0  0  0  0  0  0  0  0  0  0  0  0
    6.8494    5.0909   25.0338 H   0  0  0  0  0  0  0  0  0  0  0  0
    9.1353    4.1162   25.2892 H   0  0  0  0  0  0  0  0  0  0  0  0
    9.4254    1.6172   25.1837 H   0  0  0  0  0  0  0  0  0  0  0  0
    9.7004   -1.1638   22.4987 H   0  0  0  0  0  0  0  0  0  0  0  0
    9.8006    0.3911   23.3175 H   0  0  0  0  0  0  0  0  0  0  0  0
    9.0233    0.7583   21.0028 H   0  0  0  0  0  0  0  0  0  0  0  0
    7.7223    1.1625   22.1054 H   0  0  0  0  0  0  0  0  0  0  0  0
    8.0122   -1.5033   20.6050 H   0  0  0  0  0  0  0  0  0  0  0  0
    6.7073   -1.1280   21.7154 H   0  0  0  0  0  0  0  0  0  0  0  0
    5.4312    0.6469   20.1425 C   0  0  0  0  0  0  0  0  0  0  0  0
    5.0103    0.6376   21.1541 H   0  0  0  0  0  0  0  0  0  0  0  0
    8.1074   -0.4162   18.3522 H   0  0  0  0  0  0  0  0  0  0  0  0
    4.9168    1.7939   16.9838 H   0  0  0  0  0  0  0  0  0  0  0  0
    3.8695    1.8480   19.2480 H   0  0  0  0  0  0  0  0  0  0  0  0
  1  2  2  0
  2  3  1  0
  3  4  2  0
  4  5  1  0
  5  6  1  0
  6  7  1  0
  7  8  1  0
  8  9  1  0
  9 10  2  0
 10 11  1  0
 11 12  1  0
 12 13  1  0
 13 14  1  0
 14 15  1  0
 15 16  1  0
 16 17  1  0
 17 18  1  0
 17 19  1  0
 16 20  1  0
 16 21  1  0
 14 22  1  0
 14 23  1  0
 13 24  1  0
 13 25  1  0
 12 26  1  0
 11 27  2  0
 27 28  1  0
 28 29  1  0
 29 30  2  0
 30 31  1  0
 31 32  2  0
 32 33  1  0
 33 34  2  0
 34 35  1  0
 32 36  1  0
 31 37  1  0
 30 38  1  0
  8 39  1  0
  8 40  1  0
  7 41  1  0
  7 42  1  0
  6 43  1  0
  6 44  1  0
  5 45  2  0
 45 46  1  0
  4 47  1  0
  2 48  1  0
  1 49  1  0
 45  1  1  0
 28  9  1  0
 34 29  1  0
 17 12  1  0
M  END
>  <cnnaffinity>  (1) 
-5.66975

>  <filename>  (1) 
c1cncc(CCCc2nc(C3CCOCC3)nn2-c2cccnc2)c1

$$$$
