
     RDKit          3D

 43 46  0  0  0  0  0  0  0  0999 V2000
    5.3956    1.5798   16.8404 H   0  0  0  0  0  0  0  0  0  0  0  0
    5.7850    1.1627   17.7671 C   0  0  0  0  0  0  0  0  0  0  0  0
    6.8139    0.3108   17.6502 N   0  0  0  0  0  0  0  0  0  0  0  0
    7.3149   -0.2074   18.7784 C   0  0  0  0  0  0  0  0  0  0  0  0
    8.1487   -0.8996   18.6558 H   0  0  0  0  0  0  0  0  0  0  0  0
    6.8403    0.1013   20.0662 C   0  0  0  0  0  0  0  0  0  0  0  0
    7.4534   -0.5355   21.2435 C   0  0  0  0  0  0  0  0  0  0  0  0
    6.7113   -1.2650   22.0813 N   0  0  0  0  0  0  0  0  0  0  0  0
    7.6018   -1.7238   22.9639 N   0  0  0  0  0  0  0  0  0  0  0  0
    8.8686   -1.3509   22.7377 C   0  0  0  0  0  0  0  0  0  0  0  0
    8.8236   -0.5486   21.6093 C   0  0  0  0  0  0  0  0  0  0  0  0
    9.9954    0.1880   21.0107 C   0  0  0  0  0  0  0  0  0  0  0  0
    9.6328    0.6875   20.0848 H   0  0  0  0  0  0  0  0  0  0  0  0
   10.7238   -0.5705   20.6535 H   0  0  0  0  0  0  0  0  0  0  0  0
   10.5615    1.0454   21.9711 N   0  0  0  0  0  0  0  0  0  0  0  0
   11.4395    1.9975   21.4380 C   0  0  0  0  0  0  0  0  0  0  0  0
   11.1750    2.3526   20.4204 H   0  0  0  0  0  0  0  0  0  0  0  0
   12.4782    1.6259   21.3720 H   0  0  0  0  0  0  0  0  0  0  0  0
   11.4290    3.3247   22.3186 C   0  0  0  0  0  0  0  0  0  0  0  0
   12.2760    3.2715   23.0355 H   0  0  0  0  0  0  0  0  0  0  0  0
   10.2087    2.7003   23.9505 H   0  0  0  0  0  0  0  0  0  0  0  0
   10.1114    3.4546   23.1121 C   0  0  0  0  0  0  0  0  0  0  0  0
   10.1447    4.5156   23.5529 H   0  0  0  0  0  0  0  0  0  0  0  0
   11.5129    4.2351   21.6751 H   0  0  0  0  0  0  0  0  0  0  0  0
    8.7313    3.1963   22.0096 C   0  0  0  0  0  0  0  0  0  0  0  0
    8.5377    4.5998   21.5845 H   0  0  0  0  0  0  0  0  0  0  0  0
    9.3969    2.9682   21.0258 H   0  0  0  0  0  0  0  0  0  0  0  0
    8.8188    2.9104   22.1275 C   0  0  0  0  0  0  0  0  0  0  0  0
    7.9198    3.2120   22.9346 H   0  0  0  0  0  0  0  0  0  0  0  0
    7.7786    2.5750   21.4816 H   0  0  0  0  0  0  0  0  0  0  0  0
    9.7884   -2.0197   23.7222 C   0  0  0  0  0  0  0  0  0  0  0  0
   10.4104   -2.7650   23.2143 H   0  0  0  0  0  0  0  0  0  0  0  0
   10.4709   -1.3124   24.1992 H   0  0  0  0  0  0  0  0  0  0  0  0
    8.7967   -2.6664   24.7343 C   0  0  0  0  0  0  0  0  0  0  0  0
    8.7804   -2.0969   25.6655 H   0  0  0  0  0  0  0  0  0  0  0  0
    9.0761   -3.6911   24.9805 H   0  0  0  0  0  0  0  0  0  0  0  0
    7.3853   -2.6130   24.0795 C   0  0  0  0  0  0  0  0  0  0  0  0
    7.0385   -3.5842   23.7153 H   0  0  0  0  0  0  0  0  0  0  0  0
    6.6196   -2.2006   24.7410 H   0  0  0  0  0  0  0  0  0  0  0  0
    5.7406    0.9657   20.1643 C   0  0  0  0  0  0  0  0  0  0  0  0
    5.3021    1.1864   21.1412 H   0  0  0  0  0  0  0  0  0  0  0  0
    5.2116    1.5119   18.9935 C   0  0  0  0  0  0  0  0  0  0  0  0
    4.3794    2.2060   19.0245 H   0  0  0  0  0  0  0  0  0  0  0  0
  1  2  1  0
  2  3  2  0
  3  4  1  0
  4  5  1  0
  4  6  2  0
  6  7  1  0
  7  8  2  0
  8  9  1  0
  9 10  1  0
 10 11  2  0
 11 12  1  0
 12 13  1  0
 12 14  1  0
 12 15  1  0
 15 16  1  0
 16 17  1  0
 16 18  1  0
 16 19  1  0
 19 20  1  0
 19 21  1  0
 19 22  1  0
 22 23  1  0
 22 24  1  0
 22 25  1  0
 25 26  1  0
 25 27  1  0
 25 28  1  0
 28 29  1  0
 28 30  1  0
 10 31  1  0
 31 32  1  0
 31 33  1  0
 31 34  1  0
 34 35  1  0
 34 36  1  0
 34 37  1  0
 37 38  1  0
 37 39  1  0
  6 40  1  0
 40 41  1  0
 40 42  2  0
 42 43  1  0
 42  2  1  0
 11  7  1  0
 28 15  1  0
 37  9  1  0
M  END
>  <cnnaffinity>  (1) 
-5.69583

>  <filename>  (1) 
c1cncc(-c2nn3c(c2CN2CCCCC2)CCC3)c1

$$$$
