
     RDKit          3D

 38 41  0  0  0  0  0  0  0  0999 V2000
    4.9255    1.7851   16.9955 H   0  0  0  0  0  0  0  0  0  0  0  0
    5.4067    1.2963   17.8383 C   0  0  0  0  0  0  0  0  0  0  0  0
    6.5685    0.6808   17.5747 N   0  0  0  0  0  0  0  0  0  0  0  0
    7.1699    0.0477   18.5884 C   0  0  0  0  0  0  0  0  0  0  0  0
    8.1183   -0.4358   18.3657 H   0  0  0  0  0  0  0  0  0  0  0  0
    6.6491   -0.0062   19.8875 C   0  0  0  0  0  0  0  0  0  0  0  0
    7.3621   -0.7449   20.9306 C   0  0  0  0  0  0  0  0  0  0  0  0
    7.6769   -2.0339   20.7926 N   0  0  0  0  0  0  0  0  0  0  0  0
    8.1596   -2.3599   22.0009 N   0  0  0  0  0  0  0  0  0  0  0  0
    8.1791   -1.3491   22.8709 C   0  0  0  0  0  0  0  0  0  0  0  0
    7.6825   -0.2438   22.2276 C   0  0  0  0  0  0  0  0  0  0  0  0
    7.4613    1.1181   22.8103 C   0  0  0  0  0  0  0  0  0  0  0  0
    6.3917    1.2105   23.0518 H   0  0  0  0  0  0  0  0  0  0  0  0
    7.8417    2.2864   21.8795 C   0  0  0  0  0  0  0  0  0  0  0  0
    8.6431    1.9657   21.2092 H   0  0  0  0  0  0  0  0  0  0  0  0
    7.0078    2.5679   21.2320 H   0  0  0  0  0  0  0  0  0  0  0  0
    8.3103    3.4486   22.7874 C   0  0  0  0  0  0  0  0  0  0  0  0
    7.6629    4.3243   22.6874 H   0  0  0  0  0  0  0  0  0  0  0  0
    9.3141    3.7746   22.4971 H   0  0  0  0  0  0  0  0  0  0  0  0
    8.2942    2.9132   24.2372 C   0  0  0  0  0  0  0  0  0  0  0  0
    7.4117    3.2800   24.7743 H   0  0  0  0  0  0  0  0  0  0  0  0
    9.1646    3.2423   24.8144 H   0  0  0  0  0  0  0  0  0  0  0  0
    8.2391    1.3902   24.1081 C   0  0  0  0  0  0  0  0  0  0  0  0
    9.2495    0.9801   24.0115 H   0  0  0  0  0  0  0  0  0  0  0  0
    7.7847    0.9083   24.9809 H   0  0  0  0  0  0  0  0  0  0  0  0
    8.4674   -1.8306   24.2485 C   0  0  0  0  0  0  0  0  0  0  0  0
    7.6228   -1.5755   24.8920 H   0  0  0  0  0  0  0  0  0  0  0  0
    9.3478   -1.3452   24.6709 H   0  0  0  0  0  0  0  0  0  0  0  0
    8.6336   -3.3591   24.0755 C   0  0  0  0  0  0  0  0  0  0  0  0
    9.6458   -3.6694   24.3351 H   0  0  0  0  0  0  0  0  0  0  0  0
    7.9427   -3.9082   24.7099 H   0  0  0  0  0  0  0  0  0  0  0  0
    8.3381   -3.6707   22.5843 C   0  0  0  0  0  0  0  0  0  0  0  0
    7.4432   -4.2721   22.4211 H   0  0  0  0  0  0  0  0  0  0  0  0
    9.1571   -4.1861   22.1190 H   0  0  0  0  0  0  0  0  0  0  0  0
    5.4358    0.6496   20.1512 C   0  0  0  0  0  0  0  0  0  0  0  0
    4.9988    0.6395   21.1558 H   0  0  0  0  0  0  0  0  0  0  0  0
    4.8060    1.3158   19.1025 C   0  0  0  0  0  0  0  0  0  0  0  0
    3.8759    1.8422   19.2565 H   0  0  0  0  0  0  0  0  0  0  0  0
  1  2  1  0
  2  3  2  0
  3  4  1  0
  4  5  1  0
  4  6  2  0
  6  7  1  0
  7  8  2  0
  8  9  1  0
  9 10  1  0
 10 11  2  0
 11 12  1  0
 12 13  1  0
 12 14  1  0
 14 15  1  0
 14 16  1  0
 14 17  1  0
 17 18  1  0
 17 19  1  0
 17 20  1  0
 20 21  1  0
 20 22  1  0
 20 23  1  0
 23 24  1  0
 23 25  1  0
 10 26  1  0
 26 27  1  0
 26 28  1  0
 26 29  1  0
 29 30  1  0
 29 31  1  0
 29 32  1  0
 32 33  1  0
 32 34  1  0
  6 35  1  0
 35 36  1  0
 35 37  2  0
 37 38  1  0
 37  2  1  0
 11  7  1  0
 23 12  1  0
 32  9  1  0
M  END
>  <cnnaffinity>  (1) 
-5.46521

>  <filename>  (1) 
c1cncc(-c2nn3c(c2C2CCCC2)CCC3)c1

$$$$
