
     RDKit          3D

 33 34  0  0  0  0  0  0  0  0999 V2000
    4.9334    1.8322   16.9928 H   0  0  0  0  0  0  0  0  0  0  0  0
    5.4077    1.2981   17.8106 C   0  0  0  0  0  0  0  0  0  0  0  0
    6.5642    0.6710   17.5298 N   0  0  0  0  0  0  0  0  0  0  0  0
    7.1918    0.0376   18.5322 C   0  0  0  0  0  0  0  0  0  0  0  0
    8.1337   -0.4479   18.2694 H   0  0  0  0  0  0  0  0  0  0  0  0
    6.7039   -0.0281   19.8575 C   0  0  0  0  0  0  0  0  0  0  0  0
    7.3850   -0.7640   20.8722 N   0  0  0  0  0  0  0  0  0  0  0  0
    8.3934   -0.6331   20.9320 H   0  0  0  0  0  0  0  0  0  0  0  0
    6.8090   -0.7174   22.1568 N   0  0  0  0  0  0  0  0  0  0  0  0
    6.7238   -1.6828   22.5016 H   0  0  0  0  0  0  0  0  0  0  0  0
    7.6870    0.0437   23.0121 N   0  0  0  0  0  0  0  0  0  0  0  0
    7.8740    0.9010   22.4808 H   0  0  0  0  0  0  0  0  0  0  0  0
    7.0295    0.4568   24.2816 C   0  0  0  0  0  0  0  0  0  0  0  0
    5.9868    0.7494   24.0694 H   0  0  0  0  0  0  0  0  0  0  0  0
    7.7304    1.6732   24.9185 C   0  0  0  0  0  0  0  0  0  0  0  0
    8.7941    1.4404   25.0667 H   0  0  0  0  0  0  0  0  0  0  0  0
    7.6908    2.5250   24.2279 H   0  0  0  0  0  0  0  0  0  0  0  0
    7.0894    2.0530   26.2736 C   0  0  0  0  0  0  0  0  0  0  0  0
    7.6128    2.8997   26.7336 H   0  0  0  0  0  0  0  0  0  0  0  0
    6.0628    2.4054   26.0993 H   0  0  0  0  0  0  0  0  0  0  0  0
    7.0566    0.8583   27.2425 C   0  0  0  0  0  0  0  0  0  0  0  0
    6.5702    1.1299   28.1873 H   0  0  0  0  0  0  0  0  0  0  0  0
    8.0870    0.5868   27.5091 H   0  0  0  0  0  0  0  0  0  0  0  0
    6.3715   -0.3606   26.6082 C   0  0  0  0  0  0  0  0  0  0  0  0
    5.3073   -0.1423   26.4459 H   0  0  0  0  0  0  0  0  0  0  0  0
    6.3968   -1.2207   27.2858 H   0  0  0  0  0  0  0  0  0  0  0  0
    7.0177   -0.7245   25.2652 C   0  0  0  0  0  0  0  0  0  0  0  0
    6.4927   -1.5576   24.7823 H   0  0  0  0  0  0  0  0  0  0  0  0
    8.0561   -1.0478   25.4177 H   0  0  0  0  0  0  0  0  0  0  0  0
    5.4775    0.6144   20.1110 C   0  0  0  0  0  0  0  0  0  0  0  0
    5.0754    0.5633   21.1188 H   0  0  0  0  0  0  0  0  0  0  0  0
    4.8204    1.2886   19.0798 C   0  0  0  0  0  0  0  0  0  0  0  0
    3.8829    1.8178   19.2533 H   0  0  0  0  0  0  0  0  0  0  0  0
  1  2  1  0
  2  3  2  0
  3  4  1  0
  4  5  1  0
  4  6  2  0
  6  7  1  0
  7  8  1  0
  7  9  1  0
  9 10  1  0
  9 11  1  0
 11 12  1  0
 11 13  1  0
 13 14  1  0
 13 15  1  0
 15 16  1  0
 15 17  1  0
 15 18  1  0
 18 19  1  0
 18 20  1  0
 18 21  1  0
 21 22  1  0
 21 23  1  0
 21 24  1  0
 24 25  1  0
 24 26  1  0
 24 27  1  0
 27 28  1  0
 27 29  1  0
  6 30  1  0
 30 31  1  0
 30 32  2  0
 32 33  1  0
 32  2  1  0
 27 13  1  0
M  END
>  <cnnaffinity>  (1) 
-4.36864

>  <filename>  (1) 
c1cncc(NNNC2CCCCC2)c1

$$$$
