
     RDKit          3D

 24 26  0  0  0  0  0  0  0  0999 V2000
    4.9216    1.7824   16.9941 H   0  0  0  0  0  0  0  0  0  0  0  0
    5.4046    1.2901   17.8390 C   0  0  0  0  0  0  0  0  0  0  0  0
    6.5703    0.6725   17.5848 N   0  0  0  0  0  0  0  0  0  0  0  0
    7.1787    0.0526   18.5982 C   0  0  0  0  0  0  0  0  0  0  0  0
    8.1253   -0.4357   18.3743 H   0  0  0  0  0  0  0  0  0  0  0  0
    6.6504    0.0232   19.9091 C   0  0  0  0  0  0  0  0  0  0  0  0
    7.3465   -0.6228   20.9847 N   0  0  0  0  0  0  0  0  0  0  0  0
    8.0979   -1.7314   20.7409 N   0  0  0  0  0  0  0  0  0  0  0  0
    8.5904   -2.1057   21.8577 N   0  0  0  0  0  0  0  0  0  0  0  0
    8.2137   -1.2886   22.8705 N   0  0  0  0  0  0  0  0  0  0  0  0
    7.4490   -0.3846   22.3162 C   0  0  0  0  0  0  0  0  0  0  0  0
    6.7956    0.6423   22.8961 O   0  0  0  0  0  0  0  0  0  0  0  0
    7.0900    1.0381   24.1893 C   0  0  0  0  0  0  0  0  0  0  0  0
    5.9438    2.0821   24.9257 S   0  0  0  0  0  0  0  0  0  0  0  0
    6.9272    2.1542   26.3619 C   0  0  0  0  0  0  0  0  0  0  0  0
    6.6334    2.7248   27.2362 H   0  0  0  0  0  0  0  0  0  0  0  0
    8.0683    1.4261   26.2315 C   0  0  0  0  0  0  0  0  0  0  0  0
    8.8249    1.3211   27.0075 H   0  0  0  0  0  0  0  0  0  0  0  0
    8.1743    0.7866   24.9626 C   0  0  0  0  0  0  0  0  0  0  0  0
    8.9896    0.1535   24.6258 H   0  0  0  0  0  0  0  0  0  0  0  0
    5.4320    0.6504   20.1688 C   0  0  0  0  0  0  0  0  0  0  0  0
    5.0088    0.6395   21.1752 H   0  0  0  0  0  0  0  0  0  0  0  0
    4.8062    1.3022   19.1029 C   0  0  0  0  0  0  0  0  0  0  0  0
    3.8774    1.8388   19.2589 H   0  0  0  0  0  0  0  0  0  0  0  0
  1  2  1  0
  2  3  2  0
  3  4  1  0
  4  5  1  0
  4  6  2  0
  6  7  1  0
  7  8  1  0
  8  9  2  0
  9 10  1  0
 10 11  2  0
 11 12  1  0
 12 13  1  0
 13 14  1  0
 14 15  1  0
 15 16  1  0
 15 17  2  0
 17 18  1  0
 17 19  1  0
 19 20  1  0
  6 21  1  0
 21 22  1  0
 21 23  2  0
 23 24  1  0
 23  2  1  0
 11  7  1  0
 19 13  2  0
M  END
>  <cnnaffinity>  (1) 
-4.73286

>  <filename>  (1) 
c1cncc(-n2nnnc2Oc2cccs2)c1

$$$$
