
     RDKit          3D

 39 42  0  0  0  0  0  0  0  0999 V2000
    4.9265    1.8600   16.9246 H   0  0  0  0  0  0  0  0  0  0  0  0
    5.4031    1.3389   17.7519 C   0  0  0  0  0  0  0  0  0  0  0  0
    6.5573    0.7133   17.4728 N   0  0  0  0  0  0  0  0  0  0  0  0
    7.1738    0.0745   18.4828 C   0  0  0  0  0  0  0  0  0  0  0  0
    8.0929   -0.4469   18.2280 H   0  0  0  0  0  0  0  0  0  0  0  0
    6.6940    0.0298   19.8170 C   0  0  0  0  0  0  0  0  0  0  0  0
    7.3499   -0.6438   20.8735 N   0  0  0  0  0  0  0  0  0  0  0  0
    6.8236   -0.5939   21.7401 H   0  0  0  0  0  0  0  0  0  0  0  0
    8.7663   -0.6568   21.0718 C   0  0  0  0  0  0  0  0  0  0  0  0
    9.6715    0.4046   20.8292 C   0  0  0  0  0  0  0  0  0  0  0  0
    9.4170    1.3772   20.4309 H   0  0  0  0  0  0  0  0  0  0  0  0
   10.9220    0.0959   21.1412 N   0  0  0  0  0  0  0  0  0  0  0  0
   10.8306   -1.1664   21.6017 N   0  0  0  0  0  0  0  0  0  0  0  0
   11.6688   -1.6992   21.7914 H   0  0  0  0  0  0  0  0  0  0  0  0
    9.5683   -1.6756   21.5957 C   0  0  0  0  0  0  0  0  0  0  0  0
    9.3106   -2.9647   22.0747 N   0  0  0  0  0  0  0  0  0  0  0  0
    9.8738   -3.2868   23.4048 C   0  0  0  0  0  0  0  0  0  0  0  0
   10.9323   -3.5746   23.3053 H   0  0  0  0  0  0  0  0  0  0  0  0
    9.8888   -2.3710   24.0108 H   0  0  0  0  0  0  0  0  0  0  0  0
    9.1296   -4.3527   24.1958 C   0  0  0  0  0  0  0  0  0  0  0  0
    9.4806   -4.5806   25.5331 C   0  0  0  0  0  0  0  0  0  0  0  0
   10.3676   -4.1031   25.9464 H   0  0  0  0  0  0  0  0  0  0  0  0
    8.7022   -5.4139   26.3456 C   0  0  0  0  0  0  0  0  0  0  0  0
    8.9796   -5.5620   27.3866 H   0  0  0  0  0  0  0  0  0  0  0  0
    7.5586   -6.0279   25.8168 C   0  0  0  0  0  0  0  0  0  0  0  0
    6.9222   -6.6547   26.4359 H   0  0  0  0  0  0  0  0  0  0  0  0
    7.2442   -5.8424   24.4633 C   0  0  0  0  0  0  0  0  0  0  0  0
    6.3500   -6.2901   24.0385 H   0  0  0  0  0  0  0  0  0  0  0  0
    8.0630   -5.0756   23.6313 C   0  0  0  0  0  0  0  0  0  0  0  0
    7.8381   -4.9210   22.1451 C   0  0  0  0  0  0  0  0  0  0  0  0
    6.8724   -5.3233   21.8295 H   0  0  0  0  0  0  0  0  0  0  0  0
    8.6092   -5.4669   21.5915 H   0  0  0  0  0  0  0  0  0  0  0  0
    7.9507   -3.4472   21.7902 C   0  0  0  0  0  0  0  0  0  0  0  0
    7.7397   -3.2663   20.7374 H   0  0  0  0  0  0  0  0  0  0  0  0
    7.2133   -2.8658   22.3623 H   0  0  0  0  0  0  0  0  0  0  0  0
    5.4614    0.6548   20.0674 C   0  0  0  0  0  0  0  0  0  0  0  0
    5.0256    0.6155   21.0692 H   0  0  0  0  0  0  0  0  0  0  0  0
    4.8136    1.3255   19.0239 C   0  0  0  0  0  0  0  0  0  0  0  0
    3.8688    1.8411   19.1822 H   0  0  0  0  0  0  0  0  0  0  0  0
  1  2  1  0
  2  3  2  0
  3  4  1  0
  4  5  1  0
  4  6  2  0
  6  7  1  0
  7  8  1  0
  7  9  1  0
  9 10  1  0
 10 11  1  0
 10 12  2  0
 12 13  1  0
 13 14  1  0
 13 15  1  0
 15 16  1  0
 16 17  1  0
 17 18  1  0
 17 19  1  0
 17 20  1  0
 20 21  2  0
 21 22  1  0
 21 23  1  0
 23 24  1  0
 23 25  2  0
 25 26  1  0
 25 27  1  0
 27 28  1  0
 27 29  2  0
 29 30  1  0
 30 31  1  0
 30 32  1  0
 30 33  1  0
 33 34  1  0
 33 35  1  0
  6 36  1  0
 36 37  1  0
 36 38  2  0
 38 39  1  0
 38  2  1  0
 15  9  2  0
 33 16  1  0
 29 20  1  0
M  END
>  <cnnaffinity>  (1) 
-5.96461

>  <filename>  (1) 
c1cncc(Nc2cn[nH]c2N2CCc3ccccc3C2)c1

$$$$
