
     RDKit          3D

 31 34  0  0  0  0  0  0  0  0999 V2000
    4.9998    1.8329   17.2572 H   0  0  0  0  0  0  0  0  0  0  0  0
    5.4876    1.1924   17.9922 C   0  0  0  0  0  0  0  0  0  0  0  0
    6.5925    0.5496   17.5828 N   0  0  0  0  0  0  0  0  0  0  0  0
    7.2435   -0.1959   18.4811 C   0  0  0  0  0  0  0  0  0  0  0  0
    8.1380   -0.6959   18.1093 H   0  0  0  0  0  0  0  0  0  0  0  0
    6.8357   -0.3513   19.8227 C   0  0  0  0  0  0  0  0  0  0  0  0
    7.7065   -1.0121   20.8018 C   0  0  0  0  0  0  0  0  0  0  0  0
    9.0541   -0.8686   21.0313 C   0  0  0  0  0  0  0  0  0  0  0  0
    9.7232   -0.2614   20.4298 H   0  0  0  0  0  0  0  0  0  0  0  0
    9.4784   -1.5259   22.1577 N   0  0  0  0  0  0  0  0  0  0  0  0
    8.3739   -2.0486   22.6276 C   0  0  0  0  0  0  0  0  0  0  0  0
    7.9045   -2.8936   24.0792 S   0  0  0  0  0  0  0  0  0  0  0  0
    6.2622   -2.7596   23.4917 C   0  0  0  0  0  0  0  0  0  0  0  0
    5.1409   -3.0943   24.1737 N   0  0  0  0  0  0  0  0  0  0  0  0
    4.4029   -2.4991   23.8289 H   0  0  0  0  0  0  0  0  0  0  0  0
    4.8922   -3.9008   25.2639 C   0  0  0  0  0  0  0  0  0  0  0  0
    4.0217   -3.4249   26.2425 C   0  0  0  0  0  0  0  0  0  0  0  0
    3.6245   -2.4199   26.1701 H   0  0  0  0  0  0  0  0  0  0  0  0
    3.6907   -4.2700   27.2933 C   0  0  0  0  0  0  0  0  0  0  0  0
    3.0162   -3.9277   28.0798 H   0  0  0  0  0  0  0  0  0  0  0  0
    4.1441   -5.5257   27.4117 N   0  0  0  0  0  0  0  0  0  0  0  0
    4.9844   -5.9572   26.4614 C   0  0  0  0  0  0  0  0  0  0  0  0
    5.3379   -6.9829   26.5742 H   0  0  0  0  0  0  0  0  0  0  0  0
    5.4018   -5.1907   25.3772 C   0  0  0  0  0  0  0  0  0  0  0  0
    6.0605   -5.5999   24.6229 H   0  0  0  0  0  0  0  0  0  0  0  0
    6.0701   -2.1755   22.3411 N   0  0  0  0  0  0  0  0  0  0  0  0
    7.2824   -1.7977   21.8581 N   0  0  0  0  0  0  0  0  0  0  0  0
    5.6230    0.2478   20.2004 C   0  0  0  0  0  0  0  0  0  0  0  0
    5.2318    0.0725   21.2005 H   0  0  0  0  0  0  0  0  0  0  0  0
    4.9610    1.0551   19.2789 C   0  0  0  0  0  0  0  0  0  0  0  0
    4.0609    1.5919   19.5484 H   0  0  0  0  0  0  0  0  0  0  0  0
  1  2  1  0
  2  3  2  0
  3  4  1  0
  4  5  1  0
  4  6  2  0
  6  7  1  0
  7  8  2  0
  8  9  1  0
  8 10  1  0
 10 11  2  0
 11 12  1  0
 12 13  1  0
 13 14  1  0
 14 15  1  0
 14 16  1  0
 16 17  2  0
 17 18  1  0
 17 19  1  0
 19 20  1  0
 19 21  2  0
 21 22  1  0
 22 23  1  0
 22 24  2  0
 24 25  1  0
 13 26  2  0
 26 27  1  0
  6 28  1  0
 28 29  1  0
 28 30  2  0
 30 31  1  0
 30  2  1  0
 27  7  1  0
 27 11  1  0
 24 16  1  0
M  END
>  <cnnaffinity>  (1) 
-5.08485

>  <filename>  (1) 
c1cncc(-c2cnc3sc(Nc4ccncc4)nn23)c1

$$$$
