
     RDKit          3D

 35 38  0  0  0  0  0  0  0  0999 V2000
    4.9173    1.7732   17.0047 H   0  0  0  0  0  0  0  0  0  0  0  0
    5.4067    1.2865   17.8480 C   0  0  0  0  0  0  0  0  0  0  0  0
    6.5688    0.6691   17.5888 N   0  0  0  0  0  0  0  0  0  0  0  0
    7.1881    0.0653   18.6078 C   0  0  0  0  0  0  0  0  0  0  0  0
    8.1293   -0.4260   18.3760 H   0  0  0  0  0  0  0  0  0  0  0  0
    6.6781    0.0139   19.9125 C   0  0  0  0  0  0  0  0  0  0  0  0
    7.4316   -0.7085   20.9616 C   0  0  0  0  0  0  0  0  0  0  0  0
    8.7718   -0.6873   20.8971 N   0  0  0  0  0  0  0  0  0  0  0  0
    9.4455   -1.3078   21.8762 C   0  0  0  0  0  0  0  0  0  0  0  0
   10.5270   -1.2767   21.8135 H   0  0  0  0  0  0  0  0  0  0  0  0
    8.8421   -2.0110   22.9196 C   0  0  0  0  0  0  0  0  0  0  0  0
    9.4364   -2.5020   23.6794 H   0  0  0  0  0  0  0  0  0  0  0  0
    7.4491   -2.0495   22.9774 C   0  0  0  0  0  0  0  0  0  0  0  0
    6.7533   -2.7854   24.0540 C   0  0  0  0  0  0  0  0  0  0  0  0
    6.9582   -4.1432   24.1928 C   0  0  0  0  0  0  0  0  0  0  0  0
    7.6443   -4.6547   23.5254 H   0  0  0  0  0  0  0  0  0  0  0  0
    6.3321   -4.9350   25.1053 N   0  0  0  0  0  0  0  0  0  0  0  0
    5.4846   -4.3478   25.9251 C   0  0  0  0  0  0  0  0  0  0  0  0
    4.9816   -4.9714   26.6617 H   0  0  0  0  0  0  0  0  0  0  0  0
    5.1834   -2.9534   25.9167 C   0  0  0  0  0  0  0  0  0  0  0  0
    4.2600   -2.3558   26.8293 C   0  0  0  0  0  0  0  0  0  0  0  0
    3.7521   -2.9845   27.5613 H   0  0  0  0  0  0  0  0  0  0  0  0
    4.0256   -1.0035   26.7906 C   0  0  0  0  0  0  0  0  0  0  0  0
    3.3273   -0.5442   27.4863 H   0  0  0  0  0  0  0  0  0  0  0  0
    4.7047   -0.1802   25.8516 C   0  0  0  0  0  0  0  0  0  0  0  0
    4.5181    0.8892   25.8304 H   0  0  0  0  0  0  0  0  0  0  0  0
    5.6095   -0.7297   24.9742 C   0  0  0  0  0  0  0  0  0  0  0  0
    6.1289   -0.1082   24.2487 H   0  0  0  0  0  0  0  0  0  0  0  0
    5.8534   -2.1367   24.9586 C   0  0  0  0  0  0  0  0  0  0  0  0
    6.7452   -1.3980   21.9667 C   0  0  0  0  0  0  0  0  0  0  0  0
    5.6658   -1.4428   21.9460 H   0  0  0  0  0  0  0  0  0  0  0  0
    5.4486    0.6456   20.1625 C   0  0  0  0  0  0  0  0  0  0  0  0
    5.0051    0.6375   21.1614 H   0  0  0  0  0  0  0  0  0  0  0  0
    4.8110    1.3081   19.1144 C   0  0  0  0  0  0  0  0  0  0  0  0
    3.8759    1.8411   19.2640 H   0  0  0  0  0  0  0  0  0  0  0  0
  1  2  1  0
  2  3  2  0
  3  4  1  0
  4  5  1  0
  4  6  2  0
  6  7  1  0
  7  8  2  0
  8  9  1  0
  9 10  1  0
  9 11  2  0
 11 12  1  0
 11 13  1  0
 13 14  1  0
 14 15  2  0
 15 16  1  0
 15 17  1  0
 17 18  2  0
 18 19  1  0
 18 20  1  0
 20 21  2  0
 21 22  1  0
 21 23  1  0
 23 24  1  0
 23 25  2  0
 25 26  1  0
 25 27  1  0
 27 28  1  0
 27 29  2  0
 13 30  2  0
 30 31  1  0
  6 32  1  0
 32 33  1  0
 32 34  2  0
 34 35  1  0
 34  2  1  0
 30  7  1  0
 29 14  1  0
 29 20  1  0
M  END
>  <cnnaffinity>  (1) 
-5.41256

>  <filename>  (1) 
c1cncc(-c2cc(-c3cncc4ccccc34)ccn2)c1

$$$$
