
     RDKit          3D

 40 43  0  0  0  0  0  0  0  0999 V2000
    4.7885    1.3965   19.0101 C   0  0  0  0  0  0  0  0  0  0  0  0
    5.3984    1.3123   17.7566 C   0  0  0  0  0  0  0  0  0  0  0  0
    6.5224    0.6117   17.5357 N   0  0  0  0  0  0  0  0  0  0  0  0
    7.0826   -0.0183   18.5732 C   0  0  0  0  0  0  0  0  0  0  0  0
    6.5855    0.0660   19.8878 C   0  0  0  0  0  0  0  0  0  0  0  0
    7.2922   -0.5726   20.9460 N   0  0  0  0  0  0  0  0  0  0  0  0
    7.6389   -1.8815   20.8318 N   0  0  0  0  0  0  0  0  0  0  0  0
    8.1846   -2.1529   22.0078 C   0  0  0  0  0  0  0  0  0  0  0  0
    8.6879   -3.5202   22.3889 C   0  0  0  0  0  0  0  0  0  0  0  0
    8.6888   -3.8711   23.9025 C   0  0  0  0  0  0  0  0  0  0  0  0
    8.5932   -5.4172   24.0042 C   0  0  0  0  0  0  0  0  0  0  0  0
    8.2486   -5.9224   22.5873 C   0  0  0  0  0  0  0  0  0  0  0  0
    7.8915   -4.6834   21.7574 C   0  0  0  0  0  0  0  0  0  0  0  0
    8.1053   -4.8349   20.6958 H   0  0  0  0  0  0  0  0  0  0  0  0
    6.8225   -4.4316   21.8526 H   0  0  0  0  0  0  0  0  0  0  0  0
    7.4380   -6.6595   22.5801 H   0  0  0  0  0  0  0  0  0  0  0  0
    9.1217   -6.4296   22.1656 H   0  0  0  0  0  0  0  0  0  0  0  0
    9.5385   -5.8639   24.3469 H   0  0  0  0  0  0  0  0  0  0  0  0
    7.8259   -5.7386   24.7185 H   0  0  0  0  0  0  0  0  0  0  0  0
    7.8248   -3.4066   24.3920 H   0  0  0  0  0  0  0  0  0  0  0  0
    9.5910   -3.4853   24.3903 H   0  0  0  0  0  0  0  0  0  0  0  0
    9.7317   -3.4686   22.0598 H   0  0  0  0  0  0  0  0  0  0  0  0
    8.2990   -1.0844   22.8304 N   0  0  0  0  0  0  0  0  0  0  0  0
    7.7020   -0.1132   22.1642 C   0  0  0  0  0  0  0  0  0  0  0  0
    7.5521    1.2699   22.7257 C   0  0  0  0  0  0  0  0  0  0  0  0
    6.7028    1.2848   23.9806 C   0  0  0  0  0  0  0  0  0  0  0  0
    7.1294    0.9379   25.2284 C   0  0  0  0  0  0  0  0  0  0  0  0
    6.0872    0.9203   26.2069 C   0  0  0  0  0  0  0  0  0  0  0  0
    4.8787    1.2478   25.6654 C   0  0  0  0  0  0  0  0  0  0  0  0
    5.0011    1.5821   23.9762 S   0  0  0  0  0  0  0  0  0  0  0  0
    3.9188    1.3112   26.1588 H   0  0  0  0  0  0  0  0  0  0  0  0
    6.2379    0.6605   27.2483 H   0  0  0  0  0  0  0  0  0  0  0  0
    8.1605    0.6473   25.4082 H   0  0  0  0  0  0  0  0  0  0  0  0
    7.1955    1.9703   21.9639 H   0  0  0  0  0  0  0  0  0  0  0  0
    8.5650    1.5844   23.0051 H   0  0  0  0  0  0  0  0  0  0  0  0
    5.4001    0.7801   20.1108 C   0  0  0  0  0  0  0  0  0  0  0  0
    4.9621    0.8479   21.1092 H   0  0  0  0  0  0  0  0  0  0  0  0
    7.9724   -0.6052   18.3566 H   0  0  0  0  0  0  0  0  0  0  0  0
    4.9707    1.8193   16.8902 H   0  0  0  0  0  0  0  0  0  0  0  0
    3.8559    1.9389   19.1136 H   0  0  0  0  0  0  0  0  0  0  0  0
  1  2  2  0
  2  3  1  0
  3  4  2  0
  4  5  1  0
  5  6  1  0
  6  7  1  0
  7  8  2  0
  8  9  1  0
  9 10  1  0
 10 11  1  0
 11 12  1  0
 12 13  1  0
 13 14  1  0
 13 15  1  0
 12 16  1  0
 12 17  1  0
 11 18  1  0
 11 19  1  0
 10 20  1  0
 10 21  1  0
  9 22  1  0
  8 23  1  0
 23 24  2  0
 24 25  1  0
 25 26  1  0
 26 27  2  0
 27 28  1  0
 28 29  2  0
 29 30  1  0
 29 31  1  0
 28 32  1  0
 27 33  1  0
 25 34  1  0
 25 35  1  0
  5 36  2  0
 36 37  1  0
  4 38  1  0
  2 39  1  0
  1 40  1  0
 36  1  1  0
 24  6  1  0
 30 26  1  0
 13  9  1  0
M  END
>  <cnnaffinity>  (1) 
-5.91836

>  <filename>  (1) 
c1cncc(-n2nc(C3CCCC3)nc2Cc2cccs2)c1

$$$$
