
     RDKit          3D

 40 43  0  0  0  0  0  0  0  0999 V2000
    4.9386    1.8572   16.9943 H   0  0  0  0  0  0  0  0  0  0  0  0
    5.4285    1.3153   17.8021 C   0  0  0  0  0  0  0  0  0  0  0  0
    6.5824    0.7017   17.4911 N   0  0  0  0  0  0  0  0  0  0  0  0
    7.2156    0.0411   18.4749 C   0  0  0  0  0  0  0  0  0  0  0  0
    8.1450   -0.4467   18.1883 H   0  0  0  0  0  0  0  0  0  0  0  0
    6.7515   -0.0725   19.8148 C   0  0  0  0  0  0  0  0  0  0  0  0
    7.4629   -0.8024   20.8158 N   0  0  0  0  0  0  0  0  0  0  0  0
    6.6788   -1.6675   21.7054 C   0  0  0  0  0  0  0  0  0  0  0  0
    5.9052   -2.1477   21.0937 H   0  0  0  0  0  0  0  0  0  0  0  0
    6.1580   -1.1077   22.4994 H   0  0  0  0  0  0  0  0  0  0  0  0
    7.5708   -2.7110   22.3797 C   0  0  0  0  0  0  0  0  0  0  0  0
    6.9640   -3.3280   23.0532 H   0  0  0  0  0  0  0  0  0  0  0  0
    7.9840   -3.3610   21.5991 H   0  0  0  0  0  0  0  0  0  0  0  0
    8.7153   -2.0187   23.1288 C   0  0  0  0  0  0  0  0  0  0  0  0
    9.3527   -2.7428   23.6508 H   0  0  0  0  0  0  0  0  0  0  0  0
    8.3038   -1.3358   23.8893 H   0  0  0  0  0  0  0  0  0  0  0  0
    9.5365   -1.2116   22.1182 C   0  0  0  0  0  0  0  0  0  0  0  0
    9.9619   -1.8952   21.3752 H   0  0  0  0  0  0  0  0  0  0  0  0
   10.3829   -0.7082   22.6006 H   0  0  0  0  0  0  0  0  0  0  0  0
    8.6844   -0.1667   21.3633 C   0  0  2  0  0  0  0  0  0  0  0  0
    9.2545    0.1397   20.4753 H   0  0  0  0  0  0  0  0  0  0  0  0
    8.5184    1.1301   22.1762 C   0  0  0  0  0  0  0  0  0  0  0  0
    7.4313    1.4311   22.9979 C   0  0  0  0  0  0  0  0  0  0  0  0
    6.6148    0.7250   23.0944 H   0  0  0  0  0  0  0  0  0  0  0  0
    7.3650    2.6395   23.7360 C   0  0  0  0  0  0  0  0  0  0  0  0
    6.4887    2.8352   24.3527 H   0  0  0  0  0  0  0  0  0  0  0  0
    8.3943    3.5703   23.6891 C   0  0  0  0  0  0  0  0  0  0  0  0
    8.3723    4.4969   24.2606 H   0  0  0  0  0  0  0  0  0  0  0  0
    9.5066    3.2545   22.8865 C   0  0  0  0  0  0  0  0  0  0  0  0
    9.6030    2.0545   22.1413 C   0  0  0  0  0  0  0  0  0  0  0  0
   10.9043    2.0805   21.5110 C   0  0  0  0  0  0  0  0  0  0  0  0
   11.3470    1.3078   20.8925 H   0  0  0  0  0  0  0  0  0  0  0  0
   11.5161    3.2430   21.8770 C   0  0  0  0  0  0  0  0  0  0  0  0
   12.5017    3.6231   21.6224 H   0  0  0  0  0  0  0  0  0  0  0  0
   10.6771    3.9535   22.7165 N   0  0  0  0  0  0  0  0  0  0  0  0
   10.7552    4.9250   22.9594 H   0  0  0  0  0  0  0  0  0  0  0  0
    5.5328    0.5746   20.0986 C   0  0  0  0  0  0  0  0  0  0  0  0
    5.1356    0.5184   21.1117 H   0  0  0  0  0  0  0  0  0  0  0  0
    4.8674    1.2751   19.0832 C   0  0  0  0  0  0  0  0  0  0  0  0
    3.9306    1.7881   19.2791 H   0  0  0  0  0  0  0  0  0  0  0  0
  1  2  1  0
  2  3  2  0
  3  4  1  0
  4  5  1  0
  4  6  2  0
  6  7  1  0
  7  8  1  0
  8  9  1  0
  8 10  1  0
  8 11  1  0
 11 12  1  0
 11 13  1  0
 11 14  1  0
 14 15  1  0
 14 16  1  0
 14 17  1  0
 17 18  1  0
 17 19  1  0
 17 20  1  0
 20 21  1  6
 20 22  1  0
 22 23  2  0
 23 24  1  0
 23 25  1  0
 25 26  1  0
 25 27  2  0
 27 28  1  0
 27 29  1  0
 29 30  2  0
 30 31  1  0
 31 32  1  0
 31 33  2  0
 33 34  1  0
 33 35  1  0
 35 36  1  0
  6 37  1  0
 37 38  1  0
 37 39  2  0
 39 40  1  0
 39  2  1  0
 20  7  1  0
 30 22  1  0
 35 29  1  0
M  END
>  <cnnaffinity>  (1) 
-5.60604

>  <filename>  (1) 
c1cncc(N2CCCC[C@@H]2c2cccc3[nH]ccc23)c1

$$$$
