
     RDKit          3D

 37 41  0  0  0  0  0  0  0  0999 V2000
    4.9288    1.8068   16.9472 H   0  0  0  0  0  0  0  0  0  0  0  0
    5.4162    1.3116   17.7812 C   0  0  0  0  0  0  0  0  0  0  0  0
    6.5808    0.7012   17.5142 N   0  0  0  0  0  0  0  0  0  0  0  0
    7.2179    0.1075   18.5278 C   0  0  0  0  0  0  0  0  0  0  0  0
    8.1550   -0.3897   18.2783 H   0  0  0  0  0  0  0  0  0  0  0  0
    6.7222    0.0845   19.8431 C   0  0  0  0  0  0  0  0  0  0  0  0
    7.4109   -0.6679   20.9023 C   0  0  0  0  0  0  0  0  0  0  0  0
    8.6370   -1.1926   20.7394 N   0  0  0  0  0  0  0  0  0  0  0  0
    8.8058   -1.8993   21.8806 N   0  0  0  0  0  0  0  0  0  0  0  0
    9.7636   -2.7816   22.3601 C   0  0  0  0  0  0  0  0  0  0  0  0
   10.7185   -2.8772   21.8736 H   0  0  0  0  0  0  0  0  0  0  0  0
    9.2160   -3.3643   23.4566 C   0  0  0  0  0  0  0  0  0  0  0  0
    9.5881   -4.1775   24.0602 H   0  0  0  0  0  0  0  0  0  0  0  0
    7.9676   -2.7853   23.7132 N   0  0  0  0  0  0  0  0  0  0  0  0
    7.0072   -3.1274   24.7146 C   0  0  0  0  0  0  0  0  0  0  0  0
    6.6507   -4.4557   24.8703 C   0  0  0  0  0  0  0  0  0  0  0  0
    7.1468   -5.2058   24.2581 H   0  0  0  0  0  0  0  0  0  0  0  0
    5.6147   -4.8393   25.7573 C   0  0  0  0  0  0  0  0  0  0  0  0
    5.3467   -5.8921   25.8163 H   0  0  0  0  0  0  0  0  0  0  0  0
    4.9379   -3.9025   26.5050 C   0  0  0  0  0  0  0  0  0  0  0  0
    4.1274   -4.2011   27.1717 H   0  0  0  0  0  0  0  0  0  0  0  0
    5.2799   -2.5212   26.3939 C   0  0  0  0  0  0  0  0  0  0  0  0
    4.6022   -1.5058   27.1391 C   0  0  0  0  0  0  0  0  0  0  0  0
    3.7983   -1.7847   27.8221 H   0  0  0  0  0  0  0  0  0  0  0  0
    4.9734   -0.1940   26.9810 C   0  0  0  0  0  0  0  0  0  0  0  0
    4.4994    0.6110   27.5325 H   0  0  0  0  0  0  0  0  0  0  0  0
    6.0243    0.1141   26.0747 C   0  0  0  0  0  0  0  0  0  0  0  0
    6.3069    1.1577   25.9343 H   0  0  0  0  0  0  0  0  0  0  0  0
    6.6831   -0.7749   25.3686 N   0  0  0  0  0  0  0  0  0  0  0  0
    6.3302   -2.1051   25.4953 C   0  0  0  0  0  0  0  0  0  0  0  0
    7.7384   -1.8690   22.6978 C   0  0  0  0  0  0  0  0  0  0  0  0
    6.8175   -1.0036   22.1343 C   0  0  0  0  0  0  0  0  0  0  0  0
    5.9717   -0.5421   22.6029 H   0  0  0  0  0  0  0  0  0  0  0  0
    5.4894    0.7105   20.0962 C   0  0  0  0  0  0  0  0  0  0  0  0
    5.0465    0.7009   21.0924 H   0  0  0  0  0  0  0  0  0  0  0  0
    4.8276    1.3339   19.0480 C   0  0  0  0  0  0  0  0  0  0  0  0
    3.8782    1.8326   19.2036 H   0  0  0  0  0  0  0  0  0  0  0  0
  1  2  1  0
  2  3  2  0
  3  4  1  0
  4  5  1  0
  4  6  2  0
  6  7  1  0
  7  8  2  0
  8  9  1  0
  9 10  1  0
 10 11  1  0
 10 12  2  0
 12 13  1  0
 12 14  1  0
 14 15  1  0
 15 16  2  0
 16 17  1  0
 16 18  1  0
 18 19  1  0
 18 20  2  0
 20 21  1  0
 20 22  1  0
 22 23  2  0
 23 24  1  0
 23 25  1  0
 25 26  1  0
 25 27  2  0
 27 28  1  0
 27 29  1  0
 29 30  2  0
 14 31  1  0
 31 32  2  0
 32 33  1  0
  6 34  1  0
 34 35  1  0
 34 36  2  0
 36 37  1  0
 36  2  1  0
 32  7  1  0
 31  9  1  0
 30 15  1  0
 30 22  1  0
M  END
>  <cnnaffinity>  (1) 
-5.97406

>  <filename>  (1) 
c1cncc(-c2cc3n(-c4cccc5cccnc45)ccn3n2)c1

$$$$
