
     RDKit          3D

 30 33  0  0  0  0  0  0  0  0999 V2000
    4.9469    1.8065   16.9517 H   0  0  0  0  0  0  0  0  0  0  0  0
    5.4089    1.2995   17.7983 C   0  0  0  0  0  0  0  0  0  0  0  0
    6.5589    0.6552   17.5483 N   0  0  0  0  0  0  0  0  0  0  0  0
    7.1453    0.0305   18.5689 C   0  0  0  0  0  0  0  0  0  0  0  0
    8.0717   -0.4989   18.3569 H   0  0  0  0  0  0  0  0  0  0  0  0
    6.6381    0.0316   19.8777 C   0  0  0  0  0  0  0  0  0  0  0  0
    7.4283   -0.6659   20.8873 C   0  0  0  0  0  0  0  0  0  0  0  0
    8.2839   -1.6349   20.6541 N   0  0  0  0  0  0  0  0  0  0  0  0
    8.8111   -2.0672   21.8505 N   0  0  0  0  0  0  0  0  0  0  0  0
    8.2567   -1.3230   22.7707 C   0  0  0  0  0  0  0  0  0  0  0  0
    8.3933   -1.0689   24.4929 S   0  0  0  0  0  0  0  0  0  0  0  0
    7.2891    0.2901   24.2756 C   0  0  0  0  0  0  0  0  0  0  0  0
    6.9027    1.1543   25.2471 N   0  0  0  0  0  0  0  0  0  0  0  0
    6.3609    1.8973   24.8305 H   0  0  0  0  0  0  0  0  0  0  0  0
    6.8223    0.9334   26.6114 C   0  0  0  0  0  0  0  0  0  0  0  0
    7.2094    1.9645   27.4650 C   0  0  0  0  0  0  0  0  0  0  0  0
    7.5906    2.8888   27.0544 H   0  0  0  0  0  0  0  0  0  0  0  0
    7.1372    1.7213   28.8318 C   0  0  0  0  0  0  0  0  0  0  0  0
    7.4632    2.4773   29.5429 H   0  0  0  0  0  0  0  0  0  0  0  0
    6.6625    0.5916   29.3698 N   0  0  0  0  0  0  0  0  0  0  0  0
    6.2596   -0.3624   28.5209 C   0  0  0  0  0  0  0  0  0  0  0  0
    5.8665   -1.2731   28.9712 H   0  0  0  0  0  0  0  0  0  0  0  0
    6.3485   -0.2641   27.1395 C   0  0  0  0  0  0  0  0  0  0  0  0
    6.0651   -1.1042   26.5190 H   0  0  0  0  0  0  0  0  0  0  0  0
    6.8651    0.5401   23.0735 N   0  0  0  0  0  0  0  0  0  0  0  0
    7.3871   -0.4220   22.2416 N   0  0  0  0  0  0  0  0  0  0  0  0
    5.4265    0.6916   20.1322 C   0  0  0  0  0  0  0  0  0  0  0  0
    4.9966    0.7152   21.1343 H   0  0  0  0  0  0  0  0  0  0  0  0
    4.8028    1.3277   19.0596 C   0  0  0  0  0  0  0  0  0  0  0  0
    3.8643    1.8533   19.1853 H   0  0  0  0  0  0  0  0  0  0  0  0
  1  2  1  0
  2  3  2  0
  3  4  1  0
  4  5  1  0
  4  6  2  0
  6  7  1  0
  7  8  2  0
  8  9  1  0
  9 10  2  0
 10 11  1  0
 11 12  1  0
 12 13  1  0
 13 14  1  0
 13 15  1  0
 15 16  2  0
 16 17  1  0
 16 18  1  0
 18 19  1  0
 18 20  2  0
 20 21  1  0
 21 22  1  0
 21 23  2  0
 23 24  1  0
 12 25  2  0
 25 26  1  0
  6 27  1  0
 27 28  1  0
 27 29  2  0
 29 30  1  0
 29  2  1  0
 26  7  1  0
 26 10  1  0
 23 15  1  0
M  END
>  <cnnaffinity>  (1) 
-5.26552

>  <filename>  (1) 
c1cncc(-c2nnc3sc(Nc4ccncc4)nn23)c1

$$$$
