
     RDKit          3D

 50 54  0  0  0  0  0  0  0  0999 V2000
    4.8106    1.3038   19.0905 C   0  0  0  0  0  0  0  0  0  0  0  0
    5.4077    1.3060   17.8243 C   0  0  0  0  0  0  0  0  0  0  0  0
    6.5496    0.6549   17.5543 N   0  0  0  0  0  0  0  0  0  0  0  0
    7.1598    0.0101   18.5558 C   0  0  0  0  0  0  0  0  0  0  0  0
    6.6685   -0.0091   19.8777 C   0  0  0  0  0  0  0  0  0  0  0  0
    7.3771   -0.6582   20.9337 N   0  0  0  0  0  0  0  0  0  0  0  0
    6.7531   -1.6023   21.6902 N   0  0  0  0  0  0  0  0  0  0  0  0
    7.7032   -2.0407   22.4954 C   0  0  0  0  0  0  0  0  0  0  0  0
    7.3908   -3.0388   23.5857 C   0  0  0  0  0  0  0  0  0  0  0  0
    6.9872   -2.3700   24.9251 C   0  0  0  0  0  0  0  0  0  0  0  0
    8.3205   -2.0773   25.6291 C   0  0  0  0  0  0  0  0  0  0  0  0
    9.3178   -3.1393   25.1174 C   0  0  0  0  0  0  0  0  0  0  0  0
    8.5932   -3.9125   23.9943 C   0  0  0  0  0  0  0  0  0  0  0  0
    8.2286   -4.8757   24.3733 H   0  0  0  0  0  0  0  0  0  0  0  0
    9.2490   -4.1279   23.1460 H   0  0  0  0  0  0  0  0  0  0  0  0
    9.6467   -3.8188   25.9112 H   0  0  0  0  0  0  0  0  0  0  0  0
   10.2141   -2.6539   24.7257 H   0  0  0  0  0  0  0  0  0  0  0  0
    8.2187   -2.0847   26.7196 H   0  0  0  0  0  0  0  0  0  0  0  0
    8.6734   -1.0779   25.3511 H   0  0  0  0  0  0  0  0  0  0  0  0
    6.3923   -3.0781   25.5155 H   0  0  0  0  0  0  0  0  0  0  0  0
    6.3665   -1.4768   24.7820 H   0  0  0  0  0  0  0  0  0  0  0  0
    6.5645   -3.6320   23.1884 H   0  0  0  0  0  0  0  0  0  0  0  0
    8.9128   -1.4404   22.3095 N   0  0  0  0  0  0  0  0  0  0  0  0
    8.6591   -0.5190   21.3875 C   0  0  0  0  0  0  0  0  0  0  0  0
    9.5817    0.6188   20.9854 C   0  0  0  0  0  0  0  0  0  0  0  0
    9.5056    1.8789   21.8459 N   0  0  0  0  0  4  0  0  0  0  0  0
    9.9911    1.6205   23.2953 C   0  0  0  0  0  0  0  0  0  0  0  0
    8.8902    2.2699   24.1354 C   0  0  0  0  0  0  0  0  0  0  0  0
    8.9267    3.7984   23.9214 C   0  0  0  0  0  0  0  0  0  0  0  0
    8.3161    3.9438   22.4967 C   0  0  0  0  0  0  0  0  0  0  0  0
    8.1056    2.4989   22.0512 C   0  0  0  0  0  0  0  0  0  0  0  0
    7.6394    1.8392   23.3438 C   0  0  0  0  0  0  0  0  0  0  0  0
    7.5467    0.7562   23.2389 H   0  0  0  0  0  0  0  0  0  0  0  0
    6.6906    2.2387   23.7170 H   0  0  0  0  0  0  0  0  0  0  0  0
    7.4984    2.3515   21.1586 H   0  0  0  0  0  0  0  0  0  0  0  0
    8.9473    4.5035   21.8192 H   0  0  0  0  0  0  0  0  0  0  0  0
    7.3570    4.4688   22.5104 H   0  0  0  0  0  0  0  0  0  0  0  0
    8.3282    4.3236   24.6737 H   0  0  0  0  0  0  0  0  0  0  0  0
    9.9448    4.2056   23.9704 H   0  0  0  0  0  0  0  0  0  0  0  0
    8.9378    1.9632   25.1827 H   0  0  0  0  0  0  0  0  0  0  0  0
   10.0078    0.5392   23.4502 H   0  0  0  0  0  0  0  0  0  0  0  0
   10.9923    2.0309   23.4490 H   0  0  0  0  0  0  0  0  0  0  0  0
   10.0822    2.6384   21.4215 H   0  0  0  0  0  0  0  0  0  0  0  0
    9.3835    0.8697   19.9400 H   0  0  0  0  0  0  0  0  0  0  0  0
   10.5941    0.2053   21.0536 H   0  0  0  0  0  0  0  0  0  0  0  0
    5.4401    0.6187   20.1324 C   0  0  0  0  0  0  0  0  0  0  0  0
    5.0081    0.5684   21.1345 H   0  0  0  0  0  0  0  0  0  0  0  0
    8.0804   -0.5164   18.2972 H   0  0  0  0  0  0  0  0  0  0  0  0
    4.9434    1.8454   17.0004 H   0  0  0  0  0  0  0  0  0  0  0  0
    3.8777    1.8395   19.2479 H   0  0  0  0  0  0  0  0  0  0  0  0
  1  2  2  0
  2  3  1  0
  3  4  2  0
  4  5  1  0
  5  6  1  0
  6  7  1  0
  7  8  2  0
  8  9  1  0
  9 10  1  0
 10 11  1  0
 11 12  1  0
 12 13  1  0
 13 14  1  0
 13 15  1  0
 12 16  1  0
 12 17  1  0
 11 18  1  0
 11 19  1  0
 10 20  1  0
 10 21  1  0
  9 22  1  0
  8 23  1  0
 23 24  2  0
 24 25  1  0
 25 26  1  0
 26 27  1  0
 27 28  1  0
 28 29  1  0
 29 30  1  0
 30 31  1  0
 31 32  1  0
 32 33  1  0
 32 34  1  0
 31 35  1  0
 30 36  1  0
 30 37  1  0
 29 38  1  0
 29 39  1  0
 28 40  1  0
 27 41  1  0
 27 42  1  0
 26 43  1  0
 25 44  1  0
 25 45  1  0
  5 46  2  0
 46 47  1  0
  4 48  1  0
  2 49  1  0
  1 50  1  0
 46  1  1  0
 24  6  1  0
 31 26  1  0
 13  9  1  0
 32 28  1  0
M  CHG  1  26   1
M  END
>  <cnnaffinity>  (1) 
-5.88204

>  <filename>  (1) 
c1cncc(-n2nc(C3CCCC3)nc2C[NH+]2CC3CCC2C3)c1

$$$$
