
     RDKit          3D

 16 16  0  0  0  0  0  0  0  0999 V2000
    8.5407   -2.1939   21.2704 H   0  0  0  0  0  0  0  0  0  0  0  0
    8.1307   -1.7820   20.5032 O   0  0  0  0  0  0  0  0  0  0  0  0
    7.4028   -0.7319   20.9645 C   0  0  0  0  0  0  0  0  0  0  0  0
    7.4010   -0.3667   22.2415 C   0  0  0  0  0  0  0  0  0  0  0  0
    7.9346   -0.9075   23.0201 H   0  0  0  0  0  0  0  0  0  0  0  0
    6.8567    0.5263   22.5275 H   0  0  0  0  0  0  0  0  0  0  0  0
    6.6577   -0.0238   19.8996 C   0  0  0  0  0  0  0  0  0  0  0  0
    7.1749    0.0333   18.5936 C   0  0  0  0  0  0  0  0  0  0  0  0
    8.1274   -0.4409   18.3681 H   0  0  0  0  0  0  0  0  0  0  0  0
    6.5749    0.6716   17.5836 N   0  0  0  0  0  0  0  0  0  0  0  0
    5.4109    1.2854   17.8444 C   0  0  0  0  0  0  0  0  0  0  0  0
    4.9260    1.7783   17.0031 H   0  0  0  0  0  0  0  0  0  0  0  0
    4.8155    1.3015   19.1101 C   0  0  0  0  0  0  0  0  0  0  0  0
    3.8851    1.8369   19.2612 H   0  0  0  0  0  0  0  0  0  0  0  0
    5.4493    0.6432   20.1596 C   0  0  0  0  0  0  0  0  0  0  0  0
    5.0092    0.6232   21.1567 H   0  0  0  0  0  0  0  0  0  0  0  0
  1  2  1  0
  2  3  1  0
  3  4  2  3
  4  5  1  0
  4  6  1  0
  3  7  1  0
  7  8  2  0
  8  9  1  0
  8 10  1  0
 10 11  2  0
 11 12  1  0
 11 13  1  0
 13 14  1  0
 13 15  2  0
 15 16  1  0
 15  7  1  0
M  END
>  <cnnaffinity>  (1) 
-3.36099

>  <filename>  (1) 
C=C(O)c1cccnc1

$$$$
