
     RDKit          3D

 45 47  0  0  0  0  0  0  0  0999 V2000
    7.4120    4.5574   22.0338 C   0  0  0  0  0  0  0  0  0  0  0  0
    8.4640    3.7776   22.2890 C   0  0  0  0  0  0  0  0  0  0  0  0
    9.6604    4.3149   23.0456 C   0  0  0  0  0  0  0  0  0  0  0  0
    9.7723    3.8641   24.0421 H   0  0  0  0  0  0  0  0  0  0  0  0
   10.5859    4.1119   22.4968 H   0  0  0  0  0  0  0  0  0  0  0  0
    9.5783    5.3999   23.1786 H   0  0  0  0  0  0  0  0  0  0  0  0
    8.4248    2.3243   21.7939 C   0  0  1  0  0  0  0  0  0  0  0  0
    9.6745    1.6694   21.7810 O   0  0  0  0  0  0  0  0  0  0  0  0
    9.7644    1.2264   22.6381 H   0  0  0  0  0  0  0  0  0  0  0  0
    7.4250    1.4846   22.6209 C   0  0  0  0  0  0  0  0  0  0  0  0
    7.4641    0.0542   22.2318 C   0  0  0  0  0  0  0  0  0  0  0  0
    8.0311   -0.8914   22.9558 N   0  0  0  0  0  0  0  0  0  0  0  0
    8.0697   -1.9520   22.1044 C   0  0  0  0  0  0  0  0  0  0  0  0
    8.7231   -3.2698   22.4342 C   0  0  0  0  0  0  0  0  0  0  0  0
   10.0188   -3.0449   23.2687 C   0  0  0  0  0  0  0  0  0  0  0  0
    9.8314   -3.2372   24.7566 C   0  0  0  0  0  0  0  0  0  0  0  0
    8.6379   -3.3772   25.3375 C   0  0  0  0  0  0  0  0  0  0  0  0
    7.4017   -3.7549   24.5535 C   0  0  0  0  0  0  0  0  0  0  0  0
    7.7670   -4.2675   23.1489 C   0  0  0  0  0  0  0  0  0  0  0  0
    6.8608   -4.4638   22.5610 H   0  0  0  0  0  0  0  0  0  0  0  0
    8.3049   -5.2224   23.2471 H   0  0  0  0  0  0  0  0  0  0  0  0
    6.7329   -2.8884   24.4676 H   0  0  0  0  0  0  0  0  0  0  0  0
    6.8501   -4.5114   25.1250 H   0  0  0  0  0  0  0  0  0  0  0  0
    8.5324   -3.1974   26.4088 H   0  0  0  0  0  0  0  0  0  0  0  0
   10.7331   -3.3459   25.3492 H   0  0  0  0  0  0  0  0  0  0  0  0
   10.8311   -3.6922   22.9337 H   0  0  0  0  0  0  0  0  0  0  0  0
   10.4030   -2.0305   23.0927 H   0  0  0  0  0  0  0  0  0  0  0  0
    8.9711   -3.6796   21.4543 H   0  0  0  0  0  0  0  0  0  0  0  0
    7.5614   -1.7212   20.9121 N   0  0  0  0  0  0  0  0  0  0  0  0
    7.1501   -0.4256   20.9965 N   0  0  0  0  0  0  0  0  0  0  0  0
    6.5166    0.1933   19.8855 C   0  0  0  0  0  0  0  0  0  0  0  0
    5.3330    0.9269   20.0295 C   0  0  0  0  0  0  0  0  0  0  0  0
    4.7845    1.5041   18.8798 C   0  0  0  0  0  0  0  0  0  0  0  0
    5.4297    1.3332   17.6532 C   0  0  0  0  0  0  0  0  0  0  0  0
    6.5592    0.6149   17.5094 N   0  0  0  0  0  0  0  0  0  0  0  0
    7.0793    0.0496   18.6029 C   0  0  0  0  0  0  0  0  0  0  0  0
    7.9975   -0.5252   18.4772 H   0  0  0  0  0  0  0  0  0  0  0  0
    5.0263    1.7796   16.7475 H   0  0  0  0  0  0  0  0  0  0  0  0
    3.8672    2.0784   18.9317 H   0  0  0  0  0  0  0  0  0  0  0  0
    4.8475    1.0158   21.0020 H   0  0  0  0  0  0  0  0  0  0  0  0
    7.7072    1.5324   23.6753 H   0  0  0  0  0  0  0  0  0  0  0  0
    6.4115    1.8795   22.5368 H   0  0  0  0  0  0  0  0  0  0  0  0
    8.0877    2.3602   20.7467 H   0  0  0  0  0  0  0  0  0  0  0  0
    7.3608    5.5921   22.3697 H   0  0  0  0  0  0  0  0  0  0  0  0
    6.5578    4.2112   21.4494 H   0  0  0  0  0  0  0  0  0  0  0  0
  1  2  2  3
  2  3  1  0
  3  4  1  0
  3  5  1  0
  3  6  1  0
  2  7  1  0
  7  8  1  0
  8  9  1  0
  7 10  1  0
 10 11  1  0
 11 12  2  0
 12 13  1  0
 13 14  1  0
 14 15  1  0
 15 16  1  0
 16 17  2  0
 17 18  1  0
 18 19  1  0
 19 20  1  0
 19 21  1  0
 18 22  1  0
 18 23  1  0
 17 24  1  0
 16 25  1  0
 15 26  1  0
 15 27  1  0
 14 28  1  0
 13 29  2  0
 29 30  1  0
 30 31  1  0
 31 32  2  0
 32 33  1  0
 33 34  2  0
 34 35  1  0
 35 36  2  0
 36 37  1  0
 34 38  1  0
 33 39  1  0
 32 40  1  0
 10 41  1  0
 10 42  1  0
  7 43  1  6
  1 44  1  0
  1 45  1  0
 30 11  1  0
 36 31  1  0
 19 14  1  0
M  END
>  <cnnaffinity>  (1) 
-6.01509

>  <filename>  (1) 
C=C(C)[C@@H](O)Cc1nc(C2CC=CCC2)nn1-c1cccnc1

$$$$
