
     RDKit          3D

 48 51  0  0  0  0  0  0  0  0999 V2000
    7.3986    2.6003   21.0693 C   0  0  0  0  0  0  0  0  0  0  0  0
    8.2531    2.5158   22.0912 C   0  0  0  0  0  0  0  0  0  0  0  0
    8.1687    3.1471   23.4044 C   0  0  0  0  0  0  0  0  0  0  0  0
    7.3161    4.1564   23.8963 C   0  0  0  0  0  0  0  0  0  0  0  0
    7.3892    4.4850   25.2442 C   0  0  0  0  0  0  0  0  0  0  0  0
    8.3038    3.8153   26.0949 C   0  0  0  0  0  0  0  0  0  0  0  0
    9.1897    2.8591   25.5887 C   0  0  0  0  0  0  0  0  0  0  0  0
    9.1508    2.5712   24.2238 C   0  0  0  0  0  0  0  0  0  0  0  0
    9.9872    1.6649   23.3803 C   0  0  0  0  0  0  0  0  0  0  0  0
   10.9723    1.0184   23.6684 O   0  0  0  0  0  0  0  0  0  0  0  0
    9.3888    1.6823   22.0994 N   0  0  0  0  0  0  0  0  0  0  0  0
    9.5498    0.5546   21.1559 C   0  0  0  0  0  0  0  0  0  0  0  0
    8.5981   -0.5871   21.4349 C   0  0  0  0  0  0  0  0  0  0  0  0
    8.7989   -1.4286   22.4312 N   0  0  0  0  0  0  0  0  0  0  0  0
    7.6106   -2.0689   22.5554 C   0  0  0  0  0  0  0  0  0  0  0  0
    7.3303   -2.9814   23.7238 C   0  0  0  0  0  0  0  0  0  0  0  0
    6.6140   -4.2668   23.2848 C   0  0  0  0  0  0  0  0  0  0  0  0
    7.2089   -4.7941   22.5320 H   0  0  0  0  0  0  0  0  0  0  0  0
    5.6326   -4.0434   22.8477 H   0  0  0  0  0  0  0  0  0  0  0  0
    6.4735   -4.9338   24.1426 H   0  0  0  0  0  0  0  0  0  0  0  0
    6.5579   -2.2351   24.8457 C   0  0  0  0  0  0  0  0  0  0  0  0
    7.2906   -1.0129   25.4016 C   0  0  0  0  0  0  0  0  0  0  0  0
    8.2747   -1.2821   25.8038 H   0  0  0  0  0  0  0  0  0  0  0  0
    7.4543   -0.2519   24.6317 H   0  0  0  0  0  0  0  0  0  0  0  0
    6.7129   -0.5496   26.2077 H   0  0  0  0  0  0  0  0  0  0  0  0
    6.3670   -2.9417   25.6638 H   0  0  0  0  0  0  0  0  0  0  0  0
    5.5720   -1.9337   24.4669 H   0  0  0  0  0  0  0  0  0  0  0  0
    8.3246   -3.2368   24.1148 H   0  0  0  0  0  0  0  0  0  0  0  0
    6.7035   -1.7204   21.6615 N   0  0  0  0  0  0  0  0  0  0  0  0
    7.3469   -0.7727   20.9188 N   0  0  0  0  0  0  0  0  0  0  0  0
    6.6472   -0.1387   19.8504 C   0  0  0  0  0  0  0  0  0  0  0  0
    5.4301    0.5043   20.1079 C   0  0  0  0  0  0  0  0  0  0  0  0
    4.8242    1.2160   19.0720 C   0  0  0  0  0  0  0  0  0  0  0  0
    5.4456    1.2452   17.8179 C   0  0  0  0  0  0  0  0  0  0  0  0
    6.5899    0.5972   17.5526 N   0  0  0  0  0  0  0  0  0  0  0  0
    7.1633   -0.0976   18.5457 C   0  0  0  0  0  0  0  0  0  0  0  0
    8.0760   -0.6400   18.2940 H   0  0  0  0  0  0  0  0  0  0  0  0
    5.0072    1.8098   16.9987 H   0  0  0  0  0  0  0  0  0  0  0  0
    3.8973    1.7571   19.2263 H   0  0  0  0  0  0  0  0  0  0  0  0
    5.0191    0.4841   21.1178 H   0  0  0  0  0  0  0  0  0  0  0  0
   10.5652    0.1754   21.2916 H   0  0  0  0  0  0  0  0  0  0  0  0
    9.4316    0.9059   20.1273 H   0  0  0  0  0  0  0  0  0  0  0  0
    9.8811    2.3319   26.2458 H   0  0  0  0  0  0  0  0  0  0  0  0
    8.3179    4.0508   27.1545 H   0  0  0  0  0  0  0  0  0  0  0  0
    6.7221    5.2415   25.6586 H   0  0  0  0  0  0  0  0  0  0  0  0
    6.6385    4.6700   23.2162 H   0  0  0  0  0  0  0  0  0  0  0  0
    6.4287    3.0843   21.1522 H   0  0  0  0  0  0  0  0  0  0  0  0
    7.6775    2.2401   20.0808 H   0  0  0  0  0  0  0  0  0  0  0  0
  1  2  2  3
  2  3  1  0
  3  4  2  0
  4  5  1  0
  5  6  2  0
  6  7  1  0
  7  8  2  0
  8  9  1  0
  9 10  2  0
  9 11  1  0
 11 12  1  0
 12 13  1  0
 13 14  2  0
 14 15  1  0
 15 16  1  0
 16 17  1  0
 17 18  1  0
 17 19  1  0
 17 20  1  0
 16 21  1  0
 21 22  1  0
 22 23  1  0
 22 24  1  0
 22 25  1  0
 21 26  1  0
 21 27  1  0
 16 28  1  0
 15 29  2  0
 29 30  1  0
 30 31  1  0
 31 32  2  0
 32 33  1  0
 33 34  2  0
 34 35  1  0
 35 36  2  0
 36 37  1  0
 34 38  1  0
 33 39  1  0
 32 40  1  0
 12 41  1  0
 12 42  1  0
  7 43  1  0
  6 44  1  0
  5 45  1  0
  4 46  1  0
  1 47  1  0
  1 48  1  0
 11  2  1  0
 30 13  1  0
 36 31  1  0
  8  3  1  0
M  END
>  <cnnaffinity>  (1) 
-6.05879

>  <filename>  (1) 
C=C1c2ccccc2C(=O)N1Cc1nc(C(C)CC)nn1-c1cccnc1

$$$$
