
     RDKit          3D

 48 51  0  0  0  0  0  0  0  0999 V2000
    7.5846    2.7317   21.1778 C   0  0  0  0  0  0  0  0  0  0  0  0
    8.4824    2.5303   22.1330 C   0  0  0  0  0  0  0  0  0  0  0  0
    8.4612    3.0935   23.4708 C   0  0  0  0  0  0  0  0  0  0  0  0
    7.6005    4.0365   24.0556 C   0  0  0  0  0  0  0  0  0  0  0  0
    7.7322    4.2939   25.4122 C   0  0  0  0  0  0  0  0  0  0  0  0
    8.6890    3.6041   26.1883 C   0  0  0  0  0  0  0  0  0  0  0  0
    9.5361    2.6583   25.6050 C   0  0  0  0  0  0  0  0  0  0  0  0
    9.4401    2.4430   24.2318 C   0  0  0  0  0  0  0  0  0  0  0  0
   10.1859    1.5121   23.3395 C   0  0  0  0  0  0  0  0  0  0  0  0
   11.1240    0.7860   23.5835 O   0  0  0  0  0  0  0  0  0  0  0  0
    9.5498    1.6209   22.0802 N   0  0  0  0  0  0  0  0  0  0  0  0
    9.5878    0.5421   21.0786 C   0  0  0  0  0  0  0  0  0  0  0  0
    8.6254   -0.5791   21.3915 C   0  0  0  0  0  0  0  0  0  0  0  0
    8.8388   -1.4536   22.3551 N   0  0  0  0  0  0  0  0  0  0  0  0
    7.6185   -2.0166   22.5436 C   0  0  0  0  0  0  0  0  0  0  0  0
    7.3439   -2.8972   23.7141 C   0  0  0  0  0  0  0  0  0  0  0  0
    6.6729   -2.1479   24.8927 C   0  0  0  0  0  0  0  0  0  0  0  0
    7.5669   -1.0371   25.4595 C   0  0  0  0  0  0  0  0  0  0  0  0
    7.0796   -0.5394   26.3064 H   0  0  0  0  0  0  0  0  0  0  0  0
    8.5227   -1.4400   25.8205 H   0  0  0  0  0  0  0  0  0  0  0  0
    7.7952   -0.2680   24.7141 H   0  0  0  0  0  0  0  0  0  0  0  0
    6.2653   -3.1415   25.9813 C   0  0  0  0  0  0  0  0  0  0  0  0
    7.1416   -3.6418   26.4138 H   0  0  0  0  0  0  0  0  0  0  0  0
    5.6016   -3.9178   25.5834 H   0  0  0  0  0  0  0  0  0  0  0  0
    5.7328   -2.6409   26.7985 H   0  0  0  0  0  0  0  0  0  0  0  0
    5.7554   -1.6751   24.5128 H   0  0  0  0  0  0  0  0  0  0  0  0
    8.3060   -3.3082   24.0342 H   0  0  0  0  0  0  0  0  0  0  0  0
    6.7082   -3.7235   23.3825 H   0  0  0  0  0  0  0  0  0  0  0  0
    6.6866   -1.6044   21.7078 N   0  0  0  0  0  0  0  0  0  0  0  0
    7.3370   -0.6841   20.9431 N   0  0  0  0  0  0  0  0  0  0  0  0
    6.6337   -0.0499   19.8771 C   0  0  0  0  0  0  0  0  0  0  0  0
    5.3985    0.5683   20.1290 C   0  0  0  0  0  0  0  0  0  0  0  0
    4.7874    1.2692   19.0882 C   0  0  0  0  0  0  0  0  0  0  0  0
    5.3995    1.2804   17.8290 C   0  0  0  0  0  0  0  0  0  0  0  0
    6.5544    0.6500   17.5694 N   0  0  0  0  0  0  0  0  0  0  0  0
    7.1578    0.0037   18.5764 C   0  0  0  0  0  0  0  0  0  0  0  0
    8.1047   -0.4820   18.3383 H   0  0  0  0  0  0  0  0  0  0  0  0
    4.9426    1.8155   17.0002 H   0  0  0  0  0  0  0  0  0  0  0  0
    3.8709    1.8285   19.2477 H   0  0  0  0  0  0  0  0  0  0  0  0
    4.9845    0.5531   21.1393 H   0  0  0  0  0  0  0  0  0  0  0  0
   10.6074    0.1478   21.0632 H   0  0  0  0  0  0  0  0  0  0  0  0
    9.3474    0.9772   20.1080 H   0  0  0  0  0  0  0  0  0  0  0  0
   10.2460    2.0812   26.1960 H   0  0  0  0  0  0  0  0  0  0  0  0
    8.7381    3.8200   27.2474 H   0  0  0  0  0  0  0  0  0  0  0  0
    7.0777    5.0227   25.8848 H   0  0  0  0  0  0  0  0  0  0  0  0
    6.8510    4.5423   23.4539 H   0  0  0  0  0  0  0  0  0  0  0  0
    6.8021    3.4709   21.2870 H   0  0  0  0  0  0  0  0  0  0  0  0
    7.5964    2.2064   20.2273 H   0  0  0  0  0  0  0  0  0  0  0  0
  1  2  2  3
  2  3  1  0
  3  4  2  0
  4  5  1  0
  5  6  2  0
  6  7  1  0
  7  8  2  0
  8  9  1  0
  9 10  2  0
  9 11  1  0
 11 12  1  0
 12 13  1  0
 13 14  2  0
 14 15  1  0
 15 16  1  0
 16 17  1  0
 17 18  1  0
 18 19  1  0
 18 20  1  0
 18 21  1  0
 17 22  1  0
 22 23  1  0
 22 24  1  0
 22 25  1  0
 17 26  1  0
 16 27  1  0
 16 28  1  0
 15 29  2  0
 29 30  1  0
 30 31  1  0
 31 32  2  0
 32 33  1  0
 33 34  2  0
 34 35  1  0
 35 36  2  0
 36 37  1  0
 34 38  1  0
 33 39  1  0
 32 40  1  0
 12 41  1  0
 12 42  1  0
  7 43  1  0
  6 44  1  0
  5 45  1  0
  4 46  1  0
  1 47  1  0
  1 48  1  0
 11  2  1  0
 30 13  1  0
 36 31  1  0
  8  3  1  0
M  END
>  <cnnaffinity>  (1) 
-6.07306

>  <filename>  (1) 
C=C1c2ccccc2C(=O)N1Cc1nc(CC(C)C)nn1-c1cccnc1

$$$$
