
     RDKit          3D

 22 22  0  0  0  0  0  0  0  0999 V2000
   11.3229   -1.6133   23.1950 H   0  0  0  0  0  0  0  0  0  0  0  0
   10.2578   -1.8053   23.2204 C   0  0  0  0  0  0  0  0  0  0  0  0
    9.9365   -2.8222   22.9993 H   0  0  0  0  0  0  0  0  0  0  0  0
    9.3729   -0.8341   23.4303 C   0  0  0  0  0  0  0  0  0  0  0  0
    9.7010    0.1890   23.6054 H   0  0  0  0  0  0  0  0  0  0  0  0
    7.8827   -1.0423   23.3819 C   0  0  0  0  0  0  0  0  0  0  0  0
    7.4174   -0.6975   24.3108 H   0  0  0  0  0  0  0  0  0  0  0  0
    7.6582   -2.1096   23.2934 H   0  0  0  0  0  0  0  0  0  0  0  0
    7.2445   -0.3344   22.2775 N   0  0  0  0  0  0  0  0  0  0  0  0
    6.8149    0.5560   22.4436 H   0  0  0  0  0  0  0  0  0  0  0  0
    7.4118   -0.7244   20.9817 C   0  0  0  0  0  0  0  0  0  0  0  0
    8.1162   -1.6696   20.6755 O   0  0  0  0  0  0  0  0  0  0  0  0
    6.6602    0.0572   19.9543 C   0  0  0  0  0  0  0  0  0  0  0  0
    7.1744    0.0574   18.6518 C   0  0  0  0  0  0  0  0  0  0  0  0
    8.1092   -0.4412   18.4080 H   0  0  0  0  0  0  0  0  0  0  0  0
    6.5738    0.6592   17.6198 N   0  0  0  0  0  0  0  0  0  0  0  0
    5.4106    1.2841   17.8523 C   0  0  0  0  0  0  0  0  0  0  0  0
    4.9384    1.7715   17.0001 H   0  0  0  0  0  0  0  0  0  0  0  0
    4.7980    1.3132   19.1101 C   0  0  0  0  0  0  0  0  0  0  0  0
    3.8660    1.8456   19.2505 H   0  0  0  0  0  0  0  0  0  0  0  0
    5.4264    0.6839   20.1818 C   0  0  0  0  0  0  0  0  0  0  0  0
    4.9591    0.6476   21.1719 H   0  0  0  0  0  0  0  0  0  0  0  0
  1  2  1  0
  2  3  1  0
  2  4  2  3
  4  5  1  0
  4  6  1  0
  6  7  1  0
  6  8  1  0
  6  9  1  0
  9 10  1  0
  9 11  1  0
 11 12  2  0
 11 13  1  0
 13 14  2  0
 14 15  1  0
 14 16  1  0
 16 17  2  0
 17 18  1  0
 17 19  1  0
 19 20  1  0
 19 21  2  0
 21 22  1  0
 21 13  1  0
M  END
>  <cnnaffinity>  (1) 
-3.8504

>  <filename>  (1) 
C=CCNC(=O)c1cccnc1

$$$$
