
     RDKit          3D

 27 28  0  0  0  0  0  0  0  0999 V2000
    8.8543   -5.5331   27.2304 H   0  0  0  0  0  0  0  0  0  0  0  0
    9.0081   -4.6311   26.6371 C   0  0  0  0  0  0  0  0  0  0  0  0
    9.8160   -3.9666   26.9421 H   0  0  0  0  0  0  0  0  0  0  0  0
    8.2722   -4.3402   25.5645 C   0  0  0  0  0  0  0  0  0  0  0  0
    7.4617   -4.9852   25.2449 H   0  0  0  0  0  0  0  0  0  0  0  0
    8.5212   -3.1537   24.6956 C   0  0  0  0  0  0  0  0  0  0  0  0
    9.4277   -2.3603   24.8851 O   0  0  0  0  0  0  0  0  0  0  0  0
    7.6394   -3.0670   23.6463 N   0  0  0  0  0  0  0  0  0  0  0  0
    6.8149   -3.6314   23.7186 H   0  0  0  0  0  0  0  0  0  0  0  0
    7.6529   -2.1223   22.6422 C   0  0  0  0  0  0  0  0  0  0  0  0
    6.7029   -1.6808   21.7955 C   0  0  0  0  0  0  0  0  0  0  0  0
    5.6549   -1.9194   21.7364 H   0  0  0  0  0  0  0  0  0  0  0  0
    7.3175   -0.7240   20.9697 N   0  0  0  0  0  0  0  0  0  0  0  0
    6.6527   -0.0269   19.9072 C   0  0  0  0  0  0  0  0  0  0  0  0
    7.1777    0.0229   18.5963 C   0  0  0  0  0  0  0  0  0  0  0  0
    8.1328   -0.4536   18.3759 H   0  0  0  0  0  0  0  0  0  0  0  0
    6.5615    0.6453   17.5817 N   0  0  0  0  0  0  0  0  0  0  0  0
    5.4060    1.2800   17.8449 C   0  0  0  0  0  0  0  0  0  0  0  0
    4.9470    1.7982   17.0094 H   0  0  0  0  0  0  0  0  0  0  0  0
    4.8065    1.3035   19.1113 C   0  0  0  0  0  0  0  0  0  0  0  0
    3.8752    1.8473   19.2668 H   0  0  0  0  0  0  0  0  0  0  0  0
    5.4441    0.6338   20.1608 C   0  0  0  0  0  0  0  0  0  0  0  0
    5.0370    0.6367   21.1740 H   0  0  0  0  0  0  0  0  0  0  0  0
    8.6338   -0.5557   21.3676 C   0  0  0  0  0  0  0  0  0  0  0  0
    9.7970    0.5052   20.8624 S   0  0  0  0  0  0  0  0  0  0  0  0
    8.8083   -1.4620   22.3631 N   0  0  0  0  0  0  0  0  0  0  0  0
    9.6445   -1.4954   22.9226 H   0  0  0  0  0  0  0  0  0  0  0  0
  1  2  1  0
  2  3  1  0
  2  4  2  3
  4  5  1  0
  4  6  1  0
  6  7  2  0
  6  8  1  0
  8  9  1  0
  8 10  1  0
 10 11  2  0
 11 12  1  0
 11 13  1  0
 13 14  1  0
 14 15  2  0
 15 16  1  0
 15 17  1  0
 17 18  2  0
 18 19  1  0
 18 20  1  0
 20 21  1  0
 20 22  2  0
 22 23  1  0
 13 24  1  0
 24 25  2  0
 24 26  1  0
 26 27  1  0
 26 10  1  0
 22 14  1  0
M  END
>  <cnnaffinity>  (1) 
-5.0114

>  <filename>  (1) 
C=CC(=O)Nc1cn(-c2cccnc2)c(=S)[nH]1

$$$$
