
     RDKit          3D

 22 23  0  0  0  0  0  0  0  0999 V2000
   11.6252    1.1237   20.8292 H   0  0  0  0  0  0  0  0  0  0  0  0
   10.9259    0.3861   21.2170 C   0  0  0  0  0  0  0  0  0  0  0  0
   11.3304   -0.3394   21.9197 H   0  0  0  0  0  0  0  0  0  0  0  0
    9.6431    0.3489   20.8394 C   0  0  0  0  0  0  0  0  0  0  0  0
    9.2189    1.0271   20.1153 H   0  0  0  0  0  0  0  0  0  0  0  0
    8.6649   -0.5969   21.3770 C   0  0  0  0  0  0  0  0  0  0  0  0
    8.9275   -1.4260   22.3369 N   0  0  0  0  0  0  0  0  0  0  0  0
    7.7494   -2.0747   22.5507 N   0  0  0  0  0  0  0  0  0  0  0  0
    7.6076   -2.7728   23.2588 H   0  0  0  0  0  0  0  0  0  0  0  0
    6.7386   -1.7040   21.7241 C   0  0  0  0  0  0  0  0  0  0  0  0
    5.6279   -2.1924   21.6641 O   0  0  0  0  0  0  0  0  0  0  0  0
    7.3424   -0.6865   20.9506 N   0  0  0  0  0  0  0  0  0  0  0  0
    6.6738    0.0140   19.8968 C   0  0  0  0  0  0  0  0  0  0  0  0
    7.1806    0.0574   18.5765 C   0  0  0  0  0  0  0  0  0  0  0  0
    8.1251   -0.4340   18.3427 H   0  0  0  0  0  0  0  0  0  0  0  0
    6.5587    0.6704   17.5617 N   0  0  0  0  0  0  0  0  0  0  0  0
    5.4019    1.2951   17.8327 C   0  0  0  0  0  0  0  0  0  0  0  0
    4.9277    1.7970   16.9940 H   0  0  0  0  0  0  0  0  0  0  0  0
    4.8177    1.3116   19.1038 C   0  0  0  0  0  0  0  0  0  0  0  0
    3.8831    1.8371   19.2563 H   0  0  0  0  0  0  0  0  0  0  0  0
    5.4539    0.6450   20.1571 C   0  0  0  0  0  0  0  0  0  0  0  0
    5.0327    0.5880   21.1609 H   0  0  0  0  0  0  0  0  0  0  0  0
  1  2  1  0
  2  3  1  0
  2  4  2  3
  4  5  1  0
  4  6  1  0
  6  7  2  0
  7  8  1  0
  8  9  1  0
  8 10  1  0
 10 11  2  0
 10 12  1  0
 12 13  1  0
 13 14  2  0
 14 15  1  0
 14 16  1  0
 16 17  2  0
 17 18  1  0
 17 19  1  0
 19 20  1  0
 19 21  2  0
 21 22  1  0
 12  6  1  0
 21 13  1  0
M  END
>  <cnnaffinity>  (1) 
-3.97519

>  <filename>  (1) 
C=Cc1n[nH]c(=O)n1-c1cccnc1

$$$$
