
     RDKit          3D

 17 17  0  0  0  0  0  0  0  0999 V2000
    7.4872    1.3732   23.7117 H   0  0  0  0  0  0  0  0  0  0  0  0
    7.3838    1.0657   22.6732 C   0  0  0  0  0  0  0  0  0  0  0  0
    7.2080    1.8523   21.9380 H   0  0  0  0  0  0  0  0  0  0  0  0
    7.4767   -0.2261   22.3356 C   0  0  0  0  0  0  0  0  0  0  0  0
    7.6947   -0.9899   23.0764 H   0  0  0  0  0  0  0  0  0  0  0  0
    7.3899   -0.7672   20.9398 C   0  0  0  0  0  0  0  0  0  0  0  0
    7.9243   -1.8255   20.6639 O   0  0  0  0  0  0  0  0  0  0  0  0
    6.6557    0.0155   19.9080 C   0  0  0  0  0  0  0  0  0  0  0  0
    7.1747    0.0521   18.6064 C   0  0  0  0  0  0  0  0  0  0  0  0
    8.1189   -0.4398   18.3819 H   0  0  0  0  0  0  0  0  0  0  0  0
    6.5749    0.6765   17.5855 N   0  0  0  0  0  0  0  0  0  0  0  0
    5.4063    1.2904   17.8448 C   0  0  0  0  0  0  0  0  0  0  0  0
    4.9174    1.7749   17.0020 H   0  0  0  0  0  0  0  0  0  0  0  0
    4.7985    1.3104   19.1060 C   0  0  0  0  0  0  0  0  0  0  0  0
    3.8699    1.8455   19.2607 H   0  0  0  0  0  0  0  0  0  0  0  0
    5.4330    0.6594   20.1621 C   0  0  0  0  0  0  0  0  0  0  0  0
    4.9995    0.6368   21.1666 H   0  0  0  0  0  0  0  0  0  0  0  0
  1  2  1  0
  2  3  1  0
  2  4  2  3
  4  5  1  0
  4  6  1  0
  6  7  2  0
  6  8  1  0
  8  9  2  0
  9 10  1  0
  9 11  1  0
 11 12  2  0
 12 13  1  0
 12 14  1  0
 14 15  1  0
 14 16  2  0
 16 17  1  0
 16  8  1  0
M  END
>  <cnnaffinity>  (1) 
-3.51301

>  <filename>  (1) 
C=CC(=O)c1cccnc1

$$$$
