
     RDKit          3D

 28 29  0  0  0  0  0  0  0  0999 V2000
    8.2192   -4.3945   27.1845 H   0  0  0  0  0  0  0  0  0  0  0  0
    8.8125   -3.5126   26.9379 C   0  0  0  0  0  0  0  0  0  0  0  0
    9.8542   -3.5516   27.2590 H   0  0  0  0  0  0  0  0  0  0  0  0
    8.2720   -2.4571   26.3321 C   0  0  0  0  0  0  0  0  0  0  0  0
    7.2084   -2.4576   26.0853 H   0  0  0  0  0  0  0  0  0  0  0  0
    9.0194   -1.2083   25.9100 C   0  0  0  0  0  0  0  0  0  0  0  0
   10.0084   -1.4658   25.5115 H   0  0  0  0  0  0  0  0  0  0  0  0
    9.1852   -0.5198   26.7444 H   0  0  0  0  0  0  0  0  0  0  0  0
    8.3051   -0.4131   24.9477 O   0  0  0  0  0  0  0  0  0  0  0  0
    8.1991   -0.8588   23.6786 C   0  0  0  0  0  0  0  0  0  0  0  0
    7.4773    0.4033   22.6987 S   0  0  0  0  0  0  0  0  0  0  0  0
    7.2597   -0.4109   21.1575 C   0  0  0  0  0  0  0  0  0  0  0  0
    6.5882    0.3272   20.0564 C   0  0  0  0  0  0  0  0  0  0  0  0
    7.1703    0.3087   18.7717 C   0  0  0  0  0  0  0  0  0  0  0  0
    8.1604   -0.1201   18.6129 H   0  0  0  0  0  0  0  0  0  0  0  0
    6.5946    0.8123   17.6774 N   0  0  0  0  0  0  0  0  0  0  0  0
    5.3766    1.3515   17.8188 C   0  0  0  0  0  0  0  0  0  0  0  0
    4.9333    1.7491   16.9105 H   0  0  0  0  0  0  0  0  0  0  0  0
    4.7069    1.4352   19.0443 C   0  0  0  0  0  0  0  0  0  0  0  0
    3.7373    1.9146   19.0871 H   0  0  0  0  0  0  0  0  0  0  0  0
    5.3301    0.9343   20.1892 C   0  0  0  0  0  0  0  0  0  0  0  0
    4.8623    1.0139   21.1720 H   0  0  0  0  0  0  0  0  0  0  0  0
    7.6541   -1.6801   20.9454 C   0  0  0  0  0  0  0  0  0  0  0  0
    7.5292   -2.1191   19.9690 H   0  0  0  0  0  0  0  0  0  0  0  0
    8.2760   -2.5896   21.9137 C   0  0  0  0  0  0  0  0  0  0  0  0
    8.5241   -3.7459   21.6043 O   0  0  0  0  0  0  0  0  0  0  0  0
    8.5828   -2.0782   23.2392 C   0  0  0  0  0  0  0  0  0  0  0  0
    9.1094   -2.7860   23.8733 H   0  0  0  0  0  0  0  0  0  0  0  0
  1  2  1  0
  2  3  1  0
  2  4  2  3
  4  5  1  0
  4  6  1  0
  6  7  1  0
  6  8  1  0
  6  9  1  0
  9 10  1  0
 10 11  1  0
 11 12  1  0
 12 13  1  0
 13 14  2  0
 14 15  1  0
 14 16  1  0
 16 17  2  0
 17 18  1  0
 17 19  1  0
 19 20  1  0
 19 21  2  0
 21 22  1  0
 12 23  2  0
 23 24  1  0
 23 25  1  0
 25 26  2  0
 25 27  1  0
 27 28  1  0
 27 10  2  0
 21 13  1  0
M  END
>  <cnnaffinity>  (1) 
-4.9947

>  <filename>  (1) 
C=CCOc1cc(=O)cc(-c2cccnc2)s1

$$$$
