
     RDKit          3D

 26 27  0  0  0  0  0  0  0  0999 V2000
    2.5512   -5.2661   22.9449 H   0  0  0  0  0  0  0  0  0  0  0  0
    3.4866   -4.8430   23.3189 C   0  0  0  0  0  0  0  0  0  0  0  0
    3.7927   -5.1496   24.3219 H   0  0  0  0  0  0  0  0  0  0  0  0
    4.1834   -3.9801   22.5754 C   0  0  0  0  0  0  0  0  0  0  0  0
    3.7790   -3.6581   21.6283 H   0  0  0  0  0  0  0  0  0  0  0  0
    5.5045   -3.3516   22.9102 C   0  0  0  0  0  0  0  0  0  0  0  0
    6.1178   -3.5694   23.9245 O   0  0  0  0  0  0  0  0  0  0  0  0
    5.9144   -2.4754   21.9061 N   0  0  0  0  0  0  0  0  0  0  0  0
    5.2599   -2.2185   21.1958 H   0  0  0  0  0  0  0  0  0  0  0  0
    7.1072   -1.8134   21.8834 C   0  0  0  0  0  0  0  0  0  0  0  0
    8.1005   -2.0932   22.6691 N   0  0  0  0  0  0  0  0  0  0  0  0
    9.0363   -1.1710   22.2996 N   0  0  0  0  0  0  0  0  0  0  0  0
    9.9140   -1.0504   22.7780 H   0  0  0  0  0  0  0  0  0  0  0  0
    8.6639   -0.3243   21.3343 C   0  0  0  0  0  0  0  0  0  0  0  0
    9.5594    0.9408   20.7381 S   0  0  0  0  0  0  0  0  0  0  0  0
    7.3880   -0.7726   20.9938 N   0  0  0  0  0  0  0  0  0  0  0  0
    6.6249   -0.1493   19.9268 C   0  0  0  0  0  0  0  0  0  0  0  0
    7.1411   -0.0809   18.6091 C   0  0  0  0  0  0  0  0  0  0  0  0
    8.0904   -0.5588   18.3674 H   0  0  0  0  0  0  0  0  0  0  0  0
    6.5516    0.5877   17.6121 N   0  0  0  0  0  0  0  0  0  0  0  0
    5.4144    1.2491   17.8820 C   0  0  0  0  0  0  0  0  0  0  0  0
    4.9670    1.7936   17.0495 H   0  0  0  0  0  0  0  0  0  0  0  0
    4.8193    1.2492   19.1461 C   0  0  0  0  0  0  0  0  0  0  0  0
    3.9089    1.8187   19.3016 H   0  0  0  0  0  0  0  0  0  0  0  0
    5.4312    0.5323   20.1887 C   0  0  0  0  0  0  0  0  0  0  0  0
    5.0153    0.5428   21.1967 H   0  0  0  0  0  0  0  0  0  0  0  0
  1  2  1  0
  2  3  1  0
  2  4  2  3
  4  5  1  0
  4  6  1  0
  6  7  2  0
  6  8  1  0
  8  9  1  0
  8 10  1  0
 10 11  2  0
 11 12  1  0
 12 13  1  0
 12 14  1  0
 14 15  2  0
 14 16  1  0
 16 17  1  0
 17 18  2  0
 18 19  1  0
 18 20  1  0
 20 21  2  0
 21 22  1  0
 21 23  1  0
 23 24  1  0
 23 25  2  0
 25 26  1  0
 16 10  1  0
 25 17  1  0
M  END
>  <cnnaffinity>  (1) 
-4.29236

>  <filename>  (1) 
C=CC(=O)Nc1n[nH]c(=S)n1-c1cccnc1

$$$$
