
     RDKit          3D

 44 47  0  0  0  0  0  0  0  0999 V2000
    8.2022   -3.7523   25.9456 C   0  0  0  0  0  0  0  0  0  0  0  0
    7.6642   -2.7032   25.0051 C   0  0  2  0  0  0  0  0  0  0  0  0
    6.2575   -2.8335   24.4988 C   0  0  0  0  0  0  0  0  0  0  0  0
    7.4190   -3.0307   23.5564 C   0  0  1  0  0  0  0  0  0  0  0  0
    7.6763   -2.0240   22.4973 C   0  0  0  0  0  0  0  0  0  0  0  0
    6.7386   -1.6574   21.6417 N   0  0  0  0  0  0  0  0  0  0  0  0
    7.3457   -0.6769   20.9287 N   0  0  0  0  0  0  0  0  0  0  0  0
    6.6554    0.0098   19.8985 C   0  0  0  0  0  0  0  0  0  0  0  0
    5.4364    0.6408   20.1638 C   0  0  0  0  0  0  0  0  0  0  0  0
    4.8089    1.3059   19.1077 C   0  0  0  0  0  0  0  0  0  0  0  0
    5.3979    1.2943   17.8380 C   0  0  0  0  0  0  0  0  0  0  0  0
    6.5557    0.6695   17.5741 N   0  0  0  0  0  0  0  0  0  0  0  0
    7.1667    0.0535   18.5917 C   0  0  0  0  0  0  0  0  0  0  0  0
    8.1122   -0.4325   18.3628 H   0  0  0  0  0  0  0  0  0  0  0  0
    4.9204    1.7866   16.9957 H   0  0  0  0  0  0  0  0  0  0  0  0
    3.8795    1.8408   19.2564 H   0  0  0  0  0  0  0  0  0  0  0  0
    5.0192    0.6144   21.1749 H   0  0  0  0  0  0  0  0  0  0  0  0
    8.6058   -0.4985   21.4096 C   0  0  0  0  0  0  0  0  0  0  0  0
    9.5205    0.5899   20.9889 C   0  0  0  0  0  0  0  0  0  0  0  0
    9.3187    1.8725   21.7983 C   0  0  0  0  0  0  0  0  0  0  0  0
    8.0289    2.3951   21.4893 O   0  0  0  0  0  0  0  0  0  0  0  0
    7.5745    3.5380   22.0933 C   0  0  0  0  0  0  0  0  0  0  0  0
    6.3074    3.9992   21.6850 C   0  0  0  0  0  0  0  0  0  0  0  0
    5.7597    5.1555   22.2515 C   0  0  0  0  0  0  0  0  0  0  0  0
    6.4554    5.8709   23.2315 C   0  0  0  0  0  0  0  0  0  0  0  0
    7.7098    5.4155   23.6349 C   0  0  0  0  0  0  0  0  0  0  0  0
    8.2750    4.2595   23.0759 C   0  0  0  0  0  0  0  0  0  0  0  0
    9.2553    3.9245   23.3989 H   0  0  0  0  0  0  0  0  0  0  0  0
    8.2632    5.9637   24.3949 H   0  0  0  0  0  0  0  0  0  0  0  0
    6.0237    6.7713   23.6679 H   0  0  0  0  0  0  0  0  0  0  0  0
    4.7850    5.5069   21.9208 H   0  0  0  0  0  0  0  0  0  0  0  0
    5.7728    3.4531   20.9159 H   0  0  0  0  0  0  0  0  0  0  0  0
   10.1067    2.5984   21.5544 H   0  0  0  0  0  0  0  0  0  0  0  0
    9.3846    1.6280   22.8668 H   0  0  0  0  0  0  0  0  0  0  0  0
   10.5365    0.2221   21.1399 H   0  0  0  0  0  0  0  0  0  0  0  0
    9.4057    0.8008   19.9275 H   0  0  0  0  0  0  0  0  0  0  0  0
    8.8566   -1.3592   22.3736 N   0  0  0  0  0  0  0  0  0  0  0  0
    7.6539   -4.0439   23.2414 H   0  0  0  0  0  0  0  0  0  0  0  0
    5.6832   -3.7027   24.8125 H   0  0  0  0  0  0  0  0  0  0  0  0
    5.6587   -1.9375   24.3566 H   0  0  0  0  0  0  0  0  0  0  0  0
    8.0140   -1.6901   25.1944 H   0  0  0  0  0  0  0  0  0  0  0  0
    7.8730   -3.5585   26.9730 H   0  0  0  0  0  0  0  0  0  0  0  0
    9.2955   -3.8034   25.9285 H   0  0  0  0  0  0  0  0  0  0  0  0
    7.8141   -4.7358   25.6634 H   0  0  0  0  0  0  0  0  0  0  0  0
  1  2  1  0
  2  3  1  0
  3  4  1  0
  4  5  1  0
  5  6  2  0
  6  7  1  0
  7  8  1  0
  8  9  2  0
  9 10  1  0
 10 11  2  0
 11 12  1  0
 12 13  2  0
 13 14  1  0
 11 15  1  0
 10 16  1  0
  9 17  1  0
  7 18  1  0
 18 19  1  0
 19 20  1  0
 20 21  1  0
 21 22  1  0
 22 23  2  0
 23 24  1  0
 24 25  2  0
 25 26  1  0
 26 27  2  0
 27 28  1  0
 26 29  1  0
 25 30  1  0
 24 31  1  0
 23 32  1  0
 20 33  1  0
 20 34  1  0
 19 35  1  0
 19 36  1  0
 18 37  2  0
  4 38  1  6
  3 39  1  0
  3 40  1  0
  2 41  1  6
  1 42  1  0
  1 43  1  0
  1 44  1  0
  4  2  1  0
 37  5  1  0
 13  8  1  0
 27 22  1  0
M  END
>  <cnnaffinity>  (1) 
-5.87071

>  <filename>  (1) 
C[C@@H]1C[C@H]1c1nc(CCOc2ccccc2)n(-c2cccnc2)n1

$$$$
