
     RDKit          3D

 34 35  0  0  0  0  0  0  0  0999 V2000
    4.9670    1.7680   17.0016 H   0  0  0  0  0  0  0  0  0  0  0  0
    5.4141    1.2803   17.8643 C   0  0  0  0  0  0  0  0  0  0  0  0
    6.5773    0.6529   17.6380 N   0  0  0  0  0  0  0  0  0  0  0  0
    7.1757    0.0582   18.6731 C   0  0  0  0  0  0  0  0  0  0  0  0
    8.1081   -0.4539   18.4462 H   0  0  0  0  0  0  0  0  0  0  0  0
    6.6601    0.0556   19.9706 C   0  0  0  0  0  0  0  0  0  0  0  0
    7.4288   -0.7360   20.9739 C   0  0  0  0  0  0  0  0  0  0  0  0
    8.1644   -1.6591   20.6574 O   0  0  0  0  0  0  0  0  0  0  0  0
    7.2428   -0.3603   22.2644 N   0  0  0  0  0  0  0  0  0  0  0  0
    6.8370    0.5444   22.4434 H   0  0  0  0  0  0  0  0  0  0  0  0
    7.7351   -1.1483   23.3872 C   0  0  1  0  0  0  0  0  0  0  0  0
    8.7642   -1.4598   23.1506 H   0  0  0  0  0  0  0  0  0  0  0  0
    7.7645   -0.3207   24.6580 C   0  0  0  0  0  0  0  0  0  0  0  0
    8.9647   -0.2182   25.3710 C   0  0  0  0  0  0  0  0  0  0  0  0
    9.8768   -0.6751   24.9870 H   0  0  0  0  0  0  0  0  0  0  0  0
    9.0223    0.4433   26.5915 C   0  0  0  0  0  0  0  0  0  0  0  0
    9.9850    0.4276   27.0863 H   0  0  0  0  0  0  0  0  0  0  0  0
    7.8769    1.0508   27.1236 C   0  0  0  0  0  0  0  0  0  0  0  0
    7.9335    1.5979   28.0618 H   0  0  0  0  0  0  0  0  0  0  0  0
    6.6572    0.9546   26.4278 C   0  0  0  0  0  0  0  0  0  0  0  0
    5.3812    1.5337   27.0144 C   0  0  0  0  0  0  0  0  0  0  0  0
    4.7258    0.6361   27.7801 F   0  0  0  0  0  0  0  0  0  0  0  0
    4.5174    1.9219   26.0528 F   0  0  0  0  0  0  0  0  0  0  0  0
    5.6152    2.6100   27.7922 F   0  0  0  0  0  0  0  0  0  0  0  0
    6.6073    0.2570   25.2073 C   0  0  0  0  0  0  0  0  0  0  0  0
    5.6570    0.1262   24.6879 H   0  0  0  0  0  0  0  0  0  0  0  0
    6.8935   -2.4202   23.5689 C   0  0  0  0  0  0  0  0  0  0  0  0
    5.8452   -2.1584   23.7522 H   0  0  0  0  0  0  0  0  0  0  0  0
    7.2586   -2.9925   24.4284 H   0  0  0  0  0  0  0  0  0  0  0  0
    6.9515   -3.0335   22.6637 H   0  0  0  0  0  0  0  0  0  0  0  0
    5.4270    0.6927   20.1988 C   0  0  0  0  0  0  0  0  0  0  0  0
    4.9308    0.6708   21.1747 H   0  0  0  0  0  0  0  0  0  0  0  0
    4.8018    1.3169   19.1222 C   0  0  0  0  0  0  0  0  0  0  0  0
    3.8595    1.8447   19.2348 H   0  0  0  0  0  0  0  0  0  0  0  0
  1  2  1  0
  2  3  2  0
  3  4  1  0
  4  5  1  0
  4  6  2  0
  6  7  1  0
  7  8  2  0
  7  9  1  0
  9 10  1  0
  9 11  1  0
 11 12  1  6
 11 13  1  0
 13 14  2  0
 14 15  1  0
 14 16  1  0
 16 17  1  0
 16 18  2  0
 18 19  1  0
 18 20  1  0
 20 21  1  0
 21 22  1  0
 21 23  1  0
 21 24  1  0
 20 25  2  0
 25 26  1  0
 11 27  1  0
 27 28  1  0
 27 29  1  0
 27 30  1  0
  6 31  1  0
 31 32  1  0
 31 33  2  0
 33 34  1  0
 33  2  1  0
 25 13  1  0
M  END
>  <cnnaffinity>  (1) 
-4.74928

>  <filename>  (1) 
C[C@@H](NC(=O)c1cccnc1)c1cccc(C(F)(F)F)c1

$$$$
