
     RDKit          3D

 45 48  0  0  0  0  0  0  0  0999 V2000
    8.3162   -3.7445   25.9447 C   0  0  0  0  0  0  0  0  0  0  0  0
    7.7579   -2.6796   25.0265 C   0  0  2  0  0  0  0  0  0  0  0  0
    6.3095   -2.7117   24.6301 C   0  0  0  0  0  0  0  0  0  0  0  0
    7.3760   -3.0045   23.6057 C   0  0  1  0  0  0  0  0  0  0  0  0
    7.6180   -2.0154   22.5254 C   0  0  0  0  0  0  0  0  0  0  0  0
    6.6803   -1.6562   21.6640 N   0  0  0  0  0  0  0  0  0  0  0  0
    7.3094   -0.7253   20.9049 N   0  0  0  0  0  0  0  0  0  0  0  0
    6.6233   -0.0333   19.8685 C   0  0  0  0  0  0  0  0  0  0  0  0
    5.4199    0.6243   20.1398 C   0  0  0  0  0  0  0  0  0  0  0  0
    4.8015    1.3135   19.0931 C   0  0  0  0  0  0  0  0  0  0  0  0
    5.3908    1.3015   17.8236 C   0  0  0  0  0  0  0  0  0  0  0  0
    6.5320    0.6538   17.5531 N   0  0  0  0  0  0  0  0  0  0  0  0
    7.1329    0.0093   18.5575 C   0  0  0  0  0  0  0  0  0  0  0  0
    8.0699   -0.4959   18.3218 H   0  0  0  0  0  0  0  0  0  0  0  0
    4.9281    1.8311   16.9922 H   0  0  0  0  0  0  0  0  0  0  0  0
    3.8783    1.8562   19.2524 H   0  0  0  0  0  0  0  0  0  0  0  0
    5.0050    0.5925   21.1485 H   0  0  0  0  0  0  0  0  0  0  0  0
    8.5770   -0.5536   21.3779 C   0  0  0  0  0  0  0  0  0  0  0  0
    9.6031    0.3834   20.8419 C   0  0  0  0  0  0  0  0  0  0  0  0
   10.1974    1.2798   21.9099 C   0  0  0  0  0  0  0  0  0  0  0  0
   11.4691    0.9389   22.3949 C   0  0  0  0  0  0  0  0  0  0  0  0
   12.0759    1.6409   23.4355 C   0  0  0  0  0  0  0  0  0  0  0  0
   11.3927    2.7096   24.0164 C   0  0  0  0  0  0  0  0  0  0  0  0
   10.1146    3.0534   23.5791 C   0  0  0  0  0  0  0  0  0  0  0  0
    9.5193    2.3625   22.5075 C   0  0  0  0  0  0  0  0  0  0  0  0
    7.7701    2.7460   22.1239 S   0  0  0  0  0  0  0  0  0  0  0  0
    7.0147    2.5952   23.4212 O   0  0  0  0  0  0  0  0  0  0  0  0
    7.7923    4.5508   21.8974 C   0  0  0  0  0  0  0  0  0  0  0  0
    6.7455    4.8429   21.7640 H   0  0  0  0  0  0  0  0  0  0  0  0
    8.3652    4.8675   21.0346 H   0  0  0  0  0  0  0  0  0  0  0  0
    8.1617    5.0448   22.7970 H   0  0  0  0  0  0  0  0  0  0  0  0
    9.5742    3.8419   24.0979 H   0  0  0  0  0  0  0  0  0  0  0  0
   11.8535    3.2673   24.8206 H   0  0  0  0  0  0  0  0  0  0  0  0
   13.0509    1.3355   23.8051 H   0  0  0  0  0  0  0  0  0  0  0  0
   11.9871    0.0954   21.9456 H   0  0  0  0  0  0  0  0  0  0  0  0
    9.1974    0.9590   20.0118 H   0  0  0  0  0  0  0  0  0  0  0  0
   10.3930   -0.2623   20.4477 H   0  0  0  0  0  0  0  0  0  0  0  0
    8.8096   -1.3843   22.3707 N   0  0  0  0  0  0  0  0  0  0  0  0
    7.5198   -4.0371   23.2917 H   0  0  0  0  0  0  0  0  0  0  0  0
    5.7809   -1.7642   24.5314 H   0  0  0  0  0  0  0  0  0  0  0  0
    5.7003   -3.5419   24.9840 H   0  0  0  0  0  0  0  0  0  0  0  0
    8.1916   -1.6872   25.1576 H   0  0  0  0  0  0  0  0  0  0  0  0
    9.4017   -3.8353   25.8288 H   0  0  0  0  0  0  0  0  0  0  0  0
    8.0995   -3.5055   26.9940 H   0  0  0  0  0  0  0  0  0  0  0  0
    7.8739   -4.7264   25.7374 H   0  0  0  0  0  0  0  0  0  0  0  0
  1  2  1  0
  2  3  1  0
  3  4  1  0
  4  5  1  0
  5  6  2  0
  6  7  1  0
  7  8  1  0
  8  9  2  0
  9 10  1  0
 10 11  2  0
 11 12  1  0
 12 13  2  0
 13 14  1  0
 11 15  1  0
 10 16  1  0
  9 17  1  0
  7 18  1  0
 18 19  1  0
 19 20  1  0
 20 21  2  0
 21 22  1  0
 22 23  2  0
 23 24  1  0
 24 25  2  0
 25 26  1  0
 26 27  2  0
 26 28  1  0
 28 29  1  0
 28 30  1  0
 28 31  1  0
 24 32  1  0
 23 33  1  0
 22 34  1  0
 21 35  1  0
 19 36  1  0
 19 37  1  0
 18 38  2  0
  4 39  1  6
  3 40  1  0
  3 41  1  0
  2 42  1  6
  1 43  1  0
  1 44  1  0
  1 45  1  0
  4  2  1  0
 38  5  1  0
 13  8  1  0
 25 20  1  0
M  END
>  <cnnaffinity>  (1) 
-6.42387

>  <filename>  (1) 
C[C@@H]1C[C@H]1c1nc(Cc2ccccc2S(C)=O)n(-c2cccnc2)n1

$$$$
