
     RDKit          3D

 43 46  0  0  0  0  0  0  0  0999 V2000
    6.0633   -5.1803   24.0548 C   0  0  0  0  0  0  0  0  0  0  0  0
    7.0694   -4.4536   23.1919 C   0  0  2  0  0  0  0  0  0  0  0  0
    8.4731   -4.2092   23.6696 C   0  0  0  0  0  0  0  0  0  0  0  0
    7.5095   -3.0530   23.5525 C   0  0  1  0  0  0  0  0  0  0  0  0
    7.6938   -2.0029   22.5213 C   0  0  0  0  0  0  0  0  0  0  0  0
    6.7298   -1.6097   21.7091 N   0  0  0  0  0  0  0  0  0  0  0  0
    7.3418   -0.6680   20.9457 N   0  0  0  0  0  0  0  0  0  0  0  0
    6.6462   -0.0065   19.8963 C   0  0  0  0  0  0  0  0  0  0  0  0
    5.4326    0.6402   20.1509 C   0  0  0  0  0  0  0  0  0  0  0  0
    4.8199    1.3172   19.0908 C   0  0  0  0  0  0  0  0  0  0  0  0
    5.4264    1.3089   17.8282 C   0  0  0  0  0  0  0  0  0  0  0  0
    6.5702    0.6585   17.5691 N   0  0  0  0  0  0  0  0  0  0  0  0
    7.1567    0.0166   18.5860 C   0  0  0  0  0  0  0  0  0  0  0  0
    8.0754   -0.5177   18.3539 H   0  0  0  0  0  0  0  0  0  0  0  0
    4.9738    1.8313   16.9886 H   0  0  0  0  0  0  0  0  0  0  0  0
    3.8854    1.8479   19.2320 H   0  0  0  0  0  0  0  0  0  0  0  0
    4.9992    0.5997   21.1515 H   0  0  0  0  0  0  0  0  0  0  0  0
    8.6187   -0.4912   21.3908 C   0  0  0  0  0  0  0  0  0  0  0  0
    9.4652    0.6468   20.9096 C   0  0  0  0  0  0  0  0  0  0  0  0
    8.8679    2.0211   21.2674 C   0  0  0  0  0  0  0  0  0  0  0  0
    8.5190    2.1904   23.0531 S   0  0  0  0  0  0  0  0  0  0  0  0
   10.2303    2.2400   23.5560 C   0  0  0  0  0  0  0  0  0  0  0  0
   10.9218    1.0614   23.8748 C   0  0  0  0  0  0  0  0  0  0  0  0
   12.3189    1.1094   23.9442 C   0  0  0  0  0  0  0  0  0  0  0  0
   12.9458    2.3315   23.6900 C   0  0  0  0  0  0  0  0  0  0  0  0
   12.1546    3.4567   23.4707 C   0  0  0  0  0  0  0  0  0  0  0  0
   10.8218    3.4317   23.4255 N   0  0  0  0  0  0  0  0  0  0  0  0
   12.6073    4.4313   23.3027 H   0  0  0  0  0  0  0  0  0  0  0  0
   14.0243    2.4211   23.6717 H   0  0  0  0  0  0  0  0  0  0  0  0
   12.9037    0.2218   24.1733 H   0  0  0  0  0  0  0  0  0  0  0  0
   10.3795    0.1254   23.9355 H   0  0  0  0  0  0  0  0  0  0  0  0
    9.5579    2.8204   20.9813 H   0  0  0  0  0  0  0  0  0  0  0  0
    7.9299    2.2023   20.7324 H   0  0  0  0  0  0  0  0  0  0  0  0
    9.5713    0.5764   19.8244 H   0  0  0  0  0  0  0  0  0  0  0  0
   10.4644    0.5424   21.3415 H   0  0  0  0  0  0  0  0  0  0  0  0
    8.8801   -1.3487   22.3538 N   0  0  0  0  0  0  0  0  0  0  0  0
    7.1207   -2.6376   24.4843 H   0  0  0  0  0  0  0  0  0  0  0  0
    8.7535   -4.5338   24.6701 H   0  0  0  0  0  0  0  0  0  0  0  0
    9.2867   -4.2603   22.9508 H   0  0  0  0  0  0  0  0  0  0  0  0
    6.9598   -4.6505   22.1246 H   0  0  0  0  0  0  0  0  0  0  0  0
    6.2199   -4.9874   25.1219 H   0  0  0  0  0  0  0  0  0  0  0  0
    6.1358   -6.2621   23.9048 H   0  0  0  0  0  0  0  0  0  0  0  0
    5.0399   -4.8763   23.8098 H   0  0  0  0  0  0  0  0  0  0  0  0
  1  2  1  0
  2  3  1  0
  3  4  1  0
  4  5  1  0
  5  6  2  0
  6  7  1  0
  7  8  1  0
  8  9  2  0
  9 10  1  0
 10 11  2  0
 11 12  1  0
 12 13  2  0
 13 14  1  0
 11 15  1  0
 10 16  1  0
  9 17  1  0
  7 18  1  0
 18 19  1  0
 19 20  1  0
 20 21  1  0
 21 22  1  0
 22 23  2  0
 23 24  1  0
 24 25  2  0
 25 26  1  0
 26 27  2  0
 26 28  1  0
 25 29  1  0
 24 30  1  0
 23 31  1  0
 20 32  1  0
 20 33  1  0
 19 34  1  0
 19 35  1  0
 18 36  2  0
  4 37  1  1
  3 38  1  0
  3 39  1  0
  2 40  1  6
  1 41  1  0
  1 42  1  0
  1 43  1  0
  4  2  1  0
 36  5  1  0
 13  8  1  0
 27 22  1  0
M  END
>  <cnnaffinity>  (1) 
-6.25408

>  <filename>  (1) 
C[C@@H]1C[C@H]1c1nc(CCSc2ccccn2)n(-c2cccnc2)n1

$$$$
