
     RDKit          3D

 44 47  0  0  0  0  0  0  0  0999 V2000
    7.4272   -6.1145   22.5631 C   0  0  0  0  0  0  0  0  0  0  0  0
    8.1554   -4.8272   22.2583 C   0  0  2  0  0  0  0  0  0  0  0  0
    9.1151   -4.2284   23.2578 C   0  0  0  0  0  0  0  0  0  0  0  0
    7.7969   -3.5525   22.9815 C   0  0  1  0  0  0  0  0  0  0  0  0
    7.7704   -2.2421   22.2835 C   0  0  0  0  0  0  0  0  0  0  0  0
    7.0213   -2.0208   21.2218 N   0  0  0  0  0  0  0  0  0  0  0  0
    7.2725   -0.7234   20.9419 N   0  0  0  0  0  0  0  0  0  0  0  0
    6.5996   -0.0435   19.8889 C   0  0  0  0  0  0  0  0  0  0  0  0
    5.4136    0.6522   20.1403 C   0  0  0  0  0  0  0  0  0  0  0  0
    4.8240    1.3339   19.0719 C   0  0  0  0  0  0  0  0  0  0  0  0
    5.4476    1.3025   17.8187 C   0  0  0  0  0  0  0  0  0  0  0  0
    6.5946    0.6393   17.5830 N   0  0  0  0  0  0  0  0  0  0  0  0
    7.1557   -0.0233   18.6021 C   0  0  0  0  0  0  0  0  0  0  0  0
    8.1146   -0.5058   18.4075 H   0  0  0  0  0  0  0  0  0  0  0  0
    5.0202    1.8314   16.9736 H   0  0  0  0  0  0  0  0  0  0  0  0
    3.9030    1.8901   19.2036 H   0  0  0  0  0  0  0  0  0  0  0  0
    4.9744    0.6581   21.1438 H   0  0  0  0  0  0  0  0  0  0  0  0
    8.1516   -0.2188   21.8504 C   0  0  0  0  0  0  0  0  0  0  0  0
    8.6246    1.2299   21.7825 C   0  0  0  0  0  0  0  0  0  0  0  0
    8.6177    1.7748   20.4799 O   0  0  0  0  0  0  0  0  0  0  0  0
    7.7454    2.1609   20.2977 H   0  0  0  0  0  0  0  0  0  0  0  0
    7.8552    2.1988   22.7220 C   0  0  0  0  0  0  0  0  0  0  0  0
    8.0081    1.8202   24.1685 C   0  0  0  0  0  0  0  0  0  0  0  0
    9.2608    2.0291   24.7661 C   0  0  0  0  0  0  0  0  0  0  0  0
    9.5845    1.4878   26.0041 C   0  0  0  0  0  0  0  0  0  0  0  0
    8.6158    0.7697   26.7151 C   0  0  0  0  0  0  0  0  0  0  0  0
    7.3385    0.5909   26.1749 C   0  0  0  0  0  0  0  0  0  0  0  0
    7.0456    1.1121   24.9083 C   0  0  0  0  0  0  0  0  0  0  0  0
    5.4449    0.8452   24.2537 Cl  0  0  0  0  0  0  0  0  0  0  0  0
    6.5621    0.0557   26.7128 H   0  0  0  0  0  0  0  0  0  0  0  0
    8.8530    0.3576   27.6922 H   0  0  0  0  0  0  0  0  0  0  0  0
   10.5983    1.6066   26.3738 H   0  0  0  0  0  0  0  0  0  0  0  0
   10.0049    2.6107   24.2299 H   0  0  0  0  0  0  0  0  0  0  0  0
    6.8021    2.2248   22.4228 H   0  0  0  0  0  0  0  0  0  0  0  0
    8.2615    3.2037   22.5535 H   0  0  0  0  0  0  0  0  0  0  0  0
    9.6779    1.1875   22.0841 H   0  0  0  0  0  0  0  0  0  0  0  0
    8.4959   -1.1674   22.7085 N   0  0  0  0  0  0  0  0  0  0  0  0
    7.0301   -3.6344   23.7516 H   0  0  0  0  0  0  0  0  0  0  0  0
   10.0111   -3.7316   22.8919 H   0  0  0  0  0  0  0  0  0  0  0  0
    9.2538   -4.7190   24.2217 H   0  0  0  0  0  0  0  0  0  0  0  0
    8.4077   -4.7073   21.2069 H   0  0  0  0  0  0  0  0  0  0  0  0
    8.0024   -6.9819   22.2214 H   0  0  0  0  0  0  0  0  0  0  0  0
    6.4490   -6.1477   22.0714 H   0  0  0  0  0  0  0  0  0  0  0  0
    7.2617   -6.2300   23.6383 H   0  0  0  0  0  0  0  0  0  0  0  0
  1  2  1  0
  2  3  1  0
  3  4  1  0
  4  5  1  0
  5  6  2  0
  6  7  1  0
  7  8  1  0
  8  9  2  0
  9 10  1  0
 10 11  2  0
 11 12  1  0
 12 13  2  0
 13 14  1  0
 11 15  1  0
 10 16  1  0
  9 17  1  0
  7 18  1  0
 18 19  1  0
 19 20  1  0
 20 21  1  0
 19 22  1  0
 22 23  1  0
 23 24  2  0
 24 25  1  0
 25 26  2  0
 26 27  1  0
 27 28  2  0
 28 29  1  0
 27 30  1  0
 26 31  1  0
 25 32  1  0
 24 33  1  0
 22 34  1  0
 22 35  1  0
 19 36  1  0
 18 37  2  0
  4 38  1  1
  3 39  1  0
  3 40  1  0
  2 41  1  6
  1 42  1  0
  1 43  1  0
  1 44  1  0
  4  2  1  0
 37  5  1  0
 13  8  1  0
 28 23  1  0
M  END
>  <cnnaffinity>  (1) 
-5.85007

>  <filename>  (1) 
C[C@@H]1C[C@H]1c1nc(C(O)Cc2ccccc2Cl)n(-c2cccnc2)n1

$$$$
