
     RDKit          3D

 37 38  0  0  0  0  0  0  0  0999 V2000
    4.9652    1.8490   16.8453 H   0  0  0  0  0  0  0  0  0  0  0  0
    5.3790    1.3304   17.7105 C   0  0  0  0  0  0  0  0  0  0  0  0
    6.5335    0.6751   17.5187 N   0  0  0  0  0  0  0  0  0  0  0  0
    7.0893    0.0701   18.5835 C   0  0  0  0  0  0  0  0  0  0  0  0
    8.0294   -0.4413   18.3912 H   0  0  0  0  0  0  0  0  0  0  0  0
    6.5464    0.0821   19.9041 C   0  0  0  0  0  0  0  0  0  0  0  0
    7.1369   -0.4955   21.0426 N   0  0  0  0  0  0  0  0  0  0  0  0
    6.7664   -0.0944   21.8967 H   0  0  0  0  0  0  0  0  0  0  0  0
    8.5774   -0.7594   21.1299 C   0  0  1  0  0  0  0  0  0  0  0  0
    8.8163   -1.3919   20.2622 H   0  0  0  0  0  0  0  0  0  0  0  0
    9.4315    0.5032   21.0186 C   0  0  0  0  0  0  0  0  0  0  0  0
   10.4879    0.2262   20.9633 H   0  0  0  0  0  0  0  0  0  0  0  0
    9.1796    1.0501   20.1086 H   0  0  0  0  0  0  0  0  0  0  0  0
    9.2781    1.1774   21.8701 H   0  0  0  0  0  0  0  0  0  0  0  0
    8.8992   -1.6355   22.3694 C   0  0  0  0  0  0  0  0  0  0  0  0
    8.2070   -2.4921   22.2674 H   0  0  0  0  0  0  0  0  0  0  0  0
   10.3501   -2.1754   22.3641 C   0  0  0  0  0  0  0  0  0  0  0  0
   10.6365   -2.5354   21.3677 H   0  0  0  0  0  0  0  0  0  0  0  0
   11.0612   -1.3758   22.6282 H   0  0  0  0  0  0  0  0  0  0  0  0
   10.4708   -3.3158   23.3765 C   0  0  0  0  0  0  0  0  0  0  0  0
   11.5014   -3.6865   23.4158 H   0  0  0  0  0  0  0  0  0  0  0  0
    9.8107   -4.1368   23.0154 H   0  0  0  0  0  0  0  0  0  0  0  0
   10.1213   -2.9147   24.7381 N   0  0  0  0  0  0  0  0  0  0  0  0
   10.1144   -4.0857   25.6113 C   0  0  0  0  0  0  0  0  0  0  0  0
    9.4061   -4.8562   25.2518 H   0  0  0  0  0  0  0  0  0  0  0  0
    9.8399   -3.8209   26.6375 H   0  0  0  0  0  0  0  0  0  0  0  0
   11.1100   -4.5418   25.6649 H   0  0  0  0  0  0  0  0  0  0  0  0
    8.8543   -2.1814   24.8393 C   0  0  0  0  0  0  0  0  0  0  0  0
    8.7992   -1.7686   25.8542 H   0  0  0  0  0  0  0  0  0  0  0  0
    7.9869   -2.8637   24.7289 H   0  0  0  0  0  0  0  0  0  0  0  0
    8.6964   -1.0528   23.7939 C   0  0  0  0  0  0  0  0  0  0  0  0
    9.4428   -0.2702   24.0011 H   0  0  0  0  0  0  0  0  0  0  0  0
    7.7122   -0.5836   23.9393 H   0  0  0  0  0  0  0  0  0  0  0  0
    5.2979    0.7202   20.0490 C   0  0  0  0  0  0  0  0  0  0  0  0
    4.8103    0.7141   21.0237 H   0  0  0  0  0  0  0  0  0  0  0  0
    4.7215    1.3575   18.9462 C   0  0  0  0  0  0  0  0  0  0  0  0
    3.7839    1.8979   19.0412 H   0  0  0  0  0  0  0  0  0  0  0  0
  1  2  1  0
  2  3  2  0
  3  4  1  0
  4  5  1  0
  4  6  2  0
  6  7  1  0
  7  8  1  0
  7  9  1  0
  9 10  1  6
  9 11  1  0
 11 12  1  0
 11 13  1  0
 11 14  1  0
  9 15  1  0
 15 16  1  0
 15 17  1  0
 17 18  1  0
 17 19  1  0
 17 20  1  0
 20 21  1  0
 20 22  1  0
 20 23  1  0
 23 24  1  0
 24 25  1  0
 24 26  1  0
 24 27  1  0
 23 28  1  0
 28 29  1  0
 28 30  1  0
 28 31  1  0
 31 32  1  0
 31 33  1  0
  6 34  1  0
 34 35  1  0
 34 36  2  0
 36 37  1  0
 36  2  1  0
 31 15  1  0
M  END
>  <cnnaffinity>  (1) 
-4.4342

>  <filename>  (1) 
C[C@H](Nc1cccnc1)C1CCN(C)CC1

$$$$
