
     RDKit          3D

 39 41  0  0  0  0  0  0  0  0999 V2000
    8.1573    1.3549   25.6832 C   0  0  0  0  0  0  0  0  0  0  0  0
    7.7290    2.7556   25.2130 C   0  0  1  0  0  0  0  0  0  0  0  0
    8.1151    3.8805   26.1665 C   0  0  0  0  0  0  0  0  0  0  0  0
    7.6354    4.2716   27.4205 C   0  0  0  0  0  0  0  0  0  0  0  0
    8.2116    5.3845   28.0556 C   0  0  0  0  0  0  0  0  0  0  0  0
    9.2895    6.0593   27.4598 C   0  0  0  0  0  0  0  0  0  0  0  0
    9.7841    5.6687   26.2107 C   0  0  0  0  0  0  0  0  0  0  0  0
    9.1362    4.6197   25.5690 C   0  0  0  0  0  0  0  0  0  0  0  0
    9.4317    4.2118   24.3080 O   0  0  0  0  0  0  0  0  0  0  0  0
    8.4044    3.2822   23.8992 C   0  0  1  0  0  0  0  0  0  0  0  0
    9.0848    2.3074   22.9533 C   0  0  0  0  0  0  0  0  0  0  0  0
    8.1501    1.3383   22.4019 N   0  0  0  0  0  0  0  0  0  0  0  0
    8.5817    0.3367   21.5831 C   0  0  0  0  0  0  0  0  0  0  0  0
    9.7566    0.2049   21.3000 O   0  0  0  0  0  0  0  0  0  0  0  0
    7.4449   -0.6051   20.9800 C   0  0  0  0  0  0  0  0  0  0  0  0
    6.6132   -0.9970   22.0018 F   0  0  0  0  0  0  0  0  0  0  0  0
    8.0294   -1.7343   20.5072 F   0  0  0  0  0  0  0  0  0  0  0  0
    6.6051    0.0089   19.8794 C   0  0  0  0  0  0  0  0  0  0  0  0
    5.3878    0.6621   20.1145 C   0  0  0  0  0  0  0  0  0  0  0  0
    4.7918    1.3311   19.0450 C   0  0  0  0  0  0  0  0  0  0  0  0
    5.4118    1.3022   17.7919 C   0  0  0  0  0  0  0  0  0  0  0  0
    6.5463    0.6299   17.5489 N   0  0  0  0  0  0  0  0  0  0  0  0
    7.1147   -0.0073   18.5734 C   0  0  0  0  0  0  0  0  0  0  0  0
    8.0309   -0.5517   18.3577 H   0  0  0  0  0  0  0  0  0  0  0  0
    4.9705    1.8229   16.9425 H   0  0  0  0  0  0  0  0  0  0  0  0
    3.8636    1.8742   19.1682 H   0  0  0  0  0  0  0  0  0  0  0  0
    4.9105    0.6365   21.0968 H   0  0  0  0  0  0  0  0  0  0  0  0
    7.1674    1.4404   22.5907 H   0  0  0  0  0  0  0  0  0  0  0  0
    9.5554    2.8867   22.1468 H   0  0  0  0  0  0  0  0  0  0  0  0
    9.8985    1.7963   23.4820 H   0  0  0  0  0  0  0  0  0  0  0  0
    7.6383    3.8427   23.3358 H   0  0  0  0  0  0  0  0  0  0  0  0
   10.6017    6.1707   25.7015 H   0  0  0  0  0  0  0  0  0  0  0  0
    9.7388    6.9112   27.9617 H   0  0  0  0  0  0  0  0  0  0  0  0
    7.8405    5.7078   29.0262 H   0  0  0  0  0  0  0  0  0  0  0  0
    6.8239    3.7341   27.9095 H   0  0  0  0  0  0  0  0  0  0  0  0
    6.6403    2.7206   25.0552 H   0  0  0  0  0  0  0  0  0  0  0  0
    9.2424    1.2812   25.8040 H   0  0  0  0  0  0  0  0  0  0  0  0
    7.7048    1.1341   26.6557 H   0  0  0  0  0  0  0  0  0  0  0  0
    7.8343    0.5852   24.9739 H   0  0  0  0  0  0  0  0  0  0  0  0
  1  2  1  0
  2  3  1  0
  3  4  2  0
  4  5  1  0
  5  6  2  0
  6  7  1  0
  7  8  2  0
  8  9  1  0
  9 10  1  0
 10 11  1  0
 11 12  1  0
 12 13  1  0
 13 14  2  0
 13 15  1  0
 15 16  1  0
 15 17  1  0
 15 18  1  0
 18 19  2  0
 19 20  1  0
 20 21  2  0
 21 22  1  0
 22 23  2  0
 23 24  1  0
 21 25  1  0
 20 26  1  0
 19 27  1  0
 12 28  1  0
 11 29  1  0
 11 30  1  0
 10 31  1  6
  7 32  1  0
  6 33  1  0
  5 34  1  0
  4 35  1  0
  2 36  1  6
  1 37  1  0
  1 38  1  0
  1 39  1  0
 10  2  1  0
 23 18  1  0
  8  3  1  0
M  END
>  <cnnaffinity>  (1) 
-4.75289

>  <filename>  (1) 
C[C@H]1c2ccccc2O[C@H]1CNC(=O)C(F)(F)c1cccnc1

$$$$
