
     RDKit          3D

 51 54  0  0  0  0  0  0  0  0999 V2000
    9.4157    5.7372   23.7554 C   0  0  0  0  0  0  0  0  0  0  0  0
    9.1947    4.5991   22.7481 C   0  0  2  0  0  0  0  0  0  0  0  0
    8.0394    3.6268   23.0522 C   0  0  0  0  0  0  0  0  0  0  0  0
    8.0688    2.4325   22.0840 C   0  0  0  0  0  0  0  0  0  0  0  0
    9.4465    1.7655   22.0726 C   0  0  1  0  0  0  0  0  0  0  0  0
    9.5789    0.6045   21.0768 C   0  0  0  0  0  0  0  0  0  0  0  0
    8.6425   -0.5031   21.4055 C   0  0  0  0  0  0  0  0  0  0  0  0
    8.8450   -1.3541   22.3936 N   0  0  0  0  0  0  0  0  0  0  0  0
    7.6544   -1.9961   22.5021 C   0  0  0  0  0  0  0  0  0  0  0  0
    7.4089   -3.0200   23.5895 C   0  0  0  0  0  0  0  0  0  0  0  0
    6.7795   -4.3265   23.0141 C   0  0  0  0  0  0  0  0  0  0  0  0
    5.2633   -4.3044   23.0128 C   0  0  0  0  0  0  0  0  0  0  0  0
    4.6146   -3.8202   24.0726 C   0  0  0  0  0  0  0  0  0  0  0  0
    5.4053   -3.2830   25.2502 C   0  0  0  0  0  0  0  0  0  0  0  0
    6.5844   -2.4044   24.7758 C   0  0  0  0  0  0  0  0  0  0  0  0
    7.2514   -2.1846   25.6203 H   0  0  0  0  0  0  0  0  0  0  0  0
    6.1589   -1.4443   24.4606 H   0  0  0  0  0  0  0  0  0  0  0  0
    4.7604   -2.7031   25.9173 H   0  0  0  0  0  0  0  0  0  0  0  0
    5.7884   -4.1255   25.8475 H   0  0  0  0  0  0  0  0  0  0  0  0
    3.5255   -3.8427   24.1194 H   0  0  0  0  0  0  0  0  0  0  0  0
    4.7275   -4.7251   22.1605 H   0  0  0  0  0  0  0  0  0  0  0  0
    7.1212   -5.1635   23.6459 H   0  0  0  0  0  0  0  0  0  0  0  0
    7.1691   -4.5274   22.0124 H   0  0  0  0  0  0  0  0  0  0  0  0
    8.4098   -3.2614   23.9501 H   0  0  0  0  0  0  0  0  0  0  0  0
    6.7369   -1.6144   21.6374 N   0  0  0  0  0  0  0  0  0  0  0  0
    7.3886   -0.6797   20.8930 N   0  0  0  0  0  0  0  0  0  0  0  0
    6.6842   -0.0173   19.8451 C   0  0  0  0  0  0  0  0  0  0  0  0
    5.4673    0.6099   20.1275 C   0  0  0  0  0  0  0  0  0  0  0  0
    4.8342    1.2996   19.0907 C   0  0  0  0  0  0  0  0  0  0  0  0
    5.4101    1.3128   17.8141 C   0  0  0  0  0  0  0  0  0  0  0  0
    6.5486    0.6625   17.5249 N   0  0  0  0  0  0  0  0  0  0  0  0
    7.1588    0.0080   18.5215 C   0  0  0  0  0  0  0  0  0  0  0  0
    8.0624   -0.5377   18.2553 H   0  0  0  0  0  0  0  0  0  0  0  0
    4.9319    1.8476   16.9947 H   0  0  0  0  0  0  0  0  0  0  0  0
    3.9019    1.8212   19.2638 H   0  0  0  0  0  0  0  0  0  0  0  0
    5.0384    0.5377   21.1312 H   0  0  0  0  0  0  0  0  0  0  0  0
   10.5993    0.2208   21.1471 H   0  0  0  0  0  0  0  0  0  0  0  0
    9.4192    0.9595   20.0587 H   0  0  0  0  0  0  0  0  0  0  0  0
   10.4304    2.7086   21.6896 O   0  0  0  0  0  0  0  0  0  0  0  0
   10.5177    3.8128   22.5782 C   0  0  0  0  0  0  0  0  0  0  0  0
   10.8887    3.4772   23.5648 H   0  0  0  0  0  0  0  0  0  0  0  0
   11.2754    4.4831   22.1562 H   0  0  0  0  0  0  0  0  0  0  0  0
    9.6754    1.3848   23.0848 H   0  0  0  0  0  0  0  0  0  0  0  0
    7.8579    2.7697   21.0648 H   0  0  0  0  0  0  0  0  0  0  0  0
    7.2900    1.7035   22.3317 H   0  0  0  0  0  0  0  0  0  0  0  0
    8.1137    3.2551   24.0837 H   0  0  0  0  0  0  0  0  0  0  0  0
    7.0689    4.1322   22.9634 H   0  0  0  0  0  0  0  0  0  0  0  0
    8.9509    5.0775   21.7912 H   0  0  0  0  0  0  0  0  0  0  0  0
    9.6478    5.3597   24.7570 H   0  0  0  0  0  0  0  0  0  0  0  0
    8.5585    6.4132   23.8383 H   0  0  0  0  0  0  0  0  0  0  0  0
   10.2668    6.3536   23.4393 H   0  0  0  0  0  0  0  0  0  0  0  0
  1  2  1  0
  2  3  1  0
  3  4  1  0
  4  5  1  0
  5  6  1  0
  6  7  1  0
  7  8  2  0
  8  9  1  0
  9 10  1  0
 10 11  1  0
 11 12  1  0
 12 13  2  0
 13 14  1  0
 14 15  1  0
 15 16  1  0
 15 17  1  0
 14 18  1  0
 14 19  1  0
 13 20  1  0
 12 21  1  0
 11 22  1  0
 11 23  1  0
 10 24  1  0
  9 25  2  0
 25 26  1  0
 26 27  1  0
 27 28  2  0
 28 29  1  0
 29 30  2  0
 30 31  1  0
 31 32  2  0
 32 33  1  0
 30 34  1  0
 29 35  1  0
 28 36  1  0
  6 37  1  0
  6 38  1  0
  5 39  1  0
 39 40  1  0
 40 41  1  0
 40 42  1  0
  5 43  1  1
  4 44  1  0
  4 45  1  0
  3 46  1  0
  3 47  1  0
  2 48  1  6
  1 49  1  0
  1 50  1  0
  1 51  1  0
 40  2  1  0
 26  7  1  0
 32 27  1  0
 15 10  1  0
M  END
>  <cnnaffinity>  (1) 
-6.12884

>  <filename>  (1) 
C[C@@H]1CC[C@@H](Cc2nc(C3CC=CCC3)nn2-c2cccnc2)OC1

$$$$
