
     RDKit          3D

 40 41  0  0  0  0  0  0  0  0999 V2000
    4.9751    1.8669   16.9233 H   0  0  0  0  0  0  0  0  0  0  0  0
    5.4261    1.3384   17.7629 C   0  0  0  0  0  0  0  0  0  0  0  0
    6.5725    0.6923   17.5134 N   0  0  0  0  0  0  0  0  0  0  0  0
    7.1407    0.0530   18.5478 C   0  0  0  0  0  0  0  0  0  0  0  0
    8.0622   -0.4840   18.3259 H   0  0  0  0  0  0  0  0  0  0  0  0
    6.6336    0.0279   19.8504 C   0  0  0  0  0  0  0  0  0  0  0  0
    7.4165   -0.7000   20.9329 C   0  0  2  0  0  0  0  0  0  0  0  0
    8.3084   -1.1400   20.4477 H   0  0  0  0  0  0  0  0  0  0  0  0
    6.5930   -1.7548   21.5429 N   0  0  0  0  0  0  0  0  0  0  0  0
    5.9623   -2.6879   20.6156 C   0  0  0  0  0  0  0  0  0  0  0  0
    5.1518   -3.2182   21.1326 H   0  0  0  0  0  0  0  0  0  0  0  0
    6.6598   -3.4451   20.2128 H   0  0  0  0  0  0  0  0  0  0  0  0
    5.5124   -2.1613   19.7701 H   0  0  0  0  0  0  0  0  0  0  0  0
    7.1579   -2.4241   22.7174 C   0  0  0  0  0  0  0  0  0  0  0  0
    8.2481   -2.2750   22.8086 H   0  0  0  0  0  0  0  0  0  0  0  0
    7.0509   -3.5142   22.6328 H   0  0  0  0  0  0  0  0  0  0  0  0
    6.4990   -2.0023   24.0561 C   0  0  0  0  0  0  0  0  0  0  0  0
    5.4561   -2.3516   24.0663 H   0  0  0  0  0  0  0  0  0  0  0  0
    6.4519   -0.9066   24.1066 H   0  0  0  0  0  0  0  0  0  0  0  0
    7.1755   -2.5036   25.2474 N   0  0  0  0  0  0  0  0  0  0  0  0
    8.4389   -1.8460   25.5972 C   0  0  0  0  0  0  0  0  0  0  0  0
    8.2374   -0.9954   26.2599 H   0  0  0  0  0  0  0  0  0  0  0  0
    8.9582   -1.4354   24.7193 H   0  0  0  0  0  0  0  0  0  0  0  0
    9.3018   -2.9288   26.2631 C   0  0  0  0  0  0  0  0  0  0  0  0
   10.0954   -3.2552   25.5727 H   0  0  0  0  0  0  0  0  0  0  0  0
    9.7722   -2.5576   27.1781 H   0  0  0  0  0  0  0  0  0  0  0  0
    8.3198   -4.0742   26.5151 C   0  0  0  0  0  0  0  0  0  0  0  0
    7.7668   -3.9315   27.4481 H   0  0  0  0  0  0  0  0  0  0  0  0
    8.8107   -5.0454   26.5628 H   0  0  0  0  0  0  0  0  0  0  0  0
    7.3498   -3.9493   25.3497 C   0  0  0  0  0  0  0  0  0  0  0  0
    7.8061   -4.3861   24.4408 H   0  0  0  0  0  0  0  0  0  0  0  0
    6.3978   -4.4669   25.5335 H   0  0  0  0  0  0  0  0  0  0  0  0
    7.9205    0.2997   21.9823 C   0  0  0  0  0  0  0  0  0  0  0  0
    8.5373   -0.1992   22.7363 H   0  0  0  0  0  0  0  0  0  0  0  0
    7.0785    0.7815   22.4895 H   0  0  0  0  0  0  0  0  0  0  0  0
    8.5357    1.0789   21.5222 H   0  0  0  0  0  0  0  0  0  0  0  0
    5.4143    0.6785   20.0831 C   0  0  0  0  0  0  0  0  0  0  0  0
    4.9435    0.6622   21.0718 H   0  0  0  0  0  0  0  0  0  0  0  0
    4.8022    1.3445   19.0166 C   0  0  0  0  0  0  0  0  0  0  0  0
    3.8625    1.8714   19.1411 H   0  0  0  0  0  0  0  0  0  0  0  0
  1  2  1  0
  2  3  2  0
  3  4  1  0
  4  5  1  0
  4  6  2  0
  6  7  1  0
  7  8  1  6
  7  9  1  0
  9 10  1  0
 10 11  1  0
 10 12  1  0
 10 13  1  0
  9 14  1  0
 14 15  1  0
 14 16  1  0
 14 17  1  0
 17 18  1  0
 17 19  1  0
 17 20  1  0
 20 21  1  0
 21 22  1  0
 21 23  1  0
 21 24  1  0
 24 25  1  0
 24 26  1  0
 24 27  1  0
 27 28  1  0
 27 29  1  0
 27 30  1  0
 30 31  1  0
 30 32  1  0
  7 33  1  0
 33 34  1  0
 33 35  1  0
 33 36  1  0
  6 37  1  0
 37 38  1  0
 37 39  2  0
 39 40  1  0
 39  2  1  0
 30 20  1  0
M  END
>  <cnnaffinity>  (1) 
-4.20838

>  <filename>  (1) 
C[C@H](c1cccnc1)N(C)CCN1CCCC1

$$$$
