
     RDKit          3D

 34 35  0  0  0  0  0  0  0  0999 V2000
    4.9692    1.7669   17.0109 H   0  0  0  0  0  0  0  0  0  0  0  0
    5.4172    1.2726   17.8702 C   0  0  0  0  0  0  0  0  0  0  0  0
    6.5794    0.6469   17.6378 N   0  0  0  0  0  0  0  0  0  0  0  0
    7.1752    0.0351   18.6678 C   0  0  0  0  0  0  0  0  0  0  0  0
    8.1247   -0.4505   18.4519 H   0  0  0  0  0  0  0  0  0  0  0  0
    6.6337    0.0033   19.9600 C   0  0  0  0  0  0  0  0  0  0  0  0
    7.4031   -0.7313   21.0001 C   0  0  0  0  0  0  0  0  0  0  0  0
    8.4758   -1.2498   20.7960 O   0  0  0  0  0  0  0  0  0  0  0  0
    6.7648   -0.7555   22.1927 O   0  0  0  0  0  0  0  0  0  0  0  0
    7.4731   -1.3202   23.3239 C   0  0  1  0  0  0  0  0  0  0  0  0
    7.8392   -2.3131   23.0359 H   0  0  0  0  0  0  0  0  0  0  0  0
    8.6665   -0.4537   23.7333 C   0  0  0  0  0  0  0  0  0  0  0  0
    9.8608   -1.0510   24.1615 C   0  0  0  0  0  0  0  0  0  0  0  0
    9.9547   -2.1309   24.1399 H   0  0  0  0  0  0  0  0  0  0  0  0
   10.9304   -0.2638   24.6229 C   0  0  0  0  0  0  0  0  0  0  0  0
   11.8447   -0.6817   25.0285 H   0  0  0  0  0  0  0  0  0  0  0  0
   10.8155    1.1215   24.6037 C   0  0  0  0  0  0  0  0  0  0  0  0
   11.6385    1.7664   24.8964 H   0  0  0  0  0  0  0  0  0  0  0  0
    9.6200    1.7049   24.1991 C   0  0  0  0  0  0  0  0  0  0  0  0
    9.6287    3.0899   24.2752 O   0  0  0  0  0  0  0  0  0  0  0  0
    8.5556    3.8218   23.9397 C   0  0  0  0  0  0  0  0  0  0  0  0
    8.8986    5.0933   24.1011 F   0  0  0  0  0  0  0  0  0  0  0  0
    8.1708    3.6294   22.6674 F   0  0  0  0  0  0  0  0  0  0  0  0
    7.4880    3.5588   24.7126 F   0  0  0  0  0  0  0  0  0  0  0  0
    8.5311    0.9419   23.7837 C   0  0  0  0  0  0  0  0  0  0  0  0
    7.5862    1.4161   23.5261 H   0  0  0  0  0  0  0  0  0  0  0  0
    6.4678   -1.4319   24.4627 C   0  0  0  0  0  0  0  0  0  0  0  0
    6.9652   -1.8824   25.3290 H   0  0  0  0  0  0  0  0  0  0  0  0
    6.0979   -0.4388   24.7542 H   0  0  0  0  0  0  0  0  0  0  0  0
    5.6207   -2.0679   24.1888 H   0  0  0  0  0  0  0  0  0  0  0  0
    5.4167    0.6621   20.1944 C   0  0  0  0  0  0  0  0  0  0  0  0
    4.9654    0.6666   21.1860 H   0  0  0  0  0  0  0  0  0  0  0  0
    4.8009    1.3077   19.1259 C   0  0  0  0  0  0  0  0  0  0  0  0
    3.8686    1.8464   19.2420 H   0  0  0  0  0  0  0  0  0  0  0  0
  1  2  1  0
  2  3  2  0
  3  4  1  0
  4  5  1  0
  4  6  2  0
  6  7  1  0
  7  8  2  0
  7  9  1  0
  9 10  1  0
 10 11  1  6
 10 12  1  0
 12 13  2  0
 13 14  1  0
 13 15  1  0
 15 16  1  0
 15 17  2  0
 17 18  1  0
 17 19  1  0
 19 20  1  0
 20 21  1  0
 21 22  1  0
 21 23  1  0
 21 24  1  0
 19 25  2  0
 25 26  1  0
 10 27  1  0
 27 28  1  0
 27 29  1  0
 27 30  1  0
  6 31  1  0
 31 32  1  0
 31 33  2  0
 33 34  1  0
 33  2  1  0
 25 12  1  0
M  END
>  <cnnaffinity>  (1) 
-4.8358

>  <filename>  (1) 
C[C@@H](OC(=O)c1cccnc1)c1cccc(OC(F)(F)F)c1

$$$$
