
     RDKit          3D

 42 45  0  0  0  0  0  0  0  0999 V2000
    8.2726   -3.6133   26.0115 C   0  0  0  0  0  0  0  0  0  0  0  0
    7.7188   -2.5816   25.0533 C   0  0  2  0  0  0  0  0  0  0  0  0
    6.2944   -2.7095   24.5853 C   0  0  0  0  0  0  0  0  0  0  0  0
    7.4295   -2.9606   23.6205 C   0  0  1  0  0  0  0  0  0  0  0  0
    7.6832   -1.9899   22.5262 C   0  0  0  0  0  0  0  0  0  0  0  0
    6.7484   -1.6276   21.6677 N   0  0  0  0  0  0  0  0  0  0  0  0
    7.3658   -0.6649   20.9362 N   0  0  0  0  0  0  0  0  0  0  0  0
    6.6639    0.0117   19.9005 C   0  0  0  0  0  0  0  0  0  0  0  0
    5.4428    0.6425   20.1642 C   0  0  0  0  0  0  0  0  0  0  0  0
    4.8126    1.3091   19.1086 C   0  0  0  0  0  0  0  0  0  0  0  0
    5.4003    1.2957   17.8374 C   0  0  0  0  0  0  0  0  0  0  0  0
    6.5574    0.6710   17.5757 N   0  0  0  0  0  0  0  0  0  0  0  0
    7.1695    0.0523   18.5899 C   0  0  0  0  0  0  0  0  0  0  0  0
    8.1104   -0.4405   18.3608 H   0  0  0  0  0  0  0  0  0  0  0  0
    4.9259    1.7941   16.9938 H   0  0  0  0  0  0  0  0  0  0  0  0
    3.8799    1.8385   19.2577 H   0  0  0  0  0  0  0  0  0  0  0  0
    5.0192    0.6017   21.1689 H   0  0  0  0  0  0  0  0  0  0  0  0
    8.6386   -0.5016   21.4063 C   0  0  0  0  0  0  0  0  0  0  0  0
    9.5374    0.5937   20.9413 C   0  0  0  0  0  0  0  0  0  0  0  0
    9.0590    2.0010   21.3481 C   0  0  0  0  0  0  0  0  0  0  0  0
    8.8919    2.1732   22.8721 C   0  0  0  0  0  0  0  0  0  0  0  0
   10.1815    1.9956   23.6251 C   0  0  0  0  0  0  0  0  0  0  0  0
   11.2748    2.7950   23.5624 C   0  0  0  0  0  0  0  0  0  0  0  0
   12.3848    2.3892   24.2597 N   0  0  0  0  0  0  0  0  0  0  0  0
   12.1362    1.2726   24.8703 C   0  0  0  0  0  0  0  0  0  0  0  0
   10.5439    0.6534   24.6462 S   0  0  0  0  0  0  0  0  0  0  0  0
   12.8505    0.7580   25.4994 H   0  0  0  0  0  0  0  0  0  0  0  0
   11.3233    3.7290   23.0106 H   0  0  0  0  0  0  0  0  0  0  0  0
    8.1428    1.4623   23.2448 H   0  0  0  0  0  0  0  0  0  0  0  0
    8.5070    3.1804   23.0748 H   0  0  0  0  0  0  0  0  0  0  0  0
    8.1056    2.2209   20.8533 H   0  0  0  0  0  0  0  0  0  0  0  0
    9.7824    2.7339   20.9770 H   0  0  0  0  0  0  0  0  0  0  0  0
   10.5352    0.3873   21.3427 H   0  0  0  0  0  0  0  0  0  0  0  0
    9.6021    0.5338   19.8543 H   0  0  0  0  0  0  0  0  0  0  0  0
    8.8781   -1.3602   22.3715 N   0  0  0  0  0  0  0  0  0  0  0  0
    7.6579   -3.9856   23.3204 H   0  0  0  0  0  0  0  0  0  0  0  0
    5.7037   -1.8060   24.4323 H   0  0  0  0  0  0  0  0  0  0  0  0
    5.7115   -3.5621   24.9352 H   0  0  0  0  0  0  0  0  0  0  0  0
    8.1028   -1.5653   25.1964 H   0  0  0  0  0  0  0  0  0  0  0  0
    7.8715   -4.6076   25.7740 H   0  0  0  0  0  0  0  0  0  0  0  0
    9.3669   -3.6704   25.9706 H   0  0  0  0  0  0  0  0  0  0  0  0
    7.9767   -3.3798   27.0420 H   0  0  0  0  0  0  0  0  0  0  0  0
  1  2  1  0
  2  3  1  0
  3  4  1  0
  4  5  1  0
  5  6  2  0
  6  7  1  0
  7  8  1  0
  8  9  2  0
  9 10  1  0
 10 11  2  0
 11 12  1  0
 12 13  2  0
 13 14  1  0
 11 15  1  0
 10 16  1  0
  9 17  1  0
  7 18  1  0
 18 19  1  0
 19 20  1  0
 20 21  1  0
 21 22  1  0
 22 23  2  0
 23 24  1  0
 24 25  2  0
 25 26  1  0
 25 27  1  0
 23 28  1  0
 21 29  1  0
 21 30  1  0
 20 31  1  0
 20 32  1  0
 19 33  1  0
 19 34  1  0
 18 35  2  0
  4 36  1  6
  3 37  1  0
  3 38  1  0
  2 39  1  6
  1 40  1  0
  1 41  1  0
  1 42  1  0
  4  2  1  0
 35  5  1  0
 13  8  1  0
 26 22  1  0
M  END
>  <cnnaffinity>  (1) 
-6.2299

>  <filename>  (1) 
C[C@@H]1C[C@H]1c1nc(CCCc2cncs2)n(-c2cccnc2)n1

$$$$
