
     RDKit          3D

 42 45  0  0  0  0  0  0  0  0999 V2000
    6.0578   -5.1844   24.0159 C   0  0  0  0  0  0  0  0  0  0  0  0
    6.9981   -4.4005   23.1194 C   0  0  2  0  0  0  0  0  0  0  0  0
    8.4206   -4.2001   23.6173 C   0  0  0  0  0  0  0  0  0  0  0  0
    7.4487   -3.0236   23.5746 C   0  0  1  0  0  0  0  0  0  0  0  0
    7.6484   -1.9621   22.5395 C   0  0  0  0  0  0  0  0  0  0  0  0
    6.7146   -1.6529   21.6731 N   0  0  0  0  0  0  0  0  0  0  0  0
    7.3100   -0.6976   20.9288 N   0  0  0  0  0  0  0  0  0  0  0  0
    6.6657    0.0036   19.9078 C   0  0  0  0  0  0  0  0  0  0  0  0
    5.4480    0.6414   20.1614 C   0  0  0  0  0  0  0  0  0  0  0  0
    4.8205    1.3052   19.1047 C   0  0  0  0  0  0  0  0  0  0  0  0
    5.4019    1.2958   17.8289 C   0  0  0  0  0  0  0  0  0  0  0  0
    6.5748    0.6789   17.5842 N   0  0  0  0  0  0  0  0  0  0  0  0
    7.1906    0.0600   18.6051 C   0  0  0  0  0  0  0  0  0  0  0  0
    8.1302   -0.4403   18.4004 H   0  0  0  0  0  0  0  0  0  0  0  0
    4.8890    1.7934   17.0131 H   0  0  0  0  0  0  0  0  0  0  0  0
    3.8833    1.8324   19.2604 H   0  0  0  0  0  0  0  0  0  0  0  0
    5.0080    0.6259   21.1641 H   0  0  0  0  0  0  0  0  0  0  0  0
    8.5902   -0.4739   21.4167 C   0  0  0  0  0  0  0  0  0  0  0  0
    9.5336    0.6045   20.9711 C   0  0  0  0  0  0  0  0  0  0  0  0
    9.2083    1.9195   21.7045 C   0  0  0  0  0  0  0  0  0  0  0  0
    9.4982    1.7972   23.1796 C   0  0  0  0  0  0  0  0  0  0  0  0
   10.8166    1.8584   23.6176 C   0  0  0  0  0  0  0  0  0  0  0  0
   11.1132    1.7272   24.9695 C   0  0  0  0  0  0  0  0  0  0  0  0
   10.1677    1.5488   25.8987 N   0  0  0  0  0  0  0  0  0  0  0  0
    8.8889    1.4907   25.4910 C   0  0  0  0  0  0  0  0  0  0  0  0
    8.5043    1.6112   24.1484 C   0  0  0  0  0  0  0  0  0  0  0  0
    6.6443    1.5106   23.6928 Br  0  0  0  0  0  0  0  0  0  0  0  0
    8.1176    1.3409   26.2390 H   0  0  0  0  0  0  0  0  0  0  0  0
   12.1499    1.7753   25.2781 H   0  0  0  0  0  0  0  0  0  0  0  0
   11.6230    2.0023   22.9113 H   0  0  0  0  0  0  0  0  0  0  0  0
    8.1595    2.1934   21.5464 H   0  0  0  0  0  0  0  0  0  0  0  0
    9.8244    2.7213   21.2888 H   0  0  0  0  0  0  0  0  0  0  0  0
   10.5659    0.3004   21.1852 H   0  0  0  0  0  0  0  0  0  0  0  0
    9.4291    0.7452   19.8921 H   0  0  0  0  0  0  0  0  0  0  0  0
    8.8446   -1.2806   22.4023 N   0  0  0  0  0  0  0  0  0  0  0  0
    7.0724   -2.6673   24.5352 H   0  0  0  0  0  0  0  0  0  0  0  0
    8.6794   -4.6195   24.5942 H   0  0  0  0  0  0  0  0  0  0  0  0
    9.2243   -4.2099   22.8789 H   0  0  0  0  0  0  0  0  0  0  0  0
    6.8695   -4.5554   22.0447 H   0  0  0  0  0  0  0  0  0  0  0  0
    6.2628   -4.9557   25.0656 H   0  0  0  0  0  0  0  0  0  0  0  0
    5.0190   -4.9217   23.7989 H   0  0  0  0  0  0  0  0  0  0  0  0
    6.2001   -6.2575   23.8613 H   0  0  0  0  0  0  0  0  0  0  0  0
  1  2  1  0
  2  3  1  0
  3  4  1  0
  4  5  1  0
  5  6  2  0
  6  7  1  0
  7  8  1  0
  8  9  2  0
  9 10  1  0
 10 11  2  0
 11 12  1  0
 12 13  2  0
 13 14  1  0
 11 15  1  0
 10 16  1  0
  9 17  1  0
  7 18  1  0
 18 19  1  0
 19 20  1  0
 20 21  1  0
 21 22  2  0
 22 23  1  0
 23 24  2  0
 24 25  1  0
 25 26  2  0
 26 27  1  0
 25 28  1  0
 23 29  1  0
 22 30  1  0
 20 31  1  0
 20 32  1  0
 19 33  1  0
 19 34  1  0
 18 35  2  0
  4 36  1  1
  3 37  1  0
  3 38  1  0
  2 39  1  6
  1 40  1  0
  1 41  1  0
  1 42  1  0
  4  2  1  0
 35  5  1  0
 13  8  1  0
 26 21  1  0
M  END
>  <cnnaffinity>  (1) 
-6.33369

>  <filename>  (1) 
C[C@@H]1C[C@H]1c1nc(CCc2ccncc2Br)n(-c2cccnc2)n1

$$$$
