
     RDKit          3D

 40 42  0  0  0  0  0  0  0  0999 V2000
   10.4665   -1.2904   21.8889 H   0  0  0  0  0  0  0  0  0  0  0  0
    9.3829   -1.3127   21.9214 C   0  0  0  0  0  0  0  0  0  0  0  0
    8.7569   -0.6898   20.9210 N   0  0  0  0  0  0  0  0  0  0  0  0
    7.4251   -0.7050   20.9699 C   0  0  0  0  0  0  0  0  0  0  0  0
    6.6765    0.0112   19.9167 C   0  0  0  0  0  0  0  0  0  0  0  0
    7.1869    0.0613   18.6113 C   0  0  0  0  0  0  0  0  0  0  0  0
    8.1276   -0.4246   18.3704 H   0  0  0  0  0  0  0  0  0  0  0  0
    6.5676    0.6655   17.5922 N   0  0  0  0  0  0  0  0  0  0  0  0
    5.4064    1.2853   17.8492 C   0  0  0  0  0  0  0  0  0  0  0  0
    4.9225    1.7737   17.0049 H   0  0  0  0  0  0  0  0  0  0  0  0
    4.8124    1.3066   19.1150 C   0  0  0  0  0  0  0  0  0  0  0  0
    3.8798    1.8384   19.2626 H   0  0  0  0  0  0  0  0  0  0  0  0
    5.4475    0.6463   20.1642 C   0  0  0  0  0  0  0  0  0  0  0  0
    5.0020    0.6423   21.1629 H   0  0  0  0  0  0  0  0  0  0  0  0
    6.7493   -1.3852   21.9755 C   0  0  0  0  0  0  0  0  0  0  0  0
    5.6799   -1.4395   21.9609 H   0  0  0  0  0  0  0  0  0  0  0  0
    7.4998   -2.0100   22.9611 C   0  0  0  0  0  0  0  0  0  0  0  0
    6.8198   -2.7080   24.0970 C   0  0  0  0  0  0  0  0  0  0  0  0
    5.9838   -3.3133   23.7259 H   0  0  0  0  0  0  0  0  0  0  0  0
    7.5213   -3.3973   24.5688 H   0  0  0  0  0  0  0  0  0  0  0  0
    6.2791   -1.7162   25.1256 C   0  0  0  0  0  0  0  0  0  0  0  0
    5.4985   -1.1072   24.6534 H   0  0  0  0  0  0  0  0  0  0  0  0
    5.7669   -2.2668   25.9428 H   0  0  0  0  0  0  0  0  0  0  0  0
    7.3101   -0.8377   25.6594 N   0  0  0  0  0  0  0  0  0  0  0  0
    8.2462   -1.5187   26.5548 C   0  0  0  0  0  0  0  0  0  0  0  0
    7.7237   -2.2671   27.1813 H   0  0  0  0  0  0  0  0  0  0  0  0
    9.0236   -2.0433   25.9836 H   0  0  0  0  0  0  0  0  0  0  0  0
    8.8258   -0.4184   27.4396 C   0  0  0  0  0  0  0  0  0  0  0  0
    9.1322   -0.7999   28.4170 H   0  0  0  0  0  0  0  0  0  0  0  0
    9.7111    0.0224   26.9725 H   0  0  0  0  0  0  0  0  0  0  0  0
    7.6953    0.6080   27.5530 C   0  0  0  0  0  0  0  0  0  0  0  0
    7.1179    0.4704   28.4725 H   0  0  0  0  0  0  0  0  0  0  0  0
    8.0871    1.6304   27.5820 H   0  0  0  0  0  0  0  0  0  0  0  0
    6.7943    0.3688   26.3231 C   0  0  1  0  0  0  0  0  0  0  0  0
    5.7626    0.2020   26.6749 H   0  0  0  0  0  0  0  0  0  0  0  0
    6.7812    1.5481   25.3601 C   0  0  0  0  0  0  0  0  0  0  0  0
    6.4050    2.4468   25.8631 H   0  0  0  0  0  0  0  0  0  0  0  0
    6.1469    1.3424   24.4916 H   0  0  0  0  0  0  0  0  0  0  0  0
    7.7961    1.7488   25.0000 H   0  0  0  0  0  0  0  0  0  0  0  0
    8.8342   -1.9759   22.9378 N   0  0  0  0  0  0  0  0  0  0  0  0
  1  2  1  0
  2  3  2  0
  3  4  1  0
  4  5  1  0
  5  6  2  0
  6  7  1  0
  6  8  1  0
  8  9  2  0
  9 10  1  0
  9 11  1  0
 11 12  1  0
 11 13  2  0
 13 14  1  0
  4 15  2  0
 15 16  1  0
 15 17  1  0
 17 18  1  0
 18 19  1  0
 18 20  1  0
 18 21  1  0
 21 22  1  0
 21 23  1  0
 21 24  1  0
 24 25  1  0
 25 26  1  0
 25 27  1  0
 25 28  1  0
 28 29  1  0
 28 30  1  0
 28 31  1  0
 31 32  1  0
 31 33  1  0
 31 34  1  0
 34 35  1  1
 34 36  1  0
 36 37  1  0
 36 38  1  0
 36 39  1  0
 17 40  2  0
 40  2  1  0
 13  5  1  0
 34 24  1  0
M  END
>  <cnnaffinity>  (1) 
-4.78375

>  <filename>  (1) 
C[C@@H]1CCCN1CCc1cc(-c2cccnc2)ncn1

$$$$
