
     RDKit          3D

 33 34  0  0  0  0  0  0  0  0999 V2000
    5.4054    1.8399   17.4577 H   0  0  0  0  0  0  0  0  0  0  0  0
    5.7926    1.1789   18.2298 C   0  0  0  0  0  0  0  0  0  0  0  0
    6.9161    0.5128   17.9245 N   0  0  0  0  0  0  0  0  0  0  0  0
    7.3991   -0.3137   18.8656 C   0  0  0  0  0  0  0  0  0  0  0  0
    8.3283   -0.8321   18.6205 H   0  0  0  0  0  0  0  0  0  0  0  0
    6.7965   -0.5499   20.1119 C   0  0  0  0  0  0  0  0  0  0  0  0
    7.3476   -1.5730   21.0897 C   0  0  2  0  0  0  0  0  0  0  0  0
    8.2668   -1.9933   20.6596 H   0  0  0  0  0  0  0  0  0  0  0  0
    6.3155   -2.7028   21.2274 C   0  0  0  0  0  0  0  0  0  0  0  0
    6.6868   -3.5227   21.8518 H   0  0  0  0  0  0  0  0  0  0  0  0
    6.0738   -3.0976   20.2327 H   0  0  0  0  0  0  0  0  0  0  0  0
    5.3766   -2.3300   21.6555 H   0  0  0  0  0  0  0  0  0  0  0  0
    7.7616   -0.9266   22.4445 C   0  0  0  0  0  0  0  0  0  0  0  0
    8.1149   -1.6933   23.1387 H   0  0  0  0  0  0  0  0  0  0  0  0
    6.8933   -0.4454   22.9163 H   0  0  0  0  0  0  0  0  0  0  0  0
    8.8096    0.1549   22.2449 C   0  0  0  0  0  0  0  0  0  0  0  0
    8.3603    1.4459   21.9219 C   0  0  0  0  0  0  0  0  0  0  0  0
    7.2887    1.6295   21.9453 H   0  0  0  0  0  0  0  0  0  0  0  0
    9.2330    2.4402   21.4846 C   0  0  0  0  0  0  0  0  0  0  0  0
    8.8284    3.4177   21.2349 H   0  0  0  0  0  0  0  0  0  0  0  0
   10.6005    2.1630   21.3686 C   0  0  0  0  0  0  0  0  0  0  0  0
   11.2928    2.9144   20.9944 H   0  0  0  0  0  0  0  0  0  0  0  0
   11.0770    0.9027   21.7380 C   0  0  0  0  0  0  0  0  0  0  0  0
   12.1392    0.6877   21.6689 H   0  0  0  0  0  0  0  0  0  0  0  0
   10.1981   -0.0885   22.2211 C   0  0  0  0  0  0  0  0  0  0  0  0
   10.7652   -1.4020   22.7276 C   0  0  0  0  0  0  0  0  0  0  0  0
   10.5947   -1.5434   24.0613 F   0  0  0  0  0  0  0  0  0  0  0  0
   10.1762   -2.4726   22.1492 F   0  0  0  0  0  0  0  0  0  0  0  0
   12.0794   -1.5374   22.4738 F   0  0  0  0  0  0  0  0  0  0  0  0
    5.6398    0.1836   20.4124 C   0  0  0  0  0  0  0  0  0  0  0  0
    5.1668    0.0923   21.3969 H   0  0  0  0  0  0  0  0  0  0  0  0
    5.1266    1.0595   19.4547 C   0  0  0  0  0  0  0  0  0  0  0  0
    4.2413    1.6533   19.6571 H   0  0  0  0  0  0  0  0  0  0  0  0
  1  2  1  0
  2  3  2  0
  3  4  1  0
  4  5  1  0
  4  6  2  0
  6  7  1  0
  7  8  1  6
  7  9  1  0
  9 10  1  0
  9 11  1  0
  9 12  1  0
  7 13  1  0
 13 14  1  0
 13 15  1  0
 13 16  1  0
 16 17  2  0
 17 18  1  0
 17 19  1  0
 19 20  1  0
 19 21  2  0
 21 22  1  0
 21 23  1  0
 23 24  1  0
 23 25  2  0
 25 26  1  0
 26 27  1  0
 26 28  1  0
 26 29  1  0
  6 30  1  0
 30 31  1  0
 30 32  2  0
 32 33  1  0
 32  2  1  0
 25 16  1  0
M  END
>  <cnnaffinity>  (1) 
-4.79045

>  <filename>  (1) 
C[C@H](Cc1ccccc1C(F)(F)F)c1cccnc1

$$$$
