
     RDKit          3D

 34 35  0  0  0  0  0  0  0  0999 V2000
    5.0276    1.7866   17.0478 H   0  0  0  0  0  0  0  0  0  0  0  0
    5.4810    1.3106   17.9172 C   0  0  0  0  0  0  0  0  0  0  0  0
    6.6428    0.6749   17.7052 N   0  0  0  0  0  0  0  0  0  0  0  0
    7.2120    0.0814   18.7579 C   0  0  0  0  0  0  0  0  0  0  0  0
    8.1471   -0.4415   18.5771 H   0  0  0  0  0  0  0  0  0  0  0  0
    6.6775    0.0873   20.0539 C   0  0  0  0  0  0  0  0  0  0  0  0
    7.4299   -0.7281   21.0488 C   0  0  0  0  0  0  0  0  0  0  0  0
    8.1318   -1.6607   20.6794 O   0  0  0  0  0  0  0  0  0  0  0  0
    7.3211   -0.4006   22.3571 N   0  0  0  0  0  0  0  0  0  0  0  0
    6.8501    0.4359   22.6316 H   0  0  0  0  0  0  0  0  0  0  0  0
    7.8285   -1.2706   23.3870 C   0  0  1  0  0  0  0  0  0  0  0  0
    8.8247   -1.6533   23.1134 H   0  0  0  0  0  0  0  0  0  0  0  0
    7.9466   -0.3977   24.5300 N   0  0  0  0  0  0  0  0  0  0  0  0
    7.2558    0.3199   24.6176 H   0  0  0  0  0  0  0  0  0  0  0  0
    8.5229   -0.8526   25.6814 C   0  0  0  0  0  0  0  0  0  0  0  0
    9.2892   -1.8030   25.6807 O   0  0  0  0  0  0  0  0  0  0  0  0
    8.1464   -0.1395   26.9873 C   0  0  0  0  0  0  0  0  0  0  0  0
    8.9718   -0.2659   28.1256 C   0  0  0  0  0  0  0  0  0  0  0  0
    9.8613   -0.8886   28.1068 H   0  0  0  0  0  0  0  0  0  0  0  0
    8.6323    0.4055   29.3127 C   0  0  0  0  0  0  0  0  0  0  0  0
    9.2491    0.2946   30.2036 H   0  0  0  0  0  0  0  0  0  0  0  0
    7.5148    1.1307   29.4592 N   0  0  0  0  0  0  0  0  0  0  0  0
    6.7065    1.2067   28.3964 C   0  0  0  0  0  0  0  0  0  0  0  0
    5.7739    1.7404   28.5472 H   0  0  0  0  0  0  0  0  0  0  0  0
    6.9623    0.6072   27.1611 C   0  0  0  0  0  0  0  0  0  0  0  0
    6.1898    0.6939   26.3979 H   0  0  0  0  0  0  0  0  0  0  0  0
    6.8857   -2.4434   23.6232 C   0  0  0  0  0  0  0  0  0  0  0  0
    5.9118   -2.0776   23.9629 H   0  0  0  0  0  0  0  0  0  0  0  0
    6.7508   -2.9956   22.6922 H   0  0  0  0  0  0  0  0  0  0  0  0
    7.2876   -3.1132   24.3830 H   0  0  0  0  0  0  0  0  0  0  0  0
    5.4647    0.7546   20.2668 C   0  0  0  0  0  0  0  0  0  0  0  0
    4.9743    0.7805   21.2434 H   0  0  0  0  0  0  0  0  0  0  0  0
    4.8638    1.3733   19.1720 C   0  0  0  0  0  0  0  0  0  0  0  0
    3.9288    1.9065   19.2779 H   0  0  0  0  0  0  0  0  0  0  0  0
  1  2  1  0
  2  3  2  0
  3  4  1  0
  4  5  1  0
  4  6  2  0
  6  7  1  0
  7  8  2  0
  7  9  1  0
  9 10  1  0
  9 11  1  0
 11 12  1  6
 11 13  1  0
 13 14  1  0
 13 15  1  0
 15 16  2  0
 15 17  1  0
 17 18  2  0
 18 19  1  0
 18 20  1  0
 20 21  1  0
 20 22  2  0
 22 23  1  0
 23 24  1  0
 23 25  2  0
 25 26  1  0
 11 27  1  0
 27 28  1  0
 27 29  1  0
 27 30  1  0
  6 31  1  0
 31 32  1  0
 31 33  2  0
 33 34  1  0
 33  2  1  0
 25 17  1  0
M  END
>  <cnnaffinity>  (1) 
-4.38982

>  <filename>  (1) 
C[C@H](NC(=O)c1ccncc1)NC(=O)c1cccnc1

$$$$
