
     RDKit          3D

 28 30  0  0  0  0  0  0  0  0999 V2000
    6.2935   -0.9779   27.8928 H   0  0  0  0  0  0  0  0  0  0  0  0
    6.9025   -0.5201   27.2884 O   0  0  0  0  0  0  0  0  0  0  0  0
    5.9972    0.1239   26.5437 C   0  0  0  0  0  0  0  0  0  0  0  0
    4.8247   -0.0578   26.7450 O   0  0  0  0  0  0  0  0  0  0  0  0
    6.6164    1.0175   25.4949 C   0  0  2  0  0  0  0  0  0  0  0  0
    5.7926    1.6294   25.1153 H   0  0  0  0  0  0  0  0  0  0  0  0
    7.0531    0.1311   24.3630 C   0  0  0  0  0  0  0  0  0  0  0  0
    6.6357    0.3418   23.1603 N   0  0  0  0  0  0  0  0  0  0  0  0
    7.2891   -0.4979   22.3009 N   0  0  0  0  0  0  0  0  0  0  0  0
    7.4042   -0.6861   20.9365 C   0  0  0  0  0  0  0  0  0  0  0  0
    6.6459    0.0153   19.9005 C   0  0  0  0  0  0  0  0  0  0  0  0
    7.1676    0.0489   18.5951 C   0  0  0  0  0  0  0  0  0  0  0  0
    8.1152   -0.4371   18.3633 H   0  0  0  0  0  0  0  0  0  0  0  0
    6.5630    0.6697   17.5799 N   0  0  0  0  0  0  0  0  0  0  0  0
    5.4007    1.2902   17.8356 C   0  0  0  0  0  0  0  0  0  0  0  0
    4.9295    1.7904   16.9903 H   0  0  0  0  0  0  0  0  0  0  0  0
    4.7994    1.3080   19.0978 C   0  0  0  0  0  0  0  0  0  0  0  0
    3.8703    1.8449   19.2431 H   0  0  0  0  0  0  0  0  0  0  0  0
    5.4276    0.6562   20.1565 C   0  0  0  0  0  0  0  0  0  0  0  0
    5.0042    0.6485   21.1599 H   0  0  0  0  0  0  0  0  0  0  0  0
    8.3189   -1.5980   20.7142 N   0  0  0  0  0  0  0  0  0  0  0  0
    8.8321   -2.0326   21.9141 N   0  0  0  0  0  0  0  0  0  0  0  0
    8.2123   -1.3484   22.8340 C   0  0  0  0  0  0  0  0  0  0  0  0
    8.2670   -1.1522   24.5565 S   0  0  0  0  0  0  0  0  0  0  0  0
    7.7563    1.9212   26.0377 C   0  0  0  0  0  0  0  0  0  0  0  0
    8.5906    1.3277   26.4287 H   0  0  0  0  0  0  0  0  0  0  0  0
    8.1329    2.5635   25.2381 H   0  0  0  0  0  0  0  0  0  0  0  0
    7.3856    2.5563   26.8475 H   0  0  0  0  0  0  0  0  0  0  0  0
  1  2  1  0
  2  3  1  0
  3  4  2  0
  3  5  1  0
  5  6  1  6
  5  7  1  0
  7  8  2  0
  8  9  1  0
  9 10  1  0
 10 11  1  0
 11 12  2  0
 12 13  1  0
 12 14  1  0
 14 15  2  0
 15 16  1  0
 15 17  1  0
 17 18  1  0
 17 19  2  0
 19 20  1  0
 10 21  2  0
 21 22  1  0
 22 23  2  0
 23 24  1  0
  5 25  1  0
 25 26  1  0
 25 27  1  0
 25 28  1  0
 24  7  1  0
 23  9  1  0
 19 11  1  0
M  END
>  <cnnaffinity>  (1) 
-4.87149

>  <filename>  (1) 
C[C@H](C(=O)O)c1nn2c(-c3cccnc3)nnc2s1

$$$$
