
     RDKit          3D

 42 44  0  0  0  0  0  0  0  0999 V2000
    5.0561    1.7509   16.9050 H   0  0  0  0  0  0  0  0  0  0  0  0
    5.4938    1.2595   17.7738 C   0  0  0  0  0  0  0  0  0  0  0  0
    6.6502    0.6064   17.5724 N   0  0  0  0  0  0  0  0  0  0  0  0
    7.2140   -0.0160   18.6175 C   0  0  0  0  0  0  0  0  0  0  0  0
    8.1465   -0.5464   18.4377 H   0  0  0  0  0  0  0  0  0  0  0  0
    6.6508   -0.0078   19.9090 C   0  0  0  0  0  0  0  0  0  0  0  0
    7.2796   -0.7689   20.8959 O   0  0  0  0  0  0  0  0  0  0  0  0
    7.2211   -0.4246   22.2204 C   0  0  0  0  0  0  0  0  0  0  0  0
    6.9190    0.6700   22.6252 O   0  0  0  0  0  0  0  0  0  0  0  0
    7.7039   -1.5663   23.1038 C   0  0  0  0  0  0  0  0  0  0  0  0
    9.2297   -1.6575   23.1286 C   0  0  0  0  0  0  0  0  0  0  0  0
    9.5604   -2.5361   23.6994 H   0  0  0  0  0  0  0  0  0  0  0  0
    9.5907   -1.7938   22.1001 H   0  0  0  0  0  0  0  0  0  0  0  0
    9.8278   -0.3872   23.7353 C   0  0  0  0  0  0  0  0  0  0  0  0
    9.4680    0.4712   23.1379 H   0  0  0  0  0  0  0  0  0  0  0  0
    9.3948   -0.2634   24.7381 H   0  0  0  0  0  0  0  0  0  0  0  0
   11.2779   -0.3801   23.8478 N   0  0  0  0  0  0  0  0  0  0  0  0
   12.0040   -0.4336   22.5780 C   0  0  0  0  0  0  0  0  0  0  0  0
   11.5763    0.2652   21.8332 H   0  0  0  0  0  0  0  0  0  0  0  0
   11.9492   -1.4374   22.1368 H   0  0  0  0  0  0  0  0  0  0  0  0
   13.4467   -0.0422   22.9388 C   0  0  0  0  0  0  0  0  0  0  0  0
   14.0727   -0.9340   23.0415 H   0  0  0  0  0  0  0  0  0  0  0  0
   13.9149    0.5724   22.1657 H   0  0  0  0  0  0  0  0  0  0  0  0
   13.3251    0.7138   24.2815 C   0  0  0  0  0  0  0  0  0  0  0  0
   13.8692    0.1855   25.0714 H   0  0  0  0  0  0  0  0  0  0  0  0
   13.7314    1.7282   24.2412 H   0  0  0  0  0  0  0  0  0  0  0  0
   11.8229    0.7379   24.6325 C   0  0  1  0  0  0  0  0  0  0  0  0
   11.6903    0.5159   25.7000 H   0  0  0  0  0  0  0  0  0  0  0  0
   11.1320    2.0954   24.3925 C   0  0  0  0  0  0  0  0  0  0  0  0
   11.7229    2.9174   24.8047 H   0  0  0  0  0  0  0  0  0  0  0  0
   10.1516    2.1057   24.8866 H   0  0  0  0  0  0  0  0  0  0  0  0
   10.9690    2.2908   23.3251 H   0  0  0  0  0  0  0  0  0  0  0  0
    6.9189   -1.8577   24.3668 C   0  0  0  0  0  0  0  0  0  0  0  0
    7.4793   -2.1232   25.2660 H   0  0  0  0  0  0  0  0  0  0  0  0
    6.0242   -1.2643   24.5635 H   0  0  0  0  0  0  0  0  0  0  0  0
    6.8842   -2.8229   23.2111 C   0  0  0  0  0  0  0  0  0  0  0  0
    7.4305   -3.7605   23.3114 H   0  0  0  0  0  0  0  0  0  0  0  0
    5.9573   -2.8979   22.6447 H   0  0  0  0  0  0  0  0  0  0  0  0
    5.4590    0.6848   20.1196 C   0  0  0  0  0  0  0  0  0  0  0  0
    5.0196    0.7347   21.1105 H   0  0  0  0  0  0  0  0  0  0  0  0
    4.8683    1.3191   19.0199 C   0  0  0  0  0  0  0  0  0  0  0  0
    3.9400    1.8640   19.1298 H   0  0  0  0  0  0  0  0  0  0  0  0
  1  2  1  0
  2  3  2  0
  3  4  1  0
  4  5  1  0
  4  6  2  0
  6  7  1  0
  7  8  1  0
  8  9  2  0
  8 10  1  0
 10 11  1  0
 11 12  1  0
 11 13  1  0
 11 14  1  0
 14 15  1  0
 14 16  1  0
 14 17  1  0
 17 18  1  0
 18 19  1  0
 18 20  1  0
 18 21  1  0
 21 22  1  0
 21 23  1  0
 21 24  1  0
 24 25  1  0
 24 26  1  0
 24 27  1  0
 27 28  1  1
 27 29  1  0
 29 30  1  0
 29 31  1  0
 29 32  1  0
 10 33  1  0
 33 34  1  0
 33 35  1  0
 33 36  1  0
 36 37  1  0
 36 38  1  0
  6 39  1  0
 39 40  1  0
 39 41  2  0
 41 42  1  0
 41  2  1  0
 36 10  1  0
 27 17  1  0
M  END
>  <cnnaffinity>  (1) 
-5.06839

>  <filename>  (1) 
C[C@@H]1CCCN1CCC1(C(=O)Oc2cccnc2)CC1

$$$$
