
     RDKit          3D

 26 27  0  0  0  0  0  0  0  0999 V2000
    4.7550    1.7634   24.3050 H   0  0  0  0  0  0  0  0  0  0  0  0
    5.3020    1.9363   23.5222 O   0  0  0  0  0  0  0  0  0  0  0  0
    6.3072    1.0842   23.7839 C   0  0  0  0  0  0  0  0  0  0  0  0
    6.2513    0.4125   24.7866 O   0  0  0  0  0  0  0  0  0  0  0  0
    7.4257    1.1219   22.7306 C   0  0  2  0  0  0  0  0  0  0  0  0
    7.1020    1.8096   21.9368 H   0  0  0  0  0  0  0  0  0  0  0  0
    7.6900   -0.2488   22.1682 C   0  0  0  0  0  0  0  0  0  0  0  0
    8.3226   -1.3275   22.7359 C   0  0  0  0  0  0  0  0  0  0  0  0
    8.7203   -1.4238   23.7333 H   0  0  0  0  0  0  0  0  0  0  0  0
    8.3545   -2.3500   21.8481 N   0  0  0  0  0  0  0  0  0  0  0  0
    7.7817   -1.9659   20.7534 N   0  0  0  0  0  0  0  0  0  0  0  0
    7.3624   -0.6932   20.9181 N   0  0  0  0  0  0  0  0  0  0  0  0
    6.6483   -0.0039   19.9010 C   0  0  0  0  0  0  0  0  0  0  0  0
    7.1761    0.0456   18.6021 C   0  0  0  0  0  0  0  0  0  0  0  0
    8.1240   -0.4407   18.3827 H   0  0  0  0  0  0  0  0  0  0  0  0
    6.5718    0.6747   17.5930 N   0  0  0  0  0  0  0  0  0  0  0  0
    5.4039    1.2916   17.8414 C   0  0  0  0  0  0  0  0  0  0  0  0
    4.9270    1.7823   16.9957 H   0  0  0  0  0  0  0  0  0  0  0  0
    4.8051    1.3029   19.1051 C   0  0  0  0  0  0  0  0  0  0  0  0
    3.8766    1.8400   19.2601 H   0  0  0  0  0  0  0  0  0  0  0  0
    5.4341    0.6416   20.1659 C   0  0  0  0  0  0  0  0  0  0  0  0
    5.0047    0.6397   21.1695 H   0  0  0  0  0  0  0  0  0  0  0  0
    8.7247    1.6893   23.3492 C   0  0  0  0  0  0  0  0  0  0  0  0
    8.5887    2.7158   23.7010 H   0  0  0  0  0  0  0  0  0  0  0  0
    9.5252    1.6916   22.6043 H   0  0  0  0  0  0  0  0  0  0  0  0
    9.0594    1.0753   24.1900 H   0  0  0  0  0  0  0  0  0  0  0  0
  1  2  1  0
  2  3  1  0
  3  4  2  0
  3  5  1  0
  5  6  1  6
  5  7  1  0
  7  8  2  0
  8  9  1  0
  8 10  1  0
 10 11  2  0
 11 12  1  0
 12 13  1  0
 13 14  2  0
 14 15  1  0
 14 16  1  0
 16 17  2  0
 17 18  1  0
 17 19  1  0
 19 20  1  0
 19 21  2  0
 21 22  1  0
  5 23  1  0
 23 24  1  0
 23 25  1  0
 23 26  1  0
 12  7  1  0
 21 13  1  0
M  END
>  <cnnaffinity>  (1) 
-4.51748

>  <filename>  (1) 
C[C@H](C(=O)O)c1cnnn1-c1cccnc1

$$$$
