
     RDKit          3D

 31 32  0  0  0  0  0  0  0  0999 V2000
    9.1455   -0.2061   20.5948 H   0  0  0  0  0  0  0  0  0  0  0  0
    8.6986   -1.0630   20.6194 O   0  0  0  0  0  0  0  0  0  0  0  0
    7.3623   -0.7729   21.0079 C   0  0  2  0  0  0  0  0  0  0  0  0
    6.6642    0.0194   19.9130 C   0  0  0  0  0  0  0  0  0  0  0  0
    7.1729    0.0606   18.6077 C   0  0  0  0  0  0  0  0  0  0  0  0
    8.1161   -0.4290   18.3770 H   0  0  0  0  0  0  0  0  0  0  0  0
    6.5654    0.6734   17.5821 N   0  0  0  0  0  0  0  0  0  0  0  0
    5.4040    1.2906   17.8385 C   0  0  0  0  0  0  0  0  0  0  0  0
    4.9170    1.7786   16.9976 H   0  0  0  0  0  0  0  0  0  0  0  0
    4.8049    1.3123   19.1032 C   0  0  0  0  0  0  0  0  0  0  0  0
    3.8730    1.8440   19.2581 H   0  0  0  0  0  0  0  0  0  0  0  0
    5.4391    0.6555   20.1543 C   0  0  0  0  0  0  0  0  0  0  0  0
    4.9926    0.6410   21.1545 H   0  0  0  0  0  0  0  0  0  0  0  0
    7.3875    0.0180   22.3254 C   0  0  0  0  0  0  0  0  0  0  0  0
    7.6560    1.0654   22.1461 H   0  0  0  0  0  0  0  0  0  0  0  0
    8.1212   -0.4151   23.0129 H   0  0  0  0  0  0  0  0  0  0  0  0
    6.4124    0.0107   22.8256 H   0  0  0  0  0  0  0  0  0  0  0  0
    6.6445   -2.1180   21.1671 C   0  0  0  0  0  0  0  0  0  0  0  0
    6.5944   -2.6040   20.1888 H   0  0  0  0  0  0  0  0  0  0  0  0
    5.6020   -1.9174   21.4447 H   0  0  0  0  0  0  0  0  0  0  0  0
    7.2759   -3.0751   22.1857 C   0  0  0  0  0  0  0  0  0  0  0  0
    7.2553   -2.6147   23.1835 H   0  0  0  0  0  0  0  0  0  0  0  0
    8.3277   -3.2255   21.9276 H   0  0  0  0  0  0  0  0  0  0  0  0
    6.5307   -4.3749   22.2461 C   0  0  0  0  0  0  0  0  0  0  0  0
    6.9422   -5.7164   21.2368 S   0  0  0  0  0  0  0  0  0  0  0  0
    5.6253   -6.6305   21.8405 C   0  0  0  0  0  0  0  0  0  0  0  0
    5.4916   -7.6280   21.4696 H   0  0  0  0  0  0  0  0  0  0  0  0
    4.8921   -5.9529   22.7604 C   0  0  0  0  0  0  0  0  0  0  0  0
    4.0152   -6.3541   23.2670 H   0  0  0  0  0  0  0  0  0  0  0  0
    5.4185   -4.6475   22.9856 C   0  0  0  0  0  0  0  0  0  0  0  0
    4.9706   -3.9346   23.6753 H   0  0  0  0  0  0  0  0  0  0  0  0
  1  2  1  0
  3  2  1  6
  3  4  1  0
  4  5  2  0
  5  6  1  0
  5  7  1  0
  7  8  2  0
  8  9  1  0
  8 10  1  0
 10 11  1  0
 10 12  2  0
 12 13  1  0
  3 14  1  0
 14 15  1  0
 14 16  1  0
 14 17  1  0
  3 18  1  0
 18 19  1  0
 18 20  1  0
 18 21  1  0
 21 22  1  0
 21 23  1  0
 21 24  1  0
 24 25  1  0
 25 26  1  0
 26 27  1  0
 26 28  2  0
 28 29  1  0
 28 30  1  0
 30 31  1  0
 12  4  1  0
 30 24  2  0
M  END
>  <cnnaffinity>  (1) 
-4.48484

>  <filename>  (1) 
C[C@@](O)(CCc1cccs1)c1cccnc1

$$$$
