
     RDKit          3D

 42 45  0  0  0  0  0  0  0  0999 V2000
    8.2659   -3.4514   26.1037 C   0  0  0  0  0  0  0  0  0  0  0  0
    7.7696   -2.4262   25.1153 C   0  0  2  0  0  0  0  0  0  0  0  0
    6.3276   -2.4608   24.7048 C   0  0  0  0  0  0  0  0  0  0  0  0
    7.4019   -2.8410   23.7179 C   0  0  1  0  0  0  0  0  0  0  0  0
    7.6744   -1.9388   22.5744 C   0  0  0  0  0  0  0  0  0  0  0  0
    6.7374   -1.5979   21.7076 N   0  0  0  0  0  0  0  0  0  0  0  0
    7.3633   -0.6735   20.9330 N   0  0  0  0  0  0  0  0  0  0  0  0
    6.6591    0.0044   19.9008 C   0  0  0  0  0  0  0  0  0  0  0  0
    5.4422    0.6437   20.1646 C   0  0  0  0  0  0  0  0  0  0  0  0
    4.8127    1.3106   19.1100 C   0  0  0  0  0  0  0  0  0  0  0  0
    5.3996    1.2959   17.8388 C   0  0  0  0  0  0  0  0  0  0  0  0
    6.5592    0.6728   17.5784 N   0  0  0  0  0  0  0  0  0  0  0  0
    7.1694    0.0513   18.5929 C   0  0  0  0  0  0  0  0  0  0  0  0
    8.1149   -0.4356   18.3674 H   0  0  0  0  0  0  0  0  0  0  0  0
    4.9192    1.7850   16.9945 H   0  0  0  0  0  0  0  0  0  0  0  0
    3.8804    1.8390   19.2623 H   0  0  0  0  0  0  0  0  0  0  0  0
    5.0156    0.6086   21.1706 H   0  0  0  0  0  0  0  0  0  0  0  0
    8.6407   -0.5101   21.3872 C   0  0  0  0  0  0  0  0  0  0  0  0
    9.5195    0.6210   20.9595 C   0  0  0  0  0  0  0  0  0  0  0  0
    9.0584    2.0063   21.5125 C   0  0  0  0  0  0  0  0  0  0  0  0
    8.9431    2.0212   23.0234 C   0  0  0  0  0  0  0  0  0  0  0  0
    7.7067    1.7664   23.6450 C   0  0  0  0  0  0  0  0  0  0  0  0
    7.6303    1.6726   25.0341 C   0  0  0  0  0  0  0  0  0  0  0  0
    8.8106    1.8395   25.7593 C   0  0  0  0  0  0  0  0  0  0  0  0
    9.9949    2.0678   25.0540 C   0  0  0  0  0  0  0  0  0  0  0  0
   10.0761    2.1639   23.7219 N   0  0  0  0  0  0  0  0  0  0  0  0
   10.9388    2.1645   25.5800 H   0  0  0  0  0  0  0  0  0  0  0  0
    8.8229    1.7911   26.8423 H   0  0  0  0  0  0  0  0  0  0  0  0
    6.6816    1.4586   25.5359 H   0  0  0  0  0  0  0  0  0  0  0  0
    6.8354    1.5999   23.0268 H   0  0  0  0  0  0  0  0  0  0  0  0
    9.7697    2.7755   21.2036 H   0  0  0  0  0  0  0  0  0  0  0  0
    8.0888    2.2586   21.0704 H   0  0  0  0  0  0  0  0  0  0  0  0
    9.5657    0.6573   19.8686 H   0  0  0  0  0  0  0  0  0  0  0  0
   10.5276    0.3984   21.3188 H   0  0  0  0  0  0  0  0  0  0  0  0
    8.8756   -1.3267   22.3949 N   0  0  0  0  0  0  0  0  0  0  0  0
    7.5210   -3.8920   23.4700 H   0  0  0  0  0  0  0  0  0  0  0  0
    5.6995   -3.2476   25.1143 H   0  0  0  0  0  0  0  0  0  0  0  0
    5.8213   -1.5130   24.5261 H   0  0  0  0  0  0  0  0  0  0  0  0
    8.2166   -1.4332   25.1939 H   0  0  0  0  0  0  0  0  0  0  0  0
    7.7776   -4.4135   25.9167 H   0  0  0  0  0  0  0  0  0  0  0  0
    8.0136   -3.1574   27.1289 H   0  0  0  0  0  0  0  0  0  0  0  0
    9.3472   -3.6052   26.0344 H   0  0  0  0  0  0  0  0  0  0  0  0
  1  2  1  0
  2  3  1  0
  3  4  1  0
  4  5  1  0
  5  6  2  0
  6  7  1  0
  7  8  1  0
  8  9  2  0
  9 10  1  0
 10 11  2  0
 11 12  1  0
 12 13  2  0
 13 14  1  0
 11 15  1  0
 10 16  1  0
  9 17  1  0
  7 18  1  0
 18 19  1  0
 19 20  1  0
 20 21  1  0
 21 22  2  0
 22 23  1  0
 23 24  2  0
 24 25  1  0
 25 26  2  0
 25 27  1  0
 24 28  1  0
 23 29  1  0
 22 30  1  0
 20 31  1  0
 20 32  1  0
 19 33  1  0
 19 34  1  0
 18 35  2  0
  4 36  1  6
  3 37  1  0
  3 38  1  0
  2 39  1  6
  1 40  1  0
  1 41  1  0
  1 42  1  0
  4  2  1  0
 35  5  1  0
 13  8  1  0
 26 21  1  0
M  END
>  <cnnaffinity>  (1) 
-5.87388

>  <filename>  (1) 
C[C@@H]1C[C@H]1c1nc(CCc2ccccn2)n(-c2cccnc2)n1

$$$$
