
     RDKit          3D

 34 36  0  0  0  0  0  0  0  0999 V2000
    4.9976    1.7552   16.8915 H   0  0  0  0  0  0  0  0  0  0  0  0
    5.4111    1.3007   17.7909 C   0  0  0  0  0  0  0  0  0  0  0  0
    6.5891    0.6757   17.6478 N   0  0  0  0  0  0  0  0  0  0  0  0
    7.1252    0.1155   18.7426 C   0  0  0  0  0  0  0  0  0  0  0  0
    8.0914   -0.3634   18.5757 H   0  0  0  0  0  0  0  0  0  0  0  0
    6.5213    0.1140   20.0096 C   0  0  0  0  0  0  0  0  0  0  0  0
    7.1651   -0.5961   21.1925 C   0  0  2  0  0  0  0  0  0  0  0  0
    6.6711   -0.2158   22.0989 H   0  0  0  0  0  0  0  0  0  0  0  0
    8.5795   -0.2670   21.2991 N   0  0  0  0  0  0  0  0  0  0  0  0
    9.2789   -0.9020   20.9632 H   0  0  0  0  0  0  0  0  0  0  0  0
    8.9708    0.9912   21.6422 C   0  0  0  0  0  0  0  0  0  0  0  0
    8.1464    1.8858   21.7918 O   0  0  0  0  0  0  0  0  0  0  0  0
   10.4327    1.2492   21.8472 C   0  0  0  0  0  0  0  0  0  0  0  0
   10.8820    2.5330   21.9721 C   0  0  0  0  0  0  0  0  0  0  0  0
   10.3004    3.4481   21.9384 H   0  0  0  0  0  0  0  0  0  0  0  0
   12.5660    2.6800   22.2474 S   0  0  0  0  0  0  0  0  0  0  0  0
   12.7676    0.9590   22.1815 C   0  0  0  0  0  0  0  0  0  0  0  0
   13.9989    0.2833   22.2915 C   0  0  0  0  0  0  0  0  0  0  0  0
   14.9313    0.8289   22.4196 H   0  0  0  0  0  0  0  0  0  0  0  0
   13.9903   -1.0988   22.2483 C   0  0  0  0  0  0  0  0  0  0  0  0
   14.9149   -1.6579   22.3028 H   0  0  0  0  0  0  0  0  0  0  0  0
   12.7696   -1.7936   22.1411 C   0  0  0  0  0  0  0  0  0  0  0  0
   12.7832   -2.8694   22.2046 H   0  0  0  0  0  0  0  0  0  0  0  0
   11.5621   -1.1276   22.0253 C   0  0  0  0  0  0  0  0  0  0  0  0
   10.6528   -1.7124   22.0357 H   0  0  0  0  0  0  0  0  0  0  0  0
   11.5324    0.2925   21.9999 C   0  0  0  0  0  0  0  0  0  0  0  0
    6.9948   -2.1088   21.1353 C   0  0  0  0  0  0  0  0  0  0  0  0
    5.9542   -2.3981   21.3083 H   0  0  0  0  0  0  0  0  0  0  0  0
    7.2782   -2.4845   20.1531 H   0  0  0  0  0  0  0  0  0  0  0  0
    7.6143   -2.6002   21.8922 H   0  0  0  0  0  0  0  0  0  0  0  0
    5.2977    0.7876   20.1352 C   0  0  0  0  0  0  0  0  0  0  0  0
    4.8103    0.8529   21.1107 H   0  0  0  0  0  0  0  0  0  0  0  0
    4.7273    1.3849   19.0076 C   0  0  0  0  0  0  0  0  0  0  0  0
    3.7850    1.9202   19.0625 H   0  0  0  0  0  0  0  0  0  0  0  0
  1  2  1  0
  2  3  2  0
  3  4  1  0
  4  5  1  0
  4  6  2  0
  6  7  1  0
  7  8  1  1
  7  9  1  0
  9 10  1  0
  9 11  1  0
 11 12  2  0
 11 13  1  0
 13 14  2  0
 14 15  1  0
 14 16  1  0
 16 17  1  0
 17 18  2  0
 18 19  1  0
 18 20  1  0
 20 21  1  0
 20 22  2  0
 22 23  1  0
 22 24  1  0
 24 25  1  0
 24 26  2  0
  7 27  1  0
 27 28  1  0
 27 29  1  0
 27 30  1  0
  6 31  1  0
 31 32  1  0
 31 33  2  0
 33 34  1  0
 33  2  1  0
 26 13  1  0
 26 17  1  0
M  END
>  <cnnaffinity>  (1) 
-5.76999

>  <filename>  (1) 
C[C@@H](NC(=O)c1csc2ccccc12)c1cccnc1

$$$$
