
     RDKit          3D

 48 50  0  0  0  0  0  0  0  0999 V2000
    4.9920    1.7450   16.9131 H   0  0  0  0  0  0  0  0  0  0  0  0
    5.4150    1.3254   17.8201 C   0  0  0  0  0  0  0  0  0  0  0  0
    6.5862    0.6902   17.6723 N   0  0  0  0  0  0  0  0  0  0  0  0
    7.1281    0.1559   18.7724 C   0  0  0  0  0  0  0  0  0  0  0  0
    8.0817   -0.3569   18.6215 H   0  0  0  0  0  0  0  0  0  0  0  0
    6.5580    0.2047   20.0588 C   0  0  0  0  0  0  0  0  0  0  0  0
    7.2644   -0.4686   21.2231 C   0  0  1  0  0  0  0  0  0  0  0  0
    6.6424   -0.4061   22.1258 H   0  0  0  0  0  0  0  0  0  0  0  0
    7.4486   -1.9604   20.9121 C   0  0  0  0  0  0  0  0  0  0  0  0
    8.0356   -1.9891   19.9987 H   0  0  0  0  0  0  0  0  0  0  0  0
    6.4860   -2.4258   20.6779 H   0  0  0  0  0  0  0  0  0  0  0  0
    8.1966   -2.7162   22.0058 C   0  0  0  0  0  0  0  0  0  0  0  0
    8.3126   -3.7730   21.7337 H   0  0  0  0  0  0  0  0  0  0  0  0
    7.5865   -2.6958   22.9181 H   0  0  0  0  0  0  0  0  0  0  0  0
    9.5638   -2.0718   22.2660 C   0  0  0  0  0  0  0  0  0  0  0  0
   10.0844   -2.5955   23.0766 H   0  0  0  0  0  0  0  0  0  0  0  0
   10.1890   -2.1954   21.3686 H   0  0  0  0  0  0  0  0  0  0  0  0
    9.4432   -0.5718   22.5896 C   0  0  0  0  0  0  0  0  0  0  0  0
    8.9798   -0.4493   23.5794 H   0  0  0  0  0  0  0  0  0  0  0  0
   10.4492   -0.1361   22.6674 H   0  0  0  0  0  0  0  0  0  0  0  0
    8.6370    0.2037   21.5227 C   0  0  2  0  0  0  0  0  0  0  0  0
    9.2187    0.1279   20.5883 H   0  0  0  0  0  0  0  0  0  0  0  0
    8.4925    1.7098   21.8405 C   0  0  0  0  0  0  0  0  0  0  0  0
    9.4720    2.1367   22.0818 H   0  0  0  0  0  0  0  0  0  0  0  0
    8.1472    2.2283   20.9362 H   0  0  0  0  0  0  0  0  0  0  0  0
    7.5478    2.0609   22.9909 C   0  0  0  0  0  0  0  0  0  0  0  0
    6.5411    1.6384   22.8217 H   0  0  0  0  0  0  0  0  0  0  0  0
    7.9284    1.5726   23.8989 H   0  0  0  0  0  0  0  0  0  0  0  0
    7.5215    3.5056   23.2160 N   0  0  0  0  0  0  0  0  0  0  0  0
    7.1580    3.9154   24.5703 C   0  0  0  0  0  0  0  0  0  0  0  0
    7.5152    3.1950   25.3164 H   0  0  0  0  0  0  0  0  0  0  0  0
    7.6677    4.8636   24.7953 H   0  0  0  0  0  0  0  0  0  0  0  0
    5.6386    4.1182   24.5588 C   0  0  0  0  0  0  0  0  0  0  0  0
    5.1212    3.1585   24.6600 H   0  0  0  0  0  0  0  0  0  0  0  0
    5.2969    4.7604   25.3769 H   0  0  0  0  0  0  0  0  0  0  0  0
    5.4048    4.7241   23.1641 C   0  0  0  0  0  0  0  0  0  0  0  0
    4.4777    4.3915   22.6865 H   0  0  0  0  0  0  0  0  0  0  0  0
    5.3449    5.8154   23.2324 H   0  0  0  0  0  0  0  0  0  0  0  0
    6.6487    4.3061   22.3223 C   0  0  1  0  0  0  0  0  0  0  0  0
    6.3425    3.7223   21.4423 H   0  0  0  0  0  0  0  0  0  0  0  0
    7.4273    5.5221   21.8245 C   0  0  0  0  0  0  0  0  0  0  0  0
    8.2696    5.2192   21.2068 H   0  0  0  0  0  0  0  0  0  0  0  0
    6.7939    6.1861   21.2237 H   0  0  0  0  0  0  0  0  0  0  0  0
    7.8281    6.0723   22.6827 H   0  0  0  0  0  0  0  0  0  0  0  0
    5.3451    0.8950   20.1898 C   0  0  0  0  0  0  0  0  0  0  0  0
    4.8698    0.9913   21.1671 H   0  0  0  0  0  0  0  0  0  0  0  0
    4.7586    1.4528   19.0487 C   0  0  0  0  0  0  0  0  0  0  0  0
    3.8169    1.9847   19.0966 H   0  0  0  0  0  0  0  0  0  0  0  0
  1  2  1  0
  2  3  2  0
  3  4  1  0
  4  5  1  0
  4  6  2  0
  6  7  1  0
  7  8  1  1
  7  9  1  0
  9 10  1  0
  9 11  1  0
  9 12  1  0
 12 13  1  0
 12 14  1  0
 12 15  1  0
 15 16  1  0
 15 17  1  0
 15 18  1  0
 18 19  1  0
 18 20  1  0
 18 21  1  0
 21 22  1  6
 21 23  1  0
 23 24  1  0
 23 25  1  0
 23 26  1  0
 26 27  1  0
 26 28  1  0
 26 29  1  0
 29 30  1  0
 30 31  1  0
 30 32  1  0
 30 33  1  0
 33 34  1  0
 33 35  1  0
 33 36  1  0
 36 37  1  0
 36 38  1  0
 36 39  1  0
 39 40  1  6
 39 41  1  0
 41 42  1  0
 41 43  1  0
 41 44  1  0
  6 45  1  0
 45 46  1  0
 45 47  2  0
 47 48  1  0
 47  2  1  0
 21  7  1  0
 39 29  1  0
M  END
>  <cnnaffinity>  (1) 
-5.47066

>  <filename>  (1) 
C[C@@H]1CCCN1CC[C@H]1CCCC[C@@H]1c1cccnc1

$$$$
