
     RDKit          3D

 37 39  0  0  0  0  0  0  0  0999 V2000
    4.9750    1.7935   16.9174 H   0  0  0  0  0  0  0  0  0  0  0  0
    5.4483    1.2942   17.7631 C   0  0  0  0  0  0  0  0  0  0  0  0
    6.6149    0.6856   17.5214 N   0  0  0  0  0  0  0  0  0  0  0  0
    7.2172    0.0744   18.5535 C   0  0  0  0  0  0  0  0  0  0  0  0
    8.1662   -0.3973   18.3230 H   0  0  0  0  0  0  0  0  0  0  0  0
    6.7131    0.0163   19.8637 C   0  0  0  0  0  0  0  0  0  0  0  0
    7.4893   -0.6626   21.0014 C   0  0  1  0  0  0  0  0  0  0  0  0
    8.7105   -1.2652   20.4703 N   0  0  0  0  0  0  0  0  0  0  0  0
    8.4486   -2.0023   19.8204 H   0  0  0  0  0  0  0  0  0  0  0  0
    9.1617   -1.7523   21.2412 H   0  0  0  0  0  0  0  0  0  0  0  0
    7.9361    0.3848   22.0323 C   0  0  0  0  0  0  0  0  0  0  0  0
    7.0833    0.8717   22.5192 H   0  0  0  0  0  0  0  0  0  0  0  0
    8.5377    1.1584   21.5485 H   0  0  0  0  0  0  0  0  0  0  0  0
    8.5576   -0.0849   22.8022 H   0  0  0  0  0  0  0  0  0  0  0  0
    6.5603   -1.7421   21.6617 C   0  0  0  0  0  0  0  0  0  0  0  0
    6.2868   -2.4353   20.8623 H   0  0  0  0  0  0  0  0  0  0  0  0
    5.6276   -1.2416   21.8958 H   0  0  0  0  0  0  0  0  0  0  0  0
    7.0378   -2.4959   22.8919 C   0  0  0  0  0  0  0  0  0  0  0  0
    6.9889   -1.9492   24.1665 C   0  0  0  0  0  0  0  0  0  0  0  0
    6.5200   -0.9747   24.3297 H   0  0  0  0  0  0  0  0  0  0  0  0
    7.5243   -2.5191   25.2841 N   0  0  0  0  0  0  0  0  0  0  0  0
    8.1050   -3.6972   25.1657 C   0  0  0  0  0  0  0  0  0  0  0  0
    8.5451   -4.1175   26.0753 H   0  0  0  0  0  0  0  0  0  0  0  0
    8.1583   -4.4407   23.9415 C   0  0  0  0  0  0  0  0  0  0  0  0
    8.7355   -5.7512   23.8211 C   0  0  0  0  0  0  0  0  0  0  0  0
    9.2252   -6.2218   24.6795 H   0  0  0  0  0  0  0  0  0  0  0  0
    8.6838   -6.4147   22.6148 C   0  0  0  0  0  0  0  0  0  0  0  0
    9.1479   -7.3943   22.5223 H   0  0  0  0  0  0  0  0  0  0  0  0
    8.0679   -5.8178   21.4833 C   0  0  0  0  0  0  0  0  0  0  0  0
    7.9928   -6.2927   20.5118 H   0  0  0  0  0  0  0  0  0  0  0  0
    7.5204   -4.5651   21.5748 C   0  0  0  0  0  0  0  0  0  0  0  0
    7.0077   -4.1515   20.7140 H   0  0  0  0  0  0  0  0  0  0  0  0
    7.5707   -3.8260   22.7861 C   0  0  0  0  0  0  0  0  0  0  0  0
    5.4766    0.6530   20.0841 C   0  0  0  0  0  0  0  0  0  0  0  0
    5.0108    0.6531   21.0740 H   0  0  0  0  0  0  0  0  0  0  0  0
    4.8389    1.2984   19.0224 C   0  0  0  0  0  0  0  0  0  0  0  0
    3.8874    1.8027   19.1515 H   0  0  0  0  0  0  0  0  0  0  0  0
  1  2  1  0
  2  3  2  0
  3  4  1  0
  4  5  1  0
  4  6  2  0
  6  7  1  0
  7  8  1  6
  8  9  1  0
  8 10  1  0
  7 11  1  0
 11 12  1  0
 11 13  1  0
 11 14  1  0
  7 15  1  0
 15 16  1  0
 15 17  1  0
 15 18  1  0
 18 19  2  0
 19 20  1  0
 19 21  1  0
 21 22  2  0
 22 23  1  0
 22 24  1  0
 24 25  2  0
 25 26  1  0
 25 27  1  0
 27 28  1  0
 27 29  2  0
 29 30  1  0
 29 31  1  0
 31 32  1  0
 31 33  2  0
  6 34  1  0
 34 35  1  0
 34 36  2  0
 36 37  1  0
 36  2  1  0
 33 18  1  0
 33 24  1  0
M  END
>  <cnnaffinity>  (1) 
-5.33568

>  <filename>  (1) 
C[C@@](N)(Cc1cncc2ccccc12)c1cccnc1

$$$$
