
     RDKit          3D

 34 35  0  0  0  0  0  0  0  0999 V2000
    4.9316    1.8712   16.8827 H   0  0  0  0  0  0  0  0  0  0  0  0
    5.3722    1.3522   17.7312 C   0  0  0  0  0  0  0  0  0  0  0  0
    6.5285    0.7108   17.5071 N   0  0  0  0  0  0  0  0  0  0  0  0
    7.1092    0.0784   18.5430 C   0  0  0  0  0  0  0  0  0  0  0  0
    8.0377   -0.4422   18.3124 H   0  0  0  0  0  0  0  0  0  0  0  0
    6.5852    0.0614   19.8695 C   0  0  0  0  0  0  0  0  0  0  0  0
    7.1719   -0.5521   20.9808 N   0  0  0  0  0  0  0  0  0  0  0  0
    6.7082   -0.3136   21.8479 H   0  0  0  0  0  0  0  0  0  0  0  0
    8.5963   -0.8433   21.1134 C   0  0  1  0  0  0  0  0  0  0  0  0
    8.8427   -1.5221   20.2836 H   0  0  0  0  0  0  0  0  0  0  0  0
    9.4906    0.3948   20.9733 C   0  0  0  0  0  0  0  0  0  0  0  0
    9.3509    1.1038   21.7967 H   0  0  0  0  0  0  0  0  0  0  0  0
    9.2637    0.9114   20.0409 H   0  0  0  0  0  0  0  0  0  0  0  0
   10.5472    0.1148   20.9432 H   0  0  0  0  0  0  0  0  0  0  0  0
    8.8618   -1.6533   22.4070 C   0  0  0  0  0  0  0  0  0  0  0  0
    8.1073   -2.4552   22.3982 H   0  0  0  0  0  0  0  0  0  0  0  0
    8.7047   -0.9335   23.7630 C   0  0  0  0  0  0  0  0  0  0  0  0
    7.7065   -0.4962   23.8870 H   0  0  0  0  0  0  0  0  0  0  0  0
    9.4324   -0.1123   23.8574 H   0  0  0  0  0  0  0  0  0  0  0  0
    8.9472   -1.9499   24.8968 C   0  0  0  0  0  0  0  0  0  0  0  0
    8.8547   -1.4800   25.8806 H   0  0  0  0  0  0  0  0  0  0  0  0
    8.1635   -2.7208   24.8558 H   0  0  0  0  0  0  0  0  0  0  0  0
   10.2485   -2.6189   24.8377 N   0  0  0  0  0  0  0  0  0  0  0  0
   10.9714   -1.9236   25.0133 H   0  0  0  0  0  0  0  0  0  0  0  0
   10.5401   -3.2357   23.5461 C   0  0  0  0  0  0  0  0  0  0  0  0
    9.9629   -4.1676   23.4532 H   0  0  0  0  0  0  0  0  0  0  0  0
   11.5990   -3.5228   23.5454 H   0  0  0  0  0  0  0  0  0  0  0  0
   10.2637   -2.2909   22.3703 C   0  0  0  0  0  0  0  0  0  0  0  0
   10.3907   -2.7917   21.4125 H   0  0  0  0  0  0  0  0  0  0  0  0
   11.0209   -1.4939   22.3962 H   0  0  0  0  0  0  0  0  0  0  0  0
    5.3416    0.6935   20.0484 C   0  0  0  0  0  0  0  0  0  0  0  0
    4.8651    0.6527   21.0254 H   0  0  0  0  0  0  0  0  0  0  0  0
    4.7377    1.3534   18.9779 C   0  0  0  0  0  0  0  0  0  0  0  0
    3.7969    1.8793   19.1023 H   0  0  0  0  0  0  0  0  0  0  0  0
  1  2  1  0
  2  3  2  0
  3  4  1  0
  4  5  1  0
  4  6  2  0
  6  7  1  0
  7  8  1  0
  7  9  1  0
  9 10  1  6
  9 11  1  0
 11 12  1  0
 11 13  1  0
 11 14  1  0
  9 15  1  0
 15 16  1  0
 15 17  1  0
 17 18  1  0
 17 19  1  0
 17 20  1  0
 20 21  1  0
 20 22  1  0
 20 23  1  0
 23 24  1  0
 23 25  1  0
 25 26  1  0
 25 27  1  0
 25 28  1  0
 28 29  1  0
 28 30  1  0
  6 31  1  0
 31 32  1  0
 31 33  2  0
 33 34  1  0
 33  2  1  0
 28 15  1  0
M  END
>  <cnnaffinity>  (1) 
-4.31607

>  <filename>  (1) 
C[C@H](Nc1cccnc1)C1CCNCC1

$$$$
