
     RDKit          3D

 44 47  0  0  0  0  0  0  0  0999 V2000
    5.9980   -5.1819   24.0000 C   0  0  0  0  0  0  0  0  0  0  0  0
    6.9697   -4.4227   23.1203 C   0  0  2  0  0  0  0  0  0  0  0  0
    8.3936   -4.2351   23.5795 C   0  0  0  0  0  0  0  0  0  0  0  0
    7.4487   -3.0527   23.5385 C   0  0  1  0  0  0  0  0  0  0  0  0
    7.6425   -1.9843   22.5277 C   0  0  0  0  0  0  0  0  0  0  0  0
    6.7020   -1.6057   21.6802 N   0  0  0  0  0  0  0  0  0  0  0  0
    7.3314   -0.6584   20.9402 N   0  0  0  0  0  0  0  0  0  0  0  0
    6.6526    0.0096   19.8912 C   0  0  0  0  0  0  0  0  0  0  0  0
    5.4353    0.6408   20.1532 C   0  0  0  0  0  0  0  0  0  0  0  0
    4.8021    1.3059   19.1015 C   0  0  0  0  0  0  0  0  0  0  0  0
    5.3940    1.2931   17.8324 C   0  0  0  0  0  0  0  0  0  0  0  0
    6.5497    0.6645   17.5680 N   0  0  0  0  0  0  0  0  0  0  0  0
    7.1630    0.0454   18.5838 C   0  0  0  0  0  0  0  0  0  0  0  0
    8.1082   -0.4404   18.3486 H   0  0  0  0  0  0  0  0  0  0  0  0
    4.9261    1.8007   16.9938 H   0  0  0  0  0  0  0  0  0  0  0  0
    3.8721    1.8455   19.2498 H   0  0  0  0  0  0  0  0  0  0  0  0
    5.0243    0.6091   21.1650 H   0  0  0  0  0  0  0  0  0  0  0  0
    8.5874   -0.4692   21.4280 C   0  0  0  0  0  0  0  0  0  0  0  0
    9.5207    0.6030   21.0007 C   0  0  0  0  0  0  0  0  0  0  0  0
    9.3181    1.8872   21.8011 C   0  0  0  0  0  0  0  0  0  0  0  0
    8.0342    2.3978   21.4706 O   0  0  0  0  0  0  0  0  0  0  0  0
    7.5851    3.5407   22.0619 C   0  0  0  0  0  0  0  0  0  0  0  0
    8.2906    4.2549   23.0413 C   0  0  0  0  0  0  0  0  0  0  0  0
    7.7115    5.4073   23.5671 C   0  0  0  0  0  0  0  0  0  0  0  0
    8.3896    6.0869   24.5083 F   0  0  0  0  0  0  0  0  0  0  0  0
    6.4711    5.8823   23.1644 C   0  0  0  0  0  0  0  0  0  0  0  0
    5.7804    5.1650   22.1819 C   0  0  0  0  0  0  0  0  0  0  0  0
    6.3259    4.0009   21.6340 C   0  0  0  0  0  0  0  0  0  0  0  0
    5.8113    3.4446   20.8605 H   0  0  0  0  0  0  0  0  0  0  0  0
    4.8106    5.5218   21.8324 H   0  0  0  0  0  0  0  0  0  0  0  0
    6.0805    6.7885   23.6125 H   0  0  0  0  0  0  0  0  0  0  0  0
    9.2655    3.9530   23.3976 H   0  0  0  0  0  0  0  0  0  0  0  0
   10.0964    2.6201   21.5521 H   0  0  0  0  0  0  0  0  0  0  0  0
    9.3719    1.6647   22.8771 H   0  0  0  0  0  0  0  0  0  0  0  0
    9.3937    0.8016   19.9364 H   0  0  0  0  0  0  0  0  0  0  0  0
   10.5338    0.2323   21.1681 H   0  0  0  0  0  0  0  0  0  0  0  0
    8.8144   -1.3001   22.4233 N   0  0  0  0  0  0  0  0  0  0  0  0
    7.0797   -2.6437   24.4850 H   0  0  0  0  0  0  0  0  0  0  0  0
    8.6752   -4.6395   24.5532 H   0  0  0  0  0  0  0  0  0  0  0  0
    9.2094   -4.2511   22.8562 H   0  0  0  0  0  0  0  0  0  0  0  0
    6.8014   -4.5403   22.0448 H   0  0  0  0  0  0  0  0  0  0  0  0
    6.1946   -4.9852   25.0626 H   0  0  0  0  0  0  0  0  0  0  0  0
    4.9566   -4.9054   23.7936 H   0  0  0  0  0  0  0  0  0  0  0  0
    6.0976   -6.2618   23.8393 H   0  0  0  0  0  0  0  0  0  0  0  0
  1  2  1  0
  2  3  1  0
  3  4  1  0
  4  5  1  0
  5  6  2  0
  6  7  1  0
  7  8  1  0
  8  9  2  0
  9 10  1  0
 10 11  2  0
 11 12  1  0
 12 13  2  0
 13 14  1  0
 11 15  1  0
 10 16  1  0
  9 17  1  0
  7 18  1  0
 18 19  1  0
 19 20  1  0
 20 21  1  0
 21 22  1  0
 22 23  2  0
 23 24  1  0
 24 25  1  0
 24 26  2  0
 26 27  1  0
 27 28  2  0
 28 29  1  0
 27 30  1  0
 26 31  1  0
 23 32  1  0
 20 33  1  0
 20 34  1  0
 19 35  1  0
 19 36  1  0
 18 37  2  0
  4 38  1  1
  3 39  1  0
  3 40  1  0
  2 41  1  6
  1 42  1  0
  1 43  1  0
  1 44  1  0
  4  2  1  0
 37  5  1  0
 13  8  1  0
 28 22  1  0
M  END
>  <cnnaffinity>  (1) 
-5.95458

>  <filename>  (1) 
C[C@@H]1C[C@H]1c1nc(CCOc2cccc(F)c2)n(-c2cccnc2)n1

$$$$
