
     RDKit          3D

 34 35  0  0  0  0  0  0  0  0999 V2000
    5.1652    1.7285   16.7145 H   0  0  0  0  0  0  0  0  0  0  0  0
    5.4259    1.2668   17.6654 C   0  0  0  0  0  0  0  0  0  0  0  0
    6.5096    0.4757   17.6522 N   0  0  0  0  0  0  0  0  0  0  0  0
    6.8624   -0.0960   18.8129 C   0  0  0  0  0  0  0  0  0  0  0  0
    7.7516   -0.7281   18.7775 H   0  0  0  0  0  0  0  0  0  0  0  0
    6.1686    0.0776   20.0190 C   0  0  0  0  0  0  0  0  0  0  0  0
    6.6704   -0.5753   21.2860 C   0  0  2  0  0  0  0  0  0  0  0  0
    6.1550   -0.1356   22.1474 H   0  0  0  0  0  0  0  0  0  0  0  0
    8.0984   -0.3170   21.4354 O   0  0  0  0  0  0  0  0  0  0  0  0
    8.4720    0.9567   21.6254 C   0  0  0  0  0  0  0  0  0  0  0  0
    7.6997    1.8659   21.8368 O   0  0  0  0  0  0  0  0  0  0  0  0
   10.0681    1.1586   21.5299 C   0  0  0  0  0  0  0  0  0  0  0  0
   10.8305    0.2543   21.2335 O   0  0  0  0  0  0  0  0  0  0  0  0
   10.4800    2.4383   21.7694 N   0  0  0  0  0  0  0  0  0  0  0  0
    9.7524    3.1328   21.8998 H   0  0  0  0  0  0  0  0  0  0  0  0
   11.8674    2.8715   21.7040 C   0  0  0  0  0  0  0  0  0  0  0  0
   11.8436    3.9490   21.9906 H   0  0  0  0  0  0  0  0  0  0  0  0
   12.2042    2.8956   20.6361 H   0  0  0  0  0  0  0  0  0  0  0  0
   12.9882    1.8010   22.9314 C   0  0  0  0  0  0  0  0  0  0  0  0
   13.2207    1.0683   22.0686 H   0  0  0  0  0  0  0  0  0  0  0  0
   12.4654    1.7984   24.0883 C   0  0  0  0  0  0  0  0  0  0  0  0
   12.2928    0.9292   24.7705 H   0  0  0  0  0  0  0  0  0  0  0  0
   11.9895    2.7717   24.2373 H   0  0  0  0  0  0  0  0  0  0  0  0
   13.3922    1.9052   22.9168 C   0  0  0  0  0  0  0  0  0  0  0  0
   14.2245    2.7834   22.5681 H   0  0  0  0  0  0  0  0  0  0  0  0
   14.6837    1.3426   23.3196 H   0  0  0  0  0  0  0  0  0  0  0  0
    6.5032   -2.0822   21.3259 C   0  0  0  0  0  0  0  0  0  0  0  0
    5.4436   -2.3337   21.4140 H   0  0  0  0  0  0  0  0  0  0  0  0
    6.8953   -2.5677   20.4277 H   0  0  0  0  0  0  0  0  0  0  0  0
    7.0282   -2.4860   22.1955 H   0  0  0  0  0  0  0  0  0  0  0  0
    5.0393    0.9011   20.0064 C   0  0  0  0  0  0  0  0  0  0  0  0
    4.4893    1.0823   20.9306 H   0  0  0  0  0  0  0  0  0  0  0  0
    4.6546    1.5029   18.8063 C   0  0  0  0  0  0  0  0  0  0  0  0
    3.7909    2.1551   18.7472 H   0  0  0  0  0  0  0  0  0  0  0  0
  1  2  1  0
  2  3  2  0
  3  4  1  0
  4  5  1  0
  4  6  2  0
  6  7  1  0
  7  8  1  1
  7  9  1  0
  9 10  1  0
 10 11  2  0
 10 12  1  0
 12 13  2  0
 12 14  1  0
 14 15  1  0
 14 16  1  0
 16 17  1  0
 16 18  1  0
 16 19  1  0
 19 20  1  0
 19 21  1  0
 21 22  1  0
 21 23  1  0
 21 24  1  0
 24 25  1  0
 24 26  1  0
  7 27  1  0
 27 28  1  0
 27 29  1  0
 27 30  1  0
  6 31  1  0
 31 32  1  0
 31 33  2  0
 33 34  1  0
 33  2  1  0
 24 19  1  0
M  END
>  <cnnaffinity>  (1) 
-4.49746

>  <filename>  (1) 
C[C@@H](OC(=O)C(=O)NCC1CC1)c1cccnc1

$$$$
