
     RDKit          3D

 36 37  0  0  0  0  0  0  0  0999 V2000
    4.9403    2.0917   16.7585 H   0  0  0  0  0  0  0  0  0  0  0  0
    5.3171    1.3766   17.4865 C   0  0  0  0  0  0  0  0  0  0  0  0
    6.3441    0.6042   17.0911 N   0  0  0  0  0  0  0  0  0  0  0  0
    6.8520   -0.2423   17.9969 C   0  0  0  0  0  0  0  0  0  0  0  0
    7.6991   -0.8448   17.6765 H   0  0  0  0  0  0  0  0  0  0  0  0
    6.3905   -0.3602   19.3199 C   0  0  0  0  0  0  0  0  0  0  0  0
    7.3181   -1.2472   20.5512 S   0  0  0  0  0  0  0  0  0  0  0  0
    8.0941    0.2421   21.3093 C   0  0  1  0  0  0  0  0  0  0  0  0
    7.4953    1.1071   20.9932 H   0  0  0  0  0  0  0  0  0  0  0  0
    7.9893    0.1148   22.7214 N   0  0  0  0  0  0  0  0  0  0  0  0
    8.1614   -0.8058   23.0882 H   0  0  0  0  0  0  0  0  0  0  0  0
    8.2147    1.2311   23.6032 C   0  0  0  0  0  0  0  0  0  0  0  0
    8.6122    2.0823   23.0178 H   0  0  0  0  0  0  0  0  0  0  0  0
    6.9082    1.7032   24.2727 C   0  0  0  0  0  0  0  0  0  0  0  0
    6.1834    1.9853   23.4967 H   0  0  0  0  0  0  0  0  0  0  0  0
    6.4575    0.8471   24.7996 H   0  0  0  0  0  0  0  0  0  0  0  0
    7.1616    2.8732   25.2453 C   0  0  0  0  0  0  0  0  0  0  0  0
    6.2279    3.1031   25.7744 H   0  0  0  0  0  0  0  0  0  0  0  0
    7.4135    3.7793   24.6705 H   0  0  0  0  0  0  0  0  0  0  0  0
    8.2911    2.5736   26.2583 C   0  0  0  0  0  0  0  0  0  0  0  0
    7.9389    1.8097   26.9685 H   0  0  0  0  0  0  0  0  0  0  0  0
    8.5080    3.4752   26.8462 H   0  0  0  0  0  0  0  0  0  0  0  0
    9.5754    2.0417   25.5942 C   0  0  0  0  0  0  0  0  0  0  0  0
   10.0696    2.8384   25.0173 H   0  0  0  0  0  0  0  0  0  0  0  0
   10.3049    1.7306   26.3541 H   0  0  0  0  0  0  0  0  0  0  0  0
    9.2522    0.8555   24.6740 C   0  0  0  0  0  0  0  0  0  0  0  0
   10.1583    0.4629   24.1932 H   0  0  0  0  0  0  0  0  0  0  0  0
    8.8244    0.0312   25.2678 H   0  0  0  0  0  0  0  0  0  0  0  0
    9.5111    0.4889   20.7888 C   0  0  0  0  0  0  0  0  0  0  0  0
   10.2140   -0.2477   21.1854 H   0  0  0  0  0  0  0  0  0  0  0  0
    9.8511    1.4943   21.0592 H   0  0  0  0  0  0  0  0  0  0  0  0
    9.5231    0.4114   19.7024 H   0  0  0  0  0  0  0  0  0  0  0  0
    5.2815    0.4138   19.7011 C   0  0  0  0  0  0  0  0  0  0  0  0
    4.8976    0.3469   20.7197 H   0  0  0  0  0  0  0  0  0  0  0  0
    4.7495    1.3013   18.7626 C   0  0  0  0  0  0  0  0  0  0  0  0
    3.9366    1.9634   19.0333 H   0  0  0  0  0  0  0  0  0  0  0  0
  1  2  1  0
  2  3  2  0
  3  4  1  0
  4  5  1  0
  4  6  2  0
  6  7  1  0
  7  8  1  0
  8  9  1  6
  8 10  1  0
 10 11  1  0
 10 12  1  0
 12 13  1  0
 12 14  1  0
 14 15  1  0
 14 16  1  0
 14 17  1  0
 17 18  1  0
 17 19  1  0
 17 20  1  0
 20 21  1  0
 20 22  1  0
 20 23  1  0
 23 24  1  0
 23 25  1  0
 23 26  1  0
 26 27  1  0
 26 28  1  0
  8 29  1  0
 29 30  1  0
 29 31  1  0
 29 32  1  0
  6 33  1  0
 33 34  1  0
 33 35  2  0
 35 36  1  0
 35  2  1  0
 26 12  1  0
M  END
>  <cnnaffinity>  (1) 
-4.20538

>  <filename>  (1) 
C[C@H](NC1CCCCC1)Sc1cccnc1

$$$$
