
     RDKit          3D

 43 46  0  0  0  0  0  0  0  0999 V2000
    6.0356   -5.0945   24.1442 C   0  0  0  0  0  0  0  0  0  0  0  0
    7.0095   -4.3671   23.2432 C   0  0  2  0  0  0  0  0  0  0  0  0
    8.4259   -4.1425   23.7065 C   0  0  0  0  0  0  0  0  0  0  0  0
    7.4690   -2.9766   23.6116 C   0  0  1  0  0  0  0  0  0  0  0  0
    7.6668   -1.9613   22.5509 C   0  0  0  0  0  0  0  0  0  0  0  0
    6.7245   -1.5966   21.7006 N   0  0  0  0  0  0  0  0  0  0  0  0
    7.3522   -0.6575   20.9461 N   0  0  0  0  0  0  0  0  0  0  0  0
    6.6609    0.0005   19.8909 C   0  0  0  0  0  0  0  0  0  0  0  0
    5.4468    0.6398   20.1571 C   0  0  0  0  0  0  0  0  0  0  0  0
    4.8100    1.3092   19.1063 C   0  0  0  0  0  0  0  0  0  0  0  0
    5.3993    1.2938   17.8369 C   0  0  0  0  0  0  0  0  0  0  0  0
    6.5516    0.6602   17.5690 N   0  0  0  0  0  0  0  0  0  0  0  0
    7.1641    0.0360   18.5805 C   0  0  0  0  0  0  0  0  0  0  0  0
    8.1070   -0.4554   18.3431 H   0  0  0  0  0  0  0  0  0  0  0  0
    4.9317    1.8061   16.9979 H   0  0  0  0  0  0  0  0  0  0  0  0
    3.8770    1.8440   19.2598 H   0  0  0  0  0  0  0  0  0  0  0  0
    5.0382    0.6030   21.1674 H   0  0  0  0  0  0  0  0  0  0  0  0
    8.6205   -0.4796   21.4148 C   0  0  0  0  0  0  0  0  0  0  0  0
    9.5216    0.6186   20.9519 C   0  0  0  0  0  0  0  0  0  0  0  0
    9.0826    2.0114   21.4648 C   0  0  0  0  0  0  0  0  0  0  0  0
    9.1009    2.0756   22.9765 C   0  0  0  0  0  0  0  0  0  0  0  0
    7.9681    1.8614   23.7738 C   0  0  0  0  0  0  0  0  0  0  0  0
    6.7678    1.6973   23.1771 F   0  0  0  0  0  0  0  0  0  0  0  0
    8.0094    1.8017   25.1641 C   0  0  0  0  0  0  0  0  0  0  0  0
    9.2394    1.9420   25.8113 C   0  0  0  0  0  0  0  0  0  0  0  0
   10.4139    2.1005   25.0634 C   0  0  0  0  0  0  0  0  0  0  0  0
   10.3096    2.1811   23.6791 C   0  0  0  0  0  0  0  0  0  0  0  0
   11.4472    2.3583   22.9725 F   0  0  0  0  0  0  0  0  0  0  0  0
   11.4169    2.1309   25.4773 H   0  0  0  0  0  0  0  0  0  0  0  0
    9.2371    1.9347   26.8954 H   0  0  0  0  0  0  0  0  0  0  0  0
    7.0858    1.6221   25.7035 H   0  0  0  0  0  0  0  0  0  0  0  0
    9.7656    2.7619   21.0627 H   0  0  0  0  0  0  0  0  0  0  0  0
    8.0815    2.2564   21.0940 H   0  0  0  0  0  0  0  0  0  0  0  0
   10.5323    0.3822   21.2983 H   0  0  0  0  0  0  0  0  0  0  0  0
    9.5415    0.6052   19.8619 H   0  0  0  0  0  0  0  0  0  0  0  0
    8.8560   -1.3140   22.4022 N   0  0  0  0  0  0  0  0  0  0  0  0
    7.0882   -2.5275   24.5335 H   0  0  0  0  0  0  0  0  0  0  0  0
    8.7090   -4.4977   24.6966 H   0  0  0  0  0  0  0  0  0  0  0  0
    9.2456   -4.1650   22.9897 H   0  0  0  0  0  0  0  0  0  0  0  0
    6.8474   -4.5195   22.1721 H   0  0  0  0  0  0  0  0  0  0  0  0
    6.1400   -6.1783   24.0248 H   0  0  0  0  0  0  0  0  0  0  0  0
    4.9959   -4.8326   23.9147 H   0  0  0  0  0  0  0  0  0  0  0  0
    6.2155   -4.8557   25.2005 H   0  0  0  0  0  0  0  0  0  0  0  0
  1  2  1  0
  2  3  1  0
  3  4  1  0
  4  5  1  0
  5  6  2  0
  6  7  1  0
  7  8  1  0
  8  9  2  0
  9 10  1  0
 10 11  2  0
 11 12  1  0
 12 13  2  0
 13 14  1  0
 11 15  1  0
 10 16  1  0
  9 17  1  0
  7 18  1  0
 18 19  1  0
 19 20  1  0
 20 21  1  0
 21 22  2  0
 22 23  1  0
 22 24  1  0
 24 25  2  0
 25 26  1  0
 26 27  2  0
 27 28  1  0
 26 29  1  0
 25 30  1  0
 24 31  1  0
 20 32  1  0
 20 33  1  0
 19 34  1  0
 19 35  1  0
 18 36  2  0
  4 37  1  1
  3 38  1  0
  3 39  1  0
  2 40  1  6
  1 41  1  0
  1 42  1  0
  1 43  1  0
  4  2  1  0
 36  5  1  0
 13  8  1  0
 27 21  1  0
M  END
>  <cnnaffinity>  (1) 
-6.18797

>  <filename>  (1) 
C[C@@H]1C[C@H]1c1nc(CCc2c(F)cccc2F)n(-c2cccnc2)n1

$$$$
