
     RDKit          3D

 39 42  0  0  0  0  0  0  0  0999 V2000
    6.2025   -5.2314   24.0894 C   0  0  0  0  0  0  0  0  0  0  0  0
    7.1758   -4.4896   23.1835 C   0  0  2  0  0  0  0  0  0  0  0  0
    8.5871   -4.1808   23.6837 C   0  0  0  0  0  0  0  0  0  0  0  0
    7.5407   -3.0647   23.5804 C   0  0  1  0  0  0  0  0  0  0  0  0
    7.6580   -1.9843   22.5488 C   0  0  0  0  0  0  0  0  0  0  0  0
    6.7681   -1.7417   21.6152 N   0  0  0  0  0  0  0  0  0  0  0  0
    7.3043   -0.6987   20.9484 N   0  0  0  0  0  0  0  0  0  0  0  0
    6.6536   -0.0160   19.9165 C   0  0  0  0  0  0  0  0  0  0  0  0
    5.4244    0.6129   20.1391 C   0  0  0  0  0  0  0  0  0  0  0  0
    4.8324    1.2895   19.0727 C   0  0  0  0  0  0  0  0  0  0  0  0
    5.4559    1.3061   17.8210 C   0  0  0  0  0  0  0  0  0  0  0  0
    6.6264    0.6792   17.5989 N   0  0  0  0  0  0  0  0  0  0  0  0
    7.2098    0.0387   18.6300 C   0  0  0  0  0  0  0  0  0  0  0  0
    8.1568   -0.4656   18.4593 H   0  0  0  0  0  0  0  0  0  0  0  0
    4.9832    1.8411   17.0023 H   0  0  0  0  0  0  0  0  0  0  0  0
    3.8967    1.8203   19.1989 H   0  0  0  0  0  0  0  0  0  0  0  0
    4.9558    0.5942   21.1228 H   0  0  0  0  0  0  0  0  0  0  0  0
    8.5190   -0.3783   21.5430 C   0  0  0  0  0  0  0  0  0  0  0  0
    9.4392    0.7460   21.2003 C   0  0  0  0  0  0  0  0  0  0  0  0
    8.9270    2.0081   21.8731 C   0  0  0  0  0  0  0  0  0  0  0  0
    7.6706    2.5076   21.5252 C   0  0  0  0  0  0  0  0  0  0  0  0
    7.2146    3.6798   22.1360 C   0  0  0  0  0  0  0  0  0  0  0  0
    5.4640    4.3675   21.7323 Br  0  0  0  0  0  0  0  0  0  0  0  0
    8.0641    4.3418   23.0431 C   0  0  0  0  0  0  0  0  0  0  0  0
    9.2600    3.8479   23.4115 N   0  0  0  0  0  0  0  0  0  0  0  0
    9.6688    2.6930   22.8570 C   0  0  0  0  0  0  0  0  0  0  0  0
   10.5913    2.2474   23.2201 H   0  0  0  0  0  0  0  0  0  0  0  0
    7.7447    5.2730   23.5086 H   0  0  0  0  0  0  0  0  0  0  0  0
    7.0688    1.9935   20.7764 H   0  0  0  0  0  0  0  0  0  0  0  0
   10.4509    0.4887   21.5286 H   0  0  0  0  0  0  0  0  0  0  0  0
    9.4821    0.8656   20.1162 H   0  0  0  0  0  0  0  0  0  0  0  0
    8.7625   -1.1599   22.5477 N   0  0  0  0  0  0  0  0  0  0  0  0
    7.1295   -2.6824   24.5176 H   0  0  0  0  0  0  0  0  0  0  0  0
    9.4110   -4.1784   22.9618 H   0  0  0  0  0  0  0  0  0  0  0  0
    8.8640   -4.5228   24.6869 H   0  0  0  0  0  0  0  0  0  0  0  0
    7.0555   -4.7088   22.1162 H   0  0  0  0  0  0  0  0  0  0  0  0
    6.3907   -4.9892   25.1404 H   0  0  0  0  0  0  0  0  0  0  0  0
    5.1749   -4.9474   23.8449 H   0  0  0  0  0  0  0  0  0  0  0  0
    6.3088   -6.3087   23.9513 H   0  0  0  0  0  0  0  0  0  0  0  0
  1  2  1  0
  2  3  1  0
  3  4  1  0
  4  5  1  0
  5  6  2  0
  6  7  1  0
  7  8  1  0
  8  9  2  0
  9 10  1  0
 10 11  2  0
 11 12  1  0
 12 13  2  0
 13 14  1  0
 11 15  1  0
 10 16  1  0
  9 17  1  0
  7 18  1  0
 18 19  1  0
 19 20  1  0
 20 21  2  0
 21 22  1  0
 22 23  1  0
 22 24  2  0
 24 25  1  0
 25 26  2  0
 26 27  1  0
 24 28  1  0
 21 29  1  0
 19 30  1  0
 19 31  1  0
 18 32  2  0
  4 33  1  1
  3 34  1  0
  3 35  1  0
  2 36  1  6
  1 37  1  0
  1 38  1  0
  1 39  1  0
  4  2  1  0
 32  5  1  0
 13  8  1  0
 26 20  1  0
M  END
>  <cnnaffinity>  (1) 
-6.04203

>  <filename>  (1) 
C[C@@H]1C[C@H]1c1nc(Cc2cncc(Br)c2)n(-c2cccnc2)n1

$$$$
