
     RDKit          3D

 38 39  0  0  0  0  0  0  0  0999 V2000
    4.9386    1.7943   16.9868 H   0  0  0  0  0  0  0  0  0  0  0  0
    5.4043    1.2862   17.8288 C   0  0  0  0  0  0  0  0  0  0  0  0
    6.5631    0.6671   17.5778 N   0  0  0  0  0  0  0  0  0  0  0  0
    7.1696    0.0513   18.6029 C   0  0  0  0  0  0  0  0  0  0  0  0
    8.1278   -0.4082   18.3812 H   0  0  0  0  0  0  0  0  0  0  0  0
    6.6610   -0.0076   19.9075 C   0  0  0  0  0  0  0  0  0  0  0  0
    7.4175   -0.7096   21.0295 C   0  0  1  0  0  0  0  0  0  0  0  0
    8.6666   -1.2625   20.5216 N   0  0  0  0  0  0  0  0  0  0  0  0
    9.1651   -1.6352   21.3265 H   0  0  0  0  0  0  0  0  0  0  0  0
    8.4222   -2.0748   19.9576 H   0  0  0  0  0  0  0  0  0  0  0  0
    7.7698    0.3164   22.1174 C   0  0  0  0  0  0  0  0  0  0  0  0
    6.8666    0.7314   22.5805 H   0  0  0  0  0  0  0  0  0  0  0  0
    8.3845   -0.1301   22.9090 H   0  0  0  0  0  0  0  0  0  0  0  0
    8.3316    1.1350   21.6590 H   0  0  0  0  0  0  0  0  0  0  0  0
    6.4984   -1.8368   21.5812 C   0  0  0  0  0  0  0  0  0  0  0  0
    5.5963   -1.3297   21.9072 H   0  0  0  0  0  0  0  0  0  0  0  0
    6.2012   -2.4753   20.7391 H   0  0  0  0  0  0  0  0  0  0  0  0
    7.0685   -2.6925   22.6892 C   0  0  0  0  0  0  0  0  0  0  0  0
    7.7345   -3.8880   22.3813 C   0  0  0  0  0  0  0  0  0  0  0  0
    7.7909   -4.2009   21.3436 H   0  0  0  0  0  0  0  0  0  0  0  0
    8.3345   -4.6630   23.3787 C   0  0  0  0  0  0  0  0  0  0  0  0
    8.8584   -5.5766   23.1200 H   0  0  0  0  0  0  0  0  0  0  0  0
    8.2772   -4.2583   24.7097 C   0  0  0  0  0  0  0  0  0  0  0  0
    8.7743   -4.8540   25.4790 H   0  0  0  0  0  0  0  0  0  0  0  0
    7.5887   -3.0765   25.0298 C   0  0  0  0  0  0  0  0  0  0  0  0
    7.5333   -2.5312   26.7321 S   0  0  0  0  0  0  0  0  0  0  0  0
    8.5774   -3.2566   27.4429 O   0  0  0  0  0  0  0  0  0  0  0  0
    7.4267   -1.0776   26.7722 O   0  0  0  0  0  0  0  0  0  0  0  0
    5.9971   -3.1296   27.3469 C   0  0  0  0  0  0  0  0  0  0  0  0
    5.2189   -2.7106   26.7132 H   0  0  0  0  0  0  0  0  0  0  0  0
    6.0654   -4.2148   27.3291 H   0  0  0  0  0  0  0  0  0  0  0  0
    5.8967   -2.7395   28.3587 H   0  0  0  0  0  0  0  0  0  0  0  0
    6.9949   -2.2884   24.0289 C   0  0  0  0  0  0  0  0  0  0  0  0
    6.5121   -1.3408   24.2623 H   0  0  0  0  0  0  0  0  0  0  0  0
    5.4353    0.6418   20.1442 C   0  0  0  0  0  0  0  0  0  0  0  0
    4.9842    0.6581   21.1407 H   0  0  0  0  0  0  0  0  0  0  0  0
    4.8025    1.3030   19.0930 C   0  0  0  0  0  0  0  0  0  0  0  0
    3.8721    1.8415   19.2427 H   0  0  0  0  0  0  0  0  0  0  0  0
  1  2  1  0
  2  3  2  0
  3  4  1  0
  4  5  1  0
  4  6  2  0
  6  7  1  0
  7  8  1  6
  8  9  1  0
  8 10  1  0
  7 11  1  0
 11 12  1  0
 11 13  1  0
 11 14  1  0
  7 15  1  0
 15 16  1  0
 15 17  1  0
 15 18  1  0
 18 19  2  0
 19 20  1  0
 19 21  1  0
 21 22  1  0
 21 23  2  0
 23 24  1  0
 23 25  1  0
 25 26  1  0
 26 27  2  0
 26 28  2  0
 26 29  1  0
 29 30  1  0
 29 31  1  0
 29 32  1  0
 25 33  2  0
 33 34  1  0
  6 35  1  0
 35 36  1  0
 35 37  2  0
 37 38  1  0
 37  2  1  0
 33 18  1  0
M  END
>  <cnnaffinity>  (1) 
-4.95716

>  <filename>  (1) 
C[C@@](N)(Cc1cccc(S(C)(=O)=O)c1)c1cccnc1

$$$$
