
     RDKit          3D

 33 34  0  0  0  0  0  0  0  0999 V2000
    8.9610    0.3486   20.9277 H   0  0  0  0  0  0  0  0  0  0  0  0
    8.7839   -0.6023   20.8575 O   0  0  0  0  0  0  0  0  0  0  0  0
    7.3798   -0.7056   21.1502 C   0  0  2  0  0  0  0  0  0  0  0  0
    6.6316    0.0282   20.0341 C   0  0  0  0  0  0  0  0  0  0  0  0
    7.1936    0.0523   18.7391 C   0  0  0  0  0  0  0  0  0  0  0  0
    8.1529   -0.4268   18.5570 H   0  0  0  0  0  0  0  0  0  0  0  0
    6.6382    0.6512   17.6799 N   0  0  0  0  0  0  0  0  0  0  0  0
    5.4716    1.2819   17.8740 C   0  0  0  0  0  0  0  0  0  0  0  0
    5.0410    1.7806   17.0075 H   0  0  0  0  0  0  0  0  0  0  0  0
    4.8207    1.3185   19.1107 C   0  0  0  0  0  0  0  0  0  0  0  0
    3.8920    1.8630   19.2127 H   0  0  0  0  0  0  0  0  0  0  0  0
    5.4017    0.6749   20.2061 C   0  0  0  0  0  0  0  0  0  0  0  0
    4.9198    0.6961   21.1857 H   0  0  0  0  0  0  0  0  0  0  0  0
    7.1755   -0.1121   22.5446 C   0  0  0  0  0  0  0  0  0  0  0  0
    6.1965   -0.3682   22.9561 H   0  0  0  0  0  0  0  0  0  0  0  0
    7.2895    0.9775   22.5282 H   0  0  0  0  0  0  0  0  0  0  0  0
    7.9414   -0.5309   23.2104 H   0  0  0  0  0  0  0  0  0  0  0  0
    7.0593   -2.2454   21.1641 C   0  0  0  0  0  0  0  0  0  0  0  0
    7.1701   -2.5722   20.1253 H   0  0  0  0  0  0  0  0  0  0  0  0
    7.8451   -2.7243   21.7524 H   0  0  0  0  0  0  0  0  0  0  0  0
    5.7592   -2.7027   21.6351 N   0  0  0  0  0  0  0  0  0  0  0  0
    4.9608   -2.4854   21.0656 H   0  0  0  0  0  0  0  0  0  0  0  0
    5.4207   -3.3674   22.8067 C   0  0  0  0  0  0  0  0  0  0  0  0
    6.1831   -3.3717   23.9890 C   0  0  0  0  0  0  0  0  0  0  0  0
    7.1006   -2.7896   24.0294 H   0  0  0  0  0  0  0  0  0  0  0  0
    5.7285   -4.0799   25.1119 C   0  0  0  0  0  0  0  0  0  0  0  0
    6.3220   -4.0782   26.0264 H   0  0  0  0  0  0  0  0  0  0  0  0
    4.5070   -4.7642   25.0736 C   0  0  0  0  0  0  0  0  0  0  0  0
    4.1668   -5.3068   25.9452 H   0  0  0  0  0  0  0  0  0  0  0  0
    3.7300   -4.7478   23.9096 C   0  0  0  0  0  0  0  0  0  0  0  0
    2.7426   -5.2120   23.8891 H   0  0  0  0  0  0  0  0  0  0  0  0
    4.2055   -4.0800   22.7864 C   0  0  0  0  0  0  0  0  0  0  0  0
    3.6571   -4.1297   21.8592 H   0  0  0  0  0  0  0  0  0  0  0  0
  1  2  1  0
  3  2  1  6
  3  4  1  0
  4  5  2  0
  5  6  1  0
  5  7  1  0
  7  8  2  0
  8  9  1  0
  8 10  1  0
 10 11  1  0
 10 12  2  0
 12 13  1  0
  3 14  1  0
 14 15  1  0
 14 16  1  0
 14 17  1  0
  3 18  1  0
 18 19  1  0
 18 20  1  0
 18 21  1  0
 21 22  1  0
 21 23  1  0
 23 24  2  0
 24 25  1  0
 24 26  1  0
 26 27  1  0
 26 28  2  0
 28 29  1  0
 28 30  1  0
 30 31  1  0
 30 32  2  0
 32 33  1  0
 12  4  1  0
 32 23  1  0
M  END
>  <cnnaffinity>  (1) 
-4.35489

>  <filename>  (1) 
C[C@@](O)(CNc1ccccc1)c1cccnc1

$$$$
