
     RDKit          3D

 41 44  0  0  0  0  0  0  0  0999 V2000
    6.0421   -5.0622   24.1720 C   0  0  0  0  0  0  0  0  0  0  0  0
    7.0053   -4.3284   23.2682 C   0  0  2  0  0  0  0  0  0  0  0  0
    8.4229   -4.1062   23.7258 C   0  0  0  0  0  0  0  0  0  0  0  0
    7.4621   -2.9419   23.6387 C   0  0  1  0  0  0  0  0  0  0  0  0
    7.6561   -1.9252   22.5796 C   0  0  0  0  0  0  0  0  0  0  0  0
    6.7149   -1.5607   21.7293 N   0  0  0  0  0  0  0  0  0  0  0  0
    7.3608   -0.6614   20.9394 N   0  0  0  0  0  0  0  0  0  0  0  0
    6.6618    0.0065   19.8995 C   0  0  0  0  0  0  0  0  0  0  0  0
    5.4445    0.6431   20.1622 C   0  0  0  0  0  0  0  0  0  0  0  0
    4.8136    1.3106   19.1083 C   0  0  0  0  0  0  0  0  0  0  0  0
    5.3994    1.2963   17.8370 C   0  0  0  0  0  0  0  0  0  0  0  0
    6.5561    0.6700   17.5737 N   0  0  0  0  0  0  0  0  0  0  0  0
    7.1673    0.0491   18.5887 C   0  0  0  0  0  0  0  0  0  0  0  0
    8.1118   -0.4411   18.3584 H   0  0  0  0  0  0  0  0  0  0  0  0
    4.9257    1.7939   16.9935 H   0  0  0  0  0  0  0  0  0  0  0  0
    3.8804    1.8389   19.2595 H   0  0  0  0  0  0  0  0  0  0  0  0
    5.0189    0.6008   21.1663 H   0  0  0  0  0  0  0  0  0  0  0  0
    8.6328   -0.4915   21.4083 C   0  0  0  0  0  0  0  0  0  0  0  0
    9.5307    0.6093   20.9459 C   0  0  0  0  0  0  0  0  0  0  0  0
    9.0490    2.0234   21.3852 C   0  0  0  0  0  0  0  0  0  0  0  0
    8.9306    2.1494   22.8776 C   0  0  0  0  0  0  0  0  0  0  0  0
    7.7181    1.9298   23.5346 C   0  0  0  0  0  0  0  0  0  0  0  0
    7.7532    1.9712   24.9210 C   0  0  0  0  0  0  0  0  0  0  0  0
    8.8826    2.1840   25.6003 N   0  0  0  0  0  0  0  0  0  0  0  0
    9.9896    2.3334   24.8691 C   0  0  0  0  0  0  0  0  0  0  0  0
   10.0666    2.3619   23.5451 N   0  0  0  0  0  0  0  0  0  0  0  0
   10.9373    2.4014   25.3908 H   0  0  0  0  0  0  0  0  0  0  0  0
    6.8545    1.8057   25.5190 H   0  0  0  0  0  0  0  0  0  0  0  0
    6.8264    1.6769   22.9775 H   0  0  0  0  0  0  0  0  0  0  0  0
    8.0785    2.2462   20.9279 H   0  0  0  0  0  0  0  0  0  0  0  0
    9.7703    2.7710   21.0471 H   0  0  0  0  0  0  0  0  0  0  0  0
    9.5931    0.5751   19.8581 H   0  0  0  0  0  0  0  0  0  0  0  0
   10.5290    0.4033   21.3469 H   0  0  0  0  0  0  0  0  0  0  0  0
    8.8511   -1.2905   22.4278 N   0  0  0  0  0  0  0  0  0  0  0  0
    7.0923   -2.5055   24.5696 H   0  0  0  0  0  0  0  0  0  0  0  0
    8.7042   -4.4736   24.7132 H   0  0  0  0  0  0  0  0  0  0  0  0
    9.2407   -4.1338   23.0042 H   0  0  0  0  0  0  0  0  0  0  0  0
    6.8518   -4.4859   22.1982 H   0  0  0  0  0  0  0  0  0  0  0  0
    6.2403   -4.8109   25.2210 H   0  0  0  0  0  0  0  0  0  0  0  0
    4.9989   -4.8040   23.9529 H   0  0  0  0  0  0  0  0  0  0  0  0
    6.1637   -6.1457   24.0612 H   0  0  0  0  0  0  0  0  0  0  0  0
  1  2  1  0
  2  3  1  0
  3  4  1  0
  4  5  1  0
  5  6  2  0
  6  7  1  0
  7  8  1  0
  8  9  2  0
  9 10  1  0
 10 11  2  0
 11 12  1  0
 12 13  2  0
 13 14  1  0
 11 15  1  0
 10 16  1  0
  9 17  1  0
  7 18  1  0
 18 19  1  0
 19 20  1  0
 20 21  1  0
 21 22  2  0
 22 23  1  0
 23 24  2  0
 24 25  1  0
 25 26  2  0
 25 27  1  0
 23 28  1  0
 22 29  1  0
 20 30  1  0
 20 31  1  0
 19 32  1  0
 19 33  1  0
 18 34  2  0
  4 35  1  1
  3 36  1  0
  3 37  1  0
  2 38  1  6
  1 39  1  0
  1 40  1  0
  1 41  1  0
  4  2  1  0
 34  5  1  0
 13  8  1  0
 26 21  1  0
M  END
>  <cnnaffinity>  (1) 
-5.95117

>  <filename>  (1) 
C[C@@H]1C[C@H]1c1nc(CCc2ccncn2)n(-c2cccnc2)n1

$$$$
