
     RDKit          3D

 46 49  0  0  0  0  0  0  0  0999 V2000
    6.0724   -5.1960   24.0425 C   0  0  0  0  0  0  0  0  0  0  0  0
    7.0595   -4.4464   23.1746 C   0  0  2  0  0  0  0  0  0  0  0  0
    8.4629   -4.1949   23.6506 C   0  0  0  0  0  0  0  0  0  0  0  0
    7.4827   -3.0486   23.5604 C   0  0  1  0  0  0  0  0  0  0  0  0
    7.6651   -1.9937   22.5301 C   0  0  0  0  0  0  0  0  0  0  0  0
    6.7176   -1.6067   21.6964 N   0  0  0  0  0  0  0  0  0  0  0  0
    7.3415   -0.6591   20.9482 N   0  0  0  0  0  0  0  0  0  0  0  0
    6.6505    0.0005   19.8935 C   0  0  0  0  0  0  0  0  0  0  0  0
    5.4316    0.6353   20.1456 C   0  0  0  0  0  0  0  0  0  0  0  0
    4.8124    1.3126   19.0926 C   0  0  0  0  0  0  0  0  0  0  0  0
    5.4134    1.3095   17.8270 C   0  0  0  0  0  0  0  0  0  0  0  0
    6.5628    0.6683   17.5683 N   0  0  0  0  0  0  0  0  0  0  0  0
    7.1595    0.0315   18.5821 C   0  0  0  0  0  0  0  0  0  0  0  0
    8.0860   -0.4887   18.3472 H   0  0  0  0  0  0  0  0  0  0  0  0
    4.9523    1.8276   16.9891 H   0  0  0  0  0  0  0  0  0  0  0  0
    3.8786    1.8422   19.2392 H   0  0  0  0  0  0  0  0  0  0  0  0
    4.9986    0.5886   21.1467 H   0  0  0  0  0  0  0  0  0  0  0  0
    8.6105   -0.4770   21.4183 C   0  0  0  0  0  0  0  0  0  0  0  0
    9.4914    0.6262   20.9335 C   0  0  0  0  0  0  0  0  0  0  0  0
    8.9508    2.0313   21.2745 C   0  0  0  0  0  0  0  0  0  0  0  0
    8.7804    2.2691   22.7946 C   0  0  0  0  0  0  0  0  0  0  0  0
   10.1165    2.1573   23.5093 C   0  0  0  0  0  0  0  0  0  0  0  0
   10.4689    1.0119   24.2441 C   0  0  0  0  0  0  0  0  0  0  0  0
   11.7978    0.7724   24.6074 C   0  0  0  0  0  0  0  0  0  0  0  0
   12.7897    1.6890   24.2621 C   0  0  0  0  0  0  0  0  0  0  0  0
   12.4400    2.8884   23.6327 C   0  0  0  0  0  0  0  0  0  0  0  0
   11.1093    3.1279   23.2816 C   0  0  0  0  0  0  0  0  0  0  0  0
   10.8402    4.0681   22.7986 H   0  0  0  0  0  0  0  0  0  0  0  0
   13.2075    3.6193   23.3975 H   0  0  0  0  0  0  0  0  0  0  0  0
   13.8317    1.4698   24.4659 H   0  0  0  0  0  0  0  0  0  0  0  0
   12.0595   -0.1333   25.1516 H   0  0  0  0  0  0  0  0  0  0  0  0
    9.7083    0.2750   24.4948 H   0  0  0  0  0  0  0  0  0  0  0  0
    8.3399    3.2604   22.9528 H   0  0  0  0  0  0  0  0  0  0  0  0
    8.0694    1.5350   23.1968 H   0  0  0  0  0  0  0  0  0  0  0  0
    8.0062    2.2035   20.7410 H   0  0  0  0  0  0  0  0  0  0  0  0
    9.6662    2.7659   20.8920 H   0  0  0  0  0  0  0  0  0  0  0  0
   10.4868    0.4763   21.3656 H   0  0  0  0  0  0  0  0  0  0  0  0
    9.5892    0.5265   19.8495 H   0  0  0  0  0  0  0  0  0  0  0  0
    8.8479   -1.3297   22.3950 N   0  0  0  0  0  0  0  0  0  0  0  0
    7.0998   -2.6532   24.5059 H   0  0  0  0  0  0  0  0  0  0  0  0
    9.2710   -4.2163   22.9205 H   0  0  0  0  0  0  0  0  0  0  0  0
    8.7382   -4.5390   24.6473 H   0  0  0  0  0  0  0  0  0  0  0  0
    6.9458   -4.6185   22.1012 H   0  0  0  0  0  0  0  0  0  0  0  0
    6.2361   -5.0003   25.1109 H   0  0  0  0  0  0  0  0  0  0  0  0
    6.1712   -6.2762   23.8889 H   0  0  0  0  0  0  0  0  0  0  0  0
    5.0427   -4.9056   23.8011 H   0  0  0  0  0  0  0  0  0  0  0  0
  1  2  1  0
  2  3  1  0
  3  4  1  0
  4  5  1  0
  5  6  2  0
  6  7  1  0
  7  8  1  0
  8  9  2  0
  9 10  1  0
 10 11  2  0
 11 12  1  0
 12 13  2  0
 13 14  1  0
 11 15  1  0
 10 16  1  0
  9 17  1  0
  7 18  1  0
 18 19  1  0
 19 20  1  0
 20 21  1  0
 21 22  1  0
 22 23  2  0
 23 24  1  0
 24 25  2  0
 25 26  1  0
 26 27  2  0
 27 28  1  0
 26 29  1  0
 25 30  1  0
 24 31  1  0
 23 32  1  0
 21 33  1  0
 21 34  1  0
 20 35  1  0
 20 36  1  0
 19 37  1  0
 19 38  1  0
 18 39  2  0
  4 40  1  1
  3 41  1  0
  3 42  1  0
  2 43  1  6
  1 44  1  0
  1 45  1  0
  1 46  1  0
  4  2  1  0
 39  5  1  0
 13  8  1  0
 27 22  1  0
M  END
>  <cnnaffinity>  (1) 
-6.19817

>  <filename>  (1) 
C[C@@H]1C[C@H]1c1nc(CCCc2ccccc2)n(-c2cccnc2)n1

$$$$
