
     RDKit          3D

 40 43  0  0  0  0  0  0  0  0999 V2000
    5.8729   -5.0399   24.1755 C   0  0  0  0  0  0  0  0  0  0  0  0
    6.8338   -4.3710   23.2074 C   0  0  2  0  0  0  0  0  0  0  0  0
    8.3102   -4.2849   23.5867 C   0  0  0  0  0  0  0  0  0  0  0  0
    7.4338   -3.0251   23.5945 C   0  0  1  0  0  0  0  0  0  0  0  0
    7.6004   -1.9700   22.5508 C   0  0  0  0  0  0  0  0  0  0  0  0
    6.6463   -1.5781   21.7452 N   0  0  0  0  0  0  0  0  0  0  0  0
    7.2712   -0.6645   20.9731 N   0  0  0  0  0  0  0  0  0  0  0  0
    6.6477    0.0057   19.9142 C   0  0  0  0  0  0  0  0  0  0  0  0
    5.4274    0.6378   20.1456 C   0  0  0  0  0  0  0  0  0  0  0  0
    4.8117    1.3007   19.0854 C   0  0  0  0  0  0  0  0  0  0  0  0
    5.4175    1.3013   17.8259 C   0  0  0  0  0  0  0  0  0  0  0  0
    6.5896    0.6804   17.5849 N   0  0  0  0  0  0  0  0  0  0  0  0
    7.1892    0.0522   18.6172 C   0  0  0  0  0  0  0  0  0  0  0  0
    8.1365   -0.4449   18.4284 H   0  0  0  0  0  0  0  0  0  0  0  0
    4.9164    1.8222   17.0161 H   0  0  0  0  0  0  0  0  0  0  0  0
    3.8744    1.8290   19.2327 H   0  0  0  0  0  0  0  0  0  0  0  0
    4.9904    0.6274   21.1419 H   0  0  0  0  0  0  0  0  0  0  0  0
    8.5924   -0.5648   21.3801 C   0  0  0  0  0  0  0  0  0  0  0  0
    9.6406    0.2778   20.7596 C   0  0  0  0  0  0  0  0  0  0  0  0
   10.4251    0.9910   21.8134 C   0  0  0  0  0  0  0  0  0  0  0  0
    9.8864    2.0717   22.5013 C   0  0  0  0  0  0  0  0  0  0  0  0
    8.1354    2.7488   22.0952 Br  0  0  0  0  0  0  0  0  0  0  0  0
   10.6635    2.6336   23.5115 C   0  0  0  0  0  0  0  0  0  0  0  0
   10.2741    3.6539   24.2777 O   0  0  0  0  0  0  0  0  0  0  0  0
   11.0540    3.7583   24.8434 H   0  0  0  0  0  0  0  0  0  0  0  0
   11.8796    2.2290   23.8700 N   0  0  0  0  0  0  0  0  0  0  0  0
   12.3989    1.1934   23.2009 C   0  0  0  0  0  0  0  0  0  0  0  0
   11.6985    0.5545   22.1742 C   0  0  0  0  0  0  0  0  0  0  0  0
   12.1515   -0.2881   21.6738 H   0  0  0  0  0  0  0  0  0  0  0  0
   13.3887    0.8314   23.4754 H   0  0  0  0  0  0  0  0  0  0  0  0
   10.2874   -0.3923   20.1956 H   0  0  0  0  0  0  0  0  0  0  0  0
    9.1700    0.9945   20.0874 H   0  0  0  0  0  0  0  0  0  0  0  0
    8.8274   -1.3668   22.3707 N   0  0  0  0  0  0  0  0  0  0  0  0
    7.1568   -2.5809   24.5544 H   0  0  0  0  0  0  0  0  0  0  0  0
    8.6096   -4.7018   24.5562 H   0  0  0  0  0  0  0  0  0  0  0  0
    9.0627   -4.3813   22.7942 H   0  0  0  0  0  0  0  0  0  0  0  0
    6.5729   -4.5133   22.1517 H   0  0  0  0  0  0  0  0  0  0  0  0
    5.8874   -6.1192   24.0136 H   0  0  0  0  0  0  0  0  0  0  0  0
    4.8548   -4.6783   24.0120 H   0  0  0  0  0  0  0  0  0  0  0  0
    6.1571   -4.8317   25.2117 H   0  0  0  0  0  0  0  0  0  0  0  0
  1  2  1  0
  2  3  1  0
  3  4  1  0
  4  5  1  0
  5  6  2  0
  6  7  1  0
  7  8  1  0
  8  9  2  0
  9 10  1  0
 10 11  2  0
 11 12  1  0
 12 13  2  0
 13 14  1  0
 11 15  1  0
 10 16  1  0
  9 17  1  0
  7 18  1  0
 18 19  1  0
 19 20  1  0
 20 21  2  0
 21 22  1  0
 21 23  1  0
 23 24  1  0
 24 25  1  0
 23 26  2  0
 26 27  1  0
 27 28  2  0
 28 29  1  0
 27 30  1  0
 19 31  1  0
 19 32  1  0
 18 33  2  0
  4 34  1  1
  3 35  1  0
  3 36  1  0
  2 37  1  6
  1 38  1  0
  1 39  1  0
  1 40  1  0
  4  2  1  0
 33  5  1  0
 13  8  1  0
 28 20  1  0
M  END
>  <cnnaffinity>  (1) 
-6.19098

>  <filename>  (1) 
C[C@@H]1C[C@H]1c1nc(Cc2ccnc(O)c2Br)n(-c2cccnc2)n1

$$$$
