
     RDKit          3D

 44 47  0  0  0  0  0  0  0  0999 V2000
    6.0815   -5.1272   24.0817 C   0  0  0  0  0  0  0  0  0  0  0  0
    7.0327   -4.3589   23.2016 C   0  0  2  0  0  0  0  0  0  0  0  0
    8.4451   -4.1351   23.6621 C   0  0  0  0  0  0  0  0  0  0  0  0
    7.4757   -2.9824   23.5974 C   0  0  1  0  0  0  0  0  0  0  0  0
    7.6625   -1.9379   22.5680 C   0  0  0  0  0  0  0  0  0  0  0  0
    6.7323   -1.5909   21.7011 N   0  0  0  0  0  0  0  0  0  0  0  0
    7.3603   -0.6530   20.9449 N   0  0  0  0  0  0  0  0  0  0  0  0
    6.6611    0.0141   19.9023 C   0  0  0  0  0  0  0  0  0  0  0  0
    5.4396    0.6443   20.1668 C   0  0  0  0  0  0  0  0  0  0  0  0
    4.8136    1.3097   19.1092 C   0  0  0  0  0  0  0  0  0  0  0  0
    5.4009    1.2964   17.8374 C   0  0  0  0  0  0  0  0  0  0  0  0
    6.5595    0.6725   17.5755 N   0  0  0  0  0  0  0  0  0  0  0  0
    7.1694    0.0533   18.5924 C   0  0  0  0  0  0  0  0  0  0  0  0
    8.1117   -0.4374   18.3644 H   0  0  0  0  0  0  0  0  0  0  0  0
    4.9223    1.7871   16.9932 H   0  0  0  0  0  0  0  0  0  0  0  0
    3.8817    1.8380   19.2581 H   0  0  0  0  0  0  0  0  0  0  0  0
    5.0157    0.6046   21.1751 H   0  0  0  0  0  0  0  0  0  0  0  0
    8.6144   -0.4522   21.4522 C   0  0  0  0  0  0  0  0  0  0  0  0
    9.5088    0.6406   21.0000 C   0  0  0  0  0  0  0  0  0  0  0  0
    9.0361    2.0192   21.4689 C   0  0  0  0  0  0  0  0  0  0  0  0
    8.9747    1.9935   22.8926 O   0  0  0  0  0  0  0  0  0  0  0  0
    8.5342    3.0735   23.5987 C   0  0  0  0  0  0  0  0  0  0  0  0
    8.1398    4.2984   23.0385 C   0  0  0  0  0  0  0  0  0  0  0  0
    7.7051    5.3491   23.8617 C   0  0  0  0  0  0  0  0  0  0  0  0
    7.6685    5.1692   25.2379 C   0  0  0  0  0  0  0  0  0  0  0  0
    7.2518    6.1754   26.0272 F   0  0  0  0  0  0  0  0  0  0  0  0
    8.0567    3.9635   25.8215 C   0  0  0  0  0  0  0  0  0  0  0  0
    8.4883    2.9178   25.0014 C   0  0  0  0  0  0  0  0  0  0  0  0
    8.7932    1.9719   25.4362 H   0  0  0  0  0  0  0  0  0  0  0  0
    8.0102    3.8669   26.9023 H   0  0  0  0  0  0  0  0  0  0  0  0
    7.3928    6.3026   23.4451 H   0  0  0  0  0  0  0  0  0  0  0  0
    8.1735    4.4394   21.9616 H   0  0  0  0  0  0  0  0  0  0  0  0
    9.7448    2.7855   21.1298 H   0  0  0  0  0  0  0  0  0  0  0  0
    8.0494    2.2439   21.0381 H   0  0  0  0  0  0  0  0  0  0  0  0
   10.5092    0.4294   21.3795 H   0  0  0  0  0  0  0  0  0  0  0  0
    9.5672    0.6448   19.9104 H   0  0  0  0  0  0  0  0  0  0  0  0
    8.8428   -1.2737   22.4483 N   0  0  0  0  0  0  0  0  0  0  0  0
    7.1038   -2.5831   24.5384 H   0  0  0  0  0  0  0  0  0  0  0  0
    8.7236   -4.5290   24.6377 H   0  0  0  0  0  0  0  0  0  0  0  0
    9.2598   -4.1398   22.9405 H   0  0  0  0  0  0  0  0  0  0  0  0
    6.8910   -4.4947   22.1323 H   0  0  0  0  0  0  0  0  0  0  0  0
    5.0358   -4.8762   23.8760 H   0  0  0  0  0  0  0  0  0  0  0  0
    6.2817   -4.8966   25.1328 H   0  0  0  0  0  0  0  0  0  0  0  0
    6.2192   -6.2054   23.9522 H   0  0  0  0  0  0  0  0  0  0  0  0
  1  2  1  0
  2  3  1  0
  3  4  1  0
  4  5  1  0
  5  6  2  0
  6  7  1  0
  7  8  1  0
  8  9  2  0
  9 10  1  0
 10 11  2  0
 11 12  1  0
 12 13  2  0
 13 14  1  0
 11 15  1  0
 10 16  1  0
  9 17  1  0
  7 18  1  0
 18 19  1  0
 19 20  1  0
 20 21  1  0
 21 22  1  0
 22 23  2  0
 23 24  1  0
 24 25  2  0
 25 26  1  0
 25 27  1  0
 27 28  2  0
 28 29  1  0
 27 30  1  0
 24 31  1  0
 23 32  1  0
 20 33  1  0
 20 34  1  0
 19 35  1  0
 19 36  1  0
 18 37  2  0
  4 38  1  1
  3 39  1  0
  3 40  1  0
  2 41  1  6
  1 42  1  0
  1 43  1  0
  1 44  1  0
  4  2  1  0
 37  5  1  0
 13  8  1  0
 28 22  1  0
M  END
>  <cnnaffinity>  (1) 
-6.1862

>  <filename>  (1) 
C[C@@H]1C[C@H]1c1nc(CCOc2ccc(F)cc2)n(-c2cccnc2)n1

$$$$
