
     RDKit          3D

 44 47  0  0  0  0  0  0  0  0999 V2000
    6.0792   -5.1361   24.0693 C   0  0  0  0  0  0  0  0  0  0  0  0
    7.0291   -4.3656   23.1900 C   0  0  2  0  0  0  0  0  0  0  0  0
    8.4409   -4.1450   23.6517 C   0  0  0  0  0  0  0  0  0  0  0  0
    7.4732   -2.9910   23.5923 C   0  0  1  0  0  0  0  0  0  0  0  0
    7.6614   -1.9439   22.5650 C   0  0  0  0  0  0  0  0  0  0  0  0
    6.7321   -1.5969   21.6971 N   0  0  0  0  0  0  0  0  0  0  0  0
    7.3591   -0.6561   20.9440 N   0  0  0  0  0  0  0  0  0  0  0  0
    6.6609    0.0131   19.9019 C   0  0  0  0  0  0  0  0  0  0  0  0
    5.4400    0.6447   20.1661 C   0  0  0  0  0  0  0  0  0  0  0  0
    4.8134    1.3103   19.1095 C   0  0  0  0  0  0  0  0  0  0  0  0
    5.4008    1.2963   17.8380 C   0  0  0  0  0  0  0  0  0  0  0  0
    6.5601    0.6732   17.5765 N   0  0  0  0  0  0  0  0  0  0  0  0
    7.1700    0.0533   18.5926 C   0  0  0  0  0  0  0  0  0  0  0  0
    8.1128   -0.4376   18.3656 H   0  0  0  0  0  0  0  0  0  0  0  0
    4.9208    1.7860   16.9941 H   0  0  0  0  0  0  0  0  0  0  0  0
    3.8813    1.8384   19.2597 H   0  0  0  0  0  0  0  0  0  0  0  0
    5.0153    0.6062   21.1732 H   0  0  0  0  0  0  0  0  0  0  0  0
    8.6139   -0.4573   21.4489 C   0  0  0  0  0  0  0  0  0  0  0  0
    9.5103    0.6339   20.9962 C   0  0  0  0  0  0  0  0  0  0  0  0
    9.0417    2.0097   21.4753 C   0  0  0  0  0  0  0  0  0  0  0  0
    8.9839    1.9678   22.9001 O   0  0  0  0  0  0  0  0  0  0  0  0
    8.5510    3.0360   23.6187 C   0  0  0  0  0  0  0  0  0  0  0  0
    8.1591    4.2734   23.0872 C   0  0  0  0  0  0  0  0  0  0  0  0
    7.7279    5.3214   23.9155 C   0  0  0  0  0  0  0  0  0  0  0  0
    7.6907    5.1284   25.2870 C   0  0  0  0  0  0  0  0  0  0  0  0
    7.2803    6.1223   26.0894 F   0  0  0  0  0  0  0  0  0  0  0  0
    8.0714    3.9207   25.8672 C   0  0  0  0  0  0  0  0  0  0  0  0
    8.4933    2.8950   25.0303 C   0  0  0  0  0  0  0  0  0  0  0  0
    8.8573    1.7363   25.5998 F   0  0  0  0  0  0  0  0  0  0  0  0
    8.0371    3.7793   26.9421 H   0  0  0  0  0  0  0  0  0  0  0  0
    7.4204    6.2776   23.5068 H   0  0  0  0  0  0  0  0  0  0  0  0
    8.1929    4.4245   22.0118 H   0  0  0  0  0  0  0  0  0  0  0  0
    8.0523    2.2411   21.0542 H   0  0  0  0  0  0  0  0  0  0  0  0
    9.7519    2.7791   21.1455 H   0  0  0  0  0  0  0  0  0  0  0  0
    9.5660    0.6460   19.9062 H   0  0  0  0  0  0  0  0  0  0  0  0
   10.5113    0.4186   21.3729 H   0  0  0  0  0  0  0  0  0  0  0  0
    8.8421   -1.2803   22.4445 N   0  0  0  0  0  0  0  0  0  0  0  0
    7.1027   -2.5970   24.5367 H   0  0  0  0  0  0  0  0  0  0  0  0
    9.2529   -4.1477   22.9275 H   0  0  0  0  0  0  0  0  0  0  0  0
    8.7166   -4.5423   24.6266 H   0  0  0  0  0  0  0  0  0  0  0  0
    6.8898   -4.4985   22.1197 H   0  0  0  0  0  0  0  0  0  0  0  0
    6.2794   -4.9081   25.1213 H   0  0  0  0  0  0  0  0  0  0  0  0
    5.0336   -4.8847   23.8645 H   0  0  0  0  0  0  0  0  0  0  0  0
    6.2172   -6.2140   23.9371 H   0  0  0  0  0  0  0  0  0  0  0  0
  1  2  1  0
  2  3  1  0
  3  4  1  0
  4  5  1  0
  5  6  2  0
  6  7  1  0
  7  8  1  0
  8  9  2  0
  9 10  1  0
 10 11  2  0
 11 12  1  0
 12 13  2  0
 13 14  1  0
 11 15  1  0
 10 16  1  0
  9 17  1  0
  7 18  1  0
 18 19  1  0
 19 20  1  0
 20 21  1  0
 21 22  1  0
 22 23  2  0
 23 24  1  0
 24 25  2  0
 25 26  1  0
 25 27  1  0
 27 28  2  0
 28 29  1  0
 27 30  1  0
 24 31  1  0
 23 32  1  0
 20 33  1  0
 20 34  1  0
 19 35  1  0
 19 36  1  0
 18 37  2  0
  4 38  1  1
  3 39  1  0
  3 40  1  0
  2 41  1  6
  1 42  1  0
  1 43  1  0
  1 44  1  0
  4  2  1  0
 37  5  1  0
 13  8  1  0
 28 22  1  0
M  END
>  <cnnaffinity>  (1) 
-6.22776

>  <filename>  (1) 
C[C@@H]1C[C@H]1c1nc(CCOc2ccc(F)cc2F)n(-c2cccnc2)n1

$$$$
