
     RDKit          3D

 41 44  0  0  0  0  0  0  0  0999 V2000
    8.2016   -3.7796   26.0351 C   0  0  0  0  0  0  0  0  0  0  0  0
    7.5214   -2.7426   25.1735 C   0  0  2  0  0  0  0  0  0  0  0  0
    6.0888   -2.8705   24.7421 C   0  0  0  0  0  0  0  0  0  0  0  0
    7.2003   -3.0461   23.7320 C   0  0  1  0  0  0  0  0  0  0  0  0
    7.5197   -2.0465   22.6855 C   0  0  0  0  0  0  0  0  0  0  0  0
    6.7243   -1.7728   21.6688 N   0  0  0  0  0  0  0  0  0  0  0  0
    7.4250   -0.8298   20.9753 N   0  0  0  0  0  0  0  0  0  0  0  0
    6.8336   -0.2357   19.8180 C   0  0  0  0  0  0  0  0  0  0  0  0
    5.5948    0.4068   19.9288 C   0  0  0  0  0  0  0  0  0  0  0  0
    5.0357    0.9949   18.7886 C   0  0  0  0  0  0  0  0  0  0  0  0
    5.7344    0.9156   17.5824 C   0  0  0  0  0  0  0  0  0  0  0  0
    6.8912    0.2545   17.4552 N   0  0  0  0  0  0  0  0  0  0  0  0
    7.4156   -0.3291   18.5399 C   0  0  0  0  0  0  0  0  0  0  0  0
    8.3449   -0.8785   18.3893 H   0  0  0  0  0  0  0  0  0  0  0  0
    5.3418    1.3854   16.6829 H   0  0  0  0  0  0  0  0  0  0  0  0
    4.0891    1.5213   18.8324 H   0  0  0  0  0  0  0  0  0  0  0  0
    5.0714    0.4042   20.8877 H   0  0  0  0  0  0  0  0  0  0  0  0
    8.6143   -0.6026   21.6172 C   0  0  0  0  0  0  0  0  0  0  0  0
    9.6902    0.3488   21.2327 C   0  0  0  0  0  0  0  0  0  0  0  0
    9.5493    1.8432   22.0783 C   0  0  0  0  0  0  0  0  0  0  0  0
    8.3781    2.8710   22.0666 C   0  0  0  0  0  0  0  0  0  0  0  0
    6.8928    2.4086   22.2737 C   0  0  0  0  0  0  0  0  0  0  0  0
    5.8115    2.9063   22.8322 N   0  0  0  0  0  0  0  0  0  0  0  0
    6.0609    4.2984   23.3436 C   0  0  0  0  0  0  0  0  0  0  0  0
    7.2312    4.7505   23.2114 N   0  0  0  0  0  0  0  0  0  0  0  0
    8.2922    2.9296   22.1685 C   0  0  0  0  0  0  0  0  0  0  0  0
    8.7309    2.9907   20.3664 H   0  0  0  0  0  0  0  0  0  0  0  0
    5.1845    4.7918   23.7748 H   0  0  0  0  0  0  0  0  0  0  0  0
    6.5552    1.4027   21.9184 H   0  0  0  0  0  0  0  0  0  0  0  0
   10.5630    2.2262   21.7237 H   0  0  0  0  0  0  0  0  0  0  0  0
    9.9426    1.4747   23.0775 H   0  0  0  0  0  0  0  0  0  0  0  0
    9.6902    0.4896   20.1465 H   0  0  0  0  0  0  0  0  0  0  0  0
   10.6504   -0.0849   21.5209 H   0  0  0  0  0  0  0  0  0  0  0  0
    8.6907   -1.3542   22.6936 N   0  0  0  0  0  0  0  0  0  0  0  0
    7.3838   -4.0661   23.3909 H   0  0  0  0  0  0  0  0  0  0  0  0
    5.4742   -1.9736   24.6983 H   0  0  0  0  0  0  0  0  0  0  0  0
    5.5469   -3.7665   25.0405 H   0  0  0  0  0  0  0  0  0  0  0  0
    7.8513   -1.7176   25.3535 H   0  0  0  0  0  0  0  0  0  0  0  0
    8.0342   -3.5799   27.0996 H   0  0  0  0  0  0  0  0  0  0  0  0
    7.8315   -4.7907   25.8268 H   0  0  0  0  0  0  0  0  0  0  0  0
    9.2834   -3.7797   25.8575 H   0  0  0  0  0  0  0  0  0  0  0  0
  1  2  1  0
  2  3  1  0
  3  4  1  0
  4  5  1  0
  5  6  2  0
  6  7  1  0
  7  8  1  0
  8  9  2  0
  9 10  1  0
 10 11  2  0
 11 12  1  0
 12 13  2  0
 13 14  1  0
 11 15  1  0
 10 16  1  0
  9 17  1  0
  7 18  1  0
 18 19  1  0
 19 20  1  0
 20 21  1  0
 21 22  2  0
 22 23  1  0
 23 24  2  0
 24 25  1  0
 25 26  2  0
 26 27  1  0
 24 28  1  0
 22 29  1  0
 20 30  1  0
 20 31  1  0
 19 32  1  0
 19 33  1  0
 18 34  2  0
  4 35  1  6
  3 36  1  0
  3 37  1  0
  2 38  1  6
  1 39  1  0
  1 40  1  0
  1 41  1  0
  4  2  1  0
 34  5  1  0
 13  8  1  0
 26 21  1  0
M  END
>  <cnnaffinity>  (1) 
-5.96377

>  <filename>  (1) 
C[C@@H]1C[C@H]1c1nc(CCc2cncnc2)n(-c2cccnc2)n1

$$$$
