
     RDKit          3D

 39 42  0  0  0  0  0  0  0  0999 V2000
    5.8836   -5.0275   24.1700 C   0  0  0  0  0  0  0  0  0  0  0  0
    6.8276   -4.3371   23.2020 C   0  0  2  0  0  0  0  0  0  0  0  0
    8.3027   -4.2582   23.5908 C   0  0  0  0  0  0  0  0  0  0  0  0
    7.4321   -2.9994   23.6055 C   0  0  1  0  0  0  0  0  0  0  0  0
    7.6274   -1.9690   22.5449 C   0  0  0  0  0  0  0  0  0  0  0  0
    6.6653   -1.5682   21.7490 N   0  0  0  0  0  0  0  0  0  0  0  0
    7.2900   -0.6939   20.9369 N   0  0  0  0  0  0  0  0  0  0  0  0
    6.6544    0.0035   19.9090 C   0  0  0  0  0  0  0  0  0  0  0  0
    5.4407    0.6433   20.1570 C   0  0  0  0  0  0  0  0  0  0  0  0
    4.8225    1.3017   19.1007 C   0  0  0  0  0  0  0  0  0  0  0  0
    5.4039    1.2962   17.8271 C   0  0  0  0  0  0  0  0  0  0  0  0
    6.5767    0.6804   17.5850 N   0  0  0  0  0  0  0  0  0  0  0  0
    7.1884    0.0601   18.6063 C   0  0  0  0  0  0  0  0  0  0  0  0
    8.1330   -0.4407   18.4068 H   0  0  0  0  0  0  0  0  0  0  0  0
    4.8920    1.8021   17.0149 H   0  0  0  0  0  0  0  0  0  0  0  0
    3.8892    1.8270   19.2537 H   0  0  0  0  0  0  0  0  0  0  0  0
    5.0075    0.6250   21.1589 H   0  0  0  0  0  0  0  0  0  0  0  0
    8.6106   -0.5951   21.3400 C   0  0  0  0  0  0  0  0  0  0  0  0
    9.6379    0.3004   20.7469 C   0  0  0  0  0  0  0  0  0  0  0  0
   10.4618    1.0077   21.8090 C   0  0  0  0  0  0  0  0  0  0  0  0
   11.7241    0.5047   22.1261 C   0  0  0  0  0  0  0  0  0  0  0  0
   12.4283    1.1185   23.1561 C   0  0  0  0  0  0  0  0  0  0  0  0
   11.8545    2.1938   23.8356 C   0  0  0  0  0  0  0  0  0  0  0  0
   10.6470    2.6869   23.5462 N   0  0  0  0  0  0  0  0  0  0  0  0
    9.9605    2.1096   22.5458 C   0  0  0  0  0  0  0  0  0  0  0  0
    8.2149    2.7800   22.1681 Br  0  0  0  0  0  0  0  0  0  0  0  0
   12.4024    2.6524   24.6390 H   0  0  0  0  0  0  0  0  0  0  0  0
   13.4113    0.7668   23.4446 H   0  0  0  0  0  0  0  0  0  0  0  0
   12.1352   -0.3571   21.5997 H   0  0  0  0  0  0  0  0  0  0  0  0
    9.1530    1.0307   20.0960 H   0  0  0  0  0  0  0  0  0  0  0  0
   10.2629   -0.3659   20.1510 H   0  0  0  0  0  0  0  0  0  0  0  0
    8.8632   -1.4047   22.3218 N   0  0  0  0  0  0  0  0  0  0  0  0
    7.1533   -2.5849   24.5766 H   0  0  0  0  0  0  0  0  0  0  0  0
    8.5970   -4.6960   24.5506 H   0  0  0  0  0  0  0  0  0  0  0  0
    9.0516   -4.3476   22.7979 H   0  0  0  0  0  0  0  0  0  0  0  0
    6.5886   -4.4853   22.1420 H   0  0  0  0  0  0  0  0  0  0  0  0
    5.9183   -6.1107   24.0118 H   0  0  0  0  0  0  0  0  0  0  0  0
    6.1852   -4.8120   25.1993 H   0  0  0  0  0  0  0  0  0  0  0  0
    4.8576   -4.6739   24.0202 H   0  0  0  0  0  0  0  0  0  0  0  0
  1  2  1  0
  2  3  1  0
  3  4  1  0
  4  5  1  0
  5  6  2  0
  6  7  1  0
  7  8  1  0
  8  9  2  0
  9 10  1  0
 10 11  2  0
 11 12  1  0
 12 13  2  0
 13 14  1  0
 11 15  1  0
 10 16  1  0
  9 17  1  0
  7 18  1  0
 18 19  1  0
 19 20  1  0
 20 21  2  0
 21 22  1  0
 22 23  2  0
 23 24  1  0
 24 25  2  0
 25 26  1  0
 23 27  1  0
 22 28  1  0
 21 29  1  0
 19 30  1  0
 19 31  1  0
 18 32  2  0
  4 33  1  1
  3 34  1  0
  3 35  1  0
  2 36  1  6
  1 37  1  0
  1 38  1  0
  1 39  1  0
  4  2  1  0
 32  5  1  0
 13  8  1  0
 25 20  1  0
M  END
>  <cnnaffinity>  (1) 
-6.28976

>  <filename>  (1) 
C[C@@H]1C[C@H]1c1nc(Cc2cccnc2Br)n(-c2cccnc2)n1

$$$$
