
     RDKit          3D

 32 33  0  0  0  0  0  0  0  0999 V2000
    4.9282    1.7777   16.9980 H   0  0  0  0  0  0  0  0  0  0  0  0
    5.4092    1.2861   17.8422 C   0  0  0  0  0  0  0  0  0  0  0  0
    6.5688    0.6630   17.5933 N   0  0  0  0  0  0  0  0  0  0  0  0
    7.1620    0.0361   18.6187 C   0  0  0  0  0  0  0  0  0  0  0  0
    8.1160   -0.4263   18.3657 H   0  0  0  0  0  0  0  0  0  0  0  0
    6.6635   -0.0096   19.9298 C   0  0  0  0  0  0  0  0  0  0  0  0
    7.4920   -0.7179   21.0002 C   0  0  1  0  0  0  0  0  0  0  0  0
    7.6162   -2.1044   20.5798 N   0  0  0  0  0  0  0  0  0  0  0  0
    8.2064   -2.5965   21.2441 H   0  0  0  0  0  0  0  0  0  0  0  0
    8.0921   -2.1328   19.6879 H   0  0  0  0  0  0  0  0  0  0  0  0
    8.8664   -0.0585   21.1440 C   0  0  0  0  0  0  0  0  0  0  0  0
    9.3906   -0.0335   20.1868 H   0  0  0  0  0  0  0  0  0  0  0  0
    9.4793   -0.6164   21.8577 H   0  0  0  0  0  0  0  0  0  0  0  0
    8.7411    0.9688   21.4984 H   0  0  0  0  0  0  0  0  0  0  0  0
    6.7583   -0.7327   22.3622 C   0  0  0  0  0  0  0  0  0  0  0  0
    6.5874    0.3027   22.6798 H   0  0  0  0  0  0  0  0  0  0  0  0
    5.8090   -1.2012   22.1335 H   0  0  0  0  0  0  0  0  0  0  0  0
    7.4206   -1.4771   23.4960 C   0  0  0  0  0  0  0  0  0  0  0  0
    8.3499   -0.8059   24.3107 C   0  0  0  0  0  0  0  0  0  0  0  0
    8.5489    0.2441   24.1058 H   0  0  0  0  0  0  0  0  0  0  0  0
    9.0229   -1.4540   25.3460 C   0  0  0  0  0  0  0  0  0  0  0  0
    9.7366   -0.9055   25.9518 H   0  0  0  0  0  0  0  0  0  0  0  0
    8.7685   -2.8044   25.5958 C   0  0  0  0  0  0  0  0  0  0  0  0
    9.2843   -3.3165   26.4011 H   0  0  0  0  0  0  0  0  0  0  0  0
    7.8406   -3.4993   24.8194 C   0  0  0  0  0  0  0  0  0  0  0  0
    7.6199   -4.5463   25.0037 H   0  0  0  0  0  0  0  0  0  0  0  0
    7.1712   -2.8342   23.7879 C   0  0  0  0  0  0  0  0  0  0  0  0
    5.9997   -3.7619   22.8820 Cl  0  0  0  0  0  0  0  0  0  0  0  0
    5.4449    0.6449   20.1586 C   0  0  0  0  0  0  0  0  0  0  0  0
    4.9962    0.6428   21.1523 H   0  0  0  0  0  0  0  0  0  0  0  0
    4.8128    1.3065   19.1048 C   0  0  0  0  0  0  0  0  0  0  0  0
    3.8812    1.8383   19.2601 H   0  0  0  0  0  0  0  0  0  0  0  0
  1  2  1  0
  2  3  2  0
  3  4  1  0
  4  5  1  0
  4  6  2  0
  6  7  1  0
  7  8  1  6
  8  9  1  0
  8 10  1  0
  7 11  1  0
 11 12  1  0
 11 13  1  0
 11 14  1  0
  7 15  1  0
 15 16  1  0
 15 17  1  0
 15 18  1  0
 18 19  2  0
 19 20  1  0
 19 21  1  0
 21 22  1  0
 21 23  2  0
 23 24  1  0
 23 25  1  0
 25 26  1  0
 25 27  2  0
 27 28  1  0
  6 29  1  0
 29 30  1  0
 29 31  2  0
 31 32  1  0
 31  2  1  0
 27 18  1  0
M  END
>  <cnnaffinity>  (1) 
-4.71485

>  <filename>  (1) 
C[C@@](N)(Cc1ccccc1Cl)c1cccnc1

$$$$
