
     RDKit          3D

 41 44  0  0  0  0  0  0  0  0999 V2000
    8.2806   -3.5126   26.0722 C   0  0  0  0  0  0  0  0  0  0  0  0
    7.7709   -2.4732   25.0984 C   0  0  2  0  0  0  0  0  0  0  0  0
    6.3254   -2.5146   24.6856 C   0  0  0  0  0  0  0  0  0  0  0  0
    7.4054   -2.8740   23.6932 C   0  0  1  0  0  0  0  0  0  0  0  0
    7.6761   -1.9605   22.5568 C   0  0  0  0  0  0  0  0  0  0  0  0
    6.7375   -1.6134   21.6958 N   0  0  0  0  0  0  0  0  0  0  0  0
    7.3639   -0.6864   20.9240 N   0  0  0  0  0  0  0  0  0  0  0  0
    6.6567   -0.0018   19.8969 C   0  0  0  0  0  0  0  0  0  0  0  0
    5.4411    0.6394   20.1646 C   0  0  0  0  0  0  0  0  0  0  0  0
    4.8131    1.3092   19.1096 C   0  0  0  0  0  0  0  0  0  0  0  0
    5.3989    1.2957   17.8383 C   0  0  0  0  0  0  0  0  0  0  0  0
    6.5568    0.6711   17.5761 N   0  0  0  0  0  0  0  0  0  0  0  0
    7.1660    0.0472   18.5887 C   0  0  0  0  0  0  0  0  0  0  0  0
    8.1129   -0.4384   18.3596 H   0  0  0  0  0  0  0  0  0  0  0  0
    4.9241    1.7899   16.9940 H   0  0  0  0  0  0  0  0  0  0  0  0
    3.8818    1.8394   19.2585 H   0  0  0  0  0  0  0  0  0  0  0  0
    5.0231    0.6058   21.1732 H   0  0  0  0  0  0  0  0  0  0  0  0
    8.6412   -0.5295   21.3788 C   0  0  0  0  0  0  0  0  0  0  0  0
    9.5215    0.6117   20.9738 C   0  0  0  0  0  0  0  0  0  0  0  0
    9.0580    1.9909   21.5491 C   0  0  0  0  0  0  0  0  0  0  0  0
    8.9363    1.9921   23.0555 C   0  0  0  0  0  0  0  0  0  0  0  0
   10.0683    2.1246   23.7548 N   0  0  0  0  0  0  0  0  0  0  0  0
    9.9717    2.0012   25.0755 C   0  0  0  0  0  0  0  0  0  0  0  0
    8.7702    1.7645   25.7280 C   0  0  0  0  0  0  0  0  0  0  0  0
    7.6650    1.6454   24.9066 C   0  0  0  0  0  0  0  0  0  0  0  0
    7.7249    1.7742   23.5808 N   0  0  0  0  0  0  0  0  0  0  0  0
    6.6728    1.4345   25.3153 H   0  0  0  0  0  0  0  0  0  0  0  0
    8.7012    1.6889   26.8067 H   0  0  0  0  0  0  0  0  0  0  0  0
   10.9084    2.0868   25.6254 H   0  0  0  0  0  0  0  0  0  0  0  0
    8.0798    2.2604   21.1444 H   0  0  0  0  0  0  0  0  0  0  0  0
    9.7766    2.7654   21.2723 H   0  0  0  0  0  0  0  0  0  0  0  0
   10.5331    0.3795   21.3211 H   0  0  0  0  0  0  0  0  0  0  0  0
    9.5553    0.6648   19.8851 H   0  0  0  0  0  0  0  0  0  0  0  0
    8.8828   -1.3639   22.3673 N   0  0  0  0  0  0  0  0  0  0  0  0
    7.5407   -3.9193   23.4205 H   0  0  0  0  0  0  0  0  0  0  0  0
    5.7998   -1.5725   24.5197 H   0  0  0  0  0  0  0  0  0  0  0  0
    5.6991   -3.3127   25.0834 H   0  0  0  0  0  0  0  0  0  0  0  0
    8.2200   -1.4783   25.1902 H   0  0  0  0  0  0  0  0  0  0  0  0
    8.0296   -3.2323   27.1029 H   0  0  0  0  0  0  0  0  0  0  0  0
    7.8009   -4.4786   25.8732 H   0  0  0  0  0  0  0  0  0  0  0  0
    9.3655   -3.6535   26.0008 H   0  0  0  0  0  0  0  0  0  0  0  0
  1  2  1  0
  2  3  1  0
  3  4  1  0
  4  5  1  0
  5  6  2  0
  6  7  1  0
  7  8  1  0
  8  9  2  0
  9 10  1  0
 10 11  2  0
 11 12  1  0
 12 13  2  0
 13 14  1  0
 11 15  1  0
 10 16  1  0
  9 17  1  0
  7 18  1  0
 18 19  1  0
 19 20  1  0
 20 21  1  0
 21 22  2  0
 22 23  1  0
 23 24  2  0
 24 25  1  0
 25 26  2  0
 25 27  1  0
 24 28  1  0
 23 29  1  0
 20 30  1  0
 20 31  1  0
 19 32  1  0
 19 33  1  0
 18 34  2  0
  4 35  1  6
  3 36  1  0
  3 37  1  0
  2 38  1  6
  1 39  1  0
  1 40  1  0
  1 41  1  0
  4  2  1  0
 34  5  1  0
 13  8  1  0
 26 21  1  0
M  END
>  <cnnaffinity>  (1) 
-5.9354

>  <filename>  (1) 
C[C@@H]1C[C@H]1c1nc(CCc2ncccn2)n(-c2cccnc2)n1

$$$$
