
     RDKit          3D

 34 35  0  0  0  0  0  0  0  0999 V2000
    4.9101    1.8124   16.9814 H   0  0  0  0  0  0  0  0  0  0  0  0
    5.3885    1.2939   17.8136 C   0  0  0  0  0  0  0  0  0  0  0  0
    6.5439    0.6689   17.5402 N   0  0  0  0  0  0  0  0  0  0  0  0
    7.1762    0.0642   18.5561 C   0  0  0  0  0  0  0  0  0  0  0  0
    8.1179   -0.4170   18.2920 H   0  0  0  0  0  0  0  0  0  0  0  0
    6.7121    0.0360   19.8883 C   0  0  0  0  0  0  0  0  0  0  0  0
    7.4550   -0.6951   21.0243 C   0  0  1  0  0  0  0  0  0  0  0  0
    8.4520   -0.9746   20.6601 H   0  0  0  0  0  0  0  0  0  0  0  0
    7.6781    0.2475   22.2332 C   0  0  0  0  0  0  0  0  0  0  0  0
    6.9560    0.2326   23.2145 O   0  0  0  0  0  0  0  0  0  0  0  0
    8.7210    1.1338   22.1038 N   0  0  0  0  0  0  0  0  0  0  0  0
    9.3823    1.0089   21.3593 H   0  0  0  0  0  0  0  0  0  0  0  0
    8.9275    2.2288   22.9632 C   0  0  0  0  0  0  0  0  0  0  0  0
    7.8342    2.9948   23.3758 C   0  0  0  0  0  0  0  0  0  0  0  0
    6.8577    2.6987   23.0149 H   0  0  0  0  0  0  0  0  0  0  0  0
    8.0041    4.0885   24.2290 C   0  0  0  0  0  0  0  0  0  0  0  0
    7.1343    4.6642   24.5573 H   0  0  0  0  0  0  0  0  0  0  0  0
    9.2907    4.4159   24.6736 C   0  0  0  0  0  0  0  0  0  0  0  0
    9.4355    5.2523   25.3521 H   0  0  0  0  0  0  0  0  0  0  0  0
   10.3909    3.6644   24.2520 C   0  0  0  0  0  0  0  0  0  0  0  0
   11.3940    3.9271   24.5851 H   0  0  0  0  0  0  0  0  0  0  0  0
   10.2206    2.5607   23.3991 C   0  0  0  0  0  0  0  0  0  0  0  0
   11.4080    1.7541   22.9447 C   0  0  0  0  0  0  0  0  0  0  0  0
   11.2369    0.4260   23.0739 F   0  0  0  0  0  0  0  0  0  0  0  0
   12.5223    2.0573   23.6375 F   0  0  0  0  0  0  0  0  0  0  0  0
   11.6861    1.9637   21.6368 F   0  0  0  0  0  0  0  0  0  0  0  0
    6.6813   -1.9750   21.4154 C   0  0  0  0  0  0  0  0  0  0  0  0
    5.6931   -1.7016   21.7962 H   0  0  0  0  0  0  0  0  0  0  0  0
    6.5345   -2.6178   20.5415 H   0  0  0  0  0  0  0  0  0  0  0  0
    7.1810   -2.5602   22.1944 H   0  0  0  0  0  0  0  0  0  0  0  0
    5.4843    0.6677   20.1355 C   0  0  0  0  0  0  0  0  0  0  0  0
    5.0620    0.6493   21.1421 H   0  0  0  0  0  0  0  0  0  0  0  0
    4.8142    1.3096   19.0888 C   0  0  0  0  0  0  0  0  0  0  0  0
    3.8737    1.8313   19.2419 H   0  0  0  0  0  0  0  0  0  0  0  0
  1  2  1  0
  2  3  2  0
  3  4  1  0
  4  5  1  0
  4  6  2  0
  6  7  1  0
  7  8  1  6
  7  9  1  0
  9 10  2  0
  9 11  1  0
 11 12  1  0
 11 13  1  0
 13 14  2  0
 14 15  1  0
 14 16  1  0
 16 17  1  0
 16 18  2  0
 18 19  1  0
 18 20  1  0
 20 21  1  0
 20 22  2  0
 22 23  1  0
 23 24  1  0
 23 25  1  0
 23 26  1  0
  7 27  1  0
 27 28  1  0
 27 29  1  0
 27 30  1  0
  6 31  1  0
 31 32  1  0
 31 33  2  0
 33 34  1  0
 33  2  1  0
 22 13  1  0
M  END
>  <cnnaffinity>  (1) 
-5.12867

>  <filename>  (1) 
C[C@H](C(=O)Nc1ccccc1C(F)(F)F)c1cccnc1

$$$$
