
     RDKit          3D

 40 43  0  0  0  0  0  0  0  0999 V2000
    6.0439   -5.0863   24.1433 C   0  0  0  0  0  0  0  0  0  0  0  0
    7.0061   -4.3472   23.2416 C   0  0  2  0  0  0  0  0  0  0  0  0
    8.4254   -4.1305   23.6965 C   0  0  0  0  0  0  0  0  0  0  0  0
    7.4674   -2.9639   23.6213 C   0  0  1  0  0  0  0  0  0  0  0  0
    7.6626   -1.9465   22.5614 C   0  0  0  0  0  0  0  0  0  0  0  0
    6.7157   -1.5741   21.7213 N   0  0  0  0  0  0  0  0  0  0  0  0
    7.3543   -0.6676   20.9349 N   0  0  0  0  0  0  0  0  0  0  0  0
    6.6572    0.0022   19.8953 C   0  0  0  0  0  0  0  0  0  0  0  0
    5.4420    0.6412   20.1612 C   0  0  0  0  0  0  0  0  0  0  0  0
    4.8123    1.3096   19.1077 C   0  0  0  0  0  0  0  0  0  0  0  0
    5.3993    1.2958   17.8365 C   0  0  0  0  0  0  0  0  0  0  0  0
    6.5557    0.6692   17.5725 N   0  0  0  0  0  0  0  0  0  0  0  0
    7.1660    0.0456   18.5858 C   0  0  0  0  0  0  0  0  0  0  0  0
    8.1104   -0.4432   18.3552 H   0  0  0  0  0  0  0  0  0  0  0  0
    4.9268    1.7959   16.9945 H   0  0  0  0  0  0  0  0  0  0  0  0
    3.8802    1.8406   19.2577 H   0  0  0  0  0  0  0  0  0  0  0  0
    5.0250    0.6035   21.1692 H   0  0  0  0  0  0  0  0  0  0  0  0
    8.6299   -0.5003   21.3960 C   0  0  0  0  0  0  0  0  0  0  0  0
    9.5297    0.6061   20.9430 C   0  0  0  0  0  0  0  0  0  0  0  0
    9.0677    2.0146   21.4235 C   0  0  0  0  0  0  0  0  0  0  0  0
    8.9587    2.1416   22.9187 C   0  0  0  0  0  0  0  0  0  0  0  0
    7.8604    1.9999   23.6249 N   0  0  0  0  0  0  0  0  0  0  0  0
    8.2539    1.9877   24.9397 C   0  0  0  0  0  0  0  0  0  0  0  0
    9.6097    2.1472   25.0371 C   0  0  0  0  0  0  0  0  0  0  0  0
   10.0459    2.2530   23.7305 N   0  0  0  0  0  0  0  0  0  0  0  0
   10.9915    2.3377   23.3883 H   0  0  0  0  0  0  0  0  0  0  0  0
   10.2654    2.2059   25.8906 H   0  0  0  0  0  0  0  0  0  0  0  0
    7.5246    1.8570   25.7312 H   0  0  0  0  0  0  0  0  0  0  0  0
    9.7604    2.7699   21.0442 H   0  0  0  0  0  0  0  0  0  0  0  0
    8.0824    2.2409   21.0056 H   0  0  0  0  0  0  0  0  0  0  0  0
   10.5325    0.3743   21.3136 H   0  0  0  0  0  0  0  0  0  0  0  0
    9.5766    0.5877   19.8529 H   0  0  0  0  0  0  0  0  0  0  0  0
    8.8600   -1.3198   22.3966 N   0  0  0  0  0  0  0  0  0  0  0  0
    7.1010   -2.5276   24.5563 H   0  0  0  0  0  0  0  0  0  0  0  0
    8.7099   -4.5039   24.6812 H   0  0  0  0  0  0  0  0  0  0  0  0
    9.2397   -4.1518   22.9704 H   0  0  0  0  0  0  0  0  0  0  0  0
    6.8469   -4.4948   22.1695 H   0  0  0  0  0  0  0  0  0  0  0  0
    6.1594   -6.1691   24.0195 H   0  0  0  0  0  0  0  0  0  0  0  0
    5.0010   -4.8225   23.9291 H   0  0  0  0  0  0  0  0  0  0  0  0
    6.2448   -4.8471   25.1954 H   0  0  0  0  0  0  0  0  0  0  0  0
  1  2  1  0
  2  3  1  0
  3  4  1  0
  4  5  1  0
  5  6  2  0
  6  7  1  0
  7  8  1  0
  8  9  2  0
  9 10  1  0
 10 11  2  0
 11 12  1  0
 12 13  2  0
 13 14  1  0
 11 15  1  0
 10 16  1  0
  9 17  1  0
  7 18  1  0
 18 19  1  0
 19 20  1  0
 20 21  1  0
 21 22  2  0
 22 23  1  0
 23 24  2  0
 24 25  1  0
 25 26  1  0
 24 27  1  0
 23 28  1  0
 20 29  1  0
 20 30  1  0
 19 31  1  0
 19 32  1  0
 18 33  2  0
  4 34  1  1
  3 35  1  0
  3 36  1  0
  2 37  1  6
  1 38  1  0
  1 39  1  0
  1 40  1  0
  4  2  1  0
 33  5  1  0
 13  8  1  0
 25 21  1  0
M  END
>  <cnnaffinity>  (1) 
-5.88545

>  <filename>  (1) 
C[C@@H]1C[C@H]1c1nc(CCc2ncc[nH]2)n(-c2cccnc2)n1

$$$$
