
     RDKit          3D

 44 47  0  0  0  0  0  0  0  0999 V2000
    6.0827   -5.1196   24.0980 C   0  0  0  0  0  0  0  0  0  0  0  0
    7.0365   -4.3552   23.2118 C   0  0  2  0  0  0  0  0  0  0  0  0
    8.4500   -4.1269   23.6760 C   0  0  0  0  0  0  0  0  0  0  0  0
    7.4772   -2.9746   23.6055 C   0  0  1  0  0  0  0  0  0  0  0  0
    7.6650   -1.9358   22.5671 C   0  0  0  0  0  0  0  0  0  0  0  0
    6.7321   -1.5873   21.7045 N   0  0  0  0  0  0  0  0  0  0  0  0
    7.3597   -0.6458   20.9493 N   0  0  0  0  0  0  0  0  0  0  0  0
    6.6623    0.0155   19.9032 C   0  0  0  0  0  0  0  0  0  0  0  0
    5.4399    0.6452   20.1647 C   0  0  0  0  0  0  0  0  0  0  0  0
    4.8130    1.3101   19.1084 C   0  0  0  0  0  0  0  0  0  0  0  0
    5.3994    1.2964   17.8378 C   0  0  0  0  0  0  0  0  0  0  0  0
    6.5586    0.6712   17.5758 N   0  0  0  0  0  0  0  0  0  0  0  0
    7.1690    0.0521   18.5927 C   0  0  0  0  0  0  0  0  0  0  0  0
    8.1122   -0.4404   18.3617 H   0  0  0  0  0  0  0  0  0  0  0  0
    4.9243    1.7896   16.9938 H   0  0  0  0  0  0  0  0  0  0  0  0
    3.8814    1.8380   19.2579 H   0  0  0  0  0  0  0  0  0  0  0  0
    5.0165    0.6034   21.1706 H   0  0  0  0  0  0  0  0  0  0  0  0
    8.6124   -0.4419   21.4565 C   0  0  0  0  0  0  0  0  0  0  0  0
    9.5080    0.6487   21.0028 C   0  0  0  0  0  0  0  0  0  0  0  0
    9.0337    2.0268   21.4662 C   0  0  0  0  0  0  0  0  0  0  0  0
    8.9697    1.9921   22.8896 O   0  0  0  0  0  0  0  0  0  0  0  0
    8.5330    3.0573   23.6004 C   0  0  0  0  0  0  0  0  0  0  0  0
    8.1468    4.2852   23.0446 C   0  0  0  0  0  0  0  0  0  0  0  0
    7.7176    5.3090   23.8926 C   0  0  0  0  0  0  0  0  0  0  0  0
    7.3527    6.4761   23.3430 F   0  0  0  0  0  0  0  0  0  0  0  0
    7.6545    5.1717   25.2696 C   0  0  0  0  0  0  0  0  0  0  0  0
    8.0408    3.9479   25.8297 C   0  0  0  0  0  0  0  0  0  0  0  0
    8.4714    2.9097   25.0116 C   0  0  0  0  0  0  0  0  0  0  0  0
    8.8347    1.7494   25.5838 F   0  0  0  0  0  0  0  0  0  0  0  0
    8.0128    3.7765   26.9015 H   0  0  0  0  0  0  0  0  0  0  0  0
    7.3083    6.0040   25.8770 H   0  0  0  0  0  0  0  0  0  0  0  0
    8.1761    4.4650   21.9759 H   0  0  0  0  0  0  0  0  0  0  0  0
    9.7447    2.7947   21.1371 H   0  0  0  0  0  0  0  0  0  0  0  0
    8.0459    2.2548   21.0398 H   0  0  0  0  0  0  0  0  0  0  0  0
   10.5080    0.4361   21.3840 H   0  0  0  0  0  0  0  0  0  0  0  0
    9.5620    0.6505   19.9140 H   0  0  0  0  0  0  0  0  0  0  0  0
    8.8415   -1.2644   22.4515 N   0  0  0  0  0  0  0  0  0  0  0  0
    7.1021   -2.5638   24.5445 H   0  0  0  0  0  0  0  0  0  0  0  0
    9.2677   -4.1337   22.9540 H   0  0  0  0  0  0  0  0  0  0  0  0
    8.7287   -4.5131   24.6570 H   0  0  0  0  0  0  0  0  0  0  0  0
    6.8927   -4.4967   22.1394 H   0  0  0  0  0  0  0  0  0  0  0  0
    5.0368   -4.8715   23.8843 H   0  0  0  0  0  0  0  0  0  0  0  0
    6.2782   -4.8834   25.1510 H   0  0  0  0  0  0  0  0  0  0  0  0
    6.2214   -6.1989   23.9710 H   0  0  0  0  0  0  0  0  0  0  0  0
  1  2  1  0
  2  3  1  0
  3  4  1  0
  4  5  1  0
  5  6  2  0
  6  7  1  0
  7  8  1  0
  8  9  2  0
  9 10  1  0
 10 11  2  0
 11 12  1  0
 12 13  2  0
 13 14  1  0
 11 15  1  0
 10 16  1  0
  9 17  1  0
  7 18  1  0
 18 19  1  0
 19 20  1  0
 20 21  1  0
 21 22  1  0
 22 23  2  0
 23 24  1  0
 24 25  1  0
 24 26  2  0
 26 27  1  0
 27 28  2  0
 28 29  1  0
 27 30  1  0
 26 31  1  0
 23 32  1  0
 20 33  1  0
 20 34  1  0
 19 35  1  0
 19 36  1  0
 18 37  2  0
  4 38  1  1
  3 39  1  0
  3 40  1  0
  2 41  1  6
  1 42  1  0
  1 43  1  0
  1 44  1  0
  4  2  1  0
 37  5  1  0
 13  8  1  0
 28 22  1  0
M  END
>  <cnnaffinity>  (1) 
-6.16268

>  <filename>  (1) 
C[C@@H]1C[C@H]1c1nc(CCOc2cc(F)ccc2F)n(-c2cccnc2)n1

$$$$
