
     RDKit          3D

 45 48  0  0  0  0  0  0  0  0999 V2000
    4.1195   -4.3103   26.5399 C   0  0  0  0  0  0  0  0  0  0  0  0
    4.8599   -3.5804   25.4497 C   0  0  2  0  0  0  0  0  0  0  0  0
    5.7403   -4.3584   24.5196 C   0  0  0  0  0  0  0  0  0  0  0  0
    6.3506   -3.4181   25.5332 C   0  0  1  0  0  0  0  0  0  0  0  0
    6.9873   -2.1569   25.0708 C   0  0  0  0  0  0  0  0  0  0  0  0
    6.6013   -0.9533   25.4537 N   0  0  0  0  0  0  0  0  0  0  0  0
    7.3995   -0.1324   24.7236 N   0  0  0  0  0  0  0  0  0  0  0  0
    7.3011    1.2818   24.8493 C   0  0  0  0  0  0  0  0  0  0  0  0
    8.4406    2.0745   25.0730 C   0  0  0  0  0  0  0  0  0  0  0  0
    8.2924    3.4543   25.1606 C   0  0  0  0  0  0  0  0  0  0  0  0
    7.0032    3.9724   25.0213 C   0  0  0  0  0  0  0  0  0  0  0  0
    6.8422    5.2952   25.1034 F   0  0  0  0  0  0  0  0  0  0  0  0
    5.9173    3.2579   24.8249 N   0  0  0  0  0  0  0  0  0  0  0  0
    6.0637    1.9279   24.7498 C   0  0  0  0  0  0  0  0  0  0  0  0
    5.1492    1.3658   24.5910 H   0  0  0  0  0  0  0  0  0  0  0  0
    9.1272    4.1219   25.3276 H   0  0  0  0  0  0  0  0  0  0  0  0
    9.4174    1.6120   25.1994 H   0  0  0  0  0  0  0  0  0  0  0  0
    8.2087   -0.8936   23.9289 C   0  0  0  0  0  0  0  0  0  0  0  0
    9.1022   -0.3301   22.8747 C   0  0  0  0  0  0  0  0  0  0  0  0
    8.3159    0.3260   21.7270 C   0  0  0  0  0  0  0  0  0  0  0  0
    7.4052   -0.6740   20.9978 C   0  0  0  0  0  0  0  0  0  0  0  0
    6.6441   -0.0089   19.8896 C   0  0  0  0  0  0  0  0  0  0  0  0
    5.4336    0.6479   20.1454 C   0  0  0  0  0  0  0  0  0  0  0  0
    4.7996    1.3146   19.0968 C   0  0  0  0  0  0  0  0  0  0  0  0
    5.3960    1.2990   17.8312 C   0  0  0  0  0  0  0  0  0  0  0  0
    6.5601    0.6878   17.5659 N   0  0  0  0  0  0  0  0  0  0  0  0
    7.1607    0.0614   18.5866 C   0  0  0  0  0  0  0  0  0  0  0  0
    8.1117   -0.4200   18.3582 H   0  0  0  0  0  0  0  0  0  0  0  0
    4.9141    1.7886   16.9891 H   0  0  0  0  0  0  0  0  0  0  0  0
    3.8706    1.8471   19.2527 H   0  0  0  0  0  0  0  0  0  0  0  0
    5.0110    0.6355   21.1552 H   0  0  0  0  0  0  0  0  0  0  0  0
    6.7032   -1.1281   21.7124 H   0  0  0  0  0  0  0  0  0  0  0  0
    8.0139   -1.4996   20.6021 H   0  0  0  0  0  0  0  0  0  0  0  0
    7.7133    1.1597   22.1136 H   0  0  0  0  0  0  0  0  0  0  0  0
    9.0171    0.7646   21.0071 H   0  0  0  0  0  0  0  0  0  0  0  0
    9.7056   -1.1575   22.4868 H   0  0  0  0  0  0  0  0  0  0  0  0
    9.7959    0.3921   23.3140 H   0  0  0  0  0  0  0  0  0  0  0  0
    7.9773   -2.1718   24.1366 N   0  0  0  0  0  0  0  0  0  0  0  0
    6.8534   -3.8764   26.3825 H   0  0  0  0  0  0  0  0  0  0  0  0
    5.8184   -5.4313   24.6873 H   0  0  0  0  0  0  0  0  0  0  0  0
    5.7995   -4.0623   23.4748 H   0  0  0  0  0  0  0  0  0  0  0  0
    4.3406   -2.7296   25.0142 H   0  0  0  0  0  0  0  0  0  0  0  0
    3.8691   -3.6512   27.3769 H   0  0  0  0  0  0  0  0  0  0  0  0
    4.7387   -5.1252   26.9290 H   0  0  0  0  0  0  0  0  0  0  0  0
    3.1986   -4.7586   26.1512 H   0  0  0  0  0  0  0  0  0  0  0  0
  1  2  1  0
  2  3  1  0
  3  4  1  0
  4  5  1  0
  5  6  2  0
  6  7  1  0
  7  8  1  0
  8  9  2  0
  9 10  1  0
 10 11  2  0
 11 12  1  0
 11 13  1  0
 13 14  2  0
 14 15  1  0
 10 16  1  0
  9 17  1  0
  7 18  1  0
 18 19  1  0
 19 20  1  0
 20 21  1  0
 21 22  1  0
 22 23  2  0
 23 24  1  0
 24 25  2  0
 25 26  1  0
 26 27  2  0
 27 28  1  0
 25 29  1  0
 24 30  1  0
 23 31  1  0
 21 32  1  0
 21 33  1  0
 20 34  1  0
 20 35  1  0
 19 36  1  0
 19 37  1  0
 18 38  2  0
  4 39  1  1
  3 40  1  0
  3 41  1  0
  2 42  1  6
  1 43  1  0
  1 44  1  0
  1 45  1  0
  4  2  1  0
 38  5  1  0
 14  8  1  0
 27 22  1  0
M  END
>  <cnnaffinity>  (1) 
-5.92242

>  <filename>  (1) 
C[C@@H]1C[C@H]1c1nc(CCCc2cccnc2)n(-c2ccc(F)nc2)n1

$$$$
