
     RDKit          3D

 34 36  0  0  0  0  0  0  0  0999 V2000
    6.6834   -2.0322   21.3133 C   0  0  0  0  0  0  0  0  0  0  0  0
    7.3977   -0.7248   20.9958 C   0  0  2  0  0  0  0  0  0  0  0  0
    7.5569    0.0919   22.1901 N   0  0  0  0  0  0  0  0  0  0  0  0
    8.3266    1.2223   22.1825 C   0  0  0  0  0  0  0  0  0  0  0  0
    8.9485    1.5321   21.1751 O   0  0  0  0  0  0  0  0  0  0  0  0
    8.3834    2.0109   23.4740 C   0  0  0  0  0  0  0  0  0  0  0  0
    8.2816    1.4931   24.7294 C   0  0  0  0  0  0  0  0  0  0  0  0
    8.5160    2.6399   25.9983 S   0  0  0  0  0  0  0  0  0  0  0  0
    8.7703    3.9235   24.8478 C   0  0  0  0  0  0  0  0  0  0  0  0
    9.0230    5.2832   25.1238 C   0  0  0  0  0  0  0  0  0  0  0  0
    9.1835    6.1637   24.0562 C   0  0  0  0  0  0  0  0  0  0  0  0
    9.0876    5.7027   22.7219 C   0  0  0  0  0  0  0  0  0  0  0  0
    8.8267    4.3608   22.4577 C   0  0  0  0  0  0  0  0  0  0  0  0
    8.6739    3.4450   23.5222 C   0  0  0  0  0  0  0  0  0  0  0  0
    8.7259    3.9798   21.4446 H   0  0  0  0  0  0  0  0  0  0  0  0
    9.2118    6.4058   21.8967 H   0  0  0  0  0  0  0  0  0  0  0  0
    9.3757    7.2210   24.2468 H   0  0  0  0  0  0  0  0  0  0  0  0
    9.0813    5.6391   26.1500 H   0  0  0  0  0  0  0  0  0  0  0  0
    8.1176    0.4552   25.0058 H   0  0  0  0  0  0  0  0  0  0  0  0
    6.9467   -0.0681   22.9681 H   0  0  0  0  0  0  0  0  0  0  0  0
    6.6691    0.0316   19.9077 C   0  0  0  0  0  0  0  0  0  0  0  0
    5.4401    0.6576   20.1514 C   0  0  0  0  0  0  0  0  0  0  0  0
    4.8029    1.3098   19.0985 C   0  0  0  0  0  0  0  0  0  0  0  0
    5.4028    1.2894   17.8328 C   0  0  0  0  0  0  0  0  0  0  0  0
    6.5635    0.6716   17.5706 N   0  0  0  0  0  0  0  0  0  0  0  0
    7.1723    0.0742   18.6063 C   0  0  0  0  0  0  0  0  0  0  0  0
    8.1162   -0.4188   18.3763 H   0  0  0  0  0  0  0  0  0  0  0  0
    4.9171    1.7809   16.9925 H   0  0  0  0  0  0  0  0  0  0  0  0
    3.8728    1.8427   19.2568 H   0  0  0  0  0  0  0  0  0  0  0  0
    5.0024    0.6408   21.1549 H   0  0  0  0  0  0  0  0  0  0  0  0
    8.4075   -0.9520   20.6382 H   0  0  0  0  0  0  0  0  0  0  0  0
    7.2136   -2.6059   22.0788 H   0  0  0  0  0  0  0  0  0  0  0  0
    6.6234   -2.6458   20.4104 H   0  0  0  0  0  0  0  0  0  0  0  0
    5.6514   -1.8595   21.6397 H   0  0  0  0  0  0  0  0  0  0  0  0
  1  2  1  0
  2  3  1  0
  3  4  1  0
  4  5  2  0
  4  6  1  0
  6  7  2  0
  7  8  1  0
  8  9  1  0
  9 10  2  0
 10 11  1  0
 11 12  2  0
 12 13  1  0
 13 14  2  0
 13 15  1  0
 12 16  1  0
 11 17  1  0
 10 18  1  0
  7 19  1  0
  3 20  1  0
  2 21  1  0
 21 22  2  0
 22 23  1  0
 23 24  2  0
 24 25  1  0
 25 26  2  0
 26 27  1  0
 24 28  1  0
 23 29  1  0
 22 30  1  0
  2 31  1  6
  1 32  1  0
  1 33  1  0
  1 34  1  0
 14  6  1  0
 26 21  1  0
 14  9  1  0
M  END
>  <cnnaffinity>  (1) 
-4.79882

>  <filename>  (1) 
C[C@H](NC(=O)c1csc2ccccc12)c1cccnc1

$$$$
