
     RDKit          3D

 33 35  0  0  0  0  0  0  0  0999 V2000
    4.9637    1.7994   16.9642 H   0  0  0  0  0  0  0  0  0  0  0  0
    5.4174    1.2896   17.8095 C   0  0  0  0  0  0  0  0  0  0  0  0
    6.5814    0.6594   17.5715 N   0  0  0  0  0  0  0  0  0  0  0  0
    7.1792    0.0371   18.5934 C   0  0  0  0  0  0  0  0  0  0  0  0
    8.1211   -0.4727   18.3921 H   0  0  0  0  0  0  0  0  0  0  0  0
    6.6407    0.0264   19.8956 C   0  0  0  0  0  0  0  0  0  0  0  0
    7.3420   -0.6160   20.9687 N   0  0  0  0  0  0  0  0  0  0  0  0
    8.1819   -1.6720   20.7712 N   0  0  0  0  0  0  0  0  0  0  0  0
    8.6259   -2.0196   21.9173 N   0  0  0  0  0  0  0  0  0  0  0  0
    8.1315   -1.2353   22.9091 N   0  0  0  0  0  0  0  0  0  0  0  0
    7.3504   -0.3742   22.3079 C   0  0  0  0  0  0  0  0  0  0  0  0
    6.6548    0.6149   22.8541 O   0  0  0  0  0  0  0  0  0  0  0  0
    6.9017    0.8993   24.2657 C   0  0  1  0  0  0  0  0  0  0  0  0
    6.7384   -0.0238   24.8344 H   0  0  0  0  0  0  0  0  0  0  0  0
    8.3271    1.3757   24.4951 C   0  0  0  0  0  0  0  0  0  0  0  0
    8.9271    2.3431   23.6733 C   0  0  0  0  0  0  0  0  0  0  0  0
    8.3638    2.7857   22.8538 H   0  0  0  0  0  0  0  0  0  0  0  0
   10.2610    2.7126   23.8760 C   0  0  0  0  0  0  0  0  0  0  0  0
   10.6985    3.4802   23.2441 H   0  0  0  0  0  0  0  0  0  0  0  0
   11.0181    2.0915   24.8784 C   0  0  0  0  0  0  0  0  0  0  0  0
   12.0709    2.3334   25.0007 H   0  0  0  0  0  0  0  0  0  0  0  0
   10.4084    1.1760   25.7417 C   0  0  0  0  0  0  0  0  0  0  0  0
   10.9589    0.7076   26.5542 H   0  0  0  0  0  0  0  0  0  0  0  0
    9.0609    0.8521   25.5643 C   0  0  0  0  0  0  0  0  0  0  0  0
    8.5691    0.1886   26.2739 H   0  0  0  0  0  0  0  0  0  0  0  0
    5.8657    1.9359   24.6438 C   0  0  0  0  0  0  0  0  0  0  0  0
    4.8633    1.5705   24.4116 H   0  0  0  0  0  0  0  0  0  0  0  0
    5.9138    2.1794   25.7106 H   0  0  0  0  0  0  0  0  0  0  0  0
    6.0423    2.8465   24.0654 H   0  0  0  0  0  0  0  0  0  0  0  0
    5.4172    0.6649   20.1328 C   0  0  0  0  0  0  0  0  0  0  0  0
    4.9743    0.6665   21.1280 H   0  0  0  0  0  0  0  0  0  0  0  0
    4.7966    1.3077   19.0611 C   0  0  0  0  0  0  0  0  0  0  0  0
    3.8544    1.8288   19.1931 H   0  0  0  0  0  0  0  0  0  0  0  0
  1  2  1  0
  2  3  2  0
  3  4  1  0
  4  5  1  0
  4  6  2  0
  6  7  1  0
  7  8  1  0
  8  9  2  0
  9 10  1  0
 10 11  2  0
 11 12  1  0
 12 13  1  0
 13 14  1  1
 13 15  1  0
 15 16  2  0
 16 17  1  0
 16 18  1  0
 18 19  1  0
 18 20  2  0
 20 21  1  0
 20 22  1  0
 22 23  1  0
 22 24  2  0
 24 25  1  0
 13 26  1  0
 26 27  1  0
 26 28  1  0
 26 29  1  0
  6 30  1  0
 30 31  1  0
 30 32  2  0
 32 33  1  0
 32  2  1  0
 11  7  1  0
 24 15  1  0
M  END
>  <cnnaffinity>  (1) 
-4.9359

>  <filename>  (1) 
C[C@@H](Oc1nnnn1-c1cccnc1)c1ccccc1

$$$$
