
     RDKit          3D

 33 35  0  0  0  0  0  0  0  0999 V2000
    4.9658    1.7754   16.8857 H   0  0  0  0  0  0  0  0  0  0  0  0
    5.3914    1.3234   17.7781 C   0  0  0  0  0  0  0  0  0  0  0  0
    6.5634    0.6979   17.6044 N   0  0  0  0  0  0  0  0  0  0  0  0
    7.1228    0.1354   18.6853 C   0  0  0  0  0  0  0  0  0  0  0  0
    8.0631   -0.3896   18.5104 H   0  0  0  0  0  0  0  0  0  0  0  0
    6.5829    0.1761   19.9833 C   0  0  0  0  0  0  0  0  0  0  0  0
    7.3264   -0.4540   21.1569 C   0  0  2  0  0  0  0  0  0  0  0  0
    6.7289   -0.3000   22.0654 H   0  0  0  0  0  0  0  0  0  0  0  0
    8.7169    0.1801   21.3787 C   0  0  0  0  0  0  0  0  0  0  0  0
    9.3817    0.0046   20.5206 H   0  0  0  0  0  0  0  0  0  0  0  0
    8.6441    1.2619   21.5316 H   0  0  0  0  0  0  0  0  0  0  0  0
    9.2015   -0.2598   22.2589 H   0  0  0  0  0  0  0  0  0  0  0  0
    7.4641   -1.9833   20.9346 C   0  0  0  0  0  0  0  0  0  0  0  0
    6.5329   -2.4036   20.5367 H   0  0  0  0  0  0  0  0  0  0  0  0
    8.2263   -2.0726   20.1570 H   0  0  0  0  0  0  0  0  0  0  0  0
    7.9280   -2.7616   22.1347 C   0  0  0  0  0  0  0  0  0  0  0  0
    6.8038   -3.5080   23.2586 S   0  0  0  0  0  0  0  0  0  0  0  0
    8.1138   -4.1619   24.2074 C   0  0  0  0  0  0  0  0  0  0  0  0
    8.0361   -4.9662   25.3586 C   0  0  0  0  0  0  0  0  0  0  0  0
    7.0767   -5.2410   25.7886 H   0  0  0  0  0  0  0  0  0  0  0  0
    9.2252   -5.3674   25.9579 C   0  0  0  0  0  0  0  0  0  0  0  0
    9.2034   -6.0033   26.8393 H   0  0  0  0  0  0  0  0  0  0  0  0
   10.4751   -4.9589   25.4487 C   0  0  0  0  0  0  0  0  0  0  0  0
   11.4003   -5.2728   25.9149 H   0  0  0  0  0  0  0  0  0  0  0  0
   10.5458   -4.1522   24.3288 C   0  0  0  0  0  0  0  0  0  0  0  0
   11.4901   -3.8457   23.8896 H   0  0  0  0  0  0  0  0  0  0  0  0
    9.3591   -3.7630   23.6865 C   0  0  0  0  0  0  0  0  0  0  0  0
    9.2148   -2.9715   22.5057 C   0  0  0  0  0  0  0  0  0  0  0  0
   10.0821   -2.5850   21.9730 H   0  0  0  0  0  0  0  0  0  0  0  0
    5.3340    0.8052   20.1262 C   0  0  0  0  0  0  0  0  0  0  0  0
    4.8451    0.8386   21.1016 H   0  0  0  0  0  0  0  0  0  0  0  0
    4.7295    1.3910   19.0082 C   0  0  0  0  0  0  0  0  0  0  0  0
    3.7732    1.9014   19.0711 H   0  0  0  0  0  0  0  0  0  0  0  0
  1  2  1  0
  2  3  2  0
  3  4  1  0
  4  5  1  0
  4  6  2  0
  6  7  1  0
  7  8  1  1
  7  9  1  0
  9 10  1  0
  9 11  1  0
  9 12  1  0
  7 13  1  0
 13 14  1  0
 13 15  1  0
 13 16  1  0
 16 17  1  0
 17 18  1  0
 18 19  2  0
 19 20  1  0
 19 21  1  0
 21 22  1  0
 21 23  2  0
 23 24  1  0
 23 25  1  0
 25 26  1  0
 25 27  2  0
 27 28  1  0
 28 29  1  0
  6 30  1  0
 30 31  1  0
 30 32  2  0
 32 33  1  0
 32  2  1  0
 28 16  2  0
 27 18  1  0
M  END
>  <cnnaffinity>  (1) 
-5.1468

>  <filename>  (1) 
C[C@H](Cc1cc2ccccc2s1)c1cccnc1

$$$$
