
     RDKit          3D

 34 35  0  0  0  0  0  0  0  0999 V2000
    4.9925    1.7817   16.9886 H   0  0  0  0  0  0  0  0  0  0  0  0
    5.4413    1.2700   17.8378 C   0  0  0  0  0  0  0  0  0  0  0  0
    6.5828    0.6053   17.5979 N   0  0  0  0  0  0  0  0  0  0  0  0
    7.1547   -0.0308   18.6295 C   0  0  0  0  0  0  0  0  0  0  0  0
    8.0610   -0.5922   18.4083 H   0  0  0  0  0  0  0  0  0  0  0  0
    6.6430   -0.0269   19.9390 C   0  0  0  0  0  0  0  0  0  0  0  0
    7.5142   -0.8172   21.2764 S   0  0  0  0  0  0  0  0  0  0  0  0
    8.4052    0.6693   21.9481 C   0  0  1  0  0  0  0  0  0  0  0  0
    7.7567    1.5350   21.7539 H   0  0  0  0  0  0  0  0  0  0  0  0
    8.6112    0.5712   23.3785 N   0  0  0  0  0  0  0  0  0  0  0  0
    9.3030   -0.1079   23.6526 H   0  0  0  0  0  0  0  0  0  0  0  0
    7.5022    0.4918   24.2000 C   0  0  0  0  0  0  0  0  0  0  0  0
    6.3688    0.7240   23.8472 O   0  0  0  0  0  0  0  0  0  0  0  0
    7.8917    0.1306   25.4740 N   0  0  0  0  0  0  0  0  0  0  0  0
    8.8061    0.4718   25.7124 H   0  0  0  0  0  0  0  0  0  0  0  0
    6.9868   -0.0085   26.5384 C   0  0  0  0  0  0  0  0  0  0  0  0
    5.7698   -0.6695   26.3349 C   0  0  0  0  0  0  0  0  0  0  0  0
    5.5159   -0.9967   25.3349 H   0  0  0  0  0  0  0  0  0  0  0  0
    4.9025   -0.8558   27.4085 C   0  0  0  0  0  0  0  0  0  0  0  0
    3.9646   -1.3832   27.2446 H   0  0  0  0  0  0  0  0  0  0  0  0
    5.2320   -0.3549   28.6735 C   0  0  0  0  0  0  0  0  0  0  0  0
    4.5488   -0.4949   29.5036 H   0  0  0  0  0  0  0  0  0  0  0  0
    6.4373    0.3318   28.8676 C   0  0  0  0  0  0  0  0  0  0  0  0
    6.6941    0.7365   29.8450 H   0  0  0  0  0  0  0  0  0  0  0  0
    7.3244    0.4913   27.7989 C   0  0  0  0  0  0  0  0  0  0  0  0
    8.2700    1.0089   27.9240 H   0  0  0  0  0  0  0  0  0  0  0  0
    9.7554    0.8407   21.2802 C   0  0  0  0  0  0  0  0  0  0  0  0
   10.2380    1.7444   21.6727 H   0  0  0  0  0  0  0  0  0  0  0  0
   10.3801   -0.0442   21.4684 H   0  0  0  0  0  0  0  0  0  0  0  0
    9.6273    0.9312   20.2005 H   0  0  0  0  0  0  0  0  0  0  0  0
    5.4393    0.6541   20.1660 C   0  0  0  0  0  0  0  0  0  0  0  0
    5.0078    0.6623   21.1688 H   0  0  0  0  0  0  0  0  0  0  0  0
    4.8254    1.3068   19.0938 C   0  0  0  0  0  0  0  0  0  0  0  0
    3.8912    1.8394   19.2229 H   0  0  0  0  0  0  0  0  0  0  0  0
  1  2  1  0
  2  3  2  0
  3  4  1  0
  4  5  1  0
  4  6  2  0
  6  7  1  0
  7  8  1  0
  8  9  1  1
  8 10  1  0
 10 11  1  0
 10 12  1  0
 12 13  2  0
 12 14  1  0
 14 15  1  0
 14 16  1  0
 16 17  2  0
 17 18  1  0
 17 19  1  0
 19 20  1  0
 19 21  2  0
 21 22  1  0
 21 23  1  0
 23 24  1  0
 23 25  2  0
 25 26  1  0
  8 27  1  0
 27 28  1  0
 27 29  1  0
 27 30  1  0
  6 31  1  0
 31 32  1  0
 31 33  2  0
 33 34  1  0
 33  2  1  0
 25 16  1  0
M  END
>  <cnnaffinity>  (1) 
-4.81119

>  <filename>  (1) 
C[C@H](NC(=O)Nc1ccccc1)Sc1cccnc1

$$$$
