
     RDKit          3D

 45 48  0  0  0  0  0  0  0  0999 V2000
    6.0851   -5.1840   24.0418 C   0  0  0  0  0  0  0  0  0  0  0  0
    7.0560   -4.4197   23.1746 C   0  0  2  0  0  0  0  0  0  0  0  0
    8.4628   -4.1815   23.6368 C   0  0  0  0  0  0  0  0  0  0  0  0
    7.4905   -3.0313   23.5632 C   0  0  1  0  0  0  0  0  0  0  0  0
    7.6678   -1.9676   22.5497 C   0  0  0  0  0  0  0  0  0  0  0  0
    6.7269   -1.5963   21.7016 N   0  0  0  0  0  0  0  0  0  0  0  0
    7.3471   -0.6393   20.9635 N   0  0  0  0  0  0  0  0  0  0  0  0
    6.6641    0.0103   19.8960 C   0  0  0  0  0  0  0  0  0  0  0  0
    5.4415    0.6397   20.1478 C   0  0  0  0  0  0  0  0  0  0  0  0
    4.8091    1.3109   19.0988 C   0  0  0  0  0  0  0  0  0  0  0  0
    5.4080    1.3005   17.8317 C   0  0  0  0  0  0  0  0  0  0  0  0
    6.5594    0.6637   17.5690 N   0  0  0  0  0  0  0  0  0  0  0  0
    7.1718    0.0384   18.5818 C   0  0  0  0  0  0  0  0  0  0  0  0
    8.1057   -0.4698   18.3404 H   0  0  0  0  0  0  0  0  0  0  0  0
    4.9393    1.8185   16.9988 H   0  0  0  0  0  0  0  0  0  0  0  0
    3.8731    1.8400   19.2536 H   0  0  0  0  0  0  0  0  0  0  0  0
    5.0196    0.5847   21.1518 H   0  0  0  0  0  0  0  0  0  0  0  0
    8.6148   -0.4595   21.4385 C   0  0  0  0  0  0  0  0  0  0  0  0
    9.5044    0.6204   20.9369 C   0  0  0  0  0  0  0  0  0  0  0  0
    8.9910    2.0252   21.3066 C   0  0  0  0  0  0  0  0  0  0  0  0
    8.8358    2.2538   22.8274 C   0  0  0  0  0  0  0  0  0  0  0  0
   10.1797    2.1690   23.5168 C   0  0  0  0  0  0  0  0  0  0  0  0
   11.1481    3.1661   23.3174 C   0  0  0  0  0  0  0  0  0  0  0  0
   12.4599    2.9522   23.7441 C   0  0  0  0  0  0  0  0  0  0  0  0
   12.7665    1.7140   24.3221 C   0  0  0  0  0  0  0  0  0  0  0  0
   11.8556    0.7705   24.5824 N   0  0  0  0  0  0  0  0  0  0  0  0
   10.5924    1.0171   24.2037 C   0  0  0  0  0  0  0  0  0  0  0  0
    9.8455    0.2503   24.4125 H   0  0  0  0  0  0  0  0  0  0  0  0
   13.7941    1.4620   24.5704 H   0  0  0  0  0  0  0  0  0  0  0  0
   13.2245    3.7155   23.6207 H   0  0  0  0  0  0  0  0  0  0  0  0
   10.8685    4.0679   22.7763 H   0  0  0  0  0  0  0  0  0  0  0  0
    8.3582    3.2255   23.0021 H   0  0  0  0  0  0  0  0  0  0  0  0
    8.1495    1.5059   23.2462 H   0  0  0  0  0  0  0  0  0  0  0  0
    8.0385    2.1982   20.7933 H   0  0  0  0  0  0  0  0  0  0  0  0
    9.6979    2.7606   20.9113 H   0  0  0  0  0  0  0  0  0  0  0  0
   10.5107    0.4387   21.3239 H   0  0  0  0  0  0  0  0  0  0  0  0
    9.5721    0.5245   19.8513 H   0  0  0  0  0  0  0  0  0  0  0  0
    8.8475   -1.2981   22.4276 N   0  0  0  0  0  0  0  0  0  0  0  0
    7.1065   -2.6402   24.5028 H   0  0  0  0  0  0  0  0  0  0  0  0
    9.2757   -4.1960   22.9163 H   0  0  0  0  0  0  0  0  0  0  0  0
    8.7448   -4.5487   24.6199 H   0  0  0  0  0  0  0  0  0  0  0  0
    6.9149   -4.5650   22.1059 H   0  0  0  0  0  0  0  0  0  0  0  0
    6.2419   -4.9884   25.1076 H   0  0  0  0  0  0  0  0  0  0  0  0
    6.1848   -6.2626   23.8918 H   0  0  0  0  0  0  0  0  0  0  0  0
    5.0516   -4.9143   23.8105 H   0  0  0  0  0  0  0  0  0  0  0  0
  1  2  1  0
  2  3  1  0
  3  4  1  0
  4  5  1  0
  5  6  2  0
  6  7  1  0
  7  8  1  0
  8  9  2  0
  9 10  1  0
 10 11  2  0
 11 12  1  0
 12 13  2  0
 13 14  1  0
 11 15  1  0
 10 16  1  0
  9 17  1  0
  7 18  1  0
 18 19  1  0
 19 20  1  0
 20 21  1  0
 21 22  1  0
 22 23  2  0
 23 24  1  0
 24 25  2  0
 25 26  1  0
 26 27  2  0
 27 28  1  0
 25 29  1  0
 24 30  1  0
 23 31  1  0
 21 32  1  0
 21 33  1  0
 20 34  1  0
 20 35  1  0
 19 36  1  0
 19 37  1  0
 18 38  2  0
  4 39  1  1
  3 40  1  0
  3 41  1  0
  2 42  1  6
  1 43  1  0
  1 44  1  0
  1 45  1  0
  4  2  1  0
 38  5  1  0
 13  8  1  0
 27 22  1  0
M  END
>  <cnnaffinity>  (1) 
-6.15119

>  <filename>  (1) 
C[C@@H]1C[C@H]1c1nc(CCCc2cccnc2)n(-c2cccnc2)n1

$$$$
