
     RDKit          3D

 43 46  0  0  0  0  0  0  0  0999 V2000
    6.0476   -5.0308   24.2041 C   0  0  0  0  0  0  0  0  0  0  0  0
    7.0058   -4.2997   23.2996 C   0  0  2  0  0  0  0  0  0  0  0  0
    8.4184   -4.0745   23.7577 C   0  0  0  0  0  0  0  0  0  0  0  0
    7.4599   -2.9135   23.6586 C   0  0  1  0  0  0  0  0  0  0  0  0
    7.6580   -1.9028   22.5961 C   0  0  0  0  0  0  0  0  0  0  0  0
    6.7222   -1.5576   21.7325 N   0  0  0  0  0  0  0  0  0  0  0  0
    7.3654   -0.6600   20.9382 N   0  0  0  0  0  0  0  0  0  0  0  0
    6.6613    0.0076   19.9012 C   0  0  0  0  0  0  0  0  0  0  0  0
    5.4437    0.6446   20.1638 C   0  0  0  0  0  0  0  0  0  0  0  0
    4.8133    1.3107   19.1098 C   0  0  0  0  0  0  0  0  0  0  0  0
    5.3994    1.2962   17.8378 C   0  0  0  0  0  0  0  0  0  0  0  0
    6.5586    0.6728   17.5750 N   0  0  0  0  0  0  0  0  0  0  0  0
    7.1692    0.0525   18.5920 C   0  0  0  0  0  0  0  0  0  0  0  0
    8.1141   -0.4366   18.3662 H   0  0  0  0  0  0  0  0  0  0  0  0
    4.9203    1.7870   16.9941 H   0  0  0  0  0  0  0  0  0  0  0  0
    3.8811    1.8385   19.2612 H   0  0  0  0  0  0  0  0  0  0  0  0
    5.0159    0.6054   21.1692 H   0  0  0  0  0  0  0  0  0  0  0  0
    8.6371   -0.4798   21.4099 C   0  0  0  0  0  0  0  0  0  0  0  0
    9.5350    0.6072   20.9258 C   0  0  0  0  0  0  0  0  0  0  0  0
    9.0555    2.0228   21.3483 C   0  0  0  0  0  0  0  0  0  0  0  0
    8.9165    2.1507   22.8492 C   0  0  0  0  0  0  0  0  0  0  0  0
    7.6938    1.9362   23.5101 C   0  0  0  0  0  0  0  0  0  0  0  0
    7.5929    1.9675   24.9074 C   0  0  0  0  0  0  0  0  0  0  0  0
    8.7460    2.1745   25.6754 C   0  0  0  0  0  0  0  0  0  0  0  0
    9.9874    2.2961   25.0453 C   0  0  0  0  0  0  0  0  0  0  0  0
   10.0393    2.3230   23.6602 C   0  0  0  0  0  0  0  0  0  0  0  0
   11.2526    2.4780   23.0867 F   0  0  0  0  0  0  0  0  0  0  0  0
   10.9430    2.2636   25.5478 H   0  0  0  0  0  0  0  0  0  0  0  0
    8.6842    2.2061   26.7625 H   0  0  0  0  0  0  0  0  0  0  0  0
    6.6280    1.7999   25.3852 H   0  0  0  0  0  0  0  0  0  0  0  0
    6.8209    1.7142   22.8992 H   0  0  0  0  0  0  0  0  0  0  0  0
    9.7753    2.7614   20.9827 H   0  0  0  0  0  0  0  0  0  0  0  0
    8.0897    2.2422   20.8757 H   0  0  0  0  0  0  0  0  0  0  0  0
    9.6026    0.5651   19.8382 H   0  0  0  0  0  0  0  0  0  0  0  0
   10.5306    0.4109   21.3310 H   0  0  0  0  0  0  0  0  0  0  0  0
    8.8539   -1.2713   22.4381 N   0  0  0  0  0  0  0  0  0  0  0  0
    7.0887   -2.4861   24.5896 H   0  0  0  0  0  0  0  0  0  0  0  0
    9.2317   -4.1078   23.0350 H   0  0  0  0  0  0  0  0  0  0  0  0
    8.6894   -4.4386   24.7467 H   0  0  0  0  0  0  0  0  0  0  0  0
    6.8667   -4.4674   22.2329 H   0  0  0  0  0  0  0  0  0  0  0  0
    6.2466   -4.7673   25.2488 H   0  0  0  0  0  0  0  0  0  0  0  0
    5.0047   -4.7782   23.9867 H   0  0  0  0  0  0  0  0  0  0  0  0
    6.1777   -6.1137   24.1096 H   0  0  0  0  0  0  0  0  0  0  0  0
  1  2  1  0
  2  3  1  0
  3  4  1  0
  4  5  1  0
  5  6  2  0
  6  7  1  0
  7  8  1  0
  8  9  2  0
  9 10  1  0
 10 11  2  0
 11 12  1  0
 12 13  2  0
 13 14  1  0
 11 15  1  0
 10 16  1  0
  9 17  1  0
  7 18  1  0
 18 19  1  0
 19 20  1  0
 20 21  1  0
 21 22  2  0
 22 23  1  0
 23 24  2  0
 24 25  1  0
 25 26  2  0
 26 27  1  0
 25 28  1  0
 24 29  1  0
 23 30  1  0
 22 31  1  0
 20 32  1  0
 20 33  1  0
 19 34  1  0
 19 35  1  0
 18 36  2  0
  4 37  1  1
  3 38  1  0
  3 39  1  0
  2 40  1  6
  1 41  1  0
  1 42  1  0
  1 43  1  0
  4  2  1  0
 36  5  1  0
 13  8  1  0
 26 21  1  0
M  END
>  <cnnaffinity>  (1) 
-6.00554

>  <filename>  (1) 
C[C@@H]1C[C@H]1c1nc(CCc2ccccc2F)n(-c2cccnc2)n1

$$$$
