
     RDKit          3D

 52 55  0  0  0  0  0  0  0  0999 V2000
   11.4260    1.7903   23.3221 C   0  0  0  0  0  0  0  0  0  0  0  0
    9.9323    1.6312   23.2319 N   0  0  0  0  0  4  0  0  0  0  0  0
    9.2668    2.5318   24.2795 C   0  0  0  0  0  0  0  0  0  0  0  0
    8.9451    3.9213   23.7133 C   0  0  0  0  0  0  0  0  0  0  0  0
    7.9729    3.8392   22.5067 C   0  0  0  0  0  0  0  0  0  0  0  0
    8.0300    2.4655   21.8047 C   0  0  0  0  0  0  0  0  0  0  0  0
    9.4421    1.8853   21.7997 C   0  0  0  0  0  0  0  0  0  0  0  0
    9.5492    0.5862   20.9858 C   0  0  0  0  0  0  0  0  0  0  0  0
    8.6200   -0.4861   21.4260 C   0  0  0  0  0  0  0  0  0  0  0  0
    8.8486   -1.3065   22.4304 N   0  0  0  0  0  0  0  0  0  0  0  0
    7.6849   -2.0153   22.5205 C   0  0  0  0  0  0  0  0  0  0  0  0
    7.4158   -3.0390   23.5870 C   0  0  0  0  0  0  0  0  0  0  0  0
    7.1371   -2.3573   24.9509 C   0  0  0  0  0  0  0  0  0  0  0  0
    8.5173   -2.2047   25.6223 C   0  0  0  0  0  0  0  0  0  0  0  0
    9.4379   -3.2807   24.9955 C   0  0  0  0  0  0  0  0  0  0  0  0
    8.6237   -3.9614   23.8692 C   0  0  0  0  0  0  0  0  0  0  0  0
    8.2651   -4.9466   24.1935 H   0  0  0  0  0  0  0  0  0  0  0  0
    9.2219   -4.1413   22.9697 H   0  0  0  0  0  0  0  0  0  0  0  0
    9.7739   -4.0188   25.7328 H   0  0  0  0  0  0  0  0  0  0  0  0
   10.3510   -2.8266   24.5979 H   0  0  0  0  0  0  0  0  0  0  0  0
    8.4394   -2.3023   26.7101 H   0  0  0  0  0  0  0  0  0  0  0  0
    8.9245   -1.2033   25.4419 H   0  0  0  0  0  0  0  0  0  0  0  0
    6.4730   -2.9887   25.5535 H   0  0  0  0  0  0  0  0  0  0  0  0
    6.6122   -1.4009   24.8322 H   0  0  0  0  0  0  0  0  0  0  0  0
    6.5451   -3.5972   23.2328 H   0  0  0  0  0  0  0  0  0  0  0  0
    6.7531   -1.6559   21.6592 N   0  0  0  0  0  0  0  0  0  0  0  0
    7.3611   -0.6833   20.9263 N   0  0  0  0  0  0  0  0  0  0  0  0
    6.6531    0.0028   19.9004 C   0  0  0  0  0  0  0  0  0  0  0  0
    5.4361    0.6398   20.1654 C   0  0  0  0  0  0  0  0  0  0  0  0
    4.8120    1.3109   19.1087 C   0  0  0  0  0  0  0  0  0  0  0  0
    5.3987    1.2996   17.8367 C   0  0  0  0  0  0  0  0  0  0  0  0
    6.5562    0.6737   17.5741 N   0  0  0  0  0  0  0  0  0  0  0  0
    7.1631    0.0497   18.5901 C   0  0  0  0  0  0  0  0  0  0  0  0
    8.1078   -0.4367   18.3598 H   0  0  0  0  0  0  0  0  0  0  0  0
    4.9224    1.7921   16.9921 H   0  0  0  0  0  0  0  0  0  0  0  0
    3.8798    1.8394   19.2575 H   0  0  0  0  0  0  0  0  0  0  0  0
    5.0035    0.6025   21.1718 H   0  0  0  0  0  0  0  0  0  0  0  0
   10.5651    0.1937   21.0674 H   0  0  0  0  0  0  0  0  0  0  0  0
    9.3658    0.8159   19.9400 H   0  0  0  0  0  0  0  0  0  0  0  0
   10.1164    2.6222   21.3451 H   0  0  0  0  0  0  0  0  0  0  0  0
    7.6730    2.5152   20.7740 H   0  0  0  0  0  0  0  0  0  0  0  0
    7.3605    1.7594   22.3095 H   0  0  0  0  0  0  0  0  0  0  0  0
    6.9434    4.0259   22.8342 H   0  0  0  0  0  0  0  0  0  0  0  0
    8.2110    4.6368   21.7905 H   0  0  0  0  0  0  0  0  0  0  0  0
    9.8854    4.3912   23.3990 H   0  0  0  0  0  0  0  0  0  0  0  0
    8.5353    4.5583   24.5045 H   0  0  0  0  0  0  0  0  0  0  0  0
    9.9185    2.6082   25.1573 H   0  0  0  0  0  0  0  0  0  0  0  0
    8.3381    2.0506   24.5998 H   0  0  0  0  0  0  0  0  0  0  0  0
    9.6620    0.6327   23.3990 H   0  0  0  0  0  0  0  0  0  0  0  0
   11.9491    1.1590   22.5975 H   0  0  0  0  0  0  0  0  0  0  0  0
   11.8045    1.5525   24.3229 H   0  0  0  0  0  0  0  0  0  0  0  0
   11.7250    2.8255   23.1033 H   0  0  0  0  0  0  0  0  0  0  0  0
  1  2  1  0
  2  3  1  0
  3  4  1  0
  4  5  1  0
  5  6  1  0
  6  7  1  0
  7  8  1  0
  8  9  1  0
  9 10  2  0
 10 11  1  0
 11 12  1  0
 12 13  1  0
 13 14  1  0
 14 15  1  0
 15 16  1  0
 16 17  1  0
 16 18  1  0
 15 19  1  0
 15 20  1  0
 14 21  1  0
 14 22  1  0
 13 23  1  0
 13 24  1  0
 12 25  1  0
 11 26  2  0
 26 27  1  0
 27 28  1  0
 28 29  2  0
 29 30  1  0
 30 31  2  0
 31 32  1  0
 32 33  2  0
 33 34  1  0
 31 35  1  0
 30 36  1  0
 29 37  1  0
  8 38  1  0
  8 39  1  0
  7 40  1  0
  6 41  1  0
  6 42  1  0
  5 43  1  0
  5 44  1  0
  4 45  1  0
  4 46  1  0
  3 47  1  0
  3 48  1  0
  2 49  1  0
  1 50  1  0
  1 51  1  0
  1 52  1  0
  7  2  1  0
 27  9  1  0
 33 28  1  0
 16 12  1  0
M  CHG  1   2   1
M  END
>  <cnnaffinity>  (1) 
-5.8337

>  <filename>  (1) 
C[NH+]1CCCCC1Cc1nc(C2CCCC2)nn1-c1cccnc1

$$$$
