
     RDKit          3D

 47 50  0  0  0  0  0  0  0  0999 V2000
    6.7294   -2.4284   27.3235 C   0  0  0  0  0  0  0  0  0  0  0  0
    6.9461   -3.1330   26.0451 N   0  0  0  0  0  4  0  0  0  0  0  0
    8.0838   -4.1389   26.1504 C   0  0  0  0  0  0  0  0  0  0  0  0
    8.2405   -4.8699   24.8179 C   0  0  0  0  0  0  0  0  0  0  0  0
    8.4288   -3.9774   23.7263 O   0  0  0  0  0  0  0  0  0  0  0  0
    7.3773   -3.0185   23.5976 C   0  0  0  0  0  0  0  0  0  0  0  0
    7.6312   -2.0583   22.4858 C   0  0  0  0  0  0  0  0  0  0  0  0
    6.6798   -1.6665   21.6622 N   0  0  0  0  0  0  0  0  0  0  0  0
    7.2980   -0.7137   20.9133 N   0  0  0  0  0  0  0  0  0  0  0  0
    6.6011   -0.0307   19.8706 C   0  0  0  0  0  0  0  0  0  0  0  0
    5.3901    0.6207   20.1313 C   0  0  0  0  0  0  0  0  0  0  0  0
    4.7803    1.3152   19.0817 C   0  0  0  0  0  0  0  0  0  0  0  0
    5.3835    1.3076   17.8186 C   0  0  0  0  0  0  0  0  0  0  0  0
    6.5202    0.6445   17.5513 N   0  0  0  0  0  0  0  0  0  0  0  0
    7.1134   -0.0003   18.5617 C   0  0  0  0  0  0  0  0  0  0  0  0
    8.0497   -0.5077   18.3300 H   0  0  0  0  0  0  0  0  0  0  0  0
    4.9383    1.8503   16.9888 H   0  0  0  0  0  0  0  0  0  0  0  0
    3.8637    1.8781   19.2351 H   0  0  0  0  0  0  0  0  0  0  0  0
    4.9611    0.5887   21.1338 H   0  0  0  0  0  0  0  0  0  0  0  0
    8.5776   -0.5586   21.3711 C   0  0  0  0  0  0  0  0  0  0  0  0
    9.6464    0.2981   20.7844 C   0  0  0  0  0  0  0  0  0  0  0  0
   10.3740    1.1040   21.8402 C   0  0  0  0  0  0  0  0  0  0  0  0
   11.6453    0.7076   22.2779 C   0  0  0  0  0  0  0  0  0  0  0  0
   12.2892    1.3477   23.3394 C   0  0  0  0  0  0  0  0  0  0  0  0
   11.6451    2.4063   23.9791 C   0  0  0  0  0  0  0  0  0  0  0  0
   10.3865    2.8361   23.5616 C   0  0  0  0  0  0  0  0  0  0  0  0
    9.7607    2.1803   22.5002 C   0  0  0  0  0  0  0  0  0  0  0  0
    8.1703    2.7180   22.0372 Cl  0  0  0  0  0  0  0  0  0  0  0  0
    9.8824    3.6583   24.0586 H   0  0  0  0  0  0  0  0  0  0  0  0
   12.0923    2.8818   24.8368 H   0  0  0  0  0  0  0  0  0  0  0  0
   13.2734    1.0188   23.6628 H   0  0  0  0  0  0  0  0  0  0  0  0
   12.1336   -0.1244   21.7801 H   0  0  0  0  0  0  0  0  0  0  0  0
   10.3411   -0.3979   20.3068 H   0  0  0  0  0  0  0  0  0  0  0  0
    9.2293    0.9526   20.0191 H   0  0  0  0  0  0  0  0  0  0  0  0
    8.7982   -1.3794   22.3772 N   0  0  0  0  0  0  0  0  0  0  0  0
    7.2075   -2.1882   24.8913 C   0  0  0  0  0  0  0  0  0  0  0  0
    8.1239   -1.6150   25.0765 H   0  0  0  0  0  0  0  0  0  0  0  0
    6.3781   -1.4801   24.7794 H   0  0  0  0  0  0  0  0  0  0  0  0
    6.4304   -3.5339   23.3885 H   0  0  0  0  0  0  0  0  0  0  0  0
    9.1157   -5.5204   24.8284 H   0  0  0  0  0  0  0  0  0  0  0  0
    7.3503   -5.4933   24.6435 H   0  0  0  0  0  0  0  0  0  0  0  0
    9.0039   -3.5899   26.3849 H   0  0  0  0  0  0  0  0  0  0  0  0
    7.8716   -4.8398   26.9644 H   0  0  0  0  0  0  0  0  0  0  0  0
    6.0757   -3.6617   25.8045 H   0  0  0  0  0  0  0  0  0  0  0  0
    6.3516   -3.1138   28.0899 H   0  0  0  0  0  0  0  0  0  0  0  0
    5.9999   -1.6248   27.2037 H   0  0  0  0  0  0  0  0  0  0  0  0
    7.6768   -1.9945   27.6766 H   0  0  0  0  0  0  0  0  0  0  0  0
  1  2  1  0
  2  3  1  0
  3  4  1  0
  4  5  1  0
  5  6  1  0
  6  7  1  0
  7  8  2  0
  8  9  1  0
  9 10  1  0
 10 11  2  0
 11 12  1  0
 12 13  2  0
 13 14  1  0
 14 15  2  0
 15 16  1  0
 13 17  1  0
 12 18  1  0
 11 19  1  0
  9 20  1  0
 20 21  1  0
 21 22  1  0
 22 23  2  0
 23 24  1  0
 24 25  2  0
 25 26  1  0
 26 27  2  0
 27 28  1  0
 26 29  1  0
 25 30  1  0
 24 31  1  0
 23 32  1  0
 21 33  1  0
 21 34  1  0
 20 35  2  0
  6 36  1  0
 36 37  1  0
 36 38  1  0
  6 39  1  0
  4 40  1  0
  4 41  1  0
  3 42  1  0
  3 43  1  0
  2 44  1  0
  1 45  1  0
  1 46  1  0
  1 47  1  0
 36  2  1  0
 35  7  1  0
 15 10  1  0
 27 22  1  0
M  CHG  1   2   1
M  END
>  <cnnaffinity>  (1) 
-6.15335

>  <filename>  (1) 
C[NH+]1CCOC(c2nc(Cc3ccccc3Cl)n(-c3cccnc3)n2)C1

$$$$
