
     RDKit          3D

 51 54  0  0  0  0  0  0  0  0999 V2000
   11.2182    0.7980   23.4306 C   0  0  0  0  0  0  0  0  0  0  0  0
    9.9249    1.5272   23.3172 N   0  0  0  0  0  4  0  0  0  0  0  0
   10.0088    2.8097   24.1376 C   0  0  0  0  0  0  0  0  0  0  0  0
    8.8160    3.7027   23.9492 C   0  0  0  0  0  0  0  0  0  0  0  0
    7.9904    3.6045   22.9080 C   0  0  0  0  0  0  0  0  0  0  0  0
    8.1274    2.4885   21.9070 C   0  0  0  0  0  0  0  0  0  0  0  0
    9.5144    1.8445   21.8799 C   0  0  0  0  0  0  0  0  0  0  0  0
    9.5395    0.5981   20.9834 C   0  0  0  0  0  0  0  0  0  0  0  0
    8.6201   -0.4814   21.4249 C   0  0  0  0  0  0  0  0  0  0  0  0
    8.8477   -1.3175   22.4209 N   0  0  0  0  0  0  0  0  0  0  0  0
    7.6915   -2.0327   22.4990 C   0  0  0  0  0  0  0  0  0  0  0  0
    7.4489   -3.1080   23.5161 C   0  0  0  0  0  0  0  0  0  0  0  0
    7.0568   -4.4607   22.8630 C   0  0  0  0  0  0  0  0  0  0  0  0
    6.5691   -5.4741   23.8683 C   0  0  0  0  0  0  0  0  0  0  0  0
    6.1623   -5.1580   25.1004 C   0  0  0  0  0  0  0  0  0  0  0  0
    6.2081   -3.7483   25.6463 C   0  0  0  0  0  0  0  0  0  0  0  0
    6.3712   -2.6868   24.5462 C   0  0  0  0  0  0  0  0  0  0  0  0
    6.6253   -1.7192   24.9942 H   0  0  0  0  0  0  0  0  0  0  0  0
    5.4239   -2.5453   24.0120 H   0  0  0  0  0  0  0  0  0  0  0  0
    5.3097   -3.5398   26.2400 H   0  0  0  0  0  0  0  0  0  0  0  0
    7.0431   -3.6762   26.3584 H   0  0  0  0  0  0  0  0  0  0  0  0
    5.7842   -5.9345   25.7680 H   0  0  0  0  0  0  0  0  0  0  0  0
    6.5380   -6.5074   23.5273 H   0  0  0  0  0  0  0  0  0  0  0  0
    7.8996   -4.8731   22.2945 H   0  0  0  0  0  0  0  0  0  0  0  0
    6.2630   -4.2860   22.1235 H   0  0  0  0  0  0  0  0  0  0  0  0
    8.4008   -3.2310   24.0409 H   0  0  0  0  0  0  0  0  0  0  0  0
    6.7594   -1.6659   21.6359 N   0  0  0  0  0  0  0  0  0  0  0  0
    7.3670   -0.6855   20.9215 N   0  0  0  0  0  0  0  0  0  0  0  0
    6.6545    0.0007   19.8989 C   0  0  0  0  0  0  0  0  0  0  0  0
    5.4395    0.6391   20.1672 C   0  0  0  0  0  0  0  0  0  0  0  0
    4.8122    1.3085   19.1100 C   0  0  0  0  0  0  0  0  0  0  0  0
    5.3976    1.2965   17.8382 C   0  0  0  0  0  0  0  0  0  0  0  0
    6.5550    0.6708   17.5738 N   0  0  0  0  0  0  0  0  0  0  0  0
    7.1619    0.0447   18.5877 C   0  0  0  0  0  0  0  0  0  0  0  0
    8.1090   -0.4407   18.3592 H   0  0  0  0  0  0  0  0  0  0  0  0
    4.9214    1.7900   16.9941 H   0  0  0  0  0  0  0  0  0  0  0  0
    3.8809    1.8381   19.2598 H   0  0  0  0  0  0  0  0  0  0  0  0
    5.0118    0.6093   21.1743 H   0  0  0  0  0  0  0  0  0  0  0  0
    9.2894    0.8967   19.9681 H   0  0  0  0  0  0  0  0  0  0  0  0
   10.5463    0.1822   20.9702 H   0  0  0  0  0  0  0  0  0  0  0  0
   10.2481    2.5640   21.4876 H   0  0  0  0  0  0  0  0  0  0  0  0
    7.9027    2.8152   20.8985 H   0  0  0  0  0  0  0  0  0  0  0  0
    7.3648    1.7287   22.1192 H   0  0  0  0  0  0  0  0  0  0  0  0
    7.1677    4.3128   22.7674 H   0  0  0  0  0  0  0  0  0  0  0  0
    8.6793    4.4735   24.7047 H   0  0  0  0  0  0  0  0  0  0  0  0
   10.9155    3.3441   23.8175 H   0  0  0  0  0  0  0  0  0  0  0  0
   10.1491    2.5617   25.1942 H   0  0  0  0  0  0  0  0  0  0  0  0
    9.1482    0.9271   23.6923 H   0  0  0  0  0  0  0  0  0  0  0  0
   11.5739    0.7732   24.4675 H   0  0  0  0  0  0  0  0  0  0  0  0
   11.1130   -0.2256   23.0656 H   0  0  0  0  0  0  0  0  0  0  0  0
   11.9928    1.3054   22.8347 H   0  0  0  0  0  0  0  0  0  0  0  0
  1  2  1  0
  2  3  1  0
  3  4  1  0
  4  5  2  0
  5  6  1  0
  6  7  1  0
  7  8  1  0
  8  9  1  0
  9 10  2  0
 10 11  1  0
 11 12  1  0
 12 13  1  0
 13 14  1  0
 14 15  2  0
 15 16  1  0
 16 17  1  0
 17 18  1  0
 17 19  1  0
 16 20  1  0
 16 21  1  0
 15 22  1  0
 14 23  1  0
 13 24  1  0
 13 25  1  0
 12 26  1  0
 11 27  2  0
 27 28  1  0
 28 29  1  0
 29 30  2  0
 30 31  1  0
 31 32  2  0
 32 33  1  0
 33 34  2  0
 34 35  1  0
 32 36  1  0
 31 37  1  0
 30 38  1  0
  8 39  1  0
  8 40  1  0
  7 41  1  0
  6 42  1  0
  6 43  1  0
  5 44  1  0
  4 45  1  0
  3 46  1  0
  3 47  1  0
  2 48  1  0
  1 49  1  0
  1 50  1  0
  1 51  1  0
  7  2  1  0
 28  9  1  0
 34 29  1  0
 17 12  1  0
M  CHG  1   2   1
M  END
>  <cnnaffinity>  (1) 
-6.00962

>  <filename>  (1) 
C[NH+]1CC=CCC1Cc1nc(C2CC=CCC2)nn1-c1cccnc1

$$$$
