
     RDKit          3D

 51 54  0  0  0  0  0  0  0  0999 V2000
    8.5390    2.7716   22.0983 C   0  0  0  0  0  0  0  0  0  0  0  0
    9.5208    1.8497   22.7943 N   0  0  0  0  0  4  0  0  0  0  0  0
   10.3864    2.6218   23.7911 C   0  0  0  0  0  0  0  0  0  0  0  0
   11.4782    3.4398   23.0833 C   0  0  0  0  0  0  0  0  0  0  0  0
   12.2902    2.6105   22.2651 O   0  0  0  0  0  0  0  0  0  0  0  0
   11.5172    1.9877   21.2504 C   0  0  0  0  0  0  0  0  0  0  0  0
   10.4544    1.0576   21.8372 C   0  0  0  0  0  0  0  0  0  0  0  0
    9.6477    0.3112   20.7852 C   0  0  0  0  0  0  0  0  0  0  0  0
    8.6272   -0.5813   21.3691 C   0  0  0  0  0  0  0  0  0  0  0  0
    8.8527   -1.4301   22.3540 N   0  0  0  0  0  0  0  0  0  0  0  0
    7.6458   -2.0299   22.5186 C   0  0  0  0  0  0  0  0  0  0  0  0
    7.4425   -3.1208   23.5397 C   0  0  0  0  0  0  0  0  0  0  0  0
    6.0359   -3.0650   24.1871 C   0  0  0  0  0  0  0  0  0  0  0  0
    4.9585   -3.6902   23.3280 C   0  0  0  0  0  0  0  0  0  0  0  0
    5.2151   -4.5212   22.3152 C   0  0  0  0  0  0  0  0  0  0  0  0
    6.6192   -4.8733   21.8715 C   0  0  0  0  0  0  0  0  0  0  0  0
    7.6842   -4.5279   22.9302 C   0  0  0  0  0  0  0  0  0  0  0  0
    8.6905   -4.5836   22.5010 H   0  0  0  0  0  0  0  0  0  0  0  0
    7.6544   -5.2660   23.7434 H   0  0  0  0  0  0  0  0  0  0  0  0
    6.6718   -5.9403   21.6235 H   0  0  0  0  0  0  0  0  0  0  0  0
    6.8313   -4.3380   20.9358 H   0  0  0  0  0  0  0  0  0  0  0  0
    4.3899   -4.9635   21.7558 H   0  0  0  0  0  0  0  0  0  0  0  0
    3.9304   -3.4227   23.5718 H   0  0  0  0  0  0  0  0  0  0  0  0
    5.7708   -2.0311   24.4339 H   0  0  0  0  0  0  0  0  0  0  0  0
    6.0648   -3.5892   25.1536 H   0  0  0  0  0  0  0  0  0  0  0  0
    8.2031   -2.9279   24.2995 H   0  0  0  0  0  0  0  0  0  0  0  0
    6.6994   -1.5994   21.7039 N   0  0  0  0  0  0  0  0  0  0  0  0
    7.3453   -0.6970   20.9249 N   0  0  0  0  0  0  0  0  0  0  0  0
    6.6482   -0.0016   19.8973 C   0  0  0  0  0  0  0  0  0  0  0  0
    5.4369    0.6408   20.1661 C   0  0  0  0  0  0  0  0  0  0  0  0
    4.8127    1.3117   19.1112 C   0  0  0  0  0  0  0  0  0  0  0  0
    5.3966    1.2978   17.8383 C   0  0  0  0  0  0  0  0  0  0  0  0
    6.5544    0.6717   17.5735 N   0  0  0  0  0  0  0  0  0  0  0  0
    7.1603    0.0441   18.5873 C   0  0  0  0  0  0  0  0  0  0  0  0
    8.1094   -0.4375   18.3560 H   0  0  0  0  0  0  0  0  0  0  0  0
    4.9220    1.7911   16.9942 H   0  0  0  0  0  0  0  0  0  0  0  0
    3.8812    1.8392   19.2591 H   0  0  0  0  0  0  0  0  0  0  0  0
    5.0121    0.6050   21.1731 H   0  0  0  0  0  0  0  0  0  0  0  0
   10.2949   -0.3703   20.2300 H   0  0  0  0  0  0  0  0  0  0  0  0
    9.1852    1.0189   20.0980 H   0  0  0  0  0  0  0  0  0  0  0  0
   10.9793    0.3313   22.4632 H   0  0  0  0  0  0  0  0  0  0  0  0
   11.0620    2.7331   20.5800 H   0  0  0  0  0  0  0  0  0  0  0  0
   12.2030    1.3987   20.6696 H   0  0  0  0  0  0  0  0  0  0  0  0
   11.0210    4.2338   22.4716 H   0  0  0  0  0  0  0  0  0  0  0  0
   12.1470    3.9031   23.8106 H   0  0  0  0  0  0  0  0  0  0  0  0
   10.8814    1.9002   24.4421 H   0  0  0  0  0  0  0  0  0  0  0  0
    9.7501    3.2768   24.3897 H   0  0  0  0  0  0  0  0  0  0  0  0
    8.9943    1.0958   23.2976 H   0  0  0  0  0  0  0  0  0  0  0  0
    7.7824    2.1950   21.5605 H   0  0  0  0  0  0  0  0  0  0  0  0
    8.0435    3.4183   22.8290 H   0  0  0  0  0  0  0  0  0  0  0  0
    9.0398    3.4201   21.3744 H   0  0  0  0  0  0  0  0  0  0  0  0
  1  2  1  0
  2  3  1  0
  3  4  1  0
  4  5  1  0
  5  6  1  0
  6  7  1  0
  7  8  1  0
  8  9  1  0
  9 10  2  0
 10 11  1  0
 11 12  1  0
 12 13  1  0
 13 14  1  0
 14 15  2  0
 15 16  1  0
 16 17  1  0
 17 18  1  0
 17 19  1  0
 16 20  1  0
 16 21  1  0
 15 22  1  0
 14 23  1  0
 13 24  1  0
 13 25  1  0
 12 26  1  0
 11 27  2  0
 27 28  1  0
 28 29  1  0
 29 30  2  0
 30 31  1  0
 31 32  2  0
 32 33  1  0
 33 34  2  0
 34 35  1  0
 32 36  1  0
 31 37  1  0
 30 38  1  0
  8 39  1  0
  8 40  1  0
  7 41  1  0
  6 42  1  0
  6 43  1  0
  4 44  1  0
  4 45  1  0
  3 46  1  0
  3 47  1  0
  2 48  1  0
  1 49  1  0
  1 50  1  0
  1 51  1  0
  7  2  1  0
 28  9  1  0
 34 29  1  0
 17 12  1  0
M  CHG  1   2   1
M  END
>  <cnnaffinity>  (1) 
-5.7387

>  <filename>  (1) 
C[NH+]1CCOCC1Cc1nc(C2CC=CCC2)nn1-c1cccnc1

$$$$
