
     RDKit          3D

 51 54  0  0  0  0  0  0  0  0999 V2000
   13.7296    1.9551   23.7257 C   0  0  0  0  0  0  0  0  0  0  0  0
   12.6414    1.5358   22.8566 N   0  0  0  0  0  4  0  0  0  0  0  0
   12.5195    0.0329   22.7405 C   0  0  0  0  0  0  0  0  0  0  0  0
   11.5271   -0.2655   21.6587 C   0  0  0  0  0  0  0  0  0  0  0  0
   10.5327    0.5771   21.3671 C   0  0  0  0  0  0  0  0  0  0  0  0
    9.3940    0.1086   20.5121 C   0  0  0  0  0  0  0  0  0  0  0  0
    8.3949   -0.7021   21.2821 C   0  0  0  0  0  0  0  0  0  0  0  0
    8.6292   -1.4549   22.3356 N   0  0  0  0  0  0  0  0  0  0  0  0
    7.4285   -2.0489   22.5711 C   0  0  0  0  0  0  0  0  0  0  0  0
    7.2637   -3.0161   23.7054 C   0  0  0  0  0  0  0  0  0  0  0  0
    7.4537   -2.3048   25.0763 C   0  0  0  0  0  0  0  0  0  0  0  0
    7.5489   -3.2720   26.2344 C   0  0  0  0  0  0  0  0  0  0  0  0
    7.7322   -4.5852   26.0818 C   0  0  0  0  0  0  0  0  0  0  0  0
    7.9761   -5.2346   24.7364 C   0  0  0  0  0  0  0  0  0  0  0  0
    8.2545   -4.2077   23.6196 C   0  0  0  0  0  0  0  0  0  0  0  0
    9.2791   -3.8175   23.7111 H   0  0  0  0  0  0  0  0  0  0  0  0
    8.1999   -4.6953   22.6398 H   0  0  0  0  0  0  0  0  0  0  0  0
    8.8092   -5.9469   24.8100 H   0  0  0  0  0  0  0  0  0  0  0  0
    7.0998   -5.8488   24.4793 H   0  0  0  0  0  0  0  0  0  0  0  0
    7.6911   -5.2491   26.9485 H   0  0  0  0  0  0  0  0  0  0  0  0
    7.4929   -2.8372   27.2343 H   0  0  0  0  0  0  0  0  0  0  0  0
    8.3745   -1.7036   25.0411 H   0  0  0  0  0  0  0  0  0  0  0  0
    6.6412   -1.5876   25.2529 H   0  0  0  0  0  0  0  0  0  0  0  0
    6.2389   -3.3994   23.6272 H   0  0  0  0  0  0  0  0  0  0  0  0
    6.4684   -1.6980   21.7336 N   0  0  0  0  0  0  0  0  0  0  0  0
    7.0991   -0.8421   20.8886 N   0  0  0  0  0  0  0  0  0  0  0  0
    6.4389   -0.1505   19.8435 C   0  0  0  0  0  0  0  0  0  0  0  0
    5.2717    0.5792   20.0888 C   0  0  0  0  0  0  0  0  0  0  0  0
    4.7473    1.3378   19.0372 C   0  0  0  0  0  0  0  0  0  0  0  0
    5.3962    1.3339   17.7961 C   0  0  0  0  0  0  0  0  0  0  0  0
    6.5088    0.6219   17.5559 N   0  0  0  0  0  0  0  0  0  0  0  0
    7.0049   -0.1039   18.5580 C   0  0  0  0  0  0  0  0  0  0  0  0
    7.9261   -0.6435   18.3461 H   0  0  0  0  0  0  0  0  0  0  0  0
    5.0121    1.9117   16.9585 H   0  0  0  0  0  0  0  0  0  0  0  0
    3.8518    1.9362   19.1690 H   0  0  0  0  0  0  0  0  0  0  0  0
    4.8255    0.5562   21.0842 H   0  0  0  0  0  0  0  0  0  0  0  0
    9.7647   -0.5386   19.7034 H   0  0  0  0  0  0  0  0  0  0  0  0
    8.9024    0.9659   20.0439 H   0  0  0  0  0  0  0  0  0  0  0  0
   10.4323    1.9772   21.9446 C   0  0  0  0  0  0  0  0  0  0  0  0
   11.2834    2.1063   23.2036 C   0  0  0  0  0  0  0  0  0  0  0  0
   10.8686    1.5055   24.0216 H   0  0  0  0  0  0  0  0  0  0  0  0
   11.3628    3.1379   23.5640 H   0  0  0  0  0  0  0  0  0  0  0  0
    9.3909    2.2308   22.1681 H   0  0  0  0  0  0  0  0  0  0  0  0
   10.7934    2.7000   21.1969 H   0  0  0  0  0  0  0  0  0  0  0  0
   11.5687   -1.2433   21.1875 H   0  0  0  0  0  0  0  0  0  0  0  0
   13.4926   -0.4333   22.5451 H   0  0  0  0  0  0  0  0  0  0  0  0
   12.1738   -0.3598   23.7094 H   0  0  0  0  0  0  0  0  0  0  0  0
   12.8539    1.8756   21.8987 H   0  0  0  0  0  0  0  0  0  0  0  0
   14.6127    1.3383   23.5300 H   0  0  0  0  0  0  0  0  0  0  0  0
   14.0062    3.0022   23.5488 H   0  0  0  0  0  0  0  0  0  0  0  0
   13.4629    1.8362   24.7832 H   0  0  0  0  0  0  0  0  0  0  0  0
  1  2  1  0
  2  3  1  0
  3  4  1  0
  4  5  2  0
  5  6  1  0
  6  7  1  0
  7  8  2  0
  8  9  1  0
  9 10  1  0
 10 11  1  0
 11 12  1  0
 12 13  2  0
 13 14  1  0
 14 15  1  0
 15 16  1  0
 15 17  1  0
 14 18  1  0
 14 19  1  0
 13 20  1  0
 12 21  1  0
 11 22  1  0
 11 23  1  0
 10 24  1  0
  9 25  2  0
 25 26  1  0
 26 27  1  0
 27 28  2  0
 28 29  1  0
 29 30  2  0
 30 31  1  0
 31 32  2  0
 32 33  1  0
 30 34  1  0
 29 35  1  0
 28 36  1  0
  6 37  1  0
  6 38  1  0
  5 39  1  0
 39 40  1  0
 40 41  1  0
 40 42  1  0
 39 43  1  0
 39 44  1  0
  4 45  1  0
  3 46  1  0
  3 47  1  0
  2 48  1  0
  1 49  1  0
  1 50  1  0
  1 51  1  0
 40  2  1  0
 26  7  1  0
 32 27  1  0
 15 10  1  0
M  CHG  1   2   1
M  END
>  <cnnaffinity>  (1) 
-6.31225

>  <filename>  (1) 
C[NH+]1CC=C(Cc2nc(C3CC=CCC3)nn2-c2cccnc2)CC1

$$$$
