
     RDKit          3D

 45 47  0  0  0  0  0  0  0  0999 V2000
    9.2856   -1.3082   25.7343 C   0  0  0  0  0  0  0  0  0  0  0  0
    7.9197   -0.8716   25.2853 N   0  0  0  0  0  4  0  0  0  0  0  0
    7.3258   -0.0141   26.3502 C   0  0  0  0  0  0  0  0  0  0  0  0
    6.3450    0.3685   26.0528 H   0  0  0  0  0  0  0  0  0  0  0  0
    7.9732    0.8345   26.5867 H   0  0  0  0  0  0  0  0  0  0  0  0
    7.2001   -0.6201   27.2583 H   0  0  0  0  0  0  0  0  0  0  0  0
    6.9805   -2.0259   25.0137 C   0  0  0  0  0  0  0  0  0  0  0  0
    7.4457   -2.8542   23.8173 C   0  0  0  0  0  0  0  0  0  0  0  0
    7.6509   -1.9608   22.6504 C   0  0  0  0  0  0  0  0  0  0  0  0
    8.8169   -1.4030   22.4052 N   0  0  0  0  0  0  0  0  0  0  0  0
    8.5654   -0.6245   21.3176 N   0  0  0  0  0  0  0  0  0  0  0  0
    9.6608    0.2017   20.8138 C   0  0  0  0  0  0  0  0  0  0  0  0
   10.2572    1.0311   21.9308 C   0  0  0  0  0  0  0  0  0  0  0  0
   11.4485    0.6518   22.5842 C   0  0  0  0  0  0  0  0  0  0  0  0
   12.3429   -0.7566   22.0759 Cl  0  0  0  0  0  0  0  0  0  0  0  0
   11.9712    1.3687   23.6603 C   0  0  0  0  0  0  0  0  0  0  0  0
   11.3022    2.5083   24.0983 C   0  0  0  0  0  0  0  0  0  0  0  0
   10.1002    2.9063   23.5122 C   0  0  0  0  0  0  0  0  0  0  0  0
    9.5981    2.1664   22.4383 C   0  0  0  0  0  0  0  0  0  0  0  0
    8.1118    2.7107   21.7093 Cl  0  0  0  0  0  0  0  0  0  0  0  0
    9.5535    3.7767   23.8624 H   0  0  0  0  0  0  0  0  0  0  0  0
   11.7433    3.0938   24.8916 H   0  0  0  0  0  0  0  0  0  0  0  0
   12.8885    1.0246   24.1282 H   0  0  0  0  0  0  0  0  0  0  0  0
    9.2895    0.8351   20.0078 H   0  0  0  0  0  0  0  0  0  0  0  0
   10.4230   -0.4626   20.4082 H   0  0  0  0  0  0  0  0  0  0  0  0
    7.2430   -0.7159   21.0090 C   0  0  0  0  0  0  0  0  0  0  0  0
    6.5764   -0.0051   19.9190 C   0  0  0  0  0  0  0  0  0  0  0  0
    5.3584    0.6536   20.1357 C   0  0  0  0  0  0  0  0  0  0  0  0
    4.7756    1.3348   19.0694 C   0  0  0  0  0  0  0  0  0  0  0  0
    5.4159    1.3042   17.8254 C   0  0  0  0  0  0  0  0  0  0  0  0
    6.5591    0.6420   17.5913 N   0  0  0  0  0  0  0  0  0  0  0  0
    7.1225    0.0061   18.6248 C   0  0  0  0  0  0  0  0  0  0  0  0
    8.0586   -0.5117   18.4085 H   0  0  0  0  0  0  0  0  0  0  0  0
    4.9843    1.8313   16.9782 H   0  0  0  0  0  0  0  0  0  0  0  0
    3.8566    1.8955   19.1900 H   0  0  0  0  0  0  0  0  0  0  0  0
    4.8987    0.6440   21.1276 H   0  0  0  0  0  0  0  0  0  0  0  0
    6.6468   -1.5504   21.8445 N   0  0  0  0  0  0  0  0  0  0  0  0
    8.3873   -3.3543   24.0462 H   0  0  0  0  0  0  0  0  0  0  0  0
    6.7035   -3.6024   23.5374 H   0  0  0  0  0  0  0  0  0  0  0  0
    5.9869   -1.6141   24.8086 H   0  0  0  0  0  0  0  0  0  0  0  0
    6.9004   -2.6438   25.9217 H   0  0  0  0  0  0  0  0  0  0  0  0
    8.0366   -0.3337   24.3966 H   0  0  0  0  0  0  0  0  0  0  0  0
    9.2009   -2.0490   26.5422 H   0  0  0  0  0  0  0  0  0  0  0  0
    9.8396   -1.7357   24.8958 H   0  0  0  0  0  0  0  0  0  0  0  0
    9.8489   -0.4481   26.1111 H   0  0  0  0  0  0  0  0  0  0  0  0
  1  2  1  0
  2  3  1  0
  3  4  1  0
  3  5  1  0
  3  6  1  0
  2  7  1  0
  7  8  1  0
  8  9  1  0
  9 10  2  0
 10 11  1  0
 11 12  1  0
 12 13  1  0
 13 14  2  0
 14 15  1  0
 14 16  1  0
 16 17  2  0
 17 18  1  0
 18 19  2  0
 19 20  1  0
 18 21  1  0
 17 22  1  0
 16 23  1  0
 12 24  1  0
 12 25  1  0
 11 26  1  0
 26 27  1  0
 27 28  2  0
 28 29  1  0
 29 30  2  0
 30 31  1  0
 31 32  2  0
 32 33  1  0
 30 34  1  0
 29 35  1  0
 28 36  1  0
 26 37  2  0
  8 38  1  0
  8 39  1  0
  7 40  1  0
  7 41  1  0
  2 42  1  0
  1 43  1  0
  1 44  1  0
  1 45  1  0
 37  9  1  0
 19 13  1  0
 32 27  1  0
M  CHG  1   2   1
M  END
>  <cnnaffinity>  (1) 
-6.40744

>  <filename>  (1) 
C[NH+](C)CCc1nc(-c2cccnc2)n(Cc2c(Cl)cccc2Cl)n1

$$$$
