
     RDKit          3D

 44 46  0  0  0  0  0  0  0  0999 V2000
    7.9941   -4.6528   21.0867 C   0  0  0  0  0  0  0  0  0  0  0  0
    7.5416   -5.2605   22.3915 N   0  0  0  0  0  4  0  0  0  0  0  0
    8.6687   -5.7882   23.2397 C   0  0  0  0  0  0  0  0  0  0  0  0
    8.2933   -6.0660   24.2305 H   0  0  0  0  0  0  0  0  0  0  0  0
    9.4447   -5.0263   23.3698 H   0  0  0  0  0  0  0  0  0  0  0  0
    9.1328   -6.6651   22.7771 H   0  0  0  0  0  0  0  0  0  0  0  0
    6.5896   -4.3568   23.1776 C   0  0  0  0  0  0  0  0  0  0  0  0
    7.2601   -3.0657   23.6204 C   0  0  0  0  0  0  0  0  0  0  0  0
    7.5169   -2.0985   22.5068 C   0  0  0  0  0  0  0  0  0  0  0  0
    6.6313   -1.7499   21.5929 N   0  0  0  0  0  0  0  0  0  0  0  0
    7.2908   -0.7922   20.8741 N   0  0  0  0  0  0  0  0  0  0  0  0
    6.5949   -0.0761   19.8563 C   0  0  0  0  0  0  0  0  0  0  0  0
    5.3973    0.5953   20.1326 C   0  0  0  0  0  0  0  0  0  0  0  0
    4.7946    1.3100   19.0914 C   0  0  0  0  0  0  0  0  0  0  0  0
    5.3870    1.3062   17.8234 C   0  0  0  0  0  0  0  0  0  0  0  0
    6.5181    0.6411   17.5474 N   0  0  0  0  0  0  0  0  0  0  0  0
    7.1050   -0.0269   18.5472 C   0  0  0  0  0  0  0  0  0  0  0  0
    8.0335   -0.5477   18.3192 H   0  0  0  0  0  0  0  0  0  0  0  0
    4.9403    1.8624   17.0008 H   0  0  0  0  0  0  0  0  0  0  0  0
    3.8855    1.8749   19.2528 H   0  0  0  0  0  0  0  0  0  0  0  0
    4.9709    0.5743   21.1373 H   0  0  0  0  0  0  0  0  0  0  0  0
    8.5407   -0.6241   21.4103 C   0  0  0  0  0  0  0  0  0  0  0  0
    9.6482    0.2204   20.8611 C   0  0  0  0  0  0  0  0  0  0  0  0
   10.3477    1.0597   21.9115 C   0  0  0  0  0  0  0  0  0  0  0  0
    9.7611    2.1844   22.5109 C   0  0  0  0  0  0  0  0  0  0  0  0
    8.2206    2.7702   21.9739 Cl  0  0  0  0  0  0  0  0  0  0  0  0
   10.4080    2.8689   23.5518 C   0  0  0  0  0  0  0  0  0  0  0  0
   11.6062    2.5092   24.0277 N   0  0  0  0  0  0  0  0  0  0  0  0
   12.1968    1.4500   23.4639 C   0  0  0  0  0  0  0  0  0  0  0  0
   11.6168    0.7389   22.4083 C   0  0  0  0  0  0  0  0  0  0  0  0
   12.3141   -0.2744   21.8701 F   0  0  0  0  0  0  0  0  0  0  0  0
   13.1597    1.1422   23.8554 H   0  0  0  0  0  0  0  0  0  0  0  0
    9.9383    3.7273   24.0171 H   0  0  0  0  0  0  0  0  0  0  0  0
   10.3793   -0.4677   20.4297 H   0  0  0  0  0  0  0  0  0  0  0  0
    9.2607    0.8623   20.0688 H   0  0  0  0  0  0  0  0  0  0  0  0
    8.6993   -1.4477   22.4306 N   0  0  0  0  0  0  0  0  0  0  0  0
    6.6686   -2.5603   24.3872 H   0  0  0  0  0  0  0  0  0  0  0  0
    8.2333   -3.2725   24.0685 H   0  0  0  0  0  0  0  0  0  0  0  0
    6.2239   -4.9149   24.0491 H   0  0  0  0  0  0  0  0  0  0  0  0
    5.7266   -4.1348   22.5421 H   0  0  0  0  0  0  0  0  0  0  0  0
    6.9732   -6.0910   22.1345 H   0  0  0  0  0  0  0  0  0  0  0  0
    8.4488   -5.3928   20.4203 H   0  0  0  0  0  0  0  0  0  0  0  0
    7.1282   -4.1909   20.6069 H   0  0  0  0  0  0  0  0  0  0  0  0
    8.7420   -3.8770   21.2658 H   0  0  0  0  0  0  0  0  0  0  0  0
  1  2  1  0
  2  3  1  0
  3  4  1  0
  3  5  1  0
  3  6  1  0
  2  7  1  0
  7  8  1  0
  8  9  1  0
  9 10  2  0
 10 11  1  0
 11 12  1  0
 12 13  2  0
 13 14  1  0
 14 15  2  0
 15 16  1  0
 16 17  2  0
 17 18  1  0
 15 19  1  0
 14 20  1  0
 13 21  1  0
 11 22  1  0
 22 23  1  0
 23 24  1  0
 24 25  2  0
 25 26  1  0
 25 27  1  0
 27 28  2  0
 28 29  1  0
 29 30  2  0
 30 31  1  0
 29 32  1  0
 27 33  1  0
 23 34  1  0
 23 35  1  0
 22 36  2  0
  8 37  1  0
  8 38  1  0
  7 39  1  0
  7 40  1  0
  2 41  1  0
  1 42  1  0
  1 43  1  0
  1 44  1  0
 36  9  1  0
 17 12  1  0
 30 24  1  0
M  CHG  1   2   1
M  END
>  <cnnaffinity>  (1) 
-6.34679

>  <filename>  (1) 
C[NH+](C)CCc1nc(Cc2c(F)cncc2Cl)n(-c2cccnc2)n1

$$$$
