
     RDKit          3D

 45 47  0  0  0  0  0  0  0  0999 V2000
    7.9072    0.0385   26.3737 C   0  0  0  0  0  0  0  0  0  0  0  0
    7.2867   -0.7649   25.2876 N   0  0  0  0  0  4  0  0  0  0  0  0
    5.8096   -0.8919   25.5476 C   0  0  0  0  0  0  0  0  0  0  0  0
    5.2959   -1.2965   24.6718 H   0  0  0  0  0  0  0  0  0  0  0  0
    5.3894    0.0935   25.7668 H   0  0  0  0  0  0  0  0  0  0  0  0
    5.6381   -1.5472   26.4122 H   0  0  0  0  0  0  0  0  0  0  0  0
    7.9678   -2.1089   25.1633 C   0  0  0  0  0  0  0  0  0  0  0  0
    7.4937   -2.8129   23.8894 C   0  0  0  0  0  0  0  0  0  0  0  0
    7.6408   -1.9344   22.6839 C   0  0  0  0  0  0  0  0  0  0  0  0
    8.8318   -1.5706   22.2612 N   0  0  0  0  0  0  0  0  0  0  0  0
    8.5542   -0.7558   21.2095 N   0  0  0  0  0  0  0  0  0  0  0  0
    9.6516    0.0359   20.6624 C   0  0  0  0  0  0  0  0  0  0  0  0
   10.4640    0.7061   21.7455 C   0  0  0  0  0  0  0  0  0  0  0  0
    9.9241    1.7185   22.5591 C   0  0  0  0  0  0  0  0  0  0  0  0
    8.2909    2.2655   22.3240 Cl  0  0  0  0  0  0  0  0  0  0  0  0
   10.7083    2.2828   23.5790 C   0  0  0  0  0  0  0  0  0  0  0  0
   10.1227    3.5498   24.6111 Cl  0  0  0  0  0  0  0  0  0  0  0  0
   12.0169    1.8397   23.7805 C   0  0  0  0  0  0  0  0  0  0  0  0
   12.5656    0.8614   22.9600 C   0  0  0  0  0  0  0  0  0  0  0  0
   11.7786    0.2764   21.9705 C   0  0  0  0  0  0  0  0  0  0  0  0
   12.1950   -0.5355   21.3794 H   0  0  0  0  0  0  0  0  0  0  0  0
   13.6096    0.5860   23.0716 H   0  0  0  0  0  0  0  0  0  0  0  0
   12.5840    2.2589   24.5983 H   0  0  0  0  0  0  0  0  0  0  0  0
    9.2692    0.7878   19.9718 H   0  0  0  0  0  0  0  0  0  0  0  0
   10.3018   -0.6457   20.1161 H   0  0  0  0  0  0  0  0  0  0  0  0
    7.2094   -0.6961   21.0345 C   0  0  0  0  0  0  0  0  0  0  0  0
    6.5326    0.0130   19.9387 C   0  0  0  0  0  0  0  0  0  0  0  0
    5.3171    0.6889   20.1310 C   0  0  0  0  0  0  0  0  0  0  0  0
    4.7582    1.3550   19.0407 C   0  0  0  0  0  0  0  0  0  0  0  0
    5.4102    1.3083   17.8033 C   0  0  0  0  0  0  0  0  0  0  0  0
    6.5457    0.6233   17.5959 N   0  0  0  0  0  0  0  0  0  0  0  0
    7.0819   -0.0061   18.6442 C   0  0  0  0  0  0  0  0  0  0  0  0
    8.0120   -0.5442   18.4444 H   0  0  0  0  0  0  0  0  0  0  0  0
    5.0052    1.8429   16.9462 H   0  0  0  0  0  0  0  0  0  0  0  0
    3.8393    1.9238   19.1341 H   0  0  0  0  0  0  0  0  0  0  0  0
    4.8385    0.7180   21.1137 H   0  0  0  0  0  0  0  0  0  0  0  0
    6.6100   -1.4119   21.9798 N   0  0  0  0  0  0  0  0  0  0  0  0
    6.4415   -3.0871   23.9619 H   0  0  0  0  0  0  0  0  0  0  0  0
    8.0669   -3.7277   23.7272 H   0  0  0  0  0  0  0  0  0  0  0  0
    9.0513   -1.9387   25.1499 H   0  0  0  0  0  0  0  0  0  0  0  0
    7.7539   -2.7157   26.0575 H   0  0  0  0  0  0  0  0  0  0  0  0
    7.4167   -0.2751   24.3695 H   0  0  0  0  0  0  0  0  0  0  0  0
    8.9691    0.2066   26.1750 H   0  0  0  0  0  0  0  0  0  0  0  0
    7.4110    1.0077   26.4614 H   0  0  0  0  0  0  0  0  0  0  0  0
    7.8073   -0.4969   27.3266 H   0  0  0  0  0  0  0  0  0  0  0  0
  1  2  1  0
  2  3  1  0
  3  4  1  0
  3  5  1  0
  3  6  1  0
  2  7  1  0
  7  8  1  0
  8  9  1  0
  9 10  2  0
 10 11  1  0
 11 12  1  0
 12 13  1  0
 13 14  2  0
 14 15  1  0
 14 16  1  0
 16 17  1  0
 16 18  2  0
 18 19  1  0
 19 20  2  0
 20 21  1  0
 19 22  1  0
 18 23  1  0
 12 24  1  0
 12 25  1  0
 11 26  1  0
 26 27  1  0
 27 28  2  0
 28 29  1  0
 29 30  2  0
 30 31  1  0
 31 32  2  0
 32 33  1  0
 30 34  1  0
 29 35  1  0
 28 36  1  0
 26 37  2  0
  8 38  1  0
  8 39  1  0
  7 40  1  0
  7 41  1  0
  2 42  1  0
  1 43  1  0
  1 44  1  0
  1 45  1  0
 37  9  1  0
 20 13  1  0
 32 27  1  0
M  CHG  1   2   1
M  END
>  <cnnaffinity>  (1) 
-6.13291

>  <filename>  (1) 
C[NH+](C)CCc1nc(-c2cccnc2)n(Cc2cccc(Cl)c2Cl)n1

$$$$
