
     RDKit          3D

 30 32  0  0  0  0  0  0  0  0999 V2000
    5.6779   -1.7786   21.5419 H   0  0  0  0  0  0  0  0  0  0  0  0
    6.7286   -1.5928   21.7187 C   0  0  0  0  0  0  0  0  0  0  0  0
    7.4002   -0.7046   20.9693 C   0  0  0  0  0  0  0  0  0  0  0  0
    6.6546    0.0075   19.9036 C   0  0  0  0  0  0  0  0  0  0  0  0
    7.1710    0.0707   18.5988 C   0  0  0  0  0  0  0  0  0  0  0  0
    8.1156   -0.4240   18.3827 H   0  0  0  0  0  0  0  0  0  0  0  0
    6.5653    0.6764   17.5716 N   0  0  0  0  0  0  0  0  0  0  0  0
    5.4028    1.2937   17.8368 C   0  0  0  0  0  0  0  0  0  0  0  0
    4.9121    1.7788   16.9970 H   0  0  0  0  0  0  0  0  0  0  0  0
    4.8041    1.3163   19.1045 C   0  0  0  0  0  0  0  0  0  0  0  0
    3.8689    1.8471   19.2600 H   0  0  0  0  0  0  0  0  0  0  0  0
    5.4305    0.6460   20.1533 C   0  0  0  0  0  0  0  0  0  0  0  0
    5.0079    0.6320   21.1613 H   0  0  0  0  0  0  0  0  0  0  0  0
    8.8590   -0.3957   21.1522 C   0  0  0  0  0  0  0  0  0  0  0  0
    9.4650   -1.2791   20.9352 H   0  0  0  0  0  0  0  0  0  0  0  0
    9.0614   -0.1079   22.1880 H   0  0  0  0  0  0  0  0  0  0  0  0
    9.1692    0.4237   20.4991 H   0  0  0  0  0  0  0  0  0  0  0  0
    7.2420   -2.4172   22.7931 C   0  0  0  0  0  0  0  0  0  0  0  0
    6.5219   -3.2292   23.4909 N   0  0  0  0  0  0  0  0  0  0  0  0
    7.4272   -3.7885   24.3861 C   0  0  0  0  0  0  0  0  0  0  0  0
    7.2581   -4.7379   25.4049 C   0  0  0  0  0  0  0  0  0  0  0  0
    6.2687   -5.1455   25.5832 H   0  0  0  0  0  0  0  0  0  0  0  0
    8.3814   -5.1172   26.1500 C   0  0  0  0  0  0  0  0  0  0  0  0
    8.2691   -5.8545   26.9448 H   0  0  0  0  0  0  0  0  0  0  0  0
    9.6520   -4.5574   25.8823 C   0  0  0  0  0  0  0  0  0  0  0  0
   10.5088   -4.8714   26.4771 H   0  0  0  0  0  0  0  0  0  0  0  0
    9.8331   -3.6073   24.8659 C   0  0  0  0  0  0  0  0  0  0  0  0
   10.8030   -3.1686   24.6470 H   0  0  0  0  0  0  0  0  0  0  0  0
    8.6947   -3.2521   24.1451 C   0  0  0  0  0  0  0  0  0  0  0  0
    8.5735   -2.3686   23.1181 O   0  0  0  0  0  0  0  0  0  0  0  0
  1  2  1  0
  2  3  2  3
  3  4  1  0
  4  5  2  0
  5  6  1  0
  5  7  1  0
  7  8  2  0
  8  9  1  0
  8 10  1  0
 10 11  1  0
 10 12  2  0
 12 13  1  0
  3 14  1  0
 14 15  1  0
 14 16  1  0
 14 17  1  0
  2 18  1  0
 18 19  2  0
 19 20  1  0
 20 21  2  0
 21 22  1  0
 21 23  1  0
 23 24  1  0
 23 25  2  0
 25 26  1  0
 25 27  1  0
 27 28  1  0
 27 29  2  0
 29 30  1  0
 12  4  1  0
 30 18  1  0
 29 20  1  0
M  END
>  <cnnaffinity>  (1) 
-4.96437

>  <filename>  (1) 
CC(=Cc1nc2ccccc2o1)c1cccnc1

$$$$
