
     RDKit          3D

 29 30  0  0  0  0  0  0  0  0999 V2000
    4.9737    1.7559   17.0146 H   0  0  0  0  0  0  0  0  0  0  0  0
    5.4710    1.2545   17.8418 C   0  0  0  0  0  0  0  0  0  0  0  0
    6.6311    0.6418   17.5536 N   0  0  0  0  0  0  0  0  0  0  0  0
    7.2675    0.0139   18.5508 C   0  0  0  0  0  0  0  0  0  0  0  0
    8.2064   -0.4748   18.3045 H   0  0  0  0  0  0  0  0  0  0  0  0
    6.7817   -0.0422   19.8706 C   0  0  0  0  0  0  0  0  0  0  0  0
    7.5627   -0.6701   20.8202 O   0  0  0  0  0  0  0  0  0  0  0  0
    6.9904   -1.5339   21.7378 C   0  0  0  0  0  0  0  0  0  0  0  0
    6.0129   -2.4722   21.3732 C   0  0  0  0  0  0  0  0  0  0  0  0
    5.7082   -2.5225   20.3342 H   0  0  0  0  0  0  0  0  0  0  0  0
    5.4805   -3.3063   22.3619 C   0  0  0  0  0  0  0  0  0  0  0  0
    4.6718   -3.9916   22.1214 H   0  0  0  0  0  0  0  0  0  0  0  0
    5.9408   -3.2520   23.6798 C   0  0  0  0  0  0  0  0  0  0  0  0
    5.5177   -3.8759   24.4546 H   0  0  0  0  0  0  0  0  0  0  0  0
    6.9819   -2.3720   23.9994 C   0  0  0  0  0  0  0  0  0  0  0  0
    7.5781   -2.3398   25.2751 N   0  0  0  0  0  0  0  0  0  0  0  0
    8.2026   -1.5707   25.4206 H   0  0  0  0  0  0  0  0  0  0  0  0
    7.7620   -3.4244   26.0991 C   0  0  0  0  0  0  0  0  0  0  0  0
    7.2369   -4.5035   25.9156 O   0  0  0  0  0  0  0  0  0  0  0  0
    8.6834   -3.1877   27.2687 C   0  0  0  0  0  0  0  0  0  0  0  0
    9.7280   -3.3584   26.9842 H   0  0  0  0  0  0  0  0  0  0  0  0
    8.4228   -3.9444   28.0113 H   0  0  0  0  0  0  0  0  0  0  0  0
    8.5889   -2.1838   27.6961 H   0  0  0  0  0  0  0  0  0  0  0  0
    7.4815   -1.4890   23.0394 C   0  0  0  0  0  0  0  0  0  0  0  0
    8.2243   -0.7484   23.3078 H   0  0  0  0  0  0  0  0  0  0  0  0
    5.5703    0.5931   20.1658 C   0  0  0  0  0  0  0  0  0  0  0  0
    5.1701    0.5597   21.1799 H   0  0  0  0  0  0  0  0  0  0  0  0
    4.9090    1.2568   19.1237 C   0  0  0  0  0  0  0  0  0  0  0  0
    3.9702    1.7739   19.2913 H   0  0  0  0  0  0  0  0  0  0  0  0
  1  2  1  0
  2  3  2  0
  3  4  1  0
  4  5  1  0
  4  6  2  0
  6  7  1  0
  7  8  1  0
  8  9  2  0
  9 10  1  0
  9 11  1  0
 11 12  1  0
 11 13  2  0
 13 14  1  0
 13 15  1  0
 15 16  1  0
 16 17  1  0
 16 18  1  0
 18 19  2  0
 18 20  1  0
 20 21  1  0
 20 22  1  0
 20 23  1  0
 15 24  2  0
 24 25  1  0
  6 26  1  0
 26 27  1  0
 26 28  2  0
 28 29  1  0
 28  2  1  0
 24  8  1  0
M  END
>  <cnnaffinity>  (1) 
-4.32325

>  <filename>  (1) 
CC(=O)Nc1cccc(Oc2cccnc2)c1

$$$$
