
     RDKit          3D

 43 44  0  0  0  0  0  0  0  0999 V2000
    5.1751    1.7383   17.0006 H   0  0  0  0  0  0  0  0  0  0  0  0
    5.5600    1.2614   17.8975 C   0  0  0  0  0  0  0  0  0  0  0  0
    6.6975    0.5657   17.7538 N   0  0  0  0  0  0  0  0  0  0  0  0
    7.1787   -0.0528   18.8271 C   0  0  0  0  0  0  0  0  0  0  0  0
    8.0798   -0.6483   18.6872 H   0  0  0  0  0  0  0  0  0  0  0  0
    6.5727    0.0368   20.0763 C   0  0  0  0  0  0  0  0  0  0  0  0
    7.4176   -0.8714   21.3155 S   0  0  0  0  0  0  0  0  0  0  0  0
    6.4844   -1.0815   22.4175 O   0  0  0  0  0  0  0  0  0  0  0  0
    8.0131   -2.0198   20.6310 O   0  0  0  0  0  0  0  0  0  0  0  0
    8.8951    0.1370   21.9339 C   0  0  0  0  0  0  0  0  0  0  0  0
    9.9478    0.2253   20.8129 C   0  0  0  0  0  0  0  0  0  0  0  0
   10.8348    0.7792   21.1602 H   0  0  0  0  0  0  0  0  0  0  0  0
   10.2737   -0.7734   20.5064 H   0  0  0  0  0  0  0  0  0  0  0  0
    9.5621    0.7476   19.9314 H   0  0  0  0  0  0  0  0  0  0  0  0
    9.4701   -0.7412   23.0746 C   0  0  0  0  0  0  0  0  0  0  0  0
    8.7329   -0.9052   23.8664 H   0  0  0  0  0  0  0  0  0  0  0  0
    9.7628   -1.7219   22.6862 H   0  0  0  0  0  0  0  0  0  0  0  0
   10.3585   -0.2779   23.5259 H   0  0  0  0  0  0  0  0  0  0  0  0
    8.5488    1.5537   22.4873 C   0  0  0  0  0  0  0  0  0  0  0  0
    9.4665    1.8439   23.0406 H   0  0  0  0  0  0  0  0  0  0  0  0
    7.3661    1.5921   23.4702 C   0  0  0  0  0  0  0  0  0  0  0  0
    7.4403    0.7880   24.2070 H   0  0  0  0  0  0  0  0  0  0  0  0
    6.4358    1.4287   22.9151 H   0  0  0  0  0  0  0  0  0  0  0  0
    7.2840    2.9565   24.1606 C   0  0  0  0  0  0  0  0  0  0  0  0
    6.4275    3.0007   24.8382 H   0  0  0  0  0  0  0  0  0  0  0  0
    8.1889    3.1359   24.7655 H   0  0  0  0  0  0  0  0  0  0  0  0
    7.1509    4.0164   23.1463 N   0  0  0  0  0  0  0  0  0  0  0  0
    6.1027    4.9086   23.1956 C   0  0  0  0  0  0  0  0  0  0  0  0
    5.4198    5.0671   24.1935 O   0  0  0  0  0  0  0  0  0  0  0  0
    5.8361    5.7007   21.9290 C   0  0  0  0  0  0  0  0  0  0  0  0
    5.8522    5.0418   21.0598 H   0  0  0  0  0  0  0  0  0  0  0  0
    4.8682    6.1992   21.9929 H   0  0  0  0  0  0  0  0  0  0  0  0
    6.6105    6.4581   21.7944 H   0  0  0  0  0  0  0  0  0  0  0  0
    8.2071    4.0308   22.1289 C   0  0  0  0  0  0  0  0  0  0  0  0
    8.0175    4.8195   21.3944 H   0  0  0  0  0  0  0  0  0  0  0  0
    9.1666    4.2893   22.6045 H   0  0  0  0  0  0  0  0  0  0  0  0
    8.3374    2.6672   21.4418 C   0  0  0  0  0  0  0  0  0  0  0  0
    7.4372    2.4569   20.8502 H   0  0  0  0  0  0  0  0  0  0  0  0
    9.1844    2.7242   20.7535 H   0  0  0  0  0  0  0  0  0  0  0  0
    5.3649    0.7155   20.2425 C   0  0  0  0  0  0  0  0  0  0  0  0
    4.8167    0.7585   21.1945 H   0  0  0  0  0  0  0  0  0  0  0  0
    4.8553    1.3450   19.1075 C   0  0  0  0  0  0  0  0  0  0  0  0
    3.9251    1.8991   19.1310 H   0  0  0  0  0  0  0  0  0  0  0  0
  1  2  1  0
  2  3  2  0
  3  4  1  0
  4  5  1  0
  4  6  2  0
  6  7  1  0
  7  8  2  0
  7  9  2  0
  7 10  1  0
 10 11  1  0
 11 12  1  0
 11 13  1  0
 11 14  1  0
 10 15  1  0
 15 16  1  0
 15 17  1  0
 15 18  1  0
 10 19  1  0
 19 20  1  0
 19 21  1  0
 21 22  1  0
 21 23  1  0
 21 24  1  0
 24 25  1  0
 24 26  1  0
 24 27  1  0
 27 28  1  0
 28 29  2  0
 28 30  1  0
 30 31  1  0
 30 32  1  0
 30 33  1  0
 27 34  1  0
 34 35  1  0
 34 36  1  0
 34 37  1  0
 37 38  1  0
 37 39  1  0
  6 40  1  0
 40 41  1  0
 40 42  2  0
 42 43  1  0
 42  2  1  0
 37 19  1  0
M  END
>  <cnnaffinity>  (1) 
-4.64684

>  <filename>  (1) 
CC(=O)N1CCC(C(C)(C)S(=O)(=O)c2cccnc2)CC1

$$$$
