
     RDKit          3D

 26 27  0  0  0  0  0  0  0  0999 V2000
    4.9971    1.7771   16.9882 H   0  0  0  0  0  0  0  0  0  0  0  0
    5.4383    1.2560   17.8366 C   0  0  0  0  0  0  0  0  0  0  0  0
    6.5895    0.6035   17.6057 N   0  0  0  0  0  0  0  0  0  0  0  0
    7.1464   -0.0381   18.6402 C   0  0  0  0  0  0  0  0  0  0  0  0
    8.0912   -0.5476   18.4393 H   0  0  0  0  0  0  0  0  0  0  0  0
    6.6128   -0.0755   19.9355 C   0  0  0  0  0  0  0  0  0  0  0  0
    7.3822   -0.7991   20.9962 C   0  0  0  0  0  0  0  0  0  0  0  0
    7.2783   -2.2488   21.0073 N   0  0  0  0  0  0  0  0  0  0  0  0
    7.3255   -2.5600   20.0351 H   0  0  0  0  0  0  0  0  0  0  0  0
    5.9811   -2.6790   21.4376 O   0  0  0  0  0  0  0  0  0  0  0  0
    5.8787   -3.9921   21.8477 C   0  0  0  0  0  0  0  0  0  0  0  0
    6.7230   -4.8343   21.7184 O   0  0  0  0  0  0  0  0  0  0  0  0
    4.5176   -4.1876   22.4538 C   0  0  0  0  0  0  0  0  0  0  0  0
    4.3009   -5.2574   22.4835 H   0  0  0  0  0  0  0  0  0  0  0  0
    3.7588   -3.6565   21.8847 H   0  0  0  0  0  0  0  0  0  0  0  0
    4.5251   -3.7776   23.4674 H   0  0  0  0  0  0  0  0  0  0  0  0
    8.7855   -0.3471   21.2960 C   0  0  0  0  0  0  0  0  0  0  0  0
    9.5001   -1.1243   21.5481 H   0  0  0  0  0  0  0  0  0  0  0  0
    9.2010    0.4960   20.7556 H   0  0  0  0  0  0  0  0  0  0  0  0
    7.6860   -0.0849   22.2826 C   0  0  0  0  0  0  0  0  0  0  0  0
    7.6776   -0.6763   23.1910 H   0  0  0  0  0  0  0  0  0  0  0  0
    7.3330    0.9447   22.3643 H   0  0  0  0  0  0  0  0  0  0  0  0
    5.4089    0.6152   20.1565 C   0  0  0  0  0  0  0  0  0  0  0  0
    4.9597    0.6210   21.1526 H   0  0  0  0  0  0  0  0  0  0  0  0
    4.8116    1.2879   19.0890 C   0  0  0  0  0  0  0  0  0  0  0  0
    3.8884    1.8455   19.2150 H   0  0  0  0  0  0  0  0  0  0  0  0
  1  2  1  0
  2  3  2  0
  3  4  1  0
  4  5  1  0
  4  6  2  0
  6  7  1  0
  7  8  1  0
  8  9  1  0
  8 10  1  0
 10 11  1  0
 11 12  2  0
 11 13  1  0
 13 14  1  0
 13 15  1  0
 13 16  1  0
  7 17  1  0
 17 18  1  0
 17 19  1  0
 17 20  1  0
 20 21  1  0
 20 22  1  0
  6 23  1  0
 23 24  1  0
 23 25  2  0
 25 26  1  0
 25  2  1  0
 20  7  1  0
M  END
>  <cnnaffinity>  (1) 
-4.09894

>  <filename>  (1) 
CC(=O)ONC1(c2cccnc2)CC1

$$$$
