
     RDKit          3D

 29 30  0  0  0  0  0  0  0  0999 V2000
    5.6587   -1.7027   21.5680 H   0  0  0  0  0  0  0  0  0  0  0  0
    6.7171   -1.5317   21.7704 C   0  0  0  0  0  0  0  0  0  0  0  0
    7.3913   -0.7056   20.9691 C   0  0  0  0  0  0  0  0  0  0  0  0
    6.6595    0.0189   19.8966 C   0  0  0  0  0  0  0  0  0  0  0  0
    7.1706    0.0792   18.5912 C   0  0  0  0  0  0  0  0  0  0  0  0
    8.1132   -0.4182   18.3751 H   0  0  0  0  0  0  0  0  0  0  0  0
    6.5613    0.6789   17.5611 N   0  0  0  0  0  0  0  0  0  0  0  0
    5.4014    1.2962   17.8311 C   0  0  0  0  0  0  0  0  0  0  0  0
    4.9132    1.7836   16.9910 H   0  0  0  0  0  0  0  0  0  0  0  0
    4.8035    1.3173   19.1010 C   0  0  0  0  0  0  0  0  0  0  0  0
    3.8677    1.8471   19.2561 H   0  0  0  0  0  0  0  0  0  0  0  0
    5.4329    0.6487   20.1489 C   0  0  0  0  0  0  0  0  0  0  0  0
    5.0135    0.6286   21.1617 H   0  0  0  0  0  0  0  0  0  0  0  0
    8.8750   -0.4660   21.0933 C   0  0  0  0  0  0  0  0  0  0  0  0
    9.4423   -1.2885   20.6439 H   0  0  0  0  0  0  0  0  0  0  0  0
    9.1740   -0.3956   22.1454 H   0  0  0  0  0  0  0  0  0  0  0  0
    9.1671    0.4618   20.5955 H   0  0  0  0  0  0  0  0  0  0  0  0
    7.3395   -2.3668   22.8515 C   0  0  2  0  0  0  0  0  0  0  0  0
    7.8935   -1.7098   23.5348 H   0  0  0  0  0  0  0  0  0  0  0  0
    8.3220   -3.4417   22.3354 C   0  0  0  0  0  0  0  0  0  0  0  0
    9.3691   -3.0983   22.3252 H   0  0  0  0  0  0  0  0  0  0  0  0
    8.0676   -3.7540   21.3101 H   0  0  0  0  0  0  0  0  0  0  0  0
    8.1922   -4.5594   23.1906 O   0  0  0  0  0  0  0  0  0  0  0  0
    7.1601   -4.3657   24.1456 C   0  0  0  0  0  0  0  0  0  0  0  0
    6.5747   -5.2912   24.2071 H   0  0  0  0  0  0  0  0  0  0  0  0
    7.5990   -4.1656   25.1349 H   0  0  0  0  0  0  0  0  0  0  0  0
    6.3320   -3.1874   23.6560 C   0  0  0  0  0  0  0  0  0  0  0  0
    5.5220   -3.5289   23.0032 H   0  0  0  0  0  0  0  0  0  0  0  0
    5.8904   -2.6185   24.4764 H   0  0  0  0  0  0  0  0  0  0  0  0
  1  2  1  0
  2  3  2  3
  3  4  1  0
  4  5  2  0
  5  6  1  0
  5  7  1  0
  7  8  2  0
  8  9  1  0
  8 10  1  0
 10 11  1  0
 10 12  2  0
 12 13  1  0
  3 14  1  0
 14 15  1  0
 14 16  1  0
 14 17  1  0
  2 18  1  0
 18 19  1  1
 18 20  1  0
 20 21  1  0
 20 22  1  0
 20 23  1  0
 23 24  1  0
 24 25  1  0
 24 26  1  0
 24 27  1  0
 27 28  1  0
 27 29  1  0
 12  4  1  0
 27 18  1  0
M  END
>  <cnnaffinity>  (1) 
-4.4593

>  <filename>  (1) 
CC(=C[C@H]1CCOC1)c1cccnc1

$$$$
