
     RDKit          3D

 35 37  0  0  0  0  0  0  0  0999 V2000
    4.9488    1.8343   16.9916 H   0  0  0  0  0  0  0  0  0  0  0  0
    5.3799    1.2906   17.8278 C   0  0  0  0  0  0  0  0  0  0  0  0
    6.5269    0.6464   17.5701 N   0  0  0  0  0  0  0  0  0  0  0  0
    7.1246    0.0304   18.5933 C   0  0  0  0  0  0  0  0  0  0  0  0
    8.0914   -0.4325   18.3984 H   0  0  0  0  0  0  0  0  0  0  0  0
    6.5980   -0.0199   19.8941 C   0  0  0  0  0  0  0  0  0  0  0  0
    7.3360   -0.7453   20.9767 C   0  0  0  0  0  0  0  0  0  0  0  0
    6.5895   -1.5191   21.7229 N   0  0  0  0  0  0  0  0  0  0  0  0
    7.1529   -2.1994   22.7702 N   0  0  0  0  0  0  0  0  0  0  0  0
    6.2593   -2.9921   23.5683 C   0  0  0  0  0  0  0  0  0  0  0  0
    5.2025   -3.6738   22.9457 C   0  0  0  0  0  0  0  0  0  0  0  0
    5.0841   -3.5228   21.8773 H   0  0  0  0  0  0  0  0  0  0  0  0
    4.3568   -4.4758   23.7193 C   0  0  0  0  0  0  0  0  0  0  0  0
    3.5415   -5.0206   23.2498 H   0  0  0  0  0  0  0  0  0  0  0  0
    4.5521   -4.5893   25.1021 C   0  0  0  0  0  0  0  0  0  0  0  0
    3.8841   -5.2164   25.6882 H   0  0  0  0  0  0  0  0  0  0  0  0
    5.6064   -3.9056   25.7305 C   0  0  0  0  0  0  0  0  0  0  0  0
    5.9478   -4.0490   27.1955 C   0  0  0  0  0  0  0  0  0  0  0  0
    6.9966   -3.6061   27.6156 O   0  0  0  0  0  0  0  0  0  0  0  0
    5.0187   -4.7918   28.1250 C   0  0  0  0  0  0  0  0  0  0  0  0
    5.0242   -5.8546   27.8559 H   0  0  0  0  0  0  0  0  0  0  0  0
    5.4060   -4.6694   29.1390 H   0  0  0  0  0  0  0  0  0  0  0  0
    3.9897   -4.4239   28.0654 H   0  0  0  0  0  0  0  0  0  0  0  0
    6.4504   -3.0978   24.9481 C   0  0  0  0  0  0  0  0  0  0  0  0
    7.2515   -2.5438   25.4290 H   0  0  0  0  0  0  0  0  0  0  0  0
    8.5046   -2.1431   23.0325 C   0  0  0  0  0  0  0  0  0  0  0  0
    8.8534   -2.7659   23.8596 H   0  0  0  0  0  0  0  0  0  0  0  0
    9.3441   -1.3913   22.2947 C   0  0  0  0  0  0  0  0  0  0  0  0
   10.4068   -1.3380   22.4870 H   0  0  0  0  0  0  0  0  0  0  0  0
    8.8336   -0.5781   21.1905 C   0  0  0  0  0  0  0  0  0  0  0  0
    9.5612    0.1505   20.5291 O   0  0  0  0  0  0  0  0  0  0  0  0
    5.3728    0.6207   20.1355 C   0  0  0  0  0  0  0  0  0  0  0  0
    4.9377    0.5975   21.1358 H   0  0  0  0  0  0  0  0  0  0  0  0
    4.7591    1.3068   19.0837 C   0  0  0  0  0  0  0  0  0  0  0  0
    3.8494    1.8877   19.2176 H   0  0  0  0  0  0  0  0  0  0  0  0
  1  2  1  0
  2  3  2  0
  3  4  1  0
  4  5  1  0
  4  6  2  0
  6  7  1  0
  7  8  2  0
  8  9  1  0
  9 10  1  0
 10 11  2  0
 11 12  1  0
 11 13  1  0
 13 14  1  0
 13 15  2  0
 15 16  1  0
 15 17  1  0
 17 18  1  0
 18 19  2  0
 18 20  1  0
 20 21  1  0
 20 22  1  0
 20 23  1  0
 17 24  2  0
 24 25  1  0
  9 26  1  0
 26 27  1  0
 26 28  2  0
 28 29  1  0
 28 30  1  0
 30 31  2  0
  6 32  1  0
 32 33  1  0
 32 34  2  0
 34 35  1  0
 34  2  1  0
 30  7  1  0
 24 10  1  0
M  END
>  <cnnaffinity>  (1) 
-5.20261

>  <filename>  (1) 
CC(=O)c1cccc(-n2ccc(=O)c(-c3cccnc3)n2)c1

$$$$
