
     RDKit          3D

 31 32  0  0  0  0  0  0  0  0999 V2000
    5.1216    1.8256   17.0710 H   0  0  0  0  0  0  0  0  0  0  0  0
    5.5360    1.1915   17.8561 C   0  0  0  0  0  0  0  0  0  0  0  0
    6.6521    0.5092   17.5487 N   0  0  0  0  0  0  0  0  0  0  0  0
    7.2089   -0.2414   18.5080 C   0  0  0  0  0  0  0  0  0  0  0  0
    8.1068   -0.8062   18.2471 H   0  0  0  0  0  0  0  0  0  0  0  0
    6.6939   -0.3286   19.8147 C   0  0  0  0  0  0  0  0  0  0  0  0
    7.4172   -1.0042   20.8522 N   0  0  0  0  0  0  0  0  0  0  0  0
    8.5957   -0.5763   21.4527 C   0  0  0  0  0  0  0  0  0  0  0  0
    9.2306    0.7304   21.0910 C   0  0  0  0  0  0  0  0  0  0  0  0
    9.6322    0.6395   20.0779 H   0  0  0  0  0  0  0  0  0  0  0  0
    8.4382    1.4873   21.0372 H   0  0  0  0  0  0  0  0  0  0  0  0
   10.3270    1.1887   22.0435 C   0  0  0  0  0  0  0  0  0  0  0  0
   10.6212    2.2126   21.7911 H   0  0  0  0  0  0  0  0  0  0  0  0
    9.9496    1.2320   23.0766 H   0  0  0  0  0  0  0  0  0  0  0  0
   11.4940    0.3252   21.9253 N   0  0  0  0  0  0  0  0  0  0  0  0
   11.3174   -0.6671   21.8338 H   0  0  0  0  0  0  0  0  0  0  0  0
   12.7144    0.7057   22.3969 C   0  0  0  0  0  0  0  0  0  0  0  0
   12.9448    1.8355   22.7862 O   0  0  0  0  0  0  0  0  0  0  0  0
   13.7845   -0.3613   22.3690 C   0  0  0  0  0  0  0  0  0  0  0  0
   14.4295   -0.1623   21.5105 H   0  0  0  0  0  0  0  0  0  0  0  0
   14.3874   -0.2688   23.2755 H   0  0  0  0  0  0  0  0  0  0  0  0
   13.3959   -1.3801   22.2915 H   0  0  0  0  0  0  0  0  0  0  0  0
    8.9661   -1.3956   22.3903 N   0  0  0  0  0  0  0  0  0  0  0  0
    7.9759   -2.3395   22.4097 N   0  0  0  0  0  0  0  0  0  0  0  0
    7.9063   -3.0474   23.1269 H   0  0  0  0  0  0  0  0  0  0  0  0
    6.9813   -2.1310   21.5263 C   0  0  0  0  0  0  0  0  0  0  0  0
    5.6042   -3.0444   21.3310 S   0  0  0  0  0  0  0  0  0  0  0  0
    5.4933    0.3207   20.1100 C   0  0  0  0  0  0  0  0  0  0  0  0
    5.0509    0.2099   21.1034 H   0  0  0  0  0  0  0  0  0  0  0  0
    4.9161    1.1148   19.1103 C   0  0  0  0  0  0  0  0  0  0  0  0
    4.0081    1.6798   19.2944 H   0  0  0  0  0  0  0  0  0  0  0  0
  1  2  1  0
  2  3  2  0
  3  4  1  0
  4  5  1  0
  4  6  2  0
  6  7  1  0
  7  8  1  0
  8  9  1  0
  9 10  1  0
  9 11  1  0
  9 12  1  0
 12 13  1  0
 12 14  1  0
 12 15  1  0
 15 16  1  0
 15 17  1  0
 17 18  2  0
 17 19  1  0
 19 20  1  0
 19 21  1  0
 19 22  1  0
  8 23  2  0
 23 24  1  0
 24 25  1  0
 24 26  1  0
 26 27  2  0
  6 28  1  0
 28 29  1  0
 28 30  2  0
 30 31  1  0
 30  2  1  0
 26  7  1  0
M  END
>  <cnnaffinity>  (1) 
-4.74745

>  <filename>  (1) 
CC(=O)NCCc1n[nH]c(=S)n1-c1cccnc1

$$$$
