
     RDKit          3D

 37 39  0  0  0  0  0  0  0  0999 V2000
    4.8926    1.8027   16.8506 H   0  0  0  0  0  0  0  0  0  0  0  0
    5.3543    1.4070   17.7536 C   0  0  0  0  0  0  0  0  0  0  0  0
    6.5635    0.8480   17.5978 N   0  0  0  0  0  0  0  0  0  0  0  0
    7.1539    0.3557   18.6925 C   0  0  0  0  0  0  0  0  0  0  0  0
    8.1530   -0.0554   18.5426 H   0  0  0  0  0  0  0  0  0  0  0  0
    6.5807    0.3643   19.9798 C   0  0  0  0  0  0  0  0  0  0  0  0
    7.2591   -0.4001   21.0686 C   0  0  0  0  0  0  0  0  0  0  0  0
    7.6416    0.4656   22.5361 S   0  0  0  0  0  0  0  0  0  0  0  0
    8.2537   -0.8068   23.5787 C   0  0  0  0  0  0  0  0  0  0  0  0
    8.4182   -0.4057   25.0039 C   0  0  0  0  0  0  0  0  0  0  0  0
    9.5938   -0.6654   25.7264 C   0  0  0  0  0  0  0  0  0  0  0  0
   10.4687   -1.0642   25.2192 H   0  0  0  0  0  0  0  0  0  0  0  0
    9.6294   -0.3941   27.0991 C   0  0  0  0  0  0  0  0  0  0  0  0
   10.5246   -0.5989   27.6659 H   0  0  0  0  0  0  0  0  0  0  0  0
    8.5222    0.1513   27.7526 C   0  0  0  0  0  0  0  0  0  0  0  0
    8.5607    0.3617   28.8192 H   0  0  0  0  0  0  0  0  0  0  0  0
    7.3865    0.4847   27.0122 C   0  0  0  0  0  0  0  0  0  0  0  0
    6.3112    1.1239   27.6498 N   0  0  0  0  0  0  0  0  0  0  0  0
    6.2475    1.0122   28.6447 H   0  0  0  0  0  0  0  0  0  0  0  0
    5.4897    2.0711   27.0991 C   0  0  0  0  0  0  0  0  0  0  0  0
    5.5812    2.4583   25.9531 O   0  0  0  0  0  0  0  0  0  0  0  0
    4.4554    2.6125   28.0576 C   0  0  0  0  0  0  0  0  0  0  0  0
    4.9072    3.3874   28.6822 H   0  0  0  0  0  0  0  0  0  0  0  0
    4.0389    1.8334   28.7010 H   0  0  0  0  0  0  0  0  0  0  0  0
    3.6589    3.0706   27.4729 H   0  0  0  0  0  0  0  0  0  0  0  0
    7.3234    0.1787   25.6537 C   0  0  0  0  0  0  0  0  0  0  0  0
    6.4136    0.3884   25.1110 H   0  0  0  0  0  0  0  0  0  0  0  0
    8.5106   -2.0636   23.1680 C   0  0  0  0  0  0  0  0  0  0  0  0
    8.9242   -2.7913   23.8576 H   0  0  0  0  0  0  0  0  0  0  0  0
    8.1942   -2.5994   21.8459 C   0  0  0  0  0  0  0  0  0  0  0  0
    8.4467   -3.7591   21.5498 O   0  0  0  0  0  0  0  0  0  0  0  0
    7.5501   -1.7021   20.8844 C   0  0  0  0  0  0  0  0  0  0  0  0
    7.2555   -2.1833   19.9640 H   0  0  0  0  0  0  0  0  0  0  0  0
    5.3289    0.9848   20.1287 C   0  0  0  0  0  0  0  0  0  0  0  0
    4.8636    1.0508   21.1140 H   0  0  0  0  0  0  0  0  0  0  0  0
    4.7001    1.4951   18.9878 C   0  0  0  0  0  0  0  0  0  0  0  0
    3.7233    1.9615   19.0434 H   0  0  0  0  0  0  0  0  0  0  0  0
  1  2  1  0
  2  3  2  0
  3  4  1  0
  4  5  1  0
  4  6  2  0
  6  7  1  0
  7  8  1  0
  8  9  1  0
  9 10  1  0
 10 11  2  0
 11 12  1  0
 11 13  1  0
 13 14  1  0
 13 15  2  0
 15 16  1  0
 15 17  1  0
 17 18  1  0
 18 19  1  0
 18 20  1  0
 20 21  2  0
 20 22  1  0
 22 23  1  0
 22 24  1  0
 22 25  1  0
 17 26  2  0
 26 27  1  0
  9 28  2  0
 28 29  1  0
 28 30  1  0
 30 31  2  0
 30 32  1  0
 32 33  1  0
  6 34  1  0
 34 35  1  0
 34 36  2  0
 36 37  1  0
 36  2  1  0
 32  7  2  0
 26 10  1  0
M  END
>  <cnnaffinity>  (1) 
-5.33348

>  <filename>  (1) 
CC(=O)Nc1cccc(-c2cc(=O)cc(-c3cccnc3)s2)c1

$$$$
