
     RDKit          3D

 53 56  0  0  0  0  0  0  0  0999 V2000
    3.7868   -5.0038   26.7349 C   0  0  0  0  0  0  0  0  0  0  0  0
    4.7774   -5.6401   25.7822 C   0  0  0  0  0  0  0  0  0  0  0  0
    4.7371   -6.8373   25.5471 O   0  0  0  0  0  0  0  0  0  0  0  0
    5.6850   -4.8078   25.1657 N   0  0  0  0  0  0  0  0  0  0  0  0
    6.5419   -5.3844   24.1240 C   0  0  0  0  0  0  0  0  0  0  0  0
    6.8150   -4.3715   23.0172 C   0  0  0  0  0  0  0  0  0  0  0  0
    7.4039   -3.0555   23.5803 C   0  0  0  0  0  0  0  0  0  0  0  0
    7.6506   -2.0439   22.4977 C   0  0  0  0  0  0  0  0  0  0  0  0
    6.7048   -1.6251   21.6733 N   0  0  0  0  0  0  0  0  0  0  0  0
    7.3464   -0.6918   20.9251 N   0  0  0  0  0  0  0  0  0  0  0  0
    6.6476   -0.0102   19.8930 C   0  0  0  0  0  0  0  0  0  0  0  0
    5.4348    0.6313   20.1583 C   0  0  0  0  0  0  0  0  0  0  0  0
    4.8072    1.3100   19.1082 C   0  0  0  0  0  0  0  0  0  0  0  0
    5.3948    1.2994   17.8365 C   0  0  0  0  0  0  0  0  0  0  0  0
    6.5462    0.6649   17.5698 N   0  0  0  0  0  0  0  0  0  0  0  0
    7.1542    0.0366   18.5823 C   0  0  0  0  0  0  0  0  0  0  0  0
    8.1014   -0.4463   18.3506 H   0  0  0  0  0  0  0  0  0  0  0  0
    4.9286    1.8090   16.9965 H   0  0  0  0  0  0  0  0  0  0  0  0
    3.8750    1.8445   19.2559 H   0  0  0  0  0  0  0  0  0  0  0  0
    5.0095    0.5949   21.1635 H   0  0  0  0  0  0  0  0  0  0  0  0
    8.6284   -0.5703   21.3697 C   0  0  0  0  0  0  0  0  0  0  0  0
    9.6300    0.4389   20.9075 C   0  0  0  0  0  0  0  0  0  0  0  0
    9.9237    1.4817   21.9606 C   0  0  0  0  0  0  0  0  0  0  0  0
    9.0774    2.4876   22.3738 C   0  0  0  0  0  0  0  0  0  0  0  0
    7.7403    2.8839   21.8300 C   0  0  0  0  0  0  0  0  0  0  0  0
    6.9252    2.2887   22.2577 H   0  0  0  0  0  0  0  0  0  0  0  0
    7.4982    3.9382   21.9852 H   0  0  0  0  0  0  0  0  0  0  0  0
    7.7385    2.6548   20.7646 H   0  0  0  0  0  0  0  0  0  0  0  0
    9.6644    3.0229   23.4745 N   0  0  0  0  0  0  0  0  0  0  0  0
   10.8161    2.4100   23.8279 N   0  0  0  0  0  0  0  0  0  0  0  0
   10.9713    1.4565   22.9171 C   0  0  0  0  0  0  0  0  0  0  0  0
   12.0625    0.4402   22.9790 C   0  0  0  0  0  0  0  0  0  0  0  0
   12.7497    0.6436   23.8065 H   0  0  0  0  0  0  0  0  0  0  0  0
   12.6147    0.4331   22.0320 H   0  0  0  0  0  0  0  0  0  0  0  0
   11.6065   -0.5528   23.1051 H   0  0  0  0  0  0  0  0  0  0  0  0
    9.3373    3.8172   24.0044 H   0  0  0  0  0  0  0  0  0  0  0  0
    9.2645    0.9065   19.9922 H   0  0  0  0  0  0  0  0  0  0  0  0
   10.5341   -0.1266   20.6578 H   0  0  0  0  0  0  0  0  0  0  0  0
    8.8567   -1.4425   22.3339 N   0  0  0  0  0  0  0  0  0  0  0  0
    6.4489   -2.5139   24.6825 C   0  0  0  0  0  0  0  0  0  0  0  0
    6.1726   -3.5625   25.7605 C   0  0  0  0  0  0  0  0  0  0  0  0
    5.4293   -3.1784   26.4658 H   0  0  0  0  0  0  0  0  0  0  0  0
    7.0970   -3.7502   26.3352 H   0  0  0  0  0  0  0  0  0  0  0  0
    6.8757   -1.6239   25.1626 H   0  0  0  0  0  0  0  0  0  0  0  0
    5.5030   -2.2153   24.2124 H   0  0  0  0  0  0  0  0  0  0  0  0
    8.4001   -3.2361   24.0128 H   0  0  0  0  0  0  0  0  0  0  0  0
    7.5043   -4.8249   22.2949 H   0  0  0  0  0  0  0  0  0  0  0  0
    5.8833   -4.1357   22.4798 H   0  0  0  0  0  0  0  0  0  0  0  0
    6.0271   -6.2630   23.7249 H   0  0  0  0  0  0  0  0  0  0  0  0
    7.4867   -5.7381   24.5717 H   0  0  0  0  0  0  0  0  0  0  0  0
    4.2592   -4.7316   27.6837 H   0  0  0  0  0  0  0  0  0  0  0  0
    3.3374   -4.1016   26.3101 H   0  0  0  0  0  0  0  0  0  0  0  0
    3.0162   -5.7508   26.9224 H   0  0  0  0  0  0  0  0  0  0  0  0
  1  2  1  0
  2  3  2  0
  2  4  1  0
  4  5  1  0
  5  6  1  0
  6  7  1  0
  7  8  1  0
  8  9  2  0
  9 10  1  0
 10 11  1  0
 11 12  2  0
 12 13  1  0
 13 14  2  0
 14 15  1  0
 15 16  2  0
 16 17  1  0
 14 18  1  0
 13 19  1  0
 12 20  1  0
 10 21  1  0
 21 22  1  0
 22 23  1  0
 23 24  2  0
 24 25  1  0
 25 26  1  0
 25 27  1  0
 25 28  1  0
 24 29  1  0
 29 30  1  0
 30 31  2  0
 31 32  1  0
 32 33  1  0
 32 34  1  0
 32 35  1  0
 29 36  1  0
 22 37  1  0
 22 38  1  0
 21 39  2  0
  7 40  1  0
 40 41  1  0
 41 42  1  0
 41 43  1  0
 40 44  1  0
 40 45  1  0
  7 46  1  0
  6 47  1  0
  6 48  1  0
  5 49  1  0
  5 50  1  0
  1 51  1  0
  1 52  1  0
  1 53  1  0
 41  4  1  0
 39  8  1  0
 16 11  1  0
 31 23  1  0
M  END
>  <cnnaffinity>  (1) 
-6.23407

>  <filename>  (1) 
CC(=O)N1CCC(c2nc(Cc3c(C)n[nH]c3C)n(-c3cccnc3)n2)CC1

$$$$
