
     RDKit          3D

 45 47  0  0  0  0  0  0  0  0999 V2000
   13.9815   -1.6981   20.1903 C   0  0  0  0  0  0  0  0  0  0  0  0
   12.8892   -1.6184   21.2050 C   0  0  0  0  0  0  0  0  0  0  0  0
   12.8991   -2.1766   22.2713 O   0  0  0  0  0  0  0  0  0  0  0  0
   11.9052   -0.7983   20.8122 O   0  0  0  0  0  0  0  0  0  0  0  0
   10.9242   -0.4591   21.7764 C   0  0  0  0  0  0  0  0  0  0  0  0
   10.1395    0.6723   21.1319 C   0  0  0  0  0  0  0  0  0  0  0  0
    8.9931    1.0094   22.0019 C   0  0  0  0  0  0  0  0  0  0  0  0
    9.0132    1.8035   23.0506 N   0  0  0  0  0  0  0  0  0  0  0  0
    7.8503    1.5012   23.6925 C   0  0  0  0  0  0  0  0  0  0  0  0
    7.4279    2.1497   24.9553 C   0  0  0  0  0  0  0  0  0  0  0  0
    8.2538    3.1029   25.5810 C   0  0  0  0  0  0  0  0  0  0  0  0
    7.8476    3.7013   26.7736 C   0  0  0  0  0  0  0  0  0  0  0  0
    6.6253    3.3851   27.3855 C   0  0  0  0  0  0  0  0  0  0  0  0
    6.1764    4.0322   28.6699 C   0  0  0  0  0  0  0  0  0  0  0  0
    5.3586    4.7398   28.4944 H   0  0  0  0  0  0  0  0  0  0  0  0
    5.8061    3.2876   29.3821 H   0  0  0  0  0  0  0  0  0  0  0  0
    6.9949    4.5781   29.1491 H   0  0  0  0  0  0  0  0  0  0  0  0
    5.8274    2.4293   26.7358 C   0  0  0  0  0  0  0  0  0  0  0  0
    4.6459    2.0929   27.2877 F   0  0  0  0  0  0  0  0  0  0  0  0
    6.1961    1.8080   25.5533 C   0  0  0  0  0  0  0  0  0  0  0  0
    5.5292    1.0666   25.1183 H   0  0  0  0  0  0  0  0  0  0  0  0
    8.4941    4.4350   27.2484 H   0  0  0  0  0  0  0  0  0  0  0  0
    9.2086    3.3730   25.1353 H   0  0  0  0  0  0  0  0  0  0  0  0
    7.1347    0.5627   23.0932 N   0  0  0  0  0  0  0  0  0  0  0  0
    7.8854    0.2356   22.0212 N   0  0  0  0  0  0  0  0  0  0  0  0
    7.3802   -0.6928   21.0153 C   0  0  0  0  0  0  0  0  0  0  0  0
    6.6662   -0.0026   19.8680 C   0  0  0  0  0  0  0  0  0  0  0  0
    5.4574    0.6602   20.1170 C   0  0  0  0  0  0  0  0  0  0  0  0
    4.8232    1.3152   19.0602 C   0  0  0  0  0  0  0  0  0  0  0  0
    5.4235    1.2932   17.7981 C   0  0  0  0  0  0  0  0  0  0  0  0
    6.5745    0.6548   17.5361 N   0  0  0  0  0  0  0  0  0  0  0  0
    7.1683    0.0251   18.5587 C   0  0  0  0  0  0  0  0  0  0  0  0
    8.0982   -0.4961   18.3173 H   0  0  0  0  0  0  0  0  0  0  0  0
    4.9599    1.8073   16.9581 H   0  0  0  0  0  0  0  0  0  0  0  0
    3.8882    1.8453   19.2045 H   0  0  0  0  0  0  0  0  0  0  0  0
    5.0417    0.6676   21.1280 H   0  0  0  0  0  0  0  0  0  0  0  0
    6.6883   -1.3432   21.5571 H   0  0  0  0  0  0  0  0  0  0  0  0
    8.2047   -1.3171   20.6487 H   0  0  0  0  0  0  0  0  0  0  0  0
    9.7723    0.3614   20.1490 H   0  0  0  0  0  0  0  0  0  0  0  0
   10.7957    1.5348   21.0011 H   0  0  0  0  0  0  0  0  0  0  0  0
   11.3987   -0.1331   22.7134 H   0  0  0  0  0  0  0  0  0  0  0  0
   10.3040   -1.3367   22.0044 H   0  0  0  0  0  0  0  0  0  0  0  0
   14.3005   -2.7346   20.0828 H   0  0  0  0  0  0  0  0  0  0  0  0
   14.8217   -1.1139   20.5638 H   0  0  0  0  0  0  0  0  0  0  0  0
   13.6607   -1.2591   19.2510 H   0  0  0  0  0  0  0  0  0  0  0  0
  1  2  1  0
  2  3  2  0
  2  4  1  0
  4  5  1  0
  5  6  1  0
  6  7  1  0
  7  8  2  0
  8  9  1  0
  9 10  1  0
 10 11  2  0
 11 12  1  0
 12 13  2  0
 13 14  1  0
 14 15  1  0
 14 16  1  0
 14 17  1  0
 13 18  1  0
 18 19  1  0
 18 20  2  0
 20 21  1  0
 12 22  1  0
 11 23  1  0
  9 24  2  0
 24 25  1  0
 25 26  1  0
 26 27  1  0
 27 28  2  0
 28 29  1  0
 29 30  2  0
 30 31  1  0
 31 32  2  0
 32 33  1  0
 30 34  1  0
 29 35  1  0
 28 36  1  0
 26 37  1  0
 26 38  1  0
  6 39  1  0
  6 40  1  0
  5 41  1  0
  5 42  1  0
  1 43  1  0
  1 44  1  0
  1 45  1  0
 25  7  1  0
 32 27  1  0
 20 10  1  0
M  END
>  <cnnaffinity>  (1) 
-5.90761

>  <filename>  (1) 
CC(=O)OCCc1nc(-c2ccc(C)c(F)c2)nn1Cc1cccnc1

$$$$
