
     RDKit          3D

 36 36  0  0  0  0  0  0  0  0999 V2000
    5.2180    1.8154   17.0315 H   0  0  0  0  0  0  0  0  0  0  0  0
    5.6066    1.2662   17.8892 C   0  0  0  0  0  0  0  0  0  0  0  0
    6.7240    0.5520   17.6845 N   0  0  0  0  0  0  0  0  0  0  0  0
    7.2350   -0.1259   18.7106 C   0  0  0  0  0  0  0  0  0  0  0  0
    8.1347   -0.7121   18.5264 H   0  0  0  0  0  0  0  0  0  0  0  0
    6.6452   -0.1071   19.9626 C   0  0  0  0  0  0  0  0  0  0  0  0
    7.4441   -1.0504   21.1913 S   0  0  0  0  0  0  0  0  0  0  0  0
    6.3881   -1.6276   22.0162 O   0  0  0  0  0  0  0  0  0  0  0  0
    8.4180   -1.9153   20.5317 O   0  0  0  0  0  0  0  0  0  0  0  0
    8.4388    0.1977   22.2035 C   0  0  0  0  0  0  0  0  0  0  0  0
    7.4960    1.2676   22.7842 C   0  0  0  0  0  0  0  0  0  0  0  0
    7.1177    1.9406   22.0054 H   0  0  0  0  0  0  0  0  0  0  0  0
    8.0315    1.8960   23.5066 H   0  0  0  0  0  0  0  0  0  0  0  0
    6.6445    0.8230   23.3105 H   0  0  0  0  0  0  0  0  0  0  0  0
    9.0622   -0.6405   23.3375 C   0  0  0  0  0  0  0  0  0  0  0  0
    9.6211   -0.0007   24.0323 H   0  0  0  0  0  0  0  0  0  0  0  0
    8.2888   -1.1575   23.9166 H   0  0  0  0  0  0  0  0  0  0  0  0
    9.7485   -1.3964   22.9394 H   0  0  0  0  0  0  0  0  0  0  0  0
    9.5364    0.8604   21.3061 C   0  0  0  0  0  0  0  0  0  0  0  0
    9.0361    1.4919   20.5591 H   0  0  0  0  0  0  0  0  0  0  0  0
   10.0782    0.0830   20.7556 H   0  0  0  0  0  0  0  0  0  0  0  0
   10.5564    1.6989   22.0862 C   0  0  0  0  0  0  0  0  0  0  0  0
   10.0645    2.2412   22.9067 H   0  0  0  0  0  0  0  0  0  0  0  0
   11.2933    1.0368   22.5548 H   0  0  0  0  0  0  0  0  0  0  0  0
   11.2987    2.6347   21.2477 N   0  0  0  0  0  0  0  0  0  0  0  0
   10.8615    2.9802   20.4041 H   0  0  0  0  0  0  0  0  0  0  0  0
   12.1630    3.5112   21.8624 C   0  0  0  0  0  0  0  0  0  0  0  0
   12.4113    3.4674   23.0539 O   0  0  0  0  0  0  0  0  0  0  0  0
   12.8080    4.5347   20.9545 C   0  0  0  0  0  0  0  0  0  0  0  0
   12.1949    4.7844   20.0871 H   0  0  0  0  0  0  0  0  0  0  0  0
   13.7804    4.1928   20.5864 H   0  0  0  0  0  0  0  0  0  0  0  0
   12.9878    5.4225   21.5624 H   0  0  0  0  0  0  0  0  0  0  0  0
    5.4685    0.6070   20.1995 C   0  0  0  0  0  0  0  0  0  0  0  0
    4.9683    0.5999   21.1727 H   0  0  0  0  0  0  0  0  0  0  0  0
    4.9523    1.3239   19.1244 C   0  0  0  0  0  0  0  0  0  0  0  0
    4.0557    1.9222   19.2286 H   0  0  0  0  0  0  0  0  0  0  0  0
  1  2  1  0
  2  3  2  0
  3  4  1  0
  4  5  1  0
  4  6  2  0
  6  7  1  0
  7  8  2  0
  7  9  2  0
  7 10  1  0
 10 11  1  0
 11 12  1  0
 11 13  1  0
 11 14  1  0
 10 15  1  0
 15 16  1  0
 15 17  1  0
 15 18  1  0
 10 19  1  0
 19 20  1  0
 19 21  1  0
 19 22  1  0
 22 23  1  0
 22 24  1  0
 22 25  1  0
 25 26  1  0
 25 27  1  0
 27 28  2  0
 27 29  1  0
 29 30  1  0
 29 31  1  0
 29 32  1  0
  6 33  1  0
 33 34  1  0
 33 35  2  0
 35 36  1  0
 35  2  1  0
M  END
>  <cnnaffinity>  (1) 
-4.90724

>  <filename>  (1) 
CC(=O)NCCC(C)(C)S(=O)(=O)c1cccnc1

$$$$
