
     RDKit          3D

 30 31  0  0  0  0  0  0  0  0999 V2000
    4.9310    1.7826   16.9934 H   0  0  0  0  0  0  0  0  0  0  0  0
    5.4044    1.2909   17.8406 C   0  0  0  0  0  0  0  0  0  0  0  0
    6.5685    0.6737   17.5883 N   0  0  0  0  0  0  0  0  0  0  0  0
    7.1686    0.0507   18.6026 C   0  0  0  0  0  0  0  0  0  0  0  0
    8.1114   -0.4420   18.3765 H   0  0  0  0  0  0  0  0  0  0  0  0
    6.6504    0.0200   19.9043 C   0  0  0  0  0  0  0  0  0  0  0  0
    7.4089   -0.7498   20.9326 C   0  0  0  0  0  0  0  0  0  0  0  0
    7.9976   -1.7684   20.6280 O   0  0  0  0  0  0  0  0  0  0  0  0
    7.4067   -0.2273   22.3612 C   0  0  0  0  0  0  0  0  0  0  0  0
    7.4752   -1.1664   23.4096 C   0  0  0  0  0  0  0  0  0  0  0  0
    7.5278   -2.2272   23.1737 H   0  0  0  0  0  0  0  0  0  0  0  0
    7.4895   -0.7343   24.7332 C   0  0  0  0  0  0  0  0  0  0  0  0
    7.5556   -1.4611   25.5359 H   0  0  0  0  0  0  0  0  0  0  0  0
    7.4566    0.6264   25.0454 C   0  0  0  0  0  0  0  0  0  0  0  0
    7.4741    0.9658   26.0739 H   0  0  0  0  0  0  0  0  0  0  0  0
    7.4139    1.5748   24.0163 C   0  0  0  0  0  0  0  0  0  0  0  0
    7.3743    2.9576   24.3235 N   0  0  0  0  0  0  0  0  0  0  0  0
    6.9072    3.5621   23.6702 H   0  0  0  0  0  0  0  0  0  0  0  0
    8.0355    3.5563   25.3708 C   0  0  0  0  0  0  0  0  0  0  0  0
    8.8599    2.9695   26.0438 O   0  0  0  0  0  0  0  0  0  0  0  0
    7.6881    5.0116   25.6400 C   0  0  0  0  0  0  0  0  0  0  0  0
    6.6271    5.2598   25.5232 H   0  0  0  0  0  0  0  0  0  0  0  0
    8.2796    5.6785   25.0060 H   0  0  0  0  0  0  0  0  0  0  0  0
    7.9875    5.2089   26.6693 H   0  0  0  0  0  0  0  0  0  0  0  0
    7.3673    1.1499   22.6809 C   0  0  0  0  0  0  0  0  0  0  0  0
    7.3156    1.9043   21.8970 H   0  0  0  0  0  0  0  0  0  0  0  0
    5.4292    0.6605   20.1613 C   0  0  0  0  0  0  0  0  0  0  0  0
    4.9882    0.6491   21.1637 H   0  0  0  0  0  0  0  0  0  0  0  0
    4.8002    1.3092   19.1017 C   0  0  0  0  0  0  0  0  0  0  0  0
    3.8700    1.8437   19.2463 H   0  0  0  0  0  0  0  0  0  0  0  0
  1  2  1  0
  2  3  2  0
  3  4  1  0
  4  5  1  0
  4  6  2  0
  6  7  1  0
  7  8  2  0
  7  9  1  0
  9 10  2  0
 10 11  1  0
 10 12  1  0
 12 13  1  0
 12 14  2  0
 14 15  1  0
 14 16  1  0
 16 17  1  0
 17 18  1  0
 17 19  1  0
 19 20  2  0
 19 21  1  0
 21 22  1  0
 21 23  1  0
 21 24  1  0
 16 25  2  0
 25 26  1  0
  6 27  1  0
 27 28  1  0
 27 29  2  0
 29 30  1  0
 29  2  1  0
 25  9  1  0
M  END
>  <cnnaffinity>  (1) 
-4.47181

>  <filename>  (1) 
CC(=O)Nc1cccc(C(=O)c2cccnc2)c1

$$$$
