
     RDKit          3D

 44 46  0  0  0  0  0  0  0  0999 V2000
    6.0707   -6.1350   19.9935 C   0  0  0  0  0  0  0  0  0  0  0  0
    5.8122   -4.6781   20.2349 C   0  0  0  0  0  0  0  0  0  0  0  0
    5.4732   -3.9439   19.3201 O   0  0  0  0  0  0  0  0  0  0  0  0
    5.9574   -4.2385   21.5373 N   0  0  0  0  0  0  0  0  0  0  0  0
    6.4090   -5.1022   22.6272 C   0  0  0  0  0  0  0  0  0  0  0  0
    5.6565   -5.8576   22.8969 H   0  0  0  0  0  0  0  0  0  0  0  0
    6.6203   -4.4895   23.5065 H   0  0  0  0  0  0  0  0  0  0  0  0
    7.3483   -5.6025   22.3688 H   0  0  0  0  0  0  0  0  0  0  0  0
    5.5403   -2.8781   21.8993 C   0  0  0  0  0  0  0  0  0  0  0  0
    6.6398   -1.9450   22.2890 C   0  0  0  0  0  0  0  0  0  0  0  0
    7.4552   -2.1556   23.3020 N   0  0  0  0  0  0  0  0  0  0  0  0
    8.3836   -1.1780   23.1600 C   0  0  0  0  0  0  0  0  0  0  0  0
    9.6800   -1.3221   23.9145 C   0  0  0  0  0  0  0  0  0  0  0  0
   10.5259   -0.0271   23.9383 C   0  0  0  0  0  0  0  0  0  0  0  0
   11.1784    0.2711   22.6073 C   0  0  0  0  0  0  0  0  0  0  0  0
   11.3518   -0.6691   21.6795 C   0  0  0  0  0  0  0  0  0  0  0  0
   11.0458   -2.1289   21.8980 C   0  0  0  0  0  0  0  0  0  0  0  0
   10.4491   -2.5058   23.2662 C   0  0  0  0  0  0  0  0  0  0  0  0
    9.7636   -3.3558   23.1452 H   0  0  0  0  0  0  0  0  0  0  0  0
   11.2097   -2.8820   23.9518 H   0  0  0  0  0  0  0  0  0  0  0  0
   11.9901   -2.6628   21.7885 H   0  0  0  0  0  0  0  0  0  0  0  0
   10.3899   -2.4661   21.0854 H   0  0  0  0  0  0  0  0  0  0  0  0
   11.6945   -0.4177   20.6768 H   0  0  0  0  0  0  0  0  0  0  0  0
   11.5029    1.2960   22.4158 H   0  0  0  0  0  0  0  0  0  0  0  0
    9.9135    0.8299   24.2411 H   0  0  0  0  0  0  0  0  0  0  0  0
   11.3034   -0.1227   24.7118 H   0  0  0  0  0  0  0  0  0  0  0  0
    9.3947   -1.6002   24.9313 H   0  0  0  0  0  0  0  0  0  0  0  0
    8.1531   -0.3398   22.1730 N   0  0  0  0  0  0  0  0  0  0  0  0
    7.0028   -0.8122   21.6189 N   0  0  0  0  0  0  0  0  0  0  0  0
    6.5578   -0.2248   20.3897 C   0  0  0  0  0  0  0  0  0  0  0  0
    5.2933    0.3558   20.2280 C   0  0  0  0  0  0  0  0  0  0  0  0
    5.0271    1.0104   19.0201 C   0  0  0  0  0  0  0  0  0  0  0  0
    6.0126    1.0320   18.0288 C   0  0  0  0  0  0  0  0  0  0  0  0
    7.2094    0.4404   18.1585 N   0  0  0  0  0  0  0  0  0  0  0  0
    7.4708   -0.1590   19.3223 C   0  0  0  0  0  0  0  0  0  0  0  0
    8.4530   -0.6070   19.4317 H   0  0  0  0  0  0  0  0  0  0  0  0
    5.8391    1.5319   17.0829 H   0  0  0  0  0  0  0  0  0  0  0  0
    4.0822    1.5109   18.8366 H   0  0  0  0  0  0  0  0  0  0  0  0
    4.5530    0.3276   21.0282 H   0  0  0  0  0  0  0  0  0  0  0  0
    4.8591   -2.9388   22.7583 H   0  0  0  0  0  0  0  0  0  0  0  0
    5.0400   -2.4520   21.0462 H   0  0  0  0  0  0  0  0  0  0  0  0
    5.3903   -6.7446   20.5934 H   0  0  0  0  0  0  0  0  0  0  0  0
    7.0910   -6.3940   20.2825 H   0  0  0  0  0  0  0  0  0  0  0  0
    5.9194   -6.3472   18.9375 H   0  0  0  0  0  0  0  0  0  0  0  0
  1  2  1  0
  2  3  2  0
  2  4  1  0
  4  5  1  0
  5  6  1  0
  5  7  1  0
  5  8  1  0
  4  9  1  0
  9 10  1  0
 10 11  2  0
 11 12  1  0
 12 13  1  0
 13 14  1  0
 14 15  1  0
 15 16  2  0
 16 17  1  0
 17 18  1  0
 18 19  1  0
 18 20  1  0
 17 21  1  0
 17 22  1  0
 16 23  1  0
 15 24  1  0
 14 25  1  0
 14 26  1  0
 13 27  1  0
 12 28  2  0
 28 29  1  0
 29 30  1  0
 30 31  2  0
 31 32  1  0
 32 33  2  0
 33 34  1  0
 34 35  2  0
 35 36  1  0
 33 37  1  0
 32 38  1  0
 31 39  1  0
  9 40  1  0
  9 41  1  0
  1 42  1  0
  1 43  1  0
  1 44  1  0
 29 10  1  0
 35 30  1  0
 18 13  1  0
M  END
>  <cnnaffinity>  (1) 
-6.24284

>  <filename>  (1) 
CC(=O)N(C)Cc1nc(C2CC=CCC2)nn1-c1cccnc1

$$$$
