
     RDKit          3D

 37 39  0  0  0  0  0  0  0  0999 V2000
    7.0727    1.7365   22.1213 H   0  0  0  0  0  0  0  0  0  0  0  0
    7.3255    0.9275   22.8126 C   0  0  0  0  0  0  0  0  0  0  0  0
    7.5441   -0.3074   22.3315 C   0  0  0  0  0  0  0  0  0  0  0  0
    7.3782   -0.7685   20.9369 C   0  0  0  0  0  0  0  0  0  0  0  0
    6.6366   -0.0008   19.9063 C   0  0  0  0  0  0  0  0  0  0  0  0
    7.1548    0.0259   18.6046 C   0  0  0  0  0  0  0  0  0  0  0  0
    8.0921   -0.4752   18.3763 H   0  0  0  0  0  0  0  0  0  0  0  0
    6.5726    0.6643   17.5848 N   0  0  0  0  0  0  0  0  0  0  0  0
    5.4158    1.3011   17.8307 C   0  0  0  0  0  0  0  0  0  0  0  0
    4.9576    1.8145   16.9875 H   0  0  0  0  0  0  0  0  0  0  0  0
    4.7954    1.3152   19.0852 C   0  0  0  0  0  0  0  0  0  0  0  0
    3.8597    1.8509   19.2214 H   0  0  0  0  0  0  0  0  0  0  0  0
    5.4243    0.6649   20.1483 C   0  0  0  0  0  0  0  0  0  0  0  0
    4.9915    0.6832   21.1514 H   0  0  0  0  0  0  0  0  0  0  0  0
    7.9521   -1.8857   20.6863 N   0  0  0  0  0  0  0  0  0  0  0  0
    8.5507   -2.4187   21.9111 C   0  0  0  0  0  0  0  0  0  0  0  0
    8.1737   -3.4312   22.0731 H   0  0  0  0  0  0  0  0  0  0  0  0
    9.6283   -2.5085   21.7544 H   0  0  0  0  0  0  0  0  0  0  0  0
    8.1939   -1.4575   23.0720 C   0  0  0  0  0  0  0  0  0  0  0  0
    7.4831   -1.9258   23.7606 H   0  0  0  0  0  0  0  0  0  0  0  0
    9.0563   -1.1173   23.6540 H   0  0  0  0  0  0  0  0  0  0  0  0
    7.5062    1.3587   24.2126 C   0  0  0  0  0  0  0  0  0  0  0  0
    7.0586    0.6053   25.3090 C   0  0  0  0  0  0  0  0  0  0  0  0
    6.4918   -0.3036   25.1286 H   0  0  0  0  0  0  0  0  0  0  0  0
    7.3173    1.0349   26.6140 C   0  0  0  0  0  0  0  0  0  0  0  0
    6.9717    0.4325   27.4514 H   0  0  0  0  0  0  0  0  0  0  0  0
    8.0060    2.2277   26.8437 C   0  0  0  0  0  0  0  0  0  0  0  0
    8.2140    2.5362   27.8644 H   0  0  0  0  0  0  0  0  0  0  0  0
    8.4343    3.0261   25.7530 C   0  0  0  0  0  0  0  0  0  0  0  0
    9.0618    4.3864   25.9869 C   0  0  0  0  0  0  0  0  0  0  0  0
    9.0032    4.9244   27.0758 O   0  0  0  0  0  0  0  0  0  0  0  0
    9.7359    5.1095   24.8320 C   0  0  0  0  0  0  0  0  0  0  0  0
   10.2846    5.9765   25.2081 H   0  0  0  0  0  0  0  0  0  0  0  0
   10.4089    4.4801   24.2441 H   0  0  0  0  0  0  0  0  0  0  0  0
    8.9601    5.4668   24.1486 H   0  0  0  0  0  0  0  0  0  0  0  0
    8.1855    2.5628   24.4547 C   0  0  0  0  0  0  0  0  0  0  0  0
    8.5404    3.1220   23.5906 H   0  0  0  0  0  0  0  0  0  0  0  0
  1  2  1  0
  2  3  2  3
  3  4  1  0
  4  5  1  0
  5  6  2  0
  6  7  1  0
  6  8  1  0
  8  9  2  0
  9 10  1  0
  9 11  1  0
 11 12  1  0
 11 13  2  0
 13 14  1  0
  4 15  2  0
 15 16  1  0
 16 17  1  0
 16 18  1  0
 16 19  1  0
 19 20  1  0
 19 21  1  0
  2 22  1  0
 22 23  2  0
 23 24  1  0
 23 25  1  0
 25 26  1  0
 25 27  2  0
 27 28  1  0
 27 29  1  0
 29 30  1  0
 30 31  2  0
 30 32  1  0
 32 33  1  0
 32 34  1  0
 32 35  1  0
 29 36  2  0
 36 37  1  0
 19  3  1  0
 36 22  1  0
 13  5  1  0
M  END
>  <cnnaffinity>  (1) 
-5.27942

>  <filename>  (1) 
CC(=O)c1cccc(C=C2CCN=C2c2cccnc2)c1

$$$$
