
     RDKit          3D

 39 41  0  0  0  0  0  0  0  0999 V2000
    6.5798   -1.1496   21.7989 H   0  0  0  0  0  0  0  0  0  0  0  0
    7.2220   -0.6218   21.0889 C   0  0  0  0  0  0  0  0  0  0  0  0
    8.5261   -0.4451   21.3811 C   0  0  0  0  0  0  0  0  0  0  0  0
    9.3273   -1.0834   22.4526 C   0  0  0  0  0  0  0  0  0  0  0  0
    8.8565   -2.2669   23.2406 C   0  0  0  0  0  0  0  0  0  0  0  0
    9.1271   -2.3580   24.6180 C   0  0  0  0  0  0  0  0  0  0  0  0
    9.7079   -1.5731   25.0990 H   0  0  0  0  0  0  0  0  0  0  0  0
    8.6908   -3.4659   25.3501 C   0  0  0  0  0  0  0  0  0  0  0  0
    8.8934   -3.5248   26.4196 H   0  0  0  0  0  0  0  0  0  0  0  0
    8.0018   -4.5032   24.7065 C   0  0  0  0  0  0  0  0  0  0  0  0
    7.6626   -5.3727   25.2583 H   0  0  0  0  0  0  0  0  0  0  0  0
    7.7227   -4.4207   23.3368 C   0  0  0  0  0  0  0  0  0  0  0  0
    6.9679   -5.4292   22.6697 N   0  0  0  0  0  0  0  0  0  0  0  0
    6.0357   -5.1967   22.3941 H   0  0  0  0  0  0  0  0  0  0  0  0
    7.3435   -6.7435   22.5442 C   0  0  0  0  0  0  0  0  0  0  0  0
    8.4809   -7.1270   22.7245 O   0  0  0  0  0  0  0  0  0  0  0  0
    6.2074   -7.6748   22.2029 C   0  0  0  0  0  0  0  0  0  0  0  0
    6.6262   -8.6261   21.8788 H   0  0  0  0  0  0  0  0  0  0  0  0
    5.5616   -7.2767   21.4165 H   0  0  0  0  0  0  0  0  0  0  0  0
    5.6007   -7.8322   23.1055 H   0  0  0  0  0  0  0  0  0  0  0  0
    8.1425   -3.3067   22.6143 C   0  0  0  0  0  0  0  0  0  0  0  0
    7.9161   -3.2569   21.5555 H   0  0  0  0  0  0  0  0  0  0  0  0
   10.4858   -0.5558   22.6245 N   0  0  0  0  0  0  0  0  0  0  0  0
   10.6738    0.5378   21.6695 C   0  0  0  0  0  0  0  0  0  0  0  0
   11.6219    0.3922   21.1442 H   0  0  0  0  0  0  0  0  0  0  0  0
   10.7623    1.4685   22.2355 H   0  0  0  0  0  0  0  0  0  0  0  0
    9.4336    0.5762   20.7372 C   0  0  0  0  0  0  0  0  0  0  0  0
    9.6588    0.2742   19.7121 H   0  0  0  0  0  0  0  0  0  0  0  0
    8.9546    1.5604   20.7025 H   0  0  0  0  0  0  0  0  0  0  0  0
    6.5282   -0.0350   19.9245 C   0  0  0  0  0  0  0  0  0  0  0  0
    7.0943   -0.0086   18.6323 C   0  0  0  0  0  0  0  0  0  0  0  0
    8.0099   -0.5640   18.4362 H   0  0  0  0  0  0  0  0  0  0  0  0
    6.5720    0.6460   17.5861 N   0  0  0  0  0  0  0  0  0  0  0  0
    5.4213    1.3029   17.7906 C   0  0  0  0  0  0  0  0  0  0  0  0
    5.0226    1.8424   16.9334 H   0  0  0  0  0  0  0  0  0  0  0  0
    4.7315    1.2880   19.0095 C   0  0  0  0  0  0  0  0  0  0  0  0
    3.7986    1.8322   19.0997 H   0  0  0  0  0  0  0  0  0  0  0  0
    5.2792    0.5882   20.0862 C   0  0  0  0  0  0  0  0  0  0  0  0
    4.7774    0.5507   21.0547 H   0  0  0  0  0  0  0  0  0  0  0  0
  1  2  1  0
  2  3  2  3
  3  4  1  0
  4  5  1  0
  5  6  2  0
  6  7  1  0
  6  8  1  0
  8  9  1  0
  8 10  2  0
 10 11  1  0
 10 12  1  0
 12 13  1  0
 13 14  1  0
 13 15  1  0
 15 16  2  0
 15 17  1  0
 17 18  1  0
 17 19  1  0
 17 20  1  0
 12 21  2  0
 21 22  1  0
  4 23  2  0
 23 24  1  0
 24 25  1  0
 24 26  1  0
 24 27  1  0
 27 28  1  0
 27 29  1  0
  2 30  1  0
 30 31  2  0
 31 32  1  0
 31 33  1  0
 33 34  2  0
 34 35  1  0
 34 36  1  0
 36 37  1  0
 36 38  2  0
 38 39  1  0
 27  3  1  0
 38 30  1  0
 21  5  1  0
M  END
>  <cnnaffinity>  (1) 
-5.5016

>  <filename>  (1) 
CC(=O)Nc1cccc(C2=NCCC2=Cc2cccnc2)c1

$$$$
