
     RDKit          3D

 39 41  0  0  0  0  0  0  0  0999 V2000
    4.9259    1.8151   16.9872 H   0  0  0  0  0  0  0  0  0  0  0  0
    5.3940    1.3020   17.8241 C   0  0  0  0  0  0  0  0  0  0  0  0
    6.5569    0.6836   17.5568 N   0  0  0  0  0  0  0  0  0  0  0  0
    7.1652    0.0525   18.5730 C   0  0  0  0  0  0  0  0  0  0  0  0
    8.1158   -0.4299   18.3505 H   0  0  0  0  0  0  0  0  0  0  0  0
    6.6533   -0.0235   19.8931 C   0  0  0  0  0  0  0  0  0  0  0  0
    7.2910   -0.7455   20.9150 N   0  0  0  0  0  0  0  0  0  0  0  0
    6.7180   -0.9908   21.7148 H   0  0  0  0  0  0  0  0  0  0  0  0
    8.6841   -0.7728   21.1576 C   0  0  0  0  0  0  0  0  0  0  0  0
    9.6886    0.1304   20.7129 C   0  0  0  0  0  0  0  0  0  0  0  0
    9.5760    0.9990   20.0712 H   0  0  0  0  0  0  0  0  0  0  0  0
   10.8967   -0.2028   21.1498 N   0  0  0  0  0  0  0  0  0  0  0  0
   10.6861   -1.3162   21.8783 N   0  0  0  0  0  0  0  0  0  0  0  0
   11.4611   -1.8087   22.2951 H   0  0  0  0  0  0  0  0  0  0  0  0
    9.3833   -1.7170   21.9118 C   0  0  0  0  0  0  0  0  0  0  0  0
    9.0238   -2.9111   22.5224 N   0  0  0  0  0  0  0  0  0  0  0  0
    7.9908   -3.7679   21.9414 C   0  0  0  0  0  0  0  0  0  0  0  0
    7.6160   -3.2974   21.0316 H   0  0  0  0  0  0  0  0  0  0  0  0
    8.4306   -4.7414   21.6672 H   0  0  0  0  0  0  0  0  0  0  0  0
    6.8214   -4.0422   22.8987 C   0  0  0  0  0  0  0  0  0  0  0  0
    6.1518   -3.1783   23.0187 H   0  0  0  0  0  0  0  0  0  0  0  0
    6.2061   -4.8517   22.4805 H   0  0  0  0  0  0  0  0  0  0  0  0
    7.2962   -4.4563   24.2360 N   0  0  0  0  0  0  0  0  0  0  0  0
    6.3466   -4.9015   25.1230 C   0  0  0  0  0  0  0  0  0  0  0  0
    5.1540   -4.7717   24.8922 O   0  0  0  0  0  0  0  0  0  0  0  0
    6.8291   -5.5840   26.3834 C   0  0  0  0  0  0  0  0  0  0  0  0
    5.9648   -6.0889   26.8104 H   0  0  0  0  0  0  0  0  0  0  0  0
    7.6254   -6.3047   26.1813 H   0  0  0  0  0  0  0  0  0  0  0  0
    7.2146   -4.8577   27.1052 H   0  0  0  0  0  0  0  0  0  0  0  0
    8.7398   -4.3829   24.5076 C   0  0  0  0  0  0  0  0  0  0  0  0
    9.2532   -5.2536   24.0701 H   0  0  0  0  0  0  0  0  0  0  0  0
    8.9097   -4.3963   25.5881 H   0  0  0  0  0  0  0  0  0  0  0  0
    9.3885   -3.1128   23.9251 C   0  0  0  0  0  0  0  0  0  0  0  0
   10.4798   -3.2278   24.0063 H   0  0  0  0  0  0  0  0  0  0  0  0
    9.1063   -2.2190   24.5034 H   0  0  0  0  0  0  0  0  0  0  0  0
    5.4384    0.6279   20.1455 C   0  0  0  0  0  0  0  0  0  0  0  0
    5.0286    0.6157   21.1547 H   0  0  0  0  0  0  0  0  0  0  0  0
    4.8043    1.3031   19.0964 C   0  0  0  0  0  0  0  0  0  0  0  0
    3.8735    1.8400   19.2532 H   0  0  0  0  0  0  0  0  0  0  0  0
  1  2  1  0
  2  3  2  0
  3  4  1  0
  4  5  1  0
  4  6  2  0
  6  7  1  0
  7  8  1  0
  7  9  1  0
  9 10  1  0
 10 11  1  0
 10 12  2  0
 12 13  1  0
 13 14  1  0
 13 15  1  0
 15 16  1  0
 16 17  1  0
 17 18  1  0
 17 19  1  0
 17 20  1  0
 20 21  1  0
 20 22  1  0
 20 23  1  0
 23 24  1  0
 24 25  2  0
 24 26  1  0
 26 27  1  0
 26 28  1  0
 26 29  1  0
 23 30  1  0
 30 31  1  0
 30 32  1  0
 30 33  1  0
 33 34  1  0
 33 35  1  0
  6 36  1  0
 36 37  1  0
 36 38  2  0
 38 39  1  0
 38  2  1  0
 15  9  2  0
 33 16  1  0
M  END
>  <cnnaffinity>  (1) 
-5.44611

>  <filename>  (1) 
CC(=O)N1CCN(c2[nH]ncc2Nc2cccnc2)CC1

$$$$
