
     RDKit          3D

 34 35  0  0  0  0  0  0  0  0999 V2000
   10.2059    3.8408   24.5683 H   0  0  0  0  0  0  0  0  0  0  0  0
   10.9791    3.3606   24.2225 O   0  0  0  0  0  0  0  0  0  0  0  0
   10.3230    2.2748   23.7720 C   0  0  0  0  0  0  0  0  0  0  0  0
    9.1254    2.2093   23.9251 O   0  0  0  0  0  0  0  0  0  0  0  0
   11.1826    1.2680   23.1350 C   0  0  0  0  0  0  0  0  0  0  0  0
   10.8383    0.0250   22.6157 C   0  0  0  0  0  0  0  0  0  0  0  0
    9.4861   -0.6300   22.5066 C   0  0  0  0  0  0  0  0  0  0  0  0
    8.8995   -0.3964   23.4049 H   0  0  0  0  0  0  0  0  0  0  0  0
    9.6189   -1.7223   22.5304 H   0  0  0  0  0  0  0  0  0  0  0  0
    8.7089   -0.2625   21.2574 C   0  0  0  0  0  0  0  0  0  0  0  0
    9.2483    0.2883   20.4847 H   0  0  0  0  0  0  0  0  0  0  0  0
    7.4261   -0.5772   21.0333 C   0  0  0  0  0  0  0  0  0  0  0  0
    6.6867    0.0486   19.8982 C   0  0  0  0  0  0  0  0  0  0  0  0
    7.2158    0.0650   18.5924 C   0  0  0  0  0  0  0  0  0  0  0  0
    8.1458   -0.4630   18.3838 H   0  0  0  0  0  0  0  0  0  0  0  0
    6.6267    0.6635   17.5477 N   0  0  0  0  0  0  0  0  0  0  0  0
    5.4654    1.2958   17.7756 C   0  0  0  0  0  0  0  0  0  0  0  0
    5.0210    1.7961   16.9159 H   0  0  0  0  0  0  0  0  0  0  0  0
    4.8233    1.3025   19.0205 C   0  0  0  0  0  0  0  0  0  0  0  0
    3.8755    1.8153   19.1327 H   0  0  0  0  0  0  0  0  0  0  0  0
    5.4318    0.6427   20.0901 C   0  0  0  0  0  0  0  0  0  0  0  0
    4.9669    0.6074   21.0771 H   0  0  0  0  0  0  0  0  0  0  0  0
    6.6690   -1.5485   21.9112 C   0  0  0  0  0  0  0  0  0  0  0  0
    6.4975   -1.1449   22.9178 H   0  0  0  0  0  0  0  0  0  0  0  0
    5.6981   -1.7965   21.4771 H   0  0  0  0  0  0  0  0  0  0  0  0
    7.2258   -2.4865   22.0271 H   0  0  0  0  0  0  0  0  0  0  0  0
   12.0720   -0.5148   22.1976 C   0  0  0  0  0  0  0  0  0  0  0  0
   12.3061   -1.8547   21.5937 C   0  0  0  0  0  0  0  0  0  0  0  0
   12.5424   -2.5914   22.3662 H   0  0  0  0  0  0  0  0  0  0  0  0
   11.4174   -2.2202   21.0747 H   0  0  0  0  0  0  0  0  0  0  0  0
   13.1345   -1.8015   20.8888 H   0  0  0  0  0  0  0  0  0  0  0  0
   13.0785    0.3209   22.4231 N   0  0  0  0  0  0  0  0  0  0  0  0
   12.5297    1.3966   22.9839 N   0  0  0  0  0  0  0  0  0  0  0  0
   13.1276    2.1736   23.2560 H   0  0  0  0  0  0  0  0  0  0  0  0
  1  2  1  0
  2  3  1  0
  3  4  2  0
  3  5  1  0
  5  6  2  0
  6  7  1  0
  7  8  1  0
  7  9  1  0
  7 10  1  0
 10 11  1  0
 10 12  2  3
 12 13  1  0
 13 14  2  0
 14 15  1  0
 14 16  1  0
 16 17  2  0
 17 18  1  0
 17 19  1  0
 19 20  1  0
 19 21  2  0
 21 22  1  0
 12 23  1  0
 23 24  1  0
 23 25  1  0
 23 26  1  0
  6 27  1  0
 27 28  1  0
 28 29  1  0
 28 30  1  0
 28 31  1  0
 27 32  2  0
 32 33  1  0
 33 34  1  0
 33  5  1  0
 21 13  1  0
M  END
>  <cnnaffinity>  (1) 
-4.94541

>  <filename>  (1) 
CC(=CCc1c(C)n[nH]c1C(=O)O)c1cccnc1

$$$$
