
     RDKit          3D

 35 36  0  0  0  0  0  0  0  0999 V2000
    4.9791    1.7894   16.8868 H   0  0  0  0  0  0  0  0  0  0  0  0
    5.4006    1.3149   17.7687 C   0  0  0  0  0  0  0  0  0  0  0  0
    6.5739    0.6891   17.5968 N   0  0  0  0  0  0  0  0  0  0  0  0
    7.1287    0.1222   18.6749 C   0  0  0  0  0  0  0  0  0  0  0  0
    8.0881   -0.3678   18.5161 H   0  0  0  0  0  0  0  0  0  0  0  0
    6.5619    0.1419   19.9581 C   0  0  0  0  0  0  0  0  0  0  0  0
    7.2863   -0.5056   21.1129 C   0  0  2  0  0  0  0  0  0  0  0  0
    6.7583   -0.2692   22.0448 H   0  0  0  0  0  0  0  0  0  0  0  0
    8.9728    0.2561   21.2279 S   0  0  0  0  0  0  0  0  0  0  0  0
    9.3141   -0.2733   22.8903 C   0  0  0  0  0  0  0  0  0  0  0  0
    8.8170    0.5047   23.9465 C   0  0  0  0  0  0  0  0  0  0  0  0
    8.3445    1.4594   23.7370 H   0  0  0  0  0  0  0  0  0  0  0  0
    8.8849    0.0238   25.2535 C   0  0  0  0  0  0  0  0  0  0  0  0
    8.4868    0.6260   26.0680 H   0  0  0  0  0  0  0  0  0  0  0  0
    9.4201   -1.2386   25.5100 C   0  0  0  0  0  0  0  0  0  0  0  0
    9.4419   -1.6330   26.5168 H   0  0  0  0  0  0  0  0  0  0  0  0
    9.9268   -2.0168   24.4577 C   0  0  0  0  0  0  0  0  0  0  0  0
   10.4423   -3.3090   24.6968 N   0  0  0  0  0  0  0  0  0  0  0  0
   11.1753   -3.6369   24.0930 H   0  0  0  0  0  0  0  0  0  0  0  0
    9.9889   -4.2008   25.6342 C   0  0  0  0  0  0  0  0  0  0  0  0
    9.0741   -3.9689   26.4022 O   0  0  0  0  0  0  0  0  0  0  0  0
   10.6935   -5.5338   25.6564 C   0  0  0  0  0  0  0  0  0  0  0  0
   10.1089   -6.2682   25.0953 H   0  0  0  0  0  0  0  0  0  0  0  0
   10.7153   -5.8604   26.6969 H   0  0  0  0  0  0  0  0  0  0  0  0
   11.7096   -5.5164   25.2581 H   0  0  0  0  0  0  0  0  0  0  0  0
    9.9230   -1.5100   23.1478 C   0  0  0  0  0  0  0  0  0  0  0  0
   10.3024   -2.0899   22.3104 H   0  0  0  0  0  0  0  0  0  0  0  0
    7.4125   -2.0321   21.0091 C   0  0  0  0  0  0  0  0  0  0  0  0
    8.2855   -2.2784   20.4089 H   0  0  0  0  0  0  0  0  0  0  0  0
    7.5752   -2.4823   21.9957 H   0  0  0  0  0  0  0  0  0  0  0  0
    6.5266   -2.4812   20.5533 H   0  0  0  0  0  0  0  0  0  0  0  0
    5.3183    0.7721   20.1067 C   0  0  0  0  0  0  0  0  0  0  0  0
    4.8303    0.7981   21.0829 H   0  0  0  0  0  0  0  0  0  0  0  0
    4.7278    1.3736   18.9940 C   0  0  0  0  0  0  0  0  0  0  0  0
    3.7807    1.8981   19.0642 H   0  0  0  0  0  0  0  0  0  0  0  0
  1  2  1  0
  2  3  2  0
  3  4  1  0
  4  5  1  0
  4  6  2  0
  6  7  1  0
  7  8  1  1
  7  9  1  0
  9 10  1  0
 10 11  2  0
 11 12  1  0
 11 13  1  0
 13 14  1  0
 13 15  2  0
 15 16  1  0
 15 17  1  0
 17 18  1  0
 18 19  1  0
 18 20  1  0
 20 21  2  0
 20 22  1  0
 22 23  1  0
 22 24  1  0
 22 25  1  0
 17 26  2  0
 26 27  1  0
  7 28  1  0
 28 29  1  0
 28 30  1  0
 28 31  1  0
  6 32  1  0
 32 33  1  0
 32 34  2  0
 34 35  1  0
 34  2  1  0
 26 10  1  0
M  END
>  <cnnaffinity>  (1) 
-4.88634

>  <filename>  (1) 
CC(=O)Nc1cccc(S[C@H](C)c2cccnc2)c1

$$$$
