
     RDKit          3D

 28 29  0  0  0  0  0  0  0  0999 V2000
    4.9387    1.7968   16.9906 H   0  0  0  0  0  0  0  0  0  0  0  0
    5.3988    1.2874   17.8353 C   0  0  0  0  0  0  0  0  0  0  0  0
    6.5584    0.6572   17.5909 N   0  0  0  0  0  0  0  0  0  0  0  0
    7.1728    0.0468   18.6102 C   0  0  0  0  0  0  0  0  0  0  0  0
    8.1226   -0.4277   18.3691 H   0  0  0  0  0  0  0  0  0  0  0  0
    6.6638    0.0271   19.9248 C   0  0  0  0  0  0  0  0  0  0  0  0
    7.3530   -0.6575   20.9706 N   0  0  0  0  0  0  0  0  0  0  0  0
    7.7549   -0.2140   22.2150 C   0  0  0  0  0  0  0  0  0  0  0  0
    7.4165    1.1472   22.7436 C   0  0  0  0  0  0  0  0  0  0  0  0
    7.3651    1.8553   21.9055 H   0  0  0  0  0  0  0  0  0  0  0  0
    8.2421    1.4785   23.3874 H   0  0  0  0  0  0  0  0  0  0  0  0
    6.1369    1.2198   23.4833 N   0  0  0  0  0  0  0  0  0  0  0  0
    5.6450    0.3904   23.7813 H   0  0  0  0  0  0  0  0  0  0  0  0
    5.7425    2.3904   24.0668 C   0  0  0  0  0  0  0  0  0  0  0  0
    6.3588    3.4289   23.9271 O   0  0  0  0  0  0  0  0  0  0  0  0
    4.4723    2.2836   24.8720 C   0  0  0  0  0  0  0  0  0  0  0  0
    4.5387    1.5064   25.6385 H   0  0  0  0  0  0  0  0  0  0  0  0
    3.6285    2.0408   24.2220 H   0  0  0  0  0  0  0  0  0  0  0  0
    4.3035    3.2509   25.3422 H   0  0  0  0  0  0  0  0  0  0  0  0
    8.4199   -1.1417   22.8609 N   0  0  0  0  0  0  0  0  0  0  0  0
    8.4255   -2.2426   22.0463 C   0  0  0  0  0  0  0  0  0  0  0  0
    8.9060   -3.1555   22.3752 H   0  0  0  0  0  0  0  0  0  0  0  0
    7.7601   -1.9678   20.8902 C   0  0  0  0  0  0  0  0  0  0  0  0
    7.3646   -2.5535   20.0860 H   0  0  0  0  0  0  0  0  0  0  0  0
    5.4434    0.6678   20.1614 C   0  0  0  0  0  0  0  0  0  0  0  0
    5.0169    0.6649   21.1615 H   0  0  0  0  0  0  0  0  0  0  0  0
    4.8021    1.3102   19.0987 C   0  0  0  0  0  0  0  0  0  0  0  0
    3.8693    1.8429   19.2433 H   0  0  0  0  0  0  0  0  0  0  0  0
  1  2  1  0
  2  3  2  0
  3  4  1  0
  4  5  1  0
  4  6  2  0
  6  7  1  0
  7  8  1  0
  8  9  1  0
  9 10  1  0
  9 11  1  0
  9 12  1  0
 12 13  1  0
 12 14  1  0
 14 15  2  0
 14 16  1  0
 16 17  1  0
 16 18  1  0
 16 19  1  0
  8 20  2  0
 20 21  1  0
 21 22  1  0
 21 23  2  0
 23 24  1  0
  6 25  1  0
 25 26  1  0
 25 27  2  0
 27 28  1  0
 27  2  1  0
 23  7  1  0
M  END
>  <cnnaffinity>  (1) 
-4.48137

>  <filename>  (1) 
CC(=O)NCc1nccn1-c1cccnc1

$$$$
