
     RDKit          3D

 28 29  0  0  0  0  0  0  0  0999 V2000
    5.5184   -1.6246   21.6223 H   0  0  0  0  0  0  0  0  0  0  0  0
    6.5859   -1.5387   21.7796 C   0  0  0  0  0  0  0  0  0  0  0  0
    7.3017   -0.7568   20.8861 C   0  0  0  0  0  0  0  0  0  0  0  0
    6.6134   -0.0460   19.7944 C   0  0  0  0  0  0  0  0  0  0  0  0
    7.2292    0.1038   18.5380 C   0  0  0  0  0  0  0  0  0  0  0  0
    8.2121   -0.3312   18.3872 H   0  0  0  0  0  0  0  0  0  0  0  0
    6.6711    0.7584   17.5022 N   0  0  0  0  0  0  0  0  0  0  0  0
    5.4744    1.3366   17.7021 C   0  0  0  0  0  0  0  0  0  0  0  0
    5.0095    1.8704   16.8794 H   0  0  0  0  0  0  0  0  0  0  0  0
    4.7977    1.2585   18.9258 C   0  0  0  0  0  0  0  0  0  0  0  0
    3.8456    1.7691   19.0317 H   0  0  0  0  0  0  0  0  0  0  0  0
    5.3650    0.5547   19.9905 C   0  0  0  0  0  0  0  0  0  0  0  0
    4.8783    0.5274   20.9643 H   0  0  0  0  0  0  0  0  0  0  0  0
    8.7771   -0.5170   21.0439 C   0  0  0  0  0  0  0  0  0  0  0  0
    9.0538    0.4224   20.5573 H   0  0  0  0  0  0  0  0  0  0  0  0
    9.0437   -0.4512   22.1026 H   0  0  0  0  0  0  0  0  0  0  0  0
    9.3474   -1.3240   20.5811 H   0  0  0  0  0  0  0  0  0  0  0  0
    7.1261   -2.2459   22.9492 C   0  0  0  0  0  0  0  0  0  0  0  0
    6.2436   -2.7115   23.9254 C   0  0  0  0  0  0  0  0  0  0  0  0
    5.1762   -2.6102   23.7859 H   0  0  0  0  0  0  0  0  0  0  0  0
    6.7149   -3.3039   25.0994 C   0  0  0  0  0  0  0  0  0  0  0  0
    5.9977   -3.5981   25.8567 H   0  0  0  0  0  0  0  0  0  0  0  0
    8.0849   -3.5038   25.2756 C   0  0  0  0  0  0  0  0  0  0  0  0
    8.4567   -3.9637   26.1881 H   0  0  0  0  0  0  0  0  0  0  0  0
    8.9736   -3.1361   24.2633 C   0  0  0  0  0  0  0  0  0  0  0  0
   10.8464   -3.4933   24.4323 Br  0  0  0  0  0  0  0  0  0  0  0  0
    8.4897   -2.4923   23.1221 C   0  0  0  0  0  0  0  0  0  0  0  0
    9.1930   -2.2193   22.3488 H   0  0  0  0  0  0  0  0  0  0  0  0
  1  2  1  0
  2  3  2  3
  3  4  1  0
  4  5  2  0
  5  6  1  0
  5  7  1  0
  7  8  2  0
  8  9  1  0
  8 10  1  0
 10 11  1  0
 10 12  2  0
 12 13  1  0
  3 14  1  0
 14 15  1  0
 14 16  1  0
 14 17  1  0
  2 18  1  0
 18 19  2  0
 19 20  1  0
 19 21  1  0
 21 22  1  0
 21 23  2  0
 23 24  1  0
 23 25  1  0
 25 26  1  0
 25 27  2  0
 27 28  1  0
 12  4  1  0
 27 18  1  0
M  END
>  <cnnaffinity>  (1) 
-4.23553

>  <filename>  (1) 
CC(=Cc1cccc(Br)c1)c1cccnc1

$$$$
