
     RDKit          3D

 37 38  0  0  0  0  0  0  0  0999 V2000
    8.9014   -0.4126   21.1099 C   0  0  0  0  0  0  0  0  0  0  0  0
    7.4216   -0.6888   20.9635 C   0  0  0  0  0  0  0  0  0  0  0  0
    6.7768   -1.5709   21.7469 C   0  0  0  0  0  0  0  0  0  0  0  0
    7.4213   -2.4417   22.7552 C   0  0  0  0  0  0  0  0  0  0  0  0
    8.6243   -2.5537   22.9388 O   0  0  0  0  0  0  0  0  0  0  0  0
    6.5022   -3.1655   23.4884 N   0  0  0  0  0  0  0  0  0  0  0  0
    6.8776   -3.8265   24.7563 C   0  0  0  0  0  0  0  0  0  0  0  0
    5.7513   -4.6249   25.3963 C   0  0  0  0  0  0  0  0  0  0  0  0
    5.2749   -5.7716   24.7486 C   0  0  0  0  0  0  0  0  0  0  0  0
    4.2171   -6.4965   25.3102 C   0  0  0  0  0  0  0  0  0  0  0  0
    3.6016   -7.6924   24.5920 C   0  0  0  0  0  0  0  0  0  0  0  0
    4.4024   -8.1648   23.6237 F   0  0  0  0  0  0  0  0  0  0  0  0
    2.4263   -7.3593   24.0222 F   0  0  0  0  0  0  0  0  0  0  0  0
    3.3521   -8.7136   25.4310 F   0  0  0  0  0  0  0  0  0  0  0  0
    3.6897   -6.0284   26.5280 C   0  0  0  0  0  0  0  0  0  0  0  0
    4.2423   -4.8855   27.1108 C   0  0  0  0  0  0  0  0  0  0  0  0
    5.2558   -4.1960   26.5683 N   0  0  0  0  0  0  0  0  0  0  0  0
    3.8534   -4.4911   28.0478 H   0  0  0  0  0  0  0  0  0  0  0  0
    2.8829   -6.5614   27.0203 H   0  0  0  0  0  0  0  0  0  0  0  0
    5.7251   -6.0582   23.8030 H   0  0  0  0  0  0  0  0  0  0  0  0
    7.7214   -4.4934   24.5389 H   0  0  0  0  0  0  0  0  0  0  0  0
    7.2373   -3.1042   25.4980 H   0  0  0  0  0  0  0  0  0  0  0  0
    5.5865   -2.7458   23.4552 H   0  0  0  0  0  0  0  0  0  0  0  0
    5.7092   -1.7165   21.5992 H   0  0  0  0  0  0  0  0  0  0  0  0
    6.6525    0.0017   19.8917 C   0  0  0  0  0  0  0  0  0  0  0  0
    5.4049    0.6170   20.0998 C   0  0  0  0  0  0  0  0  0  0  0  0
    4.8002    1.2984   19.0419 C   0  0  0  0  0  0  0  0  0  0  0  0
    5.4348    1.2999   17.7937 C   0  0  0  0  0  0  0  0  0  0  0  0
    6.5928    0.6651   17.5551 N   0  0  0  0  0  0  0  0  0  0  0  0
    7.1760    0.0485   18.5879 C   0  0  0  0  0  0  0  0  0  0  0  0
    8.1060   -0.4785   18.3746 H   0  0  0  0  0  0  0  0  0  0  0  0
    4.9961    1.8186   16.9432 H   0  0  0  0  0  0  0  0  0  0  0  0
    3.8573    1.8230   19.1619 H   0  0  0  0  0  0  0  0  0  0  0  0
    4.9406    0.5784   21.0848 H   0  0  0  0  0  0  0  0  0  0  0  0
    9.1587   -0.1356   22.1398 H   0  0  0  0  0  0  0  0  0  0  0  0
    9.2100    0.3978   20.4466 H   0  0  0  0  0  0  0  0  0  0  0  0
    9.4867   -1.3134   20.8938 H   0  0  0  0  0  0  0  0  0  0  0  0
  1  2  1  0
  2  3  2  3
  3  4  1  0
  4  5  2  0
  4  6  1  0
  6  7  1  0
  7  8  1  0
  8  9  2  0
  9 10  1  0
 10 11  1  0
 11 12  1  0
 11 13  1  0
 11 14  1  0
 10 15  2  0
 15 16  1  0
 16 17  2  0
 16 18  1  0
 15 19  1  0
  9 20  1  0
  7 21  1  0
  7 22  1  0
  6 23  1  0
  3 24  1  0
  2 25  1  0
 25 26  2  0
 26 27  1  0
 27 28  2  0
 28 29  1  0
 29 30  2  0
 30 31  1  0
 28 32  1  0
 27 33  1  0
 26 34  1  0
  1 35  1  0
  1 36  1  0
  1 37  1  0
 17  8  1  0
 30 25  1  0
M  END
>  <cnnaffinity>  (1) 
-5.01628

>  <filename>  (1) 
CC(=CC(=O)NCc1cc(C(F)(F)F)ccn1)c1cccnc1

$$$$
