
     RDKit          3D

 50 53  0  0  0  0  0  0  0  0999 V2000
   11.0954    5.6064   25.4586 C   0  0  0  0  0  0  0  0  0  0  0  0
   11.7027    4.6356   24.4666 C   0  0  0  0  0  0  0  0  0  0  0  0
   12.8019    4.8016   23.9798 O   0  0  0  0  0  0  0  0  0  0  0  0
   10.9026    3.5618   24.1849 N   0  0  0  0  0  0  0  0  0  0  0  0
   11.2657    2.4200   23.4387 C   0  0  0  0  0  0  0  0  0  0  0  0
   12.4682    1.7452   23.6686 C   0  0  0  0  0  0  0  0  0  0  0  0
   12.7672    0.6033   22.9256 C   0  0  0  0  0  0  0  0  0  0  0  0
   11.8723    0.1448   21.9540 C   0  0  0  0  0  0  0  0  0  0  0  0
   10.6553    0.8031   21.7357 C   0  0  0  0  0  0  0  0  0  0  0  0
    9.6495    0.2479   20.7582 C   0  0  0  0  0  0  0  0  0  0  0  0
    8.5909   -0.5799   21.3988 C   0  0  0  0  0  0  0  0  0  0  0  0
    8.7869   -1.4014   22.4107 N   0  0  0  0  0  0  0  0  0  0  0  0
    7.5869   -2.0044   22.5594 C   0  0  0  0  0  0  0  0  0  0  0  0
    7.3451   -3.0162   23.6400 C   0  0  0  0  0  0  0  0  0  0  0  0
    6.3864   -2.5106   24.7420 C   0  0  0  0  0  0  0  0  0  0  0  0
    5.7848   -3.7699   25.3902 C   0  0  0  0  0  0  0  0  0  0  0  0
    6.0163   -4.9357   24.3984 C   0  0  0  0  0  0  0  0  0  0  0  0
    6.7065   -4.3367   23.1584 C   0  0  0  0  0  0  0  0  0  0  0  0
    5.9656   -4.1159   22.3795 H   0  0  0  0  0  0  0  0  0  0  0  0
    7.4545   -5.0162   22.7318 H   0  0  0  0  0  0  0  0  0  0  0  0
    5.0755   -5.4194   24.1165 H   0  0  0  0  0  0  0  0  0  0  0  0
    6.6411   -5.7062   24.8655 H   0  0  0  0  0  0  0  0  0  0  0  0
    4.7197   -3.6167   25.5924 H   0  0  0  0  0  0  0  0  0  0  0  0
    6.2640   -3.9873   26.3512 H   0  0  0  0  0  0  0  0  0  0  0  0
    6.9076   -1.8696   25.4627 H   0  0  0  0  0  0  0  0  0  0  0  0
    5.5936   -1.9138   24.2815 H   0  0  0  0  0  0  0  0  0  0  0  0
    8.3274   -3.2219   24.0821 H   0  0  0  0  0  0  0  0  0  0  0  0
    6.6569   -1.6121   21.7047 N   0  0  0  0  0  0  0  0  0  0  0  0
    7.3153   -0.7158   20.9266 N   0  0  0  0  0  0  0  0  0  0  0  0
    6.6298   -0.0421   19.8817 C   0  0  0  0  0  0  0  0  0  0  0  0
    5.4192    0.6103   20.1439 C   0  0  0  0  0  0  0  0  0  0  0  0
    4.8069    1.3045   19.0946 C   0  0  0  0  0  0  0  0  0  0  0  0
    5.4046    1.3004   17.8271 C   0  0  0  0  0  0  0  0  0  0  0  0
    6.5447    0.6460   17.5599 N   0  0  0  0  0  0  0  0  0  0  0  0
    7.1340   -0.0071   18.5694 C   0  0  0  0  0  0  0  0  0  0  0  0
    8.0607   -0.5250   18.3355 H   0  0  0  0  0  0  0  0  0  0  0  0
    4.9506    1.8379   16.9947 H   0  0  0  0  0  0  0  0  0  0  0  0
    3.8810    1.8485   19.2473 H   0  0  0  0  0  0  0  0  0  0  0  0
    4.9852    0.5760   21.1434 H   0  0  0  0  0  0  0  0  0  0  0  0
    9.1901    1.0536   20.1825 H   0  0  0  0  0  0  0  0  0  0  0  0
   10.1511   -0.4314   20.0629 H   0  0  0  0  0  0  0  0  0  0  0  0
   10.3574    1.9415   22.4895 C   0  0  0  0  0  0  0  0  0  0  0  0
    9.4281    2.4851   22.3427 H   0  0  0  0  0  0  0  0  0  0  0  0
   12.1233   -0.7341   21.3649 H   0  0  0  0  0  0  0  0  0  0  0  0
   13.6956    0.0663   23.1082 H   0  0  0  0  0  0  0  0  0  0  0  0
   13.1591    2.1006   24.4243 H   0  0  0  0  0  0  0  0  0  0  0  0
    9.9518    3.5993   24.4962 H   0  0  0  0  0  0  0  0  0  0  0  0
   10.7395    6.4961   24.9357 H   0  0  0  0  0  0  0  0  0  0  0  0
   11.8826    5.9177   26.1463 H   0  0  0  0  0  0  0  0  0  0  0  0
   10.2644    5.1780   26.0245 H   0  0  0  0  0  0  0  0  0  0  0  0
  1  2  1  0
  2  3  2  0
  2  4  1  0
  4  5  1  0
  5  6  2  0
  6  7  1  0
  7  8  2  0
  8  9  1  0
  9 10  1  0
 10 11  1  0
 11 12  2  0
 12 13  1  0
 13 14  1  0
 14 15  1  0
 15 16  1  0
 16 17  1  0
 17 18  1  0
 18 19  1  0
 18 20  1  0
 17 21  1  0
 17 22  1  0
 16 23  1  0
 16 24  1  0
 15 25  1  0
 15 26  1  0
 14 27  1  0
 13 28  2  0
 28 29  1  0
 29 30  1  0
 30 31  2  0
 31 32  1  0
 32 33  2  0
 33 34  1  0
 34 35  2  0
 35 36  1  0
 33 37  1  0
 32 38  1  0
 31 39  1  0
 10 40  1  0
 10 41  1  0
  9 42  2  0
 42 43  1  0
  8 44  1  0
  7 45  1  0
  6 46  1  0
  4 47  1  0
  1 48  1  0
  1 49  1  0
  1 50  1  0
 42  5  1  0
 29 11  1  0
 35 30  1  0
 18 14  1  0
M  END
>  <cnnaffinity>  (1) 
-6.64705

>  <filename>  (1) 
CC(=O)Nc1cccc(Cc2nc(C3CCCC3)nn2-c2cccnc2)c1

$$$$
