
     RDKit          3D

 50 52  0  0  0  0  0  0  0  0999 V2000
    6.6042    5.2325   23.3503 C   0  0  0  0  0  0  0  0  0  0  0  0
    7.1025    3.8219   23.0681 C   0  0  0  0  0  0  0  0  0  0  0  0
    6.3121    2.9373   22.7718 O   0  0  0  0  0  0  0  0  0  0  0  0
    8.4564    3.5775   23.1765 N   0  0  0  0  0  0  0  0  0  0  0  0
    9.4210    4.6148   23.5143 C   0  0  0  0  0  0  0  0  0  0  0  0
   10.4338    4.2051   23.4700 H   0  0  0  0  0  0  0  0  0  0  0  0
    9.2720    4.9928   24.5328 H   0  0  0  0  0  0  0  0  0  0  0  0
    9.3921    5.4644   22.8207 H   0  0  0  0  0  0  0  0  0  0  0  0
    8.9402    2.2406   22.8219 C   0  0  0  0  0  0  0  0  0  0  0  0
    9.0388    2.0239   21.3088 C   0  0  0  0  0  0  0  0  0  0  0  0
    9.5319    0.6101   20.9356 C   0  0  0  0  0  0  0  0  0  0  0  0
    8.6271   -0.4766   21.4185 C   0  0  0  0  0  0  0  0  0  0  0  0
    8.8540   -1.2854   22.4342 N   0  0  0  0  0  0  0  0  0  0  0  0
    7.6716   -1.9436   22.5724 C   0  0  0  0  0  0  0  0  0  0  0  0
    7.4562   -2.9385   23.6720 C   0  0  0  0  0  0  0  0  0  0  0  0
    8.4694   -4.1089   23.5963 C   0  0  0  0  0  0  0  0  0  0  0  0
    8.4179   -4.9968   24.8160 C   0  0  0  0  0  0  0  0  0  0  0  0
    7.8767   -4.6189   25.9753 C   0  0  0  0  0  0  0  0  0  0  0  0
    7.1849   -3.2883   26.1689 C   0  0  0  0  0  0  0  0  0  0  0  0
    7.5217   -2.2721   25.0658 C   0  0  0  0  0  0  0  0  0  0  0  0
    6.8312   -1.4205   25.1185 H   0  0  0  0  0  0  0  0  0  0  0  0
    8.5317   -1.8669   25.2162 H   0  0  0  0  0  0  0  0  0  0  0  0
    6.0991   -3.4632   26.1870 H   0  0  0  0  0  0  0  0  0  0  0  0
    7.4288   -2.8707   27.1538 H   0  0  0  0  0  0  0  0  0  0  0  0
    7.9093   -5.2925   26.8330 H   0  0  0  0  0  0  0  0  0  0  0  0
    8.8714   -5.9840   24.7285 H   0  0  0  0  0  0  0  0  0  0  0  0
    9.4863   -3.7026   23.4975 H   0  0  0  0  0  0  0  0  0  0  0  0
    8.2979   -4.7031   22.6895 H   0  0  0  0  0  0  0  0  0  0  0  0
    6.4449   -3.3314   23.5221 H   0  0  0  0  0  0  0  0  0  0  0  0
    6.7445   -1.5997   21.7038 N   0  0  0  0  0  0  0  0  0  0  0  0
    7.3632   -0.6646   20.9394 N   0  0  0  0  0  0  0  0  0  0  0  0
    6.6606    0.0098   19.9004 C   0  0  0  0  0  0  0  0  0  0  0  0
    5.4421    0.6462   20.1666 C   0  0  0  0  0  0  0  0  0  0  0  0
    4.8118    1.3106   19.1092 C   0  0  0  0  0  0  0  0  0  0  0  0
    5.4008    1.2948   17.8399 C   0  0  0  0  0  0  0  0  0  0  0  0
    6.5605    0.6755   17.5815 N   0  0  0  0  0  0  0  0  0  0  0  0
    7.1721    0.0555   18.5945 C   0  0  0  0  0  0  0  0  0  0  0  0
    8.1162   -0.4349   18.3705 H   0  0  0  0  0  0  0  0  0  0  0  0
    4.9182    1.7834   16.9955 H   0  0  0  0  0  0  0  0  0  0  0  0
    3.8796    1.8411   19.2617 H   0  0  0  0  0  0  0  0  0  0  0  0
    5.0235    0.6179   21.1752 H   0  0  0  0  0  0  0  0  0  0  0  0
    9.6215    0.5393   19.8478 H   0  0  0  0  0  0  0  0  0  0  0  0
   10.5282    0.4228   21.3524 H   0  0  0  0  0  0  0  0  0  0  0  0
    9.7335    2.7611   20.8923 H   0  0  0  0  0  0  0  0  0  0  0  0
    8.0565    2.2036   20.8528 H   0  0  0  0  0  0  0  0  0  0  0  0
    9.9288    2.0896   23.2735 H   0  0  0  0  0  0  0  0  0  0  0  0
    8.2820    1.4913   23.2753 H   0  0  0  0  0  0  0  0  0  0  0  0
    5.5189    5.2232   23.2619 H   0  0  0  0  0  0  0  0  0  0  0  0
    6.9985    5.9646   22.6384 H   0  0  0  0  0  0  0  0  0  0  0  0
    6.8658    5.5691   24.3576 H   0  0  0  0  0  0  0  0  0  0  0  0
  1  2  1  0
  2  3  2  0
  2  4  1  0
  4  5  1  0
  5  6  1  0
  5  7  1  0
  5  8  1  0
  4  9  1  0
  9 10  1  0
 10 11  1  0
 11 12  1  0
 12 13  2  0
 13 14  1  0
 14 15  1  0
 15 16  1  0
 16 17  1  0
 17 18  2  0
 18 19  1  0
 19 20  1  0
 20 21  1  0
 20 22  1  0
 19 23  1  0
 19 24  1  0
 18 25  1  0
 17 26  1  0
 16 27  1  0
 16 28  1  0
 15 29  1  0
 14 30  2  0
 30 31  1  0
 31 32  1  0
 32 33  2  0
 33 34  1  0
 34 35  2  0
 35 36  1  0
 36 37  2  0
 37 38  1  0
 35 39  1  0
 34 40  1  0
 33 41  1  0
 11 42  1  0
 11 43  1  0
 10 44  1  0
 10 45  1  0
  9 46  1  0
  9 47  1  0
  1 48  1  0
  1 49  1  0
  1 50  1  0
 31 12  1  0
 37 32  1  0
 20 15  1  0
M  END
>  <cnnaffinity>  (1) 
-6.33914

>  <filename>  (1) 
CC(=O)N(C)CCCc1nc(C2CC=CCC2)nn1-c1cccnc1

$$$$
