
     RDKit          3D

 32 33  0  0  0  0  0  0  0  0999 V2000
    8.5782   -2.3589   22.2776 C   0  0  0  0  0  0  0  0  0  0  0  0
    7.9015   -1.0892   22.7403 C   0  0  0  0  0  0  0  0  0  0  0  0
    7.9653   -0.6765   24.0312 C   0  0  0  0  0  0  0  0  0  0  0  0
    8.2407   -1.4263   25.2379 C   0  0  0  0  0  0  0  0  0  0  0  0
    8.7423   -0.7486   26.4137 C   0  0  0  0  0  0  0  0  0  0  0  0
    9.1269   -1.5959   27.4282 C   0  0  0  0  0  0  0  0  0  0  0  0
    8.9618   -3.3830   27.0070 C   0  0  0  0  0  0  0  0  0  0  0  0
    8.7084   -3.1663   27.0076 C   0  0  0  0  0  0  0  0  0  0  0  0
    8.0665   -2.8674   25.4133 C   0  0  0  0  0  0  0  0  0  0  0  0
    6.3602   -3.2970   25.4865 Cl  0  0  0  0  0  0  0  0  0  0  0  0
    8.2963   -4.1029   27.7846 H   0  0  0  0  0  0  0  0  0  0  0  0
    9.9768   -3.9263   26.6947 H   0  0  0  0  0  0  0  0  0  0  0  0
    9.2666   -1.3044   28.4826 H   0  0  0  0  0  0  0  0  0  0  0  0
    8.7940    0.3378   26.4554 H   0  0  0  0  0  0  0  0  0  0  0  0
    7.7886    0.3962   24.1990 H   0  0  0  0  0  0  0  0  0  0  0  0
    7.1969   -0.1610   21.7580 C   0  0  0  0  0  0  0  0  0  0  0  0
    6.6965    0.8945   22.0994 O   0  0  0  0  0  0  0  0  0  0  0  0
    7.1714   -0.6037   20.4515 N   0  0  0  0  0  0  0  0  0  0  0  0
    6.5447    0.0449   19.3568 C   0  0  0  0  0  0  0  0  0  0  0  0
    5.3785    0.8001   19.5524 C   0  0  0  0  0  0  0  0  0  0  0  0
    4.8373    1.4837   18.4605 C   0  0  0  0  0  0  0  0  0  0  0  0
    5.4633    1.3869   17.2147 C   0  0  0  0  0  0  0  0  0  0  0  0
    6.5476    0.6292   17.0016 N   0  0  0  0  0  0  0  0  0  0  0  0
    7.0639   -0.0316   18.0444 C   0  0  0  0  0  0  0  0  0  0  0  0
    7.9401   -0.6467   17.8385 H   0  0  0  0  0  0  0  0  0  0  0  0
    5.0813    1.9300   16.3533 H   0  0  0  0  0  0  0  0  0  0  0  0
    3.9560    2.1072   18.5697 H   0  0  0  0  0  0  0  0  0  0  0  0
    4.9321    0.8500   20.5409 H   0  0  0  0  0  0  0  0  0  0  0  0
    7.7430   -1.4048   20.2549 H   0  0  0  0  0  0  0  0  0  0  0  0
    8.7200   -3.0368   23.1355 H   0  0  0  0  0  0  0  0  0  0  0  0
    9.5669   -2.1366   21.8560 H   0  0  0  0  0  0  0  0  0  0  0  0
    7.9885   -2.9080   21.5378 H   0  0  0  0  0  0  0  0  0  0  0  0
  1  2  1  0
  2  3  2  3
  3  4  1  0
  4  5  2  0
  5  6  1  0
  6  7  2  0
  7  8  1  0
  8  9  2  0
  9 10  1  0
  8 11  1  0
  7 12  1  0
  6 13  1  0
  5 14  1  0
  3 15  1  0
  2 16  1  0
 16 17  2  0
 16 18  1  0
 18 19  1  0
 19 20  2  0
 20 21  1  0
 21 22  2  0
 22 23  1  0
 23 24  2  0
 24 25  1  0
 22 26  1  0
 21 27  1  0
 20 28  1  0
 18 29  1  0
  1 30  1  0
  1 31  1  0
  1 32  1  0
  9  4  1  0
 24 19  1  0
M  END
>  <cnnaffinity>  (1) 
-4.84136

>  <filename>  (1) 
CC(=Cc1ccccc1Cl)C(=O)Nc1cccnc1

$$$$
