
     RDKit          3D

 36 38  0  0  0  0  0  0  0  0999 V2000
    4.9419    1.8795   16.7488 H   0  0  0  0  0  0  0  0  0  0  0  0
    5.3918    1.3703   17.5978 C   0  0  0  0  0  0  0  0  0  0  0  0
    6.5579    0.7465   17.3725 N   0  0  0  0  0  0  0  0  0  0  0  0
    7.1526    0.1391   18.4079 C   0  0  0  0  0  0  0  0  0  0  0  0
    8.0969   -0.3492   18.1730 H   0  0  0  0  0  0  0  0  0  0  0  0
    6.6330    0.1116   19.7187 C   0  0  0  0  0  0  0  0  0  0  0  0
    7.3531   -0.4924   20.8536 C   0  0  0  0  0  0  0  0  0  0  0  0
    8.5316   -1.3114   20.8356 C   0  0  0  0  0  0  0  0  0  0  0  0
    9.0871   -1.6225   19.9580 H   0  0  0  0  0  0  0  0  0  0  0  0
    8.8402   -1.6092   22.1329 C   0  0  0  0  0  0  0  0  0  0  0  0
    9.6245   -2.1962   22.5939 H   0  0  0  0  0  0  0  0  0  0  0  0
    7.9275   -0.9917   22.9660 N   0  0  0  0  0  0  0  0  0  0  0  0
    8.0033   -1.0045   24.3897 C   0  0  0  0  0  0  0  0  0  0  0  0
    7.8821    0.1479   25.1838 C   0  0  0  0  0  0  0  0  0  0  0  0
    7.5515    1.0786   24.7315 H   0  0  0  0  0  0  0  0  0  0  0  0
    8.2030    0.0694   26.5458 C   0  0  0  0  0  0  0  0  0  0  0  0
    8.0972    0.9510   27.1752 H   0  0  0  0  0  0  0  0  0  0  0  0
    8.6779   -1.1296   27.1031 C   0  0  0  0  0  0  0  0  0  0  0  0
    8.9907   -1.1836   28.1395 H   0  0  0  0  0  0  0  0  0  0  0  0
    8.7563   -2.2676   26.2940 C   0  0  0  0  0  0  0  0  0  0  0  0
    9.2952   -3.4853   26.7475 N   0  0  0  0  0  0  0  0  0  0  0  0
    9.0463   -3.8158   27.6601 H   0  0  0  0  0  0  0  0  0  0  0  0
    9.9734   -4.3625   25.9347 C   0  0  0  0  0  0  0  0  0  0  0  0
   10.2859   -4.1232   24.7834 O   0  0  0  0  0  0  0  0  0  0  0  0
   10.2681   -5.6703   26.5973 C   0  0  0  0  0  0  0  0  0  0  0  0
    9.3302   -6.1439   26.8983 H   0  0  0  0  0  0  0  0  0  0  0  0
   10.7705   -6.3260   25.8895 H   0  0  0  0  0  0  0  0  0  0  0  0
   10.8871   -5.5203   27.4829 H   0  0  0  0  0  0  0  0  0  0  0  0
    8.3232   -2.2204   24.9764 C   0  0  0  0  0  0  0  0  0  0  0  0
    8.2751   -3.1422   24.4126 H   0  0  0  0  0  0  0  0  0  0  0  0
    7.0245   -0.3323   22.1816 C   0  0  0  0  0  0  0  0  0  0  0  0
    6.2124    0.1965   22.6553 H   0  0  0  0  0  0  0  0  0  0  0  0
    5.3911    0.7382   19.9086 C   0  0  0  0  0  0  0  0  0  0  0  0
    4.9185    0.7242   20.8860 H   0  0  0  0  0  0  0  0  0  0  0  0
    4.7655    1.3803   18.8448 C   0  0  0  0  0  0  0  0  0  0  0  0
    3.8222    1.8942   18.9767 H   0  0  0  0  0  0  0  0  0  0  0  0
  1  2  1  0
  2  3  2  0
  3  4  1  0
  4  5  1  0
  4  6  2  0
  6  7  1  0
  7  8  1  0
  8  9  1  0
  8 10  2  0
 10 11  1  0
 10 12  1  0
 12 13  1  0
 13 14  2  0
 14 15  1  0
 14 16  1  0
 16 17  1  0
 16 18  2  0
 18 19  1  0
 18 20  1  0
 20 21  1  0
 21 22  1  0
 21 23  1  0
 23 24  2  0
 23 25  1  0
 25 26  1  0
 25 27  1  0
 25 28  1  0
 20 29  2  0
 29 30  1  0
 12 31  1  0
 31 32  1  0
  6 33  1  0
 33 34  1  0
 33 35  2  0
 35 36  1  0
 35  2  1  0
 31  7  2  0
 29 13  1  0
M  END
>  <cnnaffinity>  (1) 
-4.78354

>  <filename>  (1) 
CC(=O)Nc1cccc(-n2ccc(-c3cccnc3)c2)c1

$$$$
