
     RDKit          3D

 36 38  0  0  0  0  0  0  0  0999 V2000
    4.9616    1.9256   16.9227 H   0  0  0  0  0  0  0  0  0  0  0  0
    5.4024    1.3747   17.7507 C   0  0  0  0  0  0  0  0  0  0  0  0
    6.5724    0.7661   17.4929 N   0  0  0  0  0  0  0  0  0  0  0  0
    7.1338    0.0840   18.4973 C   0  0  0  0  0  0  0  0  0  0  0  0
    8.0955   -0.3798   18.2731 H   0  0  0  0  0  0  0  0  0  0  0  0
    6.5546   -0.0823   19.7796 C   0  0  0  0  0  0  0  0  0  0  0  0
    7.2422   -0.8737   20.8394 C   0  0  0  0  0  0  0  0  0  0  0  0
    8.5505   -0.6371   21.0784 C   0  0  0  0  0  0  0  0  0  0  0  0
    9.0940    0.1382   20.5409 H   0  0  0  0  0  0  0  0  0  0  0  0
    9.2852   -1.3142   22.0428 N   0  0  0  0  0  0  0  0  0  0  0  0
   10.6616   -0.9310   22.2435 C   0  0  0  0  0  0  0  0  0  0  0  0
   11.7180   -1.8410   22.1329 C   0  0  0  0  0  0  0  0  0  0  0  0
   11.5149   -2.9022   22.0638 H   0  0  0  0  0  0  0  0  0  0  0  0
   13.0341   -1.3606   22.1639 C   0  0  0  0  0  0  0  0  0  0  0  0
   13.8626   -2.0497   22.0290 H   0  0  0  0  0  0  0  0  0  0  0  0
   13.2946   -0.0015   22.3531 C   0  0  0  0  0  0  0  0  0  0  0  0
   14.3266    0.3408   22.3572 H   0  0  0  0  0  0  0  0  0  0  0  0
   12.2290    0.9065   22.4973 C   0  0  0  0  0  0  0  0  0  0  0  0
   12.3928    2.3941   22.6863 C   0  0  0  0  0  0  0  0  0  0  0  0
   11.4589    3.1598   22.5384 O   0  0  0  0  0  0  0  0  0  0  0  0
   13.7218    2.9117   23.1411 C   0  0  0  0  0  0  0  0  0  0  0  0
   13.8654    2.5449   24.1563 H   0  0  0  0  0  0  0  0  0  0  0  0
   14.5521    2.4983   22.5671 H   0  0  0  0  0  0  0  0  0  0  0  0
   13.7263    4.0042   23.1013 H   0  0  0  0  0  0  0  0  0  0  0  0
   10.9171    0.4204   22.4455 C   0  0  0  0  0  0  0  0  0  0  0  0
   10.0711    1.0983   22.5331 H   0  0  0  0  0  0  0  0  0  0  0  0
    8.6569   -2.1757   22.9553 C   0  0  0  0  0  0  0  0  0  0  0  0
    9.2042   -2.7995   23.8291 O   0  0  0  0  0  0  0  0  0  0  0  0
    7.3070   -2.2635   22.7988 N   0  0  0  0  0  0  0  0  0  0  0  0
    6.9049   -2.9893   23.3581 H   0  0  0  0  0  0  0  0  0  0  0  0
    6.5765   -1.9115   21.6806 C   0  0  0  0  0  0  0  0  0  0  0  0
    5.5235   -2.4772   21.4945 O   0  0  0  0  0  0  0  0  0  0  0  0
    5.3478    0.5877   20.0261 C   0  0  0  0  0  0  0  0  0  0  0  0
    4.9042    0.5557   21.0202 H   0  0  0  0  0  0  0  0  0  0  0  0
    4.7649    1.3267   18.9927 C   0  0  0  0  0  0  0  0  0  0  0  0
    3.8437    1.8777   19.1409 H   0  0  0  0  0  0  0  0  0  0  0  0
  1  2  1  0
  2  3  2  0
  3  4  1  0
  4  5  1  0
  4  6  2  0
  6  7  1  0
  7  8  2  0
  8  9  1  0
  8 10  1  0
 10 11  1  0
 11 12  2  0
 12 13  1  0
 12 14  1  0
 14 15  1  0
 14 16  2  0
 16 17  1  0
 16 18  1  0
 18 19  1  0
 19 20  2  0
 19 21  1  0
 21 22  1  0
 21 23  1  0
 21 24  1  0
 18 25  2  0
 25 26  1  0
 10 27  1  0
 27 28  2  0
 27 29  1  0
 29 30  1  0
 29 31  1  0
 31 32  2  0
  6 33  1  0
 33 34  1  0
 33 35  2  0
 35 36  1  0
 35  2  1  0
 31  7  1  0
 25 11  1  0
M  END
>  <cnnaffinity>  (1) 
-5.40304

>  <filename>  (1) 
CC(=O)c1cccc(-n2cc(-c3cccnc3)c(=O)[nH]c2=O)c1

$$$$
