
     RDKit          3D

 33 34  0  0  0  0  0  0  0  0999 V2000
    5.7238   -1.8408   21.5074 H   0  0  0  0  0  0  0  0  0  0  0  0
    6.7541   -1.5791   21.7779 C   0  0  0  0  0  0  0  0  0  0  0  0
    7.4382   -0.7445   20.9694 C   0  0  0  0  0  0  0  0  0  0  0  0
    6.6830   -0.0357   19.8875 C   0  0  0  0  0  0  0  0  0  0  0  0
    7.1931    0.0570   18.5754 C   0  0  0  0  0  0  0  0  0  0  0  0
    8.1396   -0.4256   18.3439 H   0  0  0  0  0  0  0  0  0  0  0  0
    6.5976    0.6913   17.5591 N   0  0  0  0  0  0  0  0  0  0  0  0
    5.4333    1.3022   17.8258 C   0  0  0  0  0  0  0  0  0  0  0  0
    4.9665    1.8283   16.9944 H   0  0  0  0  0  0  0  0  0  0  0  0
    4.8261    1.2779   19.0881 C   0  0  0  0  0  0  0  0  0  0  0  0
    3.8869    1.7971   19.2358 H   0  0  0  0  0  0  0  0  0  0  0  0
    5.4495    0.5937   20.1332 C   0  0  0  0  0  0  0  0  0  0  0  0
    5.0126    0.5673   21.1339 H   0  0  0  0  0  0  0  0  0  0  0  0
    8.9381   -0.5133   21.0447 C   0  0  0  0  0  0  0  0  0  0  0  0
    9.5029   -1.3567   20.6225 H   0  0  0  0  0  0  0  0  0  0  0  0
    9.2727   -0.4010   22.0832 H   0  0  0  0  0  0  0  0  0  0  0  0
    9.2133    0.3898   20.4893 H   0  0  0  0  0  0  0  0  0  0  0  0
    7.2787   -2.2741   22.8955 N   0  0  0  0  0  0  0  0  0  0  0  0
    7.4850   -3.6597   22.8235 C   0  0  0  0  0  0  0  0  0  0  0  0
    7.5892   -4.2986   21.5674 C   0  0  0  0  0  0  0  0  0  0  0  0
    7.4379   -3.6969   20.6775 H   0  0  0  0  0  0  0  0  0  0  0  0
    7.8832   -5.6605   21.4698 C   0  0  0  0  0  0  0  0  0  0  0  0
    7.9763   -6.0950   20.4738 H   0  0  0  0  0  0  0  0  0  0  0  0
    8.0534   -6.4356   22.6247 C   0  0  0  0  0  0  0  0  0  0  0  0
    8.2694   -7.5046   22.5653 H   0  0  0  0  0  0  0  0  0  0  0  0
    7.9423   -5.8202   23.8769 C   0  0  0  0  0  0  0  0  0  0  0  0
    8.0924   -6.3896   24.7957 H   0  0  0  0  0  0  0  0  0  0  0  0
    7.6630   -4.4525   23.9802 C   0  0  0  0  0  0  0  0  0  0  0  0
    7.5953   -3.9958   24.9614 H   0  0  0  0  0  0  0  0  0  0  0  0
    7.4909   -1.5829   24.1610 C   0  0  0  0  0  0  0  0  0  0  0  0
    8.4495   -1.8986   24.5929 H   0  0  0  0  0  0  0  0  0  0  0  0
    6.6973   -1.8064   24.8934 H   0  0  0  0  0  0  0  0  0  0  0  0
    7.5195   -0.5016   23.9997 H   0  0  0  0  0  0  0  0  0  0  0  0
  1  2  1  0
  2  3  2  3
  3  4  1  0
  4  5  2  0
  5  6  1  0
  5  7  1  0
  7  8  2  0
  8  9  1  0
  8 10  1  0
 10 11  1  0
 10 12  2  0
 12 13  1  0
  3 14  1  0
 14 15  1  0
 14 16  1  0
 14 17  1  0
  2 18  1  0
 18 19  1  0
 19 20  2  0
 20 21  1  0
 20 22  1  0
 22 23  1  0
 22 24  2  0
 24 25  1  0
 24 26  1  0
 26 27  1  0
 26 28  2  0
 28 29  1  0
 18 30  1  0
 30 31  1  0
 30 32  1  0
 30 33  1  0
 12  4  1  0
 28 19  1  0
M  END
>  <cnnaffinity>  (1) 
-4.39972

>  <filename>  (1) 
CC(=CN(C)c1ccccc1)c1cccnc1

$$$$
