
     RDKit          3D

 34 36  0  0  0  0  0  0  0  0999 V2000
    4.9189    1.8049   16.9661 H   0  0  0  0  0  0  0  0  0  0  0  0
    5.3922    1.3055   17.8133 C   0  0  0  0  0  0  0  0  0  0  0  0
    6.5573    0.6855   17.5599 N   0  0  0  0  0  0  0  0  0  0  0  0
    7.1706    0.0715   18.5795 C   0  0  0  0  0  0  0  0  0  0  0  0
    8.1058   -0.4215   18.3225 H   0  0  0  0  0  0  0  0  0  0  0  0
    6.6682    0.0166   19.8922 C   0  0  0  0  0  0  0  0  0  0  0  0
    7.3417   -0.7060   20.9773 C   0  0  0  0  0  0  0  0  0  0  0  0
    6.8244   -1.2366   22.1020 C   0  0  0  0  0  0  0  0  0  0  0  0
    5.8063   -1.3066   22.4120 H   0  0  0  0  0  0  0  0  0  0  0  0
    7.8428   -1.7965   22.8536 N   0  0  0  0  0  0  0  0  0  0  0  0
    7.6417   -2.4441   24.1163 C   0  0  0  0  0  0  0  0  0  0  0  0
    6.8363   -1.8370   25.0872 C   0  0  0  0  0  0  0  0  0  0  0  0
    6.3643   -0.8816   24.8714 H   0  0  0  0  0  0  0  0  0  0  0  0
    6.6655   -2.4663   26.3232 C   0  0  0  0  0  0  0  0  0  0  0  0
    6.0447   -2.0003   27.0824 H   0  0  0  0  0  0  0  0  0  0  0  0
    7.2783   -3.6914   26.5803 C   0  0  0  0  0  0  0  0  0  0  0  0
    7.1483   -4.1850   27.5390 H   0  0  0  0  0  0  0  0  0  0  0  0
    8.0748   -4.3182   25.6021 C   0  0  0  0  0  0  0  0  0  0  0  0
    8.7187   -5.6459   25.9370 C   0  0  0  0  0  0  0  0  0  0  0  0
    8.5060   -6.1877   27.0033 O   0  0  0  0  0  0  0  0  0  0  0  0
    9.6252   -6.2872   24.9139 C   0  0  0  0  0  0  0  0  0  0  0  0
   10.4457   -5.6129   24.6490 H   0  0  0  0  0  0  0  0  0  0  0  0
    9.0683   -6.5084   23.9985 H   0  0  0  0  0  0  0  0  0  0  0  0
   10.0167   -7.2086   25.3436 H   0  0  0  0  0  0  0  0  0  0  0  0
    8.2487   -3.6790   24.3616 C   0  0  0  0  0  0  0  0  0  0  0  0
    8.8673   -4.0789   23.5613 H   0  0  0  0  0  0  0  0  0  0  0  0
    9.0394   -1.6170   22.1969 C   0  0  0  0  0  0  0  0  0  0  0  0
   10.6019   -2.0093   22.6095 S   0  0  0  0  0  0  0  0  0  0  0  0
    8.6966   -0.9785   21.0447 N   0  0  0  0  0  0  0  0  0  0  0  0
    9.4346   -0.6704   20.4362 H   0  0  0  0  0  0  0  0  0  0  0  0
    5.4418    0.6657   20.1306 C   0  0  0  0  0  0  0  0  0  0  0  0
    5.0100    0.6630   21.1308 H   0  0  0  0  0  0  0  0  0  0  0  0
    4.7987    1.3215   19.0810 C   0  0  0  0  0  0  0  0  0  0  0  0
    3.8630    1.8528   19.2280 H   0  0  0  0  0  0  0  0  0  0  0  0
  1  2  1  0
  2  3  2  0
  3  4  1  0
  4  5  1  0
  4  6  2  0
  6  7  1  0
  7  8  2  0
  8  9  1  0
  8 10  1  0
 10 11  1  0
 11 12  2  0
 12 13  1  0
 12 14  1  0
 14 15  1  0
 14 16  2  0
 16 17  1  0
 16 18  1  0
 18 19  1  0
 19 20  2  0
 19 21  1  0
 21 22  1  0
 21 23  1  0
 21 24  1  0
 18 25  2  0
 25 26  1  0
 10 27  1  0
 27 28  2  0
 27 29  1  0
 29 30  1  0
  6 31  1  0
 31 32  1  0
 31 33  2  0
 33 34  1  0
 33  2  1  0
 29  7  1  0
 25 11  1  0
M  END
>  <cnnaffinity>  (1) 
-5.57305

>  <filename>  (1) 
CC(=O)c1cccc(-n2cc(-c3cccnc3)[nH]c2=S)c1

$$$$
