
     RDKit          3D

 30 30  0  0  0  0  0  0  0  0999 V2000
    4.9441    1.7776   17.0039 H   0  0  0  0  0  0  0  0  0  0  0  0
    5.4115    1.2782   17.8507 C   0  0  0  0  0  0  0  0  0  0  0  0
    6.5786    0.6585   17.6076 N   0  0  0  0  0  0  0  0  0  0  0  0
    7.1878    0.0418   18.6299 C   0  0  0  0  0  0  0  0  0  0  0  0
    8.1340   -0.4495   18.4017 H   0  0  0  0  0  0  0  0  0  0  0  0
    6.6579    0.0181   19.9362 C   0  0  0  0  0  0  0  0  0  0  0  0
    7.3327   -0.7078   20.9230 O   0  0  0  0  0  0  0  0  0  0  0  0
    7.3472   -0.3022   22.2315 C   0  0  0  0  0  0  0  0  0  0  0  0
    6.9651    0.7733   22.6183 O   0  0  0  0  0  0  0  0  0  0  0  0
    7.9502   -1.3556   23.1404 C   0  0  0  0  0  0  0  0  0  0  0  0
    7.4998   -2.3261   22.9097 H   0  0  0  0  0  0  0  0  0  0  0  0
    7.6419   -1.0837   24.1565 H   0  0  0  0  0  0  0  0  0  0  0  0
    9.4915   -1.4535   23.0561 C   0  0  0  0  0  0  0  0  0  0  0  0
    9.8027   -1.6734   22.0248 H   0  0  0  0  0  0  0  0  0  0  0  0
    9.8353   -2.2905   23.6780 H   0  0  0  0  0  0  0  0  0  0  0  0
   10.2100   -0.1721   23.5297 C   0  0  0  0  0  0  0  0  0  0  0  0
    9.8786    0.6761   22.9136 H   0  0  0  0  0  0  0  0  0  0  0  0
    9.9549    0.0548   24.5728 H   0  0  0  0  0  0  0  0  0  0  0  0
   11.6618   -0.2720   23.4337 N   0  0  0  0  0  0  0  0  0  0  0  0
   12.2264   -0.4147   24.2513 H   0  0  0  0  0  0  0  0  0  0  0  0
   12.2855   -0.2707   22.2276 C   0  0  0  0  0  0  0  0  0  0  0  0
   11.6601   -0.1161   21.1921 O   0  0  0  0  0  0  0  0  0  0  0  0
   13.7947   -0.4476   22.2700 C   0  0  0  0  0  0  0  0  0  0  0  0
   14.1308   -1.2776   22.8953 H   0  0  0  0  0  0  0  0  0  0  0  0
   14.2906    0.4599   22.6290 H   0  0  0  0  0  0  0  0  0  0  0  0
   14.1320   -0.6458   21.2555 H   0  0  0  0  0  0  0  0  0  0  0  0
    5.4408    0.6519   20.1811 C   0  0  0  0  0  0  0  0  0  0  0  0
    5.0156    0.6431   21.1797 H   0  0  0  0  0  0  0  0  0  0  0  0
    4.8130    1.2946   19.1116 C   0  0  0  0  0  0  0  0  0  0  0  0
    3.8823    1.8271   19.2571 H   0  0  0  0  0  0  0  0  0  0  0  0
  1  2  1  0
  2  3  2  0
  3  4  1  0
  4  5  1  0
  4  6  2  0
  6  7  1  0
  7  8  1  0
  8  9  2  0
  8 10  1  0
 10 11  1  0
 10 12  1  0
 10 13  1  0
 13 14  1  0
 13 15  1  0
 13 16  1  0
 16 17  1  0
 16 18  1  0
 16 19  1  0
 19 20  1  0
 19 21  1  0
 21 22  2  0
 21 23  1  0
 23 24  1  0
 23 25  1  0
 23 26  1  0
  6 27  1  0
 27 28  1  0
 27 29  2  0
 29 30  1  0
 29  2  1  0
M  END
>  <cnnaffinity>  (1) 
-4.17547

>  <filename>  (1) 
CC(=O)NCCCC(=O)Oc1cccnc1

$$$$
