
     RDKit          3D

 23 24  0  0  0  0  0  0  0  0999 V2000
    4.9231    1.7789   17.0003 H   0  0  0  0  0  0  0  0  0  0  0  0
    5.4067    1.2879   17.8422 C   0  0  0  0  0  0  0  0  0  0  0  0
    6.5684    0.6723   17.5813 N   0  0  0  0  0  0  0  0  0  0  0  0
    7.1832    0.0567   18.5978 C   0  0  0  0  0  0  0  0  0  0  0  0
    8.1263   -0.4257   18.3653 H   0  0  0  0  0  0  0  0  0  0  0  0
    6.6756    0.0003   19.9063 C   0  0  0  0  0  0  0  0  0  0  0  0
    7.4075   -0.7259   20.9763 C   0  0  0  0  0  0  0  0  0  0  0  0
    8.5907   -1.2730   20.8002 N   0  0  0  0  0  0  0  0  0  0  0  0
    8.9260   -1.8466   22.0284 O   0  0  0  0  0  0  0  0  0  0  0  0
    7.9398   -1.6078   22.8829 C   0  0  0  0  0  0  0  0  0  0  0  0
    8.1122   -2.1513   24.1222 O   0  0  0  0  0  0  0  0  0  0  0  0
    7.2791   -1.7374   25.1382 C   0  0  0  0  0  0  0  0  0  0  0  0
    6.5486   -0.7887   25.0409 O   0  0  0  0  0  0  0  0  0  0  0  0
    7.4186   -2.5636   26.3902 C   0  0  0  0  0  0  0  0  0  0  0  0
    6.4597   -2.5595   26.9081 H   0  0  0  0  0  0  0  0  0  0  0  0
    7.7493   -3.5908   26.2293 H   0  0  0  0  0  0  0  0  0  0  0  0
    8.1127   -2.0721   27.0749 H   0  0  0  0  0  0  0  0  0  0  0  0
    6.9400   -0.9159   22.2992 C   0  0  0  0  0  0  0  0  0  0  0  0
    6.0346   -0.6078   22.7668 H   0  0  0  0  0  0  0  0  0  0  0  0
    5.4513    0.6466   20.1596 C   0  0  0  0  0  0  0  0  0  0  0  0
    5.0060    0.6397   21.1586 H   0  0  0  0  0  0  0  0  0  0  0  0
    4.8132    1.3045   19.1101 C   0  0  0  0  0  0  0  0  0  0  0  0
    3.8804    1.8376   19.2613 H   0  0  0  0  0  0  0  0  0  0  0  0
  1  2  1  0
  2  3  2  0
  3  4  1  0
  4  5  1  0
  4  6  2  0
  6  7  1  0
  7  8  2  0
  8  9  1  0
  9 10  1  0
 10 11  1  0
 11 12  1  0
 12 13  2  0
 12 14  1  0
 14 15  1  0
 14 16  1  0
 14 17  1  0
 10 18  2  0
 18 19  1  0
  6 20  1  0
 20 21  1  0
 20 22  2  0
 22 23  1  0
 22  2  1  0
 18  7  1  0
M  END
>  <cnnaffinity>  (1) 
-4.15004

>  <filename>  (1) 
CC(=O)Oc1cc(-c2cccnc2)no1

$$$$
