
     RDKit          3D

 52 54  0  0  0  0  0  0  0  0999 V2000
   12.9633    2.4772   23.5125 C   0  0  0  0  0  0  0  0  0  0  0  0
   11.4802    2.7829   23.3202 C   0  0  0  0  0  0  0  0  0  0  0  0
   10.7910    2.9838   24.3106 O   0  0  0  0  0  0  0  0  0  0  0  0
   10.9616    2.8299   22.0444 N   0  0  0  0  0  0  0  0  0  0  0  0
   11.8002    2.6388   20.8723 C   0  0  0  0  0  0  0  0  0  0  0  0
   12.4496    3.5022   20.6878 H   0  0  0  0  0  0  0  0  0  0  0  0
   12.4323    1.7535   20.9758 H   0  0  0  0  0  0  0  0  0  0  0  0
   11.2016    2.4831   19.9778 H   0  0  0  0  0  0  0  0  0  0  0  0
    9.4964    2.8309   21.9031 C   0  0  0  0  0  0  0  0  0  0  0  0
    8.8531    1.4826   22.1944 C   0  0  0  0  0  0  0  0  0  0  0  0
    9.2384    0.3823   21.1809 C   0  0  0  0  0  0  0  0  0  0  0  0
    8.4486   -0.8712   21.3841 C   0  0  0  0  0  0  0  0  0  0  0  0
    8.7032   -1.7559   22.3261 N   0  0  0  0  0  0  0  0  0  0  0  0
    7.5504   -2.4752   22.4049 C   0  0  0  0  0  0  0  0  0  0  0  0
    7.3333   -3.4339   23.5498 C   0  0  0  0  0  0  0  0  0  0  0  0
    7.2675   -2.6079   24.8707 C   0  0  0  0  0  0  0  0  0  0  0  0
    7.1416   -3.4758   26.1293 C   0  0  0  0  0  0  0  0  0  0  0  0
    8.1959   -4.5720   26.1767 C   0  0  0  0  0  0  0  0  0  0  0  0
    9.4257   -4.0033   26.4182 F   0  0  0  0  0  0  0  0  0  0  0  0
    7.9389   -5.3993   27.2394 F   0  0  0  0  0  0  0  0  0  0  0  0
    8.2719   -5.3968   24.8991 C   0  0  0  0  0  0  0  0  0  0  0  0
    8.4281   -4.5293   23.6355 C   0  0  0  0  0  0  0  0  0  0  0  0
    8.3931   -5.1720   22.7464 H   0  0  0  0  0  0  0  0  0  0  0  0
    9.4161   -4.0527   23.6358 H   0  0  0  0  0  0  0  0  0  0  0  0
    9.1006   -6.1038   25.0023 H   0  0  0  0  0  0  0  0  0  0  0  0
    7.3477   -5.9827   24.8462 H   0  0  0  0  0  0  0  0  0  0  0  0
    6.1597   -3.9602   26.1746 H   0  0  0  0  0  0  0  0  0  0  0  0
    7.2479   -2.8691   27.0348 H   0  0  0  0  0  0  0  0  0  0  0  0
    8.1876   -2.0138   24.9443 H   0  0  0  0  0  0  0  0  0  0  0  0
    6.4363   -1.8915   24.8193 H   0  0  0  0  0  0  0  0  0  0  0  0
    6.3618   -3.9085   23.3718 H   0  0  0  0  0  0  0  0  0  0  0  0
    6.6247   -2.1264   21.5368 N   0  0  0  0  0  0  0  0  0  0  0  0
    7.2217   -1.1201   20.8391 N   0  0  0  0  0  0  0  0  0  0  0  0
    6.5357   -0.3961   19.8122 C   0  0  0  0  0  0  0  0  0  0  0  0
    5.3879    0.3473   20.1121 C   0  0  0  0  0  0  0  0  0  0  0  0
    4.8766    1.1910   19.1189 C   0  0  0  0  0  0  0  0  0  0  0  0
    5.5071    1.2344   17.8679 C   0  0  0  0  0  0  0  0  0  0  0  0
    6.5651    0.4705   17.5521 N   0  0  0  0  0  0  0  0  0  0  0  0
    7.0503   -0.3359   18.5048 C   0  0  0  0  0  0  0  0  0  0  0  0
    7.8975   -0.9624   18.2297 H   0  0  0  0  0  0  0  0  0  0  0  0
    5.1538    1.9024   17.0847 H   0  0  0  0  0  0  0  0  0  0  0  0
    4.0126    1.8225   19.3057 H   0  0  0  0  0  0  0  0  0  0  0  0
    4.9288    0.2601   21.0990 H   0  0  0  0  0  0  0  0  0  0  0  0
   10.2976    0.1325   21.2934 H   0  0  0  0  0  0  0  0  0  0  0  0
    9.1047    0.7409   20.1547 H   0  0  0  0  0  0  0  0  0  0  0  0
    7.7651    1.6238   22.1882 H   0  0  0  0  0  0  0  0  0  0  0  0
    9.1187    1.1801   23.2116 H   0  0  0  0  0  0  0  0  0  0  0  0
    9.0840    3.5989   22.5633 H   0  0  0  0  0  0  0  0  0  0  0  0
    9.2272    3.1030   20.8778 H   0  0  0  0  0  0  0  0  0  0  0  0
   13.4313    1.8675   22.7367 H   0  0  0  0  0  0  0  0  0  0  0  0
   13.5062    3.4270   23.5994 H   0  0  0  0  0  0  0  0  0  0  0  0
   13.0401    1.9389   24.4585 H   0  0  0  0  0  0  0  0  0  0  0  0
  1  2  1  0
  2  3  2  0
  2  4  1  0
  4  5  1  0
  5  6  1  0
  5  7  1  0
  5  8  1  0
  4  9  1  0
  9 10  1  0
 10 11  1  0
 11 12  1  0
 12 13  2  0
 13 14  1  0
 14 15  1  0
 15 16  1  0
 16 17  1  0
 17 18  1  0
 18 19  1  0
 18 20  1  0
 18 21  1  0
 21 22  1  0
 22 23  1  0
 22 24  1  0
 21 25  1  0
 21 26  1  0
 17 27  1  0
 17 28  1  0
 16 29  1  0
 16 30  1  0
 15 31  1  0
 14 32  2  0
 32 33  1  0
 33 34  1  0
 34 35  2  0
 35 36  1  0
 36 37  2  0
 37 38  1  0
 38 39  2  0
 39 40  1  0
 37 41  1  0
 36 42  1  0
 35 43  1  0
 11 44  1  0
 11 45  1  0
 10 46  1  0
 10 47  1  0
  9 48  1  0
  9 49  1  0
  1 50  1  0
  1 51  1  0
  1 52  1  0
 33 12  1  0
 39 34  1  0
 22 15  1  0
M  END
>  <cnnaffinity>  (1) 
-6.40618

>  <filename>  (1) 
CC(=O)N(C)CCCc1nc(C2CCC(F)(F)CC2)nn1-c1cccnc1

$$$$
