
     RDKit          3D

 39 41  0  0  0  0  0  0  0  0999 V2000
    4.5637    2.2491   24.7566 C   0  0  0  0  0  0  0  0  0  0  0  0
    5.6719    2.5093   23.7355 C   0  0  0  0  0  0  0  0  0  0  0  0
    6.0230    1.1478   23.2209 N   0  0  0  0  0  4  0  0  0  0  0  0
    7.3040    1.1202   22.4953 C   0  0  0  0  0  0  0  0  0  0  0  0
    7.5758   -0.2961   22.1238 C   0  0  0  0  0  0  0  0  0  0  0  0
    8.3774   -1.2064   22.7462 C   0  0  0  0  0  0  0  0  0  0  0  0
    8.4640   -2.3260   21.8386 C   0  0  0  0  0  0  0  0  0  0  0  0
    7.7761   -2.0867   20.7498 N   0  0  0  0  0  0  0  0  0  0  0  0
    7.2072   -0.8560   20.9131 N   0  0  0  0  0  0  0  0  0  0  0  0
    6.5817   -0.1359   19.8970 C   0  0  0  0  0  0  0  0  0  0  0  0
    5.5245    0.7452   20.1502 C   0  0  0  0  0  0  0  0  0  0  0  0
    5.0003    1.4608   19.0769 C   0  0  0  0  0  0  0  0  0  0  0  0
    5.5284    1.2860   17.7933 C   0  0  0  0  0  0  0  0  0  0  0  0
    6.5517    0.4481   17.5492 N   0  0  0  0  0  0  0  0  0  0  0  0
    7.0617   -0.2451   18.5845 C   0  0  0  0  0  0  0  0  0  0  0  0
    7.9133   -0.8882   18.3962 H   0  0  0  0  0  0  0  0  0  0  0  0
    5.0896    1.8467   16.9731 H   0  0  0  0  0  0  0  0  0  0  0  0
    4.1877    2.1634   19.2197 H   0  0  0  0  0  0  0  0  0  0  0  0
    5.1115    0.8716   21.1490 H   0  0  0  0  0  0  0  0  0  0  0  0
    9.0593   -3.2181   22.0119 H   0  0  0  0  0  0  0  0  0  0  0  0
    8.8869   -1.1096   23.6976 H   0  0  0  0  0  0  0  0  0  0  0  0
    7.2793    1.7352   21.5862 H   0  0  0  0  0  0  0  0  0  0  0  0
    8.1239    1.5028   23.1116 H   0  0  0  0  0  0  0  0  0  0  0  0
    5.2889    0.8088   22.6009 H   0  0  0  0  0  0  0  0  0  0  0  0
    6.0805    0.4911   23.9995 H   0  0  0  0  0  0  0  0  0  0  0  0
    6.8112    3.3324   24.3740 C   0  0  0  0  0  0  0  0  0  0  0  0
    7.3460    2.9340   25.6073 C   0  0  0  0  0  0  0  0  0  0  0  0
    8.3714    3.6532   26.2055 C   0  0  0  0  0  0  0  0  0  0  0  0
    8.8367    4.7869   25.5462 C   0  0  0  0  0  0  0  0  0  0  0  0
    8.2913    5.1387   24.3109 C   0  0  0  0  0  0  0  0  0  0  0  0
    9.0138    6.6632   23.4120 Br  0  0  0  0  0  0  0  0  0  0  0  0
    7.2926    4.4314   23.7467 N   0  0  0  0  0  0  0  0  0  0  0  0
    9.6202    5.4072   25.9633 H   0  0  0  0  0  0  0  0  0  0  0  0
    8.7833    3.3299   27.1573 H   0  0  0  0  0  0  0  0  0  0  0  0
    6.9470    2.0565   26.1014 H   0  0  0  0  0  0  0  0  0  0  0  0
    5.2748    3.1272   22.9213 H   0  0  0  0  0  0  0  0  0  0  0  0
    4.9601    1.6974   25.6118 H   0  0  0  0  0  0  0  0  0  0  0  0
    4.1423    3.1878   25.1226 H   0  0  0  0  0  0  0  0  0  0  0  0
    3.7560    1.6625   24.3171 H   0  0  0  0  0  0  0  0  0  0  0  0
  1  2  1  0
  2  3  1  0
  3  4  1  0
  4  5  1  0
  5  6  2  0
  6  7  1  0
  7  8  2  0
  8  9  1  0
  9 10  1  0
 10 11  2  0
 11 12  1  0
 12 13  2  0
 13 14  1  0
 14 15  2  0
 15 16  1  0
 13 17  1  0
 12 18  1  0
 11 19  1  0
  7 20  1  0
  6 21  1  0
  4 22  1  0
  4 23  1  0
  3 24  1  0
  3 25  1  0
  2 26  1  0
 26 27  2  0
 27 28  1  0
 28 29  2  0
 29 30  1  0
 30 31  1  0
 30 32  2  0
 29 33  1  0
 28 34  1  0
 27 35  1  0
  2 36  1  0
  1 37  1  0
  1 38  1  0
  1 39  1  0
  9  5  1  0
 15 10  1  0
 32 26  1  0
M  CHG  1   3   1
M  END
>  <cnnaffinity>  (1) 
-5.69708

>  <filename>  (1) 
CC([NH2+]Cc1ccnn1-c1cccnc1)c1cccc(Br)n1

$$$$
