
     RDKit          3D

 45 48  0  0  0  0  0  0  0  0999 V2000
    8.1880    2.5150   21.6483 C   0  0  0  0  0  0  0  0  0  0  0  0
    9.5044    1.7860   21.8718 C   0  0  0  0  0  0  0  0  0  0  0  0
    9.5984    0.5057   20.9899 C   0  0  0  0  0  0  0  0  0  0  0  0
    8.6456   -0.5820   21.3612 C   0  0  0  0  0  0  0  0  0  0  0  0
    8.8746   -1.4839   22.2932 N   0  0  0  0  0  0  0  0  0  0  0  0
    7.6645   -2.0585   22.4746 C   0  0  0  0  0  0  0  0  0  0  0  0
    7.4185   -3.0012   23.6057 C   0  0  0  0  0  0  0  0  0  0  0  0
    6.6489   -2.3781   24.8067 C   0  0  0  0  0  0  0  0  0  0  0  0
    5.9013   -3.5843   25.3980 C   0  0  0  0  0  0  0  0  0  0  0  0
    5.8796   -4.5982   24.4040 O   0  0  0  0  0  0  0  0  0  0  0  0
    6.5246   -4.1871   23.2170 C   0  0  0  0  0  0  0  0  0  0  0  0
    5.7944   -3.8922   22.4451 H   0  0  0  0  0  0  0  0  0  0  0  0
    7.0877   -5.0440   22.8285 H   0  0  0  0  0  0  0  0  0  0  0  0
    6.3877   -3.9859   26.2971 H   0  0  0  0  0  0  0  0  0  0  0  0
    4.8690   -3.3403   25.6789 H   0  0  0  0  0  0  0  0  0  0  0  0
    5.9303   -1.6251   24.4520 H   0  0  0  0  0  0  0  0  0  0  0  0
    7.3048   -1.8781   25.5329 H   0  0  0  0  0  0  0  0  0  0  0  0
    8.4082   -3.3492   23.9241 H   0  0  0  0  0  0  0  0  0  0  0  0
    6.7137   -1.6288   21.6632 N   0  0  0  0  0  0  0  0  0  0  0  0
    7.3571   -0.6939   20.9155 N   0  0  0  0  0  0  0  0  0  0  0  0
    6.6574   -0.0066   19.8902 C   0  0  0  0  0  0  0  0  0  0  0  0
    5.4412    0.6314   20.1581 C   0  0  0  0  0  0  0  0  0  0  0  0
    4.8074    1.3068   19.1075 C   0  0  0  0  0  0  0  0  0  0  0  0
    5.3968    1.2965   17.8380 C   0  0  0  0  0  0  0  0  0  0  0  0
    6.5506    0.6658   17.5704 N   0  0  0  0  0  0  0  0  0  0  0  0
    7.1621    0.0378   18.5808 C   0  0  0  0  0  0  0  0  0  0  0  0
    8.1050   -0.4542   18.3474 H   0  0  0  0  0  0  0  0  0  0  0  0
    4.9296    1.8083   16.9996 H   0  0  0  0  0  0  0  0  0  0  0  0
    3.8753    1.8429   19.2589 H   0  0  0  0  0  0  0  0  0  0  0  0
    5.0158    0.5960   21.1616 H   0  0  0  0  0  0  0  0  0  0  0  0
   10.6016    0.0786   21.0450 H   0  0  0  0  0  0  0  0  0  0  0  0
    9.4074    0.7979   19.9588 H   0  0  0  0  0  0  0  0  0  0  0  0
    9.7435    1.5269   23.2897 N   0  0  0  0  0  0  0  0  0  0  0  0
   10.9830    1.4064   23.8608 C   0  0  0  0  0  0  0  0  0  0  0  0
   10.8340    0.9704   25.1522 C   0  0  0  0  0  0  0  0  0  0  0  0
    9.4396    0.8128   25.3809 C   0  0  0  0  0  0  0  0  0  0  0  0
    8.8039    1.1497   24.2158 C   0  0  0  0  0  0  0  0  0  0  0  0
    7.7715    1.0781   23.9160 H   0  0  0  0  0  0  0  0  0  0  0  0
    8.9535    0.4668   26.2871 H   0  0  0  0  0  0  0  0  0  0  0  0
   11.6363    0.7367   25.8347 H   0  0  0  0  0  0  0  0  0  0  0  0
   11.8609    1.6357   23.2757 H   0  0  0  0  0  0  0  0  0  0  0  0
   10.3284    2.4439   21.5650 H   0  0  0  0  0  0  0  0  0  0  0  0
    7.3269    1.9369   22.0010 H   0  0  0  0  0  0  0  0  0  0  0  0
    8.1818    3.4813   22.1624 H   0  0  0  0  0  0  0  0  0  0  0  0
    8.0800    2.6457   20.5749 H   0  0  0  0  0  0  0  0  0  0  0  0
  1  2  1  0
  2  3  1  0
  3  4  1  0
  4  5  2  0
  5  6  1  0
  6  7  1  0
  7  8  1  0
  8  9  1  0
  9 10  1  0
 10 11  1  0
 11 12  1  0
 11 13  1  0
  9 14  1  0
  9 15  1  0
  8 16  1  0
  8 17  1  0
  7 18  1  0
  6 19  2  0
 19 20  1  0
 20 21  1  0
 21 22  2  0
 22 23  1  0
 23 24  2  0
 24 25  1  0
 25 26  2  0
 26 27  1  0
 24 28  1  0
 23 29  1  0
 22 30  1  0
  3 31  1  0
  3 32  1  0
  2 33  1  0
 33 34  1  0
 34 35  2  0
 35 36  1  0
 36 37  2  0
 37 38  1  0
 36 39  1  0
 35 40  1  0
 34 41  1  0
  2 42  1  0
  1 43  1  0
  1 44  1  0
  1 45  1  0
 20  4  1  0
 26 21  1  0
 37 33  1  0
 11  7  1  0
M  END
>  <cnnaffinity>  (1) 
-5.80113

>  <filename>  (1) 
CC(Cc1nc(C2CCOC2)nn1-c1cccnc1)n1cccc1

$$$$
