
     RDKit          3D

 48 50  0  0  0  0  0  0  0  0999 V2000
    9.7413   -0.6193   26.3591 C   0  0  0  0  0  0  0  0  0  0  0  0
    8.3448    0.0166   26.2231 C   0  0  0  0  0  0  0  0  0  0  0  0
    7.8693    0.6235   27.5578 C   0  0  0  0  0  0  0  0  0  0  0  0
    8.3366    1.5986   27.7326 H   0  0  0  0  0  0  0  0  0  0  0  0
    8.1393   -0.0264   28.3971 H   0  0  0  0  0  0  0  0  0  0  0  0
    6.7833    0.7637   27.5776 H   0  0  0  0  0  0  0  0  0  0  0  0
    8.3503    1.1130   25.1361 C   0  0  0  0  0  0  0  0  0  0  0  0
    9.2429    1.9461   25.1113 O   0  0  0  0  0  0  0  0  0  0  0  0
    7.3336    1.1278   24.1858 N   0  0  0  0  0  0  0  0  0  0  0  0
    6.0764    0.4172   24.3760 C   0  0  0  0  0  0  0  0  0  0  0  0
    5.6770    0.6014   25.3810 H   0  0  0  0  0  0  0  0  0  0  0  0
    6.1710   -0.6713   24.2450 H   0  0  0  0  0  0  0  0  0  0  0  0
    5.3318    0.7834   23.6610 H   0  0  0  0  0  0  0  0  0  0  0  0
    7.6400    1.7998   22.8946 C   0  0  0  0  0  0  0  0  0  0  0  0
    8.6868    1.0723   22.0758 C   0  0  0  0  0  0  0  0  0  0  0  0
    9.9903    1.2562   22.1701 N   0  0  0  0  0  0  0  0  0  0  0  0
   10.5188    0.1221   21.6353 C   0  0  0  0  0  0  0  0  0  0  0  0
   11.9664   -0.2357   21.8480 C   0  0  0  0  0  0  0  0  0  0  0  0
   12.5724   -1.3716   21.2707 C   0  0  0  0  0  0  0  0  0  0  0  0
   13.8725   -1.7234   21.6362 C   0  0  0  0  0  0  0  0  0  0  0  0
   14.5951   -1.0590   22.5441 N   0  0  0  0  0  0  0  0  0  0  0  0
   14.0328    0.0225   23.0897 C   0  0  0  0  0  0  0  0  0  0  0  0
   12.7691    0.5013   22.7477 C   0  0  0  0  0  0  0  0  0  0  0  0
   12.4178    1.4241   23.2005 H   0  0  0  0  0  0  0  0  0  0  0  0
   14.6012    0.5215   23.8717 H   0  0  0  0  0  0  0  0  0  0  0  0
   14.3395   -2.5922   21.1776 H   0  0  0  0  0  0  0  0  0  0  0  0
   12.0485   -2.0242   20.5895 H   0  0  0  0  0  0  0  0  0  0  0  0
    9.6033   -0.6933   21.1282 N   0  0  0  0  0  0  0  0  0  0  0  0
    8.4353   -0.0742   21.4075 N   0  0  0  0  0  0  0  0  0  0  0  0
    7.1531   -0.6670   21.0300 C   0  0  0  0  0  0  0  0  0  0  0  0
    6.4379    0.0579   19.9066 C   0  0  0  0  0  0  0  0  0  0  0  0
    5.2095    0.7181   20.0444 C   0  0  0  0  0  0  0  0  0  0  0  0
    4.6780    1.3901   18.9376 C   0  0  0  0  0  0  0  0  0  0  0  0
    5.3861    1.3652   17.7325 C   0  0  0  0  0  0  0  0  0  0  0  0
    6.5430    0.7044   17.5703 N   0  0  0  0  0  0  0  0  0  0  0  0
    7.0436    0.0769   18.6397 C   0  0  0  0  0  0  0  0  0  0  0  0
    7.9844   -0.4515   18.4909 H   0  0  0  0  0  0  0  0  0  0  0  0
    5.0131    1.8981   16.8586 H   0  0  0  0  0  0  0  0  0  0  0  0
    3.7513    1.9506   18.9980 H   0  0  0  0  0  0  0  0  0  0  0  0
    4.6706    0.7188   20.9959 H   0  0  0  0  0  0  0  0  0  0  0  0
    7.3793   -1.6997   20.7455 H   0  0  0  0  0  0  0  0  0  0  0  0
    6.5178   -0.7119   21.9213 H   0  0  0  0  0  0  0  0  0  0  0  0
    6.7210    1.9144   22.3087 H   0  0  0  0  0  0  0  0  0  0  0  0
    8.0397    2.7945   23.1131 H   0  0  0  0  0  0  0  0  0  0  0  0
    7.6471   -0.7721   25.9189 H   0  0  0  0  0  0  0  0  0  0  0  0
    9.7418   -1.3642   27.1661 H   0  0  0  0  0  0  0  0  0  0  0  0
   10.4930    0.1432   26.5936 H   0  0  0  0  0  0  0  0  0  0  0  0
   10.0504   -1.1268   25.4362 H   0  0  0  0  0  0  0  0  0  0  0  0
  1  2  1  0
  2  3  1  0
  3  4  1  0
  3  5  1  0
  3  6  1  0
  2  7  1  0
  7  8  2  0
  7  9  1  0
  9 10  1  0
 10 11  1  0
 10 12  1  0
 10 13  1  0
  9 14  1  0
 14 15  1  0
 15 16  2  0
 16 17  1  0
 17 18  1  0
 18 19  2  0
 19 20  1  0
 20 21  2  0
 21 22  1  0
 22 23  2  0
 23 24  1  0
 22 25  1  0
 20 26  1  0
 19 27  1  0
 17 28  2  0
 28 29  1  0
 29 30  1  0
 30 31  1  0
 31 32  2  0
 32 33  1  0
 33 34  2  0
 34 35  1  0
 35 36  2  0
 36 37  1  0
 34 38  1  0
 33 39  1  0
 32 40  1  0
 30 41  1  0
 30 42  1  0
 14 43  1  0
 14 44  1  0
  2 45  1  0
  1 46  1  0
  1 47  1  0
  1 48  1  0
 29 15  1  0
 36 31  1  0
 23 18  1  0
M  END
>  <cnnaffinity>  (1) 
-6.44089

>  <filename>  (1) 
CC(C)C(=O)N(C)Cc1nc(-c2ccncc2)nn1Cc1cccnc1

$$$$
