
     RDKit          3D

 42 43  0  0  0  0  0  0  0  0999 V2000
    4.9512    1.6555   16.9720 H   0  0  0  0  0  0  0  0  0  0  0  0
    5.4019    1.1610   17.8283 C   0  0  0  0  0  0  0  0  0  0  0  0
    6.5555    0.5197   17.5952 N   0  0  0  0  0  0  0  0  0  0  0  0
    7.1606   -0.0638   18.6410 C   0  0  0  0  0  0  0  0  0  0  0  0
    8.0897   -0.5818   18.4165 H   0  0  0  0  0  0  0  0  0  0  0  0
    6.6668   -0.0383   19.9804 C   0  0  0  0  0  0  0  0  0  0  0  0
    7.3436   -0.4968   21.1171 N   0  0  0  0  0  0  0  0  0  0  0  0
    6.8971   -1.1568   21.7348 H   0  0  0  0  0  0  0  0  0  0  0  0
    8.7577   -0.4584   21.3855 C   0  0  0  0  0  0  0  0  0  0  0  0
    8.6666   -0.6788   22.8123 N   0  0  0  0  0  0  0  0  0  0  0  0
    7.8552   -0.1866   23.1311 H   0  0  0  0  0  0  0  0  0  0  0  0
    9.7410   -0.5874   23.6388 C   0  0  0  0  0  0  0  0  0  0  0  0
   10.8944   -0.6474   23.2468 O   0  0  0  0  0  0  0  0  0  0  0  0
    9.3618   -0.4905   25.1151 C   0  0  0  0  0  0  0  0  0  0  0  0
   10.3145   -0.3790   25.6439 H   0  0  0  0  0  0  0  0  0  0  0  0
    8.5000    0.7593   25.4351 C   0  0  0  0  0  0  0  0  0  0  0  0
    7.5577    0.7426   24.8693 H   0  0  0  0  0  0  0  0  0  0  0  0
    9.0206    1.6689   25.1172 H   0  0  0  0  0  0  0  0  0  0  0  0
    8.1061    0.7879   26.9111 C   0  0  0  0  0  0  0  0  0  0  0  0
    8.9989    0.7500   27.5329 H   0  0  0  0  0  0  0  0  0  0  0  0
    7.5691    1.7058   27.1715 H   0  0  0  0  0  0  0  0  0  0  0  0
    7.3051   -0.4750   27.2339 C   0  0  0  0  0  0  0  0  0  0  0  0
    6.8902   -0.4380   28.2442 H   0  0  0  0  0  0  0  0  0  0  0  0
    6.4524   -0.5442   26.5384 H   0  0  0  0  0  0  0  0  0  0  0  0
    8.2086   -1.7038   27.0556 C   0  0  0  0  0  0  0  0  0  0  0  0
    9.0982   -1.6192   27.7011 H   0  0  0  0  0  0  0  0  0  0  0  0
    7.6725   -2.6109   27.3547 H   0  0  0  0  0  0  0  0  0  0  0  0
    8.6952   -1.8116   25.6068 C   0  0  0  0  0  0  0  0  0  0  0  0
    9.4121   -2.6358   25.5045 H   0  0  0  0  0  0  0  0  0  0  0  0
    7.8442   -2.0712   24.9617 H   0  0  0  0  0  0  0  0  0  0  0  0
    9.5060   -1.5726   20.6770 C   0  0  0  0  0  0  0  0  0  0  0  0
    9.2985   -1.5041   19.6084 H   0  0  0  0  0  0  0  0  0  0  0  0
    9.1815   -2.5497   21.0434 H   0  0  0  0  0  0  0  0  0  0  0  0
   10.5784   -1.4628   20.8429 H   0  0  0  0  0  0  0  0  0  0  0  0
    9.3577    0.9025   21.0524 C   0  0  0  0  0  0  0  0  0  0  0  0
    9.4626    0.9774   19.9706 H   0  0  0  0  0  0  0  0  0  0  0  0
   10.3376    0.9955   21.5233 H   0  0  0  0  0  0  0  0  0  0  0  0
    8.6907    1.6938   21.4119 H   0  0  0  0  0  0  0  0  0  0  0  0
    5.4157    0.5751   20.1714 C   0  0  0  0  0  0  0  0  0  0  0  0
    4.9938    0.5842   21.1776 H   0  0  0  0  0  0  0  0  0  0  0  0
    4.7909    1.2008   19.0874 C   0  0  0  0  0  0  0  0  0  0  0  0
    3.8573    1.7373   19.2139 H   0  0  0  0  0  0  0  0  0  0  0  0
  1  2  1  0
  2  3  2  0
  3  4  1  0
  4  5  1  0
  4  6  2  0
  6  7  1  0
  7  8  1  0
  7  9  1  0
  9 10  1  0
 10 11  1  0
 10 12  1  0
 12 13  2  0
 12 14  1  0
 14 15  1  0
 14 16  1  0
 16 17  1  0
 16 18  1  0
 16 19  1  0
 19 20  1  0
 19 21  1  0
 19 22  1  0
 22 23  1  0
 22 24  1  0
 22 25  1  0
 25 26  1  0
 25 27  1  0
 25 28  1  0
 28 29  1  0
 28 30  1  0
  9 31  1  0
 31 32  1  0
 31 33  1  0
 31 34  1  0
  9 35  1  0
 35 36  1  0
 35 37  1  0
 35 38  1  0
  6 39  1  0
 39 40  1  0
 39 41  2  0
 41 42  1  0
 41  2  1  0
 28 14  1  0
M  END
>  <cnnaffinity>  (1) 
-4.32269

>  <filename>  (1) 
CC(C)(NC(=O)C1CCCCC1)Nc1cccnc1

$$$$
