
     RDKit          3D

 31 32  0  0  0  0  0  0  0  0999 V2000
    4.9487    1.6565   16.9461 H   0  0  0  0  0  0  0  0  0  0  0  0
    5.5203    1.2164   17.7625 C   0  0  0  0  0  0  0  0  0  0  0  0
    6.6501    0.5763   17.4269 N   0  0  0  0  0  0  0  0  0  0  0  0
    7.4005    0.0935   18.4174 C   0  0  0  0  0  0  0  0  0  0  0  0
    8.3104   -0.4310   18.1266 H   0  0  0  0  0  0  0  0  0  0  0  0
    7.0720    0.2280   19.7829 C   0  0  0  0  0  0  0  0  0  0  0  0
    8.1053   -0.2450   20.7609 C   0  0  0  0  0  0  0  0  0  0  0  0
    9.0244   -0.9275   20.3480 O   0  0  0  0  0  0  0  0  0  0  0  0
    7.9836   -0.0027   22.3230 C   0  0  0  0  0  0  0  0  0  0  0  0
    7.4844    1.4029   22.7327 C   0  0  0  0  0  0  0  0  0  0  0  0
    6.5971    1.6348   23.8085 C   0  0  0  0  0  0  0  0  0  0  0  0
    6.2539    0.8080   24.4298 H   0  0  0  0  0  0  0  0  0  0  0  0
    6.1209    2.8441   24.1513 N   0  0  0  0  0  0  0  0  0  0  0  0
    6.5501    3.9077   23.4555 C   0  0  0  0  0  0  0  0  0  0  0  0
    6.1467    4.8846   23.7297 H   0  0  0  0  0  0  0  0  0  0  0  0
    7.4976    3.7873   22.4335 C   0  0  0  0  0  0  0  0  0  0  0  0
    7.9246    4.8837   21.7884 F   0  0  0  0  0  0  0  0  0  0  0  0
    7.9950    2.5363   22.0700 C   0  0  0  0  0  0  0  0  0  0  0  0
    8.7442    2.4483   21.2850 H   0  0  0  0  0  0  0  0  0  0  0  0
    7.0546   -1.1377   22.8224 C   0  0  0  0  0  0  0  0  0  0  0  0
    6.0746   -1.1309   22.3331 H   0  0  0  0  0  0  0  0  0  0  0  0
    6.9198   -1.0945   23.9086 H   0  0  0  0  0  0  0  0  0  0  0  0
    7.5141   -2.1071   22.6067 H   0  0  0  0  0  0  0  0  0  0  0  0
    9.3735   -0.2282   22.9730 C   0  0  0  0  0  0  0  0  0  0  0  0
   10.1410    0.4426   22.5731 H   0  0  0  0  0  0  0  0  0  0  0  0
    9.6983   -1.2561   22.7896 H   0  0  0  0  0  0  0  0  0  0  0  0
    9.3296   -0.0696   24.0551 H   0  0  0  0  0  0  0  0  0  0  0  0
    5.8408    0.8096   20.1144 C   0  0  0  0  0  0  0  0  0  0  0  0
    5.5040    0.8865   21.1511 H   0  0  0  0  0  0  0  0  0  0  0  0
    5.0630    1.3272   19.0798 C   0  0  0  0  0  0  0  0  0  0  0  0
    4.1392    1.8472   19.2921 H   0  0  0  0  0  0  0  0  0  0  0  0
  1  2  1  0
  2  3  2  0
  3  4  1  0
  4  5  1  0
  4  6  2  0
  6  7  1  0
  7  8  2  0
  7  9  1  0
  9 10  1  0
 10 11  2  0
 11 12  1  0
 11 13  1  0
 13 14  2  0
 14 15  1  0
 14 16  1  0
 16 17  1  0
 16 18  2  0
 18 19  1  0
  9 20  1  0
 20 21  1  0
 20 22  1  0
 20 23  1  0
  9 24  1  0
 24 25  1  0
 24 26  1  0
 24 27  1  0
  6 28  1  0
 28 29  1  0
 28 30  2  0
 30 31  1  0
 30  2  1  0
 18 10  1  0
M  END
>  <cnnaffinity>  (1) 
-4.56942

>  <filename>  (1) 
CC(C)(C(=O)c1cccnc1)c1cncc(F)c1

$$$$
