
     RDKit          3D

 43 45  0  0  0  0  0  0  0  0999 V2000
    6.3834   -2.6019   24.6866 C   0  0  0  0  0  0  0  0  0  0  0  0
    7.3862   -3.0807   23.6173 C   0  0  0  0  0  0  0  0  0  0  0  0
    6.9705   -4.4433   23.0325 C   0  0  0  0  0  0  0  0  0  0  0  0
    6.8530   -5.1715   23.8434 H   0  0  0  0  0  0  0  0  0  0  0  0
    6.0200   -4.3799   22.4872 H   0  0  0  0  0  0  0  0  0  0  0  0
    7.7348   -4.8258   22.3476 H   0  0  0  0  0  0  0  0  0  0  0  0
    7.6159   -2.0367   22.5544 C   0  0  0  0  0  0  0  0  0  0  0  0
    6.7052   -1.6865   21.6658 N   0  0  0  0  0  0  0  0  0  0  0  0
    7.3417   -0.7394   20.9260 N   0  0  0  0  0  0  0  0  0  0  0  0
    6.6565   -0.0587   19.8733 C   0  0  0  0  0  0  0  0  0  0  0  0
    5.4507    0.5973   20.1367 C   0  0  0  0  0  0  0  0  0  0  0  0
    4.8393    1.2994   19.0931 C   0  0  0  0  0  0  0  0  0  0  0  0
    5.4387    1.3077   17.8274 C   0  0  0  0  0  0  0  0  0  0  0  0
    6.5768    0.6523   17.5592 N   0  0  0  0  0  0  0  0  0  0  0  0
    7.1625   -0.0165   18.5598 C   0  0  0  0  0  0  0  0  0  0  0  0
    8.0710   -0.5548   18.3030 H   0  0  0  0  0  0  0  0  0  0  0  0
    4.9822    1.8350   16.9924 H   0  0  0  0  0  0  0  0  0  0  0  0
    3.9117    1.8358   19.2508 H   0  0  0  0  0  0  0  0  0  0  0  0
    5.0210    0.5452   21.1379 H   0  0  0  0  0  0  0  0  0  0  0  0
    8.5881   -0.5528   21.4482 C   0  0  0  0  0  0  0  0  0  0  0  0
    9.5722    0.4495   21.0031 C   0  0  0  0  0  0  0  0  0  0  0  0
    9.3902    1.8466   21.5813 C   0  0  0  0  0  0  0  0  0  0  0  0
   10.4558    2.5983   21.0343 O   0  0  0  0  0  0  0  0  0  0  0  0
   11.5994    2.8592   21.7120 C   0  0  0  0  0  0  0  0  0  0  0  0
   12.4009    3.8428   21.1165 C   0  0  0  0  0  0  0  0  0  0  0  0
   13.5142    4.2822   21.7953 C   0  0  0  0  0  0  0  0  0  0  0  0
   14.2277    5.2880   21.2688 F   0  0  0  0  0  0  0  0  0  0  0  0
   13.9215    3.7229   22.9992 C   0  0  0  0  0  0  0  0  0  0  0  0
   13.1954    2.6482   23.5112 C   0  0  0  0  0  0  0  0  0  0  0  0
   12.0086    2.2318   22.8993 C   0  0  0  0  0  0  0  0  0  0  0  0
   11.4245    1.4291   23.3347 H   0  0  0  0  0  0  0  0  0  0  0  0
   13.5515    2.1063   24.3815 H   0  0  0  0  0  0  0  0  0  0  0  0
   14.7688    4.1825   23.4806 H   0  0  0  0  0  0  0  0  0  0  0  0
   12.1598    4.2670   20.1531 H   0  0  0  0  0  0  0  0  0  0  0  0
    8.4590    2.3317   21.2458 H   0  0  0  0  0  0  0  0  0  0  0  0
    9.4007    1.8754   22.6790 H   0  0  0  0  0  0  0  0  0  0  0  0
    9.5644    0.5465   19.9178 H   0  0  0  0  0  0  0  0  0  0  0  0
   10.5633    0.0920   21.3046 H   0  0  0  0  0  0  0  0  0  0  0  0
    8.7887   -1.3609   22.4667 N   0  0  0  0  0  0  0  0  0  0  0  0
    8.3658   -3.1924   24.0989 H   0  0  0  0  0  0  0  0  0  0  0  0
    6.7143   -1.6580   25.1334 H   0  0  0  0  0  0  0  0  0  0  0  0
    5.3790   -2.4547   24.2708 H   0  0  0  0  0  0  0  0  0  0  0  0
    6.3124   -3.3489   25.4851 H   0  0  0  0  0  0  0  0  0  0  0  0
  1  2  1  0
  2  3  1  0
  3  4  1  0
  3  5  1  0
  3  6  1  0
  2  7  1  0
  7  8  2  0
  8  9  1  0
  9 10  1  0
 10 11  2  0
 11 12  1  0
 12 13  2  0
 13 14  1  0
 14 15  2  0
 15 16  1  0
 13 17  1  0
 12 18  1  0
 11 19  1  0
  9 20  1  0
 20 21  1  0
 21 22  1  0
 22 23  1  0
 23 24  1  0
 24 25  2  0
 25 26  1  0
 26 27  1  0
 26 28  2  0
 28 29  1  0
 29 30  2  0
 30 31  1  0
 29 32  1  0
 28 33  1  0
 25 34  1  0
 22 35  1  0
 22 36  1  0
 21 37  1  0
 21 38  1  0
 20 39  2  0
  2 40  1  0
  1 41  1  0
  1 42  1  0
  1 43  1  0
 39  7  1  0
 15 10  1  0
 30 24  1  0
M  END
>  <cnnaffinity>  (1) 
-6.11195

>  <filename>  (1) 
CC(C)c1nc(CCOc2cccc(F)c2)n(-c2cccnc2)n1

$$$$
