
     RDKit          3D

 32 33  0  0  0  0  0  0  0  0999 V2000
    4.9137    1.7860   16.9947 H   0  0  0  0  0  0  0  0  0  0  0  0
    5.3962    1.2969   17.8374 C   0  0  0  0  0  0  0  0  0  0  0  0
    6.5600    0.6815   17.5719 N   0  0  0  0  0  0  0  0  0  0  0  0
    7.1723    0.0597   18.5900 C   0  0  0  0  0  0  0  0  0  0  0  0
    8.1213   -0.4291   18.3750 H   0  0  0  0  0  0  0  0  0  0  0  0
    6.6622   -0.0116   19.9103 C   0  0  0  0  0  0  0  0  0  0  0  0
    7.3260   -0.7062   20.9280 N   0  0  0  0  0  0  0  0  0  0  0  0
    6.7629   -1.1168   21.6614 H   0  0  0  0  0  0  0  0  0  0  0  0
    8.7100   -0.6970   21.1382 C   0  0  0  0  0  0  0  0  0  0  0  0
    9.6836    0.2105   20.6647 C   0  0  0  0  0  0  0  0  0  0  0  0
    9.5066    1.0427   20.0051 H   0  0  0  0  0  0  0  0  0  0  0  0
   10.9004   -0.0666   21.1223 N   0  0  0  0  0  0  0  0  0  0  0  0
   10.7070   -1.1566   21.8780 N   0  0  0  0  0  0  0  0  0  0  0  0
   11.4956   -1.5513   22.3632 H   0  0  0  0  0  0  0  0  0  0  0  0
    9.4150   -1.5835   21.9257 C   0  0  0  0  0  0  0  0  0  0  0  0
    8.9575   -2.7046   22.7844 C   0  0  0  0  0  0  0  0  0  0  0  0
    9.6373   -3.5586   22.6724 H   0  0  0  0  0  0  0  0  0  0  0  0
    7.9785   -3.0386   22.4160 H   0  0  0  0  0  0  0  0  0  0  0  0
    8.8429   -2.3209   24.2729 C   0  0  0  0  0  0  0  0  0  0  0  0
    9.8174   -1.9223   24.5882 H   0  0  0  0  0  0  0  0  0  0  0  0
    7.7913   -1.2317   24.5011 C   0  0  0  0  0  0  0  0  0  0  0  0
    8.0224   -0.3114   23.9511 H   0  0  0  0  0  0  0  0  0  0  0  0
    6.7955   -1.5705   24.1856 H   0  0  0  0  0  0  0  0  0  0  0  0
    7.7226   -0.9781   25.5656 H   0  0  0  0  0  0  0  0  0  0  0  0
    8.5496   -3.5595   25.1136 C   0  0  0  0  0  0  0  0  0  0  0  0
    7.5873   -4.0028   24.8266 H   0  0  0  0  0  0  0  0  0  0  0  0
    9.3258   -4.3217   24.9764 H   0  0  0  0  0  0  0  0  0  0  0  0
    8.5012   -3.3094   26.1794 H   0  0  0  0  0  0  0  0  0  0  0  0
    5.4404    0.6318   20.1625 C   0  0  0  0  0  0  0  0  0  0  0  0
    5.0182    0.6231   21.1677 H   0  0  0  0  0  0  0  0  0  0  0  0
    4.8113    1.3056   19.1086 C   0  0  0  0  0  0  0  0  0  0  0  0
    3.8815    1.8378   19.2640 H   0  0  0  0  0  0  0  0  0  0  0  0
  1  2  1  0
  2  3  2  0
  3  4  1  0
  4  5  1  0
  4  6  2  0
  6  7  1  0
  7  8  1  0
  7  9  1  0
  9 10  1  0
 10 11  1  0
 10 12  2  0
 12 13  1  0
 13 14  1  0
 13 15  1  0
 15 16  1  0
 16 17  1  0
 16 18  1  0
 16 19  1  0
 19 20  1  0
 19 21  1  0
 21 22  1  0
 21 23  1  0
 21 24  1  0
 19 25  1  0
 25 26  1  0
 25 27  1  0
 25 28  1  0
  6 29  1  0
 29 30  1  0
 29 31  2  0
 31 32  1  0
 31  2  1  0
 15  9  2  0
M  END
>  <cnnaffinity>  (1) 
-5.23365

>  <filename>  (1) 
CC(C)Cc1[nH]ncc1Nc1cccnc1

$$$$
