
     RDKit          3D

 40 42  0  0  0  0  0  0  0  0999 V2000
    6.6589   -4.1298   23.2787 C   0  0  0  0  0  0  0  0  0  0  0  0
    7.4051   -2.8683   23.7350 C   0  0  0  0  0  0  0  0  0  0  0  0
    6.6521   -2.1410   24.8685 C   0  0  0  0  0  0  0  0  0  0  0  0
    5.6778   -1.7861   24.5166 H   0  0  0  0  0  0  0  0  0  0  0  0
    6.4834   -2.8072   25.7203 H   0  0  0  0  0  0  0  0  0  0  0  0
    7.2136   -1.2723   25.2292 H   0  0  0  0  0  0  0  0  0  0  0  0
    7.6724   -1.9406   22.5818 C   0  0  0  0  0  0  0  0  0  0  0  0
    6.7381   -1.5821   21.7205 N   0  0  0  0  0  0  0  0  0  0  0  0
    7.3729   -0.6754   20.9356 N   0  0  0  0  0  0  0  0  0  0  0  0
    6.6588    0.0013   19.9017 C   0  0  0  0  0  0  0  0  0  0  0  0
    5.4412    0.6392   20.1692 C   0  0  0  0  0  0  0  0  0  0  0  0
    4.8151    1.3080   19.1104 C   0  0  0  0  0  0  0  0  0  0  0  0
    5.4014    1.2965   17.8365 C   0  0  0  0  0  0  0  0  0  0  0  0
    6.5592    0.6720   17.5732 N   0  0  0  0  0  0  0  0  0  0  0  0
    7.1656    0.0514   18.5911 C   0  0  0  0  0  0  0  0  0  0  0  0
    8.1099   -0.4337   18.3646 H   0  0  0  0  0  0  0  0  0  0  0  0
    4.9219    1.7879   16.9920 H   0  0  0  0  0  0  0  0  0  0  0  0
    3.8821    1.8386   19.2595 H   0  0  0  0  0  0  0  0  0  0  0  0
    5.0172    0.6084   21.1787 H   0  0  0  0  0  0  0  0  0  0  0  0
    8.6466   -0.5163   21.3967 C   0  0  0  0  0  0  0  0  0  0  0  0
    9.5267    0.6125   20.9617 C   0  0  0  0  0  0  0  0  0  0  0  0
    9.0400    2.0128   21.4558 C   0  0  0  0  0  0  0  0  0  0  0  0
    8.8634    2.0925   22.9510 C   0  0  0  0  0  0  0  0  0  0  0  0
    7.6411    1.8907   23.4491 N   0  0  0  0  0  0  0  0  0  0  0  0
    7.5392    1.8389   24.7758 C   0  0  0  0  0  0  0  0  0  0  0  0
    8.6130    2.0139   25.6293 C   0  0  0  0  0  0  0  0  0  0  0  0
    9.8294    2.2048   24.9933 C   0  0  0  0  0  0  0  0  0  0  0  0
    9.9727    2.2635   23.6763 N   0  0  0  0  0  0  0  0  0  0  0  0
   10.7505    2.2879   25.5554 H   0  0  0  0  0  0  0  0  0  0  0  0
    8.5143    1.9974   26.7063 H   0  0  0  0  0  0  0  0  0  0  0  0
    6.5397    1.6477   25.1653 H   0  0  0  0  0  0  0  0  0  0  0  0
    9.7655    2.7707   21.1622 H   0  0  0  0  0  0  0  0  0  0  0  0
    8.0802    2.2536   21.0018 H   0  0  0  0  0  0  0  0  0  0  0  0
    9.5890    0.6104   19.8700 H   0  0  0  0  0  0  0  0  0  0  0  0
   10.5290    0.4017   21.3447 H   0  0  0  0  0  0  0  0  0  0  0  0
    8.8771   -1.3404   22.4041 N   0  0  0  0  0  0  0  0  0  0  0  0
    8.3980   -3.1410   24.1011 H   0  0  0  0  0  0  0  0  0  0  0  0
    5.6712   -3.8629   22.8870 H   0  0  0  0  0  0  0  0  0  0  0  0
    7.2032   -4.6475   22.4823 H   0  0  0  0  0  0  0  0  0  0  0  0
    6.5261   -4.8239   24.1147 H   0  0  0  0  0  0  0  0  0  0  0  0
  1  2  1  0
  2  3  1  0
  3  4  1  0
  3  5  1  0
  3  6  1  0
  2  7  1  0
  7  8  2  0
  8  9  1  0
  9 10  1  0
 10 11  2  0
 11 12  1  0
 12 13  2  0
 13 14  1  0
 14 15  2  0
 15 16  1  0
 13 17  1  0
 12 18  1  0
 11 19  1  0
  9 20  1  0
 20 21  1  0
 21 22  1  0
 22 23  1  0
 23 24  2  0
 24 25  1  0
 25 26  2  0
 26 27  1  0
 27 28  2  0
 27 29  1  0
 26 30  1  0
 25 31  1  0
 22 32  1  0
 22 33  1  0
 21 34  1  0
 21 35  1  0
 20 36  2  0
  2 37  1  0
  1 38  1  0
  1 39  1  0
  1 40  1  0
 36  7  1  0
 15 10  1  0
 28 23  1  0
M  END
>  <cnnaffinity>  (1) 
-5.70761

>  <filename>  (1) 
CC(C)c1nc(CCc2ncccn2)n(-c2cccnc2)n1

$$$$
