
     RDKit          3D

 49 51  0  0  0  0  0  0  0  0999 V2000
    6.0642    0.5291   26.0457 C   0  0  0  0  0  0  0  0  0  0  0  0
    7.4303    0.8080   25.3946 C   0  0  0  0  0  0  0  0  0  0  0  0
    8.5816    0.3491   26.3020 C   0  0  0  0  0  0  0  0  0  0  0  0
    9.5653    0.5292   25.8485 H   0  0  0  0  0  0  0  0  0  0  0  0
    8.5003   -0.7250   26.5091 H   0  0  0  0  0  0  0  0  0  0  0  0
    8.5505    0.8847   27.2564 H   0  0  0  0  0  0  0  0  0  0  0  0
    7.5368    2.3094   25.0540 C   0  0  0  0  0  0  0  0  0  0  0  0
    7.8801    3.1195   25.8981 O   0  0  0  0  0  0  0  0  0  0  0  0
    7.1907    2.7268   23.7659 N   0  0  0  0  0  0  0  0  0  0  0  0
    7.8270    3.9687   23.2985 C   0  0  0  0  0  0  0  0  0  0  0  0
    8.9157    3.8488   23.1950 H   0  0  0  0  0  0  0  0  0  0  0  0
    7.6187    4.7848   23.9969 H   0  0  0  0  0  0  0  0  0  0  0  0
    7.4304    4.2405   22.3160 H   0  0  0  0  0  0  0  0  0  0  0  0
    6.7638    1.7897   22.7223 C   0  0  0  0  0  0  0  0  0  0  0  0
    7.8821    0.9926   22.0794 C   0  0  0  0  0  0  0  0  0  0  0  0
    9.1669    1.2535   22.1541 N   0  0  0  0  0  0  0  0  0  0  0  0
    9.7570    0.0714   21.8201 C   0  0  0  0  0  0  0  0  0  0  0  0
   11.2034   -0.1005   22.0602 C   0  0  0  0  0  0  0  0  0  0  0  0
   11.8097    0.8135   22.9406 C   0  0  0  0  0  0  0  0  0  0  0  0
   13.1560    0.6913   23.2315 C   0  0  0  0  0  0  0  0  0  0  0  0
   13.7031    1.5869   24.0613 F   0  0  0  0  0  0  0  0  0  0  0  0
   13.9318   -0.3353   22.7005 C   0  0  0  0  0  0  0  0  0  0  0  0
   13.3168   -1.2686   21.8580 C   0  0  0  0  0  0  0  0  0  0  0  0
   11.9665   -1.1517   21.5202 C   0  0  0  0  0  0  0  0  0  0  0  0
   11.5180   -1.8948   20.8690 H   0  0  0  0  0  0  0  0  0  0  0  0
   13.8976   -2.0888   21.4431 H   0  0  0  0  0  0  0  0  0  0  0  0
   14.9739   -0.4003   22.9742 H   0  0  0  0  0  0  0  0  0  0  0  0
   11.2184    1.5988   23.4053 H   0  0  0  0  0  0  0  0  0  0  0  0
    8.9050   -0.8587   21.4259 N   0  0  0  0  0  0  0  0  0  0  0  0
    7.7003   -0.2529   21.5764 N   0  0  0  0  0  0  0  0  0  0  0  0
    6.4925   -0.8233   20.9794 C   0  0  0  0  0  0  0  0  0  0  0  0
    6.0363   -0.0117   19.7837 C   0  0  0  0  0  0  0  0  0  0  0  0
    4.9004    0.8007   19.7961 C   0  0  0  0  0  0  0  0  0  0  0  0
    4.6187    1.5909   18.6779 C   0  0  0  0  0  0  0  0  0  0  0  0
    5.4705    1.5164   17.5748 C   0  0  0  0  0  0  0  0  0  0  0  0
    6.5610    0.7371   17.5395 N   0  0  0  0  0  0  0  0  0  0  0  0
    6.8303    0.0032   18.6251 C   0  0  0  0  0  0  0  0  0  0  0  0
    7.7167   -0.6284   18.5591 H   0  0  0  0  0  0  0  0  0  0  0  0
    5.2601    2.0928   16.6751 H   0  0  0  0  0  0  0  0  0  0  0  0
    3.7663    2.2578   18.6539 H   0  0  0  0  0  0  0  0  0  0  0  0
    4.2357    0.8010   20.6602 H   0  0  0  0  0  0  0  0  0  0  0  0
    5.7030   -0.8639   21.7401 H   0  0  0  0  0  0  0  0  0  0  0  0
    6.7601   -1.8500   20.7058 H   0  0  0  0  0  0  0  0  0  0  0  0
    6.2268    2.3481   21.9450 H   0  0  0  0  0  0  0  0  0  0  0  0
    6.0407    1.0843   23.1487 H   0  0  0  0  0  0  0  0  0  0  0  0
    7.5073    0.2487   24.4579 H   0  0  0  0  0  0  0  0  0  0  0  0
    5.2273    0.8667   25.4219 H   0  0  0  0  0  0  0  0  0  0  0  0
    5.9348   -0.5431   26.2333 H   0  0  0  0  0  0  0  0  0  0  0  0
    5.9998    1.0501   27.0091 H   0  0  0  0  0  0  0  0  0  0  0  0
  1  2  1  0
  2  3  1  0
  3  4  1  0
  3  5  1  0
  3  6  1  0
  2  7  1  0
  7  8  2  0
  7  9  1  0
  9 10  1  0
 10 11  1  0
 10 12  1  0
 10 13  1  0
  9 14  1  0
 14 15  1  0
 15 16  2  0
 16 17  1  0
 17 18  1  0
 18 19  2  0
 19 20  1  0
 20 21  1  0
 20 22  2  0
 22 23  1  0
 23 24  2  0
 24 25  1  0
 23 26  1  0
 22 27  1  0
 19 28  1  0
 17 29  2  0
 29 30  1  0
 30 31  1  0
 31 32  1  0
 32 33  2  0
 33 34  1  0
 34 35  2  0
 35 36  1  0
 36 37  2  0
 37 38  1  0
 35 39  1  0
 34 40  1  0
 33 41  1  0
 31 42  1  0
 31 43  1  0
 14 44  1  0
 14 45  1  0
  2 46  1  0
  1 47  1  0
  1 48  1  0
  1 49  1  0
 30 15  1  0
 37 32  1  0
 24 18  1  0
M  END
>  <cnnaffinity>  (1) 
-6.43871

>  <filename>  (1) 
CC(C)C(=O)N(C)Cc1nc(-c2cccc(F)c2)nn1Cc1cccnc1

$$$$
