
     RDKit          3D

 46 50  0  0  0  0  0  0  0  0999 V2000
    8.5990   -3.8652   24.0564 C   0  0  0  0  0  0  0  0  0  0  0  0
    7.3764   -2.9798   23.7658 C   0  0  0  0  0  0  0  0  0  0  0  0
    7.6777   -2.0352   22.6332 C   0  0  0  0  0  0  0  0  0  0  0  0
    6.8014   -1.6749   21.7226 N   0  0  0  0  0  0  0  0  0  0  0  0
    7.4433   -0.6704   21.0525 N   0  0  0  0  0  0  0  0  0  0  0  0
    6.7661   -0.0152   19.9726 C   0  0  0  0  0  0  0  0  0  0  0  0
    5.5327    0.6102   20.1980 C   0  0  0  0  0  0  0  0  0  0  0  0
    4.9081    1.2647   19.1326 C   0  0  0  0  0  0  0  0  0  0  0  0
    5.5149    1.2474   17.8730 C   0  0  0  0  0  0  0  0  0  0  0  0
    6.6677    0.6031   17.6342 N   0  0  0  0  0  0  0  0  0  0  0  0
    7.2720   -0.0142   18.6602 C   0  0  0  0  0  0  0  0  0  0  0  0
    8.1906   -0.5488   18.4176 H   0  0  0  0  0  0  0  0  0  0  0  0
    5.0523    1.7601   17.0294 H   0  0  0  0  0  0  0  0  0  0  0  0
    3.9692    1.7899   19.2680 H   0  0  0  0  0  0  0  0  0  0  0  0
    5.0895    0.5731   21.1925 H   0  0  0  0  0  0  0  0  0  0  0  0
    8.6600   -0.4724   21.6410 C   0  0  0  0  0  0  0  0  0  0  0  0
    9.5712    0.6931   21.4533 C   0  0  0  0  0  0  0  0  0  0  0  0
    9.0411    1.9397   22.1423 C   0  0  0  0  0  0  0  0  0  0  0  0
    8.1972    2.7902   21.4256 C   0  0  0  0  0  0  0  0  0  0  0  0
    7.6669    3.9703   21.9872 C   0  0  0  0  0  0  0  0  0  0  0  0
    7.9745    4.2222   23.3135 C   0  0  0  0  0  0  0  0  0  0  0  0
    7.5700    5.2704   24.1081 O   0  0  0  0  0  0  0  0  0  0  0  0
    8.0567    5.0499   25.3803 C   0  0  0  0  0  0  0  0  0  0  0  0
    7.8277    5.7359   26.3366 O   0  0  0  0  0  0  0  0  0  0  0  0
    8.8293    3.9096   25.3363 N   0  0  0  0  0  0  0  0  0  0  0  0
    8.7556    3.3388   24.0679 C   0  0  0  0  0  0  0  0  0  0  0  0
    9.3057    2.1994   23.4988 C   0  0  0  0  0  0  0  0  0  0  0  0
    9.9303    1.5342   24.0869 H   0  0  0  0  0  0  0  0  0  0  0  0
    8.9356    3.4303   26.2129 H   0  0  0  0  0  0  0  0  0  0  0  0
    7.0404    4.6492   21.4196 H   0  0  0  0  0  0  0  0  0  0  0  0
    7.9353    2.4791   20.4184 H   0  0  0  0  0  0  0  0  0  0  0  0
    9.7224    0.8662   20.3841 H   0  0  0  0  0  0  0  0  0  0  0  0
   10.5231    0.3863   21.8926 H   0  0  0  0  0  0  0  0  0  0  0  0
    8.8585   -1.3643   22.5863 N   0  0  0  0  0  0  0  0  0  0  0  0
    6.8842   -2.1421   24.9708 C   0  0  0  0  0  0  0  0  0  0  0  0
    7.7563   -1.0973   25.6172 C   0  0  0  0  0  0  0  0  0  0  0  0
    7.3685   -2.3285   26.3800 C   0  0  0  0  0  0  0  0  0  0  0  0
    8.1289   -3.0812   26.5756 H   0  0  0  0  0  0  0  0  0  0  0  0
    6.6349   -2.2331   27.1741 H   0  0  0  0  0  0  0  0  0  0  0  0
    8.7823   -1.0120   25.2601 H   0  0  0  0  0  0  0  0  0  0  0  0
    7.2975   -0.1478   25.8809 H   0  0  0  0  0  0  0  0  0  0  0  0
    5.8369   -1.8466   24.8794 H   0  0  0  0  0  0  0  0  0  0  0  0
    6.5326   -3.5944   23.4331 H   0  0  0  0  0  0  0  0  0  0  0  0
    8.8964   -4.4148   23.1577 H   0  0  0  0  0  0  0  0  0  0  0  0
    9.4545   -3.2492   24.3647 H   0  0  0  0  0  0  0  0  0  0  0  0
    8.3789   -4.5920   24.8449 H   0  0  0  0  0  0  0  0  0  0  0  0
  1  2  1  0
  2  3  1  0
  3  4  2  0
  4  5  1  0
  5  6  1  0
  6  7  2  0
  7  8  1  0
  8  9  2  0
  9 10  1  0
 10 11  2  0
 11 12  1  0
  9 13  1  0
  8 14  1  0
  7 15  1  0
  5 16  1  0
 16 17  1  0
 17 18  1  0
 18 19  2  0
 19 20  1  0
 20 21  2  0
 21 22  1  0
 22 23  1  0
 23 24  2  0
 23 25  1  0
 25 26  1  0
 26 27  2  0
 27 28  1  0
 25 29  1  0
 20 30  1  0
 19 31  1  0
 17 32  1  0
 17 33  1  0
 16 34  2  0
  2 35  1  0
 35 36  1  0
 36 37  1  0
 37 38  1  0
 37 39  1  0
 36 40  1  0
 36 41  1  0
 35 42  1  0
  2 43  1  0
  1 44  1  0
  1 45  1  0
  1 46  1  0
 34  3  1  0
 37 35  1  0
 11  6  1  0
 27 18  1  0
 26 21  1  0
M  END
>  <cnnaffinity>  (1) 
-6.11655

>  <filename>  (1) 
CC(c1nc(Cc2ccc3oc(=O)[nH]c3c2)n(-c2cccnc2)n1)C1CC1

$$$$
