
     RDKit          3D

 49 52  0  0  0  0  0  0  0  0999 V2000
    7.3147    0.1688   26.5243 C   0  0  0  0  0  0  0  0  0  0  0  0
    8.1483    0.4682   25.2708 C   0  0  0  0  0  0  0  0  0  0  0  0
    9.5173   -0.2350   25.3564 C   0  0  0  0  0  0  0  0  0  0  0  0
   10.0679    0.1000   26.2442 H   0  0  0  0  0  0  0  0  0  0  0  0
   10.1318   -0.0158   24.4773 H   0  0  0  0  0  0  0  0  0  0  0  0
    9.3797   -1.3214   25.4190 H   0  0  0  0  0  0  0  0  0  0  0  0
    8.3095    1.9529   25.0420 C   0  0  0  0  0  0  0  0  0  0  0  0
    8.8086    2.7854   25.9293 N   0  0  0  0  0  0  0  0  0  0  0  0
    8.8879    4.0015   25.3042 C   0  0  0  0  0  0  0  0  0  0  0  0
    8.4200    3.9047   24.0258 C   0  0  0  0  0  0  0  0  0  0  0  0
    8.0213    2.5924   23.8551 N   0  0  0  0  0  0  0  0  0  0  0  0
    7.6612    1.9709   22.5769 C   0  0  0  0  0  0  0  0  0  0  0  0
    8.6835    0.9659   22.0994 C   0  0  0  0  0  0  0  0  0  0  0  0
    9.9702    1.0422   22.3552 N   0  0  0  0  0  0  0  0  0  0  0  0
   10.4635   -0.1613   21.9527 C   0  0  0  0  0  0  0  0  0  0  0  0
   11.9227   -0.4099   22.0142 C   0  0  0  0  0  0  0  0  0  0  0  0
   12.5217   -1.4434   21.2643 C   0  0  0  0  0  0  0  0  0  0  0  0
   13.8524   -1.3377   20.8570 C   0  0  0  0  0  0  0  0  0  0  0  0
   14.5398   -0.1703   21.2026 C   0  0  0  0  0  0  0  0  0  0  0  0
   15.4991    0.3247   20.2960 F   0  0  0  0  0  0  0  0  0  0  0  0
   14.0944    0.6679   22.2238 C   0  0  0  0  0  0  0  0  0  0  0  0
   12.7702    0.5363   22.6316 C   0  0  0  0  0  0  0  0  0  0  0  0
   12.3674    1.2344   23.3637 H   0  0  0  0  0  0  0  0  0  0  0  0
   14.6973    1.5089   22.5507 H   0  0  0  0  0  0  0  0  0  0  0  0
   14.2969   -2.0533   20.1743 H   0  0  0  0  0  0  0  0  0  0  0  0
   11.9080   -2.2599   20.9081 H   0  0  0  0  0  0  0  0  0  0  0  0
    9.5495   -0.9555   21.4214 N   0  0  0  0  0  0  0  0  0  0  0  0
    8.4117   -0.2126   21.4925 N   0  0  0  0  0  0  0  0  0  0  0  0
    7.1517   -0.7571   21.0009 C   0  0  0  0  0  0  0  0  0  0  0  0
    6.4857    0.0403   19.8944 C   0  0  0  0  0  0  0  0  0  0  0  0
    5.2632    0.7055   20.0511 C   0  0  0  0  0  0  0  0  0  0  0  0
    4.7222    1.3923   18.9593 C   0  0  0  0  0  0  0  0  0  0  0  0
    5.4170    1.3854   17.7479 C   0  0  0  0  0  0  0  0  0  0  0  0
    6.5863    0.7473   17.5768 N   0  0  0  0  0  0  0  0  0  0  0  0
    7.0971    0.1031   18.6322 C   0  0  0  0  0  0  0  0  0  0  0  0
    8.0512   -0.3983   18.4652 H   0  0  0  0  0  0  0  0  0  0  0  0
    5.0233    1.9081   16.8754 H   0  0  0  0  0  0  0  0  0  0  0  0
    3.7877    1.9376   19.0353 H   0  0  0  0  0  0  0  0  0  0  0  0
    4.7377    0.6894   21.0092 H   0  0  0  0  0  0  0  0  0  0  0  0
    6.4616   -0.8827   21.8430 H   0  0  0  0  0  0  0  0  0  0  0  0
    7.3949   -1.7599   20.6427 H   0  0  0  0  0  0  0  0  0  0  0  0
    7.5810    2.7785   21.8445 H   0  0  0  0  0  0  0  0  0  0  0  0
    6.6700    1.5086   22.6444 H   0  0  0  0  0  0  0  0  0  0  0  0
    8.3287    4.6348   23.2336 H   0  0  0  0  0  0  0  0  0  0  0  0
    9.2993    4.8691   25.8090 H   0  0  0  0  0  0  0  0  0  0  0  0
    7.6096    0.0649   24.4020 H   0  0  0  0  0  0  0  0  0  0  0  0
    7.8103    0.5634   27.4188 H   0  0  0  0  0  0  0  0  0  0  0  0
    7.2023   -0.9150   26.6459 H   0  0  0  0  0  0  0  0  0  0  0  0
    6.3134    0.6073   26.4641 H   0  0  0  0  0  0  0  0  0  0  0  0
  1  2  1  0
  2  3  1  0
  3  4  1  0
  3  5  1  0
  3  6  1  0
  2  7  1  0
  7  8  2  0
  8  9  1  0
  9 10  2  0
 10 11  1  0
 11 12  1  0
 12 13  1  0
 13 14  2  0
 14 15  1  0
 15 16  1  0
 16 17  2  0
 17 18  1  0
 18 19  2  0
 19 20  1  0
 19 21  1  0
 21 22  2  0
 22 23  1  0
 21 24  1  0
 18 25  1  0
 17 26  1  0
 15 27  2  0
 27 28  1  0
 28 29  1  0
 29 30  1  0
 30 31  2  0
 31 32  1  0
 32 33  2  0
 33 34  1  0
 34 35  2  0
 35 36  1  0
 33 37  1  0
 32 38  1  0
 31 39  1  0
 29 40  1  0
 29 41  1  0
 12 42  1  0
 12 43  1  0
 10 44  1  0
  9 45  1  0
  2 46  1  0
  1 47  1  0
  1 48  1  0
  1 49  1  0
 11  7  1  0
 28 13  1  0
 35 30  1  0
 22 16  1  0
M  END
>  <cnnaffinity>  (1) 
-6.79183

>  <filename>  (1) 
CC(C)c1nccn1Cc1nc(-c2ccc(F)cc2)nn1Cc1cccnc1

$$$$
