
     RDKit          3D

 43 46  0  0  0  0  0  0  0  0999 V2000
    9.9458    1.9524   22.2527 C   0  0  0  0  0  0  0  0  0  0  0  0
    8.5283    2.5219   22.0852 C   0  0  0  0  0  0  0  0  0  0  0  0
    7.4854    1.5691   22.7192 C   0  0  0  0  0  0  0  0  0  0  0  0
    7.6732    0.1484   22.2569 C   0  0  0  0  0  0  0  0  0  0  0  0
    8.2802   -0.7184   23.0052 N   0  0  0  0  0  0  0  0  0  0  0  0
    8.3831   -1.8137   22.1637 C   0  0  0  0  0  0  0  0  0  0  0  0
    9.0874   -3.0666   22.5708 C   0  0  0  0  0  0  0  0  0  0  0  0
   10.5076   -2.8242   23.0919 C   0  0  0  0  0  0  0  0  0  0  0  0
   10.1024   -3.4133   24.4400 C   0  0  0  0  0  0  0  0  0  0  0  0
    8.7047   -3.7037   23.9087 C   0  0  0  0  0  0  0  0  0  0  0  0
    8.4728   -4.7719   23.8501 H   0  0  0  0  0  0  0  0  0  0  0  0
    7.8992   -3.1881   24.4435 H   0  0  0  0  0  0  0  0  0  0  0  0
   10.0835   -2.6785   25.2457 H   0  0  0  0  0  0  0  0  0  0  0  0
   10.6809   -4.2917   24.7549 H   0  0  0  0  0  0  0  0  0  0  0  0
   11.2791   -3.3830   22.5569 H   0  0  0  0  0  0  0  0  0  0  0  0
   10.8002   -1.7670   23.1422 H   0  0  0  0  0  0  0  0  0  0  0  0
    9.0194   -3.7853   21.7575 H   0  0  0  0  0  0  0  0  0  0  0  0
    7.8844   -1.6736   20.9616 N   0  0  0  0  0  0  0  0  0  0  0  0
    7.3888   -0.4257   21.0191 N   0  0  0  0  0  0  0  0  0  0  0  0
    6.7035    0.1393   19.9502 C   0  0  0  0  0  0  0  0  0  0  0  0
    5.5779    0.9299   20.1608 C   0  0  0  0  0  0  0  0  0  0  0  0
    4.9523    1.4611   19.0356 C   0  0  0  0  0  0  0  0  0  0  0  0
    5.4685    1.2038   17.7599 C   0  0  0  0  0  0  0  0  0  0  0  0
    6.5347    0.4082   17.5560 N   0  0  0  0  0  0  0  0  0  0  0  0
    7.1309   -0.1256   18.6395 C   0  0  0  0  0  0  0  0  0  0  0  0
    7.9921   -0.7717   18.4944 H   0  0  0  0  0  0  0  0  0  0  0  0
    4.9865    1.6677   16.9065 H   0  0  0  0  0  0  0  0  0  0  0  0
    4.0706    2.0807   19.1413 H   0  0  0  0  0  0  0  0  0  0  0  0
    5.1939    1.0956   21.1671 H   0  0  0  0  0  0  0  0  0  0  0  0
    7.5923    1.5908   23.8081 H   0  0  0  0  0  0  0  0  0  0  0  0
    6.4780    1.9032   22.4650 H   0  0  0  0  0  0  0  0  0  0  0  0
    8.4342    3.8933   22.6453 N   0  0  0  0  0  0  0  0  0  0  0  0
    8.6990    4.2683   23.9616 C   0  0  0  0  0  0  0  0  0  0  0  0
    8.4176    5.5954   24.0461 C   0  0  0  0  0  0  0  0  0  0  0  0
    8.5343    6.7065   25.5911 Br  0  0  0  0  0  0  0  0  0  0  0  0
    7.9873    5.9937   22.7253 C   0  0  0  0  0  0  0  0  0  0  0  0
    8.0059    4.9662   21.9118 N   0  0  0  0  0  0  0  0  0  0  0  0
    7.6783    6.9982   22.4532 H   0  0  0  0  0  0  0  0  0  0  0  0
    9.0470    3.6332   24.7697 H   0  0  0  0  0  0  0  0  0  0  0  0
    8.3228    2.5997   21.0115 H   0  0  0  0  0  0  0  0  0  0  0  0
   10.6739    2.5560   21.6993 H   0  0  0  0  0  0  0  0  0  0  0  0
    9.9843    0.9276   21.8668 H   0  0  0  0  0  0  0  0  0  0  0  0
   10.2343    1.9361   23.3081 H   0  0  0  0  0  0  0  0  0  0  0  0
  1  2  1  0
  2  3  1  0
  3  4  1  0
  4  5  2  0
  5  6  1  0
  6  7  1  0
  7  8  1  0
  8  9  1  0
  9 10  1  0
 10 11  1  0
 10 12  1  0
  9 13  1  0
  9 14  1  0
  8 15  1  0
  8 16  1  0
  7 17  1  0
  6 18  2  0
 18 19  1  0
 19 20  1  0
 20 21  2  0
 21 22  1  0
 22 23  2  0
 23 24  1  0
 24 25  2  0
 25 26  1  0
 23 27  1  0
 22 28  1  0
 21 29  1  0
  3 30  1  0
  3 31  1  0
  2 32  1  0
 32 33  1  0
 33 34  2  0
 34 35  1  0
 34 36  1  0
 36 37  2  0
 36 38  1  0
 33 39  1  0
  2 40  1  0
  1 41  1  0
  1 42  1  0
  1 43  1  0
 19  4  1  0
 25 20  1  0
 37 32  1  0
 10  7  1  0
M  END
>  <cnnaffinity>  (1) 
-6.39281

>  <filename>  (1) 
CC(Cc1nc(C2CCC2)nn1-c1cccnc1)n1cc(Br)cn1

$$$$
