
     RDKit          3D

 42 45  0  0  0  0  0  0  0  0999 V2000
    8.8129    1.9965   20.8876 C   0  0  0  0  0  0  0  0  0  0  0  0
    8.6951    1.9237   22.4002 C   0  0  0  0  0  0  0  0  0  0  0  0
    7.4209    1.1322   22.8032 C   0  0  0  0  0  0  0  0  0  0  0  0
    7.4111   -0.2880   22.3410 C   0  0  0  0  0  0  0  0  0  0  0  0
    7.9069   -1.2942   23.0286 N   0  0  0  0  0  0  0  0  0  0  0  0
    7.9756   -2.2954   22.1131 C   0  0  0  0  0  0  0  0  0  0  0  0
    8.6564   -3.5555   22.4653 C   0  0  0  0  0  0  0  0  0  0  0  0
    8.0636   -4.9099   22.2078 C   0  0  0  0  0  0  0  0  0  0  0  0
    8.1477   -4.3841   23.6145 C   0  0  0  0  0  0  0  0  0  0  0  0
    8.8970   -4.8008   24.2840 H   0  0  0  0  0  0  0  0  0  0  0  0
    7.2365   -4.0495   24.1145 H   0  0  0  0  0  0  0  0  0  0  0  0
    7.0902   -4.9666   21.7195 H   0  0  0  0  0  0  0  0  0  0  0  0
    8.7399   -5.7128   21.9347 H   0  0  0  0  0  0  0  0  0  0  0  0
    9.7406   -3.4404   22.3898 H   0  0  0  0  0  0  0  0  0  0  0  0
    7.5360   -1.9897   20.9087 N   0  0  0  0  0  0  0  0  0  0  0  0
    7.1185   -0.7018   21.0642 N   0  0  0  0  0  0  0  0  0  0  0  0
    6.5188   -0.0248   19.9701 C   0  0  0  0  0  0  0  0  0  0  0  0
    5.3627    0.7509   20.1140 C   0  0  0  0  0  0  0  0  0  0  0  0
    4.8663    1.4024   18.9800 C   0  0  0  0  0  0  0  0  0  0  0  0
    5.5274    1.2511   17.7568 C   0  0  0  0  0  0  0  0  0  0  0  0
    6.6245    0.4881   17.6067 N   0  0  0  0  0  0  0  0  0  0  0  0
    7.0984   -0.1363   18.6925 C   0  0  0  0  0  0  0  0  0  0  0  0
    7.9984   -0.7350   18.5570 H   0  0  0  0  0  0  0  0  0  0  0  0
    5.1583    1.7509   16.8633 H   0  0  0  0  0  0  0  0  0  0  0  0
    3.9820    2.0277   19.0375 H   0  0  0  0  0  0  0  0  0  0  0  0
    4.8530    0.8187   21.0781 H   0  0  0  0  0  0  0  0  0  0  0  0
    6.5625    1.6571   22.3795 H   0  0  0  0  0  0  0  0  0  0  0  0
    7.3089    1.1287   23.8896 H   0  0  0  0  0  0  0  0  0  0  0  0
    9.9906    1.4331   23.0161 C   0  0  0  0  0  0  0  0  0  0  0  0
   10.5295    2.0965   24.1240 C   0  0  0  0  0  0  0  0  0  0  0  0
   11.7626    1.7048   24.6253 C   0  0  0  0  0  0  0  0  0  0  0  0
   12.4336    0.6518   24.0097 C   0  0  0  0  0  0  0  0  0  0  0  0
   11.9393   -0.0227   22.9680 N   0  0  0  0  0  0  0  0  0  0  0  0
   10.7403    0.3599   22.4978 C   0  0  0  0  0  0  0  0  0  0  0  0
   10.3442   -0.2281   21.6673 H   0  0  0  0  0  0  0  0  0  0  0  0
   13.4129    0.3470   24.3707 H   0  0  0  0  0  0  0  0  0  0  0  0
   12.1935    2.2317   25.4547 H   0  0  0  0  0  0  0  0  0  0  0  0
    9.9903    2.9271   24.5755 H   0  0  0  0  0  0  0  0  0  0  0  0
    8.5359    2.9507   22.7594 H   0  0  0  0  0  0  0  0  0  0  0  0
    9.6160    2.6886   20.6314 H   0  0  0  0  0  0  0  0  0  0  0  0
    9.0508    1.0218   20.4543 H   0  0  0  0  0  0  0  0  0  0  0  0
    7.8714    2.3190   20.4378 H   0  0  0  0  0  0  0  0  0  0  0  0
  1  2  1  0
  2  3  1  0
  3  4  1  0
  4  5  2  0
  5  6  1  0
  6  7  1  0
  7  8  1  0
  8  9  1  0
  9 10  1  0
  9 11  1  0
  8 12  1  0
  8 13  1  0
  7 14  1  0
  6 15  2  0
 15 16  1  0
 16 17  1  0
 17 18  2  0
 18 19  1  0
 19 20  2  0
 20 21  1  0
 21 22  2  0
 22 23  1  0
 20 24  1  0
 19 25  1  0
 18 26  1  0
  3 27  1  0
  3 28  1  0
  2 29  1  0
 29 30  2  0
 30 31  1  0
 31 32  2  0
 32 33  1  0
 33 34  2  0
 34 35  1  0
 32 36  1  0
 31 37  1  0
 30 38  1  0
  2 39  1  0
  1 40  1  0
  1 41  1  0
  1 42  1  0
 16  4  1  0
 22 17  1  0
 34 29  1  0
  9  7  1  0
M  END
>  <cnnaffinity>  (1) 
-5.93608

>  <filename>  (1) 
CC(Cc1nc(C2CC2)nn1-c1cccnc1)c1cccnc1

$$$$
