
     RDKit          3D

 42 45  0  0  0  0  0  0  0  0999 V2000
    6.3998   -2.5564   24.6266 C   0  0  0  0  0  0  0  0  0  0  0  0
    7.3946   -3.0626   23.5694 C   0  0  0  0  0  0  0  0  0  0  0  0
    7.6551   -2.0424   22.4984 C   0  0  0  0  0  0  0  0  0  0  0  0
    6.6956   -1.6067   21.7003 N   0  0  0  0  0  0  0  0  0  0  0  0
    7.3323   -0.6954   20.9248 N   0  0  0  0  0  0  0  0  0  0  0  0
    6.6462   -0.0004   19.8971 C   0  0  0  0  0  0  0  0  0  0  0  0
    5.4348    0.6432   20.1654 C   0  0  0  0  0  0  0  0  0  0  0  0
    4.8116    1.3124   19.1101 C   0  0  0  0  0  0  0  0  0  0  0  0
    5.3988    1.2956   17.8387 C   0  0  0  0  0  0  0  0  0  0  0  0
    6.5571    0.6714   17.5757 N   0  0  0  0  0  0  0  0  0  0  0  0
    7.1640    0.0488   18.5899 C   0  0  0  0  0  0  0  0  0  0  0  0
    8.1136   -0.4325   18.3655 H   0  0  0  0  0  0  0  0  0  0  0  0
    4.9177    1.7841   16.9956 H   0  0  0  0  0  0  0  0  0  0  0  0
    3.8807    1.8410   19.2620 H   0  0  0  0  0  0  0  0  0  0  0  0
    5.0137    0.6097   21.1732 H   0  0  0  0  0  0  0  0  0  0  0  0
    8.6196   -0.5911   21.3472 C   0  0  0  0  0  0  0  0  0  0  0  0
    9.6279    0.3505   20.7901 C   0  0  0  0  0  0  0  0  0  0  0  0
   10.3432    1.1387   21.8648 C   0  0  0  0  0  0  0  0  0  0  0  0
   11.5904    0.7167   22.3250 C   0  0  0  0  0  0  0  0  0  0  0  0
   12.1910    1.3874   23.3920 C   0  0  0  0  0  0  0  0  0  0  0  0
   11.5029    2.4507   23.9690 C   0  0  0  0  0  0  0  0  0  0  0  0
   10.2928    2.8621   23.5756 N   0  0  0  0  0  0  0  0  0  0  0  0
    9.7496    2.2167   22.5578 C   0  0  0  0  0  0  0  0  0  0  0  0
    8.1610    2.7378   22.0960 Cl  0  0  0  0  0  0  0  0  0  0  0  0
   11.9331    3.0117   24.7911 H   0  0  0  0  0  0  0  0  0  0  0  0
   13.1646    1.0948   23.7577 H   0  0  0  0  0  0  0  0  0  0  0  0
   12.0742   -0.1411   21.8564 H   0  0  0  0  0  0  0  0  0  0  0  0
    9.1645    1.0325   20.0742 H   0  0  0  0  0  0  0  0  0  0  0  0
   10.3280   -0.3056   20.2705 H   0  0  0  0  0  0  0  0  0  0  0  0
    8.8625   -1.4613   22.3091 N   0  0  0  0  0  0  0  0  0  0  0  0
    6.9438   -4.3794   22.9517 C   0  0  0  0  0  0  0  0  0  0  0  0
    7.2624   -5.6636   23.6458 C   0  0  0  0  0  0  0  0  0  0  0  0
    7.9783   -5.2923   22.3762 C   0  0  0  0  0  0  0  0  0  0  0  0
    7.7566   -5.8518   21.4709 H   0  0  0  0  0  0  0  0  0  0  0  0
    9.0126   -4.9756   22.4673 H   0  0  0  0  0  0  0  0  0  0  0  0
    6.5334   -6.4645   23.6031 H   0  0  0  0  0  0  0  0  0  0  0  0
    7.8212   -5.6035   24.5777 H   0  0  0  0  0  0  0  0  0  0  0  0
    5.9900   -4.3240   22.4290 H   0  0  0  0  0  0  0  0  0  0  0  0
    8.3635   -3.2271   24.0537 H   0  0  0  0  0  0  0  0  0  0  0  0
    6.7554   -1.6296   25.0897 H   0  0  0  0  0  0  0  0  0  0  0  0
    5.4315   -2.3565   24.1590 H   0  0  0  0  0  0  0  0  0  0  0  0
    6.2562   -3.3037   25.4136 H   0  0  0  0  0  0  0  0  0  0  0  0
  1  2  1  0
  2  3  1  0
  3  4  2  0
  4  5  1  0
  5  6  1  0
  6  7  2  0
  7  8  1  0
  8  9  2  0
  9 10  1  0
 10 11  2  0
 11 12  1  0
  9 13  1  0
  8 14  1  0
  7 15  1  0
  5 16  1  0
 16 17  1  0
 17 18  1  0
 18 19  2  0
 19 20  1  0
 20 21  2  0
 21 22  1  0
 22 23  2  0
 23 24  1  0
 21 25  1  0
 20 26  1  0
 19 27  1  0
 17 28  1  0
 17 29  1  0
 16 30  2  0
  2 31  1  0
 31 32  1  0
 32 33  1  0
 33 34  1  0
 33 35  1  0
 32 36  1  0
 32 37  1  0
 31 38  1  0
  2 39  1  0
  1 40  1  0
  1 41  1  0
  1 42  1  0
 30  3  1  0
 33 31  1  0
 11  6  1  0
 23 18  1  0
M  END
>  <cnnaffinity>  (1) 
-6.42943

>  <filename>  (1) 
CC(c1nc(Cc2cccnc2Cl)n(-c2cccnc2)n1)C1CC1

$$$$
