
     RDKit          3D

 33 34  0  0  0  0  0  0  0  0999 V2000
    4.9082    1.7787   16.9969 H   0  0  0  0  0  0  0  0  0  0  0  0
    5.3989    1.2953   17.8364 C   0  0  0  0  0  0  0  0  0  0  0  0
    6.5642    0.6831   17.5684 N   0  0  0  0  0  0  0  0  0  0  0  0
    7.1862    0.0769   18.5872 C   0  0  0  0  0  0  0  0  0  0  0  0
    8.1243   -0.4339   18.3748 H   0  0  0  0  0  0  0  0  0  0  0  0
    6.6743    0.0332   19.8950 C   0  0  0  0  0  0  0  0  0  0  0  0
    7.3649   -0.6645   20.9426 N   0  0  0  0  0  0  0  0  0  0  0  0
    8.6472   -0.2539   21.2893 C   0  0  0  0  0  0  0  0  0  0  0  0
    9.0201    0.5920   20.7162 H   0  0  0  0  0  0  0  0  0  0  0  0
    9.3684   -0.8603   22.2817 C   0  0  0  0  0  0  0  0  0  0  0  0
   10.7834   -0.4303   22.7010 C   0  0  0  0  0  0  0  0  0  0  0  0
   11.3028    0.7578   21.8826 C   0  0  0  0  0  0  0  0  0  0  0  0
   11.3614    0.5015   20.8288 H   0  0  0  0  0  0  0  0  0  0  0  0
   12.3156    1.0310   22.1942 H   0  0  0  0  0  0  0  0  0  0  0  0
   10.6690    1.6445   21.9896 H   0  0  0  0  0  0  0  0  0  0  0  0
   11.7494   -1.6124   22.4918 C   0  0  0  0  0  0  0  0  0  0  0  0
   12.7754   -1.3124   22.7337 H   0  0  0  0  0  0  0  0  0  0  0  0
   11.7398   -1.9612   21.4546 H   0  0  0  0  0  0  0  0  0  0  0  0
   11.4824   -2.4725   23.1172 H   0  0  0  0  0  0  0  0  0  0  0  0
   10.7747   -0.0115   24.1834 C   0  0  0  0  0  0  0  0  0  0  0  0
   10.0549    0.7986   24.3522 H   0  0  0  0  0  0  0  0  0  0  0  0
   11.7640    0.3448   24.4894 H   0  0  0  0  0  0  0  0  0  0  0  0
   10.5015   -0.8400   24.8443 H   0  0  0  0  0  0  0  0  0  0  0  0
    8.7434   -1.9585   22.9582 C   0  0  0  0  0  0  0  0  0  0  0  0
    9.2691   -2.4766   23.7609 H   0  0  0  0  0  0  0  0  0  0  0  0
    7.4887   -2.3836   22.6316 C   0  0  0  0  0  0  0  0  0  0  0  0
    6.9897   -3.2055   23.1137 H   0  0  0  0  0  0  0  0  0  0  0  0
    6.7020   -1.7633   21.5844 C   0  0  0  0  0  0  0  0  0  0  0  0
    5.5937   -2.1486   21.2503 O   0  0  0  0  0  0  0  0  0  0  0  0
    5.4480    0.6545   20.1585 C   0  0  0  0  0  0  0  0  0  0  0  0
    5.0187    0.6138   21.1620 H   0  0  0  0  0  0  0  0  0  0  0  0
    4.8081    1.3143   19.1065 C   0  0  0  0  0  0  0  0  0  0  0  0
    3.8726    1.8439   19.2631 H   0  0  0  0  0  0  0  0  0  0  0  0
  1  2  1  0
  2  3  2  0
  3  4  1  0
  4  5  1  0
  4  6  2  0
  6  7  1  0
  7  8  1  0
  8  9  1  0
  8 10  2  0
 10 11  1  0
 11 12  1  0
 12 13  1  0
 12 14  1  0
 12 15  1  0
 11 16  1  0
 16 17  1  0
 16 18  1  0
 16 19  1  0
 11 20  1  0
 20 21  1  0
 20 22  1  0
 20 23  1  0
 10 24  1  0
 24 25  1  0
 24 26  2  0
 26 27  1  0
 26 28  1  0
 28 29  2  0
  6 30  1  0
 30 31  1  0
 30 32  2  0
 32 33  1  0
 32  2  1  0
 28  7  1  0
M  END
>  <cnnaffinity>  (1) 
-5.05223

>  <filename>  (1) 
CC(C)(C)c1ccc(=O)n(-c2cccnc2)c1

$$$$
