
     RDKit          3D

 40 41  0  0  0  0  0  0  0  0999 V2000
    8.4870    0.7588   21.5550 C   0  0  0  0  0  0  0  0  0  0  0  0
    7.7979   -0.3923   20.8080 C   0  0  0  0  0  0  0  0  0  0  0  0
    6.9700   -1.3256   21.7319 C   0  0  0  0  0  0  0  0  0  0  0  0
    6.6857   -1.0642   22.8890 O   0  0  0  0  0  0  0  0  0  0  0  0
    6.5728   -2.4746   21.0972 N   0  0  0  0  0  0  0  0  0  0  0  0
    5.5928   -3.4195   21.6245 C   0  0  0  0  0  0  0  0  0  0  0  0
    6.0095   -3.9339   23.0052 C   0  0  0  0  0  0  0  0  0  0  0  0
    5.2408   -5.1482   23.4746 C   0  0  0  0  0  0  0  0  0  0  0  0
    4.0405   -4.9830   24.1870 C   0  0  0  0  0  0  0  0  0  0  0  0
    3.3573   -6.0798   24.7285 C   0  0  0  0  0  0  0  0  0  0  0  0
    3.8433   -7.3717   24.5141 C   0  0  0  0  0  0  0  0  0  0  0  0
    4.9855   -7.5595   23.7359 C   0  0  0  0  0  0  0  0  0  0  0  0
    5.6899   -6.4608   23.2198 C   0  0  0  0  0  0  0  0  0  0  0  0
    6.9653   -6.7166   22.4441 C   0  0  0  0  0  0  0  0  0  0  0  0
    7.1424   -8.0127   22.1303 F   0  0  0  0  0  0  0  0  0  0  0  0
    7.0047   -6.0390   21.2747 F   0  0  0  0  0  0  0  0  0  0  0  0
    8.0678   -6.3427   23.1283 F   0  0  0  0  0  0  0  0  0  0  0  0
    5.3476   -8.5591   23.5182 H   0  0  0  0  0  0  0  0  0  0  0  0
    3.3307   -8.2370   24.9281 H   0  0  0  0  0  0  0  0  0  0  0  0
    2.4770   -5.9254   25.3502 H   0  0  0  0  0  0  0  0  0  0  0  0
    3.6278   -3.9814   24.3126 H   0  0  0  0  0  0  0  0  0  0  0  0
    5.8972   -3.1162   23.7202 H   0  0  0  0  0  0  0  0  0  0  0  0
    7.0757   -4.1619   22.9749 H   0  0  0  0  0  0  0  0  0  0  0  0
    4.5899   -2.9713   21.6787 H   0  0  0  0  0  0  0  0  0  0  0  0
    5.5386   -4.2563   20.9228 H   0  0  0  0  0  0  0  0  0  0  0  0
    6.6276   -2.3971   20.0945 H   0  0  0  0  0  0  0  0  0  0  0  0
    6.9353    0.1707   19.6790 C   0  0  0  0  0  0  0  0  0  0  0  0
    5.6650    0.6911   19.9585 C   0  0  0  0  0  0  0  0  0  0  0  0
    4.9272    1.2496   18.9127 C   0  0  0  0  0  0  0  0  0  0  0  0
    5.4937    1.2756   17.6331 C   0  0  0  0  0  0  0  0  0  0  0  0
    6.7066    0.7865   17.3408 N   0  0  0  0  0  0  0  0  0  0  0  0
    7.4038    0.2611   18.3573 C   0  0  0  0  0  0  0  0  0  0  0  0
    8.3969   -0.1114   18.1137 H   0  0  0  0  0  0  0  0  0  0  0  0
    4.9480    1.7054   16.7986 H   0  0  0  0  0  0  0  0  0  0  0  0
    3.9457    1.6784   19.0782 H   0  0  0  0  0  0  0  0  0  0  0  0
    5.2841    0.6722   20.9846 H   0  0  0  0  0  0  0  0  0  0  0  0
    8.5759   -1.0341   20.3690 H   0  0  0  0  0  0  0  0  0  0  0  0
    9.1637    0.3995   22.3359 H   0  0  0  0  0  0  0  0  0  0  0  0
    9.0696    1.3659   20.8538 H   0  0  0  0  0  0  0  0  0  0  0  0
    7.7420    1.4140   22.0199 H   0  0  0  0  0  0  0  0  0  0  0  0
  1  2  1  0
  2  3  1  0
  3  4  2  0
  3  5  1  0
  5  6  1  0
  6  7  1  0
  7  8  1  0
  8  9  2  0
  9 10  1  0
 10 11  2  0
 11 12  1  0
 12 13  2  0
 13 14  1  0
 14 15  1  0
 14 16  1  0
 14 17  1  0
 12 18  1  0
 11 19  1  0
 10 20  1  0
  9 21  1  0
  7 22  1  0
  7 23  1  0
  6 24  1  0
  6 25  1  0
  5 26  1  0
  2 27  1  0
 27 28  2  0
 28 29  1  0
 29 30  2  0
 30 31  1  0
 31 32  2  0
 32 33  1  0
 30 34  1  0
 29 35  1  0
 28 36  1  0
  2 37  1  0
  1 38  1  0
  1 39  1  0
  1 40  1  0
 13  8  1  0
 32 27  1  0
M  END
>  <cnnaffinity>  (1) 
-5.27784

>  <filename>  (1) 
CC(C(=O)NCCc1ccccc1C(F)(F)F)c1cccnc1

$$$$
