
     RDKit          3D

 43 46  0  0  0  0  0  0  0  0999 V2000
   10.9528    0.4300   21.3781 C   0  0  0  0  0  0  0  0  0  0  0  0
    9.4896    0.6874   21.0052 C   0  0  0  0  0  0  0  0  0  0  0  0
    8.9404    2.0384   21.5723 C   0  0  0  0  0  0  0  0  0  0  0  0
    8.8227    2.0422   23.0622 C   0  0  0  0  0  0  0  0  0  0  0  0
    9.7363    2.3248   24.0443 C   0  0  0  0  0  0  0  0  0  0  0  0
    9.2283    2.0574   25.2927 N   0  0  0  0  0  0  0  0  0  0  0  0
    8.0207    1.6034   25.0827 C   0  0  0  0  0  0  0  0  0  0  0  0
    7.7196    1.5855   23.7539 N   0  0  0  0  0  0  0  0  0  0  0  0
    6.8855    1.2036   23.3414 H   0  0  0  0  0  0  0  0  0  0  0  0
    7.3077    1.2982   25.8427 H   0  0  0  0  0  0  0  0  0  0  0  0
   10.7466    2.6900   23.9038 H   0  0  0  0  0  0  0  0  0  0  0  0
    7.9782    2.2771   21.1037 H   0  0  0  0  0  0  0  0  0  0  0  0
    9.6362    2.8360   21.2913 H   0  0  0  0  0  0  0  0  0  0  0  0
    8.6290   -0.4635   21.4364 C   0  0  0  0  0  0  0  0  0  0  0  0
    8.8565   -1.3084   22.4285 N   0  0  0  0  0  0  0  0  0  0  0  0
    7.6766   -1.9555   22.5609 C   0  0  0  0  0  0  0  0  0  0  0  0
    7.4107   -2.8925   23.6926 C   0  0  0  0  0  0  0  0  0  0  0  0
    6.3802   -2.3674   24.7521 C   0  0  0  0  0  0  0  0  0  0  0  0
    5.4342   -3.5400   24.3895 C   0  0  0  0  0  0  0  0  0  0  0  0
    6.4688   -4.0920   23.3761 C   0  0  0  0  0  0  0  0  0  0  0  0
    6.8864   -5.0721   23.6233 H   0  0  0  0  0  0  0  0  0  0  0  0
    6.1306   -4.1220   22.3343 H   0  0  0  0  0  0  0  0  0  0  0  0
    4.4878   -3.2298   23.9361 H   0  0  0  0  0  0  0  0  0  0  0  0
    5.1927   -4.2110   25.2189 H   0  0  0  0  0  0  0  0  0  0  0  0
    5.9911   -1.3629   24.5372 H   0  0  0  0  0  0  0  0  0  0  0  0
    6.7458   -2.3610   25.7818 H   0  0  0  0  0  0  0  0  0  0  0  0
    8.3805   -3.1664   24.1153 H   0  0  0  0  0  0  0  0  0  0  0  0
    6.7508   -1.6054   21.6847 N   0  0  0  0  0  0  0  0  0  0  0  0
    7.3686   -0.6507   20.9449 N   0  0  0  0  0  0  0  0  0  0  0  0
    6.6583    0.0087   19.9022 C   0  0  0  0  0  0  0  0  0  0  0  0
    5.4378    0.6407   20.1623 C   0  0  0  0  0  0  0  0  0  0  0  0
    4.8114    1.3100   19.1073 C   0  0  0  0  0  0  0  0  0  0  0  0
    5.3978    1.2962   17.8371 C   0  0  0  0  0  0  0  0  0  0  0  0
    6.5557    0.6696   17.5759 N   0  0  0  0  0  0  0  0  0  0  0  0
    7.1660    0.0491   18.5923 C   0  0  0  0  0  0  0  0  0  0  0  0
    8.1149   -0.4353   18.3649 H   0  0  0  0  0  0  0  0  0  0  0  0
    4.9217    1.7893   16.9930 H   0  0  0  0  0  0  0  0  0  0  0  0
    3.8810    1.8391   19.2591 H   0  0  0  0  0  0  0  0  0  0  0  0
    5.0083    0.6080   21.1665 H   0  0  0  0  0  0  0  0  0  0  0  0
    9.4165    0.7472   19.9153 H   0  0  0  0  0  0  0  0  0  0  0  0
   11.0623    0.2972   22.4608 H   0  0  0  0  0  0  0  0  0  0  0  0
   11.3082   -0.4904   20.9018 H   0  0  0  0  0  0  0  0  0  0  0  0
   11.5928    1.2611   21.0584 H   0  0  0  0  0  0  0  0  0  0  0  0
  1  2  1  0
  2  3  1  0
  3  4  1  0
  4  5  2  0
  5  6  1  0
  6  7  2  0
  7  8  1  0
  8  9  1  0
  7 10  1  0
  5 11  1  0
  3 12  1  0
  3 13  1  0
  2 14  1  0
 14 15  2  0
 15 16  1  0
 16 17  1  0
 17 18  1  0
 18 19  1  0
 19 20  1  0
 20 21  1  0
 20 22  1  0
 19 23  1  0
 19 24  1  0
 18 25  1  0
 18 26  1  0
 17 27  1  0
 16 28  2  0
 28 29  1  0
 29 30  1  0
 30 31  2  0
 31 32  1  0
 32 33  2  0
 33 34  1  0
 34 35  2  0
 35 36  1  0
 33 37  1  0
 32 38  1  0
 31 39  1  0
  2 40  1  0
  1 41  1  0
  1 42  1  0
  1 43  1  0
  8  4  1  0
 29 14  1  0
 35 30  1  0
 20 17  1  0
M  END
>  <cnnaffinity>  (1) 
-6.11804

>  <filename>  (1) 
CC(Cc1cnc[nH]1)c1nc(C2CCC2)nn1-c1cccnc1

$$$$
