
     RDKit          3D

 44 45  0  0  0  0  0  0  0  0999 V2000
    4.9199    1.9292   16.8507 H   0  0  0  0  0  0  0  0  0  0  0  0
    5.3898    1.3690   17.6573 C   0  0  0  0  0  0  0  0  0  0  0  0
    6.5306    0.7291   17.3513 N   0  0  0  0  0  0  0  0  0  0  0  0
    7.1247    0.0235   18.3289 C   0  0  0  0  0  0  0  0  0  0  0  0
    8.0468   -0.4829   18.0488 H   0  0  0  0  0  0  0  0  0  0  0  0
    6.6244   -0.0956   19.6529 C   0  0  0  0  0  0  0  0  0  0  0  0
    7.2149   -0.8342   20.6894 N   0  0  0  0  0  0  0  0  0  0  0  0
    6.5588   -1.1048   21.4071 H   0  0  0  0  0  0  0  0  0  0  0  0
    8.4862   -0.5798   21.3611 C   0  0  0  0  0  0  0  0  0  0  0  0
    8.1849   -0.7572   22.7409 O   0  0  0  0  0  0  0  0  0  0  0  0
    7.3431    0.2071   23.3757 C   0  0  0  0  0  0  0  0  0  0  0  0
    6.9341    0.9460   22.6629 H   0  0  0  0  0  0  0  0  0  0  0  0
    6.4853   -0.3252   23.8094 H   0  0  0  0  0  0  0  0  0  0  0  0
    8.0456    0.9471   24.5201 C   0  0  0  0  0  0  0  0  0  0  0  0
    8.3972    0.1836   25.2243 H   0  0  0  0  0  0  0  0  0  0  0  0
    7.2694    1.5209   25.0572 H   0  0  0  0  0  0  0  0  0  0  0  0
    9.1586    1.8056   24.1141 N   0  0  0  0  0  0  0  0  0  0  0  0
    8.7648    3.1851   23.8153 C   0  0  0  0  0  0  0  0  0  0  0  0
    7.9013    3.1737   23.1355 H   0  0  0  0  0  0  0  0  0  0  0  0
    8.4249    3.7144   24.7305 H   0  0  0  0  0  0  0  0  0  0  0  0
    9.9103    3.9764   23.1684 C   0  0  0  0  0  0  0  0  0  0  0  0
   10.1031    3.5533   22.1710 H   0  0  0  0  0  0  0  0  0  0  0  0
    9.5882    5.0153   23.0214 H   0  0  0  0  0  0  0  0  0  0  0  0
   11.1975    3.9063   24.0084 C   0  0  0  0  0  0  0  0  0  0  0  0
   12.0263    4.4166   23.4985 H   0  0  0  0  0  0  0  0  0  0  0  0
   11.0330    4.4473   24.9522 H   0  0  0  0  0  0  0  0  0  0  0  0
   11.5213    2.4259   24.2722 C   0  0  0  0  0  0  0  0  0  0  0  0
   11.6666    1.9287   23.3036 H   0  0  0  0  0  0  0  0  0  0  0  0
   12.4352    2.2704   24.8548 H   0  0  0  0  0  0  0  0  0  0  0  0
   10.3491    1.7312   24.9640 C   0  0  0  0  0  0  0  0  0  0  0  0
   10.1974    2.1901   25.9624 H   0  0  0  0  0  0  0  0  0  0  0  0
   10.5945    0.6745   25.1327 H   0  0  0  0  0  0  0  0  0  0  0  0
    9.1410    0.7719   21.0815 C   0  0  0  0  0  0  0  0  0  0  0  0
    9.4267    0.8389   20.0303 H   0  0  0  0  0  0  0  0  0  0  0  0
   10.0405    0.8432   21.6984 H   0  0  0  0  0  0  0  0  0  0  0  0
    8.4919    1.6135   21.3381 H   0  0  0  0  0  0  0  0  0  0  0  0
    9.4425   -1.7093   21.0173 C   0  0  0  0  0  0  0  0  0  0  0  0
    9.4821   -1.8221   19.9355 H   0  0  0  0  0  0  0  0  0  0  0  0
    9.0739   -2.6363   21.4554 H   0  0  0  0  0  0  0  0  0  0  0  0
   10.4540   -1.5040   21.3804 H   0  0  0  0  0  0  0  0  0  0  0  0
    5.4224    0.5749   19.9379 C   0  0  0  0  0  0  0  0  0  0  0  0
    5.0184    0.5184   20.9506 H   0  0  0  0  0  0  0  0  0  0  0  0
    4.8067    1.3184   18.9277 C   0  0  0  0  0  0  0  0  0  0  0  0
    3.8832    1.8580   19.1088 H   0  0  0  0  0  0  0  0  0  0  0  0
  1  2  1  0
  2  3  2  0
  3  4  1  0
  4  5  1  0
  4  6  2  0
  6  7  1  0
  7  8  1  0
  7  9  1  0
  9 10  1  0
 10 11  1  0
 11 12  1  0
 11 13  1  0
 11 14  1  0
 14 15  1  0
 14 16  1  0
 14 17  1  0
 17 18  1  0
 18 19  1  0
 18 20  1  0
 18 21  1  0
 21 22  1  0
 21 23  1  0
 21 24  1  0
 24 25  1  0
 24 26  1  0
 24 27  1  0
 27 28  1  0
 27 29  1  0
 27 30  1  0
 30 31  1  0
 30 32  1  0
  9 33  1  0
 33 34  1  0
 33 35  1  0
 33 36  1  0
  9 37  1  0
 37 38  1  0
 37 39  1  0
 37 40  1  0
  6 41  1  0
 41 42  1  0
 41 43  2  0
 43 44  1  0
 43  2  1  0
 30 17  1  0
M  END
>  <cnnaffinity>  (1) 
-4.73

>  <filename>  (1) 
CC(C)(Nc1cccnc1)OCCN1CCCCC1

$$$$
