
     RDKit          3D

 48 50  0  0  0  0  0  0  0  0999 V2000
   11.6083    2.3134   24.2224 C   0  0  0  0  0  0  0  0  0  0  0  0
   12.2350    0.9412   23.9085 C   0  0  0  0  0  0  0  0  0  0  0  0
   13.4597    1.0279   22.9802 C   0  0  0  0  0  0  0  0  0  0  0  0
   13.8680    0.0337   22.7646 H   0  0  0  0  0  0  0  0  0  0  0  0
   14.2769    1.6020   23.4250 H   0  0  0  0  0  0  0  0  0  0  0  0
   13.1950    1.5088   22.0339 H   0  0  0  0  0  0  0  0  0  0  0  0
   11.2195   -0.1047   23.3728 C   0  0  0  0  0  0  0  0  0  0  0  0
   10.8530   -1.0309   24.0698 O   0  0  0  0  0  0  0  0  0  0  0  0
   10.7751    0.0004   22.0199 N   0  0  0  0  0  0  0  0  0  0  0  0
   10.6559   -1.2758   21.3132 C   0  0  0  0  0  0  0  0  0  0  0  0
   11.6463   -1.6850   21.0613 H   0  0  0  0  0  0  0  0  0  0  0  0
   10.1397   -2.0351   21.9205 H   0  0  0  0  0  0  0  0  0  0  0  0
   10.1316   -1.1246   20.3677 H   0  0  0  0  0  0  0  0  0  0  0  0
    9.9713    1.1646   21.5670 C   0  0  0  0  0  0  0  0  0  0  0  0
    8.6754    1.3769   22.3216 C   0  0  0  0  0  0  0  0  0  0  0  0
    8.5171    2.2083   23.3312 N   0  0  0  0  0  0  0  0  0  0  0  0
    7.3832    1.7797   23.9332 C   0  0  0  0  0  0  0  0  0  0  0  0
    6.9853    2.3213   25.2323 C   0  0  0  0  0  0  0  0  0  0  0  0
    7.6511    3.4206   25.8125 C   0  0  0  0  0  0  0  0  0  0  0  0
    7.2271    3.8267   27.0673 C   0  0  0  0  0  0  0  0  0  0  0  0
    7.8262    4.8588   27.6746 F   0  0  0  0  0  0  0  0  0  0  0  0
    6.1784    3.1574   27.7098 C   0  0  0  0  0  0  0  0  0  0  0  0
    5.5572    2.1097   27.1575 N   0  0  0  0  0  0  0  0  0  0  0  0
    5.9579    1.6928   25.9502 C   0  0  0  0  0  0  0  0  0  0  0  0
    5.4385    0.8306   25.5333 H   0  0  0  0  0  0  0  0  0  0  0  0
    5.8426    3.4902   28.6912 H   0  0  0  0  0  0  0  0  0  0  0  0
    8.4636    3.9476   25.3077 H   0  0  0  0  0  0  0  0  0  0  0  0
    6.7874    0.7858   23.2965 N   0  0  0  0  0  0  0  0  0  0  0  0
    7.6174    0.5394   22.2545 N   0  0  0  0  0  0  0  0  0  0  0  0
    7.2461   -0.4479   21.2458 C   0  0  0  0  0  0  0  0  0  0  0  0
    6.6333    0.1490   19.9907 C   0  0  0  0  0  0  0  0  0  0  0  0
    5.4169    0.8320   20.0925 C   0  0  0  0  0  0  0  0  0  0  0  0
    4.8578    1.3887   18.9415 C   0  0  0  0  0  0  0  0  0  0  0  0
    5.5279    1.2315   17.7255 C   0  0  0  0  0  0  0  0  0  0  0  0
    6.6859    0.5665   17.6006 N   0  0  0  0  0  0  0  0  0  0  0  0
    7.2134    0.0406   18.7155 C   0  0  0  0  0  0  0  0  0  0  0  0
    8.1523   -0.4997   18.5731 H   0  0  0  0  0  0  0  0  0  0  0  0
    5.1226    1.6650   16.8126 H   0  0  0  0  0  0  0  0  0  0  0  0
    3.9282    1.9458   18.9794 H   0  0  0  0  0  0  0  0  0  0  0  0
    4.9382    0.9295   21.0696 H   0  0  0  0  0  0  0  0  0  0  0  0
    8.1284   -1.0460   21.0096 H   0  0  0  0  0  0  0  0  0  0  0  0
    6.5265   -1.1074   21.7423 H   0  0  0  0  0  0  0  0  0  0  0  0
    9.7595    1.0566   20.4986 H   0  0  0  0  0  0  0  0  0  0  0  0
   10.5630    2.0788   21.6832 H   0  0  0  0  0  0  0  0  0  0  0  0
   12.5654    0.5137   24.8625 H   0  0  0  0  0  0  0  0  0  0  0  0
   10.8603    2.6207   23.4992 H   0  0  0  0  0  0  0  0  0  0  0  0
   12.3552    3.1157   24.2611 H   0  0  0  0  0  0  0  0  0  0  0  0
   11.0861    2.2752   25.1834 H   0  0  0  0  0  0  0  0  0  0  0  0
  1  2  1  0
  2  3  1  0
  3  4  1  0
  3  5  1  0
  3  6  1  0
  2  7  1  0
  7  8  2  0
  7  9  1  0
  9 10  1  0
 10 11  1  0
 10 12  1  0
 10 13  1  0
  9 14  1  0
 14 15  1  0
 15 16  2  0
 16 17  1  0
 17 18  1  0
 18 19  2  0
 19 20  1  0
 20 21  1  0
 20 22  2  0
 22 23  1  0
 23 24  2  0
 24 25  1  0
 22 26  1  0
 19 27  1  0
 17 28  2  0
 28 29  1  0
 29 30  1  0
 30 31  1  0
 31 32  2  0
 32 33  1  0
 33 34  2  0
 34 35  1  0
 35 36  2  0
 36 37  1  0
 34 38  1  0
 33 39  1  0
 32 40  1  0
 30 41  1  0
 30 42  1  0
 14 43  1  0
 14 44  1  0
  2 45  1  0
  1 46  1  0
  1 47  1  0
  1 48  1  0
 29 15  1  0
 36 31  1  0
 24 18  1  0
M  END
>  <cnnaffinity>  (1) 
-5.64252

>  <filename>  (1) 
CC(C)C(=O)N(C)Cc1nc(-c2cncc(F)c2)nn1Cc1cccnc1

$$$$
