
     RDKit          3D

 40 42  0  0  0  0  0  0  0  0999 V2000
   10.5910   -2.8969   22.8254 C   0  0  0  0  0  0  0  0  0  0  0  0
    9.1197   -3.1641   22.4116 C   0  0  0  0  0  0  0  0  0  0  0  0
    8.4208   -3.9944   23.5093 C   0  0  0  0  0  0  0  0  0  0  0  0
    7.4037   -4.2738   23.2163 H   0  0  0  0  0  0  0  0  0  0  0  0
    8.3783   -3.4354   24.4533 H   0  0  0  0  0  0  0  0  0  0  0  0
    8.9877   -4.9189   23.6854 H   0  0  0  0  0  0  0  0  0  0  0  0
    8.3848   -1.8912   22.0821 C   0  0  0  0  0  0  0  0  0  0  0  0
    7.8418   -1.6968   20.8954 N   0  0  0  0  0  0  0  0  0  0  0  0
    7.2255   -0.4977   21.0237 N   0  0  0  0  0  0  0  0  0  0  0  0
    6.5572    0.0859   19.9226 C   0  0  0  0  0  0  0  0  0  0  0  0
    5.3765    0.8149   20.1025 C   0  0  0  0  0  0  0  0  0  0  0  0
    4.8233    1.4264   18.9775 C   0  0  0  0  0  0  0  0  0  0  0  0
    5.4463    1.2722   17.7371 C   0  0  0  0  0  0  0  0  0  0  0  0
    6.5608    0.5415   17.5564 N   0  0  0  0  0  0  0  0  0  0  0  0
    7.0932   -0.0486   18.6280 C   0  0  0  0  0  0  0  0  0  0  0  0
    7.9886   -0.6430   18.4686 H   0  0  0  0  0  0  0  0  0  0  0  0
    5.0359    1.7447   16.8494 H   0  0  0  0  0  0  0  0  0  0  0  0
    3.9219    2.0256   19.0537 H   0  0  0  0  0  0  0  0  0  0  0  0
    4.9162    0.8908   21.0864 H   0  0  0  0  0  0  0  0  0  0  0  0
    7.4748   -0.0053   22.2715 C   0  0  0  0  0  0  0  0  0  0  0  0
    7.0745    1.3548   22.7451 C   0  0  0  0  0  0  0  0  0  0  0  0
    5.7179    1.3467   23.2114 O   0  0  0  0  0  0  0  0  0  0  0  0
    5.2861    2.3542   24.0269 C   0  0  0  0  0  0  0  0  0  0  0  0
    5.8654    3.6286   24.0876 C   0  0  0  0  0  0  0  0  0  0  0  0
    5.2982    4.6485   24.8632 C   0  0  0  0  0  0  0  0  0  0  0  0
    4.1481    4.3788   25.5900 C   0  0  0  0  0  0  0  0  0  0  0  0
    3.5763    5.3550   26.3120 F   0  0  0  0  0  0  0  0  0  0  0  0
    3.5647    3.1127   25.5963 C   0  0  0  0  0  0  0  0  0  0  0  0
    4.1476    2.1120   24.8308 C   0  0  0  0  0  0  0  0  0  0  0  0
    3.6079    0.8844   24.8796 F   0  0  0  0  0  0  0  0  0  0  0  0
    2.6798    2.9041   26.1865 H   0  0  0  0  0  0  0  0  0  0  0  0
    5.7365    5.6395   24.9060 H   0  0  0  0  0  0  0  0  0  0  0  0
    6.7744    3.8191   23.5231 H   0  0  0  0  0  0  0  0  0  0  0  0
    7.1745    2.0698   21.9182 H   0  0  0  0  0  0  0  0  0  0  0  0
    7.7653    1.6282   23.5533 H   0  0  0  0  0  0  0  0  0  0  0  0
    8.2253   -0.8543   22.9469 N   0  0  0  0  0  0  0  0  0  0  0  0
    9.0496   -3.7185   21.4695 H   0  0  0  0  0  0  0  0  0  0  0  0
   10.6262   -2.0729   23.5473 H   0  0  0  0  0  0  0  0  0  0  0  0
   11.2423   -2.6370   21.9798 H   0  0  0  0  0  0  0  0  0  0  0  0
   11.0261   -3.7734   23.3225 H   0  0  0  0  0  0  0  0  0  0  0  0
  1  2  1  0
  2  3  1  0
  3  4  1  0
  3  5  1  0
  3  6  1  0
  2  7  1  0
  7  8  2  0
  8  9  1  0
  9 10  1  0
 10 11  2  0
 11 12  1  0
 12 13  2  0
 13 14  1  0
 14 15  2  0
 15 16  1  0
 13 17  1  0
 12 18  1  0
 11 19  1  0
  9 20  1  0
 20 21  1  0
 21 22  1  0
 22 23  1  0
 23 24  2  0
 24 25  1  0
 25 26  2  0
 26 27  1  0
 26 28  1  0
 28 29  2  0
 29 30  1  0
 28 31  1  0
 25 32  1  0
 24 33  1  0
 21 34  1  0
 21 35  1  0
 20 36  2  0
  2 37  1  0
  1 38  1  0
  1 39  1  0
  1 40  1  0
 36  7  1  0
 15 10  1  0
 29 23  1  0
M  END
>  <cnnaffinity>  (1) 
-5.3735

>  <filename>  (1) 
CC(C)c1nc(COc2ccc(F)cc2F)n(-c2cccnc2)n1

$$$$
