
     RDKit          3D

 50 53  0  0  0  0  0  0  0  0999 V2000
    9.1657   -4.1586   23.6360 C   0  0  0  0  0  0  0  0  0  0  0  0
    7.7383   -3.7746   23.2066 C   0  0  0  0  0  0  0  0  0  0  0  0
    7.7118   -2.3741   22.6352 C   0  0  0  0  0  0  0  0  0  0  0  0
    7.1518   -2.0473   21.4912 N   0  0  0  0  0  0  0  0  0  0  0  0
    7.3441   -0.6956   21.4201 N   0  0  0  0  0  0  0  0  0  0  0  0
    6.7481   -0.0090   20.3140 C   0  0  0  0  0  0  0  0  0  0  0  0
    5.5790    0.7418   20.4539 C   0  0  0  0  0  0  0  0  0  0  0  0
    5.0219    1.3172   19.3036 C   0  0  0  0  0  0  0  0  0  0  0  0
    5.6514    1.1164   18.0700 C   0  0  0  0  0  0  0  0  0  0  0  0
    6.7643    0.3743   17.9291 N   0  0  0  0  0  0  0  0  0  0  0  0
    7.2899   -0.1792   19.0286 C   0  0  0  0  0  0  0  0  0  0  0  0
    8.1996   -0.7628   18.8974 H   0  0  0  0  0  0  0  0  0  0  0  0
    5.2576    1.5770   17.1642 H   0  0  0  0  0  0  0  0  0  0  0  0
    4.1249    1.9237   19.3627 H   0  0  0  0  0  0  0  0  0  0  0  0
    5.1274    0.8677   21.4414 H   0  0  0  0  0  0  0  0  0  0  0  0
    8.0340   -0.2911   22.5277 C   0  0  0  0  0  0  0  0  0  0  0  0
    8.4854    1.1006   22.9476 C   0  0  0  0  0  0  0  0  0  0  0  0
    8.8876    2.1067   21.8482 C   0  0  0  0  0  0  0  0  0  0  0  0
    7.7240    3.1033   21.7908 C   0  0  0  0  0  0  0  0  0  0  0  0
    7.0189    2.9901   23.1307 C   0  0  0  0  0  0  0  0  0  0  0  0
    6.1441    3.7109   23.5676 O   0  0  0  0  0  0  0  0  0  0  0  0
    7.4970    1.8551   23.7379 N   0  0  0  0  0  0  0  0  0  0  0  0
    6.8807    1.2985   24.9299 C   0  0  0  0  0  0  0  0  0  0  0  0
    5.5883    0.5627   24.5768 C   0  0  0  0  0  0  0  0  0  0  0  0
    4.8078    0.1037   25.7760 C   0  0  0  0  0  0  0  0  0  0  0  0
    5.4350   -0.8941   26.4381 F   0  0  0  0  0  0  0  0  0  0  0  0
    3.5997   -0.3631   25.4163 F   0  0  0  0  0  0  0  0  0  0  0  0
    4.6003    1.1072   26.6554 F   0  0  0  0  0  0  0  0  0  0  0  0
    4.9373    1.2278   24.0008 H   0  0  0  0  0  0  0  0  0  0  0  0
    5.8314   -0.3167   23.9726 H   0  0  0  0  0  0  0  0  0  0  0  0
    7.5933    0.6044   25.3922 H   0  0  0  0  0  0  0  0  0  0  0  0
    6.6872    2.1054   25.6431 H   0  0  0  0  0  0  0  0  0  0  0  0
    6.9797    2.8182   21.0457 H   0  0  0  0  0  0  0  0  0  0  0  0
    8.0129    4.1357   21.5988 H   0  0  0  0  0  0  0  0  0  0  0  0
    9.7989    2.6156   22.1833 H   0  0  0  0  0  0  0  0  0  0  0  0
    9.1280    1.6262   20.8923 H   0  0  0  0  0  0  0  0  0  0  0  0
    9.3451    0.8668   23.5926 H   0  0  0  0  0  0  0  0  0  0  0  0
    8.2836   -1.3371   23.2955 N   0  0  0  0  0  0  0  0  0  0  0  0
    6.7550   -3.8862   24.3755 C   0  0  0  0  0  0  0  0  0  0  0  0
    5.2841   -3.9105   24.1014 C   0  0  0  0  0  0  0  0  0  0  0  0
    5.9677   -5.1356   24.6462 C   0  0  0  0  0  0  0  0  0  0  0  0
    6.1094   -5.9857   23.9836 H   0  0  0  0  0  0  0  0  0  0  0  0
    5.7800   -5.4101   25.6812 H   0  0  0  0  0  0  0  0  0  0  0  0
    4.9669   -3.9311   23.0643 H   0  0  0  0  0  0  0  0  0  0  0  0
    4.6385   -3.3366   24.7575 H   0  0  0  0  0  0  0  0  0  0  0  0
    7.0666   -3.3304   25.2639 H   0  0  0  0  0  0  0  0  0  0  0  0
    7.3953   -4.4201   22.3862 H   0  0  0  0  0  0  0  0  0  0  0  0
    9.4523   -3.6010   24.5383 H   0  0  0  0  0  0  0  0  0  0  0  0
    9.8779   -3.8867   22.8521 H   0  0  0  0  0  0  0  0  0  0  0  0
    9.2567   -5.2303   23.8408 H   0  0  0  0  0  0  0  0  0  0  0  0
  1  2  1  0
  2  3  1  0
  3  4  2  0
  4  5  1  0
  5  6  1  0
  6  7  2  0
  7  8  1  0
  8  9  2  0
  9 10  1  0
 10 11  2  0
 11 12  1  0
  9 13  1  0
  8 14  1  0
  7 15  1  0
  5 16  1  0
 16 17  1  0
 17 18  1  0
 18 19  1  0
 19 20  1  0
 20 21  2  0
 20 22  1  0
 22 23  1  0
 23 24  1  0
 24 25  1  0
 25 26  1  0
 25 27  1  0
 25 28  1  0
 24 29  1  0
 24 30  1  0
 23 31  1  0
 23 32  1  0
 19 33  1  0
 19 34  1  0
 18 35  1  0
 18 36  1  0
 17 37  1  0
 16 38  2  0
  2 39  1  0
 39 40  1  0
 40 41  1  0
 41 42  1  0
 41 43  1  0
 40 44  1  0
 40 45  1  0
 39 46  1  0
  2 47  1  0
  1 48  1  0
  1 49  1  0
  1 50  1  0
 38  3  1  0
 41 39  1  0
 11  6  1  0
 22 17  1  0
M  END
>  <cnnaffinity>  (1) 
-6.24207

>  <filename>  (1) 
CC(c1nc(C2CCC(=O)N2CCC(F)(F)F)n(-c2cccnc2)n1)C1CC1

$$$$
