
     RDKit          3D

 43 46  0  0  0  0  0  0  0  0999 V2000
   10.2761   -3.1461   23.1262 C   0  0  0  0  0  0  0  0  0  0  0  0
    8.8406   -3.4768   22.6494 C   0  0  0  0  0  0  0  0  0  0  0  0
    8.1046   -2.2038   22.3373 C   0  0  0  0  0  0  0  0  0  0  0  0
    7.6583   -1.9039   21.1377 N   0  0  0  0  0  0  0  0  0  0  0  0
    7.2165   -0.6193   21.2881 N   0  0  0  0  0  0  0  0  0  0  0  0
    6.6142    0.0542   20.1911 C   0  0  0  0  0  0  0  0  0  0  0  0
    5.4438    0.8160   20.3212 C   0  0  0  0  0  0  0  0  0  0  0  0
    4.8912    1.3755   19.1626 C   0  0  0  0  0  0  0  0  0  0  0  0
    5.5348    1.1828   17.9373 C   0  0  0  0  0  0  0  0  0  0  0  0
    6.6698    0.4721   17.8123 N   0  0  0  0  0  0  0  0  0  0  0  0
    7.1790   -0.0920   18.9097 C   0  0  0  0  0  0  0  0  0  0  0  0
    8.0816   -0.6875   18.7827 H   0  0  0  0  0  0  0  0  0  0  0  0
    5.1271    1.5956   17.0163 H   0  0  0  0  0  0  0  0  0  0  0  0
    3.9884    1.9789   19.1998 H   0  0  0  0  0  0  0  0  0  0  0  0
    4.9702    0.9671   21.2923 H   0  0  0  0  0  0  0  0  0  0  0  0
    7.4645   -0.2135   22.5673 C   0  0  0  0  0  0  0  0  0  0  0  0
    7.5644    1.2195   22.9826 C   0  0  0  0  0  0  0  0  0  0  0  0
    8.8384    1.9111   22.3275 C   0  0  0  0  0  0  0  0  0  0  0  0
   10.0331    1.3093   22.7212 C   0  0  0  0  0  0  0  0  0  0  0  0
   11.2779    1.7320   22.1122 N   0  0  0  0  0  0  0  0  0  0  0  0
   11.5301    2.6953   21.2544 C   0  0  0  0  0  0  0  0  0  0  0  0
   12.0542    3.4163   20.5118 O   0  0  0  0  0  0  0  0  0  0  0  0
    8.7532    3.3925   21.8311 C   0  0  0  0  0  0  0  0  0  0  0  0
    8.5808    2.4760   20.9410 C   0  0  0  0  0  0  0  0  0  0  0  0
    8.2255    2.2183   19.9618 H   0  0  0  0  0  0  0  0  0  0  0  0
    8.9781    4.4089   22.1060 H   0  0  0  0  0  0  0  0  0  0  0  0
   12.1071    1.1917   22.4092 H   0  0  0  0  0  0  0  0  0  0  0  0
   10.0897    0.5530   23.4733 H   0  0  0  0  0  0  0  0  0  0  0  0
    6.6758    1.7644   22.6644 H   0  0  0  0  0  0  0  0  0  0  0  0
    7.6424    1.2534   24.0729 H   0  0  0  0  0  0  0  0  0  0  0  0
    7.9661   -1.2181   23.2629 N   0  0  0  0  0  0  0  0  0  0  0  0
    7.9972   -4.3235   23.6047 C   0  0  0  0  0  0  0  0  0  0  0  0
    7.8009   -3.9391   25.0392 C   0  0  0  0  0  0  0  0  0  0  0  0
    8.5773   -5.1796   24.6914 C   0  0  0  0  0  0  0  0  0  0  0  0
    8.1139   -6.1454   24.8674 H   0  0  0  0  0  0  0  0  0  0  0  0
    9.6520   -5.1801   24.8597 H   0  0  0  0  0  0  0  0  0  0  0  0
    6.8095   -4.0312   25.4725 H   0  0  0  0  0  0  0  0  0  0  0  0
    8.3572   -3.0812   25.4100 H   0  0  0  0  0  0  0  0  0  0  0  0
    7.1137   -4.7494   23.1246 H   0  0  0  0  0  0  0  0  0  0  0  0
    8.8664   -4.0054   21.6937 H   0  0  0  0  0  0  0  0  0  0  0  0
   10.8635   -2.7413   22.2940 H   0  0  0  0  0  0  0  0  0  0  0  0
   10.7958   -4.0223   23.5192 H   0  0  0  0  0  0  0  0  0  0  0  0
   10.2542   -2.3917   23.9225 H   0  0  0  0  0  0  0  0  0  0  0  0
  1  2  1  0
  2  3  1  0
  3  4  2  0
  4  5  1  0
  5  6  1  0
  6  7  2  0
  7  8  1  0
  8  9  2  0
  9 10  1  0
 10 11  2  0
 11 12  1  0
  9 13  1  0
  8 14  1  0
  7 15  1  0
  5 16  1  0
 16 17  1  0
 17 18  1  0
 18 19  2  0
 19 20  1  0
 20 21  1  0
 21 22  2  0
 21 23  1  0
 23 24  2  0
 24 25  1  0
 23 26  1  0
 20 27  1  0
 19 28  1  0
 17 29  1  0
 17 30  1  0
 16 31  2  0
  2 32  1  0
 32 33  1  0
 33 34  1  0
 34 35  1  0
 34 36  1  0
 33 37  1  0
 33 38  1  0
 32 39  1  0
  2 40  1  0
  1 41  1  0
  1 42  1  0
  1 43  1  0
 31  3  1  0
 34 32  1  0
 11  6  1  0
 24 18  1  0
M  END
>  <cnnaffinity>  (1) 
-6.19675

>  <filename>  (1) 
CC(c1nc(Cc2ccc(=O)[nH]c2)n(-c2cccnc2)n1)C1CC1

$$$$
