
     RDKit          3D

 51 53  0  0  0  0  0  0  0  0999 V2000
    7.9341   -0.6818   26.8044 C   0  0  0  0  0  0  0  0  0  0  0  0
    7.7440   -0.9453   25.3065 C   0  0  0  0  0  0  0  0  0  0  0  0
    9.0148   -1.4735   24.6360 C   0  0  0  0  0  0  0  0  0  0  0  0
    9.8268   -0.7406   24.6928 H   0  0  0  0  0  0  0  0  0  0  0  0
    8.8305   -1.7029   23.5779 H   0  0  0  0  0  0  0  0  0  0  0  0
    9.3476   -2.3931   25.1313 H   0  0  0  0  0  0  0  0  0  0  0  0
    7.1483    0.2863   24.5796 C   0  0  0  0  0  0  0  0  0  0  0  0
    5.9425    0.3176   24.3164 O   0  0  0  0  0  0  0  0  0  0  0  0
    7.9630    1.3791   24.1925 N   0  0  0  0  0  0  0  0  0  0  0  0
    8.8430    2.0644   25.1305 C   0  0  0  0  0  0  0  0  0  0  0  0
    9.2363    2.9918   24.6874 H   0  0  0  0  0  0  0  0  0  0  0  0
    9.7104    1.4644   25.4420 H   0  0  0  0  0  0  0  0  0  0  0  0
    8.2717    2.3470   26.0254 H   0  0  0  0  0  0  0  0  0  0  0  0
    7.9002    1.8206   22.7989 C   0  0  0  0  0  0  0  0  0  0  0  0
    8.8429    1.0686   21.9603 C   0  0  0  0  0  0  0  0  0  0  0  0
   10.1367    1.3638   21.9359 N   0  0  0  0  0  0  0  0  0  0  0  0
   10.5980    0.3566   21.2254 C   0  0  0  0  0  0  0  0  0  0  0  0
   12.0652   -0.0179   21.3455 C   0  0  0  0  0  0  0  0  0  0  0  0
   12.6248   -1.2219   20.1439 C   0  0  0  0  0  0  0  0  0  0  0  0
   13.9537   -1.2419   19.9026 C   0  0  0  0  0  0  0  0  0  0  0  0
   14.8664   -0.3678   20.6339 C   0  0  0  0  0  0  0  0  0  0  0  0
   16.1584   -0.0256   19.6733 N   0  0  0  0  0  0  0  0  0  0  0  0
   16.6350   -0.8981   19.3411 H   0  0  0  0  0  0  0  0  0  0  0  0
   16.9287    0.4238   20.2003 H   0  0  0  0  0  0  0  0  0  0  0  0
   14.5241   -0.8826   22.3208 C   0  0  0  0  0  0  0  0  0  0  0  0
   13.0070    1.0418   21.8272 C   0  0  0  0  0  0  0  0  0  0  0  0
   12.7879    2.0585   22.0725 H   0  0  0  0  0  0  0  0  0  0  0  0
   15.3245    1.2962   21.7868 H   0  0  0  0  0  0  0  0  0  0  0  0
   14.6576   -1.7430   19.1235 H   0  0  0  0  0  0  0  0  0  0  0  0
   12.6250   -1.2216   20.1439 H   0  0  0  0  0  0  0  0  0  0  0  0
    9.7268   -0.4772   20.7230 N   0  0  0  0  0  0  0  0  0  0  0  0
    8.6022   -0.0592   21.2783 N   0  0  0  0  0  0  0  0  0  0  0  0
    7.3607   -0.7199   20.9797 C   0  0  0  0  0  0  0  0  0  0  0  0
    6.6334    0.0064   19.8921 C   0  0  0  0  0  0  0  0  0  0  0  0
    5.4351    0.6547   20.1578 C   0  0  0  0  0  0  0  0  0  0  0  0
    4.8015    1.3142   19.1069 C   0  0  0  0  0  0  0  0  0  0  0  0
    5.4025    1.2919   17.8426 C   0  0  0  0  0  0  0  0  0  0  0  0
    6.5667    0.6809   17.5819 N   0  0  0  0  0  0  0  0  0  0  0  0
    7.1729    0.0637   18.5968 C   0  0  0  0  0  0  0  0  0  0  0  0
    8.1211   -0.4299   18.3841 H   0  0  0  0  0  0  0  0  0  0  0  0
    4.9083    1.7737   17.0043 H   0  0  0  0  0  0  0  0  0  0  0  0
    3.8664    1.8493   19.2644 H   0  0  0  0  0  0  0  0  0  0  0  0
    5.0057    0.6302   21.1615 H   0  0  0  0  0  0  0  0  0  0  0  0
    7.5783   -1.7482   20.6736 H   0  0  0  0  0  0  0  0  0  0  0  0
    6.7903   -0.7437   21.9031 H   0  0  0  0  0  0  0  0  0  0  0  0
    6.9191    1.6872   22.3706 H   0  0  0  0  0  0  0  0  0  0  0  0
    8.1928    2.8684   22.7072 H   0  0  0  0  0  0  0  0  0  0  0  0
    6.9671   -1.7216   25.2101 H   0  0  0  0  0  0  0  0  0  0  0  0
    8.7697    0.0001   26.9948 H   0  0  0  0  0  0  0  0  0  0  0  0
    8.1543   -1.6234   27.3220 H   0  0  0  0  0  0  0  0  0  0  0  0
    7.0257   -0.2570   27.2506 H   0  0  0  0  0  0  0  0  0  0  0  0
  1  2  1  0
  2  3  1  0
  3  4  1  0
  3  5  1  0
  3  6  1  0
  2  7  1  0
  7  8  2  0
  7  9  1  0
  9 10  1  0
 10 11  1  0
 10 12  1  0
 10 13  1  0
  9 14  1  0
 14 15  1  0
 15 16  2  0
 16 17  1  0
 17 18  1  0
 18 19  2  0
 19 20  1  0
 20 21  2  0
 21 22  1  0
 22 23  1  0
 22 24  1  0
 21 25  1  0
 25 26  2  0
 26 27  1  0
 25 28  1  0
 20 29  1  0
 19 30  1  0
 17 31  2  0
 31 32  1  0
 32 33  1  0
 33 34  1  0
 34 35  2  0
 35 36  1  0
 36 37  2  0
 37 38  1  0
 38 39  2  0
 39 40  1  0
 37 41  1  0
 36 42  1  0
 35 43  1  0
 33 44  1  0
 33 45  1  0
 14 46  1  0
 14 47  1  0
  2 48  1  0
  1 49  1  0
  1 50  1  0
  1 51  1  0
 32 15  1  0
 39 34  1  0
 26 18  1  0
M  END
>  <cnnaffinity>  (1) 
-6.54349

>  <filename>  (1) 
CC(C)C(=O)N(C)Cc1nc(-c2ccc(N)cc2)nn1Cc1cccnc1

$$$$
