
     RDKit          3D

 46 49  0  0  0  0  0  0  0  0999 V2000
   10.9693    0.4254   21.3729 C   0  0  0  0  0  0  0  0  0  0  0  0
    9.4984    0.6867   21.0267 C   0  0  0  0  0  0  0  0  0  0  0  0
    8.9494    2.0385   21.5991 C   0  0  0  0  0  0  0  0  0  0  0  0
    8.7991    2.0412   23.1075 C   0  0  0  0  0  0  0  0  0  0  0  0
    9.8942    2.2996   23.9477 C   0  0  0  0  0  0  0  0  0  0  0  0
    9.7647    2.0817   25.3239 C   0  0  0  0  0  0  0  0  0  0  0  0
    8.6172    1.7286   25.9143 N   0  0  0  0  0  0  0  0  0  0  0  0
    7.5586    1.5249   25.1178 C   0  0  0  0  0  0  0  0  0  0  0  0
    7.6036    1.6343   23.7264 C   0  0  0  0  0  0  0  0  0  0  0  0
    6.7521    1.3264   23.1277 H   0  0  0  0  0  0  0  0  0  0  0  0
    6.6357    1.2350   25.6197 H   0  0  0  0  0  0  0  0  0  0  0  0
   10.6322    2.1415   25.9781 H   0  0  0  0  0  0  0  0  0  0  0  0
   10.8459    2.6325   23.5372 H   0  0  0  0  0  0  0  0  0  0  0  0
    7.9932    2.2652   21.1135 H   0  0  0  0  0  0  0  0  0  0  0  0
    9.6325    2.8352   21.2814 H   0  0  0  0  0  0  0  0  0  0  0  0
    8.6350   -0.4798   21.4263 C   0  0  0  0  0  0  0  0  0  0  0  0
    8.8588   -1.3489   22.3986 N   0  0  0  0  0  0  0  0  0  0  0  0
    7.6651   -1.9658   22.5465 C   0  0  0  0  0  0  0  0  0  0  0  0
    7.4031   -2.8975   23.6888 C   0  0  0  0  0  0  0  0  0  0  0  0
    6.5933   -4.1629   23.3356 C   0  0  0  0  0  0  0  0  0  0  0  0
    5.8647   -4.4920   24.6445 C   0  0  0  0  0  0  0  0  0  0  0  0
    5.8292   -3.3026   25.4155 O   0  0  0  0  0  0  0  0  0  0  0  0
    6.5323   -2.2502   24.7915 C   0  0  0  0  0  0  0  0  0  0  0  0
    5.8253   -1.5112   24.3770 H   0  0  0  0  0  0  0  0  0  0  0  0
    7.1290   -1.7400   25.5597 H   0  0  0  0  0  0  0  0  0  0  0  0
    6.3785   -5.2761   25.2183 H   0  0  0  0  0  0  0  0  0  0  0  0
    4.8335   -4.8316   24.4809 H   0  0  0  0  0  0  0  0  0  0  0  0
    5.8679   -3.9199   22.5486 H   0  0  0  0  0  0  0  0  0  0  0  0
    7.2188   -4.9865   22.9719 H   0  0  0  0  0  0  0  0  0  0  0  0
    8.3864   -3.1375   24.1120 H   0  0  0  0  0  0  0  0  0  0  0  0
    6.7306   -1.5835   21.6950 N   0  0  0  0  0  0  0  0  0  0  0  0
    7.3668   -0.6470   20.9449 N   0  0  0  0  0  0  0  0  0  0  0  0
    6.6703    0.0103   19.8954 C   0  0  0  0  0  0  0  0  0  0  0  0
    5.4483    0.6396   20.1539 C   0  0  0  0  0  0  0  0  0  0  0  0
    4.8088    1.3058   19.1054 C   0  0  0  0  0  0  0  0  0  0  0  0
    5.3989    1.2912   17.8370 C   0  0  0  0  0  0  0  0  0  0  0  0
    6.5497    0.6546   17.5716 N   0  0  0  0  0  0  0  0  0  0  0  0
    7.1699    0.0359   18.5818 C   0  0  0  0  0  0  0  0  0  0  0  0
    8.1097   -0.4620   18.3422 H   0  0  0  0  0  0  0  0  0  0  0  0
    4.9334    1.8089   17.0020 H   0  0  0  0  0  0  0  0  0  0  0  0
    3.8763    1.8408   19.2607 H   0  0  0  0  0  0  0  0  0  0  0  0
    5.0211    0.5980   21.1559 H   0  0  0  0  0  0  0  0  0  0  0  0
    9.4040    0.7348   19.9375 H   0  0  0  0  0  0  0  0  0  0  0  0
   11.1052    0.2593   22.4475 H   0  0  0  0  0  0  0  0  0  0  0  0
   11.3196   -0.4751   20.8571 H   0  0  0  0  0  0  0  0  0  0  0  0
   11.6024    1.2653   21.0637 H   0  0  0  0  0  0  0  0  0  0  0  0
  1  2  1  0
  2  3  1  0
  3  4  1  0
  4  5  2  0
  5  6  1  0
  6  7  2  0
  7  8  1  0
  8  9  2  0
  9 10  1  0
  8 11  1  0
  6 12  1  0
  5 13  1  0
  3 14  1  0
  3 15  1  0
  2 16  1  0
 16 17  2  0
 17 18  1  0
 18 19  1  0
 19 20  1  0
 20 21  1  0
 21 22  1  0
 22 23  1  0
 23 24  1  0
 23 25  1  0
 21 26  1  0
 21 27  1  0
 20 28  1  0
 20 29  1  0
 19 30  1  0
 18 31  2  0
 31 32  1  0
 32 33  1  0
 33 34  2  0
 34 35  1  0
 35 36  2  0
 36 37  1  0
 37 38  2  0
 38 39  1  0
 36 40  1  0
 35 41  1  0
 34 42  1  0
  2 43  1  0
  1 44  1  0
  1 45  1  0
  1 46  1  0
  9  4  1  0
 32 16  1  0
 38 33  1  0
 23 19  1  0
M  END
>  <cnnaffinity>  (1) 
-5.96029

>  <filename>  (1) 
CC(Cc1ccncc1)c1nc(C2CCOC2)nn1-c1cccnc1

$$$$
