
     RDKit          3D

 45 47  0  0  0  0  0  0  0  0999 V2000
    8.3122   -6.0083   22.6356 C   0  0  0  0  0  0  0  0  0  0  0  0
    7.6039   -4.6512   22.5085 C   0  0  0  0  0  0  0  0  0  0  0  0
    6.8483   -4.3172   23.7951 C   0  0  0  0  0  0  0  0  0  0  0  0
    6.0980   -5.0898   24.0048 H   0  0  0  0  0  0  0  0  0  0  0  0
    6.3436   -3.3461   23.7325 H   0  0  0  0  0  0  0  0  0  0  0  0
    7.5394   -4.2883   24.6480 H   0  0  0  0  0  0  0  0  0  0  0  0
    8.6042   -3.5415   22.0988 C   0  0  0  0  0  0  0  0  0  0  0  0
    8.0438   -2.1673   21.9394 C   0  0  0  0  0  0  0  0  0  0  0  0
    7.5391   -1.8093   20.7776 N   0  0  0  0  0  0  0  0  0  0  0  0
    7.1118   -0.5436   20.9900 N   0  0  0  0  0  0  0  0  0  0  0  0
    6.4807    0.1440   19.9123 C   0  0  0  0  0  0  0  0  0  0  0  0
    5.2761    0.8493   20.0539 C   0  0  0  0  0  0  0  0  0  0  0  0
    4.7306    1.4478   18.9106 C   0  0  0  0  0  0  0  0  0  0  0  0
    5.4156    1.3431   17.6974 C   0  0  0  0  0  0  0  0  0  0  0  0
    6.5594    0.6498   17.5531 N   0  0  0  0  0  0  0  0  0  0  0  0
    7.0596    0.0456   18.6321 C   0  0  0  0  0  0  0  0  0  0  0  0
    7.9491   -0.5662   18.4885 H   0  0  0  0  0  0  0  0  0  0  0  0
    5.0387    1.8210   16.7967 H   0  0  0  0  0  0  0  0  0  0  0  0
    3.8006    2.0075   18.9487 H   0  0  0  0  0  0  0  0  0  0  0  0
    4.7681    0.9073   21.0172 H   0  0  0  0  0  0  0  0  0  0  0  0
    7.4634   -0.1711   22.2584 C   0  0  0  0  0  0  0  0  0  0  0  0
    7.2708    1.1891   22.8411 C   0  0  0  0  0  0  0  0  0  0  0  0
    8.3322    1.6295   23.8748 C   0  0  0  0  0  0  0  0  0  0  0  0
    8.0063    2.9972   24.4443 C   0  0  0  0  0  0  0  0  0  0  0  0
    7.2518    3.1776   25.6174 C   0  0  0  0  0  0  0  0  0  0  0  0
    6.8458    4.4443   26.0529 C   0  0  0  0  0  0  0  0  0  0  0  0
    7.2189    5.5759   25.3230 C   0  0  0  0  0  0  0  0  0  0  0  0
    7.9933    5.4379   24.1659 C   0  0  0  0  0  0  0  0  0  0  0  0
    8.3660    4.1626   23.7542 C   0  0  0  0  0  0  0  0  0  0  0  0
    9.0880    4.0449   22.6207 F   0  0  0  0  0  0  0  0  0  0  0  0
    8.3051    6.2883   23.5691 H   0  0  0  0  0  0  0  0  0  0  0  0
    6.9128    6.5646   25.6494 H   0  0  0  0  0  0  0  0  0  0  0  0
    6.2368    4.5455   26.9492 H   0  0  0  0  0  0  0  0  0  0  0  0
    6.9609    2.3035   26.1924 H   0  0  0  0  0  0  0  0  0  0  0  0
    9.3182    1.6560   23.3931 H   0  0  0  0  0  0  0  0  0  0  0  0
    8.4057    0.8911   24.6818 H   0  0  0  0  0  0  0  0  0  0  0  0
    6.2740    1.2271   23.2972 H   0  0  0  0  0  0  0  0  0  0  0  0
    7.2628    1.9125   22.0227 H   0  0  0  0  0  0  0  0  0  0  0  0
    8.0201   -1.1975   22.8873 N   0  0  0  0  0  0  0  0  0  0  0  0
    8.9888   -3.7668   21.1039 H   0  0  0  0  0  0  0  0  0  0  0  0
    9.4518   -3.5019   22.7861 H   0  0  0  0  0  0  0  0  0  0  0  0
    6.8730   -4.7384   21.6938 H   0  0  0  0  0  0  0  0  0  0  0  0
    9.0596   -6.1454   21.8524 H   0  0  0  0  0  0  0  0  0  0  0  0
    8.8370   -6.0950   23.5936 H   0  0  0  0  0  0  0  0  0  0  0  0
    7.6129   -6.8505   22.5652 H   0  0  0  0  0  0  0  0  0  0  0  0
  1  2  1  0
  2  3  1  0
  3  4  1  0
  3  5  1  0
  3  6  1  0
  2  7  1  0
  7  8  1  0
  8  9  2  0
  9 10  1  0
 10 11  1  0
 11 12  2  0
 12 13  1  0
 13 14  2  0
 14 15  1  0
 15 16  2  0
 16 17  1  0
 14 18  1  0
 13 19  1  0
 12 20  1  0
 10 21  1  0
 21 22  1  0
 22 23  1  0
 23 24  1  0
 24 25  2  0
 25 26  1  0
 26 27  2  0
 27 28  1  0
 28 29  2  0
 29 30  1  0
 28 31  1  0
 27 32  1  0
 26 33  1  0
 25 34  1  0
 23 35  1  0
 23 36  1  0
 22 37  1  0
 22 38  1  0
 21 39  2  0
  7 40  1  0
  7 41  1  0
  2 42  1  0
  1 43  1  0
  1 44  1  0
  1 45  1  0
 39  8  1  0
 16 11  1  0
 29 24  1  0
M  END
>  <cnnaffinity>  (1) 
-5.82245

>  <filename>  (1) 
CC(C)Cc1nc(CCc2ccccc2F)n(-c2cccnc2)n1

$$$$
