
     RDKit          3D

 42 45  0  0  0  0  0  0  0  0999 V2000
   10.4127    2.6515   21.6885 C   0  0  0  0  0  0  0  0  0  0  0  0
    9.2143    1.7217   21.8148 C   0  0  0  0  0  0  0  0  0  0  0  0
    9.5393    0.3659   21.1041 C   0  0  0  0  0  0  0  0  0  0  0  0
    8.5799   -0.7300   21.4088 C   0  0  0  0  0  0  0  0  0  0  0  0
    8.7540   -1.5940   22.3883 N   0  0  0  0  0  0  0  0  0  0  0  0
    7.5197   -2.1192   22.5602 C   0  0  0  0  0  0  0  0  0  0  0  0
    7.2515   -2.9659   23.7594 C   0  0  0  0  0  0  0  0  0  0  0  0
    6.3672   -2.2653   24.8410 C   0  0  0  0  0  0  0  0  0  0  0  0
    5.1228   -3.5954   24.7558 S   0  0  0  0  0  0  0  0  0  0  0  0
    6.3430   -4.2006   23.5411 C   0  0  0  0  0  0  0  0  0  0  0  0
    6.7980   -5.1476   23.8472 H   0  0  0  0  0  0  0  0  0  0  0  0
    5.9336   -4.3078   22.5307 H   0  0  0  0  0  0  0  0  0  0  0  0
    5.9637   -1.2886   24.5503 H   0  0  0  0  0  0  0  0  0  0  0  0
    6.8324   -2.1732   25.8286 H   0  0  0  0  0  0  0  0  0  0  0  0
    8.2348   -3.2346   24.1544 H   0  0  0  0  0  0  0  0  0  0  0  0
    6.6093   -1.7027   21.7031 N   0  0  0  0  0  0  0  0  0  0  0  0
    7.3028   -0.8206   20.9277 N   0  0  0  0  0  0  0  0  0  0  0  0
    6.6315   -0.1111   19.8860 C   0  0  0  0  0  0  0  0  0  0  0  0
    5.4346    0.5662   20.1490 C   0  0  0  0  0  0  0  0  0  0  0  0
    4.8448    1.2987   19.1141 C   0  0  0  0  0  0  0  0  0  0  0  0
    5.4534    1.3072   17.8530 C   0  0  0  0  0  0  0  0  0  0  0  0
    6.5818    0.6320   17.5841 N   0  0  0  0  0  0  0  0  0  0  0  0
    7.1509   -0.0579   18.5797 C   0  0  0  0  0  0  0  0  0  0  0  0
    8.0661   -0.5926   18.3283 H   0  0  0  0  0  0  0  0  0  0  0  0
    5.0163    1.8635   17.0251 H   0  0  0  0  0  0  0  0  0  0  0  0
    3.9322    1.8656   19.2721 H   0  0  0  0  0  0  0  0  0  0  0  0
    4.9965    0.5192   21.1482 H   0  0  0  0  0  0  0  0  0  0  0  0
    9.5660    0.5458   20.0296 H   0  0  0  0  0  0  0  0  0  0  0  0
   10.5302    0.0117   21.4011 H   0  0  0  0  0  0  0  0  0  0  0  0
    8.7951    1.6070   23.2256 N   0  0  0  0  0  0  0  0  0  0  0  0
    7.5090    1.7491   23.6978 C   0  0  0  0  0  0  0  0  0  0  0  0
    7.5217    1.7441   25.0733 C   0  0  0  0  0  0  0  0  0  0  0  0
    8.8798    1.5577   25.4667 C   0  0  0  0  0  0  0  0  0  0  0  0
    9.6244    1.4522   24.3174 C   0  0  0  0  0  0  0  0  0  0  0  0
   10.6685    1.2076   24.1839 H   0  0  0  0  0  0  0  0  0  0  0  0
    9.2679    1.5501   26.4818 H   0  0  0  0  0  0  0  0  0  0  0  0
    6.6643    1.8997   25.7215 H   0  0  0  0  0  0  0  0  0  0  0  0
    6.6897    1.7861   22.9890 H   0  0  0  0  0  0  0  0  0  0  0  0
    8.3547    2.1831   21.3066 H   0  0  0  0  0  0  0  0  0  0  0  0
   10.7056    2.7376   20.6406 H   0  0  0  0  0  0  0  0  0  0  0  0
   10.1884    3.6378   22.1116 H   0  0  0  0  0  0  0  0  0  0  0  0
   11.2806    2.2521   22.2202 H   0  0  0  0  0  0  0  0  0  0  0  0
  1  2  1  0
  2  3  1  0
  3  4  1  0
  4  5  2  0
  5  6  1  0
  6  7  1  0
  7  8  1  0
  8  9  1  0
  9 10  1  0
 10 11  1  0
 10 12  1  0
  8 13  1  0
  8 14  1  0
  7 15  1  0
  6 16  2  0
 16 17  1  0
 17 18  1  0
 18 19  2  0
 19 20  1  0
 20 21  2  0
 21 22  1  0
 22 23  2  0
 23 24  1  0
 21 25  1  0
 20 26  1  0
 19 27  1  0
  3 28  1  0
  3 29  1  0
  2 30  1  0
 30 31  1  0
 31 32  2  0
 32 33  1  0
 33 34  2  0
 34 35  1  0
 33 36  1  0
 32 37  1  0
 31 38  1  0
  2 39  1  0
  1 40  1  0
  1 41  1  0
  1 42  1  0
 17  4  1  0
 23 18  1  0
 34 30  1  0
 10  7  1  0
M  END
>  <cnnaffinity>  (1) 
-5.84457

>  <filename>  (1) 
CC(Cc1nc(C2CSC2)nn1-c1cccnc1)n1cccc1

$$$$
