
     RDKit          3D

 42 45  0  0  0  0  0  0  0  0999 V2000
   10.4098   -2.8542   22.8158 C   0  0  0  0  0  0  0  0  0  0  0  0
    8.9599   -3.3678   22.6767 C   0  0  0  0  0  0  0  0  0  0  0  0
    8.0162   -2.2198   22.4583 C   0  0  0  0  0  0  0  0  0  0  0  0
    7.6258   -1.9025   21.2491 N   0  0  0  0  0  0  0  0  0  0  0  0
    6.9631   -0.7447   21.4440 N   0  0  0  0  0  0  0  0  0  0  0  0
    6.5104    0.0419   20.3737 C   0  0  0  0  0  0  0  0  0  0  0  0
    5.4710    0.9746   20.4936 C   0  0  0  0  0  0  0  0  0  0  0  0
    5.0084    1.5939   19.3267 C   0  0  0  0  0  0  0  0  0  0  0  0
    5.6039    1.3008   18.0933 C   0  0  0  0  0  0  0  0  0  0  0  0
    6.6447    0.4560   17.9832 N   0  0  0  0  0  0  0  0  0  0  0  0
    7.0825   -0.1512   19.1022 C   0  0  0  0  0  0  0  0  0  0  0  0
    7.9321   -0.8242   19.0306 H   0  0  0  0  0  0  0  0  0  0  0  0
    5.1983    1.7487   17.1910 H   0  0  0  0  0  0  0  0  0  0  0  0
    4.1812    2.2982   19.3491 H   0  0  0  0  0  0  0  0  0  0  0  0
    5.0043    1.1927   21.4527 H   0  0  0  0  0  0  0  0  0  0  0  0
    7.0247   -0.4211   22.7964 C   0  0  0  0  0  0  0  0  0  0  0  0
    6.8672    0.9595   23.3452 C   0  0  0  0  0  0  0  0  0  0  0  0
    8.1608    1.6041   22.9058 C   0  0  0  0  0  0  0  0  0  0  0  0
    9.3370    1.3776   23.6273 C   0  0  0  0  0  0  0  0  0  0  0  0
   10.5439    1.7885   23.0640 C   0  0  0  0  0  0  0  0  0  0  0  0
   12.1883    1.5794   24.0184 Br  0  0  0  0  0  0  0  0  0  0  0  0
   10.5323    2.3609   21.7854 C   0  0  0  0  0  0  0  0  0  0  0  0
    9.4056    2.5664   21.0855 N   0  0  0  0  0  0  0  0  0  0  0  0
    8.2409    2.2202   21.6468 C   0  0  0  0  0  0  0  0  0  0  0  0
    7.3279    2.3617   21.0811 H   0  0  0  0  0  0  0  0  0  0  0  0
   11.4829    2.6437   21.3467 H   0  0  0  0  0  0  0  0  0  0  0  0
    9.3114    0.8640   24.5891 H   0  0  0  0  0  0  0  0  0  0  0  0
    5.9935    1.4604   22.9238 H   0  0  0  0  0  0  0  0  0  0  0  0
    6.7784    0.9350   24.4334 H   0  0  0  0  0  0  0  0  0  0  0  0
    7.6121   -1.3636   23.4730 N   0  0  0  0  0  0  0  0  0  0  0  0
    8.5380   -4.1744   23.9098 C   0  0  0  0  0  0  0  0  0  0  0  0
    8.4997   -5.6939   23.8125 C   0  0  0  0  0  0  0  0  0  0  0  0
    7.1997   -4.8970   23.8251 C   0  0  0  0  0  0  0  0  0  0  0  0
    6.5847   -4.9395   24.7293 H   0  0  0  0  0  0  0  0  0  0  0  0
    6.6428   -4.8276   22.8847 H   0  0  0  0  0  0  0  0  0  0  0  0
    8.7565   -6.2617   24.7138 H   0  0  0  0  0  0  0  0  0  0  0  0
    8.7947   -6.1504   22.8614 H   0  0  0  0  0  0  0  0  0  0  0  0
    8.8037   -3.7343   24.8796 H   0  0  0  0  0  0  0  0  0  0  0  0
    8.8909   -4.0082   21.7954 H   0  0  0  0  0  0  0  0  0  0  0  0
   11.0833   -3.6485   23.1411 H   0  0  0  0  0  0  0  0  0  0  0  0
   10.7753   -2.4676   21.8571 H   0  0  0  0  0  0  0  0  0  0  0  0
   10.4730   -2.0571   23.5608 H   0  0  0  0  0  0  0  0  0  0  0  0
  1  2  1  0
  2  3  1  0
  3  4  2  0
  4  5  1  0
  5  6  1  0
  6  7  2  0
  7  8  1  0
  8  9  2  0
  9 10  1  0
 10 11  2  0
 11 12  1  0
  9 13  1  0
  8 14  1  0
  7 15  1  0
  5 16  1  0
 16 17  1  0
 17 18  1  0
 18 19  2  0
 19 20  1  0
 20 21  1  0
 20 22  2  0
 22 23  1  0
 23 24  2  0
 24 25  1  0
 22 26  1  0
 19 27  1  0
 17 28  1  0
 17 29  1  0
 16 30  2  0
  2 31  1  0
 31 32  1  0
 32 33  1  0
 33 34  1  0
 33 35  1  0
 32 36  1  0
 32 37  1  0
 31 38  1  0
  2 39  1  0
  1 40  1  0
  1 41  1  0
  1 42  1  0
 30  3  1  0
 33 31  1  0
 11  6  1  0
 24 18  1  0
M  END
>  <cnnaffinity>  (1) 
-6.65354

>  <filename>  (1) 
CC(c1nc(Cc2cncc(Br)c2)n(-c2cccnc2)n1)C1CC1

$$$$
