
     RDKit          3D

 46 49  0  0  0  0  0  0  0  0999 V2000
   10.4534    2.2751   21.0428 C   0  0  0  0  0  0  0  0  0  0  0  0
    9.8839    0.8589   21.1821 C   0  0  0  0  0  0  0  0  0  0  0  0
   10.8962   -0.2636   21.5743 C   0  0  0  0  0  0  0  0  0  0  0  0
   11.6129    0.0197   22.8589 C   0  0  0  0  0  0  0  0  0  0  0  0
   11.3997   -0.2686   24.1867 C   0  0  0  0  0  0  0  0  0  0  0  0
   12.2737    0.4293   24.9913 N   0  0  0  0  0  0  0  0  0  0  0  0
   13.0015    1.1388   24.1716 C   0  0  0  0  0  0  0  0  0  0  0  0
   12.6656    0.9111   22.8777 N   0  0  0  0  0  0  0  0  0  0  0  0
   13.0173    1.4171   22.0802 H   0  0  0  0  0  0  0  0  0  0  0  0
   13.7797    1.8428   24.4366 H   0  0  0  0  0  0  0  0  0  0  0  0
   10.6607   -0.9438   24.6065 H   0  0  0  0  0  0  0  0  0  0  0  0
   10.3639   -1.2201   21.6464 H   0  0  0  0  0  0  0  0  0  0  0  0
   11.6351   -0.3879   20.7735 H   0  0  0  0  0  0  0  0  0  0  0  0
    8.7451    0.9029   22.1605 C   0  0  0  0  0  0  0  0  0  0  0  0
    8.6501    1.6818   23.2210 N   0  0  0  0  0  0  0  0  0  0  0  0
    7.5409    1.2300   23.8567 C   0  0  0  0  0  0  0  0  0  0  0  0
    7.0927    1.8253   25.1472 C   0  0  0  0  0  0  0  0  0  0  0  0
    7.7995    2.9066   25.7274 C   0  0  0  0  0  0  0  0  0  0  0  0
    7.3615    3.4338   26.9364 C   0  0  0  0  0  0  0  0  0  0  0  0
    8.0172    4.4777   27.4699 F   0  0  0  0  0  0  0  0  0  0  0  0
    6.2531    2.9249   27.6083 C   0  0  0  0  0  0  0  0  0  0  0  0
    5.5692    1.8423   27.0465 C   0  0  0  0  0  0  0  0  0  0  0  0
    5.9701    1.2988   25.8219 C   0  0  0  0  0  0  0  0  0  0  0  0
    5.4253    0.4651   25.3820 H   0  0  0  0  0  0  0  0  0  0  0  0
    4.7244    1.4076   27.5753 H   0  0  0  0  0  0  0  0  0  0  0  0
    5.9535    3.3829   28.5444 H   0  0  0  0  0  0  0  0  0  0  0  0
    8.6771    3.3536   25.2650 H   0  0  0  0  0  0  0  0  0  0  0  0
    6.9306    0.2377   23.2198 N   0  0  0  0  0  0  0  0  0  0  0  0
    7.7194    0.0260   22.1393 N   0  0  0  0  0  0  0  0  0  0  0  0
    7.2802   -0.8130   21.0254 C   0  0  0  0  0  0  0  0  0  0  0  0
    6.6328   -0.0397   19.8856 C   0  0  0  0  0  0  0  0  0  0  0  0
    5.4415    0.6581   20.1155 C   0  0  0  0  0  0  0  0  0  0  0  0
    4.8344    1.3281   19.0513 C   0  0  0  0  0  0  0  0  0  0  0  0
    5.4534    1.2936   17.7982 C   0  0  0  0  0  0  0  0  0  0  0  0
    6.5983    0.6376   17.5585 N   0  0  0  0  0  0  0  0  0  0  0  0
    7.1633   -0.0104   18.5867 C   0  0  0  0  0  0  0  0  0  0  0  0
    8.0835   -0.5517   18.3536 H   0  0  0  0  0  0  0  0  0  0  0  0
    5.0136    1.8095   16.9461 H   0  0  0  0  0  0  0  0  0  0  0  0
    3.9036    1.8691   19.1787 H   0  0  0  0  0  0  0  0  0  0  0  0
    5.0130    0.6654   21.1192 H   0  0  0  0  0  0  0  0  0  0  0  0
    6.5685   -1.5173   21.4665 H   0  0  0  0  0  0  0  0  0  0  0  0
    8.1456   -1.3782   20.6544 H   0  0  0  0  0  0  0  0  0  0  0  0
    9.4758    0.5813   20.2026 H   0  0  0  0  0  0  0  0  0  0  0  0
   10.7965    2.6795   21.9998 H   0  0  0  0  0  0  0  0  0  0  0  0
    9.6189    2.9023   20.7231 H   0  0  0  0  0  0  0  0  0  0  0  0
   11.2609    2.3603   20.3087 H   0  0  0  0  0  0  0  0  0  0  0  0
  1  2  1  0
  2  3  1  0
  3  4  1  0
  4  5  2  0
  5  6  1  0
  6  7  2  0
  7  8  1  0
  8  9  1  0
  7 10  1  0
  5 11  1  0
  3 12  1  0
  3 13  1  0
  2 14  1  0
 14 15  2  0
 15 16  1  0
 16 17  1  0
 17 18  2  0
 18 19  1  0
 19 20  1  0
 19 21  2  0
 21 22  1  0
 22 23  2  0
 23 24  1  0
 22 25  1  0
 21 26  1  0
 18 27  1  0
 16 28  2  0
 28 29  1  0
 29 30  1  0
 30 31  1  0
 31 32  2  0
 32 33  1  0
 33 34  2  0
 34 35  1  0
 35 36  2  0
 36 37  1  0
 34 38  1  0
 33 39  1  0
 32 40  1  0
 30 41  1  0
 30 42  1  0
  2 43  1  0
  1 44  1  0
  1 45  1  0
  1 46  1  0
  8  4  1  0
 29 14  1  0
 36 31  1  0
 23 17  1  0
M  END
>  <cnnaffinity>  (1) 
-5.85899

>  <filename>  (1) 
CC(Cc1cnc[nH]1)c1nc(-c2cccc(F)c2)nn1Cc1cccnc1

$$$$
