
     RDKit          3D

 36 38  0  0  0  0  0  0  0  0999 V2000
    4.9650    1.8446   16.9397 H   0  0  0  0  0  0  0  0  0  0  0  0
    5.4058    1.3020   17.7752 C   0  0  0  0  0  0  0  0  0  0  0  0
    6.5461    0.6435   17.5183 N   0  0  0  0  0  0  0  0  0  0  0  0
    7.1299   -0.0014   18.5354 C   0  0  0  0  0  0  0  0  0  0  0  0
    8.0513   -0.5238   18.2912 H   0  0  0  0  0  0  0  0  0  0  0  0
    6.6269   -0.0051   19.8518 C   0  0  0  0  0  0  0  0  0  0  0  0
    7.3774   -0.6320   20.9513 C   0  0  0  0  0  0  0  0  0  0  0  0
    8.1399   -1.7104   20.7617 N   0  0  0  0  0  0  0  0  0  0  0  0
    8.6432   -1.9446   21.9727 N   0  0  0  0  0  0  0  0  0  0  0  0
    8.2770   -1.0975   22.9398 C   0  0  0  0  0  0  0  0  0  0  0  0
    7.4287   -0.1962   22.3330 C   0  0  0  0  0  0  0  0  0  0  0  0
    6.8186    0.9293   22.9167 N   0  0  0  0  0  0  0  0  0  0  0  0
    6.9035    0.8735   23.9306 H   0  0  0  0  0  0  0  0  0  0  0  0
    7.3660    2.2078   22.4527 C   0  0  0  0  0  0  0  0  0  0  0  0
    7.4585    2.1250   21.3621 H   0  0  0  0  0  0  0  0  0  0  0  0
    6.3452    3.2797   22.7889 C   0  0  0  0  0  0  0  0  0  0  0  0
    6.6498    4.2603   22.4098 H   0  0  0  0  0  0  0  0  0  0  0  0
    5.3878    3.0093   22.3299 H   0  0  0  0  0  0  0  0  0  0  0  0
    6.2102    3.3378   23.8766 H   0  0  0  0  0  0  0  0  0  0  0  0
    8.7511    2.4753   23.0453 C   0  0  0  0  0  0  0  0  0  0  0  0
    9.4579    1.6854   22.7619 H   0  0  0  0  0  0  0  0  0  0  0  0
    8.6916    2.4960   24.1424 H   0  0  0  0  0  0  0  0  0  0  0  0
    9.1442    3.4339   22.6890 H   0  0  0  0  0  0  0  0  0  0  0  0
    9.0079   -1.4124   24.2181 C   0  0  0  0  0  0  0  0  0  0  0  0
    8.3136   -1.6761   25.0215 H   0  0  0  0  0  0  0  0  0  0  0  0
    9.5999   -0.5597   24.5704 H   0  0  0  0  0  0  0  0  0  0  0  0
    9.9242   -2.6060   23.8152 C   0  0  0  0  0  0  0  0  0  0  0  0
    9.7951   -3.4470   24.4956 H   0  0  0  0  0  0  0  0  0  0  0  0
   10.9697   -2.3200   23.8376 H   0  0  0  0  0  0  0  0  0  0  0  0
    9.5760   -2.9722   22.3469 C   0  0  0  0  0  0  0  0  0  0  0  0
    9.0978   -3.9473   22.2381 H   0  0  0  0  0  0  0  0  0  0  0  0
   10.4500   -2.9029   21.6957 H   0  0  0  0  0  0  0  0  0  0  0  0
    5.4172    0.6662   20.0954 C   0  0  0  0  0  0  0  0  0  0  0  0
    4.9957    0.6842   21.1021 H   0  0  0  0  0  0  0  0  0  0  0  0
    4.7945    1.3202   19.0328 C   0  0  0  0  0  0  0  0  0  0  0  0
    3.8638    1.8562   19.1661 H   0  0  0  0  0  0  0  0  0  0  0  0
  1  2  1  0
  2  3  2  0
  3  4  1  0
  4  5  1  0
  4  6  2  0
  6  7  1  0
  7  8  2  0
  8  9  1  0
  9 10  1  0
 10 11  2  0
 11 12  1  0
 12 13  1  0
 12 14  1  0
 14 15  1  0
 14 16  1  0
 16 17  1  0
 16 18  1  0
 16 19  1  0
 14 20  1  0
 20 21  1  0
 20 22  1  0
 20 23  1  0
 10 24  1  0
 24 25  1  0
 24 26  1  0
 24 27  1  0
 27 28  1  0
 27 29  1  0
 27 30  1  0
 30 31  1  0
 30 32  1  0
  6 33  1  0
 33 34  1  0
 33 35  2  0
 35 36  1  0
 35  2  1  0
 11  7  1  0
 30  9  1  0
M  END
>  <cnnaffinity>  (1) 
-5.12372

>  <filename>  (1) 
CC(C)Nc1c(-c2cccnc2)nn2c1CCC2

$$$$
