
     RDKit          3D

 44 46  0  0  0  0  0  0  0  0999 V2000
    5.3673   -2.4012   20.9466 H   0  0  0  0  0  0  0  0  0  0  0  0
    5.9156   -2.4121   21.8941 C   0  0  0  0  0  0  0  0  0  0  0  0
    7.0586   -1.7030   21.9649 C   0  0  0  0  0  0  0  0  0  0  0  0
    7.5492   -0.7087   20.9689 C   0  0  0  0  0  0  0  0  0  0  0  0
    6.7165   -0.0312   19.9366 C   0  0  0  0  0  0  0  0  0  0  0  0
    7.2446    0.0490   18.6394 C   0  0  0  0  0  0  0  0  0  0  0  0
    8.2097   -0.4004   18.4151 H   0  0  0  0  0  0  0  0  0  0  0  0
    6.6383    0.6490   17.6132 N   0  0  0  0  0  0  0  0  0  0  0  0
    5.4658    1.2541   17.8645 C   0  0  0  0  0  0  0  0  0  0  0  0
    4.9896    1.7496   17.0187 H   0  0  0  0  0  0  0  0  0  0  0  0
    4.8539    1.2462   19.1205 C   0  0  0  0  0  0  0  0  0  0  0  0
    3.9172    1.7759   19.2520 H   0  0  0  0  0  0  0  0  0  0  0  0
    5.4771    0.5838   20.1815 C   0  0  0  0  0  0  0  0  0  0  0  0
    5.0279    0.5752   21.1775 H   0  0  0  0  0  0  0  0  0  0  0  0
    8.8113   -0.4869   21.0403 N   0  0  0  0  0  0  0  0  0  0  0  0
    9.3823   -1.2505   22.1556 C   0  0  0  0  0  0  0  0  0  0  0  0
   10.0472   -2.0253   21.7525 H   0  0  0  0  0  0  0  0  0  0  0  0
   10.0009   -0.6083   22.7864 H   0  0  0  0  0  0  0  0  0  0  0  0
    8.2014   -1.8509   22.9577 C   0  0  0  0  0  0  0  0  0  0  0  0
    8.3750   -2.8804   23.2810 H   0  0  0  0  0  0  0  0  0  0  0  0
    8.0286   -1.2426   23.8571 H   0  0  0  0  0  0  0  0  0  0  0  0
    5.2893   -3.2164   22.9726 C   0  0  0  0  0  0  0  0  0  0  0  0
    4.4847   -4.3235   22.6439 C   0  0  0  0  0  0  0  0  0  0  0  0
    4.4088   -4.6323   21.6087 H   0  0  0  0  0  0  0  0  0  0  0  0
    3.8534   -5.0850   23.6233 C   0  0  0  0  0  0  0  0  0  0  0  0
    3.2350   -5.9247   23.3086 H   0  0  0  0  0  0  0  0  0  0  0  0
    4.0056   -4.7932   24.9955 C   0  0  0  0  0  0  0  0  0  0  0  0
    3.4024   -5.7531   26.0436 C   0  0  0  0  0  0  0  0  0  0  0  0
    1.8703   -5.8407   25.8466 C   0  0  0  0  0  0  0  0  0  0  0  0
    1.4319   -6.5424   26.5659 H   0  0  0  0  0  0  0  0  0  0  0  0
    1.5950   -6.1821   24.8417 H   0  0  0  0  0  0  0  0  0  0  0  0
    1.3990   -4.8618   26.0025 H   0  0  0  0  0  0  0  0  0  0  0  0
    4.0366   -7.1559   25.8560 C   0  0  0  0  0  0  0  0  0  0  0  0
    3.6374   -7.8782   26.5801 H   0  0  0  0  0  0  0  0  0  0  0  0
    3.8515   -7.5480   24.8487 H   0  0  0  0  0  0  0  0  0  0  0  0
    5.1245   -7.0983   25.9916 H   0  0  0  0  0  0  0  0  0  0  0  0
    3.6702   -5.3021   27.4961 C   0  0  0  0  0  0  0  0  0  0  0  0
    3.2467   -6.0270   28.2031 H   0  0  0  0  0  0  0  0  0  0  0  0
    3.2124   -4.3261   27.7066 H   0  0  0  0  0  0  0  0  0  0  0  0
    4.7468   -5.2258   27.6987 H   0  0  0  0  0  0  0  0  0  0  0  0
    4.7463   -3.6422   25.3215 C   0  0  0  0  0  0  0  0  0  0  0  0
    4.8210   -3.3260   26.3584 H   0  0  0  0  0  0  0  0  0  0  0  0
    5.3955   -2.8910   24.3410 C   0  0  0  0  0  0  0  0  0  0  0  0
    5.9785   -2.0253   24.6422 H   0  0  0  0  0  0  0  0  0  0  0  0
  1  2  1  0
  2  3  2  3
  3  4  1  0
  4  5  1  0
  5  6  2  0
  6  7  1  0
  6  8  1  0
  8  9  2  0
  9 10  1  0
  9 11  1  0
 11 12  1  0
 11 13  2  0
 13 14  1  0
  4 15  2  0
 15 16  1  0
 16 17  1  0
 16 18  1  0
 16 19  1  0
 19 20  1  0
 19 21  1  0
  2 22  1  0
 22 23  2  0
 23 24  1  0
 23 25  1  0
 25 26  1  0
 25 27  2  0
 27 28  1  0
 28 29  1  0
 29 30  1  0
 29 31  1  0
 29 32  1  0
 28 33  1  0
 33 34  1  0
 33 35  1  0
 33 36  1  0
 28 37  1  0
 37 38  1  0
 37 39  1  0
 37 40  1  0
 27 41  1  0
 41 42  1  0
 41 43  2  0
 43 44  1  0
 19  3  1  0
 43 22  1  0
 13  5  1  0
M  END
>  <cnnaffinity>  (1) 
-5.40241

>  <filename>  (1) 
CC(C)(C)c1ccc(C=C2CCN=C2c2cccnc2)cc1

$$$$
