
     RDKit          3D

 40 43  0  0  0  0  0  0  0  0999 V2000
    6.6384   -4.2754   23.5116 C   0  0  0  0  0  0  0  0  0  0  0  0
    7.5685   -3.1038   23.8448 C   0  0  0  0  0  0  0  0  0  0  0  0
    7.7292   -2.1455   22.6919 C   0  0  0  0  0  0  0  0  0  0  0  0
    6.7913   -1.7784   21.8463 N   0  0  0  0  0  0  0  0  0  0  0  0
    7.3821   -0.7980   21.1295 N   0  0  0  0  0  0  0  0  0  0  0  0
    6.7446   -0.0883   20.0999 C   0  0  0  0  0  0  0  0  0  0  0  0
    5.4892    0.5190   20.2624 C   0  0  0  0  0  0  0  0  0  0  0  0
    4.9320    1.1996   19.1714 C   0  0  0  0  0  0  0  0  0  0  0  0
    5.6125    1.2259   17.9484 C   0  0  0  0  0  0  0  0  0  0  0  0
    6.7985    0.6098   17.7840 N   0  0  0  0  0  0  0  0  0  0  0  0
    7.3467   -0.0238   18.8390 C   0  0  0  0  0  0  0  0  0  0  0  0
    8.2990   -0.5288   18.7041 H   0  0  0  0  0  0  0  0  0  0  0  0
    5.1761    1.7678   17.1095 H   0  0  0  0  0  0  0  0  0  0  0  0
    3.9892    1.7326   19.2553 H   0  0  0  0  0  0  0  0  0  0  0  0
    4.9614    0.4815   21.2144 H   0  0  0  0  0  0  0  0  0  0  0  0
    8.6799   -0.6299   21.6105 C   0  0  0  0  0  0  0  0  0  0  0  0
    9.6709    0.4659   21.3417 C   0  0  0  0  0  0  0  0  0  0  0  0
    9.2123    1.6687   22.0569 N   0  0  0  0  0  0  0  0  0  0  0  0
    9.4724    2.0459   23.3742 C   0  0  0  0  0  0  0  0  0  0  0  0
    8.8439    3.1527   23.6930 N   0  0  0  0  0  0  0  0  0  0  0  0
    8.1606    3.5239   22.5449 C   0  0  0  0  0  0  0  0  0  0  0  0
    7.0804    5.0848   22.4155 Br  0  0  0  0  0  0  0  0  0  0  0  0
    8.3631    2.6159   21.5441 C   0  0  0  0  0  0  0  0  0  0  0  0
    7.9247    2.6184   20.5601 H   0  0  0  0  0  0  0  0  0  0  0  0
   10.1131    1.4956   24.0557 H   0  0  0  0  0  0  0  0  0  0  0  0
   10.6582    0.1667   21.7108 H   0  0  0  0  0  0  0  0  0  0  0  0
    9.7671    0.6762   20.2744 H   0  0  0  0  0  0  0  0  0  0  0  0
    8.9399   -1.5047   22.5332 N   0  0  0  0  0  0  0  0  0  0  0  0
    7.0216   -2.4125   25.1116 C   0  0  0  0  0  0  0  0  0  0  0  0
    6.1992   -1.1271   24.9986 C   0  0  0  0  0  0  0  0  0  0  0  0
    7.5930   -1.0896   25.6277 C   0  0  0  0  0  0  0  0  0  0  0  0
    8.3962   -0.5998   25.0681 H   0  0  0  0  0  0  0  0  0  0  0  0
    7.6537   -0.9622   26.7117 H   0  0  0  0  0  0  0  0  0  0  0  0
    6.0913   -0.6741   24.0090 H   0  0  0  0  0  0  0  0  0  0  0  0
    5.3184   -1.0317   25.6448 H   0  0  0  0  0  0  0  0  0  0  0  0
    6.7026   -3.1372   25.8709 H   0  0  0  0  0  0  0  0  0  0  0  0
    8.5661   -3.4957   24.0634 H   0  0  0  0  0  0  0  0  0  0  0  0
    5.6250   -3.9057   23.3208 H   0  0  0  0  0  0  0  0  0  0  0  0
    6.6014   -4.9730   24.3561 H   0  0  0  0  0  0  0  0  0  0  0  0
    6.9965   -4.8155   22.6287 H   0  0  0  0  0  0  0  0  0  0  0  0
  1  2  1  0
  2  3  1  0
  3  4  2  0
  4  5  1  0
  5  6  1  0
  6  7  2  0
  7  8  1  0
  8  9  2  0
  9 10  1  0
 10 11  2  0
 11 12  1  0
  9 13  1  0
  8 14  1  0
  7 15  1  0
  5 16  1  0
 16 17  1  0
 17 18  1  0
 18 19  1  0
 19 20  2  0
 20 21  1  0
 21 22  1  0
 21 23  2  0
 23 24  1  0
 19 25  1  0
 17 26  1  0
 17 27  1  0
 16 28  2  0
  2 29  1  0
 29 30  1  0
 30 31  1  0
 31 32  1  0
 31 33  1  0
 30 34  1  0
 30 35  1  0
 29 36  1  0
  2 37  1  0
  1 38  1  0
  1 39  1  0
  1 40  1  0
 28  3  1  0
 31 29  1  0
 11  6  1  0
 23 18  1  0
M  END
>  <cnnaffinity>  (1) 
-5.94893

>  <filename>  (1) 
CC(c1nc(Cn2cnc(Br)c2)n(-c2cccnc2)n1)C1CC1

$$$$
