
     RDKit          3D

 43 46  0  0  0  0  0  0  0  0999 V2000
    8.9250    1.8082   23.3344 C   0  0  0  0  0  0  0  0  0  0  0  0
    7.6331    1.2968   22.6505 C   0  0  0  0  0  0  0  0  0  0  0  0
    6.4064    1.4219   23.5708 C   0  0  0  0  0  0  0  0  0  0  0  0
    5.4268    2.4116   23.3696 C   0  0  0  0  0  0  0  0  0  0  0  0
    4.3499    2.5719   24.1585 N   0  0  0  0  0  0  0  0  0  0  0  0
    4.2214    1.7493   25.2072 C   0  0  0  0  0  0  0  0  0  0  0  0
    5.1422    0.7326   25.4793 C   0  0  0  0  0  0  0  0  0  0  0  0
    4.9447   -0.0635   26.5398 F   0  0  0  0  0  0  0  0  0  0  0  0
    6.2445    0.5424   24.6554 C   0  0  0  0  0  0  0  0  0  0  0  0
    6.9351   -0.2873   24.8140 H   0  0  0  0  0  0  0  0  0  0  0  0
    3.3609    1.8865   25.8566 H   0  0  0  0  0  0  0  0  0  0  0  0
    5.4998    3.0879   22.5183 H   0  0  0  0  0  0  0  0  0  0  0  0
    7.8054   -0.1230   22.1523 C   0  0  0  0  0  0  0  0  0  0  0  0
    8.3921   -1.1128   22.8041 N   0  0  0  0  0  0  0  0  0  0  0  0
    8.2257   -2.1737   21.9835 C   0  0  0  0  0  0  0  0  0  0  0  0
    8.7958   -3.5186   22.2963 C   0  0  0  0  0  0  0  0  0  0  0  0
    8.0437   -4.7169   21.6743 C   0  0  0  0  0  0  0  0  0  0  0  0
    8.4033   -5.8930   22.5975 C   0  0  0  0  0  0  0  0  0  0  0  0
    9.0027   -5.3360   23.7577 O   0  0  0  0  0  0  0  0  0  0  0  0
    8.8620   -3.9257   23.7718 C   0  0  0  0  0  0  0  0  0  0  0  0
    9.7431   -3.5274   24.2891 H   0  0  0  0  0  0  0  0  0  0  0  0
    7.9469   -3.6266   24.3082 H   0  0  0  0  0  0  0  0  0  0  0  0
    9.1266   -6.5849   22.1515 H   0  0  0  0  0  0  0  0  0  0  0  0
    7.5112   -6.4736   22.8748 H   0  0  0  0  0  0  0  0  0  0  0  0
    8.2905   -4.8889   20.6232 H   0  0  0  0  0  0  0  0  0  0  0  0
    6.9666   -4.5162   21.7253 H   0  0  0  0  0  0  0  0  0  0  0  0
    9.8239   -3.4122   21.9494 H   0  0  0  0  0  0  0  0  0  0  0  0
    7.6581   -1.8969   20.8257 N   0  0  0  0  0  0  0  0  0  0  0  0
    7.3400   -0.5835   20.9485 N   0  0  0  0  0  0  0  0  0  0  0  0
    6.6290    0.0474   19.8939 C   0  0  0  0  0  0  0  0  0  0  0  0
    5.4082    0.6914   20.1166 C   0  0  0  0  0  0  0  0  0  0  0  0
    4.7909    1.3327   19.0387 C   0  0  0  0  0  0  0  0  0  0  0  0
    5.4129    1.2994   17.7868 C   0  0  0  0  0  0  0  0  0  0  0  0
    6.5516    0.6202   17.5545 N   0  0  0  0  0  0  0  0  0  0  0  0
    7.1326   -0.0085   18.5797 C   0  0  0  0  0  0  0  0  0  0  0  0
    8.0459   -0.5626   18.3679 H   0  0  0  0  0  0  0  0  0  0  0  0
    4.9973    1.8459   16.9429 H   0  0  0  0  0  0  0  0  0  0  0  0
    3.8565    1.8659   19.1630 H   0  0  0  0  0  0  0  0  0  0  0  0
    4.9698    0.6694   21.1132 H   0  0  0  0  0  0  0  0  0  0  0  0
    7.4451    1.9254   21.7751 H   0  0  0  0  0  0  0  0  0  0  0  0
    9.7874    1.7092   22.6656 H   0  0  0  0  0  0  0  0  0  0  0  0
    8.8381    2.8632   23.6170 H   0  0  0  0  0  0  0  0  0  0  0  0
    9.1465    1.2382   24.2433 H   0  0  0  0  0  0  0  0  0  0  0  0
  1  2  1  0
  2  3  1  0
  3  4  2  0
  4  5  1  0
  5  6  2  0
  6  7  1  0
  7  8  1  0
  7  9  2  0
  9 10  1  0
  6 11  1  0
  4 12  1  0
  2 13  1  0
 13 14  2  0
 14 15  1  0
 15 16  1  0
 16 17  1  0
 17 18  1  0
 18 19  1  0
 19 20  1  0
 20 21  1  0
 20 22  1  0
 18 23  1  0
 18 24  1  0
 17 25  1  0
 17 26  1  0
 16 27  1  0
 15 28  2  0
 28 29  1  0
 29 30  1  0
 30 31  2  0
 31 32  1  0
 32 33  2  0
 33 34  1  0
 34 35  2  0
 35 36  1  0
 33 37  1  0
 32 38  1  0
 31 39  1  0
  2 40  1  0
  1 41  1  0
  1 42  1  0
  1 43  1  0
  9  3  1  0
 29 13  1  0
 35 30  1  0
 20 16  1  0
M  END
>  <cnnaffinity>  (1) 
-5.98234

>  <filename>  (1) 
CC(c1cncc(F)c1)c1nc(C2CCOC2)nn1-c1cccnc1

$$$$
