
     RDKit          3D

 44 47  0  0  0  0  0  0  0  0999 V2000
    8.1641    2.4724   21.7238 C   0  0  0  0  0  0  0  0  0  0  0  0
    9.5302    1.8101   21.8860 C   0  0  0  0  0  0  0  0  0  0  0  0
    9.6090    0.5260   20.9954 C   0  0  0  0  0  0  0  0  0  0  0  0
    8.6551   -0.5713   21.3584 C   0  0  0  0  0  0  0  0  0  0  0  0
    8.8876   -1.5200   22.2414 N   0  0  0  0  0  0  0  0  0  0  0  0
    7.6654   -2.0855   22.4367 C   0  0  0  0  0  0  0  0  0  0  0  0
    7.4318   -3.1124   23.5109 C   0  0  0  0  0  0  0  0  0  0  0  0
    8.4217   -3.4235   24.4692 C   0  0  0  0  0  0  0  0  0  0  0  0
    8.1559   -4.3983   25.4347 C   0  0  0  0  0  0  0  0  0  0  0  0
    6.9981   -5.0666   25.5201 N   0  0  0  0  0  0  0  0  0  0  0  0
    6.0491   -4.7558   24.6285 C   0  0  0  0  0  0  0  0  0  0  0  0
    6.2036   -3.7967   23.6229 C   0  0  0  0  0  0  0  0  0  0  0  0
    5.3785   -3.5753   22.9503 H   0  0  0  0  0  0  0  0  0  0  0  0
    5.1167   -5.3040   24.7186 H   0  0  0  0  0  0  0  0  0  0  0  0
    8.9100   -4.6571   26.1727 H   0  0  0  0  0  0  0  0  0  0  0  0
    9.3838   -2.9144   24.4774 H   0  0  0  0  0  0  0  0  0  0  0  0
    6.7139   -1.6059   21.6547 N   0  0  0  0  0  0  0  0  0  0  0  0
    7.3578   -0.6594   20.9244 N   0  0  0  0  0  0  0  0  0  0  0  0
    6.6651    0.0115   19.8724 C   0  0  0  0  0  0  0  0  0  0  0  0
    5.4431    0.6425   20.1318 C   0  0  0  0  0  0  0  0  0  0  0  0
    4.8021    1.3167   19.0859 C   0  0  0  0  0  0  0  0  0  0  0  0
    5.3918    1.3113   17.8157 C   0  0  0  0  0  0  0  0  0  0  0  0
    6.5368    0.6664   17.5441 N   0  0  0  0  0  0  0  0  0  0  0  0
    7.1564    0.0379   18.5519 C   0  0  0  0  0  0  0  0  0  0  0  0
    8.0830   -0.4784   18.2967 H   0  0  0  0  0  0  0  0  0  0  0  0
    4.9273    1.8420   16.9877 H   0  0  0  0  0  0  0  0  0  0  0  0
    3.8680    1.8482   19.2434 H   0  0  0  0  0  0  0  0  0  0  0  0
    5.0203    0.5829   21.1352 H   0  0  0  0  0  0  0  0  0  0  0  0
    9.4269    0.8178   19.9594 H   0  0  0  0  0  0  0  0  0  0  0  0
   10.6147    0.1038   21.0533 H   0  0  0  0  0  0  0  0  0  0  0  0
    9.8735    1.5396   23.3436 C   0  0  0  0  0  0  0  0  0  0  0  0
    8.9178    1.1266   24.2829 C   0  0  0  0  0  0  0  0  0  0  0  0
    9.3230    0.7631   25.5654 C   0  0  0  0  0  0  0  0  0  0  0  0
   10.6804    0.8400   25.8746 C   0  0  0  0  0  0  0  0  0  0  0  0
   11.6158    1.2650   25.0153 N   0  0  0  0  0  0  0  0  0  0  0  0
   11.2066    1.6031   23.7862 C   0  0  0  0  0  0  0  0  0  0  0  0
   11.9908    1.9421   23.1109 H   0  0  0  0  0  0  0  0  0  0  0  0
   11.0304    0.5403   26.8556 H   0  0  0  0  0  0  0  0  0  0  0  0
    8.6078    0.4220   26.3074 H   0  0  0  0  0  0  0  0  0  0  0  0
    7.8746    1.0332   23.9873 H   0  0  0  0  0  0  0  0  0  0  0  0
   10.2971    2.5019   21.5037 H   0  0  0  0  0  0  0  0  0  0  0  0
    8.1315    3.4589   22.1971 H   0  0  0  0  0  0  0  0  0  0  0  0
    7.9122    2.5703   20.6677 H   0  0  0  0  0  0  0  0  0  0  0  0
    7.3746    1.8604   22.1621 H   0  0  0  0  0  0  0  0  0  0  0  0
  1  2  1  0
  2  3  1  0
  3  4  1  0
  4  5  2  0
  5  6  1  0
  6  7  1  0
  7  8  2  0
  8  9  1  0
  9 10  2  0
 10 11  1  0
 11 12  2  0
 12 13  1  0
 11 14  1  0
  9 15  1  0
  8 16  1  0
  6 17  2  0
 17 18  1  0
 18 19  1  0
 19 20  2  0
 20 21  1  0
 21 22  2  0
 22 23  1  0
 23 24  2  0
 24 25  1  0
 22 26  1  0
 21 27  1  0
 20 28  1  0
  3 29  1  0
  3 30  1  0
  2 31  1  0
 31 32  2  0
 32 33  1  0
 33 34  2  0
 34 35  1  0
 35 36  2  0
 36 37  1  0
 34 38  1  0
 33 39  1  0
 32 40  1  0
  2 41  1  0
  1 42  1  0
  1 43  1  0
  1 44  1  0
 18  4  1  0
 24 19  1  0
 36 31  1  0
 12  7  1  0
M  END
>  <cnnaffinity>  (1) 
-6.24622

>  <filename>  (1) 
CC(Cc1nc(-c2ccncc2)nn1-c1cccnc1)c1cccnc1

$$$$
