
     RDKit          3D

 47 50  0  0  0  0  0  0  0  0999 V2000
    8.7246    1.3492   25.1359 C   0  0  0  0  0  0  0  0  0  0  0  0
    7.4595    1.2061   24.2741 C   0  0  0  0  0  0  0  0  0  0  0  0
    7.6488    1.8251   22.8552 C   0  0  0  0  0  0  0  0  0  0  0  0
    8.6155    1.0225   22.0614 C   0  0  0  0  0  0  0  0  0  0  0  0
    9.9364    1.1143   22.1342 N   0  0  0  0  0  0  0  0  0  0  0  0
   10.3591   -0.0851   21.6475 C   0  0  0  0  0  0  0  0  0  0  0  0
   11.7878   -0.5333   21.6160 C   0  0  0  0  0  0  0  0  0  0  0  0
   12.8568    0.2049   22.1813 C   0  0  0  0  0  0  0  0  0  0  0  0
   14.1651   -0.1853   21.8773 C   0  0  0  0  0  0  0  0  0  0  0  0
   14.3372   -1.2799   21.0239 C   0  0  0  0  0  0  0  0  0  0  0  0
   13.2338   -2.0140   20.6237 C   0  0  0  0  0  0  0  0  0  0  0  0
   11.9975   -1.6796   20.9516 N   0  0  0  0  0  0  0  0  0  0  0  0
   13.3368   -2.8783   19.9681 H   0  0  0  0  0  0  0  0  0  0  0  0
   15.2657   -1.5454   20.5707 H   0  0  0  0  0  0  0  0  0  0  0  0
   15.0232    0.3859   22.2350 H   0  0  0  0  0  0  0  0  0  0  0  0
   12.6736    1.0814   22.7910 H   0  0  0  0  0  0  0  0  0  0  0  0
    9.3730   -0.8594   21.2160 N   0  0  0  0  0  0  0  0  0  0  0  0
    8.2718   -0.1471   21.4768 N   0  0  0  0  0  0  0  0  0  0  0  0
    6.9767   -0.6867   21.0652 C   0  0  0  0  0  0  0  0  0  0  0  0
    6.3460    0.0531   19.9064 C   0  0  0  0  0  0  0  0  0  0  0  0
    5.1296    0.7348   20.0134 C   0  0  0  0  0  0  0  0  0  0  0  0
    4.6394    1.4181   18.8977 C   0  0  0  0  0  0  0  0  0  0  0  0
    5.3787    1.3818   17.7120 C   0  0  0  0  0  0  0  0  0  0  0  0
    6.5353    0.7143   17.5812 N   0  0  0  0  0  0  0  0  0  0  0  0
    7.0020    0.0799   18.6635 C   0  0  0  0  0  0  0  0  0  0  0  0
    7.9519   -0.4422   18.5428 H   0  0  0  0  0  0  0  0  0  0  0  0
    5.0280    1.9099   16.8270 H   0  0  0  0  0  0  0  0  0  0  0  0
    3.7174    1.9864   18.9396 H   0  0  0  0  0  0  0  0  0  0  0  0
    4.5751    0.7432   20.9550 H   0  0  0  0  0  0  0  0  0  0  0  0
    6.3068   -0.6955   21.9311 H   0  0  0  0  0  0  0  0  0  0  0  0
    7.1805   -1.7299   20.8039 H   0  0  0  0  0  0  0  0  0  0  0  0
    8.0190    2.8510   22.9283 H   0  0  0  0  0  0  0  0  0  0  0  0
    6.6870    1.8666   22.3327 H   0  0  0  0  0  0  0  0  0  0  0  0
    6.2246    1.7756   24.9410 C   0  0  0  0  0  0  0  0  0  0  0  0
    6.1379    3.1224   25.3195 C   0  0  0  0  0  0  0  0  0  0  0  0
    4.9495    3.5953   25.8798 C   0  0  0  0  0  0  0  0  0  0  0  0
    3.8830    2.7070   26.0455 C   0  0  0  0  0  0  0  0  0  0  0  0
    3.9402    1.4170   25.6990 N   0  0  0  0  0  0  0  0  0  0  0  0
    5.0890    0.9776   25.1658 C   0  0  0  0  0  0  0  0  0  0  0  0
    5.1135   -0.0795   24.9036 H   0  0  0  0  0  0  0  0  0  0  0  0
    2.9400    3.0475   26.4722 H   0  0  0  0  0  0  0  0  0  0  0  0
    4.8430    4.6312   26.1767 H   0  0  0  0  0  0  0  0  0  0  0  0
    6.9851    3.7954   25.1727 H   0  0  0  0  0  0  0  0  0  0  0  0
    7.2808    0.1266   24.1347 H   0  0  0  0  0  0  0  0  0  0  0  0
    8.5889    0.8824   26.1165 H   0  0  0  0  0  0  0  0  0  0  0  0
    8.9820    2.4041   25.2897 H   0  0  0  0  0  0  0  0  0  0  0  0
    9.5831    0.8763   24.6473 H   0  0  0  0  0  0  0  0  0  0  0  0
  1  2  1  0
  2  3  1  0
  3  4  1  0
  4  5  2  0
  5  6  1  0
  6  7  1  0
  7  8  2  0
  8  9  1  0
  9 10  2  0
 10 11  1  0
 11 12  2  0
 11 13  1  0
 10 14  1  0
  9 15  1  0
  8 16  1  0
  6 17  2  0
 17 18  1  0
 18 19  1  0
 19 20  1  0
 20 21  2  0
 21 22  1  0
 22 23  2  0
 23 24  1  0
 24 25  2  0
 25 26  1  0
 23 27  1  0
 22 28  1  0
 21 29  1  0
 19 30  1  0
 19 31  1  0
  3 32  1  0
  3 33  1  0
  2 34  1  0
 34 35  2  0
 35 36  1  0
 36 37  2  0
 37 38  1  0
 38 39  2  0
 39 40  1  0
 37 41  1  0
 36 42  1  0
 35 43  1  0
  2 44  1  0
  1 45  1  0
  1 46  1  0
  1 47  1  0
 18  4  1  0
 25 20  1  0
 39 34  1  0
 12  7  1  0
M  END
>  <cnnaffinity>  (1) 
-6.62664

>  <filename>  (1) 
CC(Cc1nc(-c2ccccn2)nn1Cc1cccnc1)c1cccnc1

$$$$
