
     RDKit          3D

 47 50  0  0  0  0  0  0  0  0999 V2000
    9.3587    2.0026   20.9694 C   0  0  0  0  0  0  0  0  0  0  0  0
    9.0328    1.9468   22.4580 C   0  0  0  0  0  0  0  0  0  0  0  0
    7.6732    1.2280   22.6783 C   0  0  0  0  0  0  0  0  0  0  0  0
    7.6846   -0.1760   22.1768 C   0  0  0  0  0  0  0  0  0  0  0  0
    8.2677   -1.1524   22.8382 N   0  0  0  0  0  0  0  0  0  0  0  0
    8.2265   -2.1898   21.9722 C   0  0  0  0  0  0  0  0  0  0  0  0
    8.8605   -3.4860   22.3441 C   0  0  0  0  0  0  0  0  0  0  0  0
    8.8824   -3.8355   23.8530 C   0  0  0  0  0  0  0  0  0  0  0  0
    8.7946   -5.3743   23.8588 C   0  0  0  0  0  0  0  0  0  0  0  0
    8.7310   -5.8013   22.5064 O   0  0  0  0  0  0  0  0  0  0  0  0
    8.1972   -4.7368   21.7436 C   0  0  0  0  0  0  0  0  0  0  0  0
    7.0991   -4.7114   21.8436 H   0  0  0  0  0  0  0  0  0  0  0  0
    8.4239   -4.9195   20.6887 H   0  0  0  0  0  0  0  0  0  0  0  0
    9.6660   -5.8473   24.3204 H   0  0  0  0  0  0  0  0  0  0  0  0
    7.8932   -5.6925   24.4017 H   0  0  0  0  0  0  0  0  0  0  0  0
    9.7941   -3.4565   24.3280 H   0  0  0  0  0  0  0  0  0  0  0  0
    8.0239   -3.3945   24.3756 H   0  0  0  0  0  0  0  0  0  0  0  0
    9.9019   -3.3660   22.0256 H   0  0  0  0  0  0  0  0  0  0  0  0
    7.6893   -1.9191   20.7964 N   0  0  0  0  0  0  0  0  0  0  0  0
    7.3012   -0.6219   20.9430 N   0  0  0  0  0  0  0  0  0  0  0  0
    6.6137    0.0434   19.8954 C   0  0  0  0  0  0  0  0  0  0  0  0
    5.4014    0.7011   20.1283 C   0  0  0  0  0  0  0  0  0  0  0  0
    4.7886    1.3459   19.0484 C   0  0  0  0  0  0  0  0  0  0  0  0
    5.4079    1.3134   17.7947 C   0  0  0  0  0  0  0  0  0  0  0  0
    6.5611    0.6642   17.5635 N   0  0  0  0  0  0  0  0  0  0  0  0
    7.1418    0.0340   18.5921 C   0  0  0  0  0  0  0  0  0  0  0  0
    8.0656   -0.4999   18.3821 H   0  0  0  0  0  0  0  0  0  0  0  0
    4.9570    1.8182   16.9428 H   0  0  0  0  0  0  0  0  0  0  0  0
    3.8536    1.8771   19.1770 H   0  0  0  0  0  0  0  0  0  0  0  0
    4.9440    0.6858   21.1195 H   0  0  0  0  0  0  0  0  0  0  0  0
    7.4549    1.1817   23.7483 H   0  0  0  0  0  0  0  0  0  0  0  0
    6.8709    1.7954   22.2020 H   0  0  0  0  0  0  0  0  0  0  0  0
    9.0425    3.3376   23.0731 C   0  0  0  0  0  0  0  0  0  0  0  0
    8.1312    4.3190   22.6493 C   0  0  0  0  0  0  0  0  0  0  0  0
    8.1243    5.5882   23.2324 C   0  0  0  0  0  0  0  0  0  0  0  0
    9.0535    5.9160   24.2246 C   0  0  0  0  0  0  0  0  0  0  0  0
    9.9885    4.9555   24.5992 C   0  0  0  0  0  0  0  0  0  0  0  0
   10.9190    5.2946   25.5098 F   0  0  0  0  0  0  0  0  0  0  0  0
    9.9937    3.6742   24.0536 C   0  0  0  0  0  0  0  0  0  0  0  0
   10.7349    2.9537   24.3870 H   0  0  0  0  0  0  0  0  0  0  0  0
    9.0722    6.8869   24.7062 H   0  0  0  0  0  0  0  0  0  0  0  0
    7.3950    6.3262   22.9069 H   0  0  0  0  0  0  0  0  0  0  0  0
    7.4267    4.1022   21.8482 H   0  0  0  0  0  0  0  0  0  0  0  0
    9.8125    1.3554   22.9589 H   0  0  0  0  0  0  0  0  0  0  0  0
    8.5390    2.4818   20.4191 H   0  0  0  0  0  0  0  0  0  0  0  0
   10.2743    2.5729   20.7852 H   0  0  0  0  0  0  0  0  0  0  0  0
    9.4876    1.0026   20.5397 H   0  0  0  0  0  0  0  0  0  0  0  0
  1  2  1  0
  2  3  1  0
  3  4  1  0
  4  5  2  0
  5  6  1  0
  6  7  1  0
  7  8  1  0
  8  9  1  0
  9 10  1  0
 10 11  1  0
 11 12  1  0
 11 13  1  0
  9 14  1  0
  9 15  1  0
  8 16  1  0
  8 17  1  0
  7 18  1  0
  6 19  2  0
 19 20  1  0
 20 21  1  0
 21 22  2  0
 22 23  1  0
 23 24  2  0
 24 25  1  0
 25 26  2  0
 26 27  1  0
 24 28  1  0
 23 29  1  0
 22 30  1  0
  3 31  1  0
  3 32  1  0
  2 33  1  0
 33 34  2  0
 34 35  1  0
 35 36  2  0
 36 37  1  0
 37 38  1  0
 37 39  2  0
 39 40  1  0
 36 41  1  0
 35 42  1  0
 34 43  1  0
  2 44  1  0
  1 45  1  0
  1 46  1  0
  1 47  1  0
 20  4  1  0
 26 21  1  0
 39 33  1  0
 11  7  1  0
M  END
>  <cnnaffinity>  (1) 
-6.31613

>  <filename>  (1) 
CC(Cc1nc(C2CCOC2)nn1-c1cccnc1)c1cccc(F)c1

$$$$
