
     RDKit          3D

 44 46  0  0  0  0  0  0  0  0999 V2000
    8.1222   -5.2936   24.4513 C   0  0  0  0  0  0  0  0  0  0  0  0
    8.1895   -4.3268   23.2712 C   0  0  0  0  0  0  0  0  0  0  0  0
    7.6023   -4.9593   22.0101 C   0  0  0  0  0  0  0  0  0  0  0  0
    7.7011   -4.3084   21.1355 H   0  0  0  0  0  0  0  0  0  0  0  0
    6.5336   -5.1726   22.1451 H   0  0  0  0  0  0  0  0  0  0  0  0
    8.0970   -5.9103   21.7847 H   0  0  0  0  0  0  0  0  0  0  0  0
    7.4770   -3.0026   23.6130 C   0  0  0  0  0  0  0  0  0  0  0  0
    7.6641   -1.9528   22.5694 C   0  0  0  0  0  0  0  0  0  0  0  0
    6.7379   -1.6101   21.6994 N   0  0  0  0  0  0  0  0  0  0  0  0
    7.3619   -0.6744   20.9381 N   0  0  0  0  0  0  0  0  0  0  0  0
    6.6600    0.0037   19.9015 C   0  0  0  0  0  0  0  0  0  0  0  0
    5.4439    0.6457   20.1660 C   0  0  0  0  0  0  0  0  0  0  0  0
    4.8119    1.3116   19.1105 C   0  0  0  0  0  0  0  0  0  0  0  0
    5.4017    1.2946   17.8401 C   0  0  0  0  0  0  0  0  0  0  0  0
    6.5635    0.6763   17.5798 N   0  0  0  0  0  0  0  0  0  0  0  0
    7.1723    0.0553   18.5950 C   0  0  0  0  0  0  0  0  0  0  0  0
    8.1183   -0.4353   18.3742 H   0  0  0  0  0  0  0  0  0  0  0  0
    4.9130    1.7805   16.9970 H   0  0  0  0  0  0  0  0  0  0  0  0
    3.8770    1.8412   19.2651 H   0  0  0  0  0  0  0  0  0  0  0  0
    5.0117    0.6136   21.1684 H   0  0  0  0  0  0  0  0  0  0  0  0
    8.6283   -0.4898   21.4126 C   0  0  0  0  0  0  0  0  0  0  0  0
    9.5291    0.6099   20.9425 C   0  0  0  0  0  0  0  0  0  0  0  0
    9.0579    2.0133   21.3986 C   0  0  0  0  0  0  0  0  0  0  0  0
    8.9397    2.1087   22.9019 C   0  0  0  0  0  0  0  0  0  0  0  0
    7.7103    1.8735   23.5328 C   0  0  0  0  0  0  0  0  0  0  0  0
    7.6153    1.8943   24.9210 C   0  0  0  0  0  0  0  0  0  0  0  0
    8.7762    2.1405   25.6554 C   0  0  0  0  0  0  0  0  0  0  0  0
    9.9731    2.3475   25.0911 N   0  0  0  0  0  0  0  0  0  0  0  0
   10.0336    2.3185   23.7699 C   0  0  0  0  0  0  0  0  0  0  0  0
   11.6171    2.5806   23.1012 Cl  0  0  0  0  0  0  0  0  0  0  0  0
    8.7425    2.1768   26.7376 H   0  0  0  0  0  0  0  0  0  0  0  0
    6.6697    1.7274   25.4216 H   0  0  0  0  0  0  0  0  0  0  0  0
    6.8332    1.6596   22.9212 H   0  0  0  0  0  0  0  0  0  0  0  0
    8.0837    2.2321   20.9417 H   0  0  0  0  0  0  0  0  0  0  0  0
    9.7598    2.7638   21.0237 H   0  0  0  0  0  0  0  0  0  0  0  0
   10.5259    0.4033   21.3375 H   0  0  0  0  0  0  0  0  0  0  0  0
    9.6013    0.5912   19.8516 H   0  0  0  0  0  0  0  0  0  0  0  0
    8.8520   -1.3023   22.4266 N   0  0  0  0  0  0  0  0  0  0  0  0
    6.4043   -3.1703   23.7425 H   0  0  0  0  0  0  0  0  0  0  0  0
    7.8604   -2.6074   24.5586 H   0  0  0  0  0  0  0  0  0  0  0  0
    9.2493   -4.1001   23.0828 H   0  0  0  0  0  0  0  0  0  0  0  0
    8.6483   -6.2278   24.2249 H   0  0  0  0  0  0  0  0  0  0  0  0
    8.5806   -4.8644   25.3496 H   0  0  0  0  0  0  0  0  0  0  0  0
    7.0831   -5.5488   24.6950 H   0  0  0  0  0  0  0  0  0  0  0  0
  1  2  1  0
  2  3  1  0
  3  4  1  0
  3  5  1  0
  3  6  1  0
  2  7  1  0
  7  8  1  0
  8  9  2  0
  9 10  1  0
 10 11  1  0
 11 12  2  0
 12 13  1  0
 13 14  2  0
 14 15  1  0
 15 16  2  0
 16 17  1  0
 14 18  1  0
 13 19  1  0
 12 20  1  0
 10 21  1  0
 21 22  1  0
 22 23  1  0
 23 24  1  0
 24 25  2  0
 25 26  1  0
 26 27  2  0
 27 28  1  0
 28 29  2  0
 29 30  1  0
 27 31  1  0
 26 32  1  0
 25 33  1  0
 23 34  1  0
 23 35  1  0
 22 36  1  0
 22 37  1  0
 21 38  2  0
  7 39  1  0
  7 40  1  0
  2 41  1  0
  1 42  1  0
  1 43  1  0
  1 44  1  0
 38  8  1  0
 16 11  1  0
 29 24  1  0
M  END
>  <cnnaffinity>  (1) 
-6.31236

>  <filename>  (1) 
CC(C)Cc1nc(CCc2cccnc2Cl)n(-c2cccnc2)n1

$$$$
