
     RDKit          3D

 41 43  0  0  0  0  0  0  0  0999 V2000
    6.5927   -2.2963   24.8096 C   0  0  0  0  0  0  0  0  0  0  0  0
    7.4200   -2.9428   23.6714 C   0  0  0  0  0  0  0  0  0  0  0  0
    6.7598   -4.2406   23.1677 C   0  0  0  0  0  0  0  0  0  0  0  0
    7.3610   -4.7259   22.3906 H   0  0  0  0  0  0  0  0  0  0  0  0
    6.6370   -4.9531   23.9914 H   0  0  0  0  0  0  0  0  0  0  0  0
    5.7696   -4.0325   22.7433 H   0  0  0  0  0  0  0  0  0  0  0  0
    7.6657   -1.9616   22.5537 C   0  0  0  0  0  0  0  0  0  0  0  0
    6.7339   -1.5823   21.6997 N   0  0  0  0  0  0  0  0  0  0  0  0
    7.3698   -0.6442   20.9515 N   0  0  0  0  0  0  0  0  0  0  0  0
    6.6769    0.0131   19.8974 C   0  0  0  0  0  0  0  0  0  0  0  0
    5.4523    0.6394   20.1577 C   0  0  0  0  0  0  0  0  0  0  0  0
    4.8131    1.3056   19.1074 C   0  0  0  0  0  0  0  0  0  0  0  0
    5.4061    1.2938   17.8397 C   0  0  0  0  0  0  0  0  0  0  0  0
    6.5588    0.6611   17.5730 N   0  0  0  0  0  0  0  0  0  0  0  0
    7.1775    0.0412   18.5845 C   0  0  0  0  0  0  0  0  0  0  0  0
    8.1119   -0.4646   18.3408 H   0  0  0  0  0  0  0  0  0  0  0  0
    4.9391    1.8115   17.0055 H   0  0  0  0  0  0  0  0  0  0  0  0
    3.8764    1.8346   19.2599 H   0  0  0  0  0  0  0  0  0  0  0  0
    5.0299    0.5871   21.1608 H   0  0  0  0  0  0  0  0  0  0  0  0
    8.6385   -0.4809   21.4249 C   0  0  0  0  0  0  0  0  0  0  0  0
    9.5436    0.6020   20.9400 C   0  0  0  0  0  0  0  0  0  0  0  0
    9.0531    2.0210   21.2920 C   0  0  0  0  0  0  0  0  0  0  0  0
    8.8270    2.2522   22.8060 C   0  0  0  0  0  0  0  0  0  0  0  0
   10.0609    2.0115   23.6385 C   0  0  0  0  0  0  0  0  0  0  0  0
   10.3497    0.9661   24.4584 C   0  0  0  0  0  0  0  0  0  0  0  0
   11.6417    0.8473   24.9176 N   0  0  0  0  0  0  0  0  0  0  0  0
   12.3464    1.8243   24.4438 C   0  0  0  0  0  0  0  0  0  0  0  0
   11.4933    2.9559   23.4542 S   0  0  0  0  0  0  0  0  0  0  0  0
   13.4167    1.9330   24.5883 H   0  0  0  0  0  0  0  0  0  0  0  0
    9.6207    0.2052   24.7061 H   0  0  0  0  0  0  0  0  0  0  0  0
    8.0515    1.5530   23.1468 H   0  0  0  0  0  0  0  0  0  0  0  0
    8.4203    3.2617   22.9591 H   0  0  0  0  0  0  0  0  0  0  0  0
    9.7847    2.7381   20.9099 H   0  0  0  0  0  0  0  0  0  0  0  0
    8.1174    2.2194   20.7562 H   0  0  0  0  0  0  0  0  0  0  0  0
   10.5445    0.4233   21.3515 H   0  0  0  0  0  0  0  0  0  0  0  0
    9.6115    0.4948   19.8549 H   0  0  0  0  0  0  0  0  0  0  0  0
    8.8606   -1.3291   22.4109 N   0  0  0  0  0  0  0  0  0  0  0  0
    8.4235   -3.1653   24.0547 H   0  0  0  0  0  0  0  0  0  0  0  0
    6.4540   -3.0013   25.6369 H   0  0  0  0  0  0  0  0  0  0  0  0
    5.5994   -1.9916   24.4585 H   0  0  0  0  0  0  0  0  0  0  0  0
    7.0870   -1.4054   25.2155 H   0  0  0  0  0  0  0  0  0  0  0  0
  1  2  1  0
  2  3  1  0
  3  4  1  0
  3  5  1  0
  3  6  1  0
  2  7  1  0
  7  8  2  0
  8  9  1  0
  9 10  1  0
 10 11  2  0
 11 12  1  0
 12 13  2  0
 13 14  1  0
 14 15  2  0
 15 16  1  0
 13 17  1  0
 12 18  1  0
 11 19  1  0
  9 20  1  0
 20 21  1  0
 21 22  1  0
 22 23  1  0
 23 24  1  0
 24 25  2  0
 25 26  1  0
 26 27  2  0
 27 28  1  0
 27 29  1  0
 25 30  1  0
 23 31  1  0
 23 32  1  0
 22 33  1  0
 22 34  1  0
 21 35  1  0
 21 36  1  0
 20 37  2  0
  2 38  1  0
  1 39  1  0
  1 40  1  0
  1 41  1  0
 37  7  1  0
 15 10  1  0
 28 24  1  0
M  END
>  <cnnaffinity>  (1) 
-5.9044

>  <filename>  (1) 
CC(C)c1nc(CCCc2cncs2)n(-c2cccnc2)n1

$$$$
