
     RDKit          3D

 34 35  0  0  0  0  0  0  0  0999 V2000
    4.9561    1.6729   16.8914 H   0  0  0  0  0  0  0  0  0  0  0  0
    5.4925    1.1968   17.7104 C   0  0  0  0  0  0  0  0  0  0  0  0
    6.6214    0.5502   17.3830 N   0  0  0  0  0  0  0  0  0  0  0  0
    7.3198   -0.0110   18.3717 C   0  0  0  0  0  0  0  0  0  0  0  0
    8.2155   -0.5524   18.0779 H   0  0  0  0  0  0  0  0  0  0  0  0
    6.9637    0.0720   19.7321 C   0  0  0  0  0  0  0  0  0  0  0  0
    7.9601   -0.4567   20.7309 C   0  0  0  0  0  0  0  0  0  0  0  0
    8.8300   -1.2192   20.3476 O   0  0  0  0  0  0  0  0  0  0  0  0
    7.8683   -0.0776   22.2714 C   0  0  0  0  0  0  0  0  0  0  0  0
    7.4664    1.3548   22.4343 N   0  0  0  0  0  0  0  0  0  0  0  0
    8.2174    1.9577   22.1061 H   0  0  0  0  0  0  0  0  0  0  0  0
    7.0943    1.8620   23.7110 C   0  0  0  0  0  0  0  0  0  0  0  0
    5.7588    1.7810   24.1094 C   0  0  0  0  0  0  0  0  0  0  0  0
    5.0920    1.2067   23.4730 H   0  0  0  0  0  0  0  0  0  0  0  0
    5.3166    2.4371   25.2624 C   0  0  0  0  0  0  0  0  0  0  0  0
    4.2728    2.3682   25.5582 H   0  0  0  0  0  0  0  0  0  0  0  0
    6.2204    3.1654   26.0416 C   0  0  0  0  0  0  0  0  0  0  0  0
    5.8774    3.6902   26.9295 H   0  0  0  0  0  0  0  0  0  0  0  0
    7.5693    3.2313   25.6690 C   0  0  0  0  0  0  0  0  0  0  0  0
    8.2739    3.7864   26.2835 H   0  0  0  0  0  0  0  0  0  0  0  0
    8.0046    2.5760   24.5083 C   0  0  0  0  0  0  0  0  0  0  0  0
    9.0486    2.6074   24.2066 H   0  0  0  0  0  0  0  0  0  0  0  0
    9.2391   -0.2394   22.9334 C   0  0  0  0  0  0  0  0  0  0  0  0
    9.1845    0.0677   23.9810 H   0  0  0  0  0  0  0  0  0  0  0  0
    9.5831   -1.2753   22.8911 H   0  0  0  0  0  0  0  0  0  0  0  0
    9.9767    0.3877   22.4247 H   0  0  0  0  0  0  0  0  0  0  0  0
    6.8624   -1.0544   22.9038 C   0  0  0  0  0  0  0  0  0  0  0  0
    5.9552   -1.1427   22.3019 H   0  0  0  0  0  0  0  0  0  0  0  0
    6.5977   -0.7615   23.9242 H   0  0  0  0  0  0  0  0  0  0  0  0
    7.2884   -2.0625   22.9661 H   0  0  0  0  0  0  0  0  0  0  0  0
    5.7495    0.7055   20.0508 C   0  0  0  0  0  0  0  0  0  0  0  0
    5.3933    0.7958   21.0776 H   0  0  0  0  0  0  0  0  0  0  0  0
    5.0051    1.2730   19.0179 C   0  0  0  0  0  0  0  0  0  0  0  0
    4.0764    1.7936   19.2225 H   0  0  0  0  0  0  0  0  0  0  0  0
  1  2  1  0
  2  3  2  0
  3  4  1  0
  4  5  1  0
  4  6  2  0
  6  7  1  0
  7  8  2  0
  7  9  1  0
  9 10  1  0
 10 11  1  0
 10 12  1  0
 12 13  2  0
 13 14  1  0
 13 15  1  0
 15 16  1  0
 15 17  2  0
 17 18  1  0
 17 19  1  0
 19 20  1  0
 19 21  2  0
 21 22  1  0
  9 23  1  0
 23 24  1  0
 23 25  1  0
 23 26  1  0
  9 27  1  0
 27 28  1  0
 27 29  1  0
 27 30  1  0
  6 31  1  0
 31 32  1  0
 31 33  2  0
 33 34  1  0
 33  2  1  0
 21 12  1  0
M  END
>  <cnnaffinity>  (1) 
-4.12355

>  <filename>  (1) 
CC(C)(Nc1ccccc1)C(=O)c1cccnc1

$$$$
