
     RDKit          3D

 44 47  0  0  0  0  0  0  0  0999 V2000
    9.0599   -2.7385   22.4130 C   0  0  0  0  0  0  0  0  0  0  0  0
    8.4836   -1.4248   21.7998 C   0  0  0  0  0  0  0  0  0  0  0  0
    7.6088   -1.7058   20.6156 C   0  0  0  0  0  0  0  0  0  0  0  0
    6.3506   -2.5217   20.5990 C   0  0  0  0  0  0  0  0  0  0  0  0
    5.7175   -3.1879   21.5715 C   0  0  0  0  0  0  0  0  0  0  0  0
    5.8376   -2.3790   19.0886 C   0  0  0  0  0  0  0  0  0  0  0  0
    4.7720   -3.0135   18.6234 F   0  0  0  0  0  0  0  0  0  0  0  0
    6.6843   -1.5402   18.3712 C   0  0  0  0  0  0  0  0  0  0  0  0
    7.7417   -1.2499   19.3170 C   0  0  0  0  0  0  0  0  0  0  0  0
    8.8324   -0.5976   18.9035 F   0  0  0  0  0  0  0  0  0  0  0  0
    6.5764   -1.1240   17.3811 H   0  0  0  0  0  0  0  0  0  0  0  0
    4.8022   -3.7484   21.3706 H   0  0  0  0  0  0  0  0  0  0  0  0
    6.1190   -3.1256   22.5904 H   0  0  0  0  0  0  0  0  0  0  0  0
    7.8398   -0.5122   22.8448 C   0  0  0  0  0  0  0  0  0  0  0  0
    8.1280   -0.5413   24.1254 N   0  0  0  0  0  0  0  0  0  0  0  0
    7.5918    0.6041   24.6151 C   0  0  0  0  0  0  0  0  0  0  0  0
    7.9419    1.0588   26.0009 C   0  0  0  0  0  0  0  0  0  0  0  0
    7.5114    0.0761   27.1206 C   0  0  0  0  0  0  0  0  0  0  0  0
    8.7170   -0.8627   27.1767 C   0  0  0  0  0  0  0  0  0  0  0  0
    9.8275   -0.0024   27.0203 O   0  0  0  0  0  0  0  0  0  0  0  0
    9.4946    1.0604   26.1476 C   0  0  0  0  0  0  0  0  0  0  0  0
    9.8590    2.0119   26.5463 H   0  0  0  0  0  0  0  0  0  0  0  0
   10.0131    0.9014   25.1911 H   0  0  0  0  0  0  0  0  0  0  0  0
    8.6780   -1.5949   26.3554 H   0  0  0  0  0  0  0  0  0  0  0  0
    8.8394   -1.3848   28.1277 H   0  0  0  0  0  0  0  0  0  0  0  0
    6.5599   -0.4304   26.9167 H   0  0  0  0  0  0  0  0  0  0  0  0
    7.4237    0.6169   28.0746 H   0  0  0  0  0  0  0  0  0  0  0  0
    7.5086    2.0526   26.1212 H   0  0  0  0  0  0  0  0  0  0  0  0
    6.9270    1.3187   23.7341 N   0  0  0  0  0  0  0  0  0  0  0  0
    7.0815    0.6019   22.5851 N   0  0  0  0  0  0  0  0  0  0  0  0
    6.5779    1.0936   21.3508 C   0  0  0  0  0  0  0  0  0  0  0  0
    5.2260    1.3906   21.1580 C   0  0  0  0  0  0  0  0  0  0  0  0
    4.7992    1.6542   19.8530 C   0  0  0  0  0  0  0  0  0  0  0  0
    5.7310    1.6043   18.8110 C   0  0  0  0  0  0  0  0  0  0  0  0
    7.0327    1.3700   19.0136 N   0  0  0  0  0  0  0  0  0  0  0  0
    7.4504    1.2515   20.2688 C   0  0  0  0  0  0  0  0  0  0  0  0
    8.5260    1.1949   20.4111 H   0  0  0  0  0  0  0  0  0  0  0  0
    5.4296    1.7547   17.7783 H   0  0  0  0  0  0  0  0  0  0  0  0
    3.7756    1.9332   19.6297 H   0  0  0  0  0  0  0  0  0  0  0  0
    4.5472    1.4003   22.0096 H   0  0  0  0  0  0  0  0  0  0  0  0
    9.3212   -0.8224   21.4172 H   0  0  0  0  0  0  0  0  0  0  0  0
    8.8591   -3.5924   21.7562 H   0  0  0  0  0  0  0  0  0  0  0  0
    8.6214   -2.9491   23.3955 H   0  0  0  0  0  0  0  0  0  0  0  0
   10.1455   -2.6503   22.5307 H   0  0  0  0  0  0  0  0  0  0  0  0
  1  2  1  0
  2  3  1  0
  3  4  2  0
  4  5  1  0
  5  6  2  0
  6  7  1  0
  6  8  1  0
  8  9  2  0
  9 10  1  0
  8 11  1  0
  5 12  1  0
  4 13  1  0
  2 14  1  0
 14 15  2  0
 15 16  1  0
 16 17  1  0
 17 18  1  0
 18 19  1  0
 19 20  1  0
 20 21  1  0
 21 22  1  0
 21 23  1  0
 19 24  1  0
 19 25  1  0
 18 26  1  0
 18 27  1  0
 17 28  1  0
 16 29  2  0
 29 30  1  0
 30 31  1  0
 31 32  2  0
 32 33  1  0
 33 34  2  0
 34 35  1  0
 35 36  2  0
 36 37  1  0
 34 38  1  0
 33 39  1  0
 32 40  1  0
  2 41  1  0
  1 42  1  0
  1 43  1  0
  1 44  1  0
  9  3  1  0
 30 14  1  0
 36 31  1  0
 21 17  1  0
M  END
>  <cnnaffinity>  (1) 
-5.18423

>  <filename>  (1) 
CC(c1ccc(F)cc1F)c1nc(C2CCOC2)nn1-c1cccnc1

$$$$
