
     RDKit          3D

 35 37  0  0  0  0  0  0  0  0999 V2000
    4.9761    1.7563   17.0223 H   0  0  0  0  0  0  0  0  0  0  0  0
    5.4327    1.2687   17.8786 C   0  0  0  0  0  0  0  0  0  0  0  0
    6.5903    0.6375   17.6470 N   0  0  0  0  0  0  0  0  0  0  0  0
    7.1952    0.0428   18.6715 C   0  0  0  0  0  0  0  0  0  0  0  0
    8.1293   -0.4668   18.4289 H   0  0  0  0  0  0  0  0  0  0  0  0
    6.6542    0.0806   19.9515 C   0  0  0  0  0  0  0  0  0  0  0  0
    7.4849   -0.7884   21.2012 S   0  0  0  0  0  0  0  0  0  0  0  0
    8.3866   -1.7096   20.5217 O   0  0  0  0  0  0  0  0  0  0  0  0
    6.4622   -1.2907   22.0987 O   0  0  0  0  0  0  0  0  0  0  0  0
    8.5776    0.3785   22.1016 C   0  0  0  0  0  0  0  0  0  0  0  0
    7.5823    1.3901   22.5554 C   0  0  0  0  0  0  0  0  0  0  0  0
    6.8032    1.2769   23.5733 N   0  0  0  0  0  0  0  0  0  0  0  0
    6.1785    2.5221   23.6678 C   0  0  0  0  0  0  0  0  0  0  0  0
    5.2340    3.0247   24.5773 C   0  0  0  0  0  0  0  0  0  0  0  0
    4.9068    2.4088   25.4069 H   0  0  0  0  0  0  0  0  0  0  0  0
    4.7355    4.3108   24.3636 C   0  0  0  0  0  0  0  0  0  0  0  0
    3.9812    4.7127   25.0360 H   0  0  0  0  0  0  0  0  0  0  0  0
    5.1840    5.0901   23.2805 C   0  0  0  0  0  0  0  0  0  0  0  0
    4.7652    6.0834   23.1344 H   0  0  0  0  0  0  0  0  0  0  0  0
    6.1441    4.6107   22.3814 C   0  0  0  0  0  0  0  0  0  0  0  0
    6.4822    5.2089   21.5436 H   0  0  0  0  0  0  0  0  0  0  0  0
    6.6130    3.3166   22.6037 C   0  0  0  0  0  0  0  0  0  0  0  0
    7.5066    2.5732   21.8775 O   0  0  0  0  0  0  0  0  0  0  0  0
    9.6548    0.9252   21.1611 C   0  0  0  0  0  0  0  0  0  0  0  0
    9.1704    1.4091   20.3166 H   0  0  0  0  0  0  0  0  0  0  0  0
   10.2944    0.1121   20.8000 H   0  0  0  0  0  0  0  0  0  0  0  0
   10.2741    1.6605   21.6845 H   0  0  0  0  0  0  0  0  0  0  0  0
    9.2209   -0.3676   23.2907 C   0  0  0  0  0  0  0  0  0  0  0  0
    9.8763   -1.1714   22.9325 H   0  0  0  0  0  0  0  0  0  0  0  0
    8.4518   -0.7902   23.9463 H   0  0  0  0  0  0  0  0  0  0  0  0
    9.8226    0.3415   23.8737 H   0  0  0  0  0  0  0  0  0  0  0  0
    5.4204    0.6747   20.2043 C   0  0  0  0  0  0  0  0  0  0  0  0
    4.9488    0.6378   21.1910 H   0  0  0  0  0  0  0  0  0  0  0  0
    4.8156    1.3084   19.1306 C   0  0  0  0  0  0  0  0  0  0  0  0
    3.8811    1.8342   19.2502 H   0  0  0  0  0  0  0  0  0  0  0  0
  1  2  1  0
  2  3  2  0
  3  4  1  0
  4  5  1  0
  4  6  2  0
  6  7  1  0
  7  8  2  0
  7  9  2  0
  7 10  1  0
 10 11  1  0
 11 12  2  0
 12 13  1  0
 13 14  2  0
 14 15  1  0
 14 16  1  0
 16 17  1  0
 16 18  2  0
 18 19  1  0
 18 20  1  0
 20 21  1  0
 20 22  2  0
 22 23  1  0
 10 24  1  0
 24 25  1  0
 24 26  1  0
 24 27  1  0
 10 28  1  0
 28 29  1  0
 28 30  1  0
 28 31  1  0
  6 32  1  0
 32 33  1  0
 32 34  2  0
 34 35  1  0
 34  2  1  0
 23 11  1  0
 22 13  1  0
M  END
>  <cnnaffinity>  (1) 
-4.89401

>  <filename>  (1) 
CC(C)(c1nc2ccccc2o1)S(=O)(=O)c1cccnc1

$$$$
