
     RDKit          3D

 44 46  0  0  0  0  0  0  0  0999 V2000
    6.9336   -6.5396   22.8351 C   0  0  0  0  0  0  0  0  0  0  0  0
    8.1998   -5.6782   22.9280 C   0  0  0  0  0  0  0  0  0  0  0  0
    9.0224   -5.9212   24.2042 C   0  0  0  0  0  0  0  0  0  0  0  0
    9.5362   -6.8869   24.1714 H   0  0  0  0  0  0  0  0  0  0  0  0
    8.3911   -5.8884   25.1043 H   0  0  0  0  0  0  0  0  0  0  0  0
    9.7961   -5.1497   24.3296 H   0  0  0  0  0  0  0  0  0  0  0  0
    7.8082   -4.2034   22.7916 C   0  0  0  0  0  0  0  0  0  0  0  0
    8.8562   -3.3133   22.1126 C   0  0  0  0  0  0  0  0  0  0  0  0
    8.3180   -1.9589   21.8785 C   0  0  0  0  0  0  0  0  0  0  0  0
    7.8360   -1.6083   20.7067 N   0  0  0  0  0  0  0  0  0  0  0  0
    7.2880   -0.3936   20.9552 N   0  0  0  0  0  0  0  0  0  0  0  0
    6.5855    0.2432   19.9066 C   0  0  0  0  0  0  0  0  0  0  0  0
    5.3621    0.8936   20.0932 C   0  0  0  0  0  0  0  0  0  0  0  0
    4.7499    1.4557   18.9665 C   0  0  0  0  0  0  0  0  0  0  0  0
    5.3782    1.3534   17.7210 C   0  0  0  0  0  0  0  0  0  0  0  0
    6.5410    0.7014   17.5363 N   0  0  0  0  0  0  0  0  0  0  0  0
    7.1149    0.1500   18.6062 C   0  0  0  0  0  0  0  0  0  0  0  0
    8.0413   -0.4020   18.4557 H   0  0  0  0  0  0  0  0  0  0  0  0
    4.9381    1.8020   16.8328 H   0  0  0  0  0  0  0  0  0  0  0  0
    3.8019    1.9759   19.0444 H   0  0  0  0  0  0  0  0  0  0  0  0
    4.8888    0.9312   21.0751 H   0  0  0  0  0  0  0  0  0  0  0  0
    7.5363   -0.0536   22.2557 C   0  0  0  0  0  0  0  0  0  0  0  0
    7.2979    1.2640   22.9320 C   0  0  0  0  0  0  0  0  0  0  0  0
    8.5897    1.7992   23.5447 C   0  0  0  0  0  0  0  0  0  0  0  0
    8.8724    1.7078   24.9144 C   0  0  0  0  0  0  0  0  0  0  0  0
   10.0561    1.9956   25.4668 N   0  0  0  0  0  0  0  0  0  0  0  0
   11.0388    2.3985   24.6552 C   0  0  0  0  0  0  0  0  0  0  0  0
   10.8896    2.5635   23.2838 C   0  0  0  0  0  0  0  0  0  0  0  0
    9.6473    2.2430   22.7405 C   0  0  0  0  0  0  0  0  0  0  0  0
    9.4329    2.3457   21.0326 Cl  0  0  0  0  0  0  0  0  0  0  0  0
   11.7062    2.9118   22.6631 H   0  0  0  0  0  0  0  0  0  0  0  0
   11.9963    2.6096   25.1275 H   0  0  0  0  0  0  0  0  0  0  0  0
    8.0924    1.3680   25.5981 H   0  0  0  0  0  0  0  0  0  0  0  0
    6.5484    1.1100   23.7149 H   0  0  0  0  0  0  0  0  0  0  0  0
    6.8994    1.9857   22.2141 H   0  0  0  0  0  0  0  0  0  0  0  0
    8.1510   -1.0514   22.8659 N   0  0  0  0  0  0  0  0  0  0  0  0
    9.7818   -3.2537   22.6911 H   0  0  0  0  0  0  0  0  0  0  0  0
    9.0768   -3.6965   21.1191 H   0  0  0  0  0  0  0  0  0  0  0  0
    7.5578   -3.7854   23.7790 H   0  0  0  0  0  0  0  0  0  0  0  0
    6.8900   -4.1347   22.1912 H   0  0  0  0  0  0  0  0  0  0  0  0
    8.8236   -5.9516   22.0630 H   0  0  0  0  0  0  0  0  0  0  0  0
    7.1678   -7.6043   22.7857 H   0  0  0  0  0  0  0  0  0  0  0  0
    6.3763   -6.3125   21.9179 H   0  0  0  0  0  0  0  0  0  0  0  0
    6.2527   -6.3481   23.6760 H   0  0  0  0  0  0  0  0  0  0  0  0
  1  2  1  0
  2  3  1  0
  3  4  1  0
  3  5  1  0
  3  6  1  0
  2  7  1  0
  7  8  1  0
  8  9  1  0
  9 10  2  0
 10 11  1  0
 11 12  1  0
 12 13  2  0
 13 14  1  0
 14 15  2  0
 15 16  1  0
 16 17  2  0
 17 18  1  0
 15 19  1  0
 14 20  1  0
 13 21  1  0
 11 22  1  0
 22 23  1  0
 23 24  1  0
 24 25  2  0
 25 26  1  0
 26 27  2  0
 27 28  1  0
 28 29  2  0
 29 30  1  0
 28 31  1  0
 27 32  1  0
 25 33  1  0
 23 34  1  0
 23 35  1  0
 22 36  2  0
  8 37  1  0
  8 38  1  0
  7 39  1  0
  7 40  1  0
  2 41  1  0
  1 42  1  0
  1 43  1  0
  1 44  1  0
 36  9  1  0
 17 12  1  0
 29 24  1  0
M  END
>  <cnnaffinity>  (1) 
-6.15584

>  <filename>  (1) 
CC(C)CCc1nc(Cc2cnccc2Cl)n(-c2cccnc2)n1

$$$$
