
     RDKit          3D

 49 52  0  0  0  0  0  0  0  0999 V2000
   10.1166    2.7113   21.7037 C   0  0  0  0  0  0  0  0  0  0  0  0
    9.0527    1.6474   21.9559 C   0  0  0  0  0  0  0  0  0  0  0  0
    9.4593    0.3630   21.1867 C   0  0  0  0  0  0  0  0  0  0  0  0
    8.5488   -0.7799   21.4283 C   0  0  0  0  0  0  0  0  0  0  0  0
    8.7701   -1.6878   22.3501 N   0  0  0  0  0  0  0  0  0  0  0  0
    7.5382   -2.2199   22.5645 C   0  0  0  0  0  0  0  0  0  0  0  0
    7.2820   -3.0737   23.7833 C   0  0  0  0  0  0  0  0  0  0  0  0
    8.4523   -4.0551   24.0718 C   0  0  0  0  0  0  0  0  0  0  0  0
    9.6531   -3.3872   24.7678 C   0  0  0  0  0  0  0  0  0  0  0  0
    9.2528   -2.6807   25.9345 O   0  0  0  0  0  0  0  0  0  0  0  0
    8.3332   -1.6408   25.6413 C   0  0  0  0  0  0  0  0  0  0  0  0
    7.0305   -2.1983   25.0541 C   0  0  0  0  0  0  0  0  0  0  0  0
    6.5622   -2.8197   25.8262 H   0  0  0  0  0  0  0  0  0  0  0  0
    6.3394   -1.3766   24.8291 H   0  0  0  0  0  0  0  0  0  0  0  0
    8.7897   -0.9288   24.9378 H   0  0  0  0  0  0  0  0  0  0  0  0
    8.1448   -1.1201   26.5876 H   0  0  0  0  0  0  0  0  0  0  0  0
   10.3716   -4.1425   25.1102 H   0  0  0  0  0  0  0  0  0  0  0  0
   10.1672   -2.7035   24.0774 H   0  0  0  0  0  0  0  0  0  0  0  0
    8.7943   -4.5315   23.1465 H   0  0  0  0  0  0  0  0  0  0  0  0
    8.0868   -4.8479   24.7357 H   0  0  0  0  0  0  0  0  0  0  0  0
    6.3696   -3.6341   23.5551 H   0  0  0  0  0  0  0  0  0  0  0  0
    6.6017   -1.7987   21.7374 N   0  0  0  0  0  0  0  0  0  0  0  0
    7.2726   -0.8975   20.9555 N   0  0  0  0  0  0  0  0  0  0  0  0
    6.6121   -0.1862   19.9102 C   0  0  0  0  0  0  0  0  0  0  0  0
    5.4081    0.4841   20.1502 C   0  0  0  0  0  0  0  0  0  0  0  0
    4.8477    1.2422   19.1162 C   0  0  0  0  0  0  0  0  0  0  0  0
    5.4880    1.2762   17.8729 C   0  0  0  0  0  0  0  0  0  0  0  0
    6.6170    0.5989   17.6197 N   0  0  0  0  0  0  0  0  0  0  0  0
    7.1627   -0.1087   18.6168 C   0  0  0  0  0  0  0  0  0  0  0  0
    8.0783   -0.6433   18.3720 H   0  0  0  0  0  0  0  0  0  0  0  0
    5.0725    1.8540   17.0473 H   0  0  0  0  0  0  0  0  0  0  0  0
    3.9371    1.8109   19.2663 H   0  0  0  0  0  0  0  0  0  0  0  0
    4.9391    0.4023   21.1297 H   0  0  0  0  0  0  0  0  0  0  0  0
   10.4678    0.0452   21.4621 H   0  0  0  0  0  0  0  0  0  0  0  0
    9.4834    0.5927   20.1197 H   0  0  0  0  0  0  0  0  0  0  0  0
    8.7997    1.5060   23.4556 C   0  0  0  0  0  0  0  0  0  0  0  0
    9.8371    1.2788   24.3754 C   0  0  0  0  0  0  0  0  0  0  0  0
    9.6245    1.5521   25.7287 C   0  0  0  0  0  0  0  0  0  0  0  0
    8.3433    1.9233   26.1434 C   0  0  0  0  0  0  0  0  0  0  0  0
    7.2948    1.9810   25.3091 N   0  0  0  0  0  0  0  0  0  0  0  0
    7.5306    1.7663   24.0087 C   0  0  0  0  0  0  0  0  0  0  0  0
    6.6574    1.8212   23.3576 H   0  0  0  0  0  0  0  0  0  0  0  0
    8.1316    2.1561   27.1863 H   0  0  0  0  0  0  0  0  0  0  0  0
   10.4376    1.4810   26.4446 H   0  0  0  0  0  0  0  0  0  0  0  0
   10.7971    0.8824   24.0426 H   0  0  0  0  0  0  0  0  0  0  0  0
    8.1012    1.9780   21.5173 H   0  0  0  0  0  0  0  0  0  0  0  0
    9.7439    3.6955   22.0081 H   0  0  0  0  0  0  0  0  0  0  0  0
   11.0200    2.5041   22.2892 H   0  0  0  0  0  0  0  0  0  0  0  0
   10.3990    2.7080   20.6459 H   0  0  0  0  0  0  0  0  0  0  0  0
  1  2  1  0
  2  3  1  0
  3  4  1  0
  4  5  2  0
  5  6  1  0
  6  7  1  0
  7  8  1  0
  8  9  1  0
  9 10  1  0
 10 11  1  0
 11 12  1  0
 12 13  1  0
 12 14  1  0
 11 15  1  0
 11 16  1  0
  9 17  1  0
  9 18  1  0
  8 19  1  0
  8 20  1  0
  7 21  1  0
  6 22  2  0
 22 23  1  0
 23 24  1  0
 24 25  2  0
 25 26  1  0
 26 27  2  0
 27 28  1  0
 28 29  2  0
 29 30  1  0
 27 31  1  0
 26 32  1  0
 25 33  1  0
  3 34  1  0
  3 35  1  0
  2 36  1  0
 36 37  2  0
 37 38  1  0
 38 39  2  0
 39 40  1  0
 40 41  2  0
 41 42  1  0
 39 43  1  0
 38 44  1  0
 37 45  1  0
  2 46  1  0
  1 47  1  0
  1 48  1  0
  1 49  1  0
 23  4  1  0
 29 24  1  0
 41 36  1  0
 12  7  1  0
M  END
>  <cnnaffinity>  (1) 
-6.22917

>  <filename>  (1) 
CC(Cc1nc(C2CCOCC2)nn1-c1cccnc1)c1cccnc1

$$$$
