
     RDKit          3D

 39 41  0  0  0  0  0  0  0  0999 V2000
    6.5564   -2.4261   24.7484 C   0  0  0  0  0  0  0  0  0  0  0  0
    7.8569   -1.7311   24.3187 C   0  0  0  0  0  0  0  0  0  0  0  0
    8.0469   -0.4471   25.1518 C   0  0  0  0  0  0  0  0  0  0  0  0
    9.3817    0.1877   24.8364 C   0  0  0  0  0  0  0  0  0  0  0  0
   10.5141   -0.2163   25.5461 C   0  0  0  0  0  0  0  0  0  0  0  0
   11.7920    0.1401   25.1102 C   0  0  0  0  0  0  0  0  0  0  0  0
   11.9462    1.0353   24.0508 C   0  0  0  0  0  0  0  0  0  0  0  0
   13.6765    1.4971   23.3873 Br  0  0  0  0  0  0  0  0  0  0  0  0
   10.8085    1.5827   23.4534 C   0  0  0  0  0  0  0  0  0  0  0  0
    9.5323    1.1167   23.7971 C   0  0  0  0  0  0  0  0  0  0  0  0
    8.6593    1.4514   23.2438 H   0  0  0  0  0  0  0  0  0  0  0  0
   10.9247    2.3303   22.6758 H   0  0  0  0  0  0  0  0  0  0  0  0
   12.6669   -0.2825   25.5843 H   0  0  0  0  0  0  0  0  0  0  0  0
   10.3942   -0.8447   26.4168 H   0  0  0  0  0  0  0  0  0  0  0  0
    7.9989   -0.7003   26.2175 H   0  0  0  0  0  0  0  0  0  0  0  0
    7.2344    0.2555   24.9428 H   0  0  0  0  0  0  0  0  0  0  0  0
    7.8570   -1.4061   22.8406 C   0  0  0  0  0  0  0  0  0  0  0  0
    6.9367   -0.7314   22.2257 N   0  0  0  0  0  0  0  0  0  0  0  0
    7.3928   -0.6891   20.9220 C   0  0  0  0  0  0  0  0  0  0  0  0
    6.6561   -0.0092   19.8929 C   0  0  0  0  0  0  0  0  0  0  0  0
    5.4420    0.6396   20.1455 C   0  0  0  0  0  0  0  0  0  0  0  0
    4.8275    1.2883   19.0839 C   0  0  0  0  0  0  0  0  0  0  0  0
    5.4396    1.2784   17.8261 C   0  0  0  0  0  0  0  0  0  0  0  0
    6.6027    0.6402   17.5889 N   0  0  0  0  0  0  0  0  0  0  0  0
    7.1989    0.0113   18.6118 C   0  0  0  0  0  0  0  0  0  0  0  0
    8.1482   -0.4891   18.4355 H   0  0  0  0  0  0  0  0  0  0  0  0
    4.9560    1.8158   17.0189 H   0  0  0  0  0  0  0  0  0  0  0  0
    3.8916    1.8217   19.2228 H   0  0  0  0  0  0  0  0  0  0  0  0
    5.0006    0.6595   21.1438 H   0  0  0  0  0  0  0  0  0  0  0  0
    8.5329   -1.2954   20.7029 N   0  0  0  0  0  0  0  0  0  0  0  0
    8.8446   -1.7521   21.9335 N   0  0  0  0  0  0  0  0  0  0  0  0
   10.0862   -2.4544   22.2578 C   0  0  0  0  0  0  0  0  0  0  0  0
   10.7190   -2.5328   21.3734 H   0  0  0  0  0  0  0  0  0  0  0  0
   10.6452   -1.9124   23.0217 H   0  0  0  0  0  0  0  0  0  0  0  0
    9.8597   -3.4586   22.6172 H   0  0  0  0  0  0  0  0  0  0  0  0
    8.6908   -2.4134   24.5076 H   0  0  0  0  0  0  0  0  0  0  0  0
    6.3843   -3.3420   24.1729 H   0  0  0  0  0  0  0  0  0  0  0  0
    6.6093   -2.6938   25.8084 H   0  0  0  0  0  0  0  0  0  0  0  0
    5.7023   -1.7584   24.6044 H   0  0  0  0  0  0  0  0  0  0  0  0
  1  2  1  0
  2  3  1  0
  3  4  1  0
  4  5  2  0
  5  6  1  0
  6  7  2  0
  7  8  1  0
  7  9  1  0
  9 10  2  0
 10 11  1  0
  9 12  1  0
  6 13  1  0
  5 14  1  0
  3 15  1  0
  3 16  1  0
  2 17  1  0
 17 18  2  0
 18 19  1  0
 19 20  1  0
 20 21  2  0
 21 22  1  0
 22 23  2  0
 23 24  1  0
 24 25  2  0
 25 26  1  0
 23 27  1  0
 22 28  1  0
 21 29  1  0
 19 30  2  0
 30 31  1  0
 31 32  1  0
 32 33  1  0
 32 34  1  0
 32 35  1  0
  2 36  1  0
  1 37  1  0
  1 38  1  0
  1 39  1  0
 10  4  1  0
 31 17  1  0
 25 20  1  0
M  END
>  <cnnaffinity>  (1) 
-5.98782

>  <filename>  (1) 
CC(Cc1ccc(Br)cc1)c1nc(-c2cccnc2)nn1C

$$$$
