
     RDKit          3D

 49 52  0  0  0  0  0  0  0  0999 V2000
    7.9561    1.5211   24.1050 C   0  0  0  0  0  0  0  0  0  0  0  0
    7.7323    1.3320   22.5981 C   0  0  0  0  0  0  0  0  0  0  0  0
    8.7917    2.0991   21.7374 C   0  0  0  0  0  0  0  0  0  0  0  0
   10.1844    1.5548   21.8762 C   0  0  0  0  0  0  0  0  0  0  0  0
   10.7855    0.4276   21.3724 C   0  0  0  0  0  0  0  0  0  0  0  0
   12.0365    0.2412   21.9043 N   0  0  0  0  0  0  0  0  0  0  0  0
   12.2075    1.2419   22.7261 C   0  0  0  0  0  0  0  0  0  0  0  0
   11.1250    2.0717   22.7445 N   0  0  0  0  0  0  0  0  0  0  0  0
   10.9836    2.8421   23.3778 H   0  0  0  0  0  0  0  0  0  0  0  0
   13.0846    1.4248   23.3348 H   0  0  0  0  0  0  0  0  0  0  0  0
   10.3557   -0.2930   20.6913 H   0  0  0  0  0  0  0  0  0  0  0  0
    8.7739    3.1594   22.0242 H   0  0  0  0  0  0  0  0  0  0  0  0
    8.4882    2.0579   20.6865 H   0  0  0  0  0  0  0  0  0  0  0  0
    7.6849   -0.1322   22.2095 C   0  0  0  0  0  0  0  0  0  0  0  0
    8.2056   -1.1503   22.8799 N   0  0  0  0  0  0  0  0  0  0  0  0
    8.2373   -2.1528   21.9673 C   0  0  0  0  0  0  0  0  0  0  0  0
    8.8169   -3.5125   22.1887 C   0  0  0  0  0  0  0  0  0  0  0  0
    7.9772   -4.4748   23.0521 C   0  0  0  0  0  0  0  0  0  0  0  0
    7.5626   -3.9681   24.4427 C   0  0  0  0  0  0  0  0  0  0  0  0
    6.3009   -4.7742   24.8200 C   0  0  0  0  0  0  0  0  0  0  0  0
    5.7083   -5.3135   23.4944 C   0  0  0  0  0  0  0  0  0  0  0  0
    6.6396   -4.8133   22.3769 C   0  0  0  0  0  0  0  0  0  0  0  0
    6.2292   -3.9023   21.9196 H   0  0  0  0  0  0  0  0  0  0  0  0
    6.7645   -5.5477   21.5711 H   0  0  0  0  0  0  0  0  0  0  0  0
    5.6702   -6.4093   23.5128 H   0  0  0  0  0  0  0  0  0  0  0  0
    4.6857   -4.9605   23.3253 H   0  0  0  0  0  0  0  0  0  0  0  0
    5.5856   -4.1397   25.3550 H   0  0  0  0  0  0  0  0  0  0  0  0
    6.5523   -5.6098   25.4840 H   0  0  0  0  0  0  0  0  0  0  0  0
    8.3644   -4.0794   25.1840 H   0  0  0  0  0  0  0  0  0  0  0  0
    7.3204   -2.9000   24.3876 H   0  0  0  0  0  0  0  0  0  0  0  0
    8.5648   -5.4012   23.1774 H   0  0  0  0  0  0  0  0  0  0  0  0
    8.8734   -3.9289   21.1787 H   0  0  0  0  0  0  0  0  0  0  0  0
    9.8272   -3.3860   22.5926 H   0  0  0  0  0  0  0  0  0  0  0  0
    7.7493   -1.8354   20.7851 N   0  0  0  0  0  0  0  0  0  0  0  0
    7.3344   -0.5574   20.9562 N   0  0  0  0  0  0  0  0  0  0  0  0
    6.6276    0.0789   19.9104 C   0  0  0  0  0  0  0  0  0  0  0  0
    5.4188    0.7386   20.1426 C   0  0  0  0  0  0  0  0  0  0  0  0
    4.8022    1.3592   19.0526 C   0  0  0  0  0  0  0  0  0  0  0  0
    5.4136    1.3089   17.7949 C   0  0  0  0  0  0  0  0  0  0  0  0
    6.5550    0.6372   17.5638 N   0  0  0  0  0  0  0  0  0  0  0  0
    7.1283    0.0169   18.5984 C   0  0  0  0  0  0  0  0  0  0  0  0
    8.0192   -0.5692   18.3930 H   0  0  0  0  0  0  0  0  0  0  0  0
    4.9702    1.8142   16.9388 H   0  0  0  0  0  0  0  0  0  0  0  0
    3.8557    1.8718   19.1694 H   0  0  0  0  0  0  0  0  0  0  0  0
    4.9592    0.7180   21.1329 H   0  0  0  0  0  0  0  0  0  0  0  0
    6.7509    1.7571   22.3497 H   0  0  0  0  0  0  0  0  0  0  0  0
    7.9478    2.5845   24.3692 H   0  0  0  0  0  0  0  0  0  0  0  0
    8.9141    1.1054   24.4345 H   0  0  0  0  0  0  0  0  0  0  0  0
    7.1666    1.0298   24.6821 H   0  0  0  0  0  0  0  0  0  0  0  0
  1  2  1  0
  2  3  1  0
  3  4  1  0
  4  5  2  0
  5  6  1  0
  6  7  2  0
  7  8  1  0
  8  9  1  0
  7 10  1  0
  5 11  1  0
  3 12  1  0
  3 13  1  0
  2 14  1  0
 14 15  2  0
 15 16  1  0
 16 17  1  0
 17 18  1  0
 18 19  1  0
 19 20  1  0
 20 21  1  0
 21 22  1  0
 22 23  1  0
 22 24  1  0
 21 25  1  0
 21 26  1  0
 20 27  1  0
 20 28  1  0
 19 29  1  0
 19 30  1  0
 18 31  1  0
 17 32  1  0
 17 33  1  0
 16 34  2  0
 34 35  1  0
 35 36  1  0
 36 37  2  0
 37 38  1  0
 38 39  2  0
 39 40  1  0
 40 41  2  0
 41 42  1  0
 39 43  1  0
 38 44  1  0
 37 45  1  0
  2 46  1  0
  1 47  1  0
  1 48  1  0
  1 49  1  0
  8  4  1  0
 35 14  1  0
 41 36  1  0
 22 18  1  0
M  END
>  <cnnaffinity>  (1) 
-6.19448

>  <filename>  (1) 
CC(Cc1cnc[nH]1)c1nc(CC2CCCC2)nn1-c1cccnc1

$$$$
