
     RDKit          3D

 42 44  0  0  0  0  0  0  0  0999 V2000
    9.1752    1.5550   25.0545 C   0  0  0  0  0  0  0  0  0  0  0  0
    9.9503    0.2831   24.7224 C   0  0  0  0  0  0  0  0  0  0  0  0
   11.1678    0.1474   25.6239 C   0  0  0  0  0  0  0  0  0  0  0  0
   10.8719    0.2042   26.6754 H   0  0  0  0  0  0  0  0  0  0  0  0
   11.6570   -0.8101   25.4448 H   0  0  0  0  0  0  0  0  0  0  0  0
   11.8849    0.9420   25.4041 H   0  0  0  0  0  0  0  0  0  0  0  0
   10.4186    0.3076   23.3692 O   0  0  0  0  0  0  0  0  0  0  0  0
   10.3768   -0.9940   22.7373 C   0  0  0  0  0  0  0  0  0  0  0  0
    9.0894   -1.1884   21.9751 C   0  0  0  0  0  0  0  0  0  0  0  0
    8.8272   -0.5082   20.8864 N   0  0  0  0  0  0  0  0  0  0  0  0
    7.5674   -0.8815   20.5904 N   0  0  0  0  0  0  0  0  0  0  0  0
    6.8164   -0.1704   19.6467 C   0  0  0  0  0  0  0  0  0  0  0  0
    5.5166    0.2667   19.9237 C   0  0  0  0  0  0  0  0  0  0  0  0
    4.8640    1.0426   18.9620 C   0  0  0  0  0  0  0  0  0  0  0  0
    5.5019    1.3511   17.7563 C   0  0  0  0  0  0  0  0  0  0  0  0
    6.7515    0.9337   17.4883 N   0  0  0  0  0  0  0  0  0  0  0  0
    7.4016    0.2169   18.4258 C   0  0  0  0  0  0  0  0  0  0  0  0
    8.4237   -0.0828   18.2118 H   0  0  0  0  0  0  0  0  0  0  0  0
    4.9839    1.9691   17.0266 H   0  0  0  0  0  0  0  0  0  0  0  0
    3.8720    1.4362   19.1390 H   0  0  0  0  0  0  0  0  0  0  0  0
    5.0481    0.0504   20.8823 H   0  0  0  0  0  0  0  0  0  0  0  0
    7.1538   -1.8773   21.4801 C   0  0  0  0  0  0  0  0  0  0  0  0
    5.8444   -2.6292   21.3557 C   0  0  0  0  0  0  0  0  0  0  0  0
    5.7649   -3.9655   22.0872 C   0  0  0  0  0  0  0  0  0  0  0  0
    5.7411   -4.0216   23.4851 C   0  0  0  0  0  0  0  0  0  0  0  0
    5.6166   -5.2734   24.0945 C   0  0  0  0  0  0  0  0  0  0  0  0
    5.4882   -6.4232   23.3088 C   0  0  0  0  0  0  0  0  0  0  0  0
    5.5264   -6.3684   21.9698 N   0  0  0  0  0  0  0  0  0  0  0  0
    5.6804   -5.1762   21.3682 C   0  0  0  0  0  0  0  0  0  0  0  0
    5.7520   -5.1332   19.4554 Br  0  0  0  0  0  0  0  0  0  0  0  0
    5.3751   -7.3930   23.7905 H   0  0  0  0  0  0  0  0  0  0  0  0
    5.5992   -5.3642   25.1744 H   0  0  0  0  0  0  0  0  0  0  0  0
    5.8112   -3.1024   24.0706 H   0  0  0  0  0  0  0  0  0  0  0  0
    5.0443   -1.9916   21.7131 H   0  0  0  0  0  0  0  0  0  0  0  0
    5.6700   -2.7813   20.2861 H   0  0  0  0  0  0  0  0  0  0  0  0
    8.0871   -2.0749   22.3689 N   0  0  0  0  0  0  0  0  0  0  0  0
   10.4730   -1.7897   23.4812 H   0  0  0  0  0  0  0  0  0  0  0  0
   11.2153   -1.0928   22.0448 H   0  0  0  0  0  0  0  0  0  0  0  0
    9.2810   -0.5696   24.8801 H   0  0  0  0  0  0  0  0  0  0  0  0
    8.3167    1.6652   24.3841 H   0  0  0  0  0  0  0  0  0  0  0  0
    9.8136    2.4380   24.9622 H   0  0  0  0  0  0  0  0  0  0  0  0
    8.8003    1.4951   26.0804 H   0  0  0  0  0  0  0  0  0  0  0  0
  1  2  1  0
  2  3  1  0
  3  4  1  0
  3  5  1  0
  3  6  1  0
  2  7  1  0
  7  8  1  0
  8  9  1  0
  9 10  2  0
 10 11  1  0
 11 12  1  0
 12 13  2  0
 13 14  1  0
 14 15  2  0
 15 16  1  0
 16 17  2  0
 17 18  1  0
 15 19  1  0
 14 20  1  0
 13 21  1  0
 11 22  1  0
 22 23  1  0
 23 24  1  0
 24 25  2  0
 25 26  1  0
 26 27  2  0
 27 28  1  0
 28 29  2  0
 29 30  1  0
 27 31  1  0
 26 32  1  0
 25 33  1  0
 23 34  1  0
 23 35  1  0
 22 36  2  0
  8 37  1  0
  8 38  1  0
  2 39  1  0
  1 40  1  0
  1 41  1  0
  1 42  1  0
 36  9  1  0
 17 12  1  0
 29 24  1  0
M  END
>  <cnnaffinity>  (1) 
-5.60088

>  <filename>  (1) 
CC(C)OCc1nc(Cc2cccnc2Br)n(-c2cccnc2)n1

$$$$
