
     RDKit          3D

 49 52  0  0  0  0  0  0  0  0999 V2000
   10.9586    0.3985   21.3139 C   0  0  0  0  0  0  0  0  0  0  0  0
    9.4825    0.6969   21.0300 C   0  0  0  0  0  0  0  0  0  0  0  0
    8.9859    2.0207   21.6956 C   0  0  0  0  0  0  0  0  0  0  0  0
    8.8828    1.9234   23.1956 C   0  0  0  0  0  0  0  0  0  0  0  0
    7.8239    1.4450   23.9327 C   0  0  0  0  0  0  0  0  0  0  0  0
    8.2228    1.3776   25.2219 N   0  0  0  0  0  0  0  0  0  0  0  0
    7.4705    0.8361   26.3227 C   0  0  0  0  0  0  0  0  0  0  0  0
    7.7359    1.3663   27.2363 H   0  0  0  0  0  0  0  0  0  0  0  0
    6.4111    0.9800   26.1143 H   0  0  0  0  0  0  0  0  0  0  0  0
    7.6652   -0.2342   26.4616 H   0  0  0  0  0  0  0  0  0  0  0  0
    9.4848    1.7843   25.3871 N   0  0  0  0  0  0  0  0  0  0  0  0
    9.8903    2.1135   24.1651 C   0  0  0  0  0  0  0  0  0  0  0  0
   10.9022    2.4659   24.0088 H   0  0  0  0  0  0  0  0  0  0  0  0
    6.8526    1.0627   23.6414 H   0  0  0  0  0  0  0  0  0  0  0  0
    8.0084    2.2823   21.2719 H   0  0  0  0  0  0  0  0  0  0  0  0
    9.6674    2.8319   21.4136 H   0  0  0  0  0  0  0  0  0  0  0  0
    8.6191   -0.4695   21.4223 C   0  0  0  0  0  0  0  0  0  0  0  0
    8.8552   -1.3308   22.3927 N   0  0  0  0  0  0  0  0  0  0  0  0
    7.6652   -1.9600   22.5545 C   0  0  0  0  0  0  0  0  0  0  0  0
    7.3904   -2.9155   23.6883 C   0  0  0  0  0  0  0  0  0  0  0  0
    6.1244   -2.5571   24.5089 C   0  0  0  0  0  0  0  0  0  0  0  0
    6.3297   -3.1780   25.9063 C   0  0  0  0  0  0  0  0  0  0  0  0
    7.8292   -3.5536   26.0139 C   0  0  0  0  0  0  0  0  0  0  0  0
    8.5116   -3.0163   24.7434 C   0  0  0  0  0  0  0  0  0  0  0  0
    9.3434   -3.6478   24.4123 H   0  0  0  0  0  0  0  0  0  0  0  0
    8.9326   -2.0196   24.9266 H   0  0  0  0  0  0  0  0  0  0  0  0
    7.9451   -4.6415   26.0854 H   0  0  0  0  0  0  0  0  0  0  0  0
    8.2921   -3.1542   26.9235 H   0  0  0  0  0  0  0  0  0  0  0  0
    6.0224   -2.4822   26.6959 H   0  0  0  0  0  0  0  0  0  0  0  0
    5.7022   -4.0659   26.0390 H   0  0  0  0  0  0  0  0  0  0  0  0
    6.0364   -1.4642   24.5856 H   0  0  0  0  0  0  0  0  0  0  0  0
    5.2118   -2.9049   24.0145 H   0  0  0  0  0  0  0  0  0  0  0  0
    7.2438   -3.8957   23.2211 H   0  0  0  0  0  0  0  0  0  0  0  0
    6.7370   -1.6146   21.6772 N   0  0  0  0  0  0  0  0  0  0  0  0
    7.3569   -0.6635   20.9323 N   0  0  0  0  0  0  0  0  0  0  0  0
    6.6523    0.0044   19.8953 C   0  0  0  0  0  0  0  0  0  0  0  0
    5.4356    0.6406   20.1601 C   0  0  0  0  0  0  0  0  0  0  0  0
    4.8110    1.3110   19.1055 C   0  0  0  0  0  0  0  0  0  0  0  0
    5.3988    1.2977   17.8334 C   0  0  0  0  0  0  0  0  0  0  0  0
    6.5550    0.6698   17.5691 N   0  0  0  0  0  0  0  0  0  0  0  0
    7.1632    0.0489   18.5859 C   0  0  0  0  0  0  0  0  0  0  0  0
    8.1123   -0.4334   18.3639 H   0  0  0  0  0  0  0  0  0  0  0  0
    4.9215    1.7897   16.9898 H   0  0  0  0  0  0  0  0  0  0  0  0
    3.8794    1.8406   19.2583 H   0  0  0  0  0  0  0  0  0  0  0  0
    5.0098    0.6061   21.1677 H   0  0  0  0  0  0  0  0  0  0  0  0
    9.3633    0.8148   19.9497 H   0  0  0  0  0  0  0  0  0  0  0  0
   11.5949    1.2381   21.0091 H   0  0  0  0  0  0  0  0  0  0  0  0
   11.1254    0.2027   22.3778 H   0  0  0  0  0  0  0  0  0  0  0  0
   11.2795   -0.4963   20.7706 H   0  0  0  0  0  0  0  0  0  0  0  0
  1  2  1  0
  2  3  1  0
  3  4  1  0
  4  5  2  0
  5  6  1  0
  6  7  1  0
  7  8  1  0
  7  9  1  0
  7 10  1  0
  6 11  1  0
 11 12  2  0
 12 13  1  0
  5 14  1  0
  3 15  1  0
  3 16  1  0
  2 17  1  0
 17 18  2  0
 18 19  1  0
 19 20  1  0
 20 21  1  0
 21 22  1  0
 22 23  1  0
 23 24  1  0
 24 25  1  0
 24 26  1  0
 23 27  1  0
 23 28  1  0
 22 29  1  0
 22 30  1  0
 21 31  1  0
 21 32  1  0
 20 33  1  0
 19 34  2  0
 34 35  1  0
 35 36  1  0
 36 37  2  0
 37 38  1  0
 38 39  2  0
 39 40  1  0
 40 41  2  0
 41 42  1  0
 39 43  1  0
 38 44  1  0
 37 45  1  0
  2 46  1  0
  1 47  1  0
  1 48  1  0
  1 49  1  0
 12  4  1  0
 35 17  1  0
 41 36  1  0
 24 20  1  0
M  END
>  <cnnaffinity>  (1) 
-6.15716

>  <filename>  (1) 
CC(Cc1cnn(C)c1)c1nc(C2CCCC2)nn1-c1cccnc1

$$$$
