
     RDKit          3D

 36 37  0  0  0  0  0  0  0  0999 V2000
    4.9377    1.7647   17.0132 H   0  0  0  0  0  0  0  0  0  0  0  0
    5.4196    1.2772   17.8626 C   0  0  0  0  0  0  0  0  0  0  0  0
    6.5826    0.6565   17.6246 N   0  0  0  0  0  0  0  0  0  0  0  0
    7.1934    0.0353   18.6364 C   0  0  0  0  0  0  0  0  0  0  0  0
    8.1351   -0.4507   18.3879 H   0  0  0  0  0  0  0  0  0  0  0  0
    6.6532    0.0141   19.9146 C   0  0  0  0  0  0  0  0  0  0  0  0
    7.4848   -0.9031   21.1600 S   0  0  0  0  0  0  0  0  0  0  0  0
    8.3801   -1.8454   20.5048 O   0  0  0  0  0  0  0  0  0  0  0  0
    6.4329   -1.3540   22.0582 O   0  0  0  0  0  0  0  0  0  0  0  0
    8.5862    0.3303   22.0734 C   0  0  0  0  0  0  0  0  0  0  0  0
    9.4738    1.0628   21.0562 C   0  0  0  0  0  0  0  0  0  0  0  0
   10.1705    1.7393   21.5750 H   0  0  0  0  0  0  0  0  0  0  0  0
   10.0623    0.3506   20.4725 H   0  0  0  0  0  0  0  0  0  0  0  0
    8.8657    1.6795   20.3869 H   0  0  0  0  0  0  0  0  0  0  0  0
    7.7152    1.3471   22.8269 C   0  0  0  0  0  0  0  0  0  0  0  0
    7.1616    1.9940   22.1356 H   0  0  0  0  0  0  0  0  0  0  0  0
    6.9962    0.8589   23.4919 H   0  0  0  0  0  0  0  0  0  0  0  0
    8.3520    2.0044   23.4367 H   0  0  0  0  0  0  0  0  0  0  0  0
    9.5158   -0.4729   23.0479 C   0  0  0  0  0  0  0  0  0  0  0  0
   10.1995    0.2503   23.5214 H   0  0  0  0  0  0  0  0  0  0  0  0
   10.1504   -1.1453   22.4569 H   0  0  0  0  0  0  0  0  0  0  0  0
    8.8319   -1.2609   24.1428 C   0  0  0  0  0  0  0  0  0  0  0  0
    8.4471   -0.6396   25.3424 C   0  0  0  0  0  0  0  0  0  0  0  0
    8.6574    0.4188   25.4895 H   0  0  0  0  0  0  0  0  0  0  0  0
    7.7841   -1.3607   26.3391 C   0  0  0  0  0  0  0  0  0  0  0  0
    7.4935   -0.8667   27.2615 H   0  0  0  0  0  0  0  0  0  0  0  0
    7.4953   -2.7156   26.1558 C   0  0  0  0  0  0  0  0  0  0  0  0
    6.9823   -3.2901   26.9204 H   0  0  0  0  0  0  0  0  0  0  0  0
    7.8854   -3.3309   24.9631 C   0  0  0  0  0  0  0  0  0  0  0  0
    7.5334   -5.0177   24.7218 Cl  0  0  0  0  0  0  0  0  0  0  0  0
    8.5577   -2.6258   23.9645 C   0  0  0  0  0  0  0  0  0  0  0  0
    8.8219   -3.1242   23.0342 H   0  0  0  0  0  0  0  0  0  0  0  0
    5.4407    0.6559   20.1832 C   0  0  0  0  0  0  0  0  0  0  0  0
    4.9866    0.6317   21.1777 H   0  0  0  0  0  0  0  0  0  0  0  0
    4.8178    1.3050   19.1236 C   0  0  0  0  0  0  0  0  0  0  0  0
    3.8854    1.8347   19.2631 H   0  0  0  0  0  0  0  0  0  0  0  0
  1  2  1  0
  2  3  2  0
  3  4  1  0
  4  5  1  0
  4  6  2  0
  6  7  1  0
  7  8  2  0
  7  9  2  0
  7 10  1  0
 10 11  1  0
 11 12  1  0
 11 13  1  0
 11 14  1  0
 10 15  1  0
 15 16  1  0
 15 17  1  0
 15 18  1  0
 10 19  1  0
 19 20  1  0
 19 21  1  0
 19 22  1  0
 22 23  2  0
 23 24  1  0
 23 25  1  0
 25 26  1  0
 25 27  2  0
 27 28  1  0
 27 29  1  0
 29 30  1  0
 29 31  2  0
 31 32  1  0
  6 33  1  0
 33 34  1  0
 33 35  2  0
 35 36  1  0
 35  2  1  0
 31 22  1  0
M  END
>  <cnnaffinity>  (1) 
-5.14132

>  <filename>  (1) 
CC(C)(Cc1cccc(Cl)c1)S(=O)(=O)c1cccnc1

$$$$
