
     RDKit          3D

 49 52  0  0  0  0  0  0  0  0999 V2000
   11.1703    4.6722   23.1756 C   0  0  0  0  0  0  0  0  0  0  0  0
   11.3276    3.1841   23.5617 C   0  0  0  0  0  0  0  0  0  0  0  0
   12.1961    2.4050   22.5619 C   0  0  0  0  0  0  0  0  0  0  0  0
   11.7990    2.4720   21.5414 H   0  0  0  0  0  0  0  0  0  0  0  0
   12.2896    1.3492   22.8531 H   0  0  0  0  0  0  0  0  0  0  0  0
   13.2082    2.8292   22.5510 H   0  0  0  0  0  0  0  0  0  0  0  0
    9.9855    2.5616   23.8559 C   0  0  0  0  0  0  0  0  0  0  0  0
    9.5363    2.4235   25.0853 N   0  0  0  0  0  0  0  0  0  0  0  0
    8.2615    1.9263   24.9747 C   0  0  0  0  0  0  0  0  0  0  0  0
    7.9361    1.7864   23.6609 C   0  0  0  0  0  0  0  0  0  0  0  0
    9.0358    2.1831   22.9310 N   0  0  0  0  0  0  0  0  0  0  0  0
    9.0917    2.0284   21.4771 C   0  0  0  0  0  0  0  0  0  0  0  0
    9.5285    0.6253   21.0076 C   0  0  0  0  0  0  0  0  0  0  0  0
    8.6326   -0.4903   21.4324 C   0  0  0  0  0  0  0  0  0  0  0  0
    8.8746   -1.3717   22.3764 N   0  0  0  0  0  0  0  0  0  0  0  0
    7.6815   -2.0176   22.5268 C   0  0  0  0  0  0  0  0  0  0  0  0
    7.4453   -3.0117   23.6026 C   0  0  0  0  0  0  0  0  0  0  0  0
    8.4577   -3.2829   24.5490 C   0  0  0  0  0  0  0  0  0  0  0  0
    8.2381   -4.2121   25.5672 C   0  0  0  0  0  0  0  0  0  0  0  0
    7.0120   -4.8783   25.6638 C   0  0  0  0  0  0  0  0  0  0  0  0
    5.9948   -4.5976   24.7441 C   0  0  0  0  0  0  0  0  0  0  0  0
    6.1993   -3.6660   23.7246 C   0  0  0  0  0  0  0  0  0  0  0  0
    5.3935   -3.4193   23.0332 H   0  0  0  0  0  0  0  0  0  0  0  0
    5.0371   -5.1034   24.8251 H   0  0  0  0  0  0  0  0  0  0  0  0
    6.8491   -5.6120   26.4505 H   0  0  0  0  0  0  0  0  0  0  0  0
    9.0242   -4.4156   26.2902 H   0  0  0  0  0  0  0  0  0  0  0  0
    9.4047   -2.7465   24.4922 H   0  0  0  0  0  0  0  0  0  0  0  0
    6.7447   -1.6211   21.6779 N   0  0  0  0  0  0  0  0  0  0  0  0
    7.3644   -0.6622   20.9506 N   0  0  0  0  0  0  0  0  0  0  0  0
    6.6667   -0.0073   19.8927 C   0  0  0  0  0  0  0  0  0  0  0  0
    5.4406    0.6160   20.1470 C   0  0  0  0  0  0  0  0  0  0  0  0
    4.8217    1.2991   19.0977 C   0  0  0  0  0  0  0  0  0  0  0  0
    5.4231    1.3008   17.8344 C   0  0  0  0  0  0  0  0  0  0  0  0
    6.5705    0.6569   17.5684 N   0  0  0  0  0  0  0  0  0  0  0  0
    7.1718    0.0159   18.5787 C   0  0  0  0  0  0  0  0  0  0  0  0
    8.0990   -0.5058   18.3372 H   0  0  0  0  0  0  0  0  0  0  0  0
    4.9600    1.8275   17.0038 H   0  0  0  0  0  0  0  0  0  0  0  0
    3.8890    1.8293   19.2509 H   0  0  0  0  0  0  0  0  0  0  0  0
    4.9958    0.5613   21.1431 H   0  0  0  0  0  0  0  0  0  0  0  0
    9.5861    0.6300   19.9167 H   0  0  0  0  0  0  0  0  0  0  0  0
   10.5257    0.4041   21.3912 H   0  0  0  0  0  0  0  0  0  0  0  0
    9.7494    2.7858   21.0494 H   0  0  0  0  0  0  0  0  0  0  0  0
    8.0926    2.2538   21.0899 H   0  0  0  0  0  0  0  0  0  0  0  0
    7.0571    1.4253   23.1523 H   0  0  0  0  0  0  0  0  0  0  0  0
    7.6680    1.6845   25.8463 H   0  0  0  0  0  0  0  0  0  0  0  0
   11.8363    3.1466   24.5321 H   0  0  0  0  0  0  0  0  0  0  0  0
   10.4912    4.8070   22.3301 H   0  0  0  0  0  0  0  0  0  0  0  0
   12.1381    5.1116   22.9018 H   0  0  0  0  0  0  0  0  0  0  0  0
   10.7446    5.2411   24.0120 H   0  0  0  0  0  0  0  0  0  0  0  0
  1  2  1  0
  2  3  1  0
  3  4  1  0
  3  5  1  0
  3  6  1  0
  2  7  1  0
  7  8  2  0
  8  9  1  0
  9 10  2  0
 10 11  1  0
 11 12  1  0
 12 13  1  0
 13 14  1  0
 14 15  2  0
 15 16  1  0
 16 17  1  0
 17 18  2  0
 18 19  1  0
 19 20  2  0
 20 21  1  0
 21 22  2  0
 22 23  1  0
 21 24  1  0
 20 25  1  0
 19 26  1  0
 18 27  1  0
 16 28  2  0
 28 29  1  0
 29 30  1  0
 30 31  2  0
 31 32  1  0
 32 33  2  0
 33 34  1  0
 34 35  2  0
 35 36  1  0
 33 37  1  0
 32 38  1  0
 31 39  1  0
 13 40  1  0
 13 41  1  0
 12 42  1  0
 12 43  1  0
 10 44  1  0
  9 45  1  0
  2 46  1  0
  1 47  1  0
  1 48  1  0
  1 49  1  0
 11  7  1  0
 29 14  1  0
 35 30  1  0
 22 17  1  0
M  END
>  <cnnaffinity>  (1) 
-6.24389

>  <filename>  (1) 
CC(C)c1nccn1CCc1nc(-c2ccccc2)nn1-c1cccnc1

$$$$
