
     RDKit          3D

 42 45  0  0  0  0  0  0  0  0999 V2000
   10.7348    0.2567   23.7168 C   0  0  0  0  0  0  0  0  0  0  0  0
   10.3278   -1.1317   23.1801 C   0  0  0  0  0  0  0  0  0  0  0  0
    9.0309   -1.0893   22.4007 C   0  0  0  0  0  0  0  0  0  0  0  0
    8.7342   -0.1721   21.5077 N   0  0  0  0  0  0  0  0  0  0  0  0
    7.5357   -0.5835   21.0521 N   0  0  0  0  0  0  0  0  0  0  0  0
    6.8547    0.0614   20.0191 C   0  0  0  0  0  0  0  0  0  0  0  0
    5.5491    0.5214   20.1899 C   0  0  0  0  0  0  0  0  0  0  0  0
    4.9236    1.1388   19.1042 C   0  0  0  0  0  0  0  0  0  0  0  0
    5.5971    1.2482   17.8815 C   0  0  0  0  0  0  0  0  0  0  0  0
    6.8575    0.8065   17.7191 N   0  0  0  0  0  0  0  0  0  0  0  0
    7.4832    0.2524   18.7774 C   0  0  0  0  0  0  0  0  0  0  0  0
    8.4999   -0.1021   18.6364 H   0  0  0  0  0  0  0  0  0  0  0  0
    5.0826    1.7102   17.0415 H   0  0  0  0  0  0  0  0  0  0  0  0
    3.9239    1.5432   19.2011 H   0  0  0  0  0  0  0  0  0  0  0  0
    5.0500    0.4190   21.1523 H   0  0  0  0  0  0  0  0  0  0  0  0
    7.1626   -1.7656   21.6869 C   0  0  0  0  0  0  0  0  0  0  0  0
    5.8945   -2.5347   21.3919 C   0  0  0  0  0  0  0  0  0  0  0  0
    5.7805   -3.9195   22.0243 C   0  0  0  0  0  0  0  0  0  0  0  0
    5.8154   -4.0661   23.4180 C   0  0  0  0  0  0  0  0  0  0  0  0
    5.5964   -5.3411   23.9479 C   0  0  0  0  0  0  0  0  0  0  0  0
    5.3690   -6.4234   23.0979 C   0  0  0  0  0  0  0  0  0  0  0  0
    5.3801   -6.2953   21.7661 N   0  0  0  0  0  0  0  0  0  0  0  0
    5.5906   -5.0770   21.2415 C   0  0  0  0  0  0  0  0  0  0  0  0
    5.7017   -4.9497   19.3465 Br  0  0  0  0  0  0  0  0  0  0  0  0
    5.1705   -7.4055   23.5204 H   0  0  0  0  0  0  0  0  0  0  0  0
    5.6006   -5.5135   25.0175 H   0  0  0  0  0  0  0  0  0  0  0  0
    6.0060   -3.2202   24.0760 H   0  0  0  0  0  0  0  0  0  0  0  0
    5.0765   -1.9327   21.7452 H   0  0  0  0  0  0  0  0  0  0  0  0
    5.7488   -2.5917   20.3114 H   0  0  0  0  0  0  0  0  0  0  0  0
    8.0869   -2.1015   22.5393 N   0  0  0  0  0  0  0  0  0  0  0  0
   11.3942   -1.7386   22.2537 C   0  0  0  0  0  0  0  0  0  0  0  0
   12.8798   -1.4062   22.3173 C   0  0  0  0  0  0  0  0  0  0  0  0
   12.0093   -0.8110   21.2240 C   0  0  0  0  0  0  0  0  0  0  0  0
   11.7450    0.2501   21.2895 H   0  0  0  0  0  0  0  0  0  0  0  0
   12.2242   -1.1668   20.2194 H   0  0  0  0  0  0  0  0  0  0  0  0
   13.2416   -0.7170   23.0866 H   0  0  0  0  0  0  0  0  0  0  0  0
   13.5824   -2.1967   22.0192 H   0  0  0  0  0  0  0  0  0  0  0  0
   11.1592   -2.7598   21.9418 H   0  0  0  0  0  0  0  0  0  0  0  0
   10.1990   -1.8043   24.0311 H   0  0  0  0  0  0  0  0  0  0  0  0
   11.7230    0.2108   24.1877 H   0  0  0  0  0  0  0  0  0  0  0  0
   10.0096    0.6054   24.4599 H   0  0  0  0  0  0  0  0  0  0  0  0
   10.7765    0.9896   22.9046 H   0  0  0  0  0  0  0  0  0  0  0  0
  1  2  1  0
  2  3  1  0
  3  4  2  0
  4  5  1  0
  5  6  1  0
  6  7  2  0
  7  8  1  0
  8  9  2  0
  9 10  1  0
 10 11  2  0
 11 12  1  0
  9 13  1  0
  8 14  1  0
  7 15  1  0
  5 16  1  0
 16 17  1  0
 17 18  1  0
 18 19  2  0
 19 20  1  0
 20 21  2  0
 21 22  1  0
 22 23  2  0
 23 24  1  0
 21 25  1  0
 20 26  1  0
 19 27  1  0
 17 28  1  0
 17 29  1  0
 16 30  2  0
  2 31  1  0
 31 32  1  0
 32 33  1  0
 33 34  1  0
 33 35  1  0
 32 36  1  0
 32 37  1  0
 31 38  1  0
  2 39  1  0
  1 40  1  0
  1 41  1  0
  1 42  1  0
 30  3  1  0
 33 31  1  0
 11  6  1  0
 23 18  1  0
M  END
>  <cnnaffinity>  (1) 
-6.07437

>  <filename>  (1) 
CC(c1nc(Cc2cccnc2Br)n(-c2cccnc2)n1)C1CC1

$$$$
