
     RDKit          3D

 45 47  0  0  0  0  0  0  0  0999 V2000
    6.4602   -4.3924   25.9781 C   0  0  0  0  0  0  0  0  0  0  0  0
    7.1687   -3.0360   26.0575 C   0  0  0  0  0  0  0  0  0  0  0  0
    8.6457   -3.1994   26.4469 C   0  0  0  0  0  0  0  0  0  0  0  0
    9.1623   -3.8988   25.7785 H   0  0  0  0  0  0  0  0  0  0  0  0
    9.1612   -2.2353   26.3879 H   0  0  0  0  0  0  0  0  0  0  0  0
    8.7456   -3.5891   27.4654 H   0  0  0  0  0  0  0  0  0  0  0  0
    6.4248   -2.1269   27.0325 C   0  0  0  0  0  0  0  0  0  0  0  0
    5.4305   -1.8956   26.6388 H   0  0  0  0  0  0  0  0  0  0  0  0
    6.9615   -1.1827   27.1612 H   0  0  0  0  0  0  0  0  0  0  0  0
    6.2970   -2.6182   27.9973 H   0  0  0  0  0  0  0  0  0  0  0  0
    7.0752   -2.3217   24.8205 O   0  0  0  0  0  0  0  0  0  0  0  0
    7.3904   -3.0019   23.6093 C   0  0  0  0  0  0  0  0  0  0  0  0
    7.6066   -2.0188   22.5090 C   0  0  0  0  0  0  0  0  0  0  0  0
    6.6557   -1.6054   21.6947 N   0  0  0  0  0  0  0  0  0  0  0  0
    7.2972   -0.6929   20.9282 N   0  0  0  0  0  0  0  0  0  0  0  0
    6.6274   -0.0151   19.8797 C   0  0  0  0  0  0  0  0  0  0  0  0
    5.4201    0.6337   20.1454 C   0  0  0  0  0  0  0  0  0  0  0  0
    4.7982    1.3175   19.0968 C   0  0  0  0  0  0  0  0  0  0  0  0
    5.3902    1.3009   17.8262 C   0  0  0  0  0  0  0  0  0  0  0  0
    6.5374    0.6588   17.5616 N   0  0  0  0  0  0  0  0  0  0  0  0
    7.1428    0.0286   18.5718 C   0  0  0  0  0  0  0  0  0  0  0  0
    8.0932   -0.4464   18.3349 H   0  0  0  0  0  0  0  0  0  0  0  0
    4.9340    1.8180   16.9845 H   0  0  0  0  0  0  0  0  0  0  0  0
    3.8691    1.8571   19.2464 H   0  0  0  0  0  0  0  0  0  0  0  0
    5.0094    0.5862   21.1556 H   0  0  0  0  0  0  0  0  0  0  0  0
    8.5873   -0.5816   21.3594 C   0  0  0  0  0  0  0  0  0  0  0  0
    9.6371    0.3139   20.8021 C   0  0  0  0  0  0  0  0  0  0  0  0
   10.3371    1.1448   21.8631 C   0  0  0  0  0  0  0  0  0  0  0  0
   11.5998    0.7912   22.3594 C   0  0  0  0  0  0  0  0  0  0  0  0
   12.2152    1.3997   23.3791 N   0  0  0  0  0  0  0  0  0  0  0  0
   11.5801    2.4165   23.9724 C   0  0  0  0  0  0  0  0  0  0  0  0
   10.3259    2.8752   23.5740 C   0  0  0  0  0  0  0  0  0  0  0  0
    9.7075    2.2217   22.5056 C   0  0  0  0  0  0  0  0  0  0  0  0
    8.1103    2.7161   22.0260 Cl  0  0  0  0  0  0  0  0  0  0  0  0
    9.8378    3.6937   24.0916 H   0  0  0  0  0  0  0  0  0  0  0  0
   12.1078    2.8794   24.8045 H   0  0  0  0  0  0  0  0  0  0  0  0
   12.1368   -0.0505   21.9160 H   0  0  0  0  0  0  0  0  0  0  0  0
   10.3390   -0.3746   20.3245 H   0  0  0  0  0  0  0  0  0  0  0  0
    9.1859    0.9652   20.0544 H   0  0  0  0  0  0  0  0  0  0  0  0
    8.8219   -1.4464   22.3163 N   0  0  0  0  0  0  0  0  0  0  0  0
    8.3270   -3.5724   23.6986 H   0  0  0  0  0  0  0  0  0  0  0  0
    6.5668   -3.6631   23.3083 H   0  0  0  0  0  0  0  0  0  0  0  0
    5.4370   -4.2457   25.6159 H   0  0  0  0  0  0  0  0  0  0  0  0
    6.9776   -5.0770   25.2973 H   0  0  0  0  0  0  0  0  0  0  0  0
    6.4185   -4.8666   26.9642 H   0  0  0  0  0  0  0  0  0  0  0  0
  1  2  1  0
  2  3  1  0
  3  4  1  0
  3  5  1  0
  3  6  1  0
  2  7  1  0
  7  8  1  0
  7  9  1  0
  7 10  1  0
  2 11  1  0
 11 12  1  0
 12 13  1  0
 13 14  2  0
 14 15  1  0
 15 16  1  0
 16 17  2  0
 17 18  1  0
 18 19  2  0
 19 20  1  0
 20 21  2  0
 21 22  1  0
 19 23  1  0
 18 24  1  0
 17 25  1  0
 15 26  1  0
 26 27  1  0
 27 28  1  0
 28 29  2  0
 29 30  1  0
 30 31  2  0
 31 32  1  0
 32 33  2  0
 33 34  1  0
 32 35  1  0
 31 36  1  0
 29 37  1  0
 27 38  1  0
 27 39  1  0
 26 40  2  0
 12 41  1  0
 12 42  1  0
  1 43  1  0
  1 44  1  0
  1 45  1  0
 40 13  1  0
 21 16  1  0
 33 28  1  0
M  END
>  <cnnaffinity>  (1) 
-6.17288

>  <filename>  (1) 
CC(C)(C)OCc1nc(Cc2cnccc2Cl)n(-c2cccnc2)n1

$$$$
