
     RDKit          3D

 42 44  0  0  0  0  0  0  0  0999 V2000
    5.7993   -4.8696   23.5048 C   0  0  0  0  0  0  0  0  0  0  0  0
    7.2813   -4.6048   23.7159 C   0  0  0  0  0  0  0  0  0  0  0  0
    8.0081   -5.7114   24.4709 C   0  0  0  0  0  0  0  0  0  0  0  0
    9.0405   -5.4105   24.6755 H   0  0  0  0  0  0  0  0  0  0  0  0
    7.5184   -5.9611   25.4202 H   0  0  0  0  0  0  0  0  0  0  0  0
    8.0630   -6.5940   23.8275 H   0  0  0  0  0  0  0  0  0  0  0  0
    7.8510   -4.5468   22.4051 O   0  0  0  0  0  0  0  0  0  0  0  0
    8.7409   -3.4866   22.1056 C   0  0  0  0  0  0  0  0  0  0  0  0
    8.1428   -2.1147   21.9642 C   0  0  0  0  0  0  0  0  0  0  0  0
    7.6991   -1.7526   20.7791 N   0  0  0  0  0  0  0  0  0  0  0  0
    7.2488   -0.4992   20.9806 N   0  0  0  0  0  0  0  0  0  0  0  0
    6.5895    0.1452   19.9093 C   0  0  0  0  0  0  0  0  0  0  0  0
    5.3670    0.7843   20.1115 C   0  0  0  0  0  0  0  0  0  0  0  0
    4.7667    1.3852   19.0033 C   0  0  0  0  0  0  0  0  0  0  0  0
    5.4030    1.3222   17.7583 C   0  0  0  0  0  0  0  0  0  0  0  0
    6.5591    0.6600   17.5537 N   0  0  0  0  0  0  0  0  0  0  0  0
    7.1209    0.0648   18.6086 C   0  0  0  0  0  0  0  0  0  0  0  0
    8.0253   -0.5176   18.4352 H   0  0  0  0  0  0  0  0  0  0  0  0
    4.9737    1.8148   16.8890 H   0  0  0  0  0  0  0  0  0  0  0  0
    3.8115    1.8886   19.0956 H   0  0  0  0  0  0  0  0  0  0  0  0
    4.8856    0.7437   21.0905 H   0  0  0  0  0  0  0  0  0  0  0  0
    7.5082   -0.1265   22.2750 C   0  0  0  0  0  0  0  0  0  0  0  0
    7.3272    1.2406   22.8922 C   0  0  0  0  0  0  0  0  0  0  0  0
    8.6184    1.7541   23.5282 C   0  0  0  0  0  0  0  0  0  0  0  0
    8.8810    1.6892   24.9063 C   0  0  0  0  0  0  0  0  0  0  0  0
   10.0526    2.0016   25.4710 N   0  0  0  0  0  0  0  0  0  0  0  0
   11.0381    2.4233   24.6710 C   0  0  0  0  0  0  0  0  0  0  0  0
   10.8962    2.5869   23.2992 C   0  0  0  0  0  0  0  0  0  0  0  0
    9.6822    2.2076   22.7365 C   0  0  0  0  0  0  0  0  0  0  0  0
    9.5346    2.2340   21.0196 Cl  0  0  0  0  0  0  0  0  0  0  0  0
   11.7047    2.9670   22.6877 H   0  0  0  0  0  0  0  0  0  0  0  0
   11.9913    2.6394   25.1477 H   0  0  0  0  0  0  0  0  0  0  0  0
    8.0957    1.3518   25.5859 H   0  0  0  0  0  0  0  0  0  0  0  0
    7.0045    1.9527   22.1248 H   0  0  0  0  0  0  0  0  0  0  0  0
    6.5248    1.1906   23.6394 H   0  0  0  0  0  0  0  0  0  0  0  0
    8.0565   -1.1497   22.9186 N   0  0  0  0  0  0  0  0  0  0  0  0
    9.5807   -3.4383   22.8139 H   0  0  0  0  0  0  0  0  0  0  0  0
    9.0944   -3.7149   21.0992 H   0  0  0  0  0  0  0  0  0  0  0  0
    7.4041   -3.6463   24.2509 H   0  0  0  0  0  0  0  0  0  0  0  0
    5.3644   -4.0707   22.8962 H   0  0  0  0  0  0  0  0  0  0  0  0
    5.2537   -4.9163   24.4532 H   0  0  0  0  0  0  0  0  0  0  0  0
    5.6654   -5.8133   22.9673 H   0  0  0  0  0  0  0  0  0  0  0  0
  1  2  1  0
  2  3  1  0
  3  4  1  0
  3  5  1  0
  3  6  1  0
  2  7  1  0
  7  8  1  0
  8  9  1  0
  9 10  2  0
 10 11  1  0
 11 12  1  0
 12 13  2  0
 13 14  1  0
 14 15  2  0
 15 16  1  0
 16 17  2  0
 17 18  1  0
 15 19  1  0
 14 20  1  0
 13 21  1  0
 11 22  1  0
 22 23  1  0
 23 24  1  0
 24 25  2  0
 25 26  1  0
 26 27  2  0
 27 28  1  0
 28 29  2  0
 29 30  1  0
 28 31  1  0
 27 32  1  0
 25 33  1  0
 23 34  1  0
 23 35  1  0
 22 36  2  0
  8 37  1  0
  8 38  1  0
  2 39  1  0
  1 40  1  0
  1 41  1  0
  1 42  1  0
 36  9  1  0
 17 12  1  0
 29 24  1  0
M  END
>  <cnnaffinity>  (1) 
-5.95106

>  <filename>  (1) 
CC(C)OCc1nc(Cc2cnccc2Cl)n(-c2cccnc2)n1

$$$$
