
     RDKit          3D

 44 46  0  0  0  0  0  0  0  0999 V2000
    6.6049   -2.3185   24.8084 C   0  0  0  0  0  0  0  0  0  0  0  0
    7.4111   -2.9594   23.6574 C   0  0  0  0  0  0  0  0  0  0  0  0
    6.7501   -4.2554   23.1607 C   0  0  0  0  0  0  0  0  0  0  0  0
    6.6291   -4.9659   23.9853 H   0  0  0  0  0  0  0  0  0  0  0  0
    5.7600   -4.0507   22.7413 H   0  0  0  0  0  0  0  0  0  0  0  0
    7.3459   -4.7453   22.3844 H   0  0  0  0  0  0  0  0  0  0  0  0
    7.6521   -1.9725   22.5444 C   0  0  0  0  0  0  0  0  0  0  0  0
    6.7223   -1.5883   21.6940 N   0  0  0  0  0  0  0  0  0  0  0  0
    7.3627   -0.6495   20.9476 N   0  0  0  0  0  0  0  0  0  0  0  0
    6.6772    0.0082   19.8914 C   0  0  0  0  0  0  0  0  0  0  0  0
    5.4547    0.6375   20.1528 C   0  0  0  0  0  0  0  0  0  0  0  0
    4.8171    1.3068   19.1061 C   0  0  0  0  0  0  0  0  0  0  0  0
    5.4152    1.2970   17.8368 C   0  0  0  0  0  0  0  0  0  0  0  0
    6.5630    0.6572   17.5636 N   0  0  0  0  0  0  0  0  0  0  0  0
    7.1781    0.0311   18.5743 C   0  0  0  0  0  0  0  0  0  0  0  0
    8.1063   -0.4881   18.3318 H   0  0  0  0  0  0  0  0  0  0  0  0
    4.9463    1.8230   17.0109 H   0  0  0  0  0  0  0  0  0  0  0  0
    3.8780    1.8303   19.2622 H   0  0  0  0  0  0  0  0  0  0  0  0
    5.0322    0.5807   21.1576 H   0  0  0  0  0  0  0  0  0  0  0  0
    8.6318   -0.4927   21.4224 C   0  0  0  0  0  0  0  0  0  0  0  0
    9.5286    0.5879   20.9174 C   0  0  0  0  0  0  0  0  0  0  0  0
    9.0060    2.0051   21.2271 C   0  0  0  0  0  0  0  0  0  0  0  0
    8.7677    2.2584   22.7319 C   0  0  0  0  0  0  0  0  0  0  0  0
   10.0456    2.1025   23.5242 C   0  0  0  0  0  0  0  0  0  0  0  0
   11.1057    2.9950   23.3214 C   0  0  0  0  0  0  0  0  0  0  0  0
   12.3424    2.7383   23.9114 C   0  0  0  0  0  0  0  0  0  0  0  0
   12.5710    1.6966   24.7239 N   0  0  0  0  0  0  0  0  0  0  0  0
   11.5462    0.8692   24.9576 C   0  0  0  0  0  0  0  0  0  0  0  0
   10.2868    1.0151   24.3693 C   0  0  0  0  0  0  0  0  0  0  0  0
    9.5185    0.2685   24.5354 H   0  0  0  0  0  0  0  0  0  0  0  0
   11.7355    0.0566   25.6543 H   0  0  0  0  0  0  0  0  0  0  0  0
   13.1877    3.4007   23.7339 H   0  0  0  0  0  0  0  0  0  0  0  0
   10.9715    3.8697   22.6930 H   0  0  0  0  0  0  0  0  0  0  0  0
    7.9951    1.5725   23.1006 H   0  0  0  0  0  0  0  0  0  0  0  0
    8.3540    3.2642   22.8679 H   0  0  0  0  0  0  0  0  0  0  0  0
    9.7497    2.7237   20.8691 H   0  0  0  0  0  0  0  0  0  0  0  0
    8.0912    2.1929   20.6544 H   0  0  0  0  0  0  0  0  0  0  0  0
   10.5268    0.4477   21.3437 H   0  0  0  0  0  0  0  0  0  0  0  0
    9.6188    0.4535   19.8378 H   0  0  0  0  0  0  0  0  0  0  0  0
    8.8516   -1.3458   22.4048 N   0  0  0  0  0  0  0  0  0  0  0  0
    8.4128   -3.1887   24.0323 H   0  0  0  0  0  0  0  0  0  0  0  0
    5.6099   -2.0058   24.4777 H   0  0  0  0  0  0  0  0  0  0  0  0
    7.1078   -1.4345   25.2154 H   0  0  0  0  0  0  0  0  0  0  0  0
    6.4728   -3.0275   25.6312 H   0  0  0  0  0  0  0  0  0  0  0  0
  1  2  1  0
  2  3  1  0
  3  4  1  0
  3  5  1  0
  3  6  1  0
  2  7  1  0
  7  8  2  0
  8  9  1  0
  9 10  1  0
 10 11  2  0
 11 12  1  0
 12 13  2  0
 13 14  1  0
 14 15  2  0
 15 16  1  0
 13 17  1  0
 12 18  1  0
 11 19  1  0
  9 20  1  0
 20 21  1  0
 21 22  1  0
 22 23  1  0
 23 24  1  0
 24 25  2  0
 25 26  1  0
 26 27  2  0
 27 28  1  0
 28 29  2  0
 29 30  1  0
 28 31  1  0
 26 32  1  0
 25 33  1  0
 23 34  1  0
 23 35  1  0
 22 36  1  0
 22 37  1  0
 21 38  1  0
 21 39  1  0
 20 40  2  0
  2 41  1  0
  1 42  1  0
  1 43  1  0
  1 44  1  0
 40  7  1  0
 15 10  1  0
 29 24  1  0
M  END
>  <cnnaffinity>  (1) 
-5.99461

>  <filename>  (1) 
CC(C)c1nc(CCCc2ccncc2)n(-c2cccnc2)n1

$$$$
