
     RDKit          3D

 38 40  0  0  0  0  0  0  0  0999 V2000
    7.6159   -2.4221   24.9995 C   0  0  0  0  0  0  0  0  0  0  0  0
    7.4155   -3.0451   23.6035 C   0  0  0  0  0  0  0  0  0  0  0  0
    8.3212   -4.2747   23.4105 C   0  0  0  0  0  0  0  0  0  0  0  0
    8.1723   -4.7272   22.4248 H   0  0  0  0  0  0  0  0  0  0  0  0
    8.0992   -5.0324   24.1699 H   0  0  0  0  0  0  0  0  0  0  0  0
    9.3790   -3.9987   23.5009 H   0  0  0  0  0  0  0  0  0  0  0  0
    7.6355   -2.0292   22.5183 C   0  0  0  0  0  0  0  0  0  0  0  0
    6.6827   -1.6043   21.7164 N   0  0  0  0  0  0  0  0  0  0  0  0
    7.3221   -0.6994   20.9283 N   0  0  0  0  0  0  0  0  0  0  0  0
    6.6452    0.0003   19.8974 C   0  0  0  0  0  0  0  0  0  0  0  0
    5.4347    0.6467   20.1640 C   0  0  0  0  0  0  0  0  0  0  0  0
    4.8112    1.3141   19.1087 C   0  0  0  0  0  0  0  0  0  0  0  0
    5.3995    1.2956   17.8380 C   0  0  0  0  0  0  0  0  0  0  0  0
    6.5581    0.6714   17.5759 N   0  0  0  0  0  0  0  0  0  0  0  0
    7.1650    0.0496   18.5907 C   0  0  0  0  0  0  0  0  0  0  0  0
    8.1145   -0.4325   18.3664 H   0  0  0  0  0  0  0  0  0  0  0  0
    4.9174    1.7837   16.9948 H   0  0  0  0  0  0  0  0  0  0  0  0
    3.8796    1.8419   19.2615 H   0  0  0  0  0  0  0  0  0  0  0  0
    5.0147    0.6095   21.1719 H   0  0  0  0  0  0  0  0  0  0  0  0
    8.6125   -0.5978   21.3459 C   0  0  0  0  0  0  0  0  0  0  0  0
    9.6261    0.3410   20.7839 C   0  0  0  0  0  0  0  0  0  0  0  0
   10.3567    1.1220   21.8555 C   0  0  0  0  0  0  0  0  0  0  0  0
   11.6053    0.6918   22.3049 C   0  0  0  0  0  0  0  0  0  0  0  0
   12.2192    1.3546   23.3690 C   0  0  0  0  0  0  0  0  0  0  0  0
   11.5417    2.4204   23.9549 C   0  0  0  0  0  0  0  0  0  0  0  0
   10.3317    2.8412   23.5710 N   0  0  0  0  0  0  0  0  0  0  0  0
    9.7764    2.2024   22.5555 C   0  0  0  0  0  0  0  0  0  0  0  0
    8.1889    2.7370   22.1069 Cl  0  0  0  0  0  0  0  0  0  0  0  0
   11.9799    2.9742   24.7771 H   0  0  0  0  0  0  0  0  0  0  0  0
   13.1936    1.0545   23.7270 H   0  0  0  0  0  0  0  0  0  0  0  0
   12.0803   -0.1667   21.8285 H   0  0  0  0  0  0  0  0  0  0  0  0
    9.1645    1.0321   20.0755 H   0  0  0  0  0  0  0  0  0  0  0  0
   10.3186   -0.3135   20.2518 H   0  0  0  0  0  0  0  0  0  0  0  0
    8.8514   -1.4561   22.3133 N   0  0  0  0  0  0  0  0  0  0  0  0
    6.3708   -3.3506   23.5018 H   0  0  0  0  0  0  0  0  0  0  0  0
    7.3906   -3.1562   25.7809 H   0  0  0  0  0  0  0  0  0  0  0  0
    8.6526   -2.0879   25.1305 H   0  0  0  0  0  0  0  0  0  0  0  0
    6.9604   -1.5575   25.1486 H   0  0  0  0  0  0  0  0  0  0  0  0
  1  2  1  0
  2  3  1  0
  3  4  1  0
  3  5  1  0
  3  6  1  0
  2  7  1  0
  7  8  2  0
  8  9  1  0
  9 10  1  0
 10 11  2  0
 11 12  1  0
 12 13  2  0
 13 14  1  0
 14 15  2  0
 15 16  1  0
 13 17  1  0
 12 18  1  0
 11 19  1  0
  9 20  1  0
 20 21  1  0
 21 22  1  0
 22 23  2  0
 23 24  1  0
 24 25  2  0
 25 26  1  0
 26 27  2  0
 27 28  1  0
 25 29  1  0
 24 30  1  0
 23 31  1  0
 21 32  1  0
 21 33  1  0
 20 34  2  0
  2 35  1  0
  1 36  1  0
  1 37  1  0
  1 38  1  0
 34  7  1  0
 15 10  1  0
 27 22  1  0
M  END
>  <cnnaffinity>  (1) 
-5.99777

>  <filename>  (1) 
CC(C)c1nc(Cc2cccnc2Cl)n(-c2cccnc2)n1

$$$$
