
     RDKit          3D

 42 45  0  0  0  0  0  0  0  0999 V2000
    4.9124    1.8138   16.9692 H   0  0  0  0  0  0  0  0  0  0  0  0
    5.3766    1.3058   17.8163 C   0  0  0  0  0  0  0  0  0  0  0  0
    6.5395    0.6857   17.5615 N   0  0  0  0  0  0  0  0  0  0  0  0
    7.1502    0.0767   18.5822 C   0  0  0  0  0  0  0  0  0  0  0  0
    8.1014   -0.3901   18.3346 H   0  0  0  0  0  0  0  0  0  0  0  0
    6.6603    0.0279   19.9088 C   0  0  0  0  0  0  0  0  0  0  0  0
    7.4144   -0.6756   20.9648 C   0  0  0  0  0  0  0  0  0  0  0  0
    8.3282   -1.7032   20.9048 C   0  0  0  0  0  0  0  0  0  0  0  0
    8.7392   -2.1120   20.0017 H   0  0  0  0  0  0  0  0  0  0  0  0
    8.7822   -2.1202   22.1254 N   0  0  0  0  0  0  0  0  0  0  0  0
    8.1729   -1.3095   22.9492 C   0  0  0  0  0  0  0  0  0  0  0  0
    8.2502   -0.9628   24.6363 S   0  0  0  0  0  0  0  0  0  0  0  0
    7.1335    0.3729   24.3190 C   0  0  0  0  0  0  0  0  0  0  0  0
    6.6720    1.2674   25.3882 C   0  0  0  0  0  0  0  0  0  0  0  0
    5.7778    2.3152   25.0970 C   0  0  0  0  0  0  0  0  0  0  0  0
    5.4346    2.4688   24.0756 H   0  0  0  0  0  0  0  0  0  0  0  0
    5.3372    3.1550   26.1152 C   0  0  0  0  0  0  0  0  0  0  0  0
    4.6481    3.9580   25.8760 H   0  0  0  0  0  0  0  0  0  0  0  0
    5.7634    2.9922   27.4467 C   0  0  0  0  0  0  0  0  0  0  0  0
    5.2984    3.9014   28.6005 C   0  0  0  0  0  0  0  0  0  0  0  0
    4.3208    5.0021   28.1343 C   0  0  0  0  0  0  0  0  0  0  0  0
    4.0218    5.6183   28.9899 H   0  0  0  0  0  0  0  0  0  0  0  0
    3.4092    4.5762   27.6941 H   0  0  0  0  0  0  0  0  0  0  0  0
    4.7800    5.6649   27.3886 H   0  0  0  0  0  0  0  0  0  0  0  0
    6.5255    4.5997   29.2430 C   0  0  0  0  0  0  0  0  0  0  0  0
    6.2065    5.2799   30.0431 H   0  0  0  0  0  0  0  0  0  0  0  0
    7.0788    5.1869   28.4985 H   0  0  0  0  0  0  0  0  0  0  0  0
    7.2250    3.8770   29.6803 H   0  0  0  0  0  0  0  0  0  0  0  0
    4.5741    3.0513   29.6769 C   0  0  0  0  0  0  0  0  0  0  0  0
    3.7161    2.5187   29.2462 H   0  0  0  0  0  0  0  0  0  0  0  0
    4.2037    3.6903   30.4887 H   0  0  0  0  0  0  0  0  0  0  0  0
    5.2386    2.3005   30.1219 H   0  0  0  0  0  0  0  0  0  0  0  0
    6.6600    1.9401   27.7148 C   0  0  0  0  0  0  0  0  0  0  0  0
    7.0207    1.7689   28.7244 H   0  0  0  0  0  0  0  0  0  0  0  0
    7.1109    1.0917   26.7128 C   0  0  0  0  0  0  0  0  0  0  0  0
    7.8055    0.2949   26.9709 H   0  0  0  0  0  0  0  0  0  0  0  0
    6.7522    0.5205   23.0869 N   0  0  0  0  0  0  0  0  0  0  0  0
    7.3338   -0.4292   22.3327 N   0  0  0  0  0  0  0  0  0  0  0  0
    5.4293    0.6668   20.1449 C   0  0  0  0  0  0  0  0  0  0  0  0
    5.0166    0.6554   21.1514 H   0  0  0  0  0  0  0  0  0  0  0  0
    4.7884    1.3155   19.0846 C   0  0  0  0  0  0  0  0  0  0  0  0
    3.8571    1.8497   19.2291 H   0  0  0  0  0  0  0  0  0  0  0  0
  1  2  1  0
  2  3  2  0
  3  4  1  0
  4  5  1  0
  4  6  2  0
  6  7  1  0
  7  8  2  0
  8  9  1  0
  8 10  1  0
 10 11  2  0
 11 12  1  0
 12 13  1  0
 13 14  1  0
 14 15  2  0
 15 16  1  0
 15 17  1  0
 17 18  1  0
 17 19  2  0
 19 20  1  0
 20 21  1  0
 21 22  1  0
 21 23  1  0
 21 24  1  0
 20 25  1  0
 25 26  1  0
 25 27  1  0
 25 28  1  0
 20 29  1  0
 29 30  1  0
 29 31  1  0
 29 32  1  0
 19 33  1  0
 33 34  1  0
 33 35  2  0
 35 36  1  0
 13 37  2  0
 37 38  1  0
  6 39  1  0
 39 40  1  0
 39 41  2  0
 41 42  1  0
 41  2  1  0
 38  7  1  0
 38 11  1  0
 35 14  1  0
M  END
>  <cnnaffinity>  (1) 
-5.36346

>  <filename>  (1) 
CC(C)(C)c1ccc(-c2nn3c(-c4cccnc4)cnc3s2)cc1

$$$$
