
     RDKit          3D

 41 43  0  0  0  0  0  0  0  0999 V2000
    6.6255   -4.2115   23.2156 C   0  0  0  0  0  0  0  0  0  0  0  0
    7.3865   -2.9457   23.6534 C   0  0  0  0  0  0  0  0  0  0  0  0
    6.6634   -2.2444   24.8306 C   0  0  0  0  0  0  0  0  0  0  0  0
    7.2376   -1.3903   25.2036 H   0  0  0  0  0  0  0  0  0  0  0  0
    6.5294   -2.9481   25.6612 H   0  0  0  0  0  0  0  0  0  0  0  0
    5.6718   -1.8810   24.5346 H   0  0  0  0  0  0  0  0  0  0  0  0
    7.6547   -1.9852   22.5161 C   0  0  0  0  0  0  0  0  0  0  0  0
    6.7230   -1.6007   21.6667 N   0  0  0  0  0  0  0  0  0  0  0  0
    7.3619   -0.6733   20.9085 N   0  0  0  0  0  0  0  0  0  0  0  0
    6.6646   -0.0177   19.8606 C   0  0  0  0  0  0  0  0  0  0  0  0
    5.4580    0.6267   20.1451 C   0  0  0  0  0  0  0  0  0  0  0  0
    4.8243    1.3071   19.1020 C   0  0  0  0  0  0  0  0  0  0  0  0
    5.4007    1.3019   17.8250 C   0  0  0  0  0  0  0  0  0  0  0  0
    6.5335    0.6421   17.5363 N   0  0  0  0  0  0  0  0  0  0  0  0
    7.1428   -0.0041   18.5365 C   0  0  0  0  0  0  0  0  0  0  0  0
    8.0607   -0.5339   18.2859 H   0  0  0  0  0  0  0  0  0  0  0  0
    4.9365    1.8433   17.0026 H   0  0  0  0  0  0  0  0  0  0  0  0
    3.8952    1.8384   19.2692 H   0  0  0  0  0  0  0  0  0  0  0  0
    5.0583    0.5876   21.1608 H   0  0  0  0  0  0  0  0  0  0  0  0
    8.6304   -0.5054   21.3797 C   0  0  0  0  0  0  0  0  0  0  0  0
    9.5237    0.5958   20.8991 C   0  0  0  0  0  0  0  0  0  0  0  0
    9.1763    2.0028   21.4587 C   0  0  0  0  0  0  0  0  0  0  0  0
    9.3604    2.0007   22.9635 C   0  0  0  0  0  0  0  0  0  0  0  0
   10.6607    2.0158   23.4901 C   0  0  0  0  0  0  0  0  0  0  0  0
   10.8790    1.7306   24.8376 C   0  0  0  0  0  0  0  0  0  0  0  0
    9.7838    1.3981   25.6321 C   0  0  0  0  0  0  0  0  0  0  0  0
    8.5248    1.4310   25.1808 N   0  0  0  0  0  0  0  0  0  0  0  0
    8.3398    1.7336   23.9026 C   0  0  0  0  0  0  0  0  0  0  0  0
    6.6746    1.7277   23.3929 Cl  0  0  0  0  0  0  0  0  0  0  0  0
    9.9026    1.0576   26.6543 H   0  0  0  0  0  0  0  0  0  0  0  0
   11.8788    1.7314   25.2440 H   0  0  0  0  0  0  0  0  0  0  0  0
   11.4982    2.1860   22.8124 H   0  0  0  0  0  0  0  0  0  0  0  0
    9.8535    2.7331   21.0045 H   0  0  0  0  0  0  0  0  0  0  0  0
    8.1615    2.3032   21.1726 H   0  0  0  0  0  0  0  0  0  0  0  0
    9.5199    0.6036   19.8092 H   0  0  0  0  0  0  0  0  0  0  0  0
   10.5413    0.3383   21.1999 H   0  0  0  0  0  0  0  0  0  0  0  0
    8.8598   -1.3644   22.3580 N   0  0  0  0  0  0  0  0  0  0  0  0
    8.3851   -3.2291   23.9986 H   0  0  0  0  0  0  0  0  0  0  0  0
    6.5032   -4.8898   24.0693 H   0  0  0  0  0  0  0  0  0  0  0  0
    7.1572   -4.7566   22.4280 H   0  0  0  0  0  0  0  0  0  0  0  0
    5.6285   -3.9560   22.8386 H   0  0  0  0  0  0  0  0  0  0  0  0
  1  2  1  0
  2  3  1  0
  3  4  1  0
  3  5  1  0
  3  6  1  0
  2  7  1  0
  7  8  2  0
  8  9  1  0
  9 10  1  0
 10 11  2  0
 11 12  1  0
 12 13  2  0
 13 14  1  0
 14 15  2  0
 15 16  1  0
 13 17  1  0
 12 18  1  0
 11 19  1  0
  9 20  1  0
 20 21  1  0
 21 22  1  0
 22 23  1  0
 23 24  2  0
 24 25  1  0
 25 26  2  0
 26 27  1  0
 27 28  2  0
 28 29  1  0
 26 30  1  0
 25 31  1  0
 24 32  1  0
 22 33  1  0
 22 34  1  0
 21 35  1  0
 21 36  1  0
 20 37  2  0
  2 38  1  0
  1 39  1  0
  1 40  1  0
  1 41  1  0
 37  7  1  0
 15 10  1  0
 28 23  1  0
M  END
>  <cnnaffinity>  (1) 
-5.9757

>  <filename>  (1) 
CC(C)c1nc(CCc2cccnc2Cl)n(-c2cccnc2)n1

$$$$
