
     RDKit          3D

 44 47  0  0  0  0  0  0  0  0999 V2000
    9.3505    1.6644   23.1464 C   0  0  0  0  0  0  0  0  0  0  0  0
    8.1211    1.3294   22.2881 C   0  0  0  0  0  0  0  0  0  0  0  0
    6.8366    1.8702   22.9339 C   0  0  0  0  0  0  0  0  0  0  0  0
    6.1879    3.0179   22.4636 C   0  0  0  0  0  0  0  0  0  0  0  0
    6.6881    3.6417   21.3866 F   0  0  0  0  0  0  0  0  0  0  0  0
    5.0321    3.5474   23.0272 C   0  0  0  0  0  0  0  0  0  0  0  0
    4.4934    2.9161   24.1495 C   0  0  0  0  0  0  0  0  0  0  0  0
    5.1125    1.7868   24.6862 C   0  0  0  0  0  0  0  0  0  0  0  0
    6.2660    1.3010   24.0761 C   0  0  0  0  0  0  0  0  0  0  0  0
    6.8560    0.2317   24.6388 F   0  0  0  0  0  0  0  0  0  0  0  0
    4.7410    1.2729   25.5640 H   0  0  0  0  0  0  0  0  0  0  0  0
    3.5959    3.3123   24.6109 H   0  0  0  0  0  0  0  0  0  0  0  0
    4.5905    4.4288   22.5742 H   0  0  0  0  0  0  0  0  0  0  0  0
    8.0442   -0.1438   22.0070 C   0  0  0  0  0  0  0  0  0  0  0  0
    8.5822   -1.1240   22.7019 N   0  0  0  0  0  0  0  0  0  0  0  0
    8.1896   -2.2239   22.0270 C   0  0  0  0  0  0  0  0  0  0  0  0
    8.6357   -3.5711   22.4602 C   0  0  0  0  0  0  0  0  0  0  0  0
    7.7042   -4.7284   22.0607 C   0  0  0  0  0  0  0  0  0  0  0  0
    7.9986   -5.8005   23.1122 C   0  0  0  0  0  0  0  0  0  0  0  0
    8.6456   -5.1525   24.1968 O   0  0  0  0  0  0  0  0  0  0  0  0
    8.8083   -3.7638   23.9709 C   0  0  0  0  0  0  0  0  0  0  0  0
    9.8142   -3.4886   24.3176 H   0  0  0  0  0  0  0  0  0  0  0  0
    8.0729   -3.1708   24.5370 H   0  0  0  0  0  0  0  0  0  0  0  0
    8.6650   -6.5862   22.7277 H   0  0  0  0  0  0  0  0  0  0  0  0
    7.0801   -6.2861   23.4703 H   0  0  0  0  0  0  0  0  0  0  0  0
    6.6645   -4.3822   22.1326 H   0  0  0  0  0  0  0  0  0  0  0  0
    7.8660   -5.0838   21.0403 H   0  0  0  0  0  0  0  0  0  0  0  0
    9.6300   -3.6192   22.0385 H   0  0  0  0  0  0  0  0  0  0  0  0
    7.5095   -1.9973   20.9178 N   0  0  0  0  0  0  0  0  0  0  0  0
    7.3688   -0.6499   20.9339 N   0  0  0  0  0  0  0  0  0  0  0  0
    6.6512    0.0115   19.9008 C   0  0  0  0  0  0  0  0  0  0  0  0
    5.4357    0.6476   20.1595 C   0  0  0  0  0  0  0  0  0  0  0  0
    4.8047    1.3083   19.1031 C   0  0  0  0  0  0  0  0  0  0  0  0
    5.4017    1.2937   17.8383 C   0  0  0  0  0  0  0  0  0  0  0  0
    6.5656    0.6700   17.5844 N   0  0  0  0  0  0  0  0  0  0  0  0
    7.1701    0.0394   18.5956 C   0  0  0  0  0  0  0  0  0  0  0  0
    8.1206   -0.4409   18.3762 H   0  0  0  0  0  0  0  0  0  0  0  0
    4.9221    1.7844   16.9952 H   0  0  0  0  0  0  0  0  0  0  0  0
    3.8747    1.8433   19.2567 H   0  0  0  0  0  0  0  0  0  0  0  0
    5.0077    0.6163   21.1628 H   0  0  0  0  0  0  0  0  0  0  0  0
    8.2219    1.8258   21.3160 H   0  0  0  0  0  0  0  0  0  0  0  0
    9.4302    2.7468   23.2888 H   0  0  0  0  0  0  0  0  0  0  0  0
   10.2601    1.3031   22.6547 H   0  0  0  0  0  0  0  0  0  0  0  0
    9.2677    1.1819   24.1263 H   0  0  0  0  0  0  0  0  0  0  0  0
  1  2  1  0
  2  3  1  0
  3  4  2  0
  4  5  1  0
  4  6  1  0
  6  7  2  0
  7  8  1  0
  8  9  2  0
  9 10  1  0
  8 11  1  0
  7 12  1  0
  6 13  1  0
  2 14  1  0
 14 15  2  0
 15 16  1  0
 16 17  1  0
 17 18  1  0
 18 19  1  0
 19 20  1  0
 20 21  1  0
 21 22  1  0
 21 23  1  0
 19 24  1  0
 19 25  1  0
 18 26  1  0
 18 27  1  0
 17 28  1  0
 16 29  2  0
 29 30  1  0
 30 31  1  0
 31 32  2  0
 32 33  1  0
 33 34  2  0
 34 35  1  0
 35 36  2  0
 36 37  1  0
 34 38  1  0
 33 39  1  0
 32 40  1  0
  2 41  1  0
  1 42  1  0
  1 43  1  0
  1 44  1  0
  9  3  1  0
 30 14  1  0
 36 31  1  0
 21 17  1  0
M  END
>  <cnnaffinity>  (1) 
-6.0718

>  <filename>  (1) 
CC(c1c(F)cccc1F)c1nc(C2CCOC2)nn1-c1cccnc1

$$$$
