
     RDKit          3D

 32 33  0  0  0  0  0  0  0  0999 V2000
    4.9081    1.7767   17.0000 H   0  0  0  0  0  0  0  0  0  0  0  0
    5.4007    1.2937   17.8389 C   0  0  0  0  0  0  0  0  0  0  0  0
    6.5654    0.6816   17.5680 N   0  0  0  0  0  0  0  0  0  0  0  0
    7.1776    0.0732   18.5920 C   0  0  0  0  0  0  0  0  0  0  0  0
    8.1197   -0.4303   18.3753 H   0  0  0  0  0  0  0  0  0  0  0  0
    6.6582    0.0118   19.9003 C   0  0  0  0  0  0  0  0  0  0  0  0
    7.3866   -0.6994   20.9785 C   0  0  0  0  0  0  0  0  0  0  0  0
    6.7169   -1.5343   21.8926 C   0  0  0  0  0  0  0  0  0  0  0  0
    5.6433   -1.6782   21.7777 H   0  0  0  0  0  0  0  0  0  0  0  0
    7.3262   -2.2035   22.8767 N   0  0  0  0  0  0  0  0  0  0  0  0
    8.6531   -2.0392   22.9886 C   0  0  0  0  0  0  0  0  0  0  0  0
    9.1391   -2.5697   23.8029 H   0  0  0  0  0  0  0  0  0  0  0  0
    9.4357   -1.2457   22.1322 C   0  0  0  0  0  0  0  0  0  0  0  0
   10.9195   -1.0580   22.3229 C   0  0  0  0  0  0  0  0  0  0  0  0
   11.3290   -1.8916   22.9080 H   0  0  0  0  0  0  0  0  0  0  0  0
   11.4068   -1.1075   21.3381 H   0  0  0  0  0  0  0  0  0  0  0  0
   11.2801    0.2776   23.0076 C   0  0  0  0  0  0  0  0  0  0  0  0
   10.8059    1.0879   22.4331 H   0  0  0  0  0  0  0  0  0  0  0  0
   12.7887    0.5059   22.9783 C   0  0  0  0  0  0  0  0  0  0  0  0
   13.0491    1.4673   23.4331 H   0  0  0  0  0  0  0  0  0  0  0  0
   13.3102   -0.2825   23.5324 H   0  0  0  0  0  0  0  0  0  0  0  0
   13.1702    0.5037   21.9532 H   0  0  0  0  0  0  0  0  0  0  0  0
   10.7476    0.3452   24.4395 C   0  0  0  0  0  0  0  0  0  0  0  0
   11.0401    1.2833   24.9228 H   0  0  0  0  0  0  0  0  0  0  0  0
   11.1517   -0.4788   25.0426 H   0  0  0  0  0  0  0  0  0  0  0  0
    9.6550    0.2831   24.4737 H   0  0  0  0  0  0  0  0  0  0  0  0
    8.7685   -0.5633   21.1149 C   0  0  0  0  0  0  0  0  0  0  0  0
    9.3175    0.1007   20.4421 H   0  0  0  0  0  0  0  0  0  0  0  0
    5.4373    0.6472   20.1526 C   0  0  0  0  0  0  0  0  0  0  0  0
    5.0120    0.6325   21.1592 H   0  0  0  0  0  0  0  0  0  0  0  0
    4.8026    1.3157   19.1056 C   0  0  0  0  0  0  0  0  0  0  0  0
    3.8693    1.8468   19.2633 H   0  0  0  0  0  0  0  0  0  0  0  0
  1  2  1  0
  2  3  2  0
  3  4  1  0
  4  5  1  0
  4  6  2  0
  6  7  1  0
  7  8  2  0
  8  9  1  0
  8 10  1  0
 10 11  2  0
 11 12  1  0
 11 13  1  0
 13 14  1  0
 14 15  1  0
 14 16  1  0
 14 17  1  0
 17 18  1  0
 17 19  1  0
 19 20  1  0
 19 21  1  0
 19 22  1  0
 17 23  1  0
 23 24  1  0
 23 25  1  0
 23 26  1  0
 13 27  2  0
 27 28  1  0
  6 29  1  0
 29 30  1  0
 29 31  2  0
 31 32  1  0
 31  2  1  0
 27  7  1  0
M  END
>  <cnnaffinity>  (1) 
-5.25862

>  <filename>  (1) 
CC(C)Cc1cncc(-c2cccnc2)c1

$$$$
