
     RDKit          3D

 44 46  0  0  0  0  0  0  0  0999 V2000
    8.4615   -4.1203   23.6109 C   0  0  0  0  0  0  0  0  0  0  0  0
    7.4346   -2.9761   23.6537 C   0  0  0  0  0  0  0  0  0  0  0  0
    7.4752   -2.2594   25.0257 C   0  0  0  0  0  0  0  0  0  0  0  0
    6.7223   -1.4666   25.1014 H   0  0  0  0  0  0  0  0  0  0  0  0
    7.2882   -2.9753   25.8342 H   0  0  0  0  0  0  0  0  0  0  0  0
    8.4596   -1.8024   25.1982 H   0  0  0  0  0  0  0  0  0  0  0  0
    7.6608   -2.0074   22.5233 C   0  0  0  0  0  0  0  0  0  0  0  0
    6.6963   -1.5552   21.7479 N   0  0  0  0  0  0  0  0  0  0  0  0
    7.3371   -0.6463   20.9640 N   0  0  0  0  0  0  0  0  0  0  0  0
    6.6552    0.0114   19.8992 C   0  0  0  0  0  0  0  0  0  0  0  0
    5.4353    0.6463   20.1489 C   0  0  0  0  0  0  0  0  0  0  0  0
    4.8081    1.3170   19.0959 C   0  0  0  0  0  0  0  0  0  0  0  0
    5.4080    1.3059   17.8301 C   0  0  0  0  0  0  0  0  0  0  0  0
    6.5593    0.6677   17.5717 N   0  0  0  0  0  0  0  0  0  0  0  0
    7.1653    0.0400   18.5867 C   0  0  0  0  0  0  0  0  0  0  0  0
    8.0977   -0.4703   18.3451 H   0  0  0  0  0  0  0  0  0  0  0  0
    4.9445    1.8224   16.9922 H   0  0  0  0  0  0  0  0  0  0  0  0
    3.8712    1.8446   19.2430 H   0  0  0  0  0  0  0  0  0  0  0  0
    5.0112    0.5959   21.1528 H   0  0  0  0  0  0  0  0  0  0  0  0
    8.6321   -0.5430   21.3770 C   0  0  0  0  0  0  0  0  0  0  0  0
    9.5200    0.5724   20.9362 C   0  0  0  0  0  0  0  0  0  0  0  0
    8.9882    1.9810   21.2934 C   0  0  0  0  0  0  0  0  0  0  0  0
    8.7027    2.1811   22.8066 C   0  0  0  0  0  0  0  0  0  0  0  0
    9.9429    1.9676   23.6407 C   0  0  0  0  0  0  0  0  0  0  0  0
   11.0282    2.8460   23.4763 C   0  0  0  0  0  0  0  0  0  0  0  0
   12.2725    2.5017   23.9987 C   0  0  0  0  0  0  0  0  0  0  0  0
   12.3542    1.3369   24.7669 C   0  0  0  0  0  0  0  0  0  0  0  0
   11.1927    0.5954   24.9864 C   0  0  0  0  0  0  0  0  0  0  0  0
   10.0063    0.8869   24.4350 N   0  0  0  0  0  0  0  0  0  0  0  0
   11.2032   -0.3021   25.5954 H   0  0  0  0  0  0  0  0  0  0  0  0
   13.2837    0.9876   25.1960 H   0  0  0  0  0  0  0  0  0  0  0  0
   13.1513    3.1256   23.8255 H   0  0  0  0  0  0  0  0  0  0  0  0
   10.8703    3.7632   22.9111 H   0  0  0  0  0  0  0  0  0  0  0  0
    7.9338    1.4805   23.1469 H   0  0  0  0  0  0  0  0  0  0  0  0
    8.3198    3.1986   22.9783 H   0  0  0  0  0  0  0  0  0  0  0  0
    8.0809    2.1943   20.7136 H   0  0  0  0  0  0  0  0  0  0  0  0
    9.7501    2.7072   20.9800 H   0  0  0  0  0  0  0  0  0  0  0  0
    9.6258    0.4920   19.8520 H   0  0  0  0  0  0  0  0  0  0  0  0
   10.5058    0.3992   21.3784 H   0  0  0  0  0  0  0  0  0  0  0  0
    8.8867   -1.4611   22.2839 N   0  0  0  0  0  0  0  0  0  0  0  0
    6.4247   -3.3709   23.4945 H   0  0  0  0  0  0  0  0  0  0  0  0
    9.4731   -3.7248   23.7617 H   0  0  0  0  0  0  0  0  0  0  0  0
    8.2592   -4.8552   24.3980 H   0  0  0  0  0  0  0  0  0  0  0  0
    8.4489   -4.6371   22.6460 H   0  0  0  0  0  0  0  0  0  0  0  0
  1  2  1  0
  2  3  1  0
  3  4  1  0
  3  5  1  0
  3  6  1  0
  2  7  1  0
  7  8  2  0
  8  9  1  0
  9 10  1  0
 10 11  2  0
 11 12  1  0
 12 13  2  0
 13 14  1  0
 14 15  2  0
 15 16  1  0
 13 17  1  0
 12 18  1  0
 11 19  1  0
  9 20  1  0
 20 21  1  0
 21 22  1  0
 22 23  1  0
 23 24  1  0
 24 25  2  0
 25 26  1  0
 26 27  2  0
 27 28  1  0
 28 29  2  0
 28 30  1  0
 27 31  1  0
 26 32  1  0
 25 33  1  0
 23 34  1  0
 23 35  1  0
 22 36  1  0
 22 37  1  0
 21 38  1  0
 21 39  1  0
 20 40  2  0
  2 41  1  0
  1 42  1  0
  1 43  1  0
  1 44  1  0
 40  7  1  0
 15 10  1  0
 29 24  1  0
M  END
>  <cnnaffinity>  (1) 
-6.02799

>  <filename>  (1) 
CC(C)c1nc(CCCc2ccccn2)n(-c2cccnc2)n1

$$$$
