
     RDKit          3D

 38 40  0  0  0  0  0  0  0  0999 V2000
    6.6944   -4.1409   23.2734 C   0  0  0  0  0  0  0  0  0  0  0  0
    7.4099   -2.8644   23.7379 C   0  0  0  0  0  0  0  0  0  0  0  0
    6.6218   -2.1439   24.8502 C   0  0  0  0  0  0  0  0  0  0  0  0
    6.4577   -2.8077   25.7054 H   0  0  0  0  0  0  0  0  0  0  0  0
    5.6430   -1.8235   24.4786 H   0  0  0  0  0  0  0  0  0  0  0  0
    7.1551   -1.2560   25.2050 H   0  0  0  0  0  0  0  0  0  0  0  0
    7.6764   -1.9279   22.5870 C   0  0  0  0  0  0  0  0  0  0  0  0
    6.7411   -1.5828   21.7201 N   0  0  0  0  0  0  0  0  0  0  0  0
    7.3693   -0.6657   20.9391 N   0  0  0  0  0  0  0  0  0  0  0  0
    6.6601    0.0038   19.9025 C   0  0  0  0  0  0  0  0  0  0  0  0
    5.4411    0.6411   20.1645 C   0  0  0  0  0  0  0  0  0  0  0  0
    4.8118    1.3097   19.1094 C   0  0  0  0  0  0  0  0  0  0  0  0
    5.4006    1.2957   17.8382 C   0  0  0  0  0  0  0  0  0  0  0  0
    6.5608    0.6738   17.5779 N   0  0  0  0  0  0  0  0  0  0  0  0
    7.1700    0.0535   18.5940 C   0  0  0  0  0  0  0  0  0  0  0  0
    8.1149   -0.4340   18.3694 H   0  0  0  0  0  0  0  0  0  0  0  0
    4.9176    1.7841   16.9941 H   0  0  0  0  0  0  0  0  0  0  0  0
    3.8789    1.8399   19.2622 H   0  0  0  0  0  0  0  0  0  0  0  0
    5.0105    0.6093   21.1683 H   0  0  0  0  0  0  0  0  0  0  0  0
    8.6421   -0.4976   21.3987 C   0  0  0  0  0  0  0  0  0  0  0  0
    9.5280    0.6159   20.9394 C   0  0  0  0  0  0  0  0  0  0  0  0
    9.0517    2.0185   21.4147 C   0  0  0  0  0  0  0  0  0  0  0  0
    8.9047    2.1028   22.9090 C   0  0  0  0  0  0  0  0  0  0  0  0
    7.7828    1.8199   23.6397 C   0  0  0  0  0  0  0  0  0  0  0  0
    8.2014    1.8918   24.9196 N   0  0  0  0  0  0  0  0  0  0  0  0
    9.4985    2.2031   24.9961 N   0  0  0  0  0  0  0  0  0  0  0  0
    9.9332    2.3222   23.7825 N   0  0  0  0  0  0  0  0  0  0  0  0
    7.6984    1.7725   25.7841 H   0  0  0  0  0  0  0  0  0  0  0  0
    6.7841    1.5437   23.3409 H   0  0  0  0  0  0  0  0  0  0  0  0
    9.7552    2.7785   21.0741 H   0  0  0  0  0  0  0  0  0  0  0  0
    8.0822    2.2372   20.9496 H   0  0  0  0  0  0  0  0  0  0  0  0
   10.5244    0.4104   21.3363 H   0  0  0  0  0  0  0  0  0  0  0  0
    9.5977    0.6014   19.8489 H   0  0  0  0  0  0  0  0  0  0  0  0
    8.8708   -1.3037   22.4193 N   0  0  0  0  0  0  0  0  0  0  0  0
    8.3966   -3.1247   24.1304 H   0  0  0  0  0  0  0  0  0  0  0  0
    6.5602   -4.8335   24.1111 H   0  0  0  0  0  0  0  0  0  0  0  0
    7.2668   -4.6505   22.4915 H   0  0  0  0  0  0  0  0  0  0  0  0
    5.7085   -3.8947   22.8630 H   0  0  0  0  0  0  0  0  0  0  0  0
  1  2  1  0
  2  3  1  0
  3  4  1  0
  3  5  1  0
  3  6  1  0
  2  7  1  0
  7  8  2  0
  8  9  1  0
  9 10  1  0
 10 11  2  0
 11 12  1  0
 12 13  2  0
 13 14  1  0
 14 15  2  0
 15 16  1  0
 13 17  1  0
 12 18  1  0
 11 19  1  0
  9 20  1  0
 20 21  1  0
 21 22  1  0
 22 23  1  0
 23 24  2  0
 24 25  1  0
 25 26  1  0
 26 27  2  0
 25 28  1  0
 24 29  1  0
 22 30  1  0
 22 31  1  0
 21 32  1  0
 21 33  1  0
 20 34  2  0
  2 35  1  0
  1 36  1  0
  1 37  1  0
  1 38  1  0
 34  7  1  0
 15 10  1  0
 27 23  1  0
M  END
>  <cnnaffinity>  (1) 
-5.58262

>  <filename>  (1) 
CC(C)c1nc(CCc2c[nH]nn2)n(-c2cccnc2)n1

$$$$
