
     RDKit          3D

 47 50  0  0  0  0  0  0  0  0999 V2000
   10.8754    2.4254   21.8082 C   0  0  0  0  0  0  0  0  0  0  0  0
    9.7487    1.4560   22.1853 C   0  0  0  0  0  0  0  0  0  0  0  0
    9.6101    0.3698   21.0772 C   0  0  0  0  0  0  0  0  0  0  0  0
    8.5898   -0.6637   21.3977 C   0  0  0  0  0  0  0  0  0  0  0  0
    8.7774   -1.5292   22.3710 N   0  0  0  0  0  0  0  0  0  0  0  0
    7.5535   -2.0972   22.5255 C   0  0  0  0  0  0  0  0  0  0  0  0
    7.3214   -3.0608   23.6462 C   0  0  0  0  0  0  0  0  0  0  0  0
    8.3338   -4.2325   23.5749 C   0  0  0  0  0  0  0  0  0  0  0  0
    8.3195   -5.0864   24.8172 C   0  0  0  0  0  0  0  0  0  0  0  0
    7.7419   -4.7050   25.9595 C   0  0  0  0  0  0  0  0  0  0  0  0
    7.1062   -3.3465   26.1582 C   0  0  0  0  0  0  0  0  0  0  0  0
    7.4362   -2.3614   25.0244 C   0  0  0  0  0  0  0  0  0  0  0  0
    6.7736   -1.4881   25.0751 H   0  0  0  0  0  0  0  0  0  0  0  0
    8.4598   -1.9777   25.1354 H   0  0  0  0  0  0  0  0  0  0  0  0
    6.0172   -3.4795   26.2269 H   0  0  0  0  0  0  0  0  0  0  0  0
    7.4080   -2.9239   27.1254 H   0  0  0  0  0  0  0  0  0  0  0  0
    7.7006   -5.3965   26.8011 H   0  0  0  0  0  0  0  0  0  0  0  0
    8.8343   -6.0451   24.7584 H   0  0  0  0  0  0  0  0  0  0  0  0
    9.3438   -3.8206   23.4407 H   0  0  0  0  0  0  0  0  0  0  0  0
    8.1440   -4.8417   22.6821 H   0  0  0  0  0  0  0  0  0  0  0  0
    6.3014   -3.4423   23.5321 H   0  0  0  0  0  0  0  0  0  0  0  0
    6.6360   -1.6776   21.6798 N   0  0  0  0  0  0  0  0  0  0  0  0
    7.3142   -0.7747   20.9155 N   0  0  0  0  0  0  0  0  0  0  0  0
    6.6365   -0.0886   19.8625 C   0  0  0  0  0  0  0  0  0  0  0  0
    5.3865    0.4969   20.0966 C   0  0  0  0  0  0  0  0  0  0  0  0
    4.7940    1.2331   19.0660 C   0  0  0  0  0  0  0  0  0  0  0  0
    5.4523    1.3153   17.8342 C   0  0  0  0  0  0  0  0  0  0  0  0
    6.6115    0.6921   17.5785 N   0  0  0  0  0  0  0  0  0  0  0  0
    7.1844   -0.0003   18.5718 C   0  0  0  0  0  0  0  0  0  0  0  0
    8.1075   -0.5256   18.3229 H   0  0  0  0  0  0  0  0  0  0  0  0
    5.0206    1.8837   17.0138 H   0  0  0  0  0  0  0  0  0  0  0  0
    3.8449    1.7393   19.2124 H   0  0  0  0  0  0  0  0  0  0  0  0
    4.8985    0.3493   21.0607 H   0  0  0  0  0  0  0  0  0  0  0  0
   10.5712   -0.1395   20.9639 H   0  0  0  0  0  0  0  0  0  0  0  0
    9.3712    0.8713   20.1386 H   0  0  0  0  0  0  0  0  0  0  0  0
    8.4658    2.1557   22.3878 N   0  0  0  0  0  0  0  0  0  0  0  0
    7.5845    2.0314   23.4151 C   0  0  0  0  0  0  0  0  0  0  0  0
    6.4732    2.7876   23.0916 C   0  0  0  0  0  0  0  0  0  0  0  0
    6.7853    3.3268   21.8165 C   0  0  0  0  0  0  0  0  0  0  0  0
    7.9871    2.9251   21.4110 N   0  0  0  0  0  0  0  0  0  0  0  0
    6.1945    3.9646   21.1702 H   0  0  0  0  0  0  0  0  0  0  0  0
    5.5805    2.9488   23.6865 H   0  0  0  0  0  0  0  0  0  0  0  0
    7.8455    1.4012   24.2592 H   0  0  0  0  0  0  0  0  0  0  0  0
    9.9532    0.9974   23.1587 H   0  0  0  0  0  0  0  0  0  0  0  0
   10.7984    3.3522   22.3806 H   0  0  0  0  0  0  0  0  0  0  0  0
   11.8679    1.9935   21.9852 H   0  0  0  0  0  0  0  0  0  0  0  0
   10.8039    2.6932   20.7487 H   0  0  0  0  0  0  0  0  0  0  0  0
  1  2  1  0
  2  3  1  0
  3  4  1  0
  4  5  2  0
  5  6  1  0
  6  7  1  0
  7  8  1  0
  8  9  1  0
  9 10  2  0
 10 11  1  0
 11 12  1  0
 12 13  1  0
 12 14  1  0
 11 15  1  0
 11 16  1  0
 10 17  1  0
  9 18  1  0
  8 19  1  0
  8 20  1  0
  7 21  1  0
  6 22  2  0
 22 23  1  0
 23 24  1  0
 24 25  2  0
 25 26  1  0
 26 27  2  0
 27 28  1  0
 28 29  2  0
 29 30  1  0
 27 31  1  0
 26 32  1  0
 25 33  1  0
  3 34  1  0
  3 35  1  0
  2 36  1  0
 36 37  1  0
 37 38  2  0
 38 39  1  0
 39 40  2  0
 39 41  1  0
 38 42  1  0
 37 43  1  0
  2 44  1  0
  1 45  1  0
  1 46  1  0
  1 47  1  0
 23  4  1  0
 29 24  1  0
 40 36  1  0
 12  7  1  0
M  END
>  <cnnaffinity>  (1) 
-6.31989

>  <filename>  (1) 
CC(Cc1nc(C2CC=CCC2)nn1-c1cccnc1)n1cccn1

$$$$
