
     RDKit          3D

 46 49  0  0  0  0  0  0  0  0999 V2000
    9.1657    2.0571   20.9890 C   0  0  0  0  0  0  0  0  0  0  0  0
    8.9618    1.9524   22.4915 C   0  0  0  0  0  0  0  0  0  0  0  0
    7.6417    1.1862   22.8035 C   0  0  0  0  0  0  0  0  0  0  0  0
    7.6090   -0.2161   22.2746 C   0  0  0  0  0  0  0  0  0  0  0  0
    8.0938   -1.2630   22.9212 N   0  0  0  0  0  0  0  0  0  0  0  0
    8.1371   -2.2322   21.9688 C   0  0  0  0  0  0  0  0  0  0  0  0
    8.5904   -3.6317   22.1925 C   0  0  0  0  0  0  0  0  0  0  0  0
    7.5503   -4.4915   22.9206 C   0  0  0  0  0  0  0  0  0  0  0  0
    8.0024   -5.9011   23.3737 C   0  0  0  0  0  0  0  0  0  0  0  0
    7.7152   -5.5230   24.8452 C   0  0  0  0  0  0  0  0  0  0  0  0
    7.2449   -4.1217   24.3941 C   0  0  0  0  0  0  0  0  0  0  0  0
    6.1811   -3.9246   24.5748 H   0  0  0  0  0  0  0  0  0  0  0  0
    7.8326   -3.2840   24.7914 H   0  0  0  0  0  0  0  0  0  0  0  0
    8.6115   -5.5011   25.4743 H   0  0  0  0  0  0  0  0  0  0  0  0
    6.9500   -6.1294   25.3394 H   0  0  0  0  0  0  0  0  0  0  0  0
    9.0515   -6.1237   23.1693 H   0  0  0  0  0  0  0  0  0  0  0  0
    7.4013   -6.7226   22.9669 H   0  0  0  0  0  0  0  0  0  0  0  0
    6.6382   -4.5318   22.3099 H   0  0  0  0  0  0  0  0  0  0  0  0
    9.5414   -3.6027   22.7387 H   0  0  0  0  0  0  0  0  0  0  0  0
    8.7459   -4.0400   21.1904 H   0  0  0  0  0  0  0  0  0  0  0  0
    7.7157   -1.8582   20.7804 N   0  0  0  0  0  0  0  0  0  0  0  0
    7.3182   -0.5777   20.9824 N   0  0  0  0  0  0  0  0  0  0  0  0
    6.6295    0.0833   19.9332 C   0  0  0  0  0  0  0  0  0  0  0  0
    5.4149    0.7362   20.1538 C   0  0  0  0  0  0  0  0  0  0  0  0
    4.8075    1.3537   19.0538 C   0  0  0  0  0  0  0  0  0  0  0  0
    5.4294    1.3044   17.8012 C   0  0  0  0  0  0  0  0  0  0  0  0
    6.5742    0.6349   17.5777 N   0  0  0  0  0  0  0  0  0  0  0  0
    7.1429    0.0227   18.6238 C   0  0  0  0  0  0  0  0  0  0  0  0
    8.0346   -0.5646   18.4189 H   0  0  0  0  0  0  0  0  0  0  0  0
    4.9966    1.8181   16.9445 H   0  0  0  0  0  0  0  0  0  0  0  0
    3.8614    1.8699   19.1617 H   0  0  0  0  0  0  0  0  0  0  0  0
    4.9343    0.7045   21.1342 H   0  0  0  0  0  0  0  0  0  0  0  0
    7.4603    1.1624   23.8810 H   0  0  0  0  0  0  0  0  0  0  0  0
    6.8202    1.7553   22.3624 H   0  0  0  0  0  0  0  0  0  0  0  0
   10.1583    1.3686   23.1150 N   0  0  0  0  0  0  0  0  0  0  0  0
   10.6684    1.6259   24.3778 C   0  0  0  0  0  0  0  0  0  0  0  0
   11.7472    0.8025   24.5224 C   0  0  0  0  0  0  0  0  0  0  0  0
   11.9409    0.0556   23.3874 N   0  0  0  0  0  0  0  0  0  0  0  0
   10.9858    0.4171   22.5760 C   0  0  0  0  0  0  0  0  0  0  0  0
   10.8485    0.0449   21.5694 H   0  0  0  0  0  0  0  0  0  0  0  0
   12.3994    0.6939   25.3791 H   0  0  0  0  0  0  0  0  0  0  0  0
   10.2446    2.3775   25.0314 H   0  0  0  0  0  0  0  0  0  0  0  0
    8.8623    2.9550   22.9288 H   0  0  0  0  0  0  0  0  0  0  0  0
   10.0651    2.6393   20.7661 H   0  0  0  0  0  0  0  0  0  0  0  0
    8.2990    2.5068   20.5045 H   0  0  0  0  0  0  0  0  0  0  0  0
    9.2702    1.0589   20.5490 H   0  0  0  0  0  0  0  0  0  0  0  0
  1  2  1  0
  2  3  1  0
  3  4  1  0
  4  5  2  0
  5  6  1  0
  6  7  1  0
  7  8  1  0
  8  9  1  0
  9 10  1  0
 10 11  1  0
 11 12  1  0
 11 13  1  0
 10 14  1  0
 10 15  1  0
  9 16  1  0
  9 17  1  0
  8 18  1  0
  7 19  1  0
  7 20  1  0
  6 21  2  0
 21 22  1  0
 22 23  1  0
 23 24  2  0
 24 25  1  0
 25 26  2  0
 26 27  1  0
 27 28  2  0
 28 29  1  0
 26 30  1  0
 25 31  1  0
 24 32  1  0
  3 33  1  0
  3 34  1  0
  2 35  1  0
 35 36  1  0
 36 37  2  0
 37 38  1  0
 38 39  2  0
 39 40  1  0
 37 41  1  0
 36 42  1  0
  2 43  1  0
  1 44  1  0
  1 45  1  0
  1 46  1  0
 22  4  1  0
 28 23  1  0
 39 35  1  0
 11  8  1  0
M  END
>  <cnnaffinity>  (1) 
-6.14813

>  <filename>  (1) 
CC(Cc1nc(CC2CCC2)nn1-c1cccnc1)n1ccnc1

$$$$
