
     RDKit          3D

 45 48  0  0  0  0  0  0  0  0999 V2000
    8.2159    1.5209   25.1515 C   0  0  0  0  0  0  0  0  0  0  0  0
    6.9148    1.2576   24.3678 C   0  0  0  0  0  0  0  0  0  0  0  0
    7.0196    1.6548   22.8579 C   0  0  0  0  0  0  0  0  0  0  0  0
    8.0549    0.8287   22.1642 C   0  0  0  0  0  0  0  0  0  0  0  0
    9.3431    1.0650   22.2809 N   0  0  0  0  0  0  0  0  0  0  0  0
    9.9223   -0.1247   21.9671 C   0  0  0  0  0  0  0  0  0  0  0  0
   11.3725   -0.2452   22.1834 C   0  0  0  0  0  0  0  0  0  0  0  0
   12.2486   -1.1491   21.5484 C   0  0  0  0  0  0  0  0  0  0  0  0
   13.6119   -0.9286   21.7454 C   0  0  0  0  0  0  0  0  0  0  0  0
   14.5095   -1.6976   21.1197 F   0  0  0  0  0  0  0  0  0  0  0  0
   14.0617    0.1202   22.5526 C   0  0  0  0  0  0  0  0  0  0  0  0
   13.2251    0.8967   23.2465 N   0  0  0  0  0  0  0  0  0  0  0  0
   11.9165    0.7175   23.0570 C   0  0  0  0  0  0  0  0  0  0  0  0
   11.2750    1.3754   23.6330 H   0  0  0  0  0  0  0  0  0  0  0  0
   15.1216    0.3388   22.6228 H   0  0  0  0  0  0  0  0  0  0  0  0
   11.9188   -1.9889   20.9383 H   0  0  0  0  0  0  0  0  0  0  0  0
    9.0754   -1.0412   21.5376 N   0  0  0  0  0  0  0  0  0  0  0  0
    7.8618   -0.4176   21.6646 N   0  0  0  0  0  0  0  0  0  0  0  0
    6.6210   -0.9196   21.0550 C   0  0  0  0  0  0  0  0  0  0  0  0
    6.1558   -0.0696   19.8797 C   0  0  0  0  0  0  0  0  0  0  0  0
    4.9798    0.6940   19.8870 C   0  0  0  0  0  0  0  0  0  0  0  0
    4.6656    1.4669   18.7650 C   0  0  0  0  0  0  0  0  0  0  0  0
    5.5418    1.4536   17.6786 C   0  0  0  0  0  0  0  0  0  0  0  0
    6.6762    0.7396   17.6516 N   0  0  0  0  0  0  0  0  0  0  0  0
    6.9694    0.0178   18.7391 C   0  0  0  0  0  0  0  0  0  0  0  0
    7.9148   -0.5223   18.7184 H   0  0  0  0  0  0  0  0  0  0  0  0
    5.3340    2.0460   16.7911 H   0  0  0  0  0  0  0  0  0  0  0  0
    3.7803    2.0919   18.7288 H   0  0  0  0  0  0  0  0  0  0  0  0
    4.3265    0.7122   20.7610 H   0  0  0  0  0  0  0  0  0  0  0  0
    5.8406   -0.9301   21.8237 H   0  0  0  0  0  0  0  0  0  0  0  0
    6.7951   -1.9625   20.7680 H   0  0  0  0  0  0  0  0  0  0  0  0
    6.0529    1.5543   22.3540 H   0  0  0  0  0  0  0  0  0  0  0  0
    7.3161    2.7046   22.7691 H   0  0  0  0  0  0  0  0  0  0  0  0
    5.7300    1.8872   25.0309 C   0  0  0  0  0  0  0  0  0  0  0  0
    4.5026    1.4029   25.3503 C   0  0  0  0  0  0  0  0  0  0  0  0
    3.8034    2.4729   26.0030 C   0  0  0  0  0  0  0  0  0  0  0  0
    4.6589    3.5233   26.0139 C   0  0  0  0  0  0  0  0  0  0  0  0
    5.8294    3.1867   25.4196 O   0  0  0  0  0  0  0  0  0  0  0  0
    4.6116    4.5278   26.4034 H   0  0  0  0  0  0  0  0  0  0  0  0
    2.8082    2.4559   26.4194 H   0  0  0  0  0  0  0  0  0  0  0  0
    4.1592    0.3967   25.1463 H   0  0  0  0  0  0  0  0  0  0  0  0
    6.7173    0.1766   24.3930 H   0  0  0  0  0  0  0  0  0  0  0  0
    8.1000    1.2143   26.1958 H   0  0  0  0  0  0  0  0  0  0  0  0
    8.4578    2.5886   25.1400 H   0  0  0  0  0  0  0  0  0  0  0  0
    9.0618    0.9748   24.7211 H   0  0  0  0  0  0  0  0  0  0  0  0
  1  2  1  0
  2  3  1  0
  3  4  1  0
  4  5  2  0
  5  6  1  0
  6  7  1  0
  7  8  2  0
  8  9  1  0
  9 10  1  0
  9 11  2  0
 11 12  1  0
 12 13  2  0
 13 14  1  0
 11 15  1  0
  8 16  1  0
  6 17  2  0
 17 18  1  0
 18 19  1  0
 19 20  1  0
 20 21  2  0
 21 22  1  0
 22 23  2  0
 23 24  1  0
 24 25  2  0
 25 26  1  0
 23 27  1  0
 22 28  1  0
 21 29  1  0
 19 30  1  0
 19 31  1  0
  3 32  1  0
  3 33  1  0
  2 34  1  0
 34 35  2  0
 35 36  1  0
 36 37  2  0
 37 38  1  0
 37 39  1  0
 36 40  1  0
 35 41  1  0
  2 42  1  0
  1 43  1  0
  1 44  1  0
  1 45  1  0
 18  4  1  0
 25 20  1  0
 38 34  1  0
 13  7  1  0
M  END
>  <cnnaffinity>  (1) 
-6.69545

>  <filename>  (1) 
CC(Cc1nc(-c2cncc(F)c2)nn1Cc1cccnc1)c1ccco1

$$$$
