
     RDKit          3D

 52 55  0  0  0  0  0  0  0  0999 V2000
    9.3878    1.9697   21.0767 C   0  0  0  0  0  0  0  0  0  0  0  0
    9.0179    1.9094   22.5582 C   0  0  0  0  0  0  0  0  0  0  0  0
    7.6455    1.2038   22.7548 C   0  0  0  0  0  0  0  0  0  0  0  0
    7.6710   -0.1952   22.2406 C   0  0  0  0  0  0  0  0  0  0  0  0
    8.2524   -1.1803   22.8986 N   0  0  0  0  0  0  0  0  0  0  0  0
    8.2303   -2.2002   22.0074 C   0  0  0  0  0  0  0  0  0  0  0  0
    8.6754   -3.5663   22.3672 C   0  0  0  0  0  0  0  0  0  0  0  0
    7.6845   -4.2831   23.3106 C   0  0  0  0  0  0  0  0  0  0  0  0
    6.2886   -4.3950   22.6205 C   0  0  0  0  0  0  0  0  0  0  0  0
    5.5840   -5.7058   23.0075 C   0  0  0  0  0  0  0  0  0  0  0  0
    6.4078   -6.9072   22.4727 C   0  0  0  0  0  0  0  0  0  0  0  0
    7.9410   -6.6650   22.5633 C   0  0  0  0  0  0  0  0  0  0  0  0
    8.2405   -5.6737   23.6902 C   0  0  0  0  0  0  0  0  0  0  0  0
    7.7536   -6.0425   24.6039 H   0  0  0  0  0  0  0  0  0  0  0  0
    9.3021   -5.5956   23.9408 H   0  0  0  0  0  0  0  0  0  0  0  0
    8.5144   -7.5878   22.6692 H   0  0  0  0  0  0  0  0  0  0  0  0
    8.2818   -6.2291   21.6153 H   0  0  0  0  0  0  0  0  0  0  0  0
    6.1047   -7.8038   23.0198 H   0  0  0  0  0  0  0  0  0  0  0  0
    6.1473   -7.0827   21.4236 H   0  0  0  0  0  0  0  0  0  0  0  0
    4.5653   -5.7386   22.6103 H   0  0  0  0  0  0  0  0  0  0  0  0
    5.4939   -5.7694   24.1060 H   0  0  0  0  0  0  0  0  0  0  0  0
    5.6830   -3.5059   22.8381 H   0  0  0  0  0  0  0  0  0  0  0  0
    6.4344   -4.3990   21.5248 H   0  0  0  0  0  0  0  0  0  0  0  0
    7.6023   -3.6980   24.2363 H   0  0  0  0  0  0  0  0  0  0  0  0
    8.7242   -4.1343   21.4387 H   0  0  0  0  0  0  0  0  0  0  0  0
    9.6770   -3.5181   22.8056 H   0  0  0  0  0  0  0  0  0  0  0  0
    7.7065   -1.9092   20.8344 N   0  0  0  0  0  0  0  0  0  0  0  0
    7.3059   -0.6211   20.9953 N   0  0  0  0  0  0  0  0  0  0  0  0
    6.6218    0.0296   19.9350 C   0  0  0  0  0  0  0  0  0  0  0  0
    5.4109    0.7010   20.1442 C   0  0  0  0  0  0  0  0  0  0  0  0
    4.8207    1.3382   19.0460 C   0  0  0  0  0  0  0  0  0  0  0  0
    5.4576    1.2878   17.8040 C   0  0  0  0  0  0  0  0  0  0  0  0
    6.5994    0.6082   17.5915 N   0  0  0  0  0  0  0  0  0  0  0  0
    7.1521   -0.0238   18.6343 C   0  0  0  0  0  0  0  0  0  0  0  0
    8.0560   -0.5984   18.4342 H   0  0  0  0  0  0  0  0  0  0  0  0
    5.0307    1.7955   16.9404 H   0  0  0  0  0  0  0  0  0  0  0  0
    3.8851    1.8773   19.1543 H   0  0  0  0  0  0  0  0  0  0  0  0
    4.9413    0.7048   21.1285 H   0  0  0  0  0  0  0  0  0  0  0  0
    6.8675    1.7939   22.2646 H   0  0  0  0  0  0  0  0  0  0  0  0
    7.4195    1.1546   23.8221 H   0  0  0  0  0  0  0  0  0  0  0  0
    9.0240    3.2427   23.1859 N   0  0  0  0  0  0  0  0  0  0  0  0
    9.8515    3.6919   24.1664 C   0  0  0  0  0  0  0  0  0  0  0  0
    9.5066    5.0052   24.4094 C   0  0  0  0  0  0  0  0  0  0  0  0
    8.4533    5.2599   23.5077 C   0  0  0  0  0  0  0  0  0  0  0  0
    8.1711    4.1902   22.7769 N   0  0  0  0  0  0  0  0  0  0  0  0
    7.8894    6.1736   23.3502 H   0  0  0  0  0  0  0  0  0  0  0  0
    9.9406    5.6868   25.1271 H   0  0  0  0  0  0  0  0  0  0  0  0
   10.6052    3.0455   24.5971 H   0  0  0  0  0  0  0  0  0  0  0  0
    9.7844    1.3415   23.0947 H   0  0  0  0  0  0  0  0  0  0  0  0
   10.3336    2.4933   20.9139 H   0  0  0  0  0  0  0  0  0  0  0  0
    9.4806    0.9595   20.6636 H   0  0  0  0  0  0  0  0  0  0  0  0
    8.5984    2.4862   20.5197 H   0  0  0  0  0  0  0  0  0  0  0  0
  1  2  1  0
  2  3  1  0
  3  4  1  0
  4  5  2  0
  5  6  1  0
  6  7  1  0
  7  8  1  0
  8  9  1  0
  9 10  1  0
 10 11  1  0
 11 12  1  0
 12 13  1  0
 13 14  1  0
 13 15  1  0
 12 16  1  0
 12 17  1  0
 11 18  1  0
 11 19  1  0
 10 20  1  0
 10 21  1  0
  9 22  1  0
  9 23  1  0
  8 24  1  0
  7 25  1  0
  7 26  1  0
  6 27  2  0
 27 28  1  0
 28 29  1  0
 29 30  2  0
 30 31  1  0
 31 32  2  0
 32 33  1  0
 33 34  2  0
 34 35  1  0
 32 36  1  0
 31 37  1  0
 30 38  1  0
  3 39  1  0
  3 40  1  0
  2 41  1  0
 41 42  1  0
 42 43  2  0
 43 44  1  0
 44 45  2  0
 44 46  1  0
 43 47  1  0
 42 48  1  0
  2 49  1  0
  1 50  1  0
  1 51  1  0
  1 52  1  0
 28  4  1  0
 34 29  1  0
 45 41  1  0
 13  8  1  0
M  END
>  <cnnaffinity>  (1) 
-6.30801

>  <filename>  (1) 
CC(Cc1nc(CC2CCCCC2)nn1-c1cccnc1)n1cccn1

$$$$
