
     RDKit          3D

 41 44  0  0  0  0  0  0  0  0999 V2000
    5.8021   -2.8844   24.4170 C   0  0  0  0  0  0  0  0  0  0  0  0
    7.1723   -3.0895   23.7537 C   0  0  0  0  0  0  0  0  0  0  0  0
    7.4942   -2.0741   22.6750 C   0  0  0  0  0  0  0  0  0  0  0  0
    6.6538   -1.6468   21.7537 N   0  0  0  0  0  0  0  0  0  0  0  0
    7.4033   -0.7651   21.0250 N   0  0  0  0  0  0  0  0  0  0  0  0
    6.7717   -0.0612   19.9484 C   0  0  0  0  0  0  0  0  0  0  0  0
    5.5554    0.5862   20.2007 C   0  0  0  0  0  0  0  0  0  0  0  0
    4.9215    1.2573   19.1533 C   0  0  0  0  0  0  0  0  0  0  0  0
    5.5188    1.2574   17.8877 C   0  0  0  0  0  0  0  0  0  0  0  0
    6.6761    0.6280   17.6288 N   0  0  0  0  0  0  0  0  0  0  0  0
    7.2831   -0.0176   18.6365 C   0  0  0  0  0  0  0  0  0  0  0  0
    8.2017   -0.5449   18.3742 H   0  0  0  0  0  0  0  0  0  0  0  0
    5.0455    1.7646   17.0485 H   0  0  0  0  0  0  0  0  0  0  0  0
    3.9734    1.7618   19.3079 H   0  0  0  0  0  0  0  0  0  0  0  0
    5.1337    0.5379   21.2056 H   0  0  0  0  0  0  0  0  0  0  0  0
    8.6412   -0.6804   21.5974 C   0  0  0  0  0  0  0  0  0  0  0  0
    9.6463    0.3942   21.3272 C   0  0  0  0  0  0  0  0  0  0  0  0
    9.1749    1.7134   21.8773 C   0  0  0  0  0  0  0  0  0  0  0  0
    8.4388    2.6026   21.1704 C   0  0  0  0  0  0  0  0  0  0  0  0
    8.0536    3.6188   22.0097 N   0  0  0  0  0  0  0  0  0  0  0  0
    8.5590    3.3805   23.2631 C   0  0  0  0  0  0  0  0  0  0  0  0
    9.2584    2.1994   23.2127 C   0  0  0  0  0  0  0  0  0  0  0  0
    9.8264    1.7443   24.0136 H   0  0  0  0  0  0  0  0  0  0  0  0
    8.3751    4.0695   24.0806 H   0  0  0  0  0  0  0  0  0  0  0  0
    7.6243    4.4801   21.7160 H   0  0  0  0  0  0  0  0  0  0  0  0
    8.1469    2.4931   20.1388 H   0  0  0  0  0  0  0  0  0  0  0  0
    9.8212    0.4683   20.2508 H   0  0  0  0  0  0  0  0  0  0  0  0
   10.5750    0.1042   21.8206 H   0  0  0  0  0  0  0  0  0  0  0  0
    8.7369   -1.5334   22.5978 N   0  0  0  0  0  0  0  0  0  0  0  0
    7.3268   -4.5363   23.2655 C   0  0  0  0  0  0  0  0  0  0  0  0
    6.8068   -4.9534   21.9236 C   0  0  0  0  0  0  0  0  0  0  0  0
    8.2903   -4.8942   22.1709 C   0  0  0  0  0  0  0  0  0  0  0  0
    8.8127   -4.0561   21.7075 H   0  0  0  0  0  0  0  0  0  0  0  0
    8.8667   -5.8177   22.2421 H   0  0  0  0  0  0  0  0  0  0  0  0
    6.3969   -4.1677   21.2880 H   0  0  0  0  0  0  0  0  0  0  0  0
    6.3243   -5.9261   21.8456 H   0  0  0  0  0  0  0  0  0  0  0  0
    7.2074   -5.2729   24.0623 H   0  0  0  0  0  0  0  0  0  0  0  0
    7.9470   -2.9055   24.5059 H   0  0  0  0  0  0  0  0  0  0  0  0
    4.9695   -3.0787   23.7334 H   0  0  0  0  0  0  0  0  0  0  0  0
    5.6931   -3.5756   25.2598 H   0  0  0  0  0  0  0  0  0  0  0  0
    5.6991   -1.8676   24.8053 H   0  0  0  0  0  0  0  0  0  0  0  0
  1  2  1  0
  2  3  1  0
  3  4  2  0
  4  5  1  0
  5  6  1  0
  6  7  2  0
  7  8  1  0
  8  9  2  0
  9 10  1  0
 10 11  2  0
 11 12  1  0
  9 13  1  0
  8 14  1  0
  7 15  1  0
  5 16  1  0
 16 17  1  0
 17 18  1  0
 18 19  2  0
 19 20  1  0
 20 21  1  0
 21 22  2  0
 22 23  1  0
 21 24  1  0
 20 25  1  0
 19 26  1  0
 17 27  1  0
 17 28  1  0
 16 29  2  0
  2 30  1  0
 30 31  1  0
 31 32  1  0
 32 33  1  0
 32 34  1  0
 31 35  1  0
 31 36  1  0
 30 37  1  0
  2 38  1  0
  1 39  1  0
  1 40  1  0
  1 41  1  0
 29  3  1  0
 32 30  1  0
 11  6  1  0
 22 18  1  0
M  END
>  <cnnaffinity>  (1) 
-5.91646

>  <filename>  (1) 
CC(c1nc(Cc2cc[nH]c2)n(-c2cccnc2)n1)C1CC1

$$$$
