
     RDKit          3D

 47 50  0  0  0  0  0  0  0  0999 V2000
   10.4171    2.6530   21.8009 C   0  0  0  0  0  0  0  0  0  0  0  0
    9.2094    1.7215   21.9697 C   0  0  0  0  0  0  0  0  0  0  0  0
    9.5141    0.3811   21.2343 C   0  0  0  0  0  0  0  0  0  0  0  0
    8.5459   -0.7233   21.4780 C   0  0  0  0  0  0  0  0  0  0  0  0
    8.7201   -1.6018   22.4437 N   0  0  0  0  0  0  0  0  0  0  0  0
    7.5133   -2.2086   22.5367 C   0  0  0  0  0  0  0  0  0  0  0  0
    7.2390   -3.0815   23.7325 C   0  0  0  0  0  0  0  0  0  0  0  0
    6.6008   -2.2423   24.8783 C   0  0  0  0  0  0  0  0  0  0  0  0
    6.2404   -3.1237   26.0734 C   0  0  0  0  0  0  0  0  0  0  0  0
    5.4527   -4.2354   25.6858 O   0  0  0  0  0  0  0  0  0  0  0  0
    6.0952   -5.0719   24.7400 C   0  0  0  0  0  0  0  0  0  0  0  0
    6.3885   -4.3284   23.4344 C   0  0  0  0  0  0  0  0  0  0  0  0
    6.9089   -4.9942   22.7348 H   0  0  0  0  0  0  0  0  0  0  0  0
    5.4484   -4.0155   22.9633 H   0  0  0  0  0  0  0  0  0  0  0  0
    5.4212   -5.9165   24.5779 H   0  0  0  0  0  0  0  0  0  0  0  0
    7.0373   -5.4667   25.1638 H   0  0  0  0  0  0  0  0  0  0  0  0
    5.6398   -2.5695   26.8013 H   0  0  0  0  0  0  0  0  0  0  0  0
    7.1566   -3.4655   26.5873 H   0  0  0  0  0  0  0  0  0  0  0  0
    7.2949   -1.4558   25.1943 H   0  0  0  0  0  0  0  0  0  0  0  0
    5.6897   -1.7566   24.5069 H   0  0  0  0  0  0  0  0  0  0  0  0
    8.2396   -3.3914   24.0604 H   0  0  0  0  0  0  0  0  0  0  0  0
    6.6183   -1.8122   21.6514 N   0  0  0  0  0  0  0  0  0  0  0  0
    7.2987   -0.8652   20.9402 N   0  0  0  0  0  0  0  0  0  0  0  0
    6.6432   -0.1569   19.8849 C   0  0  0  0  0  0  0  0  0  0  0  0
    5.4312    0.5013   20.1308 C   0  0  0  0  0  0  0  0  0  0  0  0
    4.8645    1.2505   19.0954 C   0  0  0  0  0  0  0  0  0  0  0  0
    5.5003    1.2851   17.8508 C   0  0  0  0  0  0  0  0  0  0  0  0
    6.6327    0.6124   17.5887 N   0  0  0  0  0  0  0  0  0  0  0  0
    7.1829   -0.0889   18.5880 C   0  0  0  0  0  0  0  0  0  0  0  0
    8.0928   -0.6370   18.3443 H   0  0  0  0  0  0  0  0  0  0  0  0
    5.0862    1.8701   17.0313 H   0  0  0  0  0  0  0  0  0  0  0  0
    3.9533    1.8208   19.2487 H   0  0  0  0  0  0  0  0  0  0  0  0
    4.9549    0.4179   21.1072 H   0  0  0  0  0  0  0  0  0  0  0  0
   10.4887    0.0146   21.5642 H   0  0  0  0  0  0  0  0  0  0  0  0
    9.5785    0.5827   20.1633 H   0  0  0  0  0  0  0  0  0  0  0  0
    8.7835    1.5989   23.4180 C   0  0  0  0  0  0  0  0  0  0  0  0
    7.5604    1.6649   24.0129 C   0  0  0  0  0  0  0  0  0  0  0  0
    7.7972    1.7178   25.4310 C   0  0  0  0  0  0  0  0  0  0  0  0
    9.1371    1.5662   25.5830 C   0  0  0  0  0  0  0  0  0  0  0  0
    9.7449    1.4929   24.3726 O   0  0  0  0  0  0  0  0  0  0  0  0
    9.8000    1.4797   26.4287 H   0  0  0  0  0  0  0  0  0  0  0  0
    7.0812    1.8859   26.2248 H   0  0  0  0  0  0  0  0  0  0  0  0
    6.6097    1.6243   23.4885 H   0  0  0  0  0  0  0  0  0  0  0  0
    8.3270    2.1512   21.4789 H   0  0  0  0  0  0  0  0  0  0  0  0
   10.1834    3.6678   22.1371 H   0  0  0  0  0  0  0  0  0  0  0  0
   11.2717    2.2947   22.3878 H   0  0  0  0  0  0  0  0  0  0  0  0
   10.7238    2.7030   20.7524 H   0  0  0  0  0  0  0  0  0  0  0  0
  1  2  1  0
  2  3  1  0
  3  4  1  0
  4  5  2  0
  5  6  1  0
  6  7  1  0
  7  8  1  0
  8  9  1  0
  9 10  1  0
 10 11  1  0
 11 12  1  0
 12 13  1  0
 12 14  1  0
 11 15  1  0
 11 16  1  0
  9 17  1  0
  9 18  1  0
  8 19  1  0
  8 20  1  0
  7 21  1  0
  6 22  2  0
 22 23  1  0
 23 24  1  0
 24 25  2  0
 25 26  1  0
 26 27  2  0
 27 28  1  0
 28 29  2  0
 29 30  1  0
 27 31  1  0
 26 32  1  0
 25 33  1  0
  3 34  1  0
  3 35  1  0
  2 36  1  0
 36 37  2  0
 37 38  1  0
 38 39  2  0
 39 40  1  0
 39 41  1  0
 38 42  1  0
 37 43  1  0
  2 44  1  0
  1 45  1  0
  1 46  1  0
  1 47  1  0
 23  4  1  0
 29 24  1  0
 40 36  1  0
 12  7  1  0
M  END
>  <cnnaffinity>  (1) 
-5.79887

>  <filename>  (1) 
CC(Cc1nc(C2CCOCC2)nn1-c1cccnc1)c1ccco1

$$$$
