
     RDKit          3D

 28 28  0  0  0  0  0  0  0  0999 V2000
    4.9801    1.7689   17.0113 H   0  0  0  0  0  0  0  0  0  0  0  0
    5.4239    1.2750   17.8746 C   0  0  0  0  0  0  0  0  0  0  0  0
    6.5810    0.6326   17.6566 N   0  0  0  0  0  0  0  0  0  0  0  0
    7.1525    0.0347   18.7081 C   0  0  0  0  0  0  0  0  0  0  0  0
    8.0986   -0.4724   18.5032 H   0  0  0  0  0  0  0  0  0  0  0  0
    6.6131    0.0513   20.0001 C   0  0  0  0  0  0  0  0  0  0  0  0
    7.3513   -0.6572   21.0738 C   0  0  0  0  0  0  0  0  0  0  0  0
    7.0083   -1.7705   21.3996 O   0  0  0  0  0  0  0  0  0  0  0  0
    8.5790   -0.0343   21.7816 C   0  0  0  0  0  0  0  0  0  0  0  0
    9.7806   -1.0118   21.8012 C   0  0  0  0  0  0  0  0  0  0  0  0
   10.1120   -1.2149   20.7719 H   0  0  0  0  0  0  0  0  0  0  0  0
   10.6441   -0.5988   22.3427 H   0  0  0  0  0  0  0  0  0  0  0  0
    9.5028   -1.9592   22.2702 H   0  0  0  0  0  0  0  0  0  0  0  0
    8.9742    1.3425   21.2088 C   0  0  0  0  0  0  0  0  0  0  0  0
    8.1178    2.0251   21.1802 H   0  0  0  0  0  0  0  0  0  0  0  0
    9.7866    1.8262   21.7632 H   0  0  0  0  0  0  0  0  0  0  0  0
    9.3243    1.1876   20.1855 H   0  0  0  0  0  0  0  0  0  0  0  0
    7.7367    0.0907   23.4152 S   0  0  0  0  0  0  0  0  0  0  0  0
    7.5649   -1.2252   24.0059 O   0  0  0  0  0  0  0  0  0  0  0  0
    6.6256    1.0282   23.2729 O   0  0  0  0  0  0  0  0  0  0  0  0
    8.9640    0.8600   24.4090 C   0  0  0  0  0  0  0  0  0  0  0  0
    9.1961    1.8539   24.0396 H   0  0  0  0  0  0  0  0  0  0  0  0
    9.8425    0.2181   24.4314 H   0  0  0  0  0  0  0  0  0  0  0  0
    8.5231    0.9086   25.4004 H   0  0  0  0  0  0  0  0  0  0  0  0
    5.3820    0.6931   20.2104 C   0  0  0  0  0  0  0  0  0  0  0  0
    4.9207    0.7221   21.2001 H   0  0  0  0  0  0  0  0  0  0  0  0
    4.7853    1.3229   19.1170 C   0  0  0  0  0  0  0  0  0  0  0  0
    3.8464    1.8597   19.2167 H   0  0  0  0  0  0  0  0  0  0  0  0
  1  2  1  0
  2  3  2  0
  3  4  1  0
  4  5  1  0
  4  6  2  0
  6  7  1  0
  7  8  2  0
  7  9  1  0
  9 10  1  0
 10 11  1  0
 10 12  1  0
 10 13  1  0
  9 14  1  0
 14 15  1  0
 14 16  1  0
 14 17  1  0
  9 18  1  0
 18 19  2  0
 18 20  2  0
 18 21  1  0
 21 22  1  0
 21 23  1  0
 21 24  1  0
  6 25  1  0
 25 26  1  0
 25 27  2  0
 27 28  1  0
 27  2  1  0
M  END
>  <cnnaffinity>  (1) 
-4.10664

>  <filename>  (1) 
CC(C)(C(=O)c1cccnc1)S(C)(=O)=O

$$$$
