
     RDKit          3D

 33 34  0  0  0  0  0  0  0  0999 V2000
    5.2058    1.7774   17.0372 H   0  0  0  0  0  0  0  0  0  0  0  0
    5.6462    1.2179   17.8616 C   0  0  0  0  0  0  0  0  0  0  0  0
    6.8053    0.5908   17.6085 N   0  0  0  0  0  0  0  0  0  0  0  0
    7.3744   -0.0954   18.6103 C   0  0  0  0  0  0  0  0  0  0  0  0
    8.3055   -0.6119   18.3785 H   0  0  0  0  0  0  0  0  0  0  0  0
    6.8171   -0.1976   19.9001 C   0  0  0  0  0  0  0  0  0  0  0  0
    7.4534   -0.9259   20.9701 N   0  0  0  0  0  0  0  0  0  0  0  0
    8.5075   -0.5009   21.7811 C   0  0  0  0  0  0  0  0  0  0  0  0
    9.2800    0.7190   21.3972 C   0  0  0  0  0  0  0  0  0  0  0  0
    9.6736    0.4782   20.3990 H   0  0  0  0  0  0  0  0  0  0  0  0
    8.5362    1.5092   21.2285 H   0  0  0  0  0  0  0  0  0  0  0  0
   10.3918    1.2091   22.3864 C   0  0  0  0  0  0  0  0  0  0  0  0
    9.8091    1.4906   23.3108 H   0  0  0  0  0  0  0  0  0  0  0  0
   10.8751    0.2698   22.7884 H   0  0  0  0  0  0  0  0  0  0  0  0
   11.3275    2.4078   22.1354 C   0  0  0  0  0  0  0  0  0  0  0  0
   12.0623    1.6410   21.0210 H   0  0  0  0  0  0  0  0  0  0  0  0
   12.4518    2.3319   23.1577 C   0  0  0  0  0  0  0  0  0  0  0  0
   12.8506    1.3152   23.4576 H   0  0  0  0  0  0  0  0  0  0  0  0
   12.0272    2.6274   24.1650 H   0  0  0  0  0  0  0  0  0  0  0  0
   13.3630    3.0051   23.1350 H   0  0  0  0  0  0  0  0  0  0  0  0
   11.4515    2.3911   21.7976 C   0  0  0  0  0  0  0  0  0  0  0  0
   10.7338    3.3854   22.1698 H   0  0  0  0  0  0  0  0  0  0  0  0
   10.6918    2.6727   20.4349 H   0  0  0  0  0  0  0  0  0  0  0  0
   12.2952    3.4478   21.0148 H   0  0  0  0  0  0  0  0  0  0  0  0
    8.6997   -1.3179   22.7719 N   0  0  0  0  0  0  0  0  0  0  0  0
    7.7480   -2.2783   22.5884 N   0  0  0  0  0  0  0  0  0  0  0  0
    7.5898   -3.0394   23.2289 H   0  0  0  0  0  0  0  0  0  0  0  0
    6.9502   -2.0925   21.5226 C   0  0  0  0  0  0  0  0  0  0  0  0
    5.6916   -3.0659   21.0317 S   0  0  0  0  0  0  0  0  0  0  0  0
    5.5957    0.4360   20.1434 C   0  0  0  0  0  0  0  0  0  0  0  0
    5.1325    0.3486   21.1287 H   0  0  0  0  0  0  0  0  0  0  0  0
    5.0053    1.1667   19.1055 C   0  0  0  0  0  0  0  0  0  0  0  0
    4.0679    1.6947   19.2511 H   0  0  0  0  0  0  0  0  0  0  0  0
  1  2  1  0
  2  3  2  0
  3  4  1  0
  4  5  1  0
  4  6  2  0
  6  7  1  0
  7  8  1  0
  8  9  1  0
  9 10  1  0
  9 11  1  0
  9 12  1  0
 12 13  1  0
 12 14  1  0
 12 15  1  0
 15 16  1  0
 15 17  1  0
 17 18  1  0
 17 19  1  0
 17 20  1  0
 15 21  1  0
 21 22  1  0
 21 23  1  0
 21 24  1  0
  8 25  2  0
 25 26  1  0
 26 27  1  0
 26 28  1  0
 28 29  2  0
  6 30  1  0
 30 31  1  0
 30 32  2  0
 32 33  1  0
 32  2  1  0
 28  7  1  0
M  END
>  <cnnaffinity>  (1) 
-5.07448

>  <filename>  (1) 
CC(C)CCc1n[nH]c(=S)n1-c1cccnc1

$$$$
