
     RDKit          3D

 49 52  0  0  0  0  0  0  0  0999 V2000
    6.6920   -4.2875   23.0774 C   0  0  0  0  0  0  0  0  0  0  0  0
    7.3832   -3.0177   23.6016 C   0  0  0  0  0  0  0  0  0  0  0  0
    7.6289   -2.0075   22.5143 C   0  0  0  0  0  0  0  0  0  0  0  0
    6.7095   -1.6340   21.6433 N   0  0  0  0  0  0  0  0  0  0  0  0
    7.3500   -0.6800   20.9208 N   0  0  0  0  0  0  0  0  0  0  0  0
    6.6569    0.0049   19.8862 C   0  0  0  0  0  0  0  0  0  0  0  0
    5.4422    0.6412   20.1548 C   0  0  0  0  0  0  0  0  0  0  0  0
    4.8057    1.3115   19.1045 C   0  0  0  0  0  0  0  0  0  0  0  0
    5.3947    1.2964   17.8332 C   0  0  0  0  0  0  0  0  0  0  0  0
    6.5479    0.6652   17.5639 N   0  0  0  0  0  0  0  0  0  0  0  0
    7.1608    0.0412   18.5762 C   0  0  0  0  0  0  0  0  0  0  0  0
    8.1042   -0.4520   18.3441 H   0  0  0  0  0  0  0  0  0  0  0  0
    4.9229    1.8032   16.9945 H   0  0  0  0  0  0  0  0  0  0  0  0
    3.8719    1.8453   19.2569 H   0  0  0  0  0  0  0  0  0  0  0  0
    5.0220    0.6044   21.1614 H   0  0  0  0  0  0  0  0  0  0  0  0
    8.6117   -0.5118   21.4111 C   0  0  0  0  0  0  0  0  0  0  0  0
    9.5684    0.5536   20.9916 C   0  0  0  0  0  0  0  0  0  0  0  0
    9.5119    1.7274   21.9485 C   0  0  0  0  0  0  0  0  0  0  0  0
    8.4125    2.5951   21.8282 C   0  0  0  0  0  0  0  0  0  0  0  0
    8.2149    3.6597   22.7090 C   0  0  0  0  0  0  0  0  0  0  0  0
    9.1352    3.8728   23.7385 C   0  0  0  0  0  0  0  0  0  0  0  0
   10.2298    3.0294   23.8850 C   0  0  0  0  0  0  0  0  0  0  0  0
   10.4123    1.9503   23.0029 C   0  0  0  0  0  0  0  0  0  0  0  0
   11.8494    0.9188   23.3091 S   0  0  0  0  0  0  0  0  0  0  0  0
   12.4366    1.2821   24.5944 O   0  0  0  0  0  0  0  0  0  0  0  0
   11.5784   -0.4754   22.9791 O   0  0  0  0  0  0  0  0  0  0  0  0
   12.9735    1.4455   22.0838 C   0  0  0  0  0  0  0  0  0  0  0  0
   12.4355    1.3804   21.1413 H   0  0  0  0  0  0  0  0  0  0  0  0
   13.2998    2.4538   22.3260 H   0  0  0  0  0  0  0  0  0  0  0  0
   13.7898    0.7258   22.1317 H   0  0  0  0  0  0  0  0  0  0  0  0
   10.9457    3.1983   24.6851 H   0  0  0  0  0  0  0  0  0  0  0  0
    9.0029    4.6920   24.4382 H   0  0  0  0  0  0  0  0  0  0  0  0
    7.3510    4.3112   22.6014 H   0  0  0  0  0  0  0  0  0  0  0  0
    7.6912    2.4105   21.0369 H   0  0  0  0  0  0  0  0  0  0  0  0
    9.2934    0.8912   19.9946 H   0  0  0  0  0  0  0  0  0  0  0  0
   10.5533    0.0965   20.9358 H   0  0  0  0  0  0  0  0  0  0  0  0
    8.8113   -1.3568   22.3992 N   0  0  0  0  0  0  0  0  0  0  0  0
    6.6031   -2.3717   24.7535 C   0  0  0  0  0  0  0  0  0  0  0  0
    7.3423   -1.5096   25.7363 C   0  0  0  0  0  0  0  0  0  0  0  0
    6.8090   -2.8554   26.1605 C   0  0  0  0  0  0  0  0  0  0  0  0
    7.5153   -3.6674   26.3173 H   0  0  0  0  0  0  0  0  0  0  0  0
    5.9511   -2.8970   26.8242 H   0  0  0  0  0  0  0  0  0  0  0  0
    6.8675   -0.6063   26.1090 H   0  0  0  0  0  0  0  0  0  0  0  0
    8.4165   -1.3996   25.5898 H   0  0  0  0  0  0  0  0  0  0  0  0
    5.5910   -2.0618   24.4811 H   0  0  0  0  0  0  0  0  0  0  0  0
    8.3910   -3.2625   23.9690 H   0  0  0  0  0  0  0  0  0  0  0  0
    7.2818   -4.7559   22.2828 H   0  0  0  0  0  0  0  0  0  0  0  0
    5.7063   -4.0429   22.6644 H   0  0  0  0  0  0  0  0  0  0  0  0
    6.5610   -5.0155   23.8840 H   0  0  0  0  0  0  0  0  0  0  0  0
  1  2  1  0
  2  3  1  0
  3  4  2  0
  4  5  1  0
  5  6  1  0
  6  7  2  0
  7  8  1  0
  8  9  2  0
  9 10  1  0
 10 11  2  0
 11 12  1  0
  9 13  1  0
  8 14  1  0
  7 15  1  0
  5 16  1  0
 16 17  1  0
 17 18  1  0
 18 19  2  0
 19 20  1  0
 20 21  2  0
 21 22  1  0
 22 23  2  0
 23 24  1  0
 24 25  2  0
 24 26  2  0
 24 27  1  0
 27 28  1  0
 27 29  1  0
 27 30  1  0
 22 31  1  0
 21 32  1  0
 20 33  1  0
 19 34  1  0
 17 35  1  0
 17 36  1  0
 16 37  2  0
  2 38  1  0
 38 39  1  0
 39 40  1  0
 40 41  1  0
 40 42  1  0
 39 43  1  0
 39 44  1  0
 38 45  1  0
  2 46  1  0
  1 47  1  0
  1 48  1  0
  1 49  1  0
 37  3  1  0
 40 38  1  0
 11  6  1  0
 23 18  1  0
M  END
>  <cnnaffinity>  (1) 
-6.50284

>  <filename>  (1) 
CC(c1nc(Cc2ccccc2S(C)(=O)=O)n(-c2cccnc2)n1)C1CC1

$$$$
