
     RDKit          3D

 38 40  0  0  0  0  0  0  0  0999 V2000
    6.4611   -2.5013   24.6974 C   0  0  0  0  0  0  0  0  0  0  0  0
    7.3890   -3.0569   23.5913 C   0  0  0  0  0  0  0  0  0  0  0  0
    6.8578   -4.3830   23.0110 C   0  0  0  0  0  0  0  0  0  0  0  0
    7.5417   -4.8048   22.2639 H   0  0  0  0  0  0  0  0  0  0  0  0
    6.7256   -5.1251   23.8060 H   0  0  0  0  0  0  0  0  0  0  0  0
    5.8898   -4.2211   22.5201 H   0  0  0  0  0  0  0  0  0  0  0  0
    7.5986   -2.0364   22.5112 C   0  0  0  0  0  0  0  0  0  0  0  0
    6.6592   -1.6307   21.6780 N   0  0  0  0  0  0  0  0  0  0  0  0
    7.3020   -0.6995   20.9292 N   0  0  0  0  0  0  0  0  0  0  0  0
    6.6274   -0.0227   19.8834 C   0  0  0  0  0  0  0  0  0  0  0  0
    5.4190    0.6281   20.1469 C   0  0  0  0  0  0  0  0  0  0  0  0
    4.7957    1.3129   19.1009 C   0  0  0  0  0  0  0  0  0  0  0  0
    5.3908    1.2975   17.8308 C   0  0  0  0  0  0  0  0  0  0  0  0
    6.5350    0.6510   17.5647 N   0  0  0  0  0  0  0  0  0  0  0  0
    7.1393    0.0178   18.5721 C   0  0  0  0  0  0  0  0  0  0  0  0
    8.0877   -0.4620   18.3361 H   0  0  0  0  0  0  0  0  0  0  0  0
    4.9351    1.8223   16.9943 H   0  0  0  0  0  0  0  0  0  0  0  0
    3.8681    1.8588   19.2518 H   0  0  0  0  0  0  0  0  0  0  0  0
    5.0044    0.5883   21.1557 H   0  0  0  0  0  0  0  0  0  0  0  0
    8.5839   -0.5773   21.3768 C   0  0  0  0  0  0  0  0  0  0  0  0
    9.6455    0.3016   20.8112 C   0  0  0  0  0  0  0  0  0  0  0  0
   10.3319    1.1436   21.8675 C   0  0  0  0  0  0  0  0  0  0  0  0
    9.7101    2.2526   22.4736 C   0  0  0  0  0  0  0  0  0  0  0  0
    8.1351    2.7677   21.9465 Cl  0  0  0  0  0  0  0  0  0  0  0  0
   10.3234    2.9175   23.5474 C   0  0  0  0  0  0  0  0  0  0  0  0
   11.5072    2.5291   24.0453 N   0  0  0  0  0  0  0  0  0  0  0  0
   12.1290    1.4825   23.4795 C   0  0  0  0  0  0  0  0  0  0  0  0
   11.5741    0.7858   22.4029 C   0  0  0  0  0  0  0  0  0  0  0  0
   12.2481   -0.2614   21.8948 F   0  0  0  0  0  0  0  0  0  0  0  0
   13.0851    1.1585   23.8873 H   0  0  0  0  0  0  0  0  0  0  0  0
    9.8310    3.7645   24.0288 H   0  0  0  0  0  0  0  0  0  0  0  0
   10.3564   -0.3821   20.3399 H   0  0  0  0  0  0  0  0  0  0  0  0
    9.2025    0.9330   20.0423 H   0  0  0  0  0  0  0  0  0  0  0  0
    8.7975   -1.4276   22.3586 N   0  0  0  0  0  0  0  0  0  0  0  0
    8.3969   -3.2011   24.0033 H   0  0  0  0  0  0  0  0  0  0  0  0
    6.3309   -3.2371   25.4984 H   0  0  0  0  0  0  0  0  0  0  0  0
    5.4706   -2.2651   24.2905 H   0  0  0  0  0  0  0  0  0  0  0  0
    6.8612   -1.5832   25.1467 H   0  0  0  0  0  0  0  0  0  0  0  0
  1  2  1  0
  2  3  1  0
  3  4  1  0
  3  5  1  0
  3  6  1  0
  2  7  1  0
  7  8  2  0
  8  9  1  0
  9 10  1  0
 10 11  2  0
 11 12  1  0
 12 13  2  0
 13 14  1  0
 14 15  2  0
 15 16  1  0
 13 17  1  0
 12 18  1  0
 11 19  1  0
  9 20  1  0
 20 21  1  0
 21 22  1  0
 22 23  2  0
 23 24  1  0
 23 25  1  0
 25 26  2  0
 26 27  1  0
 27 28  2  0
 28 29  1  0
 27 30  1  0
 25 31  1  0
 21 32  1  0
 21 33  1  0
 20 34  2  0
  2 35  1  0
  1 36  1  0
  1 37  1  0
  1 38  1  0
 34  7  1  0
 15 10  1  0
 28 22  1  0
M  END
>  <cnnaffinity>  (1) 
-6.42103

>  <filename>  (1) 
CC(C)c1nc(Cc2c(F)cncc2Cl)n(-c2cccnc2)n1

$$$$
