
     RDKit          3D

 47 50  0  0  0  0  0  0  0  0999 V2000
    6.5889   -1.3409   22.0653 C   0  0  0  0  0  0  0  0  0  0  0  0
    7.4609   -0.7225   20.9686 C   0  0  0  0  0  0  0  0  0  0  0  0
    8.5673    0.1902   21.5611 C   0  0  0  0  0  0  0  0  0  0  0  0
    8.0801    1.4173   22.2627 C   0  0  0  0  0  0  0  0  0  0  0  0
    7.3724    2.3795   21.6994 N   0  0  0  0  0  0  0  0  0  0  0  0
    7.2872    3.3272   22.6615 C   0  0  0  0  0  0  0  0  0  0  0  0
    6.5829    4.6405   22.4428 C   0  0  0  0  0  0  0  0  0  0  0  0
    5.5438    4.9575   23.5470 C   0  0  0  0  0  0  0  0  0  0  0  0
    6.3017    5.7567   24.6310 C   0  0  0  0  0  0  0  0  0  0  0  0
    7.6002    6.2821   23.9747 C   0  0  0  0  0  0  0  0  0  0  0  0
    7.5651    5.8385   22.4974 C   0  0  0  0  0  0  0  0  0  0  0  0
    8.5580    5.5727   22.1146 H   0  0  0  0  0  0  0  0  0  0  0  0
    7.2014    6.6473   21.8517 H   0  0  0  0  0  0  0  0  0  0  0  0
    8.4727    5.8549   24.4774 H   0  0  0  0  0  0  0  0  0  0  0  0
    7.6931    7.3705   24.0526 H   0  0  0  0  0  0  0  0  0  0  0  0
    6.5428    5.1132   25.4824 H   0  0  0  0  0  0  0  0  0  0  0  0
    5.6775    6.5681   25.0211 H   0  0  0  0  0  0  0  0  0  0  0  0
    4.7237    5.5526   23.1259 H   0  0  0  0  0  0  0  0  0  0  0  0
    5.0817    4.0475   23.9466 H   0  0  0  0  0  0  0  0  0  0  0  0
    6.1118    4.5582   21.4620 H   0  0  0  0  0  0  0  0  0  0  0  0
    7.9076    3.0263   23.7892 N   0  0  0  0  0  0  0  0  0  0  0  0
    8.3848    1.7796   23.5387 N   0  0  0  0  0  0  0  0  0  0  0  0
    9.1227    1.0758   24.5072 C   0  0  0  0  0  0  0  0  0  0  0  0
    8.8460   -0.2407   24.8525 C   0  0  0  0  0  0  0  0  0  0  0  0
    9.6728   -0.8264   25.8174 C   0  0  0  0  0  0  0  0  0  0  0  0
   10.7033   -0.1872   26.3726 N   0  0  0  0  0  0  0  0  0  0  0  0
   10.9623    1.0668   26.0082 N   0  0  0  0  0  0  0  0  0  0  0  0
   10.2039    1.7073   25.1328 C   0  0  0  0  0  0  0  0  0  0  0  0
   10.5091    2.7235   24.9193 H   0  0  0  0  0  0  0  0  0  0  0  0
    9.5327   -1.8437   26.1543 H   0  0  0  0  0  0  0  0  0  0  0  0
    8.0126   -0.7910   24.4237 H   0  0  0  0  0  0  0  0  0  0  0  0
    9.2052   -0.3978   22.2249 H   0  0  0  0  0  0  0  0  0  0  0  0
    9.2036    0.5474   20.7455 H   0  0  0  0  0  0  0  0  0  0  0  0
    6.6485   -0.0147   19.8985 C   0  0  0  0  0  0  0  0  0  0  0  0
    5.4240    0.6208   20.1413 C   0  0  0  0  0  0  0  0  0  0  0  0
    4.7993    1.2980   19.0913 C   0  0  0  0  0  0  0  0  0  0  0  0
    5.3967    1.2956   17.8278 C   0  0  0  0  0  0  0  0  0  0  0  0
    6.5617    0.6838   17.5660 N   0  0  0  0  0  0  0  0  0  0  0  0
    7.1607    0.0693   18.5928 C   0  0  0  0  0  0  0  0  0  0  0  0
    8.1096   -0.4155   18.3633 H   0  0  0  0  0  0  0  0  0  0  0  0
    4.9175    1.7912   16.9872 H   0  0  0  0  0  0  0  0  0  0  0  0
    3.8774    1.8394   19.2530 H   0  0  0  0  0  0  0  0  0  0  0  0
    5.0072    0.6446   21.1521 H   0  0  0  0  0  0  0  0  0  0  0  0
    7.9865   -1.5521   20.4721 H   0  0  0  0  0  0  0  0  0  0  0  0
    5.7513   -1.8873   21.6177 H   0  0  0  0  0  0  0  0  0  0  0  0
    6.1736   -0.5771   22.7333 H   0  0  0  0  0  0  0  0  0  0  0  0
    7.1624   -2.0505   22.6742 H   0  0  0  0  0  0  0  0  0  0  0  0
  1  2  1  0
  2  3  1  0
  3  4  1  0
  4  5  2  0
  5  6  1  0
  6  7  1  0
  7  8  1  0
  8  9  1  0
  9 10  1  0
 10 11  1  0
 11 12  1  0
 11 13  1  0
 10 14  1  0
 10 15  1  0
  9 16  1  0
  9 17  1  0
  8 18  1  0
  8 19  1  0
  7 20  1  0
  6 21  2  0
 21 22  1  0
 22 23  1  0
 23 24  2  0
 24 25  1  0
 25 26  2  0
 26 27  1  0
 27 28  2  0
 28 29  1  0
 25 30  1  0
 24 31  1  0
  3 32  1  0
  3 33  1  0
  2 34  1  0
 34 35  2  0
 35 36  1  0
 36 37  2  0
 37 38  1  0
 38 39  2  0
 39 40  1  0
 37 41  1  0
 36 42  1  0
 35 43  1  0
  2 44  1  0
  1 45  1  0
  1 46  1  0
  1 47  1  0
 22  4  1  0
 28 23  1  0
 39 34  1  0
 11  7  1  0
M  END
>  <cnnaffinity>  (1) 
-6.12796

>  <filename>  (1) 
CC(Cc1nc(C2CCCC2)nn1-c1ccnnc1)c1cccnc1

$$$$
