
     RDKit          3D

 52 54  0  0  0  0  0  0  0  0999 V2000
    8.4057   -5.5335   25.2384 C   0  0  0  0  0  0  0  0  0  0  0  0
    7.4208   -5.5828   24.0635 C   0  0  0  0  0  0  0  0  0  0  0  0
    5.9726   -5.6498   24.5624 C   0  0  0  0  0  0  0  0  0  0  0  0
    5.7880   -6.5471   25.1611 H   0  0  0  0  0  0  0  0  0  0  0  0
    5.7310   -4.7899   25.1977 H   0  0  0  0  0  0  0  0  0  0  0  0
    5.2563   -5.6512   23.7332 H   0  0  0  0  0  0  0  0  0  0  0  0
    7.6270   -4.4355   23.0624 C   0  0  0  0  0  0  0  0  0  0  0  0
    7.3551   -3.0269   23.6166 C   0  0  0  0  0  0  0  0  0  0  0  0
    7.5628   -1.9655   22.5999 C   0  0  0  0  0  0  0  0  0  0  0  0
    6.6514   -1.5627   21.7425 N   0  0  0  0  0  0  0  0  0  0  0  0
    7.3279   -0.6777   20.9672 N   0  0  0  0  0  0  0  0  0  0  0  0
    6.6624    0.0003   19.9040 C   0  0  0  0  0  0  0  0  0  0  0  0
    5.4427    0.6410   20.1553 C   0  0  0  0  0  0  0  0  0  0  0  0
    4.8130    1.3096   19.1027 C   0  0  0  0  0  0  0  0  0  0  0  0
    5.4109    1.2949   17.8371 C   0  0  0  0  0  0  0  0  0  0  0  0
    6.5618    0.6560   17.5763 N   0  0  0  0  0  0  0  0  0  0  0  0
    7.1708    0.0301   18.5918 C   0  0  0  0  0  0  0  0  0  0  0  0
    8.1063   -0.4717   18.3424 H   0  0  0  0  0  0  0  0  0  0  0  0
    4.9437    1.8111   17.0013 H   0  0  0  0  0  0  0  0  0  0  0  0
    3.8789    1.8433   19.2568 H   0  0  0  0  0  0  0  0  0  0  0  0
    5.0157    0.5950   21.1562 H   0  0  0  0  0  0  0  0  0  0  0  0
    8.6155   -0.5934   21.4204 C   0  0  0  0  0  0  0  0  0  0  0  0
    9.6875    0.2076   20.7364 C   0  0  0  0  0  0  0  0  0  0  0  0
   10.7835    0.6891   21.5811 N   0  0  0  0  0  0  0  0  0  0  0  0
   10.4086    1.6995   22.5765 C   0  0  0  0  0  0  0  0  0  0  0  0
   11.6338    2.4275   23.1516 C   0  0  0  0  0  0  0  0  0  0  0  0
   12.2372    3.4113   22.1324 C   0  0  0  0  0  0  0  0  0  0  0  0
   11.5560    4.5762   22.1218 F   0  0  0  0  0  0  0  0  0  0  0  0
   13.5067    3.7467   22.4508 F   0  0  0  0  0  0  0  0  0  0  0  0
   12.2516    2.9552   20.8730 F   0  0  0  0  0  0  0  0  0  0  0  0
   12.6476    1.4065   23.6985 C   0  0  0  0  0  0  0  0  0  0  0  0
   13.0167    0.3906   22.6203 C   0  0  0  0  0  0  0  0  0  0  0  0
   11.8871   -0.1358   21.7609 C   0  0  0  0  0  0  0  0  0  0  0  0
   12.0085   -1.2059   21.1839 O   0  0  0  0  0  0  0  0  0  0  0  0
   13.5118   -0.4950   23.0149 H   0  0  0  0  0  0  0  0  0  0  0  0
   13.7126    0.8363   21.9083 H   0  0  0  0  0  0  0  0  0  0  0  0
   13.5494    1.9179   24.0566 H   0  0  0  0  0  0  0  0  0  0  0  0
   12.2183    0.9169   24.5817 H   0  0  0  0  0  0  0  0  0  0  0  0
   11.2940    3.0724   23.9691 H   0  0  0  0  0  0  0  0  0  0  0  0
    9.7317    2.4227   22.0994 H   0  0  0  0  0  0  0  0  0  0  0  0
    9.8495    1.1999   23.3872 H   0  0  0  0  0  0  0  0  0  0  0  0
    9.2140    1.0551   20.2333 H   0  0  0  0  0  0  0  0  0  0  0  0
   10.1110   -0.4602   19.9813 H   0  0  0  0  0  0  0  0  0  0  0  0
    8.7867   -1.4050   22.4375 N   0  0  0  0  0  0  0  0  0  0  0  0
    6.3375   -2.9452   24.0074 H   0  0  0  0  0  0  0  0  0  0  0  0
    8.0515   -2.8054   24.4296 H   0  0  0  0  0  0  0  0  0  0  0  0
    8.6594   -4.4750   22.6884 H   0  0  0  0  0  0  0  0  0  0  0  0
    6.9809   -4.6090   22.1910 H   0  0  0  0  0  0  0  0  0  0  0  0
    7.6291   -6.5016   23.4976 H   0  0  0  0  0  0  0  0  0  0  0  0
    9.4456   -5.4525   24.9019 H   0  0  0  0  0  0  0  0  0  0  0  0
    8.2082   -4.6768   25.8934 H   0  0  0  0  0  0  0  0  0  0  0  0
    8.3323   -6.4336   25.8584 H   0  0  0  0  0  0  0  0  0  0  0  0
  1  2  1  0
  2  3  1  0
  3  4  1  0
  3  5  1  0
  3  6  1  0
  2  7  1  0
  7  8  1  0
  8  9  1  0
  9 10  2  0
 10 11  1  0
 11 12  1  0
 12 13  2  0
 13 14  1  0
 14 15  2  0
 15 16  1  0
 16 17  2  0
 17 18  1  0
 15 19  1  0
 14 20  1  0
 13 21  1  0
 11 22  1  0
 22 23  1  0
 23 24  1  0
 24 25  1  0
 25 26  1  0
 26 27  1  0
 27 28  1  0
 27 29  1  0
 27 30  1  0
 26 31  1  0
 31 32  1  0
 32 33  1  0
 33 34  2  0
 32 35  1  0
 32 36  1  0
 31 37  1  0
 31 38  1  0
 26 39  1  0
 25 40  1  0
 25 41  1  0
 23 42  1  0
 23 43  1  0
 22 44  2  0
  8 45  1  0
  8 46  1  0
  7 47  1  0
  7 48  1  0
  2 49  1  0
  1 50  1  0
  1 51  1  0
  1 52  1  0
 44  9  1  0
 17 12  1  0
 33 24  1  0
M  END
>  <cnnaffinity>  (1) 
-6.63563

>  <filename>  (1) 
CC(C)CCc1nc(CN2CC(C(F)(F)F)CCC2=O)n(-c2cccnc2)n1

$$$$
