
     RDKit          3D

 37 38  0  0  0  0  0  0  0  0999 V2000
    5.1845    1.8761   16.9301 H   0  0  0  0  0  0  0  0  0  0  0  0
    5.5380    1.3080   17.7862 C   0  0  0  0  0  0  0  0  0  0  0  0
    6.6691    0.6098   17.6059 N   0  0  0  0  0  0  0  0  0  0  0  0
    7.1420   -0.0769   18.6443 C   0  0  0  0  0  0  0  0  0  0  0  0
    8.0749   -0.6166   18.5004 H   0  0  0  0  0  0  0  0  0  0  0  0
    6.5009   -0.0825   19.8720 C   0  0  0  0  0  0  0  0  0  0  0  0
    7.3639   -0.8648   21.1532 S   0  0  0  0  0  0  0  0  0  0  0  0
    8.2032   -1.8884   20.5334 O   0  0  0  0  0  0  0  0  0  0  0  0
    6.3871   -1.2508   22.1676 O   0  0  0  0  0  0  0  0  0  0  0  0
    8.5102    0.4816   21.8284 C   0  0  0  0  0  0  0  0  0  0  0  0
    7.8127    1.8648   21.9023 C   0  0  0  0  0  0  0  0  0  0  0  0
    7.4717    2.2016   20.9161 H   0  0  0  0  0  0  0  0  0  0  0  0
    8.5487    2.6072   22.2333 H   0  0  0  0  0  0  0  0  0  0  0  0
    6.9623    1.9029   22.5945 H   0  0  0  0  0  0  0  0  0  0  0  0
    9.7126    0.6101   20.8681 C   0  0  0  0  0  0  0  0  0  0  0  0
   10.4364    1.3318   21.2655 H   0  0  0  0  0  0  0  0  0  0  0  0
    9.3778    0.9733   19.8955 H   0  0  0  0  0  0  0  0  0  0  0  0
   10.2198   -0.3432   20.6946 H   0  0  0  0  0  0  0  0  0  0  0  0
    8.9093   -0.0536   23.2408 C   0  0  0  0  0  0  0  0  0  0  0  0
    7.9669   -0.1749   23.8020 H   0  0  0  0  0  0  0  0  0  0  0  0
    9.7709    0.9508   24.0400 C   0  0  0  0  0  0  0  0  0  0  0  0
    9.1963    1.8581   24.2579 H   0  0  0  0  0  0  0  0  0  0  0  0
   10.6511    1.2599   23.4596 H   0  0  0  0  0  0  0  0  0  0  0  0
   10.2375    0.3089   25.3458 C   0  0  0  0  0  0  0  0  0  0  0  0
    9.3653    0.0751   25.9860 H   0  0  0  0  0  0  0  0  0  0  0  0
   10.9111    0.9525   25.9185 H   0  0  0  0  0  0  0  0  0  0  0  0
   10.9628   -0.8716   25.0747 O   0  0  0  0  0  0  0  0  0  0  0  0
   10.1552   -1.8878   24.5128 C   0  0  0  0  0  0  0  0  0  0  0  0
   10.8051   -2.7621   24.3930 H   0  0  0  0  0  0  0  0  0  0  0  0
    9.3498   -2.1728   25.2152 H   0  0  0  0  0  0  0  0  0  0  0  0
    9.5851   -1.4491   23.1679 C   0  0  0  0  0  0  0  0  0  0  0  0
    8.8858   -2.2049   22.7954 H   0  0  0  0  0  0  0  0  0  0  0  0
   10.4181   -1.4188   22.4554 H   0  0  0  0  0  0  0  0  0  0  0  0
    5.3107    0.6117   20.0801 C   0  0  0  0  0  0  0  0  0  0  0  0
    4.8009    0.6195   21.0477 H   0  0  0  0  0  0  0  0  0  0  0  0
    4.8326    1.3389   18.9960 C   0  0  0  0  0  0  0  0  0  0  0  0
    3.9429    1.9511   19.0760 H   0  0  0  0  0  0  0  0  0  0  0  0
  1  2  1  0
  2  3  2  0
  3  4  1  0
  4  5  1  0
  4  6  2  0
  6  7  1  0
  7  8  2  0
  7  9  2  0
  7 10  1  0
 10 11  1  0
 11 12  1  0
 11 13  1  0
 11 14  1  0
 10 15  1  0
 15 16  1  0
 15 17  1  0
 15 18  1  0
 10 19  1  0
 19 20  1  0
 19 21  1  0
 21 22  1  0
 21 23  1  0
 21 24  1  0
 24 25  1  0
 24 26  1  0
 24 27  1  0
 27 28  1  0
 28 29  1  0
 28 30  1  0
 28 31  1  0
 31 32  1  0
 31 33  1  0
  6 34  1  0
 34 35  1  0
 34 36  2  0
 36 37  1  0
 36  2  1  0
 31 19  1  0
M  END
>  <cnnaffinity>  (1) 
-4.89666

>  <filename>  (1) 
CC(C)(C1CCOCC1)S(=O)(=O)c1cccnc1

$$$$
