
     RDKit          3D

 49 51  0  0  0  0  0  0  0  0999 V2000
    8.8802    0.0226   26.1765 C   0  0  0  0  0  0  0  0  0  0  0  0
    7.8655    0.6704   25.2227 C   0  0  0  0  0  0  0  0  0  0  0  0
    6.4109    0.4060   25.6487 C   0  0  0  0  0  0  0  0  0  0  0  0
    6.1973    0.8477   26.6291 H   0  0  0  0  0  0  0  0  0  0  0  0
    6.2281   -0.6732   25.7156 H   0  0  0  0  0  0  0  0  0  0  0  0
    5.6934    0.8178   24.9283 H   0  0  0  0  0  0  0  0  0  0  0  0
    8.1153    2.1862   25.0598 C   0  0  0  0  0  0  0  0  0  0  0  0
    8.4770    2.8688   26.0029 O   0  0  0  0  0  0  0  0  0  0  0  0
    7.8958    2.7593   23.8068 N   0  0  0  0  0  0  0  0  0  0  0  0
    8.4727    4.0982   23.5975 C   0  0  0  0  0  0  0  0  0  0  0  0
    8.4289    4.3703   22.5381 H   0  0  0  0  0  0  0  0  0  0  0  0
    7.9288    4.8500   24.1797 H   0  0  0  0  0  0  0  0  0  0  0  0
    9.5234    4.1289   23.9134 H   0  0  0  0  0  0  0  0  0  0  0  0
    7.5573    1.9635   22.6187 C   0  0  0  0  0  0  0  0  0  0  0  0
    8.6619    1.0267   22.1497 C   0  0  0  0  0  0  0  0  0  0  0  0
    9.9335    1.1176   22.4745 N   0  0  0  0  0  0  0  0  0  0  0  0
   10.4661   -0.0716   22.0824 C   0  0  0  0  0  0  0  0  0  0  0  0
   11.9301   -0.3062   22.1647 C   0  0  0  0  0  0  0  0  0  0  0  0
   12.5344   -1.3952   21.4925 C   0  0  0  0  0  0  0  0  0  0  0  0
   13.8507   -1.2913   21.0415 C   0  0  0  0  0  0  0  0  0  0  0  0
   14.5309   -0.0944   21.2889 C   0  0  0  0  0  0  0  0  0  0  0  0
   15.4726    0.3560   20.3491 F   0  0  0  0  0  0  0  0  0  0  0  0
   14.0983    0.7917   22.2712 C   0  0  0  0  0  0  0  0  0  0  0  0
   12.7748    0.7014   22.6889 C   0  0  0  0  0  0  0  0  0  0  0  0
   12.3670    1.4808   23.3347 H   0  0  0  0  0  0  0  0  0  0  0  0
   14.7187    1.6443   22.5261 H   0  0  0  0  0  0  0  0  0  0  0  0
   14.2858   -2.0615   20.4165 H   0  0  0  0  0  0  0  0  0  0  0  0
   11.9367   -2.2665   21.2268 H   0  0  0  0  0  0  0  0  0  0  0  0
    9.5871   -0.8744   21.5039 N   0  0  0  0  0  0  0  0  0  0  0  0
    8.4408   -0.1534   21.5144 N   0  0  0  0  0  0  0  0  0  0  0  0
    7.2064   -0.7423   20.9967 C   0  0  0  0  0  0  0  0  0  0  0  0
    6.5246    0.0499   19.8977 C   0  0  0  0  0  0  0  0  0  0  0  0
    5.3130    0.7279   20.0795 C   0  0  0  0  0  0  0  0  0  0  0  0
    4.7408    1.3976   18.9924 C   0  0  0  0  0  0  0  0  0  0  0  0
    5.4041    1.3699   17.7637 C   0  0  0  0  0  0  0  0  0  0  0  0
    6.5648    0.7248   17.5686 N   0  0  0  0  0  0  0  0  0  0  0  0
    7.1021    0.0923   18.6176 C   0  0  0  0  0  0  0  0  0  0  0  0
    8.0391   -0.4307   18.4263 H   0  0  0  0  0  0  0  0  0  0  0  0
    4.9913    1.8864   16.8969 H   0  0  0  0  0  0  0  0  0  0  0  0
    3.8105    1.9474   19.0835 H   0  0  0  0  0  0  0  0  0  0  0  0
    4.8169    0.7273   21.0531 H   0  0  0  0  0  0  0  0  0  0  0  0
    7.4863   -1.7355   20.6298 H   0  0  0  0  0  0  0  0  0  0  0  0
    6.5146   -0.8999   21.8346 H   0  0  0  0  0  0  0  0  0  0  0  0
    6.6538    1.3648   22.8008 H   0  0  0  0  0  0  0  0  0  0  0  0
    7.2936    2.6539   21.8086 H   0  0  0  0  0  0  0  0  0  0  0  0
    8.0094    0.1999   24.2504 H   0  0  0  0  0  0  0  0  0  0  0  0
    9.9081    0.1483   25.8147 H   0  0  0  0  0  0  0  0  0  0  0  0
    8.8193    0.4558   27.1803 H   0  0  0  0  0  0  0  0  0  0  0  0
    8.6872   -1.0546   26.2519 H   0  0  0  0  0  0  0  0  0  0  0  0
  1  2  1  0
  2  3  1  0
  3  4  1  0
  3  5  1  0
  3  6  1  0
  2  7  1  0
  7  8  2  0
  7  9  1  0
  9 10  1  0
 10 11  1  0
 10 12  1  0
 10 13  1  0
  9 14  1  0
 14 15  1  0
 15 16  2  0
 16 17  1  0
 17 18  1  0
 18 19  2  0
 19 20  1  0
 20 21  2  0
 21 22  1  0
 21 23  1  0
 23 24  2  0
 24 25  1  0
 23 26  1  0
 20 27  1  0
 19 28  1  0
 17 29  2  0
 29 30  1  0
 30 31  1  0
 31 32  1  0
 32 33  2  0
 33 34  1  0
 34 35  2  0
 35 36  1  0
 36 37  2  0
 37 38  1  0
 35 39  1  0
 34 40  1  0
 33 41  1  0
 31 42  1  0
 31 43  1  0
 14 44  1  0
 14 45  1  0
  2 46  1  0
  1 47  1  0
  1 48  1  0
  1 49  1  0
 30 15  1  0
 37 32  1  0
 24 18  1  0
M  END
>  <cnnaffinity>  (1) 
-6.46695

>  <filename>  (1) 
CC(C)C(=O)N(C)Cc1nc(-c2ccc(F)cc2)nn1Cc1cccnc1

$$$$
