
     RDKit          3D

 44 46  0  0  0  0  0  0  0  0999 V2000
    7.8032   -4.0502   26.5831 C   0  0  0  0  0  0  0  0  0  0  0  0
    6.6404   -3.1819   26.0916 C   0  0  0  0  0  0  0  0  0  0  0  0
    6.0459   -2.3751   27.2487 C   0  0  0  0  0  0  0  0  0  0  0  0
    5.1819   -1.7840   26.9244 H   0  0  0  0  0  0  0  0  0  0  0  0
    6.7887   -1.6799   27.6606 H   0  0  0  0  0  0  0  0  0  0  0  0
    5.7153   -3.0323   28.0609 H   0  0  0  0  0  0  0  0  0  0  0  0
    7.0498   -2.2491   24.9447 C   0  0  0  0  0  0  0  0  0  0  0  0
    7.4083   -2.9763   23.6356 C   0  0  0  0  0  0  0  0  0  0  0  0
    7.6521   -2.0308   22.5129 C   0  0  0  0  0  0  0  0  0  0  0  0
    6.6936   -1.6074   21.7145 N   0  0  0  0  0  0  0  0  0  0  0  0
    7.3259   -0.6986   20.9313 N   0  0  0  0  0  0  0  0  0  0  0  0
    6.6463   -0.0009   19.8998 C   0  0  0  0  0  0  0  0  0  0  0  0
    5.4356    0.6459   20.1652 C   0  0  0  0  0  0  0  0  0  0  0  0
    4.8116    1.3134   19.1095 C   0  0  0  0  0  0  0  0  0  0  0  0
    5.4000    1.2950   17.8389 C   0  0  0  0  0  0  0  0  0  0  0  0
    6.5589    0.6709   17.5772 N   0  0  0  0  0  0  0  0  0  0  0  0
    7.1656    0.0490   18.5925 C   0  0  0  0  0  0  0  0  0  0  0  0
    8.1150   -0.4330   18.3675 H   0  0  0  0  0  0  0  0  0  0  0  0
    4.9174    1.7829   16.9956 H   0  0  0  0  0  0  0  0  0  0  0  0
    3.8799    1.8416   19.2620 H   0  0  0  0  0  0  0  0  0  0  0  0
    5.0135    0.6106   21.1718 H   0  0  0  0  0  0  0  0  0  0  0  0
    8.6162   -0.5893   21.3478 C   0  0  0  0  0  0  0  0  0  0  0  0
    9.6245    0.3532   20.7878 C   0  0  0  0  0  0  0  0  0  0  0  0
   10.3384    1.1468   21.8605 C   0  0  0  0  0  0  0  0  0  0  0  0
   11.5881    0.7322   22.3207 C   0  0  0  0  0  0  0  0  0  0  0  0
   12.1872    1.4071   23.3855 C   0  0  0  0  0  0  0  0  0  0  0  0
   11.4946    2.4688   23.9612 C   0  0  0  0  0  0  0  0  0  0  0  0
   10.2821    2.8741   23.5675 N   0  0  0  0  0  0  0  0  0  0  0  0
    9.7411    2.2239   22.5515 C   0  0  0  0  0  0  0  0  0  0  0  0
    8.1511    2.7385   22.0878 Cl  0  0  0  0  0  0  0  0  0  0  0  0
   11.9245    3.0312   24.7820 H   0  0  0  0  0  0  0  0  0  0  0  0
   13.1626    1.1194   23.7510 H   0  0  0  0  0  0  0  0  0  0  0  0
   12.0764   -0.1233   21.8532 H   0  0  0  0  0  0  0  0  0  0  0  0
    9.1630    1.0340   20.0702 H   0  0  0  0  0  0  0  0  0  0  0  0
   10.3271   -0.3010   20.2698 H   0  0  0  0  0  0  0  0  0  0  0  0
    8.8617   -1.4473   22.3150 N   0  0  0  0  0  0  0  0  0  0  0  0
    8.3088   -3.5829   23.7680 H   0  0  0  0  0  0  0  0  0  0  0  0
    6.5921   -3.6405   23.3445 H   0  0  0  0  0  0  0  0  0  0  0  0
    7.9022   -1.6300   25.2631 H   0  0  0  0  0  0  0  0  0  0  0  0
    6.2276   -1.5477   24.7427 H   0  0  0  0  0  0  0  0  0  0  0  0
    5.8509   -3.8507   25.7147 H   0  0  0  0  0  0  0  0  0  0  0  0
    7.5084   -4.6537   27.4491 H   0  0  0  0  0  0  0  0  0  0  0  0
    8.1621   -4.7364   25.8092 H   0  0  0  0  0  0  0  0  0  0  0  0
    8.6501   -3.4242   26.8925 H   0  0  0  0  0  0  0  0  0  0  0  0
  1  2  1  0
  2  3  1  0
  3  4  1  0
  3  5  1  0
  3  6  1  0
  2  7  1  0
  7  8  1  0
  8  9  1  0
  9 10  2  0
 10 11  1  0
 11 12  1  0
 12 13  2  0
 13 14  1  0
 14 15  2  0
 15 16  1  0
 16 17  2  0
 17 18  1  0
 15 19  1  0
 14 20  1  0
 13 21  1  0
 11 22  1  0
 22 23  1  0
 23 24  1  0
 24 25  2  0
 25 26  1  0
 26 27  2  0
 27 28  1  0
 28 29  2  0
 29 30  1  0
 27 31  1  0
 26 32  1  0
 25 33  1  0
 23 34  1  0
 23 35  1  0
 22 36  2  0
  8 37  1  0
  8 38  1  0
  7 39  1  0
  7 40  1  0
  2 41  1  0
  1 42  1  0
  1 43  1  0
  1 44  1  0
 36  9  1  0
 17 12  1  0
 29 24  1  0
M  END
>  <cnnaffinity>  (1) 
-6.29414

>  <filename>  (1) 
CC(C)CCc1nc(Cc2cccnc2Cl)n(-c2cccnc2)n1

$$$$
