
     RDKit          3D

 42 45  0  0  0  0  0  0  0  0999 V2000
    7.6119   -2.4026   25.0085 C   0  0  0  0  0  0  0  0  0  0  0  0
    7.4434   -3.0285   23.6129 C   0  0  0  0  0  0  0  0  0  0  0  0
    7.6526   -2.0333   22.5122 C   0  0  0  0  0  0  0  0  0  0  0  0
    6.6879   -1.6103   21.7190 N   0  0  0  0  0  0  0  0  0  0  0  0
    7.3185   -0.6984   20.9291 N   0  0  0  0  0  0  0  0  0  0  0  0
    6.6416   -0.0014   19.8967 C   0  0  0  0  0  0  0  0  0  0  0  0
    5.4324    0.6462   20.1627 C   0  0  0  0  0  0  0  0  0  0  0  0
    4.8099    1.3146   19.1078 C   0  0  0  0  0  0  0  0  0  0  0  0
    5.3983    1.2961   17.8373 C   0  0  0  0  0  0  0  0  0  0  0  0
    6.5565    0.6714   17.5764 N   0  0  0  0  0  0  0  0  0  0  0  0
    7.1642    0.0492   18.5905 C   0  0  0  0  0  0  0  0  0  0  0  0
    8.1139   -0.4316   18.3640 H   0  0  0  0  0  0  0  0  0  0  0  0
    4.9189    1.7848   16.9937 H   0  0  0  0  0  0  0  0  0  0  0  0
    3.8792    1.8424   19.2599 H   0  0  0  0  0  0  0  0  0  0  0  0
    5.0148    0.6072   21.1719 H   0  0  0  0  0  0  0  0  0  0  0  0
    8.6066   -0.5844   21.3470 C   0  0  0  0  0  0  0  0  0  0  0  0
    9.6284    0.3373   20.7785 C   0  0  0  0  0  0  0  0  0  0  0  0
   10.3561    1.1224   21.8473 C   0  0  0  0  0  0  0  0  0  0  0  0
   11.6149    0.7380   22.3200 C   0  0  0  0  0  0  0  0  0  0  0  0
   12.2638    1.3196   23.3308 N   0  0  0  0  0  0  0  0  0  0  0  0
   11.6484    2.3399   23.9297 C   0  0  0  0  0  0  0  0  0  0  0  0
   10.3896    2.8136   23.5821 C   0  0  0  0  0  0  0  0  0  0  0  0
    9.7414    2.1821   22.5263 C   0  0  0  0  0  0  0  0  0  0  0  0
    8.1477    2.7120   22.0924 Cl  0  0  0  0  0  0  0  0  0  0  0  0
    9.9313    3.6407   24.1049 H   0  0  0  0  0  0  0  0  0  0  0  0
   12.1872    2.8088   24.7409 H   0  0  0  0  0  0  0  0  0  0  0  0
   12.1128   -0.1089   21.8496 H   0  0  0  0  0  0  0  0  0  0  0  0
    9.1632    1.0357   20.0817 H   0  0  0  0  0  0  0  0  0  0  0  0
   10.3083   -0.3254   20.2390 H   0  0  0  0  0  0  0  0  0  0  0  0
    8.8582   -1.4463   22.3077 N   0  0  0  0  0  0  0  0  0  0  0  0
    8.3458   -4.2433   23.4312 C   0  0  0  0  0  0  0  0  0  0  0  0
    7.8679   -5.5805   23.9077 C   0  0  0  0  0  0  0  0  0  0  0  0
    7.9479   -5.2839   22.4330 C   0  0  0  0  0  0  0  0  0  0  0  0
    8.7125   -5.7873   21.8483 H   0  0  0  0  0  0  0  0  0  0  0  0
    7.0168   -5.1243   21.8919 H   0  0  0  0  0  0  0  0  0  0  0  0
    8.5822   -6.2782   24.3359 H   0  0  0  0  0  0  0  0  0  0  0  0
    6.8805   -5.6240   24.3623 H   0  0  0  0  0  0  0  0  0  0  0  0
    9.4107   -4.0355   23.5357 H   0  0  0  0  0  0  0  0  0  0  0  0
    6.4053   -3.3542   23.4973 H   0  0  0  0  0  0  0  0  0  0  0  0
    8.6395   -2.0456   25.1445 H   0  0  0  0  0  0  0  0  0  0  0  0
    6.9338   -1.5534   25.1434 H   0  0  0  0  0  0  0  0  0  0  0  0
    7.3917   -3.1406   25.7876 H   0  0  0  0  0  0  0  0  0  0  0  0
  1  2  1  0
  2  3  1  0
  3  4  2  0
  4  5  1  0
  5  6  1  0
  6  7  2  0
  7  8  1  0
  8  9  2  0
  9 10  1  0
 10 11  2  0
 11 12  1  0
  9 13  1  0
  8 14  1  0
  7 15  1  0
  5 16  1  0
 16 17  1  0
 17 18  1  0
 18 19  2  0
 19 20  1  0
 20 21  2  0
 21 22  1  0
 22 23  2  0
 23 24  1  0
 22 25  1  0
 21 26  1  0
 19 27  1  0
 17 28  1  0
 17 29  1  0
 16 30  2  0
  2 31  1  0
 31 32  1  0
 32 33  1  0
 33 34  1  0
 33 35  1  0
 32 36  1  0
 32 37  1  0
 31 38  1  0
  2 39  1  0
  1 40  1  0
  1 41  1  0
  1 42  1  0
 30  3  1  0
 33 31  1  0
 11  6  1  0
 23 18  1  0
M  END
>  <cnnaffinity>  (1) 
-6.36034

>  <filename>  (1) 
CC(c1nc(Cc2cnccc2Cl)n(-c2cccnc2)n1)C1CC1

$$$$
