
     RDKit          3D

 30 31  0  0  0  0  0  0  0  0999 V2000
    4.9645    1.7611   17.0219 H   0  0  0  0  0  0  0  0  0  0  0  0
    5.4320    1.2730   17.8763 C   0  0  0  0  0  0  0  0  0  0  0  0
    6.5895    0.6440   17.6387 N   0  0  0  0  0  0  0  0  0  0  0  0
    7.1890    0.0223   18.6521 C   0  0  0  0  0  0  0  0  0  0  0  0
    8.1319   -0.4645   18.4043 H   0  0  0  0  0  0  0  0  0  0  0  0
    6.6422    0.0111   19.9277 C   0  0  0  0  0  0  0  0  0  0  0  0
    7.4855   -0.8931   21.1617 S   0  0  0  0  0  0  0  0  0  0  0  0
    8.3843   -1.8118   20.4717 O   0  0  0  0  0  0  0  0  0  0  0  0
    6.4581   -1.3909   22.0643 O   0  0  0  0  0  0  0  0  0  0  0  0
    8.5868    0.3455   22.0759 C   0  0  0  0  0  0  0  0  0  0  0  0
    7.7315    1.4887   22.5655 C   0  0  0  0  0  0  0  0  0  0  0  0
    7.5850    2.7399   22.0494 C   0  0  0  0  0  0  0  0  0  0  0  0
    8.0525    3.2693   21.2316 H   0  0  0  0  0  0  0  0  0  0  0  0
    6.6389    3.4267   22.7265 O   0  0  0  0  0  0  0  0  0  0  0  0
    6.1676    2.6078   23.6945 C   0  0  0  0  0  0  0  0  0  0  0  0
    5.4146    3.0516   24.3257 H   0  0  0  0  0  0  0  0  0  0  0  0
    6.7861    1.4052   23.6448 C   0  0  0  0  0  0  0  0  0  0  0  0
    6.5866    0.5510   24.2784 H   0  0  0  0  0  0  0  0  0  0  0  0
    9.2400   -0.4033   23.2539 C   0  0  0  0  0  0  0  0  0  0  0  0
    9.8478    0.3016   23.8366 H   0  0  0  0  0  0  0  0  0  0  0  0
    9.8925   -1.2035   22.8869 H   0  0  0  0  0  0  0  0  0  0  0  0
    8.4866   -0.8380   23.9161 H   0  0  0  0  0  0  0  0  0  0  0  0
    9.6799    0.8436   21.1250 C   0  0  0  0  0  0  0  0  0  0  0  0
    9.2145    1.2999   20.2545 H   0  0  0  0  0  0  0  0  0  0  0  0
   10.3242    0.0222   20.7949 H   0  0  0  0  0  0  0  0  0  0  0  0
   10.2975    1.5979   21.6294 H   0  0  0  0  0  0  0  0  0  0  0  0
    5.4345    0.6554   20.2004 C   0  0  0  0  0  0  0  0  0  0  0  0
    4.9770    0.6428   21.1942 H   0  0  0  0  0  0  0  0  0  0  0  0
    4.8277    1.3078   19.1347 C   0  0  0  0  0  0  0  0  0  0  0  0
    3.8911    1.8331   19.2558 H   0  0  0  0  0  0  0  0  0  0  0  0
  1  2  1  0
  2  3  2  0
  3  4  1  0
  4  5  1  0
  4  6  2  0
  6  7  1  0
  7  8  2  0
  7  9  2  0
  7 10  1  0
 10 11  1  0
 11 12  2  0
 12 13  1  0
 12 14  1  0
 14 15  1  0
 15 16  1  0
 15 17  2  0
 17 18  1  0
 10 19  1  0
 19 20  1  0
 19 21  1  0
 19 22  1  0
 10 23  1  0
 23 24  1  0
 23 25  1  0
 23 26  1  0
  6 27  1  0
 27 28  1  0
 27 29  2  0
 29 30  1  0
 29  2  1  0
 17 11  1  0
M  END
>  <cnnaffinity>  (1) 
-4.3683

>  <filename>  (1) 
CC(C)(c1ccoc1)S(=O)(=O)c1cccnc1

$$$$
