
     RDKit          3D

 42 44  0  0  0  0  0  0  0  0999 V2000
    6.5137   -2.3787   24.7455 C   0  0  0  0  0  0  0  0  0  0  0  0
    7.4291   -2.9744   23.6465 C   0  0  0  0  0  0  0  0  0  0  0  0
    6.8655   -4.3011   23.1024 C   0  0  0  0  0  0  0  0  0  0  0  0
    5.8882   -4.1354   22.6308 H   0  0  0  0  0  0  0  0  0  0  0  0
    6.7437   -5.0292   23.9121 H   0  0  0  0  0  0  0  0  0  0  0  0
    7.5337   -4.7357   22.3498 H   0  0  0  0  0  0  0  0  0  0  0  0
    7.6697   -1.9867   22.5326 C   0  0  0  0  0  0  0  0  0  0  0  0
    6.7307   -1.5975   21.6890 N   0  0  0  0  0  0  0  0  0  0  0  0
    7.3646   -0.6534   20.9468 N   0  0  0  0  0  0  0  0  0  0  0  0
    6.6689    0.0119   19.9002 C   0  0  0  0  0  0  0  0  0  0  0  0
    5.4484    0.6419   20.1602 C   0  0  0  0  0  0  0  0  0  0  0  0
    4.8108    1.3076   19.1086 C   0  0  0  0  0  0  0  0  0  0  0  0
    5.4013    1.2942   17.8385 C   0  0  0  0  0  0  0  0  0  0  0  0
    6.5576    0.6655   17.5743 N   0  0  0  0  0  0  0  0  0  0  0  0
    7.1723    0.0465   18.5891 C   0  0  0  0  0  0  0  0  0  0  0  0
    8.1107   -0.4526   18.3512 H   0  0  0  0  0  0  0  0  0  0  0  0
    4.9307    1.8022   17.0002 H   0  0  0  0  0  0  0  0  0  0  0  0
    3.8750    1.8393   19.2589 H   0  0  0  0  0  0  0  0  0  0  0  0
    5.0220    0.5972   21.1626 H   0  0  0  0  0  0  0  0  0  0  0  0
    8.6396   -0.5004   21.4074 C   0  0  0  0  0  0  0  0  0  0  0  0
    9.5413    0.5989   20.9485 C   0  0  0  0  0  0  0  0  0  0  0  0
    9.0612    2.0042   21.3563 C   0  0  0  0  0  0  0  0  0  0  0  0
    8.9309    2.1989   22.8817 C   0  0  0  0  0  0  0  0  0  0  0  0
   10.1818    2.0270   23.6088 N   0  0  0  0  0  0  0  0  0  0  0  0
   11.2818    2.8068   23.5010 C   0  0  0  0  0  0  0  0  0  0  0  0
   12.3136    2.1416   24.1226 C   0  0  0  0  0  0  0  0  0  0  0  0
   11.7104    0.9607   24.6245 C   0  0  0  0  0  0  0  0  0  0  0  0
   10.4314    0.9114   24.3015 N   0  0  0  0  0  0  0  0  0  0  0  0
   12.1220    0.1470   25.2159 H   0  0  0  0  0  0  0  0  0  0  0  0
   13.3592    2.4142   24.1426 H   0  0  0  0  0  0  0  0  0  0  0  0
   11.1887    3.7748   23.0215 H   0  0  0  0  0  0  0  0  0  0  0  0
    8.2453    1.4600   23.3071 H   0  0  0  0  0  0  0  0  0  0  0  0
    8.5545    3.2060   23.0994 H   0  0  0  0  0  0  0  0  0  0  0  0
    9.7641    2.7407   20.9555 H   0  0  0  0  0  0  0  0  0  0  0  0
    8.0914    2.2170   20.8881 H   0  0  0  0  0  0  0  0  0  0  0  0
    9.5930    0.5305   19.8589 H   0  0  0  0  0  0  0  0  0  0  0  0
   10.5415    0.3956   21.3399 H   0  0  0  0  0  0  0  0  0  0  0  0
    8.8681   -1.3696   22.3714 N   0  0  0  0  0  0  0  0  0  0  0  0
    8.4268   -3.1396   24.0746 H   0  0  0  0  0  0  0  0  0  0  0  0
    6.9379   -1.4600   25.1701 H   0  0  0  0  0  0  0  0  0  0  0  0
    5.5226   -2.1361   24.3431 H   0  0  0  0  0  0  0  0  0  0  0  0
    6.3781   -3.0940   25.5652 H   0  0  0  0  0  0  0  0  0  0  0  0
  1  2  1  0
  2  3  1  0
  3  4  1  0
  3  5  1  0
  3  6  1  0
  2  7  1  0
  7  8  2  0
  8  9  1  0
  9 10  1  0
 10 11  2  0
 11 12  1  0
 12 13  2  0
 13 14  1  0
 14 15  2  0
 15 16  1  0
 13 17  1  0
 12 18  1  0
 11 19  1  0
  9 20  1  0
 20 21  1  0
 21 22  1  0
 22 23  1  0
 23 24  1  0
 24 25  1  0
 25 26  2  0
 26 27  1  0
 27 28  2  0
 27 29  1  0
 26 30  1  0
 25 31  1  0
 23 32  1  0
 23 33  1  0
 22 34  1  0
 22 35  1  0
 21 36  1  0
 21 37  1  0
 20 38  2  0
  2 39  1  0
  1 40  1  0
  1 41  1  0
  1 42  1  0
 38  7  1  0
 15 10  1  0
 28 24  1  0
M  END
>  <cnnaffinity>  (1) 
-5.79797

>  <filename>  (1) 
CC(C)c1nc(CCCn2cccn2)n(-c2cccnc2)n1

$$$$
