
     RDKit          3D

 35 37  0  0  0  0  0  0  0  0999 V2000
    5.0229    1.7173   16.9672 H   0  0  0  0  0  0  0  0  0  0  0  0
    5.4381    1.2333   17.8507 C   0  0  0  0  0  0  0  0  0  0  0  0
    6.5883    0.5715   17.6749 N   0  0  0  0  0  0  0  0  0  0  0  0
    7.1401   -0.0012   18.7549 C   0  0  0  0  0  0  0  0  0  0  0  0
    8.0716   -0.5311   18.5610 H   0  0  0  0  0  0  0  0  0  0  0  0
    6.6183    0.0471   20.0543 C   0  0  0  0  0  0  0  0  0  0  0  0
    7.4064   -0.4745   21.2628 C   0  0  0  0  0  0  0  0  0  0  0  0
    6.5573   -1.4551   21.9255 N   0  0  0  0  0  0  0  0  0  0  0  0
    5.5641   -1.2716   21.8775 H   0  0  0  0  0  0  0  0  0  0  0  0
    6.8398   -2.0574   23.1173 C   0  0  0  0  0  0  0  0  0  0  0  0
    5.7442   -2.6829   23.6200 O   0  0  0  0  0  0  0  0  0  0  0  0
    6.0919   -3.1579   24.8503 C   0  0  0  0  0  0  0  0  0  0  0  0
    5.2391   -3.7863   25.7487 C   0  0  0  0  0  0  0  0  0  0  0  0
    4.1993   -3.9846   25.5170 H   0  0  0  0  0  0  0  0  0  0  0  0
    5.7949   -4.1419   26.9797 C   0  0  0  0  0  0  0  0  0  0  0  0
    5.1628   -4.6047   27.7315 H   0  0  0  0  0  0  0  0  0  0  0  0
    7.1578   -3.9179   27.2628 C   0  0  0  0  0  0  0  0  0  0  0  0
    7.5535   -4.2292   28.2268 H   0  0  0  0  0  0  0  0  0  0  0  0
    7.9933   -3.3072   26.3329 C   0  0  0  0  0  0  0  0  0  0  0  0
    9.0503   -3.1725   26.5386 H   0  0  0  0  0  0  0  0  0  0  0  0
    7.4446   -2.8850   25.1073 C   0  0  0  0  0  0  0  0  0  0  0  0
    7.9194   -2.1604   23.9490 C   0  0  0  0  0  0  0  0  0  0  0  0
    8.8996   -1.7478   23.7997 H   0  0  0  0  0  0  0  0  0  0  0  0
    7.7368    0.7008   22.2027 C   0  0  0  0  0  0  0  0  0  0  0  0
    6.8289    1.2123   22.5342 H   0  0  0  0  0  0  0  0  0  0  0  0
    8.2721    0.3511   23.0903 H   0  0  0  0  0  0  0  0  0  0  0  0
    8.3694    1.4260   21.6831 H   0  0  0  0  0  0  0  0  0  0  0  0
    8.6974   -1.2025   20.8839 C   0  0  0  0  0  0  0  0  0  0  0  0
    9.1972   -1.5656   21.7820 H   0  0  0  0  0  0  0  0  0  0  0  0
    9.3899   -0.5638   20.3318 H   0  0  0  0  0  0  0  0  0  0  0  0
    8.4638   -2.0824   20.2843 H   0  0  0  0  0  0  0  0  0  0  0  0
    5.3738    0.6967   20.1973 C   0  0  0  0  0  0  0  0  0  0  0  0
    4.8677    0.7638   21.1653 H   0  0  0  0  0  0  0  0  0  0  0  0
    4.7841    1.2976   19.0848 C   0  0  0  0  0  0  0  0  0  0  0  0
    3.8453    1.8353   19.1610 H   0  0  0  0  0  0  0  0  0  0  0  0
  1  2  1  0
  2  3  2  0
  3  4  1  0
  4  5  1  0
  4  6  2  0
  6  7  1  0
  7  8  1  0
  8  9  1  0
  8 10  1  0
 10 11  1  0
 11 12  1  0
 12 13  2  0
 13 14  1  0
 13 15  1  0
 15 16  1  0
 15 17  2  0
 17 18  1  0
 17 19  1  0
 19 20  1  0
 19 21  2  0
 21 22  1  0
 22 23  1  0
  7 24  1  0
 24 25  1  0
 24 26  1  0
 24 27  1  0
  7 28  1  0
 28 29  1  0
 28 30  1  0
 28 31  1  0
  6 32  1  0
 32 33  1  0
 32 34  2  0
 34 35  1  0
 34  2  1  0
 22 10  2  0
 21 12  1  0
M  END
>  <cnnaffinity>  (1) 
-4.89645

>  <filename>  (1) 
CC(C)(Nc1cc2ccccc2o1)c1cccnc1

$$$$
