
     RDKit          3D

 47 50  0  0  0  0  0  0  0  0999 V2000
    9.3808    1.9104   21.1626 C   0  0  0  0  0  0  0  0  0  0  0  0
    8.9544    1.9507   22.6316 C   0  0  0  0  0  0  0  0  0  0  0  0
    7.5576    1.2817   22.8112 C   0  0  0  0  0  0  0  0  0  0  0  0
    7.5360   -0.1230   22.2982 C   0  0  0  0  0  0  0  0  0  0  0  0
    8.0589   -1.1150   22.9899 N   0  0  0  0  0  0  0  0  0  0  0  0
    8.0970   -2.1398   22.1035 C   0  0  0  0  0  0  0  0  0  0  0  0
    8.6435   -3.4987   22.4678 C   0  0  0  0  0  0  0  0  0  0  0  0
    7.8644   -4.6847   21.8435 C   0  0  0  0  0  0  0  0  0  0  0  0
    8.2557   -5.9006   22.6983 C   0  0  0  0  0  0  0  0  0  0  0  0
    8.5663   -5.3578   24.1134 C   0  0  0  0  0  0  0  0  0  0  0  0
    8.6690   -3.8179   23.9887 C   0  0  0  0  0  0  0  0  0  0  0  0
    7.8205   -3.3331   24.4881 H   0  0  0  0  0  0  0  0  0  0  0  0
    9.5808   -3.4274   24.4598 H   0  0  0  0  0  0  0  0  0  0  0  0
    7.7664   -5.6332   24.8104 H   0  0  0  0  0  0  0  0  0  0  0  0
    9.4885   -5.7927   24.5246 H   0  0  0  0  0  0  0  0  0  0  0  0
    7.4624   -6.6548   22.7242 H   0  0  0  0  0  0  0  0  0  0  0  0
    9.1294   -6.4045   22.2740 H   0  0  0  0  0  0  0  0  0  0  0  0
    6.7864   -4.4791   21.9468 H   0  0  0  0  0  0  0  0  0  0  0  0
    8.0780   -4.8308   20.7745 H   0  0  0  0  0  0  0  0  0  0  0  0
    9.6832   -3.4577   22.1193 H   0  0  0  0  0  0  0  0  0  0  0  0
    7.6534   -1.8388   20.8944 N   0  0  0  0  0  0  0  0  0  0  0  0
    7.2396   -0.5505   21.0327 N   0  0  0  0  0  0  0  0  0  0  0  0
    6.5768    0.0786   19.9389 C   0  0  0  0  0  0  0  0  0  0  0  0
    5.3686    0.7669   20.1106 C   0  0  0  0  0  0  0  0  0  0  0  0
    4.8025    1.3896   18.9941 C   0  0  0  0  0  0  0  0  0  0  0  0
    5.4590    1.3178   17.7637 C   0  0  0  0  0  0  0  0  0  0  0  0
    6.6003    0.6281   17.5861 N   0  0  0  0  0  0  0  0  0  0  0  0
    7.1265    0.0002   18.6444 C   0  0  0  0  0  0  0  0  0  0  0  0
    8.0211   -0.5917   18.4526 H   0  0  0  0  0  0  0  0  0  0  0  0
    5.0520    1.8085   16.8819 H   0  0  0  0  0  0  0  0  0  0  0  0
    3.8642    1.9304   19.0700 H   0  0  0  0  0  0  0  0  0  0  0  0
    4.8718    0.7961   21.0824 H   0  0  0  0  0  0  0  0  0  0  0  0
    6.7803    1.8789   22.3301 H   0  0  0  0  0  0  0  0  0  0  0  0
    7.3387    1.2237   23.8783 H   0  0  0  0  0  0  0  0  0  0  0  0
    8.9913    3.3098   23.2021 N   0  0  0  0  0  0  0  0  0  0  0  0
    8.1920    4.3623   22.8232 C   0  0  0  0  0  0  0  0  0  0  0  0
    8.5123    5.4602   23.5834 C   0  0  0  0  0  0  0  0  0  0  0  0
    9.5693    5.0743   24.4525 C   0  0  0  0  0  0  0  0  0  0  0  0
    9.8486    3.7549   24.1902 C   0  0  0  0  0  0  0  0  0  0  0  0
   10.5999    3.0966   24.6094 H   0  0  0  0  0  0  0  0  0  0  0  0
   10.0678    5.7015   25.1860 H   0  0  0  0  0  0  0  0  0  0  0  0
    8.0379    6.4342   23.5240 H   0  0  0  0  0  0  0  0  0  0  0  0
    7.4706    4.2581   22.0202 H   0  0  0  0  0  0  0  0  0  0  0  0
    9.6807    1.3735   23.2174 H   0  0  0  0  0  0  0  0  0  0  0  0
   10.3304    2.4275   21.0163 H   0  0  0  0  0  0  0  0  0  0  0  0
    9.5046    0.8740   20.8305 H   0  0  0  0  0  0  0  0  0  0  0  0
    8.6165    2.3652   20.5223 H   0  0  0  0  0  0  0  0  0  0  0  0
  1  2  1  0
  2  3  1  0
  3  4  1  0
  4  5  2  0
  5  6  1  0
  6  7  1  0
  7  8  1  0
  8  9  1  0
  9 10  1  0
 10 11  1  0
 11 12  1  0
 11 13  1  0
 10 14  1  0
 10 15  1  0
  9 16  1  0
  9 17  1  0
  8 18  1  0
  8 19  1  0
  7 20  1  0
  6 21  2  0
 21 22  1  0
 22 23  1  0
 23 24  2  0
 24 25  1  0
 25 26  2  0
 26 27  1  0
 27 28  2  0
 28 29  1  0
 26 30  1  0
 25 31  1  0
 24 32  1  0
  3 33  1  0
  3 34  1  0
  2 35  1  0
 35 36  1  0
 36 37  2  0
 37 38  1  0
 38 39  2  0
 39 40  1  0
 38 41  1  0
 37 42  1  0
 36 43  1  0
  2 44  1  0
  1 45  1  0
  1 46  1  0
  1 47  1  0
 22  4  1  0
 28 23  1  0
 39 35  1  0
 11  7  1  0
M  END
>  <cnnaffinity>  (1) 
-6.2397

>  <filename>  (1) 
CC(Cc1nc(C2CCCC2)nn1-c1cccnc1)n1cccc1

$$$$
