
     RDKit          3D

 41 44  0  0  0  0  0  0  0  0999 V2000
    8.1363    2.5120   21.6959 C   0  0  0  0  0  0  0  0  0  0  0  0
    9.4794    1.8147   21.8611 C   0  0  0  0  0  0  0  0  0  0  0  0
    9.5744    0.5274   20.9911 C   0  0  0  0  0  0  0  0  0  0  0  0
    8.6309   -0.5660   21.3692 C   0  0  0  0  0  0  0  0  0  0  0  0
    8.8715   -1.4745   22.2916 N   0  0  0  0  0  0  0  0  0  0  0  0
    7.6683   -2.0841   22.4547 C   0  0  0  0  0  0  0  0  0  0  0  0
    7.4402   -3.1065   23.5094 C   0  0  0  0  0  0  0  0  0  0  0  0
    7.7608   -2.8042   24.9587 C   0  0  0  0  0  0  0  0  0  0  0  0
    6.3264   -2.9134   24.5114 C   0  0  0  0  0  0  0  0  0  0  0  0
    5.7416   -1.9954   24.4178 H   0  0  0  0  0  0  0  0  0  0  0  0
    5.7357   -3.7819   24.7984 H   0  0  0  0  0  0  0  0  0  0  0  0
    8.2037   -3.5961   25.5622 H   0  0  0  0  0  0  0  0  0  0  0  0
    8.1575   -1.8146   25.1901 H   0  0  0  0  0  0  0  0  0  0  0  0
    7.6526   -4.1139   23.1415 H   0  0  0  0  0  0  0  0  0  0  0  0
    6.7228   -1.6750   21.6260 N   0  0  0  0  0  0  0  0  0  0  0  0
    7.3484   -0.7009   20.9150 N   0  0  0  0  0  0  0  0  0  0  0  0
    6.6545   -0.0032   19.8899 C   0  0  0  0  0  0  0  0  0  0  0  0
    5.4408    0.6379   20.1565 C   0  0  0  0  0  0  0  0  0  0  0  0
    4.8071    1.3114   19.1063 C   0  0  0  0  0  0  0  0  0  0  0  0
    5.3965    1.2978   17.8365 C   0  0  0  0  0  0  0  0  0  0  0  0
    6.5517    0.6692   17.5721 N   0  0  0  0  0  0  0  0  0  0  0  0
    7.1636    0.0430   18.5824 C   0  0  0  0  0  0  0  0  0  0  0  0
    8.1062   -0.4485   18.3495 H   0  0  0  0  0  0  0  0  0  0  0  0
    4.9278    1.8040   16.9956 H   0  0  0  0  0  0  0  0  0  0  0  0
    3.8733    1.8441   19.2558 H   0  0  0  0  0  0  0  0  0  0  0  0
    5.0142    0.5967   21.1606 H   0  0  0  0  0  0  0  0  0  0  0  0
    9.3846    0.8078   19.9561 H   0  0  0  0  0  0  0  0  0  0  0  0
   10.5810    0.1090   21.0473 H   0  0  0  0  0  0  0  0  0  0  0  0
    9.7831    1.5752   23.2673 N   0  0  0  0  0  0  0  0  0  0  0  0
    8.9020    1.1797   24.2403 C   0  0  0  0  0  0  0  0  0  0  0  0
    9.6025    0.9037   25.3843 C   0  0  0  0  0  0  0  0  0  0  0  0
   10.9765    1.1061   25.0875 C   0  0  0  0  0  0  0  0  0  0  0  0
   11.0500    1.5234   23.7876 C   0  0  0  0  0  0  0  0  0  0  0  0
   11.8981    1.7796   23.1709 H   0  0  0  0  0  0  0  0  0  0  0  0
   11.8251    0.8810   25.7099 H   0  0  0  0  0  0  0  0  0  0  0  0
    9.1760    0.5460   26.3156 H   0  0  0  0  0  0  0  0  0  0  0  0
    7.8616    1.0364   23.9850 H   0  0  0  0  0  0  0  0  0  0  0  0
   10.2754    2.4867   21.5137 H   0  0  0  0  0  0  0  0  0  0  0  0
    8.1330    3.4751   22.2171 H   0  0  0  0  0  0  0  0  0  0  0  0
    7.9703    2.6406   20.6316 H   0  0  0  0  0  0  0  0  0  0  0  0
    7.3084    1.9080   22.0851 H   0  0  0  0  0  0  0  0  0  0  0  0
  1  2  1  0
  2  3  1  0
  3  4  1  0
  4  5  2  0
  5  6  1  0
  6  7  1  0
  7  8  1  0
  8  9  1  0
  9 10  1  0
  9 11  1  0
  8 12  1  0
  8 13  1  0
  7 14  1  0
  6 15  2  0
 15 16  1  0
 16 17  1  0
 17 18  2  0
 18 19  1  0
 19 20  2  0
 20 21  1  0
 21 22  2  0
 22 23  1  0
 20 24  1  0
 19 25  1  0
 18 26  1  0
  3 27  1  0
  3 28  1  0
  2 29  1  0
 29 30  1  0
 30 31  2  0
 31 32  1  0
 32 33  2  0
 33 34  1  0
 32 35  1  0
 31 36  1  0
 30 37  1  0
  2 38  1  0
  1 39  1  0
  1 40  1  0
  1 41  1  0
 16  4  1  0
 22 17  1  0
 33 29  1  0
  9  7  1  0
M  END
>  <cnnaffinity>  (1) 
-5.70565

>  <filename>  (1) 
CC(Cc1nc(C2CC2)nn1-c1cccnc1)n1cccc1

$$$$
