
     RDKit          3D

 42 44  0  0  0  0  0  0  0  0999 V2000
    8.4366   -4.0747   23.9269 C   0  0  0  0  0  0  0  0  0  0  0  0
    7.3034   -3.0434   23.7617 C   0  0  0  0  0  0  0  0  0  0  0  0
    7.2013   -2.1564   25.0284 C   0  0  0  0  0  0  0  0  0  0  0  0
    6.3804   -1.4334   24.9521 H   0  0  0  0  0  0  0  0  0  0  0  0
    7.0303   -2.7730   25.9180 H   0  0  0  0  0  0  0  0  0  0  0  0
    8.1399   -1.6015   25.1733 H   0  0  0  0  0  0  0  0  0  0  0  0
    7.5388   -2.1667   22.5610 C   0  0  0  0  0  0  0  0  0  0  0  0
    6.6092   -1.7603   21.7178 N   0  0  0  0  0  0  0  0  0  0  0  0
    7.2719   -0.8416   20.9552 N   0  0  0  0  0  0  0  0  0  0  0  0
    6.6078   -0.1388   19.9093 C   0  0  0  0  0  0  0  0  0  0  0  0
    5.4057    0.5371   20.1502 C   0  0  0  0  0  0  0  0  0  0  0  0
    4.8419    1.2790   19.1077 C   0  0  0  0  0  0  0  0  0  0  0  0
    5.4710    1.2878   17.8575 C   0  0  0  0  0  0  0  0  0  0  0  0
    6.5958    0.6016   17.6052 N   0  0  0  0  0  0  0  0  0  0  0  0
    7.1457   -0.0915   18.6089 C   0  0  0  0  0  0  0  0  0  0  0  0
    8.0554   -0.6413   18.3716 H   0  0  0  0  0  0  0  0  0  0  0  0
    5.0517    1.8515   17.0249 H   0  0  0  0  0  0  0  0  0  0  0  0
    3.9354    1.8545   19.2552 H   0  0  0  0  0  0  0  0  0  0  0  0
    4.9429    0.4709   21.1349 H   0  0  0  0  0  0  0  0  0  0  0  0
    8.5469   -0.7155   21.4322 C   0  0  0  0  0  0  0  0  0  0  0  0
    9.4855    0.3967   21.1435 C   0  0  0  0  0  0  0  0  0  0  0  0
    9.1666    1.7201   21.8888 C   0  0  0  0  0  0  0  0  0  0  0  0
   10.3365    2.6830   21.7290 C   0  0  0  0  0  0  0  0  0  0  0  0
   10.0617    3.6770   22.0970 H   0  0  0  0  0  0  0  0  0  0  0  0
   11.2317    2.3399   22.2607 H   0  0  0  0  0  0  0  0  0  0  0  0
   10.6104    2.7414   20.6730 H   0  0  0  0  0  0  0  0  0  0  0  0
    8.8173    1.5506   23.3117 N   0  0  0  0  0  0  0  0  0  0  0  0
    7.5566    1.7222   23.8550 C   0  0  0  0  0  0  0  0  0  0  0  0
    7.7204    1.7192   25.2138 C   0  0  0  0  0  0  0  0  0  0  0  0
    9.0375    1.5036   25.5292 N   0  0  0  0  0  0  0  0  0  0  0  0
    9.6566    1.3807   24.3799 C   0  0  0  0  0  0  0  0  0  0  0  0
   10.7032    1.1253   24.2675 H   0  0  0  0  0  0  0  0  0  0  0  0
    6.9690    1.8691   25.9814 H   0  0  0  0  0  0  0  0  0  0  0  0
    6.6795    1.7472   23.2281 H   0  0  0  0  0  0  0  0  0  0  0  0
    8.2647    2.1562   21.4351 H   0  0  0  0  0  0  0  0  0  0  0  0
    9.5018    0.6013   20.0707 H   0  0  0  0  0  0  0  0  0  0  0  0
   10.4776    0.0456   21.4306 H   0  0  0  0  0  0  0  0  0  0  0  0
    8.7588   -1.5922   22.3876 N   0  0  0  0  0  0  0  0  0  0  0  0
    6.3459   -3.5514   23.5907 H   0  0  0  0  0  0  0  0  0  0  0  0
    8.5654   -4.6888   23.0287 H   0  0  0  0  0  0  0  0  0  0  0  0
    9.3910   -3.5675   24.1218 H   0  0  0  0  0  0  0  0  0  0  0  0
    8.2246   -4.7368   24.7741 H   0  0  0  0  0  0  0  0  0  0  0  0
  1  2  1  0
  2  3  1  0
  3  4  1  0
  3  5  1  0
  3  6  1  0
  2  7  1  0
  7  8  2  0
  8  9  1  0
  9 10  1  0
 10 11  2  0
 11 12  1  0
 12 13  2  0
 13 14  1  0
 14 15  2  0
 15 16  1  0
 13 17  1  0
 12 18  1  0
 11 19  1  0
  9 20  1  0
 20 21  1  0
 21 22  1  0
 22 23  1  0
 23 24  1  0
 23 25  1  0
 23 26  1  0
 22 27  1  0
 27 28  1  0
 28 29  2  0
 29 30  1  0
 30 31  2  0
 31 32  1  0
 29 33  1  0
 28 34  1  0
 22 35  1  0
 21 36  1  0
 21 37  1  0
 20 38  2  0
  2 39  1  0
  1 40  1  0
  1 41  1  0
  1 42  1  0
 38  7  1  0
 15 10  1  0
 31 27  1  0
M  END
>  <cnnaffinity>  (1) 
-5.66482

>  <filename>  (1) 
CC(C)c1nc(CC(C)n2ccnc2)n(-c2cccnc2)n1

$$$$
