
     RDKit          3D

 43 45  0  0  0  0  0  0  0  0999 V2000
    8.3314   -4.3613   23.3833 C   0  0  0  0  0  0  0  0  0  0  0  0
    7.3723   -3.1723   23.5776 C   0  0  0  0  0  0  0  0  0  0  0  0
    7.5572   -2.5341   24.9747 C   0  0  0  0  0  0  0  0  0  0  0  0
    6.8894   -1.6783   25.1262 H   0  0  0  0  0  0  0  0  0  0  0  0
    7.3571   -3.2645   25.7659 H   0  0  0  0  0  0  0  0  0  0  0  0
    8.5870   -2.1727   25.1025 H   0  0  0  0  0  0  0  0  0  0  0  0
    7.5842   -2.1545   22.4942 C   0  0  0  0  0  0  0  0  0  0  0  0
    6.6324   -1.6467   21.7409 N   0  0  0  0  0  0  0  0  0  0  0  0
    7.2961   -0.7364   20.9791 N   0  0  0  0  0  0  0  0  0  0  0  0
    6.6399   -0.0471   19.9247 C   0  0  0  0  0  0  0  0  0  0  0  0
    5.4318    0.6124   20.1733 C   0  0  0  0  0  0  0  0  0  0  0  0
    4.8211    1.2991   19.1206 C   0  0  0  0  0  0  0  0  0  0  0  0
    5.4314    1.2869   17.8603 C   0  0  0  0  0  0  0  0  0  0  0  0
    6.5868    0.6509   17.6111 N   0  0  0  0  0  0  0  0  0  0  0  0
    7.1788    0.0095   18.6236 C   0  0  0  0  0  0  0  0  0  0  0  0
    8.1362   -0.4578   18.3886 H   0  0  0  0  0  0  0  0  0  0  0  0
    4.9735    1.8018   17.0185 H   0  0  0  0  0  0  0  0  0  0  0  0
    3.8900    1.8373   19.2644 H   0  0  0  0  0  0  0  0  0  0  0  0
    5.0086    0.5796   21.1781 H   0  0  0  0  0  0  0  0  0  0  0  0
    8.5989   -0.6951   21.3811 C   0  0  0  0  0  0  0  0  0  0  0  0
    9.5620    0.3319   20.8416 C   0  0  0  0  0  0  0  0  0  0  0  0
    8.9272    1.5560   20.5510 O   0  0  0  0  0  0  0  0  0  0  0  0
    8.6845    1.9913   21.3843 H   0  0  0  0  0  0  0  0  0  0  0  0
   10.8493    0.5319   21.6830 C   0  0  0  0  0  0  0  0  0  0  0  0
   10.6671    1.3249   22.9603 C   0  0  0  0  0  0  0  0  0  0  0  0
   10.2540    0.6852   24.1496 C   0  0  0  0  0  0  0  0  0  0  0  0
    9.8411    1.4289   25.2649 C   0  0  0  0  0  0  0  0  0  0  0  0
    9.7771    2.8247   25.1856 C   0  0  0  0  0  0  0  0  0  0  0  0
   10.3108    3.4811   24.0733 C   0  0  0  0  0  0  0  0  0  0  0  0
   10.8326    2.7252   23.0191 C   0  0  0  0  0  0  0  0  0  0  0  0
   11.7798    3.5743   21.8210 Cl  0  0  0  0  0  0  0  0  0  0  0  0
   10.3280    4.5631   24.0052 H   0  0  0  0  0  0  0  0  0  0  0  0
    9.3412    3.4047   26.0024 H   0  0  0  0  0  0  0  0  0  0  0  0
    9.5672    0.9213   26.1858 H   0  0  0  0  0  0  0  0  0  0  0  0
   10.2315   -0.4048   24.1725 H   0  0  0  0  0  0  0  0  0  0  0  0
   11.5587    1.0560   21.0349 H   0  0  0  0  0  0  0  0  0  0  0  0
   11.2690   -0.4518   21.9165 H   0  0  0  0  0  0  0  0  0  0  0  0
    9.8668   -0.0917   19.8803 H   0  0  0  0  0  0  0  0  0  0  0  0
    8.8250   -1.6452   22.2669 N   0  0  0  0  0  0  0  0  0  0  0  0
    6.3339   -3.5033   23.4724 H   0  0  0  0  0  0  0  0  0  0  0  0
    9.3705   -4.0281   23.4910 H   0  0  0  0  0  0  0  0  0  0  0  0
    8.1432   -5.1456   24.1241 H   0  0  0  0  0  0  0  0  0  0  0  0
    8.2304   -4.7965   22.3836 H   0  0  0  0  0  0  0  0  0  0  0  0
  1  2  1  0
  2  3  1  0
  3  4  1  0
  3  5  1  0
  3  6  1  0
  2  7  1  0
  7  8  2  0
  8  9  1  0
  9 10  1  0
 10 11  2  0
 11 12  1  0
 12 13  2  0
 13 14  1  0
 14 15  2  0
 15 16  1  0
 13 17  1  0
 12 18  1  0
 11 19  1  0
  9 20  1  0
 20 21  1  0
 21 22  1  0
 22 23  1  0
 21 24  1  0
 24 25  1  0
 25 26  2  0
 26 27  1  0
 27 28  2  0
 28 29  1  0
 29 30  2  0
 30 31  1  0
 29 32  1  0
 28 33  1  0
 27 34  1  0
 26 35  1  0
 24 36  1  0
 24 37  1  0
 21 38  1  0
 20 39  2  0
  2 40  1  0
  1 41  1  0
  1 42  1  0
  1 43  1  0
 39  7  1  0
 15 10  1  0
 30 25  1  0
M  END
>  <cnnaffinity>  (1) 
-6.09839

>  <filename>  (1) 
CC(C)c1nc(C(O)Cc2ccccc2Cl)n(-c2cccnc2)n1

$$$$
