
     RDKit          3D

 40 42  0  0  0  0  0  0  0  0999 V2000
    5.0043    1.7465   17.0348 H   0  0  0  0  0  0  0  0  0  0  0  0
    5.4489    1.2549   17.8974 C   0  0  0  0  0  0  0  0  0  0  0  0
    6.6026    0.6052   17.6787 N   0  0  0  0  0  0  0  0  0  0  0  0
    7.1860    0.0080   18.7172 C   0  0  0  0  0  0  0  0  0  0  0  0
    8.1159   -0.5222   18.5064 H   0  0  0  0  0  0  0  0  0  0  0  0
    6.6454    0.0600   20.0014 C   0  0  0  0  0  0  0  0  0  0  0  0
    7.4707   -0.8987   21.2287 S   0  0  0  0  0  0  0  0  0  0  0  0
    8.2126   -1.9093   20.4790 O   0  0  0  0  0  0  0  0  0  0  0  0
    6.4882   -1.2980   22.2210 O   0  0  0  0  0  0  0  0  0  0  0  0
    8.8001    0.1808   21.9771 C   0  0  0  0  0  0  0  0  0  0  0  0
    9.5794    0.7992   20.8074 C   0  0  0  0  0  0  0  0  0  0  0  0
   10.4551    1.3458   21.1776 H   0  0  0  0  0  0  0  0  0  0  0  0
    8.9451    1.5033   20.2618 H   0  0  0  0  0  0  0  0  0  0  0  0
    9.9161    0.0013   20.1388 H   0  0  0  0  0  0  0  0  0  0  0  0
    9.7444   -0.7443   22.7779 C   0  0  0  0  0  0  0  0  0  0  0  0
   10.5472   -0.1636   23.2413 H   0  0  0  0  0  0  0  0  0  0  0  0
    9.2344   -1.2986   23.5735 H   0  0  0  0  0  0  0  0  0  0  0  0
   10.2018   -1.4766   22.1069 H   0  0  0  0  0  0  0  0  0  0  0  0
    8.1697    1.3157   22.7973 C   0  0  0  0  0  0  0  0  0  0  0  0
    7.3949    1.8284   22.2136 H   0  0  0  0  0  0  0  0  0  0  0  0
    8.9660    2.0428   23.0254 H   0  0  0  0  0  0  0  0  0  0  0  0
    7.5918    0.8807   24.0459 N   0  0  0  0  0  0  0  0  0  0  0  0
    6.2327    0.9357   24.3381 C   0  0  0  0  0  0  0  0  0  0  0  0
    5.3586    1.1972   23.5471 O   0  0  0  0  0  0  0  0  0  0  0  0
    6.1059    0.7168   25.8096 C   0  0  0  0  0  0  0  0  0  0  0  0
    4.9746    0.6339   26.6207 C   0  0  0  0  0  0  0  0  0  0  0  0
    3.9735    0.6842   26.2012 H   0  0  0  0  0  0  0  0  0  0  0  0
    5.1701    0.4902   27.9985 C   0  0  0  0  0  0  0  0  0  0  0  0
    4.3119    0.4335   28.6637 H   0  0  0  0  0  0  0  0  0  0  0  0
    6.4708    0.4326   28.5429 C   0  0  0  0  0  0  0  0  0  0  0  0
    6.5922    0.3264   29.6187 H   0  0  0  0  0  0  0  0  0  0  0  0
    7.5987    0.5155   27.7214 C   0  0  0  0  0  0  0  0  0  0  0  0
    8.5987    0.4737   28.1470 H   0  0  0  0  0  0  0  0  0  0  0  0
    7.3892    0.6533   26.3465 C   0  0  0  0  0  0  0  0  0  0  0  0
    8.3502    0.8109   25.2209 C   0  0  0  0  0  0  0  0  0  0  0  0
    9.5527    0.9166   25.2624 O   0  0  0  0  0  0  0  0  0  0  0  0
    5.4272    0.6967   20.2409 C   0  0  0  0  0  0  0  0  0  0  0  0
    4.9617    0.7071   21.2319 H   0  0  0  0  0  0  0  0  0  0  0  0
    4.8196    1.3107   19.1455 C   0  0  0  0  0  0  0  0  0  0  0  0
    3.8772    1.8396   19.2538 H   0  0  0  0  0  0  0  0  0  0  0  0
  1  2  1  0
  2  3  2  0
  3  4  1  0
  4  5  1  0
  4  6  2  0
  6  7  1  0
  7  8  2  0
  7  9  2  0
  7 10  1  0
 10 11  1  0
 11 12  1  0
 11 13  1  0
 11 14  1  0
 10 15  1  0
 15 16  1  0
 15 17  1  0
 15 18  1  0
 10 19  1  0
 19 20  1  0
 19 21  1  0
 19 22  1  0
 22 23  1  0
 23 24  2  0
 23 25  1  0
 25 26  2  0
 26 27  1  0
 26 28  1  0
 28 29  1  0
 28 30  2  0
 30 31  1  0
 30 32  1  0
 32 33  1  0
 32 34  2  0
 34 35  1  0
 35 36  2  0
  6 37  1  0
 37 38  1  0
 37 39  2  0
 39 40  1  0
 39  2  1  0
 35 22  1  0
 34 25  1  0
M  END
>  <cnnaffinity>  (1) 
-5.24645

>  <filename>  (1) 
CC(C)(CN1C(=O)c2ccccc2C1=O)S(=O)(=O)c1cccnc1

$$$$
