
     RDKit          3D

 44 47  0  0  0  0  0  0  0  0999 V2000
    8.1360    2.5074   21.7189 C   0  0  0  0  0  0  0  0  0  0  0  0
    9.4806    1.8138   21.8752 C   0  0  0  0  0  0  0  0  0  0  0  0
    9.5763    0.5337   20.9941 C   0  0  0  0  0  0  0  0  0  0  0  0
    8.6347   -0.5653   21.3680 C   0  0  0  0  0  0  0  0  0  0  0  0
    8.8742   -1.4752   22.2886 N   0  0  0  0  0  0  0  0  0  0  0  0
    7.6709   -2.0844   22.4482 C   0  0  0  0  0  0  0  0  0  0  0  0
    7.4234   -3.1022   23.5005 C   0  0  2  0  0  0  0  0  0  0  0  0
    6.2873   -2.9064   24.4774 C   0  0  0  0  0  0  0  0  0  0  0  0
    7.7078   -2.8023   24.9579 C   0  0  1  0  0  0  0  0  0  0  0  0
    8.2728   -3.8841   25.8555 C   0  0  0  0  0  0  0  0  0  0  0  0
    9.3677   -3.9262   25.8121 H   0  0  0  0  0  0  0  0  0  0  0  0
    7.8872   -4.8731   25.5770 H   0  0  0  0  0  0  0  0  0  0  0  0
    7.9889   -3.7026   26.8989 H   0  0  0  0  0  0  0  0  0  0  0  0
    8.0807   -1.7955   25.1691 H   0  0  0  0  0  0  0  0  0  0  0  0
    5.6991   -1.9955   24.3780 H   0  0  0  0  0  0  0  0  0  0  0  0
    5.7030   -3.7751   24.7750 H   0  0  0  0  0  0  0  0  0  0  0  0
    7.6641   -4.1054   23.1433 H   0  0  0  0  0  0  0  0  0  0  0  0
    6.7254   -1.6697   21.6214 N   0  0  0  0  0  0  0  0  0  0  0  0
    7.3526   -0.6978   20.9118 N   0  0  0  0  0  0  0  0  0  0  0  0
    6.6568   -0.0017   19.8866 C   0  0  0  0  0  0  0  0  0  0  0  0
    5.4418    0.6380   20.1553 C   0  0  0  0  0  0  0  0  0  0  0  0
    4.8067    1.3113   19.1041 C   0  0  0  0  0  0  0  0  0  0  0  0
    5.3968    1.2988   17.8341 C   0  0  0  0  0  0  0  0  0  0  0  0
    6.5508    0.6678   17.5658 N   0  0  0  0  0  0  0  0  0  0  0  0
    7.1618    0.0420   18.5779 C   0  0  0  0  0  0  0  0  0  0  0  0
    8.1028   -0.4529   18.3463 H   0  0  0  0  0  0  0  0  0  0  0  0
    4.9270    1.8080   16.9950 H   0  0  0  0  0  0  0  0  0  0  0  0
    3.8714    1.8450   19.2562 H   0  0  0  0  0  0  0  0  0  0  0  0
    5.0127    0.5968   21.1580 H   0  0  0  0  0  0  0  0  0  0  0  0
   10.5833    0.1140   21.0472 H   0  0  0  0  0  0  0  0  0  0  0  0
    9.3822    0.8208   19.9609 H   0  0  0  0  0  0  0  0  0  0  0  0
    9.7896    1.5654   23.2802 N   0  0  0  0  0  0  0  0  0  0  0  0
   11.0596    1.5002   23.7899 C   0  0  0  0  0  0  0  0  0  0  0  0
   10.9910    1.0700   25.0891 C   0  0  0  0  0  0  0  0  0  0  0  0
    9.6171    0.8714   25.3913 C   0  0  0  0  0  0  0  0  0  0  0  0
    8.9102    1.1644   24.2543 C   0  0  0  0  0  0  0  0  0  0  0  0
    7.8672    1.0362   24.0023 H   0  0  0  0  0  0  0  0  0  0  0  0
    9.1910    0.5177   26.3255 H   0  0  0  0  0  0  0  0  0  0  0  0
   11.8422    0.8344   25.7059 H   0  0  0  0  0  0  0  0  0  0  0  0
   11.9042    1.7560   23.1684 H   0  0  0  0  0  0  0  0  0  0  0  0
   10.2742    2.4894   21.5300 H   0  0  0  0  0  0  0  0  0  0  0  0
    7.3110    1.8988   22.1030 H   0  0  0  0  0  0  0  0  0  0  0  0
    8.1280    3.4669   22.2448 H   0  0  0  0  0  0  0  0  0  0  0  0
    7.9614    2.6470   20.6567 H   0  0  0  0  0  0  0  0  0  0  0  0
  1  2  1  0
  2  3  1  0
  3  4  1  0
  4  5  2  0
  5  6  1  0
  6  7  1  0
  7  8  1  0
  8  9  1  0
  9 10  1  0
 10 11  1  0
 10 12  1  0
 10 13  1  0
  9 14  1  6
  8 15  1  0
  8 16  1  0
  7 17  1  6
  6 18  2  0
 18 19  1  0
 19 20  1  0
 20 21  2  0
 21 22  1  0
 22 23  2  0
 23 24  1  0
 24 25  2  0
 25 26  1  0
 23 27  1  0
 22 28  1  0
 21 29  1  0
  3 30  1  0
  3 31  1  0
  2 32  1  0
 32 33  1  0
 33 34  2  0
 34 35  1  0
 35 36  2  0
 36 37  1  0
 35 38  1  0
 34 39  1  0
 33 40  1  0
  2 41  1  0
  1 42  1  0
  1 43  1  0
  1 44  1  0
 19  4  1  0
 25 20  1  0
 36 32  1  0
  9  7  1  0
M  END
>  <cnnaffinity>  (1) 
-5.93345

>  <filename>  (1) 
CC(Cc1nc([C@@H]2C[C@H]2C)nn1-c1cccnc1)n1cccc1

$$$$
