
     RDKit          3D

 31 32  0  0  0  0  0  0  0  0999 V2000
    5.0147    1.9343   16.9985 H   0  0  0  0  0  0  0  0  0  0  0  0
    5.4858    1.3332   17.7728 C   0  0  0  0  0  0  0  0  0  0  0  0
    6.6264    0.7108   17.4284 N   0  0  0  0  0  0  0  0  0  0  0  0
    7.2504   -0.0015   18.3733 C   0  0  0  0  0  0  0  0  0  0  0  0
    8.1865   -0.4716   18.0747 H   0  0  0  0  0  0  0  0  0  0  0  0
    6.7608   -0.1675   19.6874 C   0  0  0  0  0  0  0  0  0  0  0  0
    7.4913   -0.9002   20.6725 N   0  0  0  0  0  0  0  0  0  0  0  0
    8.8084   -0.6247   21.0407 C   0  0  0  0  0  0  0  0  0  0  0  0
    9.3622    0.1381   20.5130 H   0  0  0  0  0  0  0  0  0  0  0  0
    9.1435   -1.4026   22.0972 C   0  0  0  0  0  0  0  0  0  0  0  0
   10.3885   -1.4536   22.9180 C   0  0  0  0  0  0  0  0  0  0  0  0
   11.2479   -1.4611   22.2340 H   0  0  0  0  0  0  0  0  0  0  0  0
   10.4274   -2.4129   23.4500 H   0  0  0  0  0  0  0  0  0  0  0  0
   10.5610   -0.2953   23.9380 C   0  0  0  0  0  0  0  0  0  0  0  0
   11.5634   -0.4174   24.3691 H   0  0  0  0  0  0  0  0  0  0  0  0
   10.5436    1.0860   23.2737 C   0  0  0  0  0  0  0  0  0  0  0  0
   11.2956    1.1512   22.4795 H   0  0  0  0  0  0  0  0  0  0  0  0
   10.7656    1.8733   24.0022 H   0  0  0  0  0  0  0  0  0  0  0  0
    9.5681    1.3162   22.8276 H   0  0  0  0  0  0  0  0  0  0  0  0
    9.5557   -0.3802   25.0924 C   0  0  0  0  0  0  0  0  0  0  0  0
    9.8253    0.3030   25.9067 H   0  0  0  0  0  0  0  0  0  0  0  0
    8.5402   -0.1205   24.7691 H   0  0  0  0  0  0  0  0  0  0  0  0
    9.5231   -1.3862   25.5249 H   0  0  0  0  0  0  0  0  0  0  0  0
    8.0226   -2.1844   22.3505 N   0  0  0  0  0  0  0  0  0  0  0  0
    7.8256   -2.8232   23.0965 H   0  0  0  0  0  0  0  0  0  0  0  0
    6.9670   -1.8808   21.5275 C   0  0  0  0  0  0  0  0  0  0  0  0
    5.8684   -2.3995   21.5663 O   0  0  0  0  0  0  0  0  0  0  0  0
    5.5518    0.4586   20.0204 C   0  0  0  0  0  0  0  0  0  0  0  0
    5.1484    0.3340   21.0250 H   0  0  0  0  0  0  0  0  0  0  0  0
    4.9147    1.2350   19.0474 C   0  0  0  0  0  0  0  0  0  0  0  0
    4.0008    1.7765   19.2723 H   0  0  0  0  0  0  0  0  0  0  0  0
  1  2  1  0
  2  3  2  0
  3  4  1  0
  4  5  1  0
  4  6  2  0
  6  7  1  0
  7  8  1  0
  8  9  1  0
  8 10  2  0
 10 11  1  0
 11 12  1  0
 11 13  1  0
 11 14  1  0
 14 15  1  0
 14 16  1  0
 16 17  1  0
 16 18  1  0
 16 19  1  0
 14 20  1  0
 20 21  1  0
 20 22  1  0
 20 23  1  0
 10 24  1  0
 24 25  1  0
 24 26  1  0
 26 27  2  0
  6 28  1  0
 28 29  1  0
 28 30  2  0
 30 31  1  0
 30  2  1  0
 26  7  1  0
M  END
>  <cnnaffinity>  (1) 
-5.1875

>  <filename>  (1) 
CC(C)Cc1cn(-c2cccnc2)c(=O)[nH]1

$$$$
