
     RDKit          3D

 42 45  0  0  0  0  0  0  0  0999 V2000
    6.9725   -4.8624   23.0509 C   0  0  0  0  0  0  0  0  0  0  0  0
    7.3338   -3.4844   23.6422 C   0  0  0  0  0  0  0  0  0  0  0  0
    7.6738   -2.4302   22.6160 C   0  0  0  0  0  0  0  0  0  0  0  0
    6.9155   -2.1105   21.5905 N   0  0  0  0  0  0  0  0  0  0  0  0
    7.5603   -1.0387   21.0434 N   0  0  0  0  0  0  0  0  0  0  0  0
    6.8677   -0.3495   19.9816 C   0  0  0  0  0  0  0  0  0  0  0  0
    5.6457    0.2857   20.2343 C   0  0  0  0  0  0  0  0  0  0  0  0
    5.0257    0.9743   19.1849 C   0  0  0  0  0  0  0  0  0  0  0  0
    5.6181    0.9560   17.9187 C   0  0  0  0  0  0  0  0  0  0  0  0
    6.7525    0.2901   17.6591 N   0  0  0  0  0  0  0  0  0  0  0  0
    7.3595   -0.3484   18.6699 C   0  0  0  0  0  0  0  0  0  0  0  0
    8.2777   -0.8823   18.4240 H   0  0  0  0  0  0  0  0  0  0  0  0
    5.1602    1.4830   17.0804 H   0  0  0  0  0  0  0  0  0  0  0  0
    4.0953    1.5137   19.3317 H   0  0  0  0  0  0  0  0  0  0  0  0
    5.2097    0.2596   21.2347 H   0  0  0  0  0  0  0  0  0  0  0  0
    8.6832   -0.7765   21.7963 C   0  0  0  0  0  0  0  0  0  0  0  0
    9.7117    0.3140   21.6574 C   0  0  0  0  0  0  0  0  0  0  0  0
    9.2862    1.5990   22.3349 C   0  0  0  0  0  0  0  0  0  0  0  0
    9.6288    1.9264   23.6200 C   0  0  0  0  0  0  0  0  0  0  0  0
    9.0273    3.0863   24.2409 C   0  0  0  0  0  0  0  0  0  0  0  0
    8.1533    3.8466   23.6332 N   0  0  0  0  0  0  0  0  0  0  0  0
    7.8410    3.5167   22.3503 N   0  0  0  0  0  0  0  0  0  0  0  0
    8.3236    2.4483   21.6068 C   0  0  0  0  0  0  0  0  0  0  0  0
    7.9256    2.2352   20.4768 O   0  0  0  0  0  0  0  0  0  0  0  0
    7.1484    4.0587   21.8366 H   0  0  0  0  0  0  0  0  0  0  0  0
    9.2752    3.3790   25.2594 H   0  0  0  0  0  0  0  0  0  0  0  0
   10.3257    1.3217   24.1967 H   0  0  0  0  0  0  0  0  0  0  0  0
   10.6285   -0.0680   22.1251 H   0  0  0  0  0  0  0  0  0  0  0  0
    9.9150    0.4891   20.6012 H   0  0  0  0  0  0  0  0  0  0  0  0
    8.7679   -1.6445   22.7813 N   0  0  0  0  0  0  0  0  0  0  0  0
    6.3148   -2.9014   24.6448 C   0  0  0  0  0  0  0  0  0  0  0  0
    6.1099   -3.5523   25.9860 C   0  0  0  0  0  0  0  0  0  0  0  0
    4.9837   -3.5118   24.9909 C   0  0  0  0  0  0  0  0  0  0  0  0
    4.1616   -2.8280   25.1837 H   0  0  0  0  0  0  0  0  0  0  0  0
    4.6828   -4.4390   24.5049 H   0  0  0  0  0  0  0  0  0  0  0  0
    6.5936   -4.5069   26.1784 H   0  0  0  0  0  0  0  0  0  0  0  0
    6.0604   -2.9094   26.8593 H   0  0  0  0  0  0  0  0  0  0  0  0
    6.3294   -1.8093   24.6753 H   0  0  0  0  0  0  0  0  0  0  0  0
    8.2778   -3.6015   24.1920 H   0  0  0  0  0  0  0  0  0  0  0  0
    6.8306   -5.5905   23.8601 H   0  0  0  0  0  0  0  0  0  0  0  0
    7.7838   -5.2398   22.4181 H   0  0  0  0  0  0  0  0  0  0  0  0
    6.0540   -4.8375   22.4506 H   0  0  0  0  0  0  0  0  0  0  0  0
  1  2  1  0
  2  3  1  0
  3  4  2  0
  4  5  1  0
  5  6  1  0
  6  7  2  0
  7  8  1  0
  8  9  2  0
  9 10  1  0
 10 11  2  0
 11 12  1  0
  9 13  1  0
  8 14  1  0
  7 15  1  0
  5 16  1  0
 16 17  1  0
 17 18  1  0
 18 19  2  0
 19 20  1  0
 20 21  2  0
 21 22  1  0
 22 23  1  0
 23 24  2  0
 22 25  1  0
 20 26  1  0
 19 27  1  0
 17 28  1  0
 17 29  1  0
 16 30  2  0
  2 31  1  0
 31 32  1  0
 32 33  1  0
 33 34  1  0
 33 35  1  0
 32 36  1  0
 32 37  1  0
 31 38  1  0
  2 39  1  0
  1 40  1  0
  1 41  1  0
  1 42  1  0
 30  3  1  0
 33 31  1  0
 11  6  1  0
 23 18  1  0
M  END
>  <cnnaffinity>  (1) 
-5.92913

>  <filename>  (1) 
CC(c1nc(Cc2ccn[nH]c2=O)n(-c2cccnc2)n1)C1CC1

$$$$
