
     RDKit          3D

 36 37  0  0  0  0  0  0  0  0999 V2000
    4.9440    1.7648   17.0141 H   0  0  0  0  0  0  0  0  0  0  0  0
    5.4231    1.2775   17.8649 C   0  0  0  0  0  0  0  0  0  0  0  0
    6.5842    0.6539   17.6277 N   0  0  0  0  0  0  0  0  0  0  0  0
    7.1904    0.0333   18.6415 C   0  0  0  0  0  0  0  0  0  0  0  0
    8.1309   -0.4538   18.3896 H   0  0  0  0  0  0  0  0  0  0  0  0
    6.6470    0.0150   19.9191 C   0  0  0  0  0  0  0  0  0  0  0  0
    7.4970   -0.8718   21.1690 S   0  0  0  0  0  0  0  0  0  0  0  0
    6.4722   -1.3499   22.0885 O   0  0  0  0  0  0  0  0  0  0  0  0
    8.4073   -1.7928   20.4953 O   0  0  0  0  0  0  0  0  0  0  0  0
    8.5695    0.3855   22.0742 C   0  0  0  0  0  0  0  0  0  0  0  0
    7.6733    1.5571   22.4990 C   0  0  0  0  0  0  0  0  0  0  0  0
    7.7552    2.8242   21.8961 C   0  0  0  0  0  0  0  0  0  0  0  0
    8.4876    3.0122   21.1189 H   0  0  0  0  0  0  0  0  0  0  0  0
    6.9278    3.8777   22.2864 C   0  0  0  0  0  0  0  0  0  0  0  0
    7.0148    4.8419   21.7866 H   0  0  0  0  0  0  0  0  0  0  0  0
    5.9839    3.6851   23.3054 C   0  0  0  0  0  0  0  0  0  0  0  0
    5.0377    4.8045   23.6912 C   0  0  0  0  0  0  0  0  0  0  0  0
    5.5887    6.0246   23.5355 F   0  0  0  0  0  0  0  0  0  0  0  0
    4.6347    4.7168   24.9753 F   0  0  0  0  0  0  0  0  0  0  0  0
    3.9187    4.7853   22.9386 F   0  0  0  0  0  0  0  0  0  0  0  0
    5.8659    2.4171   23.9000 C   0  0  0  0  0  0  0  0  0  0  0  0
    5.1224    2.2391   24.6732 H   0  0  0  0  0  0  0  0  0  0  0  0
    6.7008    1.3768   23.5000 C   0  0  0  0  0  0  0  0  0  0  0  0
    6.5721    0.4057   23.9662 H   0  0  0  0  0  0  0  0  0  0  0  0
    9.1827   -0.3356   23.2992 C   0  0  0  0  0  0  0  0  0  0  0  0
    9.7535    0.3827   23.9015 H   0  0  0  0  0  0  0  0  0  0  0  0
    9.8673   -1.1265   22.9735 H   0  0  0  0  0  0  0  0  0  0  0  0
    8.4223   -0.7884   23.9408 H   0  0  0  0  0  0  0  0  0  0  0  0
    9.7241    0.7935   21.1414 C   0  0  0  0  0  0  0  0  0  0  0  0
    9.3377    1.1824   20.2002 H   0  0  0  0  0  0  0  0  0  0  0  0
   10.3577   -0.0673   20.9114 H   0  0  0  0  0  0  0  0  0  0  0  0
   10.3430    1.5669   21.6144 H   0  0  0  0  0  0  0  0  0  0  0  0
    5.4343    0.6525   20.1863 C   0  0  0  0  0  0  0  0  0  0  0  0
    4.9916    0.6426   21.1888 H   0  0  0  0  0  0  0  0  0  0  0  0
    4.8175    1.3041   19.1240 C   0  0  0  0  0  0  0  0  0  0  0  0
    3.8843    1.8369   19.2603 H   0  0  0  0  0  0  0  0  0  0  0  0
  1  2  1  0
  2  3  2  0
  3  4  1  0
  4  5  1  0
  4  6  2  0
  6  7  1  0
  7  8  2  0
  7  9  2  0
  7 10  1  0
 10 11  1  0
 11 12  2  0
 12 13  1  0
 12 14  1  0
 14 15  1  0
 14 16  2  0
 16 17  1  0
 17 18  1  0
 17 19  1  0
 17 20  1  0
 16 21  1  0
 21 22  1  0
 21 23  2  0
 23 24  1  0
 10 25  1  0
 25 26  1  0
 25 27  1  0
 25 28  1  0
 10 29  1  0
 29 30  1  0
 29 31  1  0
 29 32  1  0
  6 33  1  0
 33 34  1  0
 33 35  2  0
 35 36  1  0
 35  2  1  0
 23 11  1  0
M  END
>  <cnnaffinity>  (1) 
-4.9682

>  <filename>  (1) 
CC(C)(c1ccc(C(F)(F)F)cc1)S(=O)(=O)c1cccnc1

$$$$
