
     RDKit          3D

 36 37  0  0  0  0  0  0  0  0999 V2000
    4.9112    1.7822   16.9964 H   0  0  0  0  0  0  0  0  0  0  0  0
    5.4022    1.2955   17.8367 C   0  0  0  0  0  0  0  0  0  0  0  0
    6.5633    0.6779   17.5692 N   0  0  0  0  0  0  0  0  0  0  0  0
    7.1755    0.0610   18.5906 C   0  0  0  0  0  0  0  0  0  0  0  0
    8.1181   -0.4361   18.3715 H   0  0  0  0  0  0  0  0  0  0  0  0
    6.6854    0.0128   19.9152 C   0  0  0  0  0  0  0  0  0  0  0  0
    7.3100   -0.6904   20.9667 N   0  0  0  0  0  0  0  0  0  0  0  0
    8.4955   -0.4606   21.3817 C   0  0  0  0  0  0  0  0  0  0  0  0
    9.3440    0.6872   20.8885 C   0  0  0  0  0  0  0  0  0  0  0  0
    9.6733    0.4932   19.8684 H   0  0  0  0  0  0  0  0  0  0  0  0
    8.7605    1.6116   20.8601 H   0  0  0  0  0  0  0  0  0  0  0  0
   10.2191    0.8383   21.5236 H   0  0  0  0  0  0  0  0  0  0  0  0
    9.0252   -1.3505   22.4798 C   0  0  0  0  0  0  0  0  0  0  0  0
   10.0893   -1.1556   22.6455 H   0  0  0  0  0  0  0  0  0  0  0  0
    8.9384   -2.3928   22.1550 H   0  0  0  0  0  0  0  0  0  0  0  0
    8.2627   -1.1530   23.8022 C   0  0  0  0  0  0  0  0  0  0  0  0
    7.1939   -1.3073   23.5951 H   0  0  0  0  0  0  0  0  0  0  0  0
    8.6873   -2.1975   24.8465 C   0  0  0  0  0  0  0  0  0  0  0  0
    8.5093   -3.2090   24.4562 H   0  0  0  0  0  0  0  0  0  0  0  0
    9.7715   -2.1148   25.0118 H   0  0  0  0  0  0  0  0  0  0  0  0
    7.9554   -2.0124   26.1816 C   0  0  0  0  0  0  0  0  0  0  0  0
    6.8851   -2.2100   26.0291 H   0  0  0  0  0  0  0  0  0  0  0  0
    8.3095   -2.7481   26.9132 H   0  0  0  0  0  0  0  0  0  0  0  0
    8.1288   -0.5885   26.7247 C   0  0  0  0  0  0  0  0  0  0  0  0
    7.5612   -0.4636   27.6542 H   0  0  0  0  0  0  0  0  0  0  0  0
    9.1858   -0.4300   26.9789 H   0  0  0  0  0  0  0  0  0  0  0  0
    7.7024    0.4639   25.6929 C   0  0  0  0  0  0  0  0  0  0  0  0
    6.6202    0.3824   25.5231 H   0  0  0  0  0  0  0  0  0  0  0  0
    7.8803    1.4733   26.0835 H   0  0  0  0  0  0  0  0  0  0  0  0
    8.4291    0.2747   24.3550 C   0  0  0  0  0  0  0  0  0  0  0  0
    8.0711    1.0112   23.6224 H   0  0  0  0  0  0  0  0  0  0  0  0
    9.5004    0.4801   24.4980 H   0  0  0  0  0  0  0  0  0  0  0  0
    5.4551    0.6442   20.1630 C   0  0  0  0  0  0  0  0  0  0  0  0
    5.0258    0.6119   21.1683 H   0  0  0  0  0  0  0  0  0  0  0  0
    4.8154    1.3049   19.1106 C   0  0  0  0  0  0  0  0  0  0  0  0
    3.8796    1.8370   19.2653 H   0  0  0  0  0  0  0  0  0  0  0  0
  1  2  1  0
  2  3  2  0
  3  4  1  0
  4  5  1  0
  4  6  2  0
  6  7  1  0
  7  8  2  3
  8  9  1  0
  9 10  1  0
  9 11  1  0
  9 12  1  0
  8 13  1  0
 13 14  1  0
 13 15  1  0
 13 16  1  0
 16 17  1  0
 16 18  1  0
 18 19  1  0
 18 20  1  0
 18 21  1  0
 21 22  1  0
 21 23  1  0
 21 24  1  0
 24 25  1  0
 24 26  1  0
 24 27  1  0
 27 28  1  0
 27 29  1  0
 27 30  1  0
 30 31  1  0
 30 32  1  0
  6 33  1  0
 33 34  1  0
 33 35  2  0
 35 36  1  0
 35  2  1  0
 30 16  1  0
M  END
>  <cnnaffinity>  (1) 
-4.79366

>  <filename>  (1) 
CC(CC1CCCCC1)=Nc1cccnc1

$$$$
