
     RDKit          3D

 43 45  0  0  0  0  0  0  0  0999 V2000
    7.5921   -4.9604   21.9876 C   0  0  0  0  0  0  0  0  0  0  0  0
    8.1877   -4.3374   23.2498 C   0  0  0  0  0  0  0  0  0  0  0  0
    8.1237   -5.3111   24.4245 C   0  0  0  0  0  0  0  0  0  0  0  0
    8.5881   -4.8890   25.3232 H   0  0  0  0  0  0  0  0  0  0  0  0
    7.0851   -5.5650   24.6725 H   0  0  0  0  0  0  0  0  0  0  0  0
    8.6459   -6.2456   24.1897 H   0  0  0  0  0  0  0  0  0  0  0  0
    7.4803   -3.0130   23.6026 C   0  0  0  0  0  0  0  0  0  0  0  0
    7.6670   -1.9593   22.5651 C   0  0  0  0  0  0  0  0  0  0  0  0
    6.7398   -1.6144   21.6947 N   0  0  0  0  0  0  0  0  0  0  0  0
    7.3618   -0.6725   20.9383 N   0  0  0  0  0  0  0  0  0  0  0  0
    6.6601    0.0047   19.9028 C   0  0  0  0  0  0  0  0  0  0  0  0
    5.4434    0.6449   20.1638 C   0  0  0  0  0  0  0  0  0  0  0  0
    4.8116    1.3113   19.1111 C   0  0  0  0  0  0  0  0  0  0  0  0
    5.4010    1.2952   17.8395 C   0  0  0  0  0  0  0  0  0  0  0  0
    6.5633    0.6763   17.5809 N   0  0  0  0  0  0  0  0  0  0  0  0
    7.1736    0.0554   18.5954 C   0  0  0  0  0  0  0  0  0  0  0  0
    8.1180   -0.4348   18.3735 H   0  0  0  0  0  0  0  0  0  0  0  0
    4.9142    1.7808   16.9968 H   0  0  0  0  0  0  0  0  0  0  0  0
    3.8777    1.8411   19.2644 H   0  0  0  0  0  0  0  0  0  0  0  0
    5.0102    0.6114   21.1677 H   0  0  0  0  0  0  0  0  0  0  0  0
    8.6282   -0.4880   21.4148 C   0  0  0  0  0  0  0  0  0  0  0  0
    9.5274    0.6067   20.9390 C   0  0  0  0  0  0  0  0  0  0  0  0
    9.0546    2.0123   21.3775 C   0  0  0  0  0  0  0  0  0  0  0  0
    8.9473    2.1211   22.8789 C   0  0  0  0  0  0  0  0  0  0  0  0
   10.0590    2.3296   23.6952 C   0  0  0  0  0  0  0  0  0  0  0  0
   10.0066    2.3782   25.0256 N   0  0  0  0  0  0  0  0  0  0  0  0
    8.8051    2.1922   25.5678 C   0  0  0  0  0  0  0  0  0  0  0  0
    7.6700    1.9673   24.9164 N   0  0  0  0  0  0  0  0  0  0  0  0
    7.7657    1.9209   23.5853 C   0  0  0  0  0  0  0  0  0  0  0  0
    6.8478    1.7128   23.0340 H   0  0  0  0  0  0  0  0  0  0  0  0
    8.7432    2.2366   26.6521 H   0  0  0  0  0  0  0  0  0  0  0  0
   11.0442    2.4740   23.2484 H   0  0  0  0  0  0  0  0  0  0  0  0
    9.7639    2.7554   20.9989 H   0  0  0  0  0  0  0  0  0  0  0  0
    8.0883    2.2314   20.9057 H   0  0  0  0  0  0  0  0  0  0  0  0
    9.6092    0.5743   19.8494 H   0  0  0  0  0  0  0  0  0  0  0  0
   10.5224    0.4038   21.3441 H   0  0  0  0  0  0  0  0  0  0  0  0
    8.8538   -1.3047   22.4255 N   0  0  0  0  0  0  0  0  0  0  0  0
    6.4079   -3.1783   23.7372 H   0  0  0  0  0  0  0  0  0  0  0  0
    7.8703   -2.6246   24.5487 H   0  0  0  0  0  0  0  0  0  0  0  0
    9.2471   -4.1121   23.0576 H   0  0  0  0  0  0  0  0  0  0  0  0
    7.6879   -4.3047   21.1164 H   0  0  0  0  0  0  0  0  0  0  0  0
    8.0824   -5.9119   21.7542 H   0  0  0  0  0  0  0  0  0  0  0  0
    6.5233   -5.1710   22.1271 H   0  0  0  0  0  0  0  0  0  0  0  0
  1  2  1  0
  2  3  1  0
  3  4  1  0
  3  5  1  0
  3  6  1  0
  2  7  1  0
  7  8  1  0
  8  9  2  0
  9 10  1  0
 10 11  1  0
 11 12  2  0
 12 13  1  0
 13 14  2  0
 14 15  1  0
 15 16  2  0
 16 17  1  0
 14 18  1  0
 13 19  1  0
 12 20  1  0
 10 21  1  0
 21 22  1  0
 22 23  1  0
 23 24  1  0
 24 25  2  0
 25 26  1  0
 26 27  2  0
 27 28  1  0
 28 29  2  0
 29 30  1  0
 27 31  1  0
 25 32  1  0
 23 33  1  0
 23 34  1  0
 22 35  1  0
 22 36  1  0
 21 37  2  0
  7 38  1  0
  7 39  1  0
  2 40  1  0
  1 41  1  0
  1 42  1  0
  1 43  1  0
 37  8  1  0
 16 11  1  0
 29 24  1  0
M  END
>  <cnnaffinity>  (1) 
-6.0209

>  <filename>  (1) 
CC(C)Cc1nc(CCc2cncnc2)n(-c2cccnc2)n1

$$$$
