
     RDKit          3D

 40 41  0  0  0  0  0  0  0  0999 V2000
    4.9482    1.7851   17.0067 H   0  0  0  0  0  0  0  0  0  0  0  0
    5.3954    1.2477   17.8410 C   0  0  0  0  0  0  0  0  0  0  0  0
    6.5413    0.5969   17.5801 N   0  0  0  0  0  0  0  0  0  0  0  0
    7.1396   -0.0197   18.6121 C   0  0  0  0  0  0  0  0  0  0  0  0
    8.0827   -0.5135   18.3807 H   0  0  0  0  0  0  0  0  0  0  0  0
    6.6478   -0.0316   19.9481 C   0  0  0  0  0  0  0  0  0  0  0  0
    7.3362   -0.5585   21.0391 N   0  0  0  0  0  0  0  0  0  0  0  0
    6.8555   -0.8809   21.8586 H   0  0  0  0  0  0  0  0  0  0  0  0
    8.7185   -0.4029   21.3974 C   0  0  0  0  0  0  0  0  0  0  0  0
    8.5552   -0.5744   22.8384 N   0  0  0  0  0  0  0  0  0  0  0  0
    7.8776    0.1344   23.0787 H   0  0  0  0  0  0  0  0  0  0  0  0
    9.7635   -0.4810   23.6537 C   0  0  0  0  0  0  0  0  0  0  0  0
   10.6407   -0.3626   22.9957 H   0  0  0  0  0  0  0  0  0  0  0  0
   10.0133   -1.7709   24.4517 C   0  0  0  0  0  0  0  0  0  0  0  0
   11.0111   -1.6331   24.8675 H   0  0  0  0  0  0  0  0  0  0  0  0
   10.0359   -2.6374   23.7757 H   0  0  0  0  0  0  0  0  0  0  0  0
    9.0594   -1.9742   25.6383 C   0  0  0  0  0  0  0  0  0  0  0  0
    9.3228   -2.9002   26.1686 H   0  0  0  0  0  0  0  0  0  0  0  0
    8.0257   -2.0823   25.2731 H   0  0  0  0  0  0  0  0  0  0  0  0
    9.1813   -0.7689   26.5915 C   0  0  0  0  0  0  0  0  0  0  0  0
   10.2074   -0.7337   26.9962 H   0  0  0  0  0  0  0  0  0  0  0  0
    8.5143   -0.8821   27.4552 H   0  0  0  0  0  0  0  0  0  0  0  0
    8.8934    0.5597   25.8653 C   0  0  0  0  0  0  0  0  0  0  0  0
    9.0546    1.4051   26.5468 H   0  0  0  0  0  0  0  0  0  0  0  0
    7.8349    0.5951   25.5717 H   0  0  0  0  0  0  0  0  0  0  0  0
    9.7774    0.7299   24.6145 C   0  0  0  0  0  0  0  0  0  0  0  0
   10.8184    0.8552   24.9454 H   0  0  0  0  0  0  0  0  0  0  0  0
    9.5154    1.6438   24.0608 H   0  0  0  0  0  0  0  0  0  0  0  0
    9.2802    0.9829   21.0197 C   0  0  0  0  0  0  0  0  0  0  0  0
   10.2479    1.1920   21.4872 H   0  0  0  0  0  0  0  0  0  0  0  0
    9.4129    1.0121   19.9387 H   0  0  0  0  0  0  0  0  0  0  0  0
    8.5755    1.7714   21.3221 H   0  0  0  0  0  0  0  0  0  0  0  0
    9.5416   -1.5424   20.7923 C   0  0  0  0  0  0  0  0  0  0  0  0
    9.2163   -2.4930   21.2281 H   0  0  0  0  0  0  0  0  0  0  0  0
    9.3620   -1.5833   19.7160 H   0  0  0  0  0  0  0  0  0  0  0  0
   10.6171   -1.4185   20.9660 H   0  0  0  0  0  0  0  0  0  0  0  0
    5.4074    0.5912   20.1684 C   0  0  0  0  0  0  0  0  0  0  0  0
    4.9855    0.5903   21.1763 H   0  0  0  0  0  0  0  0  0  0  0  0
    4.7928    1.2533   19.1014 C   0  0  0  0  0  0  0  0  0  0  0  0
    3.8649    1.7961   19.2505 H   0  0  0  0  0  0  0  0  0  0  0  0
  1  2  1  0
  2  3  2  0
  3  4  1  0
  4  5  1  0
  4  6  2  0
  6  7  1  0
  7  8  1  0
  7  9  1  0
  9 10  1  0
 10 11  1  0
 10 12  1  0
 12 13  1  0
 12 14  1  0
 14 15  1  0
 14 16  1  0
 14 17  1  0
 17 18  1  0
 17 19  1  0
 17 20  1  0
 20 21  1  0
 20 22  1  0
 20 23  1  0
 23 24  1  0
 23 25  1  0
 23 26  1  0
 26 27  1  0
 26 28  1  0
  9 29  1  0
 29 30  1  0
 29 31  1  0
 29 32  1  0
  9 33  1  0
 33 34  1  0
 33 35  1  0
 33 36  1  0
  6 37  1  0
 37 38  1  0
 37 39  2  0
 39 40  1  0
 39  2  1  0
 26 12  1  0
M  END
>  <cnnaffinity>  (1) 
-4.36132

>  <filename>  (1) 
CC(C)(Nc1cccnc1)NC1CCCCC1

$$$$
