
     RDKit          3D

 35 37  0  0  0  0  0  0  0  0999 V2000
    4.9836    1.7558   17.0211 H   0  0  0  0  0  0  0  0  0  0  0  0
    5.4361    1.2656   17.8780 C   0  0  0  0  0  0  0  0  0  0  0  0
    6.5951    0.6371   17.6498 N   0  0  0  0  0  0  0  0  0  0  0  0
    7.1944    0.0343   18.6722 C   0  0  0  0  0  0  0  0  0  0  0  0
    8.1294   -0.4733   18.4338 H   0  0  0  0  0  0  0  0  0  0  0  0
    6.6448    0.0611   19.9493 C   0  0  0  0  0  0  0  0  0  0  0  0
    7.4769   -0.8134   21.1993 S   0  0  0  0  0  0  0  0  0  0  0  0
    8.3539   -1.7555   20.5130 O   0  0  0  0  0  0  0  0  0  0  0  0
    6.4522   -1.2949   22.1083 O   0  0  0  0  0  0  0  0  0  0  0  0
    8.6125    0.3568   22.0783 C   0  0  0  0  0  0  0  0  0  0  0  0
    7.6732    1.4547   22.5070 C   0  0  0  0  0  0  0  0  0  0  0  0
    6.8471    1.3426   23.4851 N   0  0  0  0  0  0  0  0  0  0  0  0
    6.1579    2.5304   23.7017 C   0  0  0  0  0  0  0  0  0  0  0  0
    5.2091    2.7561   24.7182 C   0  0  0  0  0  0  0  0  0  0  0  0
    5.0204    1.9651   25.4348 H   0  0  0  0  0  0  0  0  0  0  0  0
    4.5415    3.9769   24.7685 C   0  0  0  0  0  0  0  0  0  0  0  0
    3.7912    4.1537   25.5349 H   0  0  0  0  0  0  0  0  0  0  0  0
    4.8165    4.9857   23.8247 C   0  0  0  0  0  0  0  0  0  0  0  0
    4.2788    5.9284   23.8701 H   0  0  0  0  0  0  0  0  0  0  0  0
    5.7710    4.7909   22.8297 C   0  0  0  0  0  0  0  0  0  0  0  0
    5.9738    5.5702   22.0999 H   0  0  0  0  0  0  0  0  0  0  0  0
    6.4493    3.5640   22.7874 C   0  0  0  0  0  0  0  0  0  0  0  0
    7.6852    3.0164   21.7049 S   0  0  0  0  0  0  0  0  0  0  0  0
    9.2316   -0.3827   23.2841 C   0  0  0  0  0  0  0  0  0  0  0  0
    9.8792    0.3044   23.8431 H   0  0  0  0  0  0  0  0  0  0  0  0
    8.4514   -0.7537   23.9566 H   0  0  0  0  0  0  0  0  0  0  0  0
    9.8417   -1.2246   22.9369 H   0  0  0  0  0  0  0  0  0  0  0  0
    9.7225    0.8070   21.1228 C   0  0  0  0  0  0  0  0  0  0  0  0
   10.3623    1.5480   21.6107 H   0  0  0  0  0  0  0  0  0  0  0  0
   10.3355   -0.0509   20.8261 H   0  0  0  0  0  0  0  0  0  0  0  0
    9.2813    1.2462   20.2317 H   0  0  0  0  0  0  0  0  0  0  0  0
    5.4161    0.6665   20.2023 C   0  0  0  0  0  0  0  0  0  0  0  0
    4.9480    0.6382   21.1914 H   0  0  0  0  0  0  0  0  0  0  0  0
    4.8146    1.3037   19.1294 C   0  0  0  0  0  0  0  0  0  0  0  0
    3.8825    1.8350   19.2489 H   0  0  0  0  0  0  0  0  0  0  0  0
  1  2  1  0
  2  3  2  0
  3  4  1  0
  4  5  1  0
  4  6  2  0
  6  7  1  0
  7  8  2  0
  7  9  2  0
  7 10  1  0
 10 11  1  0
 11 12  2  0
 12 13  1  0
 13 14  2  0
 14 15  1  0
 14 16  1  0
 16 17  1  0
 16 18  2  0
 18 19  1  0
 18 20  1  0
 20 21  1  0
 20 22  2  0
 22 23  1  0
 10 24  1  0
 24 25  1  0
 24 26  1  0
 24 27  1  0
 10 28  1  0
 28 29  1  0
 28 30  1  0
 28 31  1  0
  6 32  1  0
 32 33  1  0
 32 34  2  0
 34 35  1  0
 34  2  1  0
 23 11  1  0
 22 13  1  0
M  END
>  <cnnaffinity>  (1) 
-5.03261

>  <filename>  (1) 
CC(C)(c1nc2ccccc2s1)S(=O)(=O)c1cccnc1

$$$$
