
     RDKit          3D

 43 46  0  0  0  0  0  0  0  0999 V2000
    6.5666   -4.2343   23.5187 C   0  0  0  0  0  0  0  0  0  0  0  0
    7.4817   -3.0644   23.9065 C   0  0  0  0  0  0  0  0  0  0  0  0
    7.7725   -2.1196   22.7588 C   0  0  0  0  0  0  0  0  0  0  0  0
    6.8997   -1.7852   21.8263 N   0  0  0  0  0  0  0  0  0  0  0  0
    7.5570   -0.8291   21.1065 N   0  0  0  0  0  0  0  0  0  0  0  0
    6.8649   -0.1917   20.0276 C   0  0  0  0  0  0  0  0  0  0  0  0
    5.6502    0.4601   20.2757 C   0  0  0  0  0  0  0  0  0  0  0  0
    5.0418    1.1493   19.2267 C   0  0  0  0  0  0  0  0  0  0  0  0
    5.6334    1.1232   17.9587 C   0  0  0  0  0  0  0  0  0  0  0  0
    6.7581    0.4417   17.6939 N   0  0  0  0  0  0  0  0  0  0  0  0
    7.3518   -0.2046   18.7075 C   0  0  0  0  0  0  0  0  0  0  0  0
    8.2459   -0.7709   18.4511 H   0  0  0  0  0  0  0  0  0  0  0  0
    5.1808    1.6644   17.1308 H   0  0  0  0  0  0  0  0  0  0  0  0
    4.1263    1.7092   19.3802 H   0  0  0  0  0  0  0  0  0  0  0  0
    5.2024    0.4207   21.2706 H   0  0  0  0  0  0  0  0  0  0  0  0
    8.7839   -0.6206   21.6810 C   0  0  0  0  0  0  0  0  0  0  0  0
    9.7235    0.5023   21.3845 C   0  0  0  0  0  0  0  0  0  0  0  0
    9.1313    1.7863   21.8547 C   0  0  0  0  0  0  0  0  0  0  0  0
    9.3041    2.2521   23.0704 N   0  0  0  0  0  0  0  0  0  0  0  0
    8.5026    3.3447   23.1626 N   0  0  0  0  0  0  0  0  0  0  0  0
    8.4558    4.0451   24.4157 C   0  0  0  0  0  0  0  0  0  0  0  0
    7.1913    4.0455   24.9184 F   0  0  0  0  0  0  0  0  0  0  0  0
    8.8173    5.3475   24.2721 F   0  0  0  0  0  0  0  0  0  0  0  0
    9.1455    3.5208   25.0826 H   0  0  0  0  0  0  0  0  0  0  0  0
    7.7988    3.5446   22.0029 C   0  0  0  0  0  0  0  0  0  0  0  0
    8.2128    2.5616   21.1402 C   0  0  0  0  0  0  0  0  0  0  0  0
    7.9042    2.3179   20.1364 H   0  0  0  0  0  0  0  0  0  0  0  0
    7.0588    4.3297   21.8993 H   0  0  0  0  0  0  0  0  0  0  0  0
    9.9097    0.5528   20.3121 H   0  0  0  0  0  0  0  0  0  0  0  0
   10.6545    0.3078   21.9166 H   0  0  0  0  0  0  0  0  0  0  0  0
    8.9590   -1.4589   22.6760 N   0  0  0  0  0  0  0  0  0  0  0  0
    6.9432   -2.3426   25.1626 C   0  0  0  0  0  0  0  0  0  0  0  0
    6.2282   -1.0164   25.1403 C   0  0  0  0  0  0  0  0  0  0  0  0
    7.6215   -1.1050   25.6817 C   0  0  0  0  0  0  0  0  0  0  0  0
    7.7715   -1.0272   26.7539 H   0  0  0  0  0  0  0  0  0  0  0  0
    8.4244   -0.6982   25.0705 H   0  0  0  0  0  0  0  0  0  0  0  0
    6.0896   -0.5249   24.1774 H   0  0  0  0  0  0  0  0  0  0  0  0
    5.4161   -0.8798   25.8472 H   0  0  0  0  0  0  0  0  0  0  0  0
    6.5985   -3.0526   25.9205 H   0  0  0  0  0  0  0  0  0  0  0  0
    8.4756   -3.4551   24.1669 H   0  0  0  0  0  0  0  0  0  0  0  0
    5.5621   -3.8748   23.2710 H   0  0  0  0  0  0  0  0  0  0  0  0
    6.4821   -4.9342   24.3596 H   0  0  0  0  0  0  0  0  0  0  0  0
    6.9574   -4.7872   22.6584 H   0  0  0  0  0  0  0  0  0  0  0  0
  1  2  1  0
  2  3  1  0
  3  4  2  0
  4  5  1  0
  5  6  1  0
  6  7  2  0
  7  8  1  0
  8  9  2  0
  9 10  1  0
 10 11  2  0
 11 12  1  0
  9 13  1  0
  8 14  1  0
  7 15  1  0
  5 16  1  0
 16 17  1  0
 17 18  1  0
 18 19  2  0
 19 20  1  0
 20 21  1  0
 21 22  1  0
 21 23  1  0
 21 24  1  0
 20 25  1  0
 25 26  2  0
 26 27  1  0
 25 28  1  0
 17 29  1  0
 17 30  1  0
 16 31  2  0
  2 32  1  0
 32 33  1  0
 33 34  1  0
 34 35  1  0
 34 36  1  0
 33 37  1  0
 33 38  1  0
 32 39  1  0
  2 40  1  0
  1 41  1  0
  1 42  1  0
  1 43  1  0
 31  3  1  0
 34 32  1  0
 11  6  1  0
 26 18  1  0
M  END
>  <cnnaffinity>  (1) 
-6.09786

>  <filename>  (1) 
CC(c1nc(Cc2ccn(C(F)F)n2)n(-c2cccnc2)n1)C1CC1

$$$$
