
     RDKit          3D

 43 45  0  0  0  0  0  0  0  0999 V2000
    6.9498   -4.2750   23.1178 C   0  0  0  0  0  0  0  0  0  0  0  0
    7.4538   -2.9353   23.6776 C   0  0  0  0  0  0  0  0  0  0  0  0
    6.4844   -2.3634   24.7303 C   0  0  0  0  0  0  0  0  0  0  0  0
    6.3403   -3.0715   25.5531 H   0  0  0  0  0  0  0  0  0  0  0  0
    6.8620   -1.4228   25.1464 H   0  0  0  0  0  0  0  0  0  0  0  0
    5.5075   -2.1662   24.2785 H   0  0  0  0  0  0  0  0  0  0  0  0
    7.6960   -1.9350   22.5751 C   0  0  0  0  0  0  0  0  0  0  0  0
    6.7622   -1.5980   21.7035 N   0  0  0  0  0  0  0  0  0  0  0  0
    7.3735   -0.6591   20.9413 N   0  0  0  0  0  0  0  0  0  0  0  0
    6.6621    0.0088   19.9038 C   0  0  0  0  0  0  0  0  0  0  0  0
    5.4412    0.6427   20.1667 C   0  0  0  0  0  0  0  0  0  0  0  0
    4.8116    1.3093   19.1110 C   0  0  0  0  0  0  0  0  0  0  0  0
    5.4010    1.2949   17.8397 C   0  0  0  0  0  0  0  0  0  0  0  0
    6.5623    0.6759   17.5805 N   0  0  0  0  0  0  0  0  0  0  0  0
    7.1727    0.0565   18.5950 C   0  0  0  0  0  0  0  0  0  0  0  0
    8.1170   -0.4348   18.3729 H   0  0  0  0  0  0  0  0  0  0  0  0
    4.9150    1.7818   16.9965 H   0  0  0  0  0  0  0  0  0  0  0  0
    3.8784    1.8404   19.2625 H   0  0  0  0  0  0  0  0  0  0  0  0
    5.0138    0.6112   21.1715 H   0  0  0  0  0  0  0  0  0  0  0  0
    8.6338   -0.4586   21.4233 C   0  0  0  0  0  0  0  0  0  0  0  0
    9.5332    0.6217   20.9301 C   0  0  0  0  0  0  0  0  0  0  0  0
    9.0324    2.0318   21.2823 C   0  0  0  0  0  0  0  0  0  0  0  0
    8.9235    2.2640   22.7979 C   0  0  0  0  0  0  0  0  0  0  0  0
    8.4527    3.6565   23.1147 C   0  0  0  0  0  0  0  0  0  0  0  0
    7.0751    3.9794   23.0908 C   0  0  0  0  0  0  0  0  0  0  0  0
    6.5992    5.2171   23.3252 N   0  0  0  0  0  0  0  0  0  0  0  0
    7.5404    6.1476   23.5618 C   0  0  0  0  0  0  0  0  0  0  0  0
    8.9121    5.8450   23.5744 C   0  0  0  0  0  0  0  0  0  0  0  0
    9.3832    4.6020   23.3579 N   0  0  0  0  0  0  0  0  0  0  0  0
    9.6461    6.6195   23.7706 H   0  0  0  0  0  0  0  0  0  0  0  0
    7.1951    7.1581   23.7554 H   0  0  0  0  0  0  0  0  0  0  0  0
    6.3401    3.2091   22.8815 H   0  0  0  0  0  0  0  0  0  0  0  0
    8.2389    1.5220   23.2301 H   0  0  0  0  0  0  0  0  0  0  0  0
    9.8985    2.1042   23.2692 H   0  0  0  0  0  0  0  0  0  0  0  0
    9.7330    2.7607   20.8668 H   0  0  0  0  0  0  0  0  0  0  0  0
    8.0604    2.2043   20.7995 H   0  0  0  0  0  0  0  0  0  0  0  0
    9.6370    0.5306   19.8463 H   0  0  0  0  0  0  0  0  0  0  0  0
   10.5176    0.4413   21.3723 H   0  0  0  0  0  0  0  0  0  0  0  0
    8.8688   -1.2653   22.4399 N   0  0  0  0  0  0  0  0  0  0  0  0
    8.4252   -3.0922   24.1547 H   0  0  0  0  0  0  0  0  0  0  0  0
    6.8277   -5.0069   23.9238 H   0  0  0  0  0  0  0  0  0  0  0  0
    7.6541   -4.6830   22.3848 H   0  0  0  0  0  0  0  0  0  0  0  0
    5.9823   -4.1382   22.6203 H   0  0  0  0  0  0  0  0  0  0  0  0
  1  2  1  0
  2  3  1  0
  3  4  1  0
  3  5  1  0
  3  6  1  0
  2  7  1  0
  7  8  2  0
  8  9  1  0
  9 10  1  0
 10 11  2  0
 11 12  1  0
 12 13  2  0
 13 14  1  0
 14 15  2  0
 15 16  1  0
 13 17  1  0
 12 18  1  0
 11 19  1  0
  9 20  1  0
 20 21  1  0
 21 22  1  0
 22 23  1  0
 23 24  1  0
 24 25  2  0
 25 26  1  0
 26 27  2  0
 27 28  1  0
 28 29  2  0
 28 30  1  0
 27 31  1  0
 25 32  1  0
 23 33  1  0
 23 34  1  0
 22 35  1  0
 22 36  1  0
 21 37  1  0
 21 38  1  0
 20 39  2  0
  2 40  1  0
  1 41  1  0
  1 42  1  0
  1 43  1  0
 39  7  1  0
 15 10  1  0
 29 24  1  0
M  END
>  <cnnaffinity>  (1) 
-5.92895

>  <filename>  (1) 
CC(C)c1nc(CCCc2cnccn2)n(-c2cccnc2)n1

$$$$
