
     RDKit          3D

 47 50  0  0  0  0  0  0  0  0999 V2000
    8.1554    2.4615   21.6047 C   0  0  0  0  0  0  0  0  0  0  0  0
    9.5153    1.7958   21.8245 C   0  0  0  0  0  0  0  0  0  0  0  0
    9.6222    0.4839   20.9744 C   0  0  0  0  0  0  0  0  0  0  0  0
    8.6576   -0.5968   21.3492 C   0  0  0  0  0  0  0  0  0  0  0  0
    8.8882   -1.5253   22.2594 N   0  0  0  0  0  0  0  0  0  0  0  0
    7.6629   -2.0621   22.4753 C   0  0  0  0  0  0  0  0  0  0  0  0
    7.4526   -3.0593   23.5796 C   0  0  0  0  0  0  0  0  0  0  0  0
    6.7093   -2.4743   24.8260 C   0  0  0  0  0  0  0  0  0  0  0  0
    5.3580   -3.2292   24.8282 C   0  0  0  0  0  0  0  0  0  0  0  0
    5.2323   -3.7745   23.5286 O   0  0  0  0  0  0  0  0  0  0  0  0
    6.5210   -4.2036   23.1546 C   0  0  0  0  0  0  0  0  0  0  0  0
    6.8015   -5.1454   23.6611 H   0  0  0  0  0  0  0  0  0  0  0  0
    6.5130   -4.3939   22.0802 H   0  0  0  0  0  0  0  0  0  0  0  0
    5.3261   -4.0245   25.5949 H   0  0  0  0  0  0  0  0  0  0  0  0
    4.5051   -2.5624   25.0097 H   0  0  0  0  0  0  0  0  0  0  0  0
    7.2675   -2.6096   25.7671 H   0  0  0  0  0  0  0  0  0  0  0  0
    6.5247   -1.3995   24.7048 H   0  0  0  0  0  0  0  0  0  0  0  0
    8.4531   -3.4147   23.8182 H   0  0  0  0  0  0  0  0  0  0  0  0
    6.7042   -1.5994   21.6974 N   0  0  0  0  0  0  0  0  0  0  0  0
    7.3555   -0.6794   20.9326 N   0  0  0  0  0  0  0  0  0  0  0  0
    6.6631   -0.0158   19.8791 C   0  0  0  0  0  0  0  0  0  0  0  0
    5.4460    0.6206   20.1417 C   0  0  0  0  0  0  0  0  0  0  0  0
    4.8169    1.3059   19.0985 C   0  0  0  0  0  0  0  0  0  0  0  0
    5.4098    1.3094   17.8305 C   0  0  0  0  0  0  0  0  0  0  0  0
    6.5568    0.6677   17.5583 N   0  0  0  0  0  0  0  0  0  0  0  0
    7.1650    0.0238   18.5639 C   0  0  0  0  0  0  0  0  0  0  0  0
    8.0882   -0.4944   18.3086 H   0  0  0  0  0  0  0  0  0  0  0  0
    4.9415    1.8362   17.0021 H   0  0  0  0  0  0  0  0  0  0  0  0
    3.8843    1.8373   19.2576 H   0  0  0  0  0  0  0  0  0  0  0  0
    5.0182    0.5658   21.1445 H   0  0  0  0  0  0  0  0  0  0  0  0
    9.4811    0.7359   19.9217 H   0  0  0  0  0  0  0  0  0  0  0  0
   10.6243    0.0619   21.0812 H   0  0  0  0  0  0  0  0  0  0  0  0
    9.8253    1.5485   23.3003 C   0  0  0  0  0  0  0  0  0  0  0  0
    8.8471    1.1850   24.2455 C   0  0  0  0  0  0  0  0  0  0  0  0
    9.1923    0.6952   25.5061 C   0  0  0  0  0  0  0  0  0  0  0  0
   10.5346    0.5897   25.8373 C   0  0  0  0  0  0  0  0  0  0  0  0
   10.8640    0.0312   27.0091 F   0  0  0  0  0  0  0  0  0  0  0  0
   11.5454    1.0265   24.9879 C   0  0  0  0  0  0  0  0  0  0  0  0
   11.1568    1.5110   23.7416 C   0  0  0  0  0  0  0  0  0  0  0  0
   12.1311    1.9410   22.9133 F   0  0  0  0  0  0  0  0  0  0  0  0
   12.5901    0.9762   25.2626 H   0  0  0  0  0  0  0  0  0  0  0  0
    8.4501    0.3768   26.2335 H   0  0  0  0  0  0  0  0  0  0  0  0
    7.7931    1.2340   23.9754 H   0  0  0  0  0  0  0  0  0  0  0  0
   10.2976    2.4649   21.4437 H   0  0  0  0  0  0  0  0  0  0  0  0
    8.1414    3.4792   22.0102 H   0  0  0  0  0  0  0  0  0  0  0  0
    7.3474    1.8931   22.0757 H   0  0  0  0  0  0  0  0  0  0  0  0
    7.9261    2.4846   20.5379 H   0  0  0  0  0  0  0  0  0  0  0  0
  1  2  1  0
  2  3  1  0
  3  4  1  0
  4  5  2  0
  5  6  1  0
  6  7  1  0
  7  8  1  0
  8  9  1  0
  9 10  1  0
 10 11  1  0
 11 12  1  0
 11 13  1  0
  9 14  1  0
  9 15  1  0
  8 16  1  0
  8 17  1  0
  7 18  1  0
  6 19  2  0
 19 20  1  0
 20 21  1  0
 21 22  2  0
 22 23  1  0
 23 24  2  0
 24 25  1  0
 25 26  2  0
 26 27  1  0
 24 28  1  0
 23 29  1  0
 22 30  1  0
  3 31  1  0
  3 32  1  0
  2 33  1  0
 33 34  2  0
 34 35  1  0
 35 36  2  0
 36 37  1  0
 36 38  1  0
 38 39  2  0
 39 40  1  0
 38 41  1  0
 35 42  1  0
 34 43  1  0
  2 44  1  0
  1 45  1  0
  1 46  1  0
  1 47  1  0
 20  4  1  0
 26 21  1  0
 39 33  1  0
 11  7  1  0
M  END
>  <cnnaffinity>  (1) 
-6.25235

>  <filename>  (1) 
CC(Cc1nc(C2CCOC2)nn1-c1cccnc1)c1ccc(F)cc1F

$$$$
