
     RDKit          3D

 45 47  0  0  0  0  0  0  0  0999 V2000
    6.4468   -2.5066   24.6698 C   0  0  0  0  0  0  0  0  0  0  0  0
    7.4331   -3.0352   23.5957 C   0  0  0  0  0  0  0  0  0  0  0  0
    6.9439   -4.3727   22.9973 C   0  0  0  0  0  0  0  0  0  0  0  0
    6.8196   -5.1203   23.7894 H   0  0  0  0  0  0  0  0  0  0  0  0
    7.6569   -4.7684   22.2632 H   0  0  0  0  0  0  0  0  0  0  0  0
    5.9776   -4.2375   22.4910 H   0  0  0  0  0  0  0  0  0  0  0  0
    7.6698   -2.0045   22.5184 C   0  0  0  0  0  0  0  0  0  0  0  0
    6.7378   -1.6330   21.6588 N   0  0  0  0  0  0  0  0  0  0  0  0
    7.3663   -0.6774   20.9249 N   0  0  0  0  0  0  0  0  0  0  0  0
    6.6623   -0.0006   19.8934 C   0  0  0  0  0  0  0  0  0  0  0  0
    5.4445    0.6346   20.1573 C   0  0  0  0  0  0  0  0  0  0  0  0
    4.8077    1.3070   19.1076 C   0  0  0  0  0  0  0  0  0  0  0  0
    5.3931    1.2946   17.8382 C   0  0  0  0  0  0  0  0  0  0  0  0
    6.5464    0.6623   17.5719 N   0  0  0  0  0  0  0  0  0  0  0  0
    7.1621    0.0356   18.5824 C   0  0  0  0  0  0  0  0  0  0  0  0
    8.1044   -0.4538   18.3409 H   0  0  0  0  0  0  0  0  0  0  0  0
    4.9296    1.8056   16.9981 H   0  0  0  0  0  0  0  0  0  0  0  0
    3.8759    1.8414   19.2564 H   0  0  0  0  0  0  0  0  0  0  0  0
    5.0183    0.5965   21.1605 H   0  0  0  0  0  0  0  0  0  0  0  0
    8.6313   -0.5051   21.4064 C   0  0  0  0  0  0  0  0  0  0  0  0
    9.5690    0.5776   20.9921 C   0  0  0  0  0  0  0  0  0  0  0  0
    9.5049    1.7994   21.9364 C   0  0  0  0  0  0  0  0  0  0  0  0
    8.1354    2.5092   21.9112 C   0  0  0  0  0  0  0  0  0  0  0  0
    8.0984    3.7584   22.7770 C   0  0  0  0  0  0  0  0  0  0  0  0
    7.8092    3.6601   24.1512 C   0  0  0  0  0  0  0  0  0  0  0  0
    7.8747    4.7777   24.9943 C   0  0  0  0  0  0  0  0  0  0  0  0
    8.2785    6.0157   24.4770 C   0  0  0  0  0  0  0  0  0  0  0  0
    8.5637    6.1287   23.1091 C   0  0  0  0  0  0  0  0  0  0  0  0
    8.4129    5.0257   22.2610 C   0  0  0  0  0  0  0  0  0  0  0  0
    8.4917    5.1692   21.1833 H   0  0  0  0  0  0  0  0  0  0  0  0
    8.9019    7.0758   22.6931 H   0  0  0  0  0  0  0  0  0  0  0  0
    8.3213    6.8909   25.1245 H   0  0  0  0  0  0  0  0  0  0  0  0
    7.5983    4.6814   26.0453 H   0  0  0  0  0  0  0  0  0  0  0  0
    7.5041    2.6978   24.5607 H   0  0  0  0  0  0  0  0  0  0  0  0
    7.3487    1.8153   22.2401 H   0  0  0  0  0  0  0  0  0  0  0  0
    7.8932    2.7536   20.8722 H   0  0  0  0  0  0  0  0  0  0  0  0
   10.2910    2.5101   21.6514 H   0  0  0  0  0  0  0  0  0  0  0  0
    9.7320    1.4610   22.9597 H   0  0  0  0  0  0  0  0  0  0  0  0
   10.5747    0.1474   20.9951 H   0  0  0  0  0  0  0  0  0  0  0  0
    9.3353    0.8602   19.9628 H   0  0  0  0  0  0  0  0  0  0  0  0
    8.8506   -1.3467   22.3992 N   0  0  0  0  0  0  0  0  0  0  0  0
    8.4231   -3.1724   24.0550 H   0  0  0  0  0  0  0  0  0  0  0  0
    6.3149   -3.2472   25.4676 H   0  0  0  0  0  0  0  0  0  0  0  0
    6.8093   -1.5769   25.1274 H   0  0  0  0  0  0  0  0  0  0  0  0
    5.4618   -2.3048   24.2281 H   0  0  0  0  0  0  0  0  0  0  0  0
  1  2  1  0
  2  3  1  0
  3  4  1  0
  3  5  1  0
  3  6  1  0
  2  7  1  0
  7  8  2  0
  8  9  1  0
  9 10  1  0
 10 11  2  0
 11 12  1  0
 12 13  2  0
 13 14  1  0
 14 15  2  0
 15 16  1  0
 13 17  1  0
 12 18  1  0
 11 19  1  0
  9 20  1  0
 20 21  1  0
 21 22  1  0
 22 23  1  0
 23 24  1  0
 24 25  2  0
 25 26  1  0
 26 27  2  0
 27 28  1  0
 28 29  2  0
 29 30  1  0
 28 31  1  0
 27 32  1  0
 26 33  1  0
 25 34  1  0
 23 35  1  0
 23 36  1  0
 22 37  1  0
 22 38  1  0
 21 39  1  0
 21 40  1  0
 20 41  2  0
  2 42  1  0
  1 43  1  0
  1 44  1  0
  1 45  1  0
 41  7  1  0
 15 10  1  0
 29 24  1  0
M  END
>  <cnnaffinity>  (1) 
-5.76945

>  <filename>  (1) 
CC(C)c1nc(CCCc2ccccc2)n(-c2cccnc2)n1

$$$$
