
     RDKit          3D

 44 46  0  0  0  0  0  0  0  0999 V2000
    6.3183   -4.3165   23.1654 C   0  0  0  0  0  0  0  0  0  0  0  0
    7.7737   -4.1532   23.6022 C   0  0  0  0  0  0  0  0  0  0  0  0
    8.3407   -5.4705   24.1270 C   0  0  0  0  0  0  0  0  0  0  0  0
    7.7433   -5.8476   24.9649 H   0  0  0  0  0  0  0  0  0  0  0  0
    9.3710   -5.3532   24.4816 H   0  0  0  0  0  0  0  0  0  0  0  0
    8.3394   -6.2421   23.3471 H   0  0  0  0  0  0  0  0  0  0  0  0
    8.6412   -3.6094   22.4505 C   0  0  0  0  0  0  0  0  0  0  0  0
    8.2385   -2.2462   21.9997 C   0  0  0  0  0  0  0  0  0  0  0  0
    7.5924   -2.0103   20.8796 N   0  0  0  0  0  0  0  0  0  0  0  0
    7.3617   -0.6744   20.9335 N   0  0  0  0  0  0  0  0  0  0  0  0
    6.6517    0.0023   19.9001 C   0  0  0  0  0  0  0  0  0  0  0  0
    5.4420    0.6548   20.1645 C   0  0  0  0  0  0  0  0  0  0  0  0
    4.8062    1.3142   19.1078 C   0  0  0  0  0  0  0  0  0  0  0  0
    5.4024    1.2930   17.8430 C   0  0  0  0  0  0  0  0  0  0  0  0
    6.5684    0.6730   17.5875 N   0  0  0  0  0  0  0  0  0  0  0  0
    7.1729    0.0401   18.5970 C   0  0  0  0  0  0  0  0  0  0  0  0
    8.1236   -0.4406   18.3784 H   0  0  0  0  0  0  0  0  0  0  0  0
    4.9169    1.7798   16.9982 H   0  0  0  0  0  0  0  0  0  0  0  0
    3.8718    1.8447   19.2616 H   0  0  0  0  0  0  0  0  0  0  0  0
    5.0124    0.6275   21.1657 H   0  0  0  0  0  0  0  0  0  0  0  0
    7.9261   -0.1735   22.0639 C   0  0  0  0  0  0  0  0  0  0  0  0
    7.9025    1.2726   22.4435 C   0  0  0  0  0  0  0  0  0  0  0  0
    6.7201    1.6333   23.3123 C   0  0  0  0  0  0  0  0  0  0  0  0
    5.8169    2.6230   22.9306 C   0  0  0  0  0  0  0  0  0  0  0  0
    4.7340    2.9062   23.7622 C   0  0  0  0  0  0  0  0  0  0  0  0
    4.5126    2.2727   24.9138 N   0  0  0  0  0  0  0  0  0  0  0  0
    5.3846    1.3196   25.2909 C   0  0  0  0  0  0  0  0  0  0  0  0
    5.1544    0.5846   26.6235 C   0  0  0  0  0  0  0  0  0  0  0  0
    4.0513    0.9636   27.2713 F   0  0  0  0  0  0  0  0  0  0  0  0
    5.0697   -0.7511   26.4363 F   0  0  0  0  0  0  0  0  0  0  0  0
    6.1959    0.7667   27.4628 F   0  0  0  0  0  0  0  0  0  0  0  0
    6.5042    0.9692   24.5213 C   0  0  0  0  0  0  0  0  0  0  0  0
    7.1928    0.1891   24.8359 H   0  0  0  0  0  0  0  0  0  0  0  0
    4.0152    3.6721   23.4981 H   0  0  0  0  0  0  0  0  0  0  0  0
    5.9376    3.1530   21.9938 H   0  0  0  0  0  0  0  0  0  0  0  0
    8.8269    1.4770   22.9899 H   0  0  0  0  0  0  0  0  0  0  0  0
    7.9094    1.8952   21.5439 H   0  0  0  0  0  0  0  0  0  0  0  0
    8.4815   -1.1439   22.7612 N   0  0  0  0  0  0  0  0  0  0  0  0
    9.6879   -3.5605   22.7641 H   0  0  0  0  0  0  0  0  0  0  0  0
    8.5784   -4.2790   21.5905 H   0  0  0  0  0  0  0  0  0  0  0  0
    7.8049   -3.4219   24.4228 H   0  0  0  0  0  0  0  0  0  0  0  0
    6.2396   -5.0140   22.3216 H   0  0  0  0  0  0  0  0  0  0  0  0
    5.7111   -4.7227   23.9815 H   0  0  0  0  0  0  0  0  0  0  0  0
    5.8690   -3.3676   22.8540 H   0  0  0  0  0  0  0  0  0  0  0  0
  1  2  1  0
  2  3  1  0
  3  4  1  0
  3  5  1  0
  3  6  1  0
  2  7  1  0
  7  8  1  0
  8  9  2  0
  9 10  1  0
 10 11  1  0
 11 12  2  0
 12 13  1  0
 13 14  2  0
 14 15  1  0
 15 16  2  0
 16 17  1  0
 14 18  1  0
 13 19  1  0
 12 20  1  0
 10 21  1  0
 21 22  1  0
 22 23  1  0
 23 24  2  0
 24 25  1  0
 25 26  2  0
 26 27  1  0
 27 28  1  0
 28 29  1  0
 28 30  1  0
 28 31  1  0
 27 32  2  0
 32 33  1  0
 25 34  1  0
 24 35  1  0
 22 36  1  0
 22 37  1  0
 21 38  2  0
  7 39  1  0
  7 40  1  0
  2 41  1  0
  1 42  1  0
  1 43  1  0
  1 44  1  0
 38  8  1  0
 16 11  1  0
 32 23  1  0
M  END
>  <cnnaffinity>  (1) 
-6.05703

>  <filename>  (1) 
CC(C)Cc1nc(Cc2ccnc(C(F)(F)F)c2)n(-c2cccnc2)n1

$$$$
