
     RDKit          3D

 35 36  0  0  0  0  0  0  0  0999 V2000
    5.0372    1.7686   16.8156 H   0  0  0  0  0  0  0  0  0  0  0  0
    5.4275    1.3650   17.7490 C   0  0  0  0  0  0  0  0  0  0  0  0
    6.6135    0.7481   17.6765 N   0  0  0  0  0  0  0  0  0  0  0  0
    7.1226    0.2641   18.8150 C   0  0  0  0  0  0  0  0  0  0  0  0
    8.1184   -0.1651   18.7370 H   0  0  0  0  0  0  0  0  0  0  0  0
    6.4622    0.2996   20.0505 C   0  0  0  0  0  0  0  0  0  0  0  0
    7.0846   -0.3649   21.2482 C   0  0  0  0  0  0  0  0  0  0  0  0
    7.3413    0.2979   22.2283 O   0  0  0  0  0  0  0  0  0  0  0  0
    7.4306   -1.9338   21.2294 C   0  0  0  0  0  0  0  0  0  0  0  0
    7.3400   -2.5042   22.6020 N   0  0  0  0  0  0  0  0  0  0  0  0
    7.0881   -1.8898   23.3595 H   0  0  0  0  0  0  0  0  0  0  0  0
    7.6349   -3.7917   22.9374 C   0  0  0  0  0  0  0  0  0  0  0  0
    7.9154   -4.6487   22.1098 O   0  0  0  0  0  0  0  0  0  0  0  0
    7.5773   -4.1180   24.4363 C   0  0  0  0  0  0  0  0  0  0  0  0
    7.6635   -3.1578   25.4657 C   0  0  0  0  0  0  0  0  0  0  0  0
    7.8994   -2.1081   25.2951 H   0  0  0  0  0  0  0  0  0  0  0  0
    7.5225   -3.5645   26.7950 C   0  0  0  0  0  0  0  0  0  0  0  0
    7.5580   -2.8214   27.5879 H   0  0  0  0  0  0  0  0  0  0  0  0
    7.3464   -4.8373   27.1727 N   0  0  0  0  0  0  0  0  0  0  0  0
    7.3258   -5.7649   26.2062 C   0  0  0  0  0  0  0  0  0  0  0  0
    7.2095   -6.8018   26.5239 H   0  0  0  0  0  0  0  0  0  0  0  0
    7.4513   -5.4626   24.8461 C   0  0  0  0  0  0  0  0  0  0  0  0
    7.4835   -6.2561   24.1075 H   0  0  0  0  0  0  0  0  0  0  0  0
    6.4336   -2.7245   20.3578 C   0  0  0  0  0  0  0  0  0  0  0  0
    6.4554   -2.4387   19.3034 H   0  0  0  0  0  0  0  0  0  0  0  0
    6.6605   -3.7903   20.4227 H   0  0  0  0  0  0  0  0  0  0  0  0
    5.4259   -2.5604   20.7445 H   0  0  0  0  0  0  0  0  0  0  0  0
    8.8894   -2.1005   20.7601 C   0  0  0  0  0  0  0  0  0  0  0  0
    9.1300   -3.1645   20.7484 H   0  0  0  0  0  0  0  0  0  0  0  0
    9.0748   -1.6909   19.7634 H   0  0  0  0  0  0  0  0  0  0  0  0
    9.5720   -1.6084   21.4573 H   0  0  0  0  0  0  0  0  0  0  0  0
    5.2420    0.9933   20.1237 C   0  0  0  0  0  0  0  0  0  0  0  0
    4.7188    1.1174   21.0750 H   0  0  0  0  0  0  0  0  0  0  0  0
    4.7118    1.5156   18.9442 C   0  0  0  0  0  0  0  0  0  0  0  0
    3.7771    2.0655   18.9347 H   0  0  0  0  0  0  0  0  0  0  0  0
  1  2  1  0
  2  3  2  0
  3  4  1  0
  4  5  1  0
  4  6  2  0
  6  7  1  0
  7  8  2  0
  7  9  1  0
  9 10  1  0
 10 11  1  0
 10 12  1  0
 12 13  2  0
 12 14  1  0
 14 15  2  0
 15 16  1  0
 15 17  1  0
 17 18  1  0
 17 19  2  0
 19 20  1  0
 20 21  1  0
 20 22  2  0
 22 23  1  0
  9 24  1  0
 24 25  1  0
 24 26  1  0
 24 27  1  0
  9 28  1  0
 28 29  1  0
 28 30  1  0
 28 31  1  0
  6 32  1  0
 32 33  1  0
 32 34  2  0
 34 35  1  0
 34  2  1  0
 22 14  1  0
M  END
>  <cnnaffinity>  (1) 
-4.72913

>  <filename>  (1) 
CC(C)(NC(=O)c1ccncc1)C(=O)c1cccnc1

$$$$
