
     RDKit          3D

 22 22  0  0  0  0  0  0  0  0999 V2000
    4.9146    1.7304   16.9961 H   0  0  0  0  0  0  0  0  0  0  0  0
    5.4528    1.2548   17.8108 C   0  0  0  0  0  0  0  0  0  0  0  0
    6.5858    0.6248   17.4653 N   0  0  0  0  0  0  0  0  0  0  0  0
    7.2749    0.0311   18.4399 C   0  0  0  0  0  0  0  0  0  0  0  0
    8.1735   -0.5043   18.1448 H   0  0  0  0  0  0  0  0  0  0  0  0
    6.9055    0.0786   19.7977 C   0  0  0  0  0  0  0  0  0  0  0  0
    7.8586   -0.5697   20.7553 C   0  0  0  0  0  0  0  0  0  0  0  0
    8.6867   -1.3623   20.3466 O   0  0  0  0  0  0  0  0  0  0  0  0
    7.8127   -0.2435   22.2897 C   0  0  0  0  0  0  0  0  0  0  0  0
    7.3711    1.0803   22.4509 F   0  0  0  0  0  0  0  0  0  0  0  0
    6.8529   -1.1786   23.0385 C   0  0  0  0  0  0  0  0  0  0  0  0
    7.3842   -2.0852   23.3599 H   0  0  0  0  0  0  0  0  0  0  0  0
    6.4606   -0.6589   23.9216 H   0  0  0  0  0  0  0  0  0  0  0  0
    6.0209   -1.4953   22.4069 H   0  0  0  0  0  0  0  0  0  0  0  0
    9.2012   -0.3138   22.9138 C   0  0  0  0  0  0  0  0  0  0  0  0
    9.5742   -1.3423   22.8519 H   0  0  0  0  0  0  0  0  0  0  0  0
    9.8952    0.3571   22.4019 H   0  0  0  0  0  0  0  0  0  0  0  0
    9.1262   -0.0091   23.9621 H   0  0  0  0  0  0  0  0  0  0  0  0
    5.6929    0.7031   20.1394 C   0  0  0  0  0  0  0  0  0  0  0  0
    5.3251    0.7340   21.1682 H   0  0  0  0  0  0  0  0  0  0  0  0
    4.9551    1.2971   19.1164 C   0  0  0  0  0  0  0  0  0  0  0  0
    4.0135    1.8007   19.3119 H   0  0  0  0  0  0  0  0  0  0  0  0
  1  2  1  0
  2  3  2  0
  3  4  1  0
  4  5  1  0
  4  6  2  0
  6  7  1  0
  7  8  2  0
  7  9  1  0
  9 10  1  0
  9 11  1  0
 11 12  1  0
 11 13  1  0
 11 14  1  0
  9 15  1  0
 15 16  1  0
 15 17  1  0
 15 18  1  0
  6 19  1  0
 19 20  1  0
 19 21  2  0
 21 22  1  0
 21  2  1  0
M  END
>  <cnnaffinity>  (1) 
-3.46762

>  <filename>  (1) 
CC(C)(F)C(=O)c1cccnc1

$$$$
