
     RDKit          3D

 34 35  0  0  0  0  0  0  0  0999 V2000
    5.0192    1.7012   17.0542 H   0  0  0  0  0  0  0  0  0  0  0  0
    5.5090    1.1967   17.8837 C   0  0  0  0  0  0  0  0  0  0  0  0
    6.6688    0.5810   17.5985 N   0  0  0  0  0  0  0  0  0  0  0  0
    7.3021   -0.0355   18.6105 C   0  0  0  0  0  0  0  0  0  0  0  0
    8.2553   -0.5015   18.3704 H   0  0  0  0  0  0  0  0  0  0  0  0
    6.8315   -0.0879   19.9448 C   0  0  0  0  0  0  0  0  0  0  0  0
    7.6008   -0.7101   20.9817 N   0  0  0  0  0  0  0  0  0  0  0  0
    8.1074   -0.0504   21.5765 H   0  0  0  0  0  0  0  0  0  0  0  0
    7.0649   -1.7030   21.8289 C   0  0  0  0  0  0  0  0  0  0  0  0
    5.9713   -2.6001   21.6894 C   0  0  0  0  0  0  0  0  0  0  0  0
    5.2945   -2.7192   20.8526 H   0  0  0  0  0  0  0  0  0  0  0  0
    5.8254   -3.3603   22.7739 N   0  0  0  0  0  0  0  0  0  0  0  0
    6.8315   -2.9826   23.5788 N   0  0  0  0  0  0  0  0  0  0  0  0
    6.8969   -3.3808   24.5080 H   0  0  0  0  0  0  0  0  0  0  0  0
    7.6156   -2.0062   23.0590 C   0  0  0  0  0  0  0  0  0  0  0  0
    8.9231   -1.5679   23.6457 C   0  0  0  0  0  0  0  0  0  0  0  0
    9.7072   -1.9177   22.9554 H   0  0  0  0  0  0  0  0  0  0  0  0
    9.0913   -2.0943   24.6034 H   0  0  0  0  0  0  0  0  0  0  0  0
    9.0431   -0.1159   23.7584 N   0  0  0  0  0  0  0  0  0  0  0  0
    8.3961    0.2316   24.4607 H   0  0  0  0  0  0  0  0  0  0  0  0
   10.3889    0.3755   24.0625 C   0  0  0  0  0  0  0  0  0  0  0  0
   10.9783   -0.3801   24.6176 H   0  0  0  0  0  0  0  0  0  0  0  0
   10.2801    1.6166   24.9395 C   0  0  0  0  0  0  0  0  0  0  0  0
    9.8239    1.3879   25.9109 H   0  0  0  0  0  0  0  0  0  0  0  0
    9.6767    2.3846   24.4400 H   0  0  0  0  0  0  0  0  0  0  0  0
   11.2741    2.0316   25.1308 H   0  0  0  0  0  0  0  0  0  0  0  0
   11.1173    0.6802   22.7545 C   0  0  0  0  0  0  0  0  0  0  0  0
   11.2192   -0.2226   22.1407 H   0  0  0  0  0  0  0  0  0  0  0  0
   10.5560    1.4281   22.1800 H   0  0  0  0  0  0  0  0  0  0  0  0
   12.1208    1.0749   22.9523 H   0  0  0  0  0  0  0  0  0  0  0  0
    5.6121    0.5589   20.2121 C   0  0  0  0  0  0  0  0  0  0  0  0
    5.2063    0.5570   21.2260 H   0  0  0  0  0  0  0  0  0  0  0  0
    4.9429    1.2083   19.1633 C   0  0  0  0  0  0  0  0  0  0  0  0
    4.0068    1.7338   19.3276 H   0  0  0  0  0  0  0  0  0  0  0  0
  1  2  1  0
  2  3  2  0
  3  4  1  0
  4  5  1  0
  4  6  2  0
  6  7  1  0
  7  8  1  0
  7  9  1  0
  9 10  1  0
 10 11  1  0
 10 12  2  0
 12 13  1  0
 13 14  1  0
 13 15  1  0
 15 16  1  0
 16 17  1  0
 16 18  1  0
 16 19  1  0
 19 20  1  0
 19 21  1  0
 21 22  1  0
 21 23  1  0
 23 24  1  0
 23 25  1  0
 23 26  1  0
 21 27  1  0
 27 28  1  0
 27 29  1  0
 27 30  1  0
  6 31  1  0
 31 32  1  0
 31 33  2  0
 33 34  1  0
 33  2  1  0
 15  9  2  0
M  END
>  <cnnaffinity>  (1) 
-5.16247

>  <filename>  (1) 
CC(C)NCc1[nH]ncc1Nc1cccnc1

$$$$
