
     RDKit          3D

 45 48  0  0  0  0  0  0  0  0999 V2000
    8.1973    2.4772   21.5840 C   0  0  0  0  0  0  0  0  0  0  0  0
    9.5376    1.7856   21.8407 C   0  0  0  0  0  0  0  0  0  0  0  0
    9.6335    0.4757   20.9851 C   0  0  0  0  0  0  0  0  0  0  0  0
    8.6624   -0.6048   21.3450 C   0  0  0  0  0  0  0  0  0  0  0  0
    8.8751   -1.5493   22.2442 N   0  0  0  0  0  0  0  0  0  0  0  0
    7.6389   -2.0715   22.4474 C   0  0  0  0  0  0  0  0  0  0  0  0
    7.3925   -3.0034   23.5838 C   0  0  0  0  0  0  0  0  0  0  0  0
    6.5150   -2.4510   24.7596 C   0  0  0  0  0  0  0  0  0  0  0  0
    5.4480   -3.5263   24.4546 C   0  0  0  0  0  0  0  0  0  0  0  0
    6.3460   -4.1267   23.3478 C   0  0  0  0  0  0  0  0  0  0  0  0
    6.7212   -5.1352   23.5441 H   0  0  0  0  0  0  0  0  0  0  0  0
    5.9048   -4.1018   22.3481 H   0  0  0  0  0  0  0  0  0  0  0  0
    4.5062   -3.1189   24.0758 H   0  0  0  0  0  0  0  0  0  0  0  0
    5.2097   -4.1973   25.2838 H   0  0  0  0  0  0  0  0  0  0  0  0
    6.9858   -2.5444   25.7424 H   0  0  0  0  0  0  0  0  0  0  0  0
    6.1872   -1.4116   24.6352 H   0  0  0  0  0  0  0  0  0  0  0  0
    8.3822   -3.3388   23.9009 H   0  0  0  0  0  0  0  0  0  0  0  0
    6.6959   -1.5917   21.6577 N   0  0  0  0  0  0  0  0  0  0  0  0
    7.3668   -0.6726   20.9115 N   0  0  0  0  0  0  0  0  0  0  0  0
    6.6726    0.0076   19.8720 C   0  0  0  0  0  0  0  0  0  0  0  0
    5.4540    0.6357   20.1440 C   0  0  0  0  0  0  0  0  0  0  0  0
    4.8169    1.3081   19.0990 C   0  0  0  0  0  0  0  0  0  0  0  0
    5.4017    1.3051   17.8296 C   0  0  0  0  0  0  0  0  0  0  0  0
    6.5506    0.6664   17.5513 N   0  0  0  0  0  0  0  0  0  0  0  0
    7.1698    0.0364   18.5596 C   0  0  0  0  0  0  0  0  0  0  0  0
    8.0976   -0.4832   18.3119 H   0  0  0  0  0  0  0  0  0  0  0  0
    4.9317    1.8310   17.0034 H   0  0  0  0  0  0  0  0  0  0  0  0
    3.8834    1.8334   19.2606 H   0  0  0  0  0  0  0  0  0  0  0  0
    5.0303    0.5792   21.1496 H   0  0  0  0  0  0  0  0  0  0  0  0
   10.6393    0.0588   21.0734 H   0  0  0  0  0  0  0  0  0  0  0  0
    9.4794    0.7443   19.9373 H   0  0  0  0  0  0  0  0  0  0  0  0
    9.7987    1.5439   23.3228 C   0  0  0  0  0  0  0  0  0  0  0  0
    8.7965    1.1460   24.2181 C   0  0  0  0  0  0  0  0  0  0  0  0
    9.1395    0.7901   25.5198 C   0  0  0  0  0  0  0  0  0  0  0  0
   10.4822    0.8545   25.8949 C   0  0  0  0  0  0  0  0  0  0  0  0
   11.4564    1.2783   25.0817 N   0  0  0  0  0  0  0  0  0  0  0  0
   11.1053    1.6133   23.8358 C   0  0  0  0  0  0  0  0  0  0  0  0
   11.9193    1.9557   23.1949 H   0  0  0  0  0  0  0  0  0  0  0  0
   10.7919    0.5404   26.8856 H   0  0  0  0  0  0  0  0  0  0  0  0
    8.3859    0.4598   26.2236 H   0  0  0  0  0  0  0  0  0  0  0  0
    7.7639    1.0463   23.8799 H   0  0  0  0  0  0  0  0  0  0  0  0
   10.3372    2.4481   21.4752 H   0  0  0  0  0  0  0  0  0  0  0  0
    7.3660    1.9156   22.0193 H   0  0  0  0  0  0  0  0  0  0  0  0
    7.9900    2.5052   20.5157 H   0  0  0  0  0  0  0  0  0  0  0  0
    8.1808    3.4945   21.9907 H   0  0  0  0  0  0  0  0  0  0  0  0
  1  2  1  0
  2  3  1  0
  3  4  1  0
  4  5  2  0
  5  6  1  0
  6  7  1  0
  7  8  1  0
  8  9  1  0
  9 10  1  0
 10 11  1  0
 10 12  1  0
  9 13  1  0
  9 14  1  0
  8 15  1  0
  8 16  1  0
  7 17  1  0
  6 18  2  0
 18 19  1  0
 19 20  1  0
 20 21  2  0
 21 22  1  0
 22 23  2  0
 23 24  1  0
 24 25  2  0
 25 26  1  0
 23 27  1  0
 22 28  1  0
 21 29  1  0
  3 30  1  0
  3 31  1  0
  2 32  1  0
 32 33  2  0
 33 34  1  0
 34 35  2  0
 35 36  1  0
 36 37  2  0
 37 38  1  0
 35 39  1  0
 34 40  1  0
 33 41  1  0
  2 42  1  0
  1 43  1  0
  1 44  1  0
  1 45  1  0
 19  4  1  0
 25 20  1  0
 37 32  1  0
 10  7  1  0
M  END
>  <cnnaffinity>  (1) 
-6.29108

>  <filename>  (1) 
CC(Cc1nc(C2CCC2)nn1-c1cccnc1)c1cccnc1

$$$$
