
     RDKit          3D

 43 45  0  0  0  0  0  0  0  0999 V2000
    6.3591   -3.4998   27.0911 C   0  0  0  0  0  0  0  0  0  0  0  0
    6.3195   -3.4145   25.5547 C   0  0  0  0  0  0  0  0  0  0  0  0
    4.8764   -3.5272   25.0207 C   0  0  0  0  0  0  0  0  0  0  0  0
    4.8550   -3.5063   23.9256 H   0  0  0  0  0  0  0  0  0  0  0  0
    4.2707   -2.6893   25.3841 H   0  0  0  0  0  0  0  0  0  0  0  0
    4.4074   -4.4595   25.3532 H   0  0  0  0  0  0  0  0  0  0  0  0
    6.9813   -2.1561   25.0485 C   0  0  0  0  0  0  0  0  0  0  0  0
    6.6004   -0.9504   25.4330 N   0  0  0  0  0  0  0  0  0  0  0  0
    7.4233   -0.1349   24.7245 N   0  0  0  0  0  0  0  0  0  0  0  0
    7.3427    1.2734   24.8480 C   0  0  0  0  0  0  0  0  0  0  0  0
    8.4665    2.0631   25.0491 C   0  0  0  0  0  0  0  0  0  0  0  0
    8.2615    3.4450   25.1302 C   0  0  0  0  0  0  0  0  0  0  0  0
    7.0594    4.0210   25.0209 N   0  0  0  0  0  0  0  0  0  0  0  0
    5.9855    3.2523   24.8266 N   0  0  0  0  0  0  0  0  0  0  0  0
    6.1001    1.9250   24.7556 C   0  0  0  0  0  0  0  0  0  0  0  0
    5.1689    1.3965   24.6021 H   0  0  0  0  0  0  0  0  0  0  0  0
    9.0872    4.1253   25.2880 H   0  0  0  0  0  0  0  0  0  0  0  0
    9.4579    1.6344   25.1781 H   0  0  0  0  0  0  0  0  0  0  0  0
    8.2249   -0.8929   23.9251 C   0  0  0  0  0  0  0  0  0  0  0  0
    9.1128   -0.3258   22.8687 C   0  0  0  0  0  0  0  0  0  0  0  0
    8.3224    0.3259   21.7217 C   0  0  0  0  0  0  0  0  0  0  0  0
    7.4068   -0.6745   20.9985 C   0  0  0  0  0  0  0  0  0  0  0  0
    6.6427   -0.0099   19.8895 C   0  0  0  0  0  0  0  0  0  0  0  0
    5.4330    0.6479   20.1449 C   0  0  0  0  0  0  0  0  0  0  0  0
    4.7990    1.3145   19.0957 C   0  0  0  0  0  0  0  0  0  0  0  0
    5.3955    1.3000   17.8294 C   0  0  0  0  0  0  0  0  0  0  0  0
    6.5592    0.6878   17.5633 N   0  0  0  0  0  0  0  0  0  0  0  0
    7.1587    0.0614   18.5854 C   0  0  0  0  0  0  0  0  0  0  0  0
    8.1097   -0.4182   18.3557 H   0  0  0  0  0  0  0  0  0  0  0  0
    4.9153    1.7909   16.9869 H   0  0  0  0  0  0  0  0  0  0  0  0
    3.8700    1.8478   19.2506 H   0  0  0  0  0  0  0  0  0  0  0  0
    5.0118    0.6387   21.1563 H   0  0  0  0  0  0  0  0  0  0  0  0
    8.0109   -1.5029   20.6031 H   0  0  0  0  0  0  0  0  0  0  0  0
    6.7059   -1.1255   21.7154 H   0  0  0  0  0  0  0  0  0  0  0  0
    7.7221    1.1619   22.1013 H   0  0  0  0  0  0  0  0  0  0  0  0
    9.0217    0.7608   20.9983 H   0  0  0  0  0  0  0  0  0  0  0  0
    9.7068   -1.1598   22.4836 H   0  0  0  0  0  0  0  0  0  0  0  0
    9.8116    0.3939   23.3042 H   0  0  0  0  0  0  0  0  0  0  0  0
    7.9692   -2.1737   24.1172 N   0  0  0  0  0  0  0  0  0  0  0  0
    6.9088   -4.2373   25.1400 H   0  0  0  0  0  0  0  0  0  0  0  0
    7.3873   -3.4465   27.4648 H   0  0  0  0  0  0  0  0  0  0  0  0
    5.7971   -2.6683   27.5317 H   0  0  0  0  0  0  0  0  0  0  0  0
    5.9175   -4.4397   27.4412 H   0  0  0  0  0  0  0  0  0  0  0  0
  1  2  1  0
  2  3  1  0
  3  4  1  0
  3  5  1  0
  3  6  1  0
  2  7  1  0
  7  8  2  0
  8  9  1  0
  9 10  1  0
 10 11  2  0
 11 12  1  0
 12 13  2  0
 13 14  1  0
 14 15  2  0
 15 16  1  0
 12 17  1  0
 11 18  1  0
  9 19  1  0
 19 20  1  0
 20 21  1  0
 21 22  1  0
 22 23  1  0
 23 24  2  0
 24 25  1  0
 25 26  2  0
 26 27  1  0
 27 28  2  0
 28 29  1  0
 26 30  1  0
 25 31  1  0
 24 32  1  0
 22 33  1  0
 22 34  1  0
 21 35  1  0
 21 36  1  0
 20 37  1  0
 20 38  1  0
 19 39  2  0
  2 40  1  0
  1 41  1  0
  1 42  1  0
  1 43  1  0
 39  7  1  0
 15 10  1  0
 28 23  1  0
M  END
>  <cnnaffinity>  (1) 
-5.64969

>  <filename>  (1) 
CC(C)c1nc(CCCc2cccnc2)n(-c2ccnnc2)n1

$$$$
