
     RDKit          3D

 36 37  0  0  0  0  0  0  0  0999 V2000
    4.9393    1.7644   17.0135 H   0  0  0  0  0  0  0  0  0  0  0  0
    5.4199    1.2769   17.8632 C   0  0  0  0  0  0  0  0  0  0  0  0
    6.5829    0.6559   17.6251 N   0  0  0  0  0  0  0  0  0  0  0  0
    7.1934    0.0347   18.6373 C   0  0  0  0  0  0  0  0  0  0  0  0
    8.1352   -0.4512   18.3886 H   0  0  0  0  0  0  0  0  0  0  0  0
    6.6528    0.0140   19.9148 C   0  0  0  0  0  0  0  0  0  0  0  0
    7.4845   -0.9023   21.1600 S   0  0  0  0  0  0  0  0  0  0  0  0
    8.3806   -1.8434   20.5038 O   0  0  0  0  0  0  0  0  0  0  0  0
    6.4353   -1.3579   22.0568 O   0  0  0  0  0  0  0  0  0  0  0  0
    8.5856    0.3302   22.0741 C   0  0  0  0  0  0  0  0  0  0  0  0
    9.4739    1.0620   21.0567 C   0  0  0  0  0  0  0  0  0  0  0  0
   10.1708    1.7386   21.5751 H   0  0  0  0  0  0  0  0  0  0  0  0
    8.8663    1.6790   20.3872 H   0  0  0  0  0  0  0  0  0  0  0  0
   10.0626    0.3497   20.4731 H   0  0  0  0  0  0  0  0  0  0  0  0
    7.7148    1.3479   22.8265 C   0  0  0  0  0  0  0  0  0  0  0  0
    7.1624    1.9953   22.1346 H   0  0  0  0  0  0  0  0  0  0  0  0
    6.9935    0.8612   23.4899 H   0  0  0  0  0  0  0  0  0  0  0  0
    8.3520    2.0043   23.4368 H   0  0  0  0  0  0  0  0  0  0  0  0
    9.5153   -0.4720   23.0486 C   0  0  0  0  0  0  0  0  0  0  0  0
   10.1497   -1.1442   22.4580 H   0  0  0  0  0  0  0  0  0  0  0  0
   10.1974    0.2515   23.5237 H   0  0  0  0  0  0  0  0  0  0  0  0
    8.8325   -1.2606   24.1432 C   0  0  0  0  0  0  0  0  0  0  0  0
    8.5569   -2.6257   23.9716 C   0  0  0  0  0  0  0  0  0  0  0  0
    8.8301   -3.1114   23.0380 H   0  0  0  0  0  0  0  0  0  0  0  0
    7.8892   -3.3436   24.9663 C   0  0  0  0  0  0  0  0  0  0  0  0
    7.6737   -4.3973   24.8160 H   0  0  0  0  0  0  0  0  0  0  0  0
    7.4996   -2.7224   26.1571 C   0  0  0  0  0  0  0  0  0  0  0  0
    6.9867   -3.2601   26.9482 H   0  0  0  0  0  0  0  0  0  0  0  0
    7.7904   -1.3710   26.3205 C   0  0  0  0  0  0  0  0  0  0  0  0
    7.4252   -0.7612   27.4612 F   0  0  0  0  0  0  0  0  0  0  0  0
    8.4491   -0.6323   25.3395 C   0  0  0  0  0  0  0  0  0  0  0  0
    8.6410    0.4252   25.5112 H   0  0  0  0  0  0  0  0  0  0  0  0
    5.4404    0.6558   20.1839 C   0  0  0  0  0  0  0  0  0  0  0  0
    4.9862    0.6321   21.1781 H   0  0  0  0  0  0  0  0  0  0  0  0
    4.8182    1.3050   19.1237 C   0  0  0  0  0  0  0  0  0  0  0  0
    3.8859    1.8344   19.2628 H   0  0  0  0  0  0  0  0  0  0  0  0
  1  2  1  0
  2  3  2  0
  3  4  1  0
  4  5  1  0
  4  6  2  0
  6  7  1  0
  7  8  2  0
  7  9  2  0
  7 10  1  0
 10 11  1  0
 11 12  1  0
 11 13  1  0
 11 14  1  0
 10 15  1  0
 15 16  1  0
 15 17  1  0
 15 18  1  0
 10 19  1  0
 19 20  1  0
 19 21  1  0
 19 22  1  0
 22 23  2  0
 23 24  1  0
 23 25  1  0
 25 26  1  0
 25 27  2  0
 27 28  1  0
 27 29  1  0
 29 30  1  0
 29 31  2  0
 31 32  1  0
  6 33  1  0
 33 34  1  0
 33 35  2  0
 35 36  1  0
 35  2  1  0
 31 22  1  0
M  END
>  <cnnaffinity>  (1) 
-5.09917

>  <filename>  (1) 
CC(C)(Cc1cccc(F)c1)S(=O)(=O)c1cccnc1

$$$$
