
     RDKit          3D

 42 44  0  0  0  0  0  0  0  0999 V2000
    7.6744    0.0764   25.3525 C   0  0  0  0  0  0  0  0  0  0  0  0
    7.9821   -1.4044   25.5757 C   0  0  0  0  0  0  0  0  0  0  0  0
    7.9739   -1.8085   27.0439 C   0  0  0  0  0  0  0  0  0  0  0  0
    8.1596   -2.8836   27.1251 H   0  0  0  0  0  0  0  0  0  0  0  0
    6.9900   -1.5997   27.4765 H   0  0  0  0  0  0  0  0  0  0  0  0
    8.7344   -1.2817   27.6299 H   0  0  0  0  0  0  0  0  0  0  0  0
    6.9794   -2.2302   24.9607 O   0  0  0  0  0  0  0  0  0  0  0  0
    7.2931   -2.8935   23.7388 C   0  0  0  0  0  0  0  0  0  0  0  0
    7.5193   -1.9808   22.5626 C   0  0  0  0  0  0  0  0  0  0  0  0
    6.6067   -1.5946   21.6974 N   0  0  0  0  0  0  0  0  0  0  0  0
    7.2874   -0.7293   20.8968 N   0  0  0  0  0  0  0  0  0  0  0  0
    6.6054   -0.0387   19.8548 C   0  0  0  0  0  0  0  0  0  0  0  0
    5.3994    0.6169   20.1208 C   0  0  0  0  0  0  0  0  0  0  0  0
    4.7886    1.3175   19.0786 C   0  0  0  0  0  0  0  0  0  0  0  0
    5.3860    1.3120   17.8123 C   0  0  0  0  0  0  0  0  0  0  0  0
    6.5246    0.6556   17.5407 N   0  0  0  0  0  0  0  0  0  0  0  0
    7.1194    0.0020   18.5460 C   0  0  0  0  0  0  0  0  0  0  0  0
    8.0538   -0.5087   18.3122 H   0  0  0  0  0  0  0  0  0  0  0  0
    4.9340    1.8520   16.9846 H   0  0  0  0  0  0  0  0  0  0  0  0
    3.8708    1.8708   19.2384 H   0  0  0  0  0  0  0  0  0  0  0  0
    4.9734    0.5691   21.1253 H   0  0  0  0  0  0  0  0  0  0  0  0
    8.5716   -0.6131   21.3548 C   0  0  0  0  0  0  0  0  0  0  0  0
    9.6592    0.2646   20.8331 C   0  0  0  0  0  0  0  0  0  0  0  0
   10.2852    1.1186   21.9206 C   0  0  0  0  0  0  0  0  0  0  0  0
    9.6255    2.2008   22.5253 C   0  0  0  0  0  0  0  0  0  0  0  0
    8.0840    2.7430   21.9358 Cl  0  0  0  0  0  0  0  0  0  0  0  0
   10.1887    2.8692   23.6234 C   0  0  0  0  0  0  0  0  0  0  0  0
   11.3678    2.5284   24.1581 N   0  0  0  0  0  0  0  0  0  0  0  0
   12.0189    1.5025   23.5999 C   0  0  0  0  0  0  0  0  0  0  0  0
   11.5254    0.8102   22.4905 C   0  0  0  0  0  0  0  0  0  0  0  0
   12.2759   -0.1741   21.9685 F   0  0  0  0  0  0  0  0  0  0  0  0
   12.9701    1.2077   24.0324 H   0  0  0  0  0  0  0  0  0  0  0  0
    9.6669    3.6976   24.0919 H   0  0  0  0  0  0  0  0  0  0  0  0
   10.4198   -0.3993   20.4172 H   0  0  0  0  0  0  0  0  0  0  0  0
    9.2727    0.8955   20.0333 H   0  0  0  0  0  0  0  0  0  0  0  0
    8.7496   -1.4313   22.3738 N   0  0  0  0  0  0  0  0  0  0  0  0
    6.4583   -3.5690   23.5435 H   0  0  0  0  0  0  0  0  0  0  0  0
    8.2061   -3.4990   23.8371 H   0  0  0  0  0  0  0  0  0  0  0  0
    8.9779   -1.6027   25.1397 H   0  0  0  0  0  0  0  0  0  0  0  0
    6.6875    0.3438   25.7474 H   0  0  0  0  0  0  0  0  0  0  0  0
    8.4300    0.6988   25.8520 H   0  0  0  0  0  0  0  0  0  0  0  0
    7.6905    0.3115   24.2837 H   0  0  0  0  0  0  0  0  0  0  0  0
  1  2  1  0
  2  3  1  0
  3  4  1  0
  3  5  1  0
  3  6  1  0
  2  7  1  0
  7  8  1  0
  8  9  1  0
  9 10  2  0
 10 11  1  0
 11 12  1  0
 12 13  2  0
 13 14  1  0
 14 15  2  0
 15 16  1  0
 16 17  2  0
 17 18  1  0
 15 19  1  0
 14 20  1  0
 13 21  1  0
 11 22  1  0
 22 23  1  0
 23 24  1  0
 24 25  2  0
 25 26  1  0
 25 27  1  0
 27 28  2  0
 28 29  1  0
 29 30  2  0
 30 31  1  0
 29 32  1  0
 27 33  1  0
 23 34  1  0
 23 35  1  0
 22 36  2  0
  8 37  1  0
  8 38  1  0
  2 39  1  0
  1 40  1  0
  1 41  1  0
  1 42  1  0
 36  9  1  0
 17 12  1  0
 30 24  1  0
M  END
>  <cnnaffinity>  (1) 
-6.31485

>  <filename>  (1) 
CC(C)OCc1nc(Cc2c(F)cncc2Cl)n(-c2cccnc2)n1

$$$$
