
     RDKit          3D

 50 53  0  0  0  0  0  0  0  0999 V2000
    8.5185   -3.9518   23.9121 C   0  0  0  0  0  0  0  0  0  0  0  0
    7.3461   -2.9884   23.6775 C   0  0  0  0  0  0  0  0  0  0  0  0
    7.6375   -2.0353   22.5421 C   0  0  0  0  0  0  0  0  0  0  0  0
    6.6992   -1.5809   21.7366 N   0  0  0  0  0  0  0  0  0  0  0  0
    7.3606   -0.6657   20.9737 N   0  0  0  0  0  0  0  0  0  0  0  0
    6.6734   -0.0072   19.9168 C   0  0  0  0  0  0  0  0  0  0  0  0
    5.4523    0.6247   20.1643 C   0  0  0  0  0  0  0  0  0  0  0  0
    4.8349    1.3029   19.1046 C   0  0  0  0  0  0  0  0  0  0  0  0
    5.4479    1.2986   17.8456 C   0  0  0  0  0  0  0  0  0  0  0  0
    6.5923    0.6493   17.5899 N   0  0  0  0  0  0  0  0  0  0  0  0
    7.1826    0.0041   18.6061 C   0  0  0  0  0  0  0  0  0  0  0  0
    8.0923   -0.5424   18.3686 H   0  0  0  0  0  0  0  0  0  0  0  0
    4.9925    1.8215   17.0060 H   0  0  0  0  0  0  0  0  0  0  0  0
    3.8970    1.8240   19.2469 H   0  0  0  0  0  0  0  0  0  0  0  0
    5.0105    0.5792   21.1626 H   0  0  0  0  0  0  0  0  0  0  0  0
    8.6489   -0.5742   21.4174 C   0  0  0  0  0  0  0  0  0  0  0  0
    9.5973    0.5557   21.0969 C   0  0  0  0  0  0  0  0  0  0  0  0
    9.3777    1.7738   21.9162 N   0  0  0  0  0  0  0  0  0  0  0  0
    8.2897    2.6420   21.4669 C   0  0  0  0  0  0  0  0  0  0  0  0
    8.2651    3.9900   22.1821 C   0  0  0  0  0  0  0  0  0  0  0  0
    8.2494    3.8025   23.6877 C   0  0  0  0  0  0  0  0  0  0  0  0
    9.4696    2.9643   24.1089 C   0  0  0  0  0  0  0  0  0  0  0  0
    9.2912    2.3898   25.4944 C   0  0  0  0  0  0  0  0  0  0  0  0
   10.3671    1.7649   25.9589 F   0  0  0  0  0  0  0  0  0  0  0  0
    8.2649    1.5105   25.4875 F   0  0  0  0  0  0  0  0  0  0  0  0
    8.9723    3.3465   26.3936 F   0  0  0  0  0  0  0  0  0  0  0  0
    9.8691    1.7938   23.2034 C   0  0  0  0  0  0  0  0  0  0  0  0
   10.6606    0.9559   23.6007 O   0  0  0  0  0  0  0  0  0  0  0  0
   10.3571    3.6019   24.1293 H   0  0  0  0  0  0  0  0  0  0  0  0
    8.2854    4.7746   24.1978 H   0  0  0  0  0  0  0  0  0  0  0  0
    7.3147    3.3196   23.9966 H   0  0  0  0  0  0  0  0  0  0  0  0
    9.1374    4.5973   21.9486 H   0  0  0  0  0  0  0  0  0  0  0  0
    7.3895    4.5559   21.8472 H   0  0  0  0  0  0  0  0  0  0  0  0
    7.3179    2.1456   21.6144 H   0  0  0  0  0  0  0  0  0  0  0  0
    8.4393    2.7316   20.3913 H   0  0  0  0  0  0  0  0  0  0  0  0
    9.5193    0.8063   20.0358 H   0  0  0  0  0  0  0  0  0  0  0  0
   10.6154    0.1913   21.2594 H   0  0  0  0  0  0  0  0  0  0  0  0
    8.8668   -1.4942   22.3370 N   0  0  0  0  0  0  0  0  0  0  0  0
    7.0212   -2.2662   24.9982 C   0  0  0  0  0  0  0  0  0  0  0  0
    7.9166   -1.1907   25.5397 C   0  0  0  0  0  0  0  0  0  0  0  0
    6.5380   -0.8442   25.0622 C   0  0  0  0  0  0  0  0  0  0  0  0
    5.7689   -0.5869   25.7845 H   0  0  0  0  0  0  0  0  0  0  0  0
    6.4685   -0.3057   24.1181 H   0  0  0  0  0  0  0  0  0  0  0  0
    8.0901   -1.1857   26.6148 H   0  0  0  0  0  0  0  0  0  0  0  0
    8.7555   -0.8594   24.9299 H   0  0  0  0  0  0  0  0  0  0  0  0
    6.6236   -2.9456   25.7568 H   0  0  0  0  0  0  0  0  0  0  0  0
    6.4498   -3.5338   23.3622 H   0  0  0  0  0  0  0  0  0  0  0  0
    8.2563   -4.6965   24.6706 H   0  0  0  0  0  0  0  0  0  0  0  0
    8.8061   -4.4745   22.9953 H   0  0  0  0  0  0  0  0  0  0  0  0
    9.3905   -3.3918   24.2718 H   0  0  0  0  0  0  0  0  0  0  0  0
  1  2  1  0
  2  3  1  0
  3  4  2  0
  4  5  1  0
  5  6  1  0
  6  7  2  0
  7  8  1  0
  8  9  2  0
  9 10  1  0
 10 11  2  0
 11 12  1  0
  9 13  1  0
  8 14  1  0
  7 15  1  0
  5 16  1  0
 16 17  1  0
 17 18  1  0
 18 19  1  0
 19 20  1  0
 20 21  1  0
 21 22  1  0
 22 23  1  0
 23 24  1  0
 23 25  1  0
 23 26  1  0
 22 27  1  0
 27 28  2  0
 22 29  1  0
 21 30  1  0
 21 31  1  0
 20 32  1  0
 20 33  1  0
 19 34  1  0
 19 35  1  0
 17 36  1  0
 17 37  1  0
 16 38  2  0
  2 39  1  0
 39 40  1  0
 40 41  1  0
 41 42  1  0
 41 43  1  0
 40 44  1  0
 40 45  1  0
 39 46  1  0
  2 47  1  0
  1 48  1  0
  1 49  1  0
  1 50  1  0
 38  3  1  0
 41 39  1  0
 11  6  1  0
 27 18  1  0
M  END
>  <cnnaffinity>  (1) 
-6.27415

>  <filename>  (1) 
CC(c1nc(CN2CCCC(C(F)(F)F)C2=O)n(-c2cccnc2)n1)C1CC1

$$$$
