
     RDKit          3D

 28 29  0  0  0  0  0  0  0  0999 V2000
    8.0661    4.2995   21.3945 H   0  0  0  0  0  0  0  0  0  0  0  0
    7.7938    3.3903   21.9166 C   0  0  0  0  0  0  0  0  0  0  0  0
    6.8779    3.3267   22.9240 N   0  0  0  0  0  0  0  0  0  0  0  0
    6.8955    2.0475   23.2345 C   0  0  0  0  0  0  0  0  0  0  0  0
    6.3195    1.5717   24.0161 H   0  0  0  0  0  0  0  0  0  0  0  0
    7.7530    1.3726   22.4321 N   0  0  0  0  0  0  0  0  0  0  0  0
    8.0765   -0.0681   22.2839 C   0  0  0  0  0  0  0  0  0  0  0  0
    8.0953   -0.3910   20.7395 C   0  0  0  0  0  0  0  0  0  0  0  0
    8.9473   -1.1385   20.3035 O   0  0  0  0  0  0  0  0  0  0  0  0
    7.0579    0.1678   19.8010 C   0  0  0  0  0  0  0  0  0  0  0  0
    7.3633    0.0607   18.4338 C   0  0  0  0  0  0  0  0  0  0  0  0
    8.2588   -0.4769   18.1314 H   0  0  0  0  0  0  0  0  0  0  0  0
    6.6274    0.5907   17.4582 N   0  0  0  0  0  0  0  0  0  0  0  0
    5.5166    1.2533   17.8147 C   0  0  0  0  0  0  0  0  0  0  0  0
    4.9403    1.6903   17.0024 H   0  0  0  0  0  0  0  0  0  0  0  0
    5.0935    1.3845   19.1388 C   0  0  0  0  0  0  0  0  0  0  0  0
    4.1843    1.9306   19.3687 H   0  0  0  0  0  0  0  0  0  0  0  0
    5.8647    0.8211   20.1550 C   0  0  0  0  0  0  0  0  0  0  0  0
    5.5129    0.9125   21.1825 H   0  0  0  0  0  0  0  0  0  0  0  0
    7.0407   -0.9505   22.9935 C   0  0  0  0  0  0  0  0  0  0  0  0
    7.0353   -0.7428   24.0691 H   0  0  0  0  0  0  0  0  0  0  0  0
    7.3099   -2.0021   22.8611 H   0  0  0  0  0  0  0  0  0  0  0  0
    6.0389   -0.8133   22.5917 H   0  0  0  0  0  0  0  0  0  0  0  0
    9.4510   -0.3559   22.9176 C   0  0  0  0  0  0  0  0  0  0  0  0
    9.7066   -1.4014   22.7363 H   0  0  0  0  0  0  0  0  0  0  0  0
    9.4218   -0.1877   23.9974 H   0  0  0  0  0  0  0  0  0  0  0  0
   10.2430    0.2658   22.4915 H   0  0  0  0  0  0  0  0  0  0  0  0
    8.3598    2.2445   21.5960 N   0  0  0  0  0  0  0  0  0  0  0  0
  1  2  1  0
  2  3  1  0
  3  4  2  0
  4  5  1  0
  4  6  1  0
  6  7  1  0
  7  8  1  0
  8  9  2  0
  8 10  1  0
 10 11  2  0
 11 12  1  0
 11 13  1  0
 13 14  2  0
 14 15  1  0
 14 16  1  0
 16 17  1  0
 16 18  2  0
 18 19  1  0
  7 20  1  0
 20 21  1  0
 20 22  1  0
 20 23  1  0
  7 24  1  0
 24 25  1  0
 24 26  1  0
 24 27  1  0
  6 28  1  0
 28  2  2  0
 18 10  1  0
M  END
>  <cnnaffinity>  (1) 
-4.26765

>  <filename>  (1) 
CC(C)(C(=O)c1cccnc1)n1cncn1

$$$$
