
     RDKit          3D

 46 49  0  0  0  0  0  0  0  0999 V2000
    8.3111    1.5113   25.4754 C   0  0  0  0  0  0  0  0  0  0  0  0
    7.1045    1.2711   24.5636 C   0  0  0  0  0  0  0  0  0  0  0  0
    7.3556    1.7780   23.1109 C   0  0  0  0  0  0  0  0  0  0  0  0
    8.3427    0.9202   22.3922 C   0  0  0  0  0  0  0  0  0  0  0  0
    9.6560    1.0120   22.4943 N   0  0  0  0  0  0  0  0  0  0  0  0
   10.1043   -0.1360   21.9267 C   0  0  0  0  0  0  0  0  0  0  0  0
   11.5380   -0.4969   21.7941 C   0  0  0  0  0  0  0  0  0  0  0  0
   12.5995    0.3048   22.2697 C   0  0  0  0  0  0  0  0  0  0  0  0
   13.9241   -0.0447   21.9699 C   0  0  0  0  0  0  0  0  0  0  0  0
   14.1942   -1.1879   21.2005 C   0  0  0  0  0  0  0  0  0  0  0  0
   13.1518   -1.9839   20.7495 C   0  0  0  0  0  0  0  0  0  0  0  0
   11.8438   -1.6659   21.0871 C   0  0  0  0  0  0  0  0  0  0  0  0
   11.0121   -2.2965   20.7974 H   0  0  0  0  0  0  0  0  0  0  0  0
   13.3712   -2.8164   20.0875 H   0  0  0  0  0  0  0  0  0  0  0  0
   15.1702   -1.5040   20.8848 H   0  0  0  0  0  0  0  0  0  0  0  0
   14.7337    0.6053   22.2886 H   0  0  0  0  0  0  0  0  0  0  0  0
   12.3975    1.2306   22.8044 H   0  0  0  0  0  0  0  0  0  0  0  0
    9.1297   -0.9065   21.4549 N   0  0  0  0  0  0  0  0  0  0  0  0
    8.0071   -0.2267   21.7594 N   0  0  0  0  0  0  0  0  0  0  0  0
    6.7240   -0.6695   21.2178 C   0  0  0  0  0  0  0  0  0  0  0  0
    6.2564    0.1166   20.0059 C   0  0  0  0  0  0  0  0  0  0  0  0
    5.0484    0.8212   19.9782 C   0  0  0  0  0  0  0  0  0  0  0  0
    4.6906    1.5027   18.8108 C   0  0  0  0  0  0  0  0  0  0  0  0
    5.5541    1.4512   17.7132 C   0  0  0  0  0  0  0  0  0  0  0  0
    6.7107    0.7712   17.7125 N   0  0  0  0  0  0  0  0  0  0  0  0
    7.0468    0.1333   18.8407 C   0  0  0  0  0  0  0  0  0  0  0  0
    7.9950   -0.4043   18.8172 H   0  0  0  0  0  0  0  0  0  0  0  0
    5.2976    1.9646   16.7874 H   0  0  0  0  0  0  0  0  0  0  0  0
    3.7716    2.0758   18.7455 H   0  0  0  0  0  0  0  0  0  0  0  0
    4.3927    0.8393   20.8530 H   0  0  0  0  0  0  0  0  0  0  0  0
    5.9756   -0.6373   22.0157 H   0  0  0  0  0  0  0  0  0  0  0  0
    6.8716   -1.7229   20.9628 H   0  0  0  0  0  0  0  0  0  0  0  0
    7.7416    2.7988   23.1455 H   0  0  0  0  0  0  0  0  0  0  0  0
    6.4169    1.7997   22.5489 H   0  0  0  0  0  0  0  0  0  0  0  0
    5.8625    1.8268   25.1236 N   0  0  0  0  0  0  0  0  0  0  0  0
    4.6675    1.1875   25.2097 C   0  0  0  0  0  0  0  0  0  0  0  0
    3.7825    2.0679   25.7910 C   0  0  0  0  0  0  0  0  0  0  0  0
    4.5488    3.2315   26.0131 C   0  0  0  0  0  0  0  0  0  0  0  0
    5.7987    3.0772   25.6001 N   0  0  0  0  0  0  0  0  0  0  0  0
    4.2530    4.1733   26.4636 H   0  0  0  0  0  0  0  0  0  0  0  0
    2.7450    1.8969   26.0429 H   0  0  0  0  0  0  0  0  0  0  0  0
    4.5596    0.1724   24.8448 H   0  0  0  0  0  0  0  0  0  0  0  0
    6.9107    0.1942   24.5238 H   0  0  0  0  0  0  0  0  0  0  0  0
    9.1963    1.0274   25.0555 H   0  0  0  0  0  0  0  0  0  0  0  0
    8.5130    2.5850   25.5578 H   0  0  0  0  0  0  0  0  0  0  0  0
    8.1398    1.1085   26.4773 H   0  0  0  0  0  0  0  0  0  0  0  0
  1  2  1  0
  2  3  1  0
  3  4  1  0
  4  5  2  0
  5  6  1  0
  6  7  1  0
  7  8  2  0
  8  9  1  0
  9 10  2  0
 10 11  1  0
 11 12  2  0
 12 13  1  0
 11 14  1  0
 10 15  1  0
  9 16  1  0
  8 17  1  0
  6 18  2  0
 18 19  1  0
 19 20  1  0
 20 21  1  0
 21 22  2  0
 22 23  1  0
 23 24  2  0
 24 25  1  0
 25 26  2  0
 26 27  1  0
 24 28  1  0
 23 29  1  0
 22 30  1  0
 20 31  1  0
 20 32  1  0
  3 33  1  0
  3 34  1  0
  2 35  1  0
 35 36  1  0
 36 37  2  0
 37 38  1  0
 38 39  2  0
 38 40  1  0
 37 41  1  0
 36 42  1  0
  2 43  1  0
  1 44  1  0
  1 45  1  0
  1 46  1  0
 19  4  1  0
 26 21  1  0
 39 35  1  0
 12  7  1  0
M  END
>  <cnnaffinity>  (1) 
-6.41418

>  <filename>  (1) 
CC(Cc1nc(-c2ccccc2)nn1Cc1cccnc1)n1cccn1

$$$$
