
     RDKit          3D

 45 47  0  0  0  0  0  0  0  0999 V2000
    7.2704   -1.2652   25.5196 C   0  0  0  0  0  0  0  0  0  0  0  0
    6.5095   -2.4550   24.9196 C   0  0  0  0  0  0  0  0  0  0  0  0
    6.2258   -3.5123   25.9898 C   0  0  0  0  0  0  0  0  0  0  0  0
    7.1609   -3.9205   26.3963 H   0  0  0  0  0  0  0  0  0  0  0  0
    5.6621   -3.0849   26.8276 H   0  0  0  0  0  0  0  0  0  0  0  0
    5.6421   -4.3487   25.5879 H   0  0  0  0  0  0  0  0  0  0  0  0
    7.2673   -3.1021   23.7268 C   0  0  0  0  0  0  0  0  0  0  0  0
    7.6042   -2.1407   22.6348 C   0  0  0  0  0  0  0  0  0  0  0  0
    6.7651   -1.8436   21.6655 N   0  0  0  0  0  0  0  0  0  0  0  0
    7.3900   -0.8224   21.0143 N   0  0  0  0  0  0  0  0  0  0  0  0
    6.7681   -0.2112   19.8910 C   0  0  0  0  0  0  0  0  0  0  0  0
    5.4233    0.1740   19.9635 C   0  0  0  0  0  0  0  0  0  0  0  0
    4.8489    0.7829   18.8452 C   0  0  0  0  0  0  0  0  0  0  0  0
    5.6333    0.9880   17.7032 C   0  0  0  0  0  0  0  0  0  0  0  0
    6.9151    0.6032   17.6188 N   0  0  0  0  0  0  0  0  0  0  0  0
    7.4647    0.0187   18.6910 C   0  0  0  0  0  0  0  0  0  0  0  0
    8.5055   -0.2889   18.5958 H   0  0  0  0  0  0  0  0  0  0  0  0
    5.2171    1.4809   16.8273 H   0  0  0  0  0  0  0  0  0  0  0  0
    3.8118    1.0970   18.8496 H   0  0  0  0  0  0  0  0  0  0  0  0
    4.8637    0.0006   20.8851 H   0  0  0  0  0  0  0  0  0  0  0  0
    8.5556   -0.5420   21.6624 C   0  0  0  0  0  0  0  0  0  0  0  0
    9.4161    0.6727   21.4057 C   0  0  0  0  0  0  0  0  0  0  0  0
    8.8958    1.9655   21.9479 N   0  0  0  0  0  0  0  0  0  0  0  0
    7.8568    2.6997   21.4399 C   0  0  0  0  0  0  0  0  0  0  0  0
    7.6103    4.0900   22.2293 C   0  0  0  0  0  0  0  0  0  0  0  0
    7.5850    4.4024   22.0181 C   0  0  0  0  0  0  0  0  0  0  0  0
    8.8737    3.9192   23.4064 C   0  0  0  0  0  0  0  0  0  0  0  0
    8.1764    3.6236   24.7271 C   0  0  0  0  0  0  0  0  0  0  0  0
    8.8159    2.9094   25.6732 F   0  0  0  0  0  0  0  0  0  0  0  0
    7.7867    4.7725   25.3029 F   0  0  0  0  0  0  0  0  0  0  0  0
    7.0376    2.9696   24.3905 F   0  0  0  0  0  0  0  0  0  0  0  0
    9.5665    2.6461   23.0572 C   0  0  0  0  0  0  0  0  0  0  0  0
   10.5412    2.1906   23.6004 O   0  0  0  0  0  0  0  0  0  0  0  0
    8.6231    4.9179   21.6830 H   0  0  0  0  0  0  0  0  0  0  0  0
    6.9633    5.1946   21.4148 H   0  0  0  0  0  0  0  0  0  0  0  0
    6.9857    2.2527   20.9762 H   0  0  0  0  0  0  0  0  0  0  0  0
   10.3779    0.4626   21.8834 H   0  0  0  0  0  0  0  0  0  0  0  0
    9.5995    0.7743   20.3294 H   0  0  0  0  0  0  0  0  0  0  0  0
    8.7447   -1.3989   22.6477 N   0  0  0  0  0  0  0  0  0  0  0  0
    6.6612   -3.9062   23.2982 H   0  0  0  0  0  0  0  0  0  0  0  0
    8.2091   -3.5347   24.0794 H   0  0  0  0  0  0  0  0  0  0  0  0
    5.5424   -2.0839   24.5438 H   0  0  0  0  0  0  0  0  0  0  0  0
    8.2822   -1.5591   25.8294 H   0  0  0  0  0  0  0  0  0  0  0  0
    6.7505   -0.8662   26.3984 H   0  0  0  0  0  0  0  0  0  0  0  0
    7.3796   -0.4483   24.7966 H   0  0  0  0  0  0  0  0  0  0  0  0
  1  2  1  0
  2  3  1  0
  3  4  1  0
  3  5  1  0
  3  6  1  0
  2  7  1  0
  7  8  1  0
  8  9  2  0
  9 10  1  0
 10 11  1  0
 11 12  2  0
 12 13  1  0
 13 14  2  0
 14 15  1  0
 15 16  2  0
 16 17  1  0
 14 18  1  0
 13 19  1  0
 12 20  1  0
 10 21  1  0
 21 22  1  0
 22 23  1  0
 23 24  1  0
 24 25  2  0
 25 26  1  0
 26 27  2  0
 27 28  1  0
 28 29  1  0
 28 30  1  0
 28 31  1  0
 27 32  1  0
 32 33  2  0
 26 34  1  0
 25 35  1  0
 24 36  1  0
 22 37  1  0
 22 38  1  0
 21 39  2  0
  7 40  1  0
  7 41  1  0
  2 42  1  0
  1 43  1  0
  1 44  1  0
  1 45  1  0
 39  8  1  0
 16 11  1  0
 32 23  1  0
M  END
>  <cnnaffinity>  (1) 
-6.00583

>  <filename>  (1) 
CC(C)Cc1nc(Cn2cccc(C(F)(F)F)c2=O)n(-c2cccnc2)n1

$$$$
