
     RDKit          3D

 41 44  0  0  0  0  0  0  0  0999 V2000
    5.7080   -2.8619   24.4900 C   0  0  0  0  0  0  0  0  0  0  0  0
    7.0622   -3.1359   23.8169 C   0  0  0  0  0  0  0  0  0  0  0  0
    7.4231   -2.1120   22.7692 C   0  0  0  0  0  0  0  0  0  0  0  0
    6.6539   -1.7693   21.7536 N   0  0  0  0  0  0  0  0  0  0  0  0
    7.4074   -0.8471   21.0862 N   0  0  0  0  0  0  0  0  0  0  0  0
    6.8019   -0.1234   20.0067 C   0  0  0  0  0  0  0  0  0  0  0  0
    5.5984    0.5576   20.2399 C   0  0  0  0  0  0  0  0  0  0  0  0
    5.0091    1.2475   19.1779 C   0  0  0  0  0  0  0  0  0  0  0  0
    5.6219    1.2112   17.9199 C   0  0  0  0  0  0  0  0  0  0  0  0
    6.7624    0.5455   17.6785 N   0  0  0  0  0  0  0  0  0  0  0  0
    7.3401   -0.0954   18.7067 C   0  0  0  0  0  0  0  0  0  0  0  0
    8.2652   -0.6274   18.4793 H   0  0  0  0  0  0  0  0  0  0  0  0
    5.1740    1.7336   17.0761 H   0  0  0  0  0  0  0  0  0  0  0  0
    4.0882    1.8064   19.3142 H   0  0  0  0  0  0  0  0  0  0  0  0
    5.1462    0.5345   21.2332 H   0  0  0  0  0  0  0  0  0  0  0  0
    8.5850   -0.6831   21.7629 C   0  0  0  0  0  0  0  0  0  0  0  0
    9.6365    0.3317   21.4424 C   0  0  0  0  0  0  0  0  0  0  0  0
    9.2276    1.6732   21.9616 C   0  0  0  0  0  0  0  0  0  0  0  0
    8.4114    2.5997   21.3789 C   0  0  0  0  0  0  0  0  0  0  0  0
    8.0931    3.5855   22.3624 C   0  0  0  0  0  0  0  0  0  0  0  0
    8.7329    3.2074   23.5171 C   0  0  0  0  0  0  0  0  0  0  0  0
    9.4330    2.0496   23.2596 N   0  0  0  0  0  0  0  0  0  0  0  0
    9.7800    1.4068   23.9577 H   0  0  0  0  0  0  0  0  0  0  0  0
    8.7615    3.6680   24.4950 H   0  0  0  0  0  0  0  0  0  0  0  0
    7.4904    4.4788   22.2388 H   0  0  0  0  0  0  0  0  0  0  0  0
    8.0692    2.4824   20.3618 H   0  0  0  0  0  0  0  0  0  0  0  0
    9.7783    0.3621   20.3598 H   0  0  0  0  0  0  0  0  0  0  0  0
   10.5693   -0.0036   21.9050 H   0  0  0  0  0  0  0  0  0  0  0  0
    8.6188   -1.4690   22.8150 N   0  0  0  0  0  0  0  0  0  0  0  0
    7.1463   -4.5788   23.2945 C   0  0  0  0  0  0  0  0  0  0  0  0
    6.6301   -4.9861   21.9422 C   0  0  0  0  0  0  0  0  0  0  0  0
    8.1127   -4.9495   22.2066 C   0  0  0  0  0  0  0  0  0  0  0  0
    8.6847   -4.1397   21.7528 H   0  0  0  0  0  0  0  0  0  0  0  0
    8.6542   -5.8893   22.3066 H   0  0  0  0  0  0  0  0  0  0  0  0
    6.2244   -4.2028   21.3003 H   0  0  0  0  0  0  0  0  0  0  0  0
    6.1512   -5.9591   21.8338 H   0  0  0  0  0  0  0  0  0  0  0  0
    7.0501   -5.3144   24.0962 H   0  0  0  0  0  0  0  0  0  0  0  0
    7.8545   -3.0218   24.5635 H   0  0  0  0  0  0  0  0  0  0  0  0
    5.5664   -3.5396   25.3370 H   0  0  0  0  0  0  0  0  0  0  0  0
    5.6301   -1.8395   24.8748 H   0  0  0  0  0  0  0  0  0  0  0  0
    4.8829   -3.0239   23.7912 H   0  0  0  0  0  0  0  0  0  0  0  0
  1  2  1  0
  2  3  1  0
  3  4  2  0
  4  5  1  0
  5  6  1  0
  6  7  2  0
  7  8  1  0
  8  9  2  0
  9 10  1  0
 10 11  2  0
 11 12  1  0
  9 13  1  0
  8 14  1  0
  7 15  1  0
  5 16  1  0
 16 17  1  0
 17 18  1  0
 18 19  2  0
 19 20  1  0
 20 21  2  0
 21 22  1  0
 22 23  1  0
 21 24  1  0
 20 25  1  0
 19 26  1  0
 17 27  1  0
 17 28  1  0
 16 29  2  0
  2 30  1  0
 30 31  1  0
 31 32  1  0
 32 33  1  0
 32 34  1  0
 31 35  1  0
 31 36  1  0
 30 37  1  0
  2 38  1  0
  1 39  1  0
  1 40  1  0
  1 41  1  0
 29  3  1  0
 32 30  1  0
 11  6  1  0
 22 18  1  0
M  END
>  <cnnaffinity>  (1) 
-5.45856

>  <filename>  (1) 
CC(c1nc(Cc2ccc[nH]2)n(-c2cccnc2)n1)C1CC1

$$$$
