
     RDKit          3D

 49 51  0  0  0  0  0  0  0  0999 V2000
    7.3235   -3.1499   26.2533 C   0  0  0  0  0  0  0  0  0  0  0  0
    7.3907   -2.1553   25.0975 C   0  0  0  0  0  0  0  0  0  0  0  0
    6.2756   -1.1116   25.1802 C   0  0  0  0  0  0  0  0  0  0  0  0
    6.3588   -0.3519   24.3953 H   0  0  0  0  0  0  0  0  0  0  0  0
    6.2823   -0.5922   26.1437 H   0  0  0  0  0  0  0  0  0  0  0  0
    5.2947   -1.5888   25.0672 H   0  0  0  0  0  0  0  0  0  0  0  0
    7.3419   -2.8986   23.7463 C   0  0  0  0  0  0  0  0  0  0  0  0
    7.5616   -1.9737   22.6018 C   0  0  0  0  0  0  0  0  0  0  0  0
    6.6455   -1.5606   21.7554 N   0  0  0  0  0  0  0  0  0  0  0  0
    7.3261   -0.6878   20.9644 N   0  0  0  0  0  0  0  0  0  0  0  0
    6.6565   -0.0061   19.9054 C   0  0  0  0  0  0  0  0  0  0  0  0
    5.4393    0.6389   20.1583 C   0  0  0  0  0  0  0  0  0  0  0  0
    4.8119    1.3093   19.1045 C   0  0  0  0  0  0  0  0  0  0  0  0
    5.4098    1.2938   17.8383 C   0  0  0  0  0  0  0  0  0  0  0  0
    6.5610    0.6560   17.5781 N   0  0  0  0  0  0  0  0  0  0  0  0
    7.1681    0.0291   18.5936 C   0  0  0  0  0  0  0  0  0  0  0  0
    8.1061   -0.4677   18.3469 H   0  0  0  0  0  0  0  0  0  0  0  0
    4.9428    1.8082   17.0007 H   0  0  0  0  0  0  0  0  0  0  0  0
    3.8787    1.8448   19.2541 H   0  0  0  0  0  0  0  0  0  0  0  0
    5.0150    0.5964   21.1620 H   0  0  0  0  0  0  0  0  0  0  0  0
    8.6151   -0.6060   21.4131 C   0  0  0  0  0  0  0  0  0  0  0  0
    9.6841    0.2105   20.7424 C   0  0  0  0  0  0  0  0  0  0  0  0
   10.7575    0.7227   21.6014 N   0  0  0  0  0  0  0  0  0  0  0  0
   10.3431    1.7278   22.5873 C   0  0  0  0  0  0  0  0  0  0  0  0
   11.5391    2.4745   23.1970 C   0  0  0  0  0  0  0  0  0  0  0  0
   12.1574    3.4754   22.2073 C   0  0  0  0  0  0  0  0  0  0  0  0
   12.2338    3.0238   20.9489 F   0  0  0  0  0  0  0  0  0  0  0  0
   11.4511    4.6269   22.1783 F   0  0  0  0  0  0  0  0  0  0  0  0
   13.4050    3.8385   22.5754 F   0  0  0  0  0  0  0  0  0  0  0  0
   12.5564    1.4675   23.7659 C   0  0  0  0  0  0  0  0  0  0  0  0
   12.9721    0.4685   22.6889 C   0  0  0  0  0  0  0  0  0  0  0  0
   11.8726   -0.0792   21.8040 C   0  0  0  0  0  0  0  0  0  0  0  0
   12.0264   -1.1463   21.2295 O   0  0  0  0  0  0  0  0  0  0  0  0
   13.6696    0.9337   21.9910 H   0  0  0  0  0  0  0  0  0  0  0  0
   13.4804   -0.4063   23.0898 H   0  0  0  0  0  0  0  0  0  0  0  0
   13.4391    1.9913   24.1505 H   0  0  0  0  0  0  0  0  0  0  0  0
   12.1105    0.9624   24.6321 H   0  0  0  0  0  0  0  0  0  0  0  0
   11.1652    3.1093   24.0066 H   0  0  0  0  0  0  0  0  0  0  0  0
    9.7697    1.2225   23.3837 H   0  0  0  0  0  0  0  0  0  0  0  0
    9.6677    2.4397   22.0927 H   0  0  0  0  0  0  0  0  0  0  0  0
    9.2082    1.0469   20.2225 H   0  0  0  0  0  0  0  0  0  0  0  0
   10.1330   -0.4589   20.0038 H   0  0  0  0  0  0  0  0  0  0  0  0
    8.7890   -1.4181   22.4301 N   0  0  0  0  0  0  0  0  0  0  0  0
    8.1423   -3.6438   23.7082 H   0  0  0  0  0  0  0  0  0  0  0  0
    6.3879   -3.4159   23.6178 H   0  0  0  0  0  0  0  0  0  0  0  0
    8.3560   -1.6308   25.1509 H   0  0  0  0  0  0  0  0  0  0  0  0
    8.1529   -3.8648   26.2163 H   0  0  0  0  0  0  0  0  0  0  0  0
    6.3899   -3.7236   26.2179 H   0  0  0  0  0  0  0  0  0  0  0  0
    7.3678   -2.6439   27.2239 H   0  0  0  0  0  0  0  0  0  0  0  0
  1  2  1  0
  2  3  1  0
  3  4  1  0
  3  5  1  0
  3  6  1  0
  2  7  1  0
  7  8  1  0
  8  9  2  0
  9 10  1  0
 10 11  1  0
 11 12  2  0
 12 13  1  0
 13 14  2  0
 14 15  1  0
 15 16  2  0
 16 17  1  0
 14 18  1  0
 13 19  1  0
 12 20  1  0
 10 21  1  0
 21 22  1  0
 22 23  1  0
 23 24  1  0
 24 25  1  0
 25 26  1  0
 26 27  1  0
 26 28  1  0
 26 29  1  0
 25 30  1  0
 30 31  1  0
 31 32  1  0
 32 33  2  0
 31 34  1  0
 31 35  1  0
 30 36  1  0
 30 37  1  0
 25 38  1  0
 24 39  1  0
 24 40  1  0
 22 41  1  0
 22 42  1  0
 21 43  2  0
  7 44  1  0
  7 45  1  0
  2 46  1  0
  1 47  1  0
  1 48  1  0
  1 49  1  0
 43  8  1  0
 16 11  1  0
 32 23  1  0
M  END
>  <cnnaffinity>  (1) 
-6.47402

>  <filename>  (1) 
CC(C)Cc1nc(CN2CC(C(F)(F)F)CCC2=O)n(-c2cccnc2)n1

$$$$
