
     RDKit          3D

 47 50  0  0  0  0  0  0  0  0999 V2000
   10.5255    2.2522   20.9824 C   0  0  0  0  0  0  0  0  0  0  0  0
    9.9090    0.8567   21.0921 C   0  0  0  0  0  0  0  0  0  0  0  0
   10.8915   -0.3002   21.4520 C   0  0  0  0  0  0  0  0  0  0  0  0
   11.6097   -0.0242   22.7489 C   0  0  0  0  0  0  0  0  0  0  0  0
   12.7070    0.8440   22.7738 C   0  0  0  0  0  0  0  0  0  0  0  0
   13.2435    1.2314   24.0008 C   0  0  0  0  0  0  0  0  0  0  0  0
   12.8048    0.7715   25.1761 N   0  0  0  0  0  0  0  0  0  0  0  0
   11.7547   -0.0574   25.1557 C   0  0  0  0  0  0  0  0  0  0  0  0
   11.1255   -0.4747   23.9828 C   0  0  0  0  0  0  0  0  0  0  0  0
   10.2620   -1.1284   24.0457 H   0  0  0  0  0  0  0  0  0  0  0  0
   11.3870   -0.4008   26.1212 H   0  0  0  0  0  0  0  0  0  0  0  0
   14.0355    1.9717   24.0452 H   0  0  0  0  0  0  0  0  0  0  0  0
   13.0775    1.2842   21.8542 H   0  0  0  0  0  0  0  0  0  0  0  0
   11.6268   -0.4278   20.6471 H   0  0  0  0  0  0  0  0  0  0  0  0
   10.3214   -1.2369   21.5311 H   0  0  0  0  0  0  0  0  0  0  0  0
    8.7967    0.9570   22.0975 C   0  0  0  0  0  0  0  0  0  0  0  0
    8.7300    1.7813   23.1275 N   0  0  0  0  0  0  0  0  0  0  0  0
    7.6642    1.3318   23.8192 C   0  0  0  0  0  0  0  0  0  0  0  0
    7.2766    1.9430   25.0884 C   0  0  0  0  0  0  0  0  0  0  0  0
    8.0098    2.9922   25.6835 C   0  0  0  0  0  0  0  0  0  0  0  0
    7.5072    3.5016   26.8720 C   0  0  0  0  0  0  0  0  0  0  0  0
    8.1042    4.5477   27.4579 F   0  0  0  0  0  0  0  0  0  0  0  0
    6.3665    2.9373   27.4636 C   0  0  0  0  0  0  0  0  0  0  0  0
    5.6922    1.9286   26.8970 N   0  0  0  0  0  0  0  0  0  0  0  0
    6.1335    1.4505   25.7277 C   0  0  0  0  0  0  0  0  0  0  0  0
    5.5791    0.6310   25.2762 H   0  0  0  0  0  0  0  0  0  0  0  0
    6.0070    3.3128   28.4210 H   0  0  0  0  0  0  0  0  0  0  0  0
    8.9377    3.3833   25.2562 H   0  0  0  0  0  0  0  0  0  0  0  0
    7.0311    0.3158   23.2506 N   0  0  0  0  0  0  0  0  0  0  0  0
    7.7650    0.0914   22.1337 N   0  0  0  0  0  0  0  0  0  0  0  0
    7.3051   -0.7691   21.0483 C   0  0  0  0  0  0  0  0  0  0  0  0
    6.6407   -0.0244   19.8983 C   0  0  0  0  0  0  0  0  0  0  0  0
    5.4436    0.6636   20.1325 C   0  0  0  0  0  0  0  0  0  0  0  0
    4.8270    1.3193   19.0652 C   0  0  0  0  0  0  0  0  0  0  0  0
    5.4372    1.2957   17.8073 C   0  0  0  0  0  0  0  0  0  0  0  0
    6.5840    0.6455   17.5612 N   0  0  0  0  0  0  0  0  0  0  0  0
    7.1596    0.0087   18.5917 C   0  0  0  0  0  0  0  0  0  0  0  0
    8.0865   -0.5112   18.3486 H   0  0  0  0  0  0  0  0  0  0  0  0
    4.9800    1.8146   16.9644 H   0  0  0  0  0  0  0  0  0  0  0  0
    3.8890    1.8466   19.1946 H   0  0  0  0  0  0  0  0  0  0  0  0
    5.0106    0.6906   21.1372 H   0  0  0  0  0  0  0  0  0  0  0  0
    6.6023   -1.4728   21.4985 H   0  0  0  0  0  0  0  0  0  0  0  0
    8.1596   -1.3516   20.6884 H   0  0  0  0  0  0  0  0  0  0  0  0
    9.4510    0.6275   20.1225 H   0  0  0  0  0  0  0  0  0  0  0  0
   10.9298    2.5806   21.9438 H   0  0  0  0  0  0  0  0  0  0  0  0
    9.6842    2.9171   20.7698 H   0  0  0  0  0  0  0  0  0  0  0  0
   11.3031    2.3555   20.2162 H   0  0  0  0  0  0  0  0  0  0  0  0
  1  2  1  0
  2  3  1  0
  3  4  1  0
  4  5  2  0
  5  6  1  0
  6  7  2  0
  7  8  1  0
  8  9  2  0
  9 10  1  0
  8 11  1  0
  6 12  1  0
  5 13  1  0
  3 14  1  0
  3 15  1  0
  2 16  1  0
 16 17  2  0
 17 18  1  0
 18 19  1  0
 19 20  2  0
 20 21  1  0
 21 22  1  0
 21 23  2  0
 23 24  1  0
 24 25  2  0
 25 26  1  0
 23 27  1  0
 20 28  1  0
 18 29  2  0
 29 30  1  0
 30 31  1  0
 31 32  1  0
 32 33  2  0
 33 34  1  0
 34 35  2  0
 35 36  1  0
 36 37  2  0
 37 38  1  0
 35 39  1  0
 34 40  1  0
 33 41  1  0
 31 42  1  0
 31 43  1  0
  2 44  1  0
  1 45  1  0
  1 46  1  0
  1 47  1  0
  9  4  1  0
 30 16  1  0
 37 32  1  0
 25 19  1  0
M  END
>  <cnnaffinity>  (1) 
-6.29623

>  <filename>  (1) 
CC(Cc1ccncc1)c1nc(-c2cncc(F)c2)nn1Cc1cccnc1

$$$$
