
     RDKit          3D

 43 46  0  0  0  0  0  0  0  0999 V2000
    8.0909    2.4644   21.6445 C   0  0  0  0  0  0  0  0  0  0  0  0
    9.4710    1.8304   21.8163 C   0  0  0  0  0  0  0  0  0  0  0  0
    9.5922    0.5187   20.9666 C   0  0  0  0  0  0  0  0  0  0  0  0
    8.6522   -0.5877   21.3415 C   0  0  0  0  0  0  0  0  0  0  0  0
    8.9124   -1.5261   22.2220 N   0  0  0  0  0  0  0  0  0  0  0  0
    7.7033   -2.1154   22.4448 C   0  0  0  0  0  0  0  0  0  0  0  0
    7.4647   -3.1519   23.4849 C   0  0  0  0  0  0  0  0  0  0  0  0
    8.3901   -3.5499   24.3694 N   0  0  0  0  0  0  0  0  0  0  0  0
    7.7803   -4.4672   25.1119 N   0  0  0  0  0  0  0  0  0  0  0  0
    6.4950   -4.6931   24.7540 C   0  0  0  0  0  0  0  0  0  0  0  0
    6.2473   -3.8501   23.7036 C   0  0  0  0  0  0  0  0  0  0  0  0
    5.3307   -3.7041   23.1561 H   0  0  0  0  0  0  0  0  0  0  0  0
    5.8984   -5.4326   25.2727 H   0  0  0  0  0  0  0  0  0  0  0  0
    8.3042   -4.9050   25.8564 H   0  0  0  0  0  0  0  0  0  0  0  0
    6.7257   -1.6426   21.6719 N   0  0  0  0  0  0  0  0  0  0  0  0
    7.3474   -0.6915   20.9312 N   0  0  0  0  0  0  0  0  0  0  0  0
    6.6487   -0.0220   19.8839 C   0  0  0  0  0  0  0  0  0  0  0  0
    5.4316    0.6160   20.1457 C   0  0  0  0  0  0  0  0  0  0  0  0
    4.8069    1.3004   19.0993 C   0  0  0  0  0  0  0  0  0  0  0  0
    5.4017    1.3008   17.8343 C   0  0  0  0  0  0  0  0  0  0  0  0
    6.5435    0.6494   17.5605 N   0  0  0  0  0  0  0  0  0  0  0  0
    7.1505    0.0077   18.5685 C   0  0  0  0  0  0  0  0  0  0  0  0
    8.0757   -0.5149   18.3167 H   0  0  0  0  0  0  0  0  0  0  0  0
    4.9444    1.8423   17.0103 H   0  0  0  0  0  0  0  0  0  0  0  0
    3.8810    1.8412   19.2563 H   0  0  0  0  0  0  0  0  0  0  0  0
    4.9997    0.5676   21.1460 H   0  0  0  0  0  0  0  0  0  0  0  0
    9.4321    0.7797   19.9214 H   0  0  0  0  0  0  0  0  0  0  0  0
   10.6093    0.1244   21.0519 H   0  0  0  0  0  0  0  0  0  0  0  0
    9.8467    1.5973   23.2799 C   0  0  0  0  0  0  0  0  0  0  0  0
    8.9190    1.1982   24.2590 C   0  0  0  0  0  0  0  0  0  0  0  0
    9.3431    0.8195   25.5356 C   0  0  0  0  0  0  0  0  0  0  0  0
   10.7037    0.7821   25.8452 C   0  0  0  0  0  0  0  0  0  0  0  0
   11.6141    1.1713   24.8674 C   0  0  0  0  0  0  0  0  0  0  0  0
   12.9257    1.0490   25.1262 F   0  0  0  0  0  0  0  0  0  0  0  0
   11.2087    1.6374   23.6201 C   0  0  0  0  0  0  0  0  0  0  0  0
   11.9399    2.0035   22.9034 H   0  0  0  0  0  0  0  0  0  0  0  0
   11.0633    0.4462   26.8121 H   0  0  0  0  0  0  0  0  0  0  0  0
    8.6109    0.5316   26.2860 H   0  0  0  0  0  0  0  0  0  0  0  0
    7.8644    1.1037   24.0127 H   0  0  0  0  0  0  0  0  0  0  0  0
   10.2221    2.5282   21.4130 H   0  0  0  0  0  0  0  0  0  0  0  0
    7.3222    1.8682   22.1451 H   0  0  0  0  0  0  0  0  0  0  0  0
    8.0670    3.4846   22.0435 H   0  0  0  0  0  0  0  0  0  0  0  0
    7.7937    2.4824   20.5958 H   0  0  0  0  0  0  0  0  0  0  0  0
  1  2  1  0
  2  3  1  0
  3  4  1  0
  4  5  2  0
  5  6  1  0
  6  7  1  0
  7  8  2  0
  8  9  1  0
  9 10  1  0
 10 11  2  0
 11 12  1  0
 10 13  1  0
  9 14  1  0
  6 15  2  0
 15 16  1  0
 16 17  1  0
 17 18  2  0
 18 19  1  0
 19 20  2  0
 20 21  1  0
 21 22  2  0
 22 23  1  0
 20 24  1  0
 19 25  1  0
 18 26  1  0
  3 27  1  0
  3 28  1  0
  2 29  1  0
 29 30  2  0
 30 31  1  0
 31 32  2  0
 32 33  1  0
 33 34  1  0
 33 35  2  0
 35 36  1  0
 32 37  1  0
 31 38  1  0
 30 39  1  0
  2 40  1  0
  1 41  1  0
  1 42  1  0
  1 43  1  0
 16  4  1  0
 22 17  1  0
 35 29  1  0
 11  7  1  0
M  END
>  <cnnaffinity>  (1) 
-6.09559

>  <filename>  (1) 
CC(Cc1nc(-c2cc[nH]n2)nn1-c1cccnc1)c1cccc(F)c1

$$$$
