
     RDKit          3D

 46 48  0  0  0  0  0  0  0  0999 V2000
    6.4624   -4.6189   21.7304 C   0  0  0  0  0  0  0  0  0  0  0  0
    7.6721   -4.4331   22.6629 C   0  0  0  0  0  0  0  0  0  0  0  0
    7.1960   -3.9861   24.0571 C   0  0  0  0  0  0  0  0  0  0  0  0
    6.5991   -3.0713   23.9788 H   0  0  0  0  0  0  0  0  0  0  0  0
    8.0543   -3.7592   24.7025 H   0  0  0  0  0  0  0  0  0  0  0  0
    6.5798   -4.7444   24.5544 H   0  0  0  0  0  0  0  0  0  0  0  0
    8.4730   -5.7613   22.7465 C   0  0  0  0  0  0  0  0  0  0  0  0
    7.6964   -6.9391   22.8529 O   0  0  0  0  0  0  0  0  0  0  0  0
    7.2594   -6.9377   23.7130 H   0  0  0  0  0  0  0  0  0  0  0  0
    9.1951   -5.7192   23.5785 H   0  0  0  0  0  0  0  0  0  0  0  0
    9.0308   -5.9071   21.8175 H   0  0  0  0  0  0  0  0  0  0  0  0
    8.6176   -3.3306   22.0966 C   0  0  0  0  0  0  0  0  0  0  0  0
    7.9759   -1.9951   21.8878 C   0  0  0  0  0  0  0  0  0  0  0  0
    7.4899   -1.6218   20.7218 N   0  0  0  0  0  0  0  0  0  0  0  0
    7.0283   -0.3603   20.9561 N   0  0  0  0  0  0  0  0  0  0  0  0
    6.4173    0.3160   19.8632 C   0  0  0  0  0  0  0  0  0  0  0  0
    5.2099    1.0165   19.9565 C   0  0  0  0  0  0  0  0  0  0  0  0
    4.6729    1.5634   18.7836 C   0  0  0  0  0  0  0  0  0  0  0  0
    5.3620    1.4156   17.5769 C   0  0  0  0  0  0  0  0  0  0  0  0
    6.5096    0.7203   17.4763 N   0  0  0  0  0  0  0  0  0  0  0  0
    7.0086    0.1817   18.5911 C   0  0  0  0  0  0  0  0  0  0  0  0
    7.9347   -0.3773   18.4865 H   0  0  0  0  0  0  0  0  0  0  0  0
    4.9763    1.8545   16.6593 H   0  0  0  0  0  0  0  0  0  0  0  0
    3.7378    2.1093   18.8018 H   0  0  0  0  0  0  0  0  0  0  0  0
    4.6958    1.1195   20.9105 H   0  0  0  0  0  0  0  0  0  0  0  0
    7.3090   -0.0247   22.2540 C   0  0  0  0  0  0  0  0  0  0  0  0
    7.1337    1.3049   22.9378 C   0  0  0  0  0  0  0  0  0  0  0  0
    8.4538    1.7951   23.5428 C   0  0  0  0  0  0  0  0  0  0  0  0
    9.5193    2.2250   22.7346 C   0  0  0  0  0  0  0  0  0  0  0  0
    9.2169    2.4911   21.0487 Cl  0  0  0  0  0  0  0  0  0  0  0  0
   10.8236    2.4124   23.2127 C   0  0  0  0  0  0  0  0  0  0  0  0
   11.0844    2.1629   24.5620 C   0  0  0  0  0  0  0  0  0  0  0  0
   10.0516    1.7758   25.4149 C   0  0  0  0  0  0  0  0  0  0  0  0
    8.7634    1.6544   24.9021 C   0  0  0  0  0  0  0  0  0  0  0  0
    7.7808    1.3805   25.7781 F   0  0  0  0  0  0  0  0  0  0  0  0
   10.2054    1.5346   26.4577 H   0  0  0  0  0  0  0  0  0  0  0  0
   12.0924    2.2542   24.9551 H   0  0  0  0  0  0  0  0  0  0  0  0
   11.6089    2.7148   22.5265 H   0  0  0  0  0  0  0  0  0  0  0  0
    6.7494    2.0525   22.2381 H   0  0  0  0  0  0  0  0  0  0  0  0
    6.3977    1.1681   23.7352 H   0  0  0  0  0  0  0  0  0  0  0  0
    7.8835   -1.0568   22.8573 N   0  0  0  0  0  0  0  0  0  0  0  0
    9.4848   -3.2007   22.7573 H   0  0  0  0  0  0  0  0  0  0  0  0
    8.9860   -3.6251   21.1137 H   0  0  0  0  0  0  0  0  0  0  0  0
    5.8837   -3.6945   21.6345 H   0  0  0  0  0  0  0  0  0  0  0  0
    6.7863   -4.9187   20.7249 H   0  0  0  0  0  0  0  0  0  0  0  0
    5.8068   -5.4035   22.1264 H   0  0  0  0  0  0  0  0  0  0  0  0
  1  2  1  0
  2  3  1  0
  3  4  1  0
  3  5  1  0
  3  6  1  0
  2  7  1  0
  7  8  1  0
  8  9  1  0
  7 10  1  0
  7 11  1  0
  2 12  1  0
 12 13  1  0
 13 14  2  0
 14 15  1  0
 15 16  1  0
 16 17  2  0
 17 18  1  0
 18 19  2  0
 19 20  1  0
 20 21  2  0
 21 22  1  0
 19 23  1  0
 18 24  1  0
 17 25  1  0
 15 26  1  0
 26 27  1  0
 27 28  1  0
 28 29  2  0
 29 30  1  0
 29 31  1  0
 31 32  2  0
 32 33  1  0
 33 34  2  0
 34 35  1  0
 33 36  1  0
 32 37  1  0
 31 38  1  0
 27 39  1  0
 27 40  1  0
 26 41  2  0
 12 42  1  0
 12 43  1  0
  1 44  1  0
  1 45  1  0
  1 46  1  0
 41 13  1  0
 21 16  1  0
 34 28  1  0
M  END
>  <cnnaffinity>  (1) 
-6.39002

>  <filename>  (1) 
CC(C)(CO)Cc1nc(Cc2c(F)cccc2Cl)n(-c2cccnc2)n1

$$$$
