
     RDKit          3D

 49 52  0  0  0  0  0  0  0  0999 V2000
    7.5257    0.5496   28.4265 C   0  0  0  0  0  0  0  0  0  0  0  0
    8.0773    0.0197   27.0996 C   0  0  0  0  0  0  0  0  0  0  0  0
    8.1115   -1.5148   27.0214 C   0  0  0  0  0  0  0  0  0  0  0  0
    8.6983   -1.9131   27.8516 H   0  0  0  0  0  0  0  0  0  0  0  0
    8.5796   -1.8513   26.0889 H   0  0  0  0  0  0  0  0  0  0  0  0
    7.0997   -1.9311   27.0848 H   0  0  0  0  0  0  0  0  0  0  0  0
    7.3726    0.6133   25.9524 N   0  0  0  0  0  0  0  0  0  0  0  0
    7.9790    1.2990   24.9621 C   0  0  0  0  0  0  0  0  0  0  0  0
    7.0639    1.5125   23.9624 C   0  0  0  0  0  0  0  0  0  0  0  0
    7.4730    2.0112   22.5842 C   0  0  0  0  0  0  0  0  0  0  0  0
    8.4965    1.0794   21.9905 C   0  0  0  0  0  0  0  0  0  0  0  0
    9.8121    1.1758   22.1318 N   0  0  0  0  0  0  0  0  0  0  0  0
   10.2466   -0.0671   21.8087 C   0  0  0  0  0  0  0  0  0  0  0  0
   11.6552   -0.5022   21.7674 C   0  0  0  0  0  0  0  0  0  0  0  0
   11.8993   -1.7042   21.0919 C   0  0  0  0  0  0  0  0  0  0  0  0
   13.1837   -2.0344   20.6932 C   0  0  0  0  0  0  0  0  0  0  0  0
   14.2538   -1.2785   21.1391 C   0  0  0  0  0  0  0  0  0  0  0  0
   14.0471   -0.1701   21.9700 C   0  0  0  0  0  0  0  0  0  0  0  0
   12.7408    0.2509   22.2426 C   0  0  0  0  0  0  0  0  0  0  0  0
   12.5760    1.2023   22.7405 H   0  0  0  0  0  0  0  0  0  0  0  0
   14.8843    0.4246   22.3225 H   0  0  0  0  0  0  0  0  0  0  0  0
   15.2095   -1.5533   20.7338 H   0  0  0  0  0  0  0  0  0  0  0  0
   13.3565   -2.8311   19.9796 H   0  0  0  0  0  0  0  0  0  0  0  0
   11.0470   -2.3108   20.8170 H   0  0  0  0  0  0  0  0  0  0  0  0
    9.2775   -0.8973   21.4508 N   0  0  0  0  0  0  0  0  0  0  0  0
    8.1655   -0.1576   21.5614 N   0  0  0  0  0  0  0  0  0  0  0  0
    6.8949   -0.7075   21.1007 C   0  0  0  0  0  0  0  0  0  0  0  0
    6.3259    0.0468   19.9220 C   0  0  0  0  0  0  0  0  0  0  0  0
    5.1099    0.7329   19.9795 C   0  0  0  0  0  0  0  0  0  0  0  0
    4.6696    1.4249   18.8489 C   0  0  0  0  0  0  0  0  0  0  0  0
    5.4643    1.4066   17.7007 C   0  0  0  0  0  0  0  0  0  0  0  0
    6.6325    0.7493   17.6245 N   0  0  0  0  0  0  0  0  0  0  0  0
    7.0453    0.0991   18.7166 C   0  0  0  0  0  0  0  0  0  0  0  0
    7.9993   -0.4220   18.6282 H   0  0  0  0  0  0  0  0  0  0  0  0
    5.1512    1.9312   16.7999 H   0  0  0  0  0  0  0  0  0  0  0  0
    3.7408    1.9832   18.8489 H   0  0  0  0  0  0  0  0  0  0  0  0
    4.5213    0.7311   20.8987 H   0  0  0  0  0  0  0  0  0  0  0  0
    7.1049   -1.7506   20.8349 H   0  0  0  0  0  0  0  0  0  0  0  0
    6.1961   -0.7123   21.9411 H   0  0  0  0  0  0  0  0  0  0  0  0
    6.6088    2.0920   21.9206 H   0  0  0  0  0  0  0  0  0  0  0  0
    7.9367    3.0005   22.6403 H   0  0  0  0  0  0  0  0  0  0  0  0
    5.8803    0.9470   24.4876 C   0  0  0  0  0  0  0  0  0  0  0  0
    6.0754    0.3987   25.6858 N   0  0  0  0  0  0  0  0  0  0  0  0
    4.8909    0.8870   24.0463 H   0  0  0  0  0  0  0  0  0  0  0  0
    9.0365    1.5384   24.9950 H   0  0  0  0  0  0  0  0  0  0  0  0
    9.1059    0.3814   26.9908 H   0  0  0  0  0  0  0  0  0  0  0  0
    8.2268    0.3266   29.2381 H   0  0  0  0  0  0  0  0  0  0  0  0
    6.5507    0.1019   28.6532 H   0  0  0  0  0  0  0  0  0  0  0  0
    7.4109    1.6359   28.3882 H   0  0  0  0  0  0  0  0  0  0  0  0
  1  2  1  0
  2  3  1  0
  3  4  1  0
  3  5  1  0
  3  6  1  0
  2  7  1  0
  7  8  1  0
  8  9  2  0
  9 10  1  0
 10 11  1  0
 11 12  2  0
 12 13  1  0
 13 14  1  0
 14 15  2  0
 15 16  1  0
 16 17  2  0
 17 18  1  0
 18 19  2  0
 19 20  1  0
 18 21  1  0
 17 22  1  0
 16 23  1  0
 15 24  1  0
 13 25  2  0
 25 26  1  0
 26 27  1  0
 27 28  1  0
 28 29  2  0
 29 30  1  0
 30 31  2  0
 31 32  1  0
 32 33  2  0
 33 34  1  0
 31 35  1  0
 30 36  1  0
 29 37  1  0
 27 38  1  0
 27 39  1  0
 10 40  1  0
 10 41  1  0
  9 42  1  0
 42 43  2  0
 42 44  1  0
  8 45  1  0
  2 46  1  0
  1 47  1  0
  1 48  1  0
  1 49  1  0
 43  7  1  0
 26 11  1  0
 33 28  1  0
 19 14  1  0
M  END
>  <cnnaffinity>  (1) 
-6.66784

>  <filename>  (1) 
CC(C)n1cc(Cc2nc(-c3ccccc3)nn2Cc2cccnc2)cn1

$$$$
