
     RDKit          3D

 50 53  0  0  0  0  0  0  0  0999 V2000
    8.5074    2.8293   25.6544 C   0  0  0  0  0  0  0  0  0  0  0  0
    9.5884    1.8587   25.1499 C   0  0  0  0  0  0  0  0  0  0  0  0
    9.2529    0.3931   25.4738 C   0  0  0  0  0  0  0  0  0  0  0  0
    9.9426   -0.2916   24.9672 H   0  0  0  0  0  0  0  0  0  0  0  0
    8.2402    0.1104   25.1758 H   0  0  0  0  0  0  0  0  0  0  0  0
    9.3302    0.2179   26.5526 H   0  0  0  0  0  0  0  0  0  0  0  0
    9.9605    2.1138   23.6856 C   0  0  0  0  0  0  0  0  0  0  0  0
   11.2338    2.6638   23.4293 C   0  0  0  0  0  0  0  0  0  0  0  0
   11.6973    2.8751   22.1326 C   0  0  0  0  0  0  0  0  0  0  0  0
   10.8780    2.5462   21.0558 C   0  0  0  0  0  0  0  0  0  0  0  0
    9.5878    2.0684   21.2914 C   0  0  0  0  0  0  0  0  0  0  0  0
    9.1105    1.8444   22.5939 C   0  0  0  0  0  0  0  0  0  0  0  0
    7.6949    1.2533   22.6648 C   0  0  0  0  0  0  0  0  0  0  0  0
    7.6553   -0.1620   22.1665 C   0  0  0  0  0  0  0  0  0  0  0  0
    8.1741   -1.1576   22.8501 N   0  0  0  0  0  0  0  0  0  0  0  0
    8.1373   -2.2026   21.9926 C   0  0  0  0  0  0  0  0  0  0  0  0
    8.7929   -3.4911   22.3620 C   0  0  0  0  0  0  0  0  0  0  0  0
    8.8612   -3.8360   23.8702 C   0  0  0  0  0  0  0  0  0  0  0  0
    8.7525   -5.3741   23.8879 C   0  0  0  0  0  0  0  0  0  0  0  0
    8.7287   -5.8072   22.5367 O   0  0  0  0  0  0  0  0  0  0  0  0
    8.1581   -4.7626   21.7758 C   0  0  0  0  0  0  0  0  0  0  0  0
    8.3924   -4.9215   20.7173 H   0  0  0  0  0  0  0  0  0  0  0  0
    7.0589   -4.7605   21.8880 H   0  0  0  0  0  0  0  0  0  0  0  0
    7.8202   -5.6807   24.3886 H   0  0  0  0  0  0  0  0  0  0  0  0
    9.6069   -5.8516   24.3840 H   0  0  0  0  0  0  0  0  0  0  0  0
    8.0275   -3.3922   24.4200 H   0  0  0  0  0  0  0  0  0  0  0  0
    9.7802   -3.4615   24.3329 H   0  0  0  0  0  0  0  0  0  0  0  0
    9.8191   -3.3447   22.0058 H   0  0  0  0  0  0  0  0  0  0  0  0
    7.6304   -1.9268   20.8059 N   0  0  0  0  0  0  0  0  0  0  0  0
    7.2710   -0.6168   20.9358 N   0  0  0  0  0  0  0  0  0  0  0  0
    6.5934    0.0425   19.8790 C   0  0  0  0  0  0  0  0  0  0  0  0
    5.3874    0.7154   20.1078 C   0  0  0  0  0  0  0  0  0  0  0  0
    4.7837    1.3611   19.0225 C   0  0  0  0  0  0  0  0  0  0  0  0
    5.4097    1.3185   17.7742 C   0  0  0  0  0  0  0  0  0  0  0  0
    6.5545    0.6509   17.5454 N   0  0  0  0  0  0  0  0  0  0  0  0
    7.1207    0.0116   18.5759 C   0  0  0  0  0  0  0  0  0  0  0  0
    8.0360   -0.5379   18.3670 H   0  0  0  0  0  0  0  0  0  0  0  0
    4.9719    1.8318   16.9202 H   0  0  0  0  0  0  0  0  0  0  0  0
    3.8514    1.9001   19.1465 H   0  0  0  0  0  0  0  0  0  0  0  0
    4.9341    0.7121   21.0995 H   0  0  0  0  0  0  0  0  0  0  0  0
    7.0057    1.8680   22.0793 H   0  0  0  0  0  0  0  0  0  0  0  0
    7.3137    1.2315   23.6862 H   0  0  0  0  0  0  0  0  0  0  0  0
    8.8956    1.8661   20.4767 H   0  0  0  0  0  0  0  0  0  0  0  0
   11.2481    2.7149   20.0499 H   0  0  0  0  0  0  0  0  0  0  0  0
   12.6840    3.2974   21.9581 H   0  0  0  0  0  0  0  0  0  0  0  0
   11.8713    2.9191   24.2714 H   0  0  0  0  0  0  0  0  0  0  0  0
   10.4982    2.0746   25.7233 H   0  0  0  0  0  0  0  0  0  0  0  0
    7.5542    2.6884   25.1335 H   0  0  0  0  0  0  0  0  0  0  0  0
    8.8096    3.8711   25.4995 H   0  0  0  0  0  0  0  0  0  0  0  0
    8.3254    2.6809   26.7253 H   0  0  0  0  0  0  0  0  0  0  0  0
  1  2  1  0
  2  3  1  0
  3  4  1  0
  3  5  1  0
  3  6  1  0
  2  7  1  0
  7  8  2  0
  8  9  1  0
  9 10  2  0
 10 11  1  0
 11 12  2  0
 12 13  1  0
 13 14  1  0
 14 15  2  0
 15 16  1  0
 16 17  1  0
 17 18  1  0
 18 19  1  0
 19 20  1  0
 20 21  1  0
 21 22  1  0
 21 23  1  0
 19 24  1  0
 19 25  1  0
 18 26  1  0
 18 27  1  0
 17 28  1  0
 16 29  2  0
 29 30  1  0
 30 31  1  0
 31 32  2  0
 32 33  1  0
 33 34  2  0
 34 35  1  0
 35 36  2  0
 36 37  1  0
 34 38  1  0
 33 39  1  0
 32 40  1  0
 13 41  1  0
 13 42  1  0
 11 43  1  0
 10 44  1  0
  9 45  1  0
  8 46  1  0
  2 47  1  0
  1 48  1  0
  1 49  1  0
  1 50  1  0
 12  7  1  0
 30 14  1  0
 36 31  1  0
 21 17  1  0
M  END
>  <cnnaffinity>  (1) 
-6.26891

>  <filename>  (1) 
CC(C)c1ccccc1Cc1nc(C2CCOC2)nn1-c1cccnc1

$$$$
