
     RDKit          3D

 40 42  0  0  0  0  0  0  0  0999 V2000
    8.3828   -4.0749   23.5364 C   0  0  0  0  0  0  0  0  0  0  0  0
    9.0397   -3.1715   22.4760 C   0  0  0  0  0  0  0  0  0  0  0  0
   10.4862   -2.8294   22.8947 C   0  0  0  0  0  0  0  0  0  0  0  0
   11.0677   -2.4214   22.0598 H   0  0  0  0  0  0  0  0  0  0  0  0
   11.0113   -3.7137   23.2685 H   0  0  0  0  0  0  0  0  0  0  0  0
   10.4722   -2.1013   23.7149 H   0  0  0  0  0  0  0  0  0  0  0  0
    8.2597   -1.9090   22.1782 C   0  0  0  0  0  0  0  0  0  0  0  0
    7.7747   -1.6543   20.9844 N   0  0  0  0  0  0  0  0  0  0  0  0
    7.2040   -0.4309   21.1279 N   0  0  0  0  0  0  0  0  0  0  0  0
    6.5532    0.1847   20.0218 C   0  0  0  0  0  0  0  0  0  0  0  0
    5.3521    0.9004   20.1209 C   0  0  0  0  0  0  0  0  0  0  0  0
    4.8200    1.4638   18.9546 C   0  0  0  0  0  0  0  0  0  0  0  0
    5.5009    1.2952   17.7460 C   0  0  0  0  0  0  0  0  0  0  0  0
    6.6476    0.6000   17.6443 N   0  0  0  0  0  0  0  0  0  0  0  0
    7.1518    0.0602   18.7553 C   0  0  0  0  0  0  0  0  0  0  0  0
    8.0891   -0.4829   18.6607 H   0  0  0  0  0  0  0  0  0  0  0  0
    5.1055    1.7203   16.8250 H   0  0  0  0  0  0  0  0  0  0  0  0
    3.9071    2.0505   18.9820 H   0  0  0  0  0  0  0  0  0  0  0  0
    4.8352    1.0206   21.0738 H   0  0  0  0  0  0  0  0  0  0  0  0
    7.4255    0.0095   22.3996 C   0  0  0  0  0  0  0  0  0  0  0  0
    6.9727    1.3601   22.8680 C   0  0  0  0  0  0  0  0  0  0  0  0
    7.9231    1.9147   23.7591 O   0  0  0  0  0  0  0  0  0  0  0  0
    7.6605    3.1058   24.3642 C   0  0  0  0  0  0  0  0  0  0  0  0
    8.6863    3.5608   25.2060 C   0  0  0  0  0  0  0  0  0  0  0  0
    8.5142    4.7619   25.8794 C   0  0  0  0  0  0  0  0  0  0  0  0
    9.4908    5.1856   26.6953 F   0  0  0  0  0  0  0  0  0  0  0  0
    7.3702    5.5487   25.7247 C   0  0  0  0  0  0  0  0  0  0  0  0
    6.3694    5.0872   24.8707 C   0  0  0  0  0  0  0  0  0  0  0  0
    6.4909    3.8615   24.1985 C   0  0  0  0  0  0  0  0  0  0  0  0
    5.6825    3.5096   23.5648 H   0  0  0  0  0  0  0  0  0  0  0  0
    5.4792    5.6924   24.7105 H   0  0  0  0  0  0  0  0  0  0  0  0
    7.2957    6.4896   26.2583 H   0  0  0  0  0  0  0  0  0  0  0  0
    9.5978    2.9898   25.3141 H   0  0  0  0  0  0  0  0  0  0  0  0
    6.8497    2.0308   22.0059 H   0  0  0  0  0  0  0  0  0  0  0  0
    6.0041    1.2469   23.3775 H   0  0  0  0  0  0  0  0  0  0  0  0
    8.0506   -0.9258   23.0944 N   0  0  0  0  0  0  0  0  0  0  0  0
    9.0286   -3.7130   21.5262 H   0  0  0  0  0  0  0  0  0  0  0  0
    8.9974   -4.9701   23.6967 H   0  0  0  0  0  0  0  0  0  0  0  0
    7.3786   -4.4018   23.2453 H   0  0  0  0  0  0  0  0  0  0  0  0
    8.3158   -3.5611   24.5005 H   0  0  0  0  0  0  0  0  0  0  0  0
  1  2  1  0
  2  3  1  0
  3  4  1  0
  3  5  1  0
  3  6  1  0
  2  7  1  0
  7  8  2  0
  8  9  1  0
  9 10  1  0
 10 11  2  0
 11 12  1  0
 12 13  2  0
 13 14  1  0
 14 15  2  0
 15 16  1  0
 13 17  1  0
 12 18  1  0
 11 19  1  0
  9 20  1  0
 20 21  1  0
 21 22  1  0
 22 23  1  0
 23 24  2  0
 24 25  1  0
 25 26  1  0
 25 27  2  0
 27 28  1  0
 28 29  2  0
 29 30  1  0
 28 31  1  0
 27 32  1  0
 24 33  1  0
 21 34  1  0
 21 35  1  0
 20 36  2  0
  2 37  1  0
  1 38  1  0
  1 39  1  0
  1 40  1  0
 36  7  1  0
 15 10  1  0
 29 23  1  0
M  END
>  <cnnaffinity>  (1) 
-5.46777

>  <filename>  (1) 
CC(C)c1nc(COc2cccc(F)c2)n(-c2cccnc2)n1

$$$$
