
     RDKit          3D

 47 50  0  0  0  0  0  0  0  0999 V2000
    8.6425   -5.6648   23.6846 C   0  0  0  0  0  0  0  0  0  0  0  0
    7.9171   -4.3799   23.2765 C   0  0  0  0  0  0  0  0  0  0  0  0
    6.5376   -4.6756   22.6745 C   0  0  0  0  0  0  0  0  0  0  0  0
    5.8918   -5.2321   23.3631 H   0  0  0  0  0  0  0  0  0  0  0  0
    6.6534   -5.2835   21.7639 H   0  0  0  0  0  0  0  0  0  0  0  0
    6.0149   -3.7537   22.3924 H   0  0  0  0  0  0  0  0  0  0  0  0
    8.7446   -3.5896   22.2435 C   0  0  0  0  0  0  0  0  0  0  0  0
    8.2278   -2.2152   21.9773 C   0  0  0  0  0  0  0  0  0  0  0  0
    7.7047   -1.8781   20.8196 N   0  0  0  0  0  0  0  0  0  0  0  0
    7.3438   -0.5839   21.0006 N   0  0  0  0  0  0  0  0  0  0  0  0
    6.6399    0.0764   19.9569 C   0  0  0  0  0  0  0  0  0  0  0  0
    5.4110    0.7127   20.1698 C   0  0  0  0  0  0  0  0  0  0  0  0
    4.7947    1.3315   19.0751 C   0  0  0  0  0  0  0  0  0  0  0  0
    5.4223    1.2889   17.8272 C   0  0  0  0  0  0  0  0  0  0  0  0
    6.5731    0.6260   17.6088 N   0  0  0  0  0  0  0  0  0  0  0  0
    7.1519    0.0195   18.6474 C   0  0  0  0  0  0  0  0  0  0  0  0
    8.0628   -0.5407   18.4407 H   0  0  0  0  0  0  0  0  0  0  0  0
    4.9988    1.8088   16.9697 H   0  0  0  0  0  0  0  0  0  0  0  0
    3.8531    1.8572   19.1839 H   0  0  0  0  0  0  0  0  0  0  0  0
    4.9348    0.6845   21.1513 H   0  0  0  0  0  0  0  0  0  0  0  0
    7.7241   -0.1895   22.2530 C   0  0  0  0  0  0  0  0  0  0  0  0
    7.6756    1.2306   22.7854 C   0  0  0  0  0  0  0  0  0  0  0  0
    7.0000    1.3838   24.0736 N   0  0  0  0  0  0  0  0  0  0  0  0
    5.5619    1.1581   24.1278 C   0  0  0  0  0  0  0  0  0  0  0  0
    5.3281    0.7865   25.5736 C   0  0  0  0  0  0  0  0  0  0  0  0
    4.1431    0.4899   26.2495 C   0  0  0  0  0  0  0  0  0  0  0  0
    4.2054    0.2253   27.6251 C   0  0  0  0  0  0  0  0  0  0  0  0
    5.4353    0.2393   28.3110 C   0  0  0  0  0  0  0  0  0  0  0  0
    6.6259    0.5013   27.6267 C   0  0  0  0  0  0  0  0  0  0  0  0
    6.5479    0.7805   26.2548 C   0  0  0  0  0  0  0  0  0  0  0  0
    7.6360    1.1068   25.2900 C   0  0  0  0  0  0  0  0  0  0  0  0
    8.8358    1.1218   25.4794 O   0  0  0  0  0  0  0  0  0  0  0  0
    7.5874    0.4668   28.1426 H   0  0  0  0  0  0  0  0  0  0  0  0
    5.4639    0.0267   29.3789 H   0  0  0  0  0  0  0  0  0  0  0  0
    3.2920    0.0237   28.1796 H   0  0  0  0  0  0  0  0  0  0  0  0
    3.1820    0.4741   25.7367 H   0  0  0  0  0  0  0  0  0  0  0  0
    4.9844    2.0435   23.8202 H   0  0  0  0  0  0  0  0  0  0  0  0
    5.3079    0.3604   23.4251 H   0  0  0  0  0  0  0  0  0  0  0  0
    8.7017    1.5877   22.9071 H   0  0  0  0  0  0  0  0  0  0  0  0
    7.2124    1.8891   22.0419 H   0  0  0  0  0  0  0  0  0  0  0  0
    8.2687   -1.2129   22.8910 N   0  0  0  0  0  0  0  0  0  0  0  0
    9.7951   -3.5067   22.5507 H   0  0  0  0  0  0  0  0  0  0  0  0
    8.6956   -4.1166   21.2880 H   0  0  0  0  0  0  0  0  0  0  0  0
    7.8029   -3.7483   24.1723 H   0  0  0  0  0  0  0  0  0  0  0  0
    9.6050   -5.4386   24.1597 H   0  0  0  0  0  0  0  0  0  0  0  0
    8.0542   -6.2388   24.4092 H   0  0  0  0  0  0  0  0  0  0  0  0
    8.8301   -6.3144   22.8173 H   0  0  0  0  0  0  0  0  0  0  0  0
  1  2  1  0
  2  3  1  0
  3  4  1  0
  3  5  1  0
  3  6  1  0
  2  7  1  0
  7  8  1  0
  8  9  2  0
  9 10  1  0
 10 11  1  0
 11 12  2  0
 12 13  1  0
 13 14  2  0
 14 15  1  0
 15 16  2  0
 16 17  1  0
 14 18  1  0
 13 19  1  0
 12 20  1  0
 10 21  1  0
 21 22  1  0
 22 23  1  0
 23 24  1  0
 24 25  1  0
 25 26  2  0
 26 27  1  0
 27 28  2  0
 28 29  1  0
 29 30  2  0
 30 31  1  0
 31 32  2  0
 29 33  1  0
 28 34  1  0
 27 35  1  0
 26 36  1  0
 24 37  1  0
 24 38  1  0
 22 39  1  0
 22 40  1  0
 21 41  2  0
  7 42  1  0
  7 43  1  0
  2 44  1  0
  1 45  1  0
  1 46  1  0
  1 47  1  0
 41  8  1  0
 16 11  1  0
 31 23  1  0
 30 25  1  0
M  END
>  <cnnaffinity>  (1) 
-5.91358

>  <filename>  (1) 
CC(C)Cc1nc(CN2Cc3ccccc3C2=O)n(-c2cccnc2)n1

$$$$
