
     RDKit          3D

 43 45  0  0  0  0  0  0  0  0999 V2000
    6.7892   -0.0052   25.1548 C   0  0  0  0  0  0  0  0  0  0  0  0
    7.3909   -1.3462   25.5605 C   0  0  0  0  0  0  0  0  0  0  0  0
    7.2472   -1.6234   27.0500 C   0  0  0  0  0  0  0  0  0  0  0  0
    7.7577   -0.8599   27.6477 H   0  0  0  0  0  0  0  0  0  0  0  0
    7.6718   -2.6016   27.2945 H   0  0  0  0  0  0  0  0  0  0  0  0
    6.1862   -1.6297   27.3215 H   0  0  0  0  0  0  0  0  0  0  0  0
    6.6875   -2.3968   24.8875 O   0  0  0  0  0  0  0  0  0  0  0  0
    7.3095   -2.9586   23.7372 C   0  0  0  0  0  0  0  0  0  0  0  0
    7.5979   -1.9921   22.6111 C   0  0  0  0  0  0  0  0  0  0  0  0
    6.7261   -1.6465   21.6863 N   0  0  0  0  0  0  0  0  0  0  0  0
    7.3928   -0.6955   20.9703 N   0  0  0  0  0  0  0  0  0  0  0  0
    6.7093   -0.0447   19.8930 C   0  0  0  0  0  0  0  0  0  0  0  0
    5.4773    0.5756   20.1291 C   0  0  0  0  0  0  0  0  0  0  0  0
    4.8592    1.2628   19.0820 C   0  0  0  0  0  0  0  0  0  0  0  0
    5.4731    1.2674   17.8204 C   0  0  0  0  0  0  0  0  0  0  0  0
    6.6251    0.6280   17.5708 N   0  0  0  0  0  0  0  0  0  0  0  0
    7.2242   -0.0187   18.5819 C   0  0  0  0  0  0  0  0  0  0  0  0
    8.1367   -0.5567   18.3309 H   0  0  0  0  0  0  0  0  0  0  0  0
    5.0138    1.7887   16.9817 H   0  0  0  0  0  0  0  0  0  0  0  0
    3.9228    1.7918   19.2265 H   0  0  0  0  0  0  0  0  0  0  0  0
    5.0273    0.5137   21.1235 H   0  0  0  0  0  0  0  0  0  0  0  0
    8.6255   -0.5050   21.5380 C   0  0  0  0  0  0  0  0  0  0  0  0
    9.5419    0.6573   21.3137 C   0  0  0  0  0  0  0  0  0  0  0  0
    9.0304    1.8752   22.0605 C   0  0  0  0  0  0  0  0  0  0  0  0
    8.0242    2.6598   21.4764 C   0  0  0  0  0  0  0  0  0  0  0  0
    7.5156    3.7863   22.1193 C   0  0  0  0  0  0  0  0  0  0  0  0
    7.9952    4.1416   23.3815 C   0  0  0  0  0  0  0  0  0  0  0  0
    8.9693    3.3585   24.0034 C   0  0  0  0  0  0  0  0  0  0  0  0
    9.4549    2.2209   23.3543 C   0  0  0  0  0  0  0  0  0  0  0  0
   10.5950    1.2162   24.2149 Cl  0  0  0  0  0  0  0  0  0  0  0  0
    9.3679    3.6208   24.9787 H   0  0  0  0  0  0  0  0  0  0  0  0
    7.6124    5.0328   23.8715 H   0  0  0  0  0  0  0  0  0  0  0  0
    6.7622    4.4020   21.6315 H   0  0  0  0  0  0  0  0  0  0  0  0
    7.6341    2.3757   20.5026 H   0  0  0  0  0  0  0  0  0  0  0  0
    9.6259    0.8674   20.2454 H   0  0  0  0  0  0  0  0  0  0  0  0
   10.5284    0.3736   21.6909 H   0  0  0  0  0  0  0  0  0  0  0  0
    8.7964   -1.3538   22.5299 N   0  0  0  0  0  0  0  0  0  0  0  0
    6.6161   -3.7194   23.3738 H   0  0  0  0  0  0  0  0  0  0  0  0
    8.2681   -3.4318   24.0036 H   0  0  0  0  0  0  0  0  0  0  0  0
    8.4606   -1.3613   25.2837 H   0  0  0  0  0  0  0  0  0  0  0  0
    7.2838    0.8168   25.6858 H   0  0  0  0  0  0  0  0  0  0  0  0
    5.7204    0.0054   25.3974 H   0  0  0  0  0  0  0  0  0  0  0  0
    6.8966    0.1660   24.0792 H   0  0  0  0  0  0  0  0  0  0  0  0
  1  2  1  0
  2  3  1  0
  3  4  1  0
  3  5  1  0
  3  6  1  0
  2  7  1  0
  7  8  1  0
  8  9  1  0
  9 10  2  0
 10 11  1  0
 11 12  1  0
 12 13  2  0
 13 14  1  0
 14 15  2  0
 15 16  1  0
 16 17  2  0
 17 18  1  0
 15 19  1  0
 14 20  1  0
 13 21  1  0
 11 22  1  0
 22 23  1  0
 23 24  1  0
 24 25  2  0
 25 26  1  0
 26 27  2  0
 27 28  1  0
 28 29  2  0
 29 30  1  0
 28 31  1  0
 27 32  1  0
 26 33  1  0
 25 34  1  0
 23 35  1  0
 23 36  1  0
 22 37  2  0
  8 38  1  0
  8 39  1  0
  2 40  1  0
  1 41  1  0
  1 42  1  0
  1 43  1  0
 37  9  1  0
 17 12  1  0
 29 24  1  0
M  END
>  <cnnaffinity>  (1) 
-6.04602

>  <filename>  (1) 
CC(C)OCc1nc(Cc2ccccc2Cl)n(-c2cccnc2)n1

$$$$
