
     RDKit          3D

 45 47  0  0  0  0  0  0  0  0999 V2000
    6.9917   -5.0965   21.4311 C   0  0  0  0  0  0  0  0  0  0  0  0
    7.4338   -5.4682   22.8526 C   0  0  0  0  0  0  0  0  0  0  0  0
    8.5159   -6.5513   22.8126 C   0  0  0  0  0  0  0  0  0  0  0  0
    9.2024   -6.3358   21.9961 H   0  0  0  0  0  0  0  0  0  0  0  0
    9.1007   -6.5602   23.7368 H   0  0  0  0  0  0  0  0  0  0  0  0
    8.1222   -7.5597   22.6475 H   0  0  0  0  0  0  0  0  0  0  0  0
    6.2690   -5.8982   23.7474 C   0  0  0  0  0  0  0  0  0  0  0  0
    6.6262   -6.0874   24.7665 H   0  0  0  0  0  0  0  0  0  0  0  0
    5.7919   -6.8034   23.3589 H   0  0  0  0  0  0  0  0  0  0  0  0
    5.5148   -5.1074   23.7968 H   0  0  0  0  0  0  0  0  0  0  0  0
    8.0930   -4.3304   23.4455 O   0  0  0  0  0  0  0  0  0  0  0  0
    7.3815   -3.1093   23.6025 C   0  0  0  0  0  0  0  0  0  0  0  0
    7.5993   -2.0834   22.5145 C   0  0  0  0  0  0  0  0  0  0  0  0
    6.6737   -1.7218   21.6402 N   0  0  0  0  0  0  0  0  0  0  0  0
    7.2987   -0.7680   20.8967 N   0  0  0  0  0  0  0  0  0  0  0  0
    6.6043   -0.0783   19.8601 C   0  0  0  0  0  0  0  0  0  0  0  0
    5.4071    0.5985   20.1243 C   0  0  0  0  0  0  0  0  0  0  0  0
    4.8045    1.3128   19.0845 C   0  0  0  0  0  0  0  0  0  0  0  0
    5.4009    1.3053   17.8180 C   0  0  0  0  0  0  0  0  0  0  0  0
    6.5273    0.6277   17.5469 N   0  0  0  0  0  0  0  0  0  0  0  0
    7.1068   -0.0461   18.5460 C   0  0  0  0  0  0  0  0  0  0  0  0
    8.0171   -0.5924   18.3007 H   0  0  0  0  0  0  0  0  0  0  0  0
    4.9503    1.8464   16.9888 H   0  0  0  0  0  0  0  0  0  0  0  0
    3.8857    1.8683   19.2416 H   0  0  0  0  0  0  0  0  0  0  0  0
    4.9741    0.5575   21.1241 H   0  0  0  0  0  0  0  0  0  0  0  0
    8.5677   -0.6003   21.3830 C   0  0  0  0  0  0  0  0  0  0  0  0
    9.6463    0.2868   20.8287 C   0  0  0  0  0  0  0  0  0  0  0  0
   10.3774    1.1032   21.8842 C   0  0  0  0  0  0  0  0  0  0  0  0
   11.6462    0.7187   22.3313 C   0  0  0  0  0  0  0  0  0  0  0  0
   12.2631    1.3966   23.3887 C   0  0  0  0  0  0  0  0  0  0  0  0
   11.5666    2.4633   23.9579 C   0  0  0  0  0  0  0  0  0  0  0  0
   10.3589    2.8680   23.5488 N   0  0  0  0  0  0  0  0  0  0  0  0
    9.8023    2.2110   22.5447 C   0  0  0  0  0  0  0  0  0  0  0  0
    8.2336    2.7745   22.0511 Cl  0  0  0  0  0  0  0  0  0  0  0  0
   11.9837    3.0293   24.7825 H   0  0  0  0  0  0  0  0  0  0  0  0
   13.2424    1.1113   23.7598 H   0  0  0  0  0  0  0  0  0  0  0  0
   12.1382   -0.1261   21.8478 H   0  0  0  0  0  0  0  0  0  0  0  0
    9.2409    0.9411   20.0530 H   0  0  0  0  0  0  0  0  0  0  0  0
   10.3685   -0.3959   20.3693 H   0  0  0  0  0  0  0  0  0  0  0  0
    8.7727   -1.4132   22.3981 N   0  0  0  0  0  0  0  0  0  0  0  0
    7.7450   -2.6762   24.5411 H   0  0  0  0  0  0  0  0  0  0  0  0
    6.3009   -3.2563   23.7053 H   0  0  0  0  0  0  0  0  0  0  0  0
    6.1334   -4.4176   21.4602 H   0  0  0  0  0  0  0  0  0  0  0  0
    7.8165   -4.5870   20.9183 H   0  0  0  0  0  0  0  0  0  0  0  0
    6.7198   -5.9796   20.8446 H   0  0  0  0  0  0  0  0  0  0  0  0
  1  2  1  0
  2  3  1  0
  3  4  1  0
  3  5  1  0
  3  6  1  0
  2  7  1  0
  7  8  1  0
  7  9  1  0
  7 10  1  0
  2 11  1  0
 11 12  1  0
 12 13  1  0
 13 14  2  0
 14 15  1  0
 15 16  1  0
 16 17  2  0
 17 18  1  0
 18 19  2  0
 19 20  1  0
 20 21  2  0
 21 22  1  0
 19 23  1  0
 18 24  1  0
 17 25  1  0
 15 26  1  0
 26 27  1  0
 27 28  1  0
 28 29  2  0
 29 30  1  0
 30 31  2  0
 31 32  1  0
 32 33  2  0
 33 34  1  0
 31 35  1  0
 30 36  1  0
 29 37  1  0
 27 38  1  0
 27 39  1  0
 26 40  2  0
 12 41  1  0
 12 42  1  0
  1 43  1  0
  1 44  1  0
  1 45  1  0
 40 13  1  0
 21 16  1  0
 33 28  1  0
M  END
>  <cnnaffinity>  (1) 
-6.23758

>  <filename>  (1) 
CC(C)(C)OCc1nc(Cc2cccnc2Cl)n(-c2cccnc2)n1

$$$$
