
     RDKit          3D

 47 50  0  0  0  0  0  0  0  0999 V2000
    6.5429    1.2607   23.9320 C   0  0  0  0  0  0  0  0  0  0  0  0
    7.4727    1.2380   22.7079 C   0  0  0  0  0  0  0  0  0  0  0  0
    8.8972    1.7647   23.0634 C   0  0  0  0  0  0  0  0  0  0  0  0
    8.8545    3.2323   23.3962 C   0  0  0  0  0  0  0  0  0  0  0  0
    8.6927    4.1646   22.3617 C   0  0  0  0  0  0  0  0  0  0  0  0
    8.6253    5.5355   22.6121 C   0  0  0  0  0  0  0  0  0  0  0  0
    8.6710    5.9971   23.9321 C   0  0  0  0  0  0  0  0  0  0  0  0
    8.7803    5.0890   24.9916 C   0  0  0  0  0  0  0  0  0  0  0  0
    8.8692    3.7274   24.7055 C   0  0  0  0  0  0  0  0  0  0  0  0
    8.9510    2.8568   25.7344 F   0  0  0  0  0  0  0  0  0  0  0  0
    8.7854    5.4068   26.0287 H   0  0  0  0  0  0  0  0  0  0  0  0
    8.6100    7.0625   24.1359 H   0  0  0  0  0  0  0  0  0  0  0  0
    8.5282    6.2267   21.7794 H   0  0  0  0  0  0  0  0  0  0  0  0
    8.6079    3.7867   21.3445 H   0  0  0  0  0  0  0  0  0  0  0  0
    9.5678    1.6146   22.2047 H   0  0  0  0  0  0  0  0  0  0  0  0
    9.3130    1.1777   23.8918 H   0  0  0  0  0  0  0  0  0  0  0  0
    7.5701   -0.1560   22.1823 C   0  0  0  0  0  0  0  0  0  0  0  0
    8.0889   -1.1098   22.9225 N   0  0  0  0  0  0  0  0  0  0  0  0
    8.2182   -2.1400   22.0593 C   0  0  0  0  0  0  0  0  0  0  0  0
    8.8360   -3.3970   22.5631 C   0  0  0  0  0  0  0  0  0  0  0  0
    8.0759   -4.0966   23.7118 C   0  0  0  0  0  0  0  0  0  0  0  0
    9.1890   -4.8902   24.3931 C   0  0  0  0  0  0  0  0  0  0  0  0
   10.3673   -4.1236   24.2242 O   0  0  0  0  0  0  0  0  0  0  0  0
   10.2024   -3.1299   23.2308 C   0  0  0  0  0  0  0  0  0  0  0  0
   10.2240   -2.1397   23.7142 H   0  0  0  0  0  0  0  0  0  0  0  0
   11.0461   -3.1711   22.5294 H   0  0  0  0  0  0  0  0  0  0  0  0
    9.0161   -5.0250   25.4657 H   0  0  0  0  0  0  0  0  0  0  0  0
    9.3249   -5.8904   23.9428 H   0  0  0  0  0  0  0  0  0  0  0  0
    7.6341   -3.3487   24.3855 H   0  0  0  0  0  0  0  0  0  0  0  0
    7.2729   -4.7454   23.3605 H   0  0  0  0  0  0  0  0  0  0  0  0
    8.8994   -4.0814   21.7190 H   0  0  0  0  0  0  0  0  0  0  0  0
    7.7947   -1.9086   20.8344 N   0  0  0  0  0  0  0  0  0  0  0  0
    7.3279   -0.6263   20.9220 N   0  0  0  0  0  0  0  0  0  0  0  0
    6.6180    0.0013   19.8562 C   0  0  0  0  0  0  0  0  0  0  0  0
    5.4100    0.6725   20.0926 C   0  0  0  0  0  0  0  0  0  0  0  0
    4.7981    1.3323   19.0237 C   0  0  0  0  0  0  0  0  0  0  0  0
    5.4148    1.3051   17.7694 C   0  0  0  0  0  0  0  0  0  0  0  0
    6.5509    0.6283   17.5269 N   0  0  0  0  0  0  0  0  0  0  0  0
    7.1271   -0.0204   18.5441 C   0  0  0  0  0  0  0  0  0  0  0  0
    8.0361   -0.5718   18.3173 H   0  0  0  0  0  0  0  0  0  0  0  0
    4.9825    1.8412   16.9275 H   0  0  0  0  0  0  0  0  0  0  0  0
    3.8689    1.8749   19.1563 H   0  0  0  0  0  0  0  0  0  0  0  0
    4.9505    0.6709   21.0839 H   0  0  0  0  0  0  0  0  0  0  0  0
    7.0675    1.8868   21.9231 H   0  0  0  0  0  0  0  0  0  0  0  0
    6.9874    0.6815   24.7517 H   0  0  0  0  0  0  0  0  0  0  0  0
    5.5744    0.8131   23.6830 H   0  0  0  0  0  0  0  0  0  0  0  0
    6.3634    2.2780   24.2922 H   0  0  0  0  0  0  0  0  0  0  0  0
  1  2  1  0
  2  3  1  0
  3  4  1  0
  4  5  2  0
  5  6  1  0
  6  7  2  0
  7  8  1  0
  8  9  2  0
  9 10  1  0
  8 11  1  0
  7 12  1  0
  6 13  1  0
  5 14  1  0
  3 15  1  0
  3 16  1  0
  2 17  1  0
 17 18  2  0
 18 19  1  0
 19 20  1  0
 20 21  1  0
 21 22  1  0
 22 23  1  0
 23 24  1  0
 24 25  1  0
 24 26  1  0
 22 27  1  0
 22 28  1  0
 21 29  1  0
 21 30  1  0
 20 31  1  0
 19 32  2  0
 32 33  1  0
 33 34  1  0
 34 35  2  0
 35 36  1  0
 36 37  2  0
 37 38  1  0
 38 39  2  0
 39 40  1  0
 37 41  1  0
 36 42  1  0
 35 43  1  0
  2 44  1  0
  1 45  1  0
  1 46  1  0
  1 47  1  0
  9  4  1  0
 33 17  1  0
 39 34  1  0
 24 20  1  0
M  END
>  <cnnaffinity>  (1) 
-6.16826

>  <filename>  (1) 
CC(Cc1ccccc1F)c1nc(C2CCOC2)nn1-c1cccnc1

$$$$
