
     RDKit          3D

 42 44  0  0  0  0  0  0  0  0999 V2000
    8.4641   -4.7996   22.3762 C   0  0  0  0  0  0  0  0  0  0  0  0
    7.1204   -4.4628   23.0337 C   0  0  0  0  0  0  0  0  0  0  0  0
    6.7422   -5.4968   24.0969 C   0  0  0  0  0  0  0  0  0  0  0  0
    5.7933   -5.2470   24.5861 H   0  0  0  0  0  0  0  0  0  0  0  0
    7.5097   -5.5938   24.8796 H   0  0  0  0  0  0  0  0  0  0  0  0
    6.6069   -6.4746   23.6248 H   0  0  0  0  0  0  0  0  0  0  0  0
    7.1966   -3.0369   23.6326 C   0  0  0  0  0  0  0  0  0  0  0  0
    7.4569   -1.9820   22.5986 C   0  0  0  0  0  0  0  0  0  0  0  0
    6.5671   -1.6155   21.6992 N   0  0  0  0  0  0  0  0  0  0  0  0
    7.2670   -0.7584   20.9050 N   0  0  0  0  0  0  0  0  0  0  0  0
    6.5953   -0.0563   19.8677 C   0  0  0  0  0  0  0  0  0  0  0  0
    5.3966    0.6140   20.1316 C   0  0  0  0  0  0  0  0  0  0  0  0
    4.7972    1.3155   19.0824 C   0  0  0  0  0  0  0  0  0  0  0  0
    5.3958    1.3067   17.8143 C   0  0  0  0  0  0  0  0  0  0  0  0
    6.5276    0.6377   17.5501 N   0  0  0  0  0  0  0  0  0  0  0  0
    7.1077   -0.0227   18.5593 C   0  0  0  0  0  0  0  0  0  0  0  0
    8.0293   -0.5536   18.3273 H   0  0  0  0  0  0  0  0  0  0  0  0
    4.9533    1.8612   16.9901 H   0  0  0  0  0  0  0  0  0  0  0  0
    3.8848    1.8697   19.2395 H   0  0  0  0  0  0  0  0  0  0  0  0
    4.9639    0.5821   21.1338 H   0  0  0  0  0  0  0  0  0  0  0  0
    8.5350   -0.6301   21.4035 C   0  0  0  0  0  0  0  0  0  0  0  0
    9.6370    0.1537   20.7455 C   0  0  0  0  0  0  0  0  0  0  0  0
   10.6802    0.7134   21.6983 C   0  0  0  0  0  0  0  0  0  0  0  0
   11.9083    0.0792   21.9453 C   0  0  0  0  0  0  0  0  0  0  0  0
   12.2325   -1.0095   21.2232 F   0  0  0  0  0  0  0  0  0  0  0  0
   12.8165    0.5031   22.9120 C   0  0  0  0  0  0  0  0  0  0  0  0
   12.5007    1.6316   23.6673 C   0  0  0  0  0  0  0  0  0  0  0  0
   11.3099    2.3303   23.4476 C   0  0  0  0  0  0  0  0  0  0  0  0
   10.4451    1.8667   22.4585 C   0  0  0  0  0  0  0  0  0  0  0  0
    9.3122    2.5617   22.2373 F   0  0  0  0  0  0  0  0  0  0  0  0
   11.0356    3.2093   24.0194 H   0  0  0  0  0  0  0  0  0  0  0  0
   13.1823    1.9575   24.4436 H   0  0  0  0  0  0  0  0  0  0  0  0
   13.7393   -0.0497   23.0585 H   0  0  0  0  0  0  0  0  0  0  0  0
    9.1899    0.9682   20.1682 H   0  0  0  0  0  0  0  0  0  0  0  0
   10.1196   -0.5385   20.0477 H   0  0  0  0  0  0  0  0  0  0  0  0
    8.6740   -1.3985   22.4680 N   0  0  0  0  0  0  0  0  0  0  0  0
    8.0312   -2.9926   24.3399 H   0  0  0  0  0  0  0  0  0  0  0  0
    6.2936   -2.7857   24.1964 H   0  0  0  0  0  0  0  0  0  0  0  0
    6.3248   -4.4742   22.2691 H   0  0  0  0  0  0  0  0  0  0  0  0
    8.4735   -5.7987   21.9234 H   0  0  0  0  0  0  0  0  0  0  0  0
    9.2628   -4.7701   23.1321 H   0  0  0  0  0  0  0  0  0  0  0  0
    8.7271   -4.0571   21.6113 H   0  0  0  0  0  0  0  0  0  0  0  0
  1  2  1  0
  2  3  1  0
  3  4  1  0
  3  5  1  0
  3  6  1  0
  2  7  1  0
  7  8  1  0
  8  9  2  0
  9 10  1  0
 10 11  1  0
 11 12  2  0
 12 13  1  0
 13 14  2  0
 14 15  1  0
 15 16  2  0
 16 17  1  0
 14 18  1  0
 13 19  1  0
 12 20  1  0
 10 21  1  0
 21 22  1  0
 22 23  1  0
 23 24  2  0
 24 25  1  0
 24 26  1  0
 26 27  2  0
 27 28  1  0
 28 29  2  0
 29 30  1  0
 28 31  1  0
 27 32  1  0
 26 33  1  0
 22 34  1  0
 22 35  1  0
 21 36  2  0
  7 37  1  0
  7 38  1  0
  2 39  1  0
  1 40  1  0
  1 41  1  0
  1 42  1  0
 36  8  1  0
 16 11  1  0
 29 23  1  0
M  END
>  <cnnaffinity>  (1) 
-6.14437

>  <filename>  (1) 
CC(C)Cc1nc(Cc2c(F)cccc2F)n(-c2cccnc2)n1

$$$$
