
     RDKit          3D

 44 47  0  0  0  0  0  0  0  0999 V2000
    9.7329    1.8638   22.8426 C   0  0  0  0  0  0  0  0  0  0  0  0
    8.4406    1.7014   23.6510 C   0  0  0  0  0  0  0  0  0  0  0  0
    7.2413    1.2278   22.7914 C   0  0  0  0  0  0  0  0  0  0  0  0
    7.4615   -0.1292   22.2367 C   0  0  0  0  0  0  0  0  0  0  0  0
    8.0157   -1.0777   22.9630 N   0  0  0  0  0  0  0  0  0  0  0  0
    8.2031   -2.0769   22.0727 C   0  0  0  0  0  0  0  0  0  0  0  0
    8.9721   -3.2991   22.4162 C   0  0  0  0  0  0  0  0  0  0  0  0
    8.5576   -4.1781   23.6374 C   0  0  0  0  0  0  0  0  0  0  0  0
    9.9657   -3.9908   24.2558 C   0  0  0  0  0  0  0  0  0  0  0  0
   10.3516   -3.0333   23.1054 C   0  0  0  0  0  0  0  0  0  0  0  0
   11.2371   -3.2767   22.5124 H   0  0  0  0  0  0  0  0  0  0  0  0
   10.4556   -1.9970   23.4483 H   0  0  0  0  0  0  0  0  0  0  0  0
    9.9672   -3.5264   25.2519 H   0  0  0  0  0  0  0  0  0  0  0  0
   10.5671   -4.9040   24.3043 H   0  0  0  0  0  0  0  0  0  0  0  0
    7.7533   -3.7592   24.2502 H   0  0  0  0  0  0  0  0  0  0  0  0
    8.2913   -5.2048   23.3623 H   0  0  0  0  0  0  0  0  0  0  0  0
    9.0054   -3.8550   21.4788 H   0  0  0  0  0  0  0  0  0  0  0  0
    7.7895   -1.8187   20.8472 N   0  0  0  0  0  0  0  0  0  0  0  0
    7.2600   -0.5715   20.9623 N   0  0  0  0  0  0  0  0  0  0  0  0
    6.5823    0.0407   19.8718 C   0  0  0  0  0  0  0  0  0  0  0  0
    5.3603    0.6941   20.0733 C   0  0  0  0  0  0  0  0  0  0  0  0
    4.7739    1.3453   18.9857 C   0  0  0  0  0  0  0  0  0  0  0  0
    5.4185    1.3163   17.7489 C   0  0  0  0  0  0  0  0  0  0  0  0
    6.5617    0.6380   17.5373 N   0  0  0  0  0  0  0  0  0  0  0  0
    7.1183    0.0013   18.5734 C   0  0  0  0  0  0  0  0  0  0  0  0
    8.0315   -0.5554   18.3682 H   0  0  0  0  0  0  0  0  0  0  0  0
    5.0064    1.8516   16.8940 H   0  0  0  0  0  0  0  0  0  0  0  0
    3.8411    1.8857   19.0979 H   0  0  0  0  0  0  0  0  0  0  0  0
    4.8808    0.6827   21.0510 H   0  0  0  0  0  0  0  0  0  0  0  0
    7.0260    1.9631   22.0090 H   0  0  0  0  0  0  0  0  0  0  0  0
    6.3597    1.1715   23.4368 H   0  0  0  0  0  0  0  0  0  0  0  0
    8.0656    2.9209   24.3607 N   0  0  0  0  0  0  0  0  0  0  0  0
    7.9157    3.0377   25.7205 C   0  0  0  0  0  0  0  0  0  0  0  0
    7.4511    4.2994   25.9959 C   0  0  0  0  0  0  0  0  0  0  0  0
    7.2998    4.9707   24.7505 C   0  0  0  0  0  0  0  0  0  0  0  0
    7.6803    4.0953   23.7664 C   0  0  0  0  0  0  0  0  0  0  0  0
    7.6956    4.2075   22.6860 H   0  0  0  0  0  0  0  0  0  0  0  0
    6.9481    5.9846   24.5877 H   0  0  0  0  0  0  0  0  0  0  0  0
    7.2440    4.6914   26.9854 H   0  0  0  0  0  0  0  0  0  0  0  0
    8.1447    2.1973   26.3675 H   0  0  0  0  0  0  0  0  0  0  0  0
    8.6287    0.9518   24.4276 H   0  0  0  0  0  0  0  0  0  0  0  0
   10.5402    2.2533   23.4707 H   0  0  0  0  0  0  0  0  0  0  0  0
   10.0505    0.8910   22.4498 H   0  0  0  0  0  0  0  0  0  0  0  0
    9.5959    2.5473   21.9954 H   0  0  0  0  0  0  0  0  0  0  0  0
  1  2  1  0
  2  3  1  0
  3  4  1  0
  4  5  2  0
  5  6  1  0
  6  7  1  0
  7  8  1  0
  8  9  1  0
  9 10  1  0
 10 11  1  0
 10 12  1  0
  9 13  1  0
  9 14  1  0
  8 15  1  0
  8 16  1  0
  7 17  1  0
  6 18  2  0
 18 19  1  0
 19 20  1  0
 20 21  2  0
 21 22  1  0
 22 23  2  0
 23 24  1  0
 24 25  2  0
 25 26  1  0
 23 27  1  0
 22 28  1  0
 21 29  1  0
  3 30  1  0
  3 31  1  0
  2 32  1  0
 32 33  1  0
 33 34  2  0
 34 35  1  0
 35 36  2  0
 36 37  1  0
 35 38  1  0
 34 39  1  0
 33 40  1  0
  2 41  1  0
  1 42  1  0
  1 43  1  0
  1 44  1  0
 19  4  1  0
 25 20  1  0
 36 32  1  0
 10  7  1  0
M  END
>  <cnnaffinity>  (1) 
-6.1223

>  <filename>  (1) 
CC(Cc1nc(C2CCC2)nn1-c1cccnc1)n1cccc1

$$$$
