
     RDKit          3D

 44 47  0  0  0  0  0  0  0  0999 V2000
    7.2246   -1.9684   21.0449 C   0  0  0  0  0  0  0  0  0  0  0  0
    7.2229   -0.4361   21.1564 C   0  0  0  0  0  0  0  0  0  0  0  0
    8.6802    0.0682   21.3287 C   0  0  0  0  0  0  0  0  0  0  0  0
    9.2405   -0.2423   22.6807 C   0  0  0  0  0  0  0  0  0  0  0  0
    8.8116   -1.1957   23.4833 N   0  0  0  0  0  0  0  0  0  0  0  0
    9.4916   -0.9974   24.6359 C   0  0  0  0  0  0  0  0  0  0  0  0
    9.2869   -1.8650   25.8398 C   0  0  0  0  0  0  0  0  0  0  0  0
    9.6662   -3.3851   25.6480 C   0  0  0  0  0  0  0  0  0  0  0  0
    8.2062   -3.7930   25.9489 C   0  0  0  0  0  0  0  0  0  0  0  0
    7.8252   -2.3131   26.1787 C   0  0  0  0  0  0  0  0  0  0  0  0
    7.0658   -1.9323   25.4892 H   0  0  0  0  0  0  0  0  0  0  0  0
    7.4895   -2.0750   27.1936 H   0  0  0  0  0  0  0  0  0  0  0  0
    8.0796   -4.4417   26.8250 H   0  0  0  0  0  0  0  0  0  0  0  0
    7.6907   -4.2678   25.1049 H   0  0  0  0  0  0  0  0  0  0  0  0
   10.0169   -3.6357   24.6341 H   0  0  0  0  0  0  0  0  0  0  0  0
   10.3830   -3.7713   26.3810 H   0  0  0  0  0  0  0  0  0  0  0  0
    9.8030   -1.3558   26.6657 H   0  0  0  0  0  0  0  0  0  0  0  0
   10.3688   -0.0152   24.5814 N   0  0  0  0  0  0  0  0  0  0  0  0
   10.2395    0.4548   23.3070 N   0  0  0  0  0  0  0  0  0  0  0  0
   10.9939    1.5686   22.8465 C   0  0  0  0  0  0  0  0  0  0  0  0
   11.1415    2.7041   23.6316 C   0  0  0  0  0  0  0  0  0  0  0  0
   11.7557    3.8167   23.0474 C   0  0  0  0  0  0  0  0  0  0  0  0
   12.2466    3.8107   21.7997 N   0  0  0  0  0  0  0  0  0  0  0  0
   12.1733    2.6942   21.0759 N   0  0  0  0  0  0  0  0  0  0  0  0
   11.5896    1.5989   21.5691 C   0  0  0  0  0  0  0  0  0  0  0  0
   11.6150    0.7271   20.9229 H   0  0  0  0  0  0  0  0  0  0  0  0
   11.8622    4.7547   23.5837 H   0  0  0  0  0  0  0  0  0  0  0  0
   10.7931    2.7110   24.6604 H   0  0  0  0  0  0  0  0  0  0  0  0
    9.3361   -0.3962   20.5795 H   0  0  0  0  0  0  0  0  0  0  0  0
    8.7370    1.1441   21.1414 H   0  0  0  0  0  0  0  0  0  0  0  0
    6.5251    0.2132   19.9741 C   0  0  0  0  0  0  0  0  0  0  0  0
    5.2770    0.8523   20.0918 C   0  0  0  0  0  0  0  0  0  0  0  0
    4.6945    1.4276   18.9593 C   0  0  0  0  0  0  0  0  0  0  0  0
    5.3762    1.3447   17.7404 C   0  0  0  0  0  0  0  0  0  0  0  0
    6.5425    0.7024   17.5913 N   0  0  0  0  0  0  0  0  0  0  0  0
    7.0826    0.1501   18.6872 C   0  0  0  0  0  0  0  0  0  0  0  0
    8.0171   -0.3887   18.5261 H   0  0  0  0  0  0  0  0  0  0  0  0
    4.9666    1.8033   16.8432 H   0  0  0  0  0  0  0  0  0  0  0  0
    3.7403    1.9431   19.0059 H   0  0  0  0  0  0  0  0  0  0  0  0
    4.7732    0.8973   21.0601 H   0  0  0  0  0  0  0  0  0  0  0  0
    6.6612   -0.1506   22.0580 H   0  0  0  0  0  0  0  0  0  0  0  0
    6.2508   -2.3571   20.7310 H   0  0  0  0  0  0  0  0  0  0  0  0
    7.9748   -2.2676   20.3108 H   0  0  0  0  0  0  0  0  0  0  0  0
    7.5134   -2.4135   21.9999 H   0  0  0  0  0  0  0  0  0  0  0  0
  1  2  1  0
  2  3  1  0
  3  4  1  0
  4  5  2  0
  5  6  1  0
  6  7  1  0
  7  8  1  0
  8  9  1  0
  9 10  1  0
 10 11  1  0
 10 12  1  0
  9 13  1  0
  9 14  1  0
  8 15  1  0
  8 16  1  0
  7 17  1  0
  6 18  2  0
 18 19  1  0
 19 20  1  0
 20 21  2  0
 21 22  1  0
 22 23  2  0
 23 24  1  0
 24 25  2  0
 25 26  1  0
 22 27  1  0
 21 28  1  0
  3 29  1  0
  3 30  1  0
  2 31  1  0
 31 32  2  0
 32 33  1  0
 33 34  2  0
 34 35  1  0
 35 36  2  0
 36 37  1  0
 34 38  1  0
 33 39  1  0
 32 40  1  0
  2 41  1  0
  1 42  1  0
  1 43  1  0
  1 44  1  0
 19  4  1  0
 25 20  1  0
 36 31  1  0
 10  7  1  0
M  END
>  <cnnaffinity>  (1) 
-6.23457

>  <filename>  (1) 
CC(Cc1nc(C2CCC2)nn1-c1ccnnc1)c1cccnc1

$$$$
