
     RDKit          3D

 44 47  0  0  0  0  0  0  0  0999 V2000
    8.1542    2.4591   21.7193 C   0  0  0  0  0  0  0  0  0  0  0  0
    9.5236    1.7970   21.8884 C   0  0  0  0  0  0  0  0  0  0  0  0
    9.6029    0.5015   21.0134 C   0  0  0  0  0  0  0  0  0  0  0  0
    8.6475   -0.5897   21.3790 C   0  0  0  0  0  0  0  0  0  0  0  0
    8.8618   -1.5446   22.2601 N   0  0  0  0  0  0  0  0  0  0  0  0
    7.6228   -2.1068   22.4453 C   0  0  0  0  0  0  0  0  0  0  0  0
    7.3783   -3.1522   23.5123 C   0  0  0  0  0  0  0  0  0  0  0  0
    8.4020   -3.4337   24.4467 C   0  0  0  0  0  0  0  0  0  0  0  0
    8.1819   -4.4022   25.4260 C   0  0  0  0  0  0  0  0  0  0  0  0
    6.9471   -5.0510   25.4608 C   0  0  0  0  0  0  0  0  0  0  0  0
    5.9840   -4.7015   24.5107 C   0  0  0  0  0  0  0  0  0  0  0  0
    6.1840   -3.7892   23.5564 N   0  0  0  0  0  0  0  0  0  0  0  0
    5.0039   -5.1771   24.5100 H   0  0  0  0  0  0  0  0  0  0  0  0
    6.7202   -5.8135   26.1979 H   0  0  0  0  0  0  0  0  0  0  0  0
    8.9588   -4.6486   26.1490 H   0  0  0  0  0  0  0  0  0  0  0  0
    9.3424   -2.8891   24.3972 H   0  0  0  0  0  0  0  0  0  0  0  0
    6.6868   -1.5943   21.6575 N   0  0  0  0  0  0  0  0  0  0  0  0
    7.3524   -0.6629   20.9361 N   0  0  0  0  0  0  0  0  0  0  0  0
    6.6709    0.0115   19.8750 C   0  0  0  0  0  0  0  0  0  0  0  0
    5.4495    0.6418   20.1343 C   0  0  0  0  0  0  0  0  0  0  0  0
    4.8121    1.3177   19.0893 C   0  0  0  0  0  0  0  0  0  0  0  0
    5.4035    1.3124   17.8217 C   0  0  0  0  0  0  0  0  0  0  0  0
    6.5503    0.6697   17.5492 N   0  0  0  0  0  0  0  0  0  0  0  0
    7.1660    0.0347   18.5580 C   0  0  0  0  0  0  0  0  0  0  0  0
    8.0879   -0.4877   18.2988 H   0  0  0  0  0  0  0  0  0  0  0  0
    4.9316    1.8358   16.9926 H   0  0  0  0  0  0  0  0  0  0  0  0
    3.8752    1.8434   19.2472 H   0  0  0  0  0  0  0  0  0  0  0  0
    5.0226    0.5753   21.1360 H   0  0  0  0  0  0  0  0  0  0  0  0
   10.6086    0.0825   21.0821 H   0  0  0  0  0  0  0  0  0  0  0  0
    9.4250    0.7819   19.9716 H   0  0  0  0  0  0  0  0  0  0  0  0
    9.8730    1.5412   23.3493 C   0  0  0  0  0  0  0  0  0  0  0  0
    8.9196    1.1333   24.2917 C   0  0  0  0  0  0  0  0  0  0  0  0
    9.3249    0.7687   25.5723 C   0  0  0  0  0  0  0  0  0  0  0  0
   10.6823    0.8440   25.8819 C   0  0  0  0  0  0  0  0  0  0  0  0
   11.6170    1.2740   25.0234 N   0  0  0  0  0  0  0  0  0  0  0  0
   11.2049    1.6115   23.7949 C   0  0  0  0  0  0  0  0  0  0  0  0
   11.9840    1.9594   23.1171 H   0  0  0  0  0  0  0  0  0  0  0  0
   11.0259    0.5381   26.8634 H   0  0  0  0  0  0  0  0  0  0  0  0
    8.6059    0.4318   26.3116 H   0  0  0  0  0  0  0  0  0  0  0  0
    7.8738    1.0476   24.0044 H   0  0  0  0  0  0  0  0  0  0  0  0
   10.2842    2.4842   21.4886 H   0  0  0  0  0  0  0  0  0  0  0  0
    7.8908    2.5477   20.6648 H   0  0  0  0  0  0  0  0  0  0  0  0
    8.1259    3.4543   22.1755 H   0  0  0  0  0  0  0  0  0  0  0  0
    7.3633    1.8509   22.1660 H   0  0  0  0  0  0  0  0  0  0  0  0
  1  2  1  0
  2  3  1  0
  3  4  1  0
  4  5  2  0
  5  6  1  0
  6  7  1  0
  7  8  2  0
  8  9  1  0
  9 10  2  0
 10 11  1  0
 11 12  2  0
 11 13  1  0
 10 14  1  0
  9 15  1  0
  8 16  1  0
  6 17  2  0
 17 18  1  0
 18 19  1  0
 19 20  2  0
 20 21  1  0
 21 22  2  0
 22 23  1  0
 23 24  2  0
 24 25  1  0
 22 26  1  0
 21 27  1  0
 20 28  1  0
  3 29  1  0
  3 30  1  0
  2 31  1  0
 31 32  2  0
 32 33  1  0
 33 34  2  0
 34 35  1  0
 35 36  2  0
 36 37  1  0
 34 38  1  0
 33 39  1  0
 32 40  1  0
  2 41  1  0
  1 42  1  0
  1 43  1  0
  1 44  1  0
 18  4  1  0
 24 19  1  0
 36 31  1  0
 12  7  1  0
M  END
>  <cnnaffinity>  (1) 
-6.20836

>  <filename>  (1) 
CC(Cc1nc(-c2ccccn2)nn1-c1cccnc1)c1cccnc1

$$$$
