
     RDKit          3D

 47 50  0  0  0  0  0  0  0  0999 V2000
    9.3747    1.9304   21.1164 C   0  0  0  0  0  0  0  0  0  0  0  0
    8.9961    1.9361   22.5967 C   0  0  0  0  0  0  0  0  0  0  0  0
    7.6234    1.2209   22.7984 C   0  0  0  0  0  0  0  0  0  0  0  0
    7.6283   -0.1862   22.2799 C   0  0  0  0  0  0  0  0  0  0  0  0
    8.1772   -1.1981   22.9299 N   0  0  0  0  0  0  0  0  0  0  0  0
    8.1682   -2.2019   22.0147 C   0  0  0  0  0  0  0  0  0  0  0  0
    8.6461   -3.5789   22.3054 C   0  0  0  0  0  0  0  0  0  0  0  0
    7.6715   -4.3789   23.1700 C   0  0  0  0  0  0  0  0  0  0  0  0
    6.4120   -4.8243   22.3854 C   0  0  0  0  0  0  0  0  0  0  0  0
    6.7877   -6.3060   22.6206 C   0  0  0  0  0  0  0  0  0  0  0  0
    8.0473   -5.8641   23.4050 C   0  0  0  0  0  0  0  0  0  0  0  0
    8.9852   -6.1724   22.9333 H   0  0  0  0  0  0  0  0  0  0  0  0
    8.0900   -6.1735   24.4561 H   0  0  0  0  0  0  0  0  0  0  0  0
    6.0580   -6.8858   23.1898 H   0  0  0  0  0  0  0  0  0  0  0  0
    7.0078   -6.8527   21.6977 H   0  0  0  0  0  0  0  0  0  0  0  0
    5.4587   -4.4796   22.7913 H   0  0  0  0  0  0  0  0  0  0  0  0
    6.4396   -4.5398   21.3257 H   0  0  0  0  0  0  0  0  0  0  0  0
    7.4560   -3.8469   24.1066 H   0  0  0  0  0  0  0  0  0  0  0  0
    9.6312   -3.5204   22.7720 H   0  0  0  0  0  0  0  0  0  0  0  0
    8.7437   -4.0781   21.3398 H   0  0  0  0  0  0  0  0  0  0  0  0
    7.6637   -1.8770   20.8442 N   0  0  0  0  0  0  0  0  0  0  0  0
    7.2838   -0.5856   21.0134 N   0  0  0  0  0  0  0  0  0  0  0  0
    6.6114    0.0614   19.9409 C   0  0  0  0  0  0  0  0  0  0  0  0
    5.3958    0.7269   20.1311 C   0  0  0  0  0  0  0  0  0  0  0  0
    4.8107    1.3590   19.0274 C   0  0  0  0  0  0  0  0  0  0  0  0
    5.4588    1.3056   17.7915 C   0  0  0  0  0  0  0  0  0  0  0  0
    6.5991    0.6227   17.5899 N   0  0  0  0  0  0  0  0  0  0  0  0
    7.1432   -0.0070   18.6386 C   0  0  0  0  0  0  0  0  0  0  0  0
    8.0346   -0.5994   18.4381 H   0  0  0  0  0  0  0  0  0  0  0  0
    5.0362    1.8076   16.9238 H   0  0  0  0  0  0  0  0  0  0  0  0
    3.8621    1.8738   19.1199 H   0  0  0  0  0  0  0  0  0  0  0  0
    4.9086    0.7145   21.1055 H   0  0  0  0  0  0  0  0  0  0  0  0
    6.8353    1.8044   22.3109 H   0  0  0  0  0  0  0  0  0  0  0  0
    7.4058    1.1724   23.8664 H   0  0  0  0  0  0  0  0  0  0  0  0
    9.0024    3.2946   23.1686 N   0  0  0  0  0  0  0  0  0  0  0  0
    8.1900    4.3447   22.8092 C   0  0  0  0  0  0  0  0  0  0  0  0
    8.5050    5.4351   23.5805 C   0  0  0  0  0  0  0  0  0  0  0  0
    9.5647    5.0481   24.4383 C   0  0  0  0  0  0  0  0  0  0  0  0
    9.8487    3.7369   24.1573 C   0  0  0  0  0  0  0  0  0  0  0  0
   10.6142    3.0867   24.5506 H   0  0  0  0  0  0  0  0  0  0  0  0
   10.0640    5.6598   25.1791 H   0  0  0  0  0  0  0  0  0  0  0  0
    8.0253    6.4064   23.5425 H   0  0  0  0  0  0  0  0  0  0  0  0
    7.4783    4.2605   22.0021 H   0  0  0  0  0  0  0  0  0  0  0  0
    9.7566    1.3822   23.1659 H   0  0  0  0  0  0  0  0  0  0  0  0
    9.4881    0.9012   20.7607 H   0  0  0  0  0  0  0  0  0  0  0  0
   10.3138    2.4593   20.9394 H   0  0  0  0  0  0  0  0  0  0  0  0
    8.5797    2.4009   20.5246 H   0  0  0  0  0  0  0  0  0  0  0  0
  1  2  1  0
  2  3  1  0
  3  4  1  0
  4  5  2  0
  5  6  1  0
  6  7  1  0
  7  8  1  0
  8  9  1  0
  9 10  1  0
 10 11  1  0
 11 12  1  0
 11 13  1  0
 10 14  1  0
 10 15  1  0
  9 16  1  0
  9 17  1  0
  8 18  1  0
  7 19  1  0
  7 20  1  0
  6 21  2  0
 21 22  1  0
 22 23  1  0
 23 24  2  0
 24 25  1  0
 25 26  2  0
 26 27  1  0
 27 28  2  0
 28 29  1  0
 26 30  1  0
 25 31  1  0
 24 32  1  0
  3 33  1  0
  3 34  1  0
  2 35  1  0
 35 36  1  0
 36 37  2  0
 37 38  1  0
 38 39  2  0
 39 40  1  0
 38 41  1  0
 37 42  1  0
 36 43  1  0
  2 44  1  0
  1 45  1  0
  1 46  1  0
  1 47  1  0
 22  4  1  0
 28 23  1  0
 39 35  1  0
 11  8  1  0
M  END
>  <cnnaffinity>  (1) 
-5.89992

>  <filename>  (1) 
CC(Cc1nc(CC2CCC2)nn1-c1cccnc1)n1cccc1

$$$$
