
     RDKit          3D

 43 46  0  0  0  0  0  0  0  0999 V2000
    8.1449    2.5014   21.7474 C   0  0  0  0  0  0  0  0  0  0  0  0
    9.4935    1.8111   21.8798 C   0  0  0  0  0  0  0  0  0  0  0  0
    9.5715    0.5318   21.0065 C   0  0  0  0  0  0  0  0  0  0  0  0
    8.6237   -0.5532   21.3983 C   0  0  0  0  0  0  0  0  0  0  0  0
    8.8516   -1.4350   22.3424 N   0  0  0  0  0  0  0  0  0  0  0  0
    7.6570   -2.0666   22.4910 C   0  0  0  0  0  0  0  0  0  0  0  0
    7.4422   -3.1006   23.5215 C   0  0  0  0  0  0  0  0  0  0  0  0
    6.2033   -3.7727   23.5950 C   0  0  0  0  0  0  0  0  0  0  0  0
    5.9934   -4.7569   24.5586 C   0  0  0  0  0  0  0  0  0  0  0  0
    7.0196   -5.0570   25.4499 C   0  0  0  0  0  0  0  0  0  0  0  0
    6.8135   -6.0034   26.3789 F   0  0  0  0  0  0  0  0  0  0  0  0
    8.2491   -4.4048   25.4124 C   0  0  0  0  0  0  0  0  0  0  0  0
    8.4606   -3.4205   24.4463 C   0  0  0  0  0  0  0  0  0  0  0  0
    9.4146   -2.8916   24.4068 H   0  0  0  0  0  0  0  0  0  0  0  0
    9.0033   -4.6845   26.1403 H   0  0  0  0  0  0  0  0  0  0  0  0
    5.0584   -5.2969   24.6486 H   0  0  0  0  0  0  0  0  0  0  0  0
    5.4133   -3.5043   22.8929 H   0  0  0  0  0  0  0  0  0  0  0  0
    6.7125   -1.6461   21.6607 N   0  0  0  0  0  0  0  0  0  0  0  0
    7.3467   -0.6980   20.9299 N   0  0  0  0  0  0  0  0  0  0  0  0
    6.6550   -0.0114   19.8912 C   0  0  0  0  0  0  0  0  0  0  0  0
    5.4415    0.6315   20.1537 C   0  0  0  0  0  0  0  0  0  0  0  0
    4.8068    1.3088   19.1047 C   0  0  0  0  0  0  0  0  0  0  0  0
    5.3964    1.2975   17.8355 C   0  0  0  0  0  0  0  0  0  0  0  0
    6.5484    0.6623   17.5711 N   0  0  0  0  0  0  0  0  0  0  0  0
    7.1600    0.0326   18.5813 C   0  0  0  0  0  0  0  0  0  0  0  0
    8.1010   -0.4590   18.3393 H   0  0  0  0  0  0  0  0  0  0  0  0
    4.9329    1.8135   16.9966 H   0  0  0  0  0  0  0  0  0  0  0  0
    3.8734    1.8445   19.2548 H   0  0  0  0  0  0  0  0  0  0  0  0
    5.0159    0.5887   21.1573 H   0  0  0  0  0  0  0  0  0  0  0  0
    9.3701    0.8160   19.9749 H   0  0  0  0  0  0  0  0  0  0  0  0
   10.5791    0.1130   21.0541 H   0  0  0  0  0  0  0  0  0  0  0  0
    9.8170    1.5368   23.2789 N   0  0  0  0  0  0  0  0  0  0  0  0
   11.0860    1.4393   23.8108 C   0  0  0  0  0  0  0  0  0  0  0  0
   10.9190    0.9887   25.0892 C   0  0  0  0  0  0  0  0  0  0  0  0
    9.5877    0.8010   25.3606 N   0  0  0  0  0  0  0  0  0  0  0  0
    8.9635    1.1265   24.2585 C   0  0  0  0  0  0  0  0  0  0  0  0
    7.8991    1.0442   24.0894 H   0  0  0  0  0  0  0  0  0  0  0  0
   11.6653    0.7492   25.8308 H   0  0  0  0  0  0  0  0  0  0  0  0
   11.9612    1.6826   23.2218 H   0  0  0  0  0  0  0  0  0  0  0  0
   10.2857    2.4899   21.5344 H   0  0  0  0  0  0  0  0  0  0  0  0
    8.1391    3.4517   22.2905 H   0  0  0  0  0  0  0  0  0  0  0  0
    7.9604    2.6604   20.6874 H   0  0  0  0  0  0  0  0  0  0  0  0
    7.3277    1.8810   22.1320 H   0  0  0  0  0  0  0  0  0  0  0  0
  1  2  1  0
  2  3  1  0
  3  4  1  0
  4  5  2  0
  5  6  1  0
  6  7  1  0
  7  8  2  0
  8  9  1  0
  9 10  2  0
 10 11  1  0
 10 12  1  0
 12 13  2  0
 13 14  1  0
 12 15  1  0
  9 16  1  0
  8 17  1  0
  6 18  2  0
 18 19  1  0
 19 20  1  0
 20 21  2  0
 21 22  1  0
 22 23  2  0
 23 24  1  0
 24 25  2  0
 25 26  1  0
 23 27  1  0
 22 28  1  0
 21 29  1  0
  3 30  1  0
  3 31  1  0
  2 32  1  0
 32 33  1  0
 33 34  2  0
 34 35  1  0
 35 36  2  0
 36 37  1  0
 34 38  1  0
 33 39  1  0
  2 40  1  0
  1 41  1  0
  1 42  1  0
  1 43  1  0
 19  4  1  0
 25 20  1  0
 36 32  1  0
 13  7  1  0
M  END
>  <cnnaffinity>  (1) 
-6.00808

>  <filename>  (1) 
CC(Cc1nc(-c2ccc(F)cc2)nn1-c1cccnc1)n1ccnc1

$$$$
