
     RDKit          3D

 45 47  0  0  0  0  0  0  0  0999 V2000
    7.0762   -4.1165   24.1358 C   0  0  0  0  0  0  0  0  0  0  0  0
    7.6515   -4.5588   22.7873 C   0  0  0  0  0  0  0  0  0  0  0  0
    8.3525   -5.9185   22.9052 C   0  0  0  0  0  0  0  0  0  0  0  0
    7.6423   -6.7368   23.0642 H   0  0  0  0  0  0  0  0  0  0  0  0
    8.9290   -6.1545   22.0040 H   0  0  0  0  0  0  0  0  0  0  0  0
    9.0512   -5.9186   23.7517 H   0  0  0  0  0  0  0  0  0  0  0  0
    8.6397   -3.5306   22.1870 C   0  0  0  0  0  0  0  0  0  0  0  0
    8.1301   -2.1433   21.9889 C   0  0  0  0  0  0  0  0  0  0  0  0
    7.6348   -1.8022   20.8197 N   0  0  0  0  0  0  0  0  0  0  0  0
    7.2706   -0.5111   20.9981 N   0  0  0  0  0  0  0  0  0  0  0  0
    6.5956    0.1499   19.9406 C   0  0  0  0  0  0  0  0  0  0  0  0
    5.3875    0.8321   20.1254 C   0  0  0  0  0  0  0  0  0  0  0  0
    4.7990    1.4221   19.0014 C   0  0  0  0  0  0  0  0  0  0  0  0
    5.4398    1.3231   17.7616 C   0  0  0  0  0  0  0  0  0  0  0  0
    6.5859    0.6412   17.5785 N   0  0  0  0  0  0  0  0  0  0  0  0
    7.1307    0.0508   18.6430 C   0  0  0  0  0  0  0  0  0  0  0  0
    8.0307   -0.5397   18.4779 H   0  0  0  0  0  0  0  0  0  0  0  0
    5.0249    1.8024   16.8788 H   0  0  0  0  0  0  0  0  0  0  0  0
    3.8610    1.9611   19.0791 H   0  0  0  0  0  0  0  0  0  0  0  0
    4.9080    0.8636   21.1059 H   0  0  0  0  0  0  0  0  0  0  0  0
    7.6315   -0.1172   22.2539 C   0  0  0  0  0  0  0  0  0  0  0  0
    7.5949    1.3068   22.7102 C   0  0  0  0  0  0  0  0  0  0  0  0
    8.5329    2.2379   21.8973 C   0  0  0  0  0  0  0  0  0  0  0  0
    8.4499    3.6965   22.3023 C   0  0  0  0  0  0  0  0  0  0  0  0
    9.3869    4.2805   23.1781 C   0  0  0  0  0  0  0  0  0  0  0  0
    9.2807    5.6258   23.5616 C   0  0  0  0  0  0  0  0  0  0  0  0
    8.2097    6.3807   23.0850 C   0  0  0  0  0  0  0  0  0  0  0  0
    8.0891    7.6623   23.4823 F   0  0  0  0  0  0  0  0  0  0  0  0
    7.2622    5.8366   22.2210 C   0  0  0  0  0  0  0  0  0  0  0  0
    7.3844    4.4941   21.8415 C   0  0  0  0  0  0  0  0  0  0  0  0
    6.6355    4.0502   21.1751 H   0  0  0  0  0  0  0  0  0  0  0  0
    6.4584    6.4736   21.8615 H   0  0  0  0  0  0  0  0  0  0  0  0
    9.9886    6.0976   24.2344 H   0  0  0  0  0  0  0  0  0  0  0  0
   10.1877    3.6724   23.6086 H   0  0  0  0  0  0  0  0  0  0  0  0
    8.2735    2.1454   20.8345 H   0  0  0  0  0  0  0  0  0  0  0  0
    9.5639    1.8784   22.0066 H   0  0  0  0  0  0  0  0  0  0  0  0
    7.8638    1.3191   23.7687 H   0  0  0  0  0  0  0  0  0  0  0  0
    6.5679    1.6760   22.6397 H   0  0  0  0  0  0  0  0  0  0  0  0
    8.1533   -1.1417   22.9087 N   0  0  0  0  0  0  0  0  0  0  0  0
    9.5612   -3.4852   22.7762 H   0  0  0  0  0  0  0  0  0  0  0  0
    8.8990   -3.8628   21.1803 H   0  0  0  0  0  0  0  0  0  0  0  0
    6.8177   -4.6663   22.0767 H   0  0  0  0  0  0  0  0  0  0  0  0
    6.6105   -3.1253   24.0793 H   0  0  0  0  0  0  0  0  0  0  0  0
    6.3218   -4.8293   24.4917 H   0  0  0  0  0  0  0  0  0  0  0  0
    7.8703   -4.0657   24.8936 H   0  0  0  0  0  0  0  0  0  0  0  0
  1  2  1  0
  2  3  1  0
  3  4  1  0
  3  5  1  0
  3  6  1  0
  2  7  1  0
  7  8  1  0
  8  9  2  0
  9 10  1  0
 10 11  1  0
 11 12  2  0
 12 13  1  0
 13 14  2  0
 14 15  1  0
 15 16  2  0
 16 17  1  0
 14 18  1  0
 13 19  1  0
 12 20  1  0
 10 21  1  0
 21 22  1  0
 22 23  1  0
 23 24  1  0
 24 25  2  0
 25 26  1  0
 26 27  2  0
 27 28  1  0
 27 29  1  0
 29 30  2  0
 30 31  1  0
 29 32  1  0
 26 33  1  0
 25 34  1  0
 23 35  1  0
 23 36  1  0
 22 37  1  0
 22 38  1  0
 21 39  2  0
  7 40  1  0
  7 41  1  0
  2 42  1  0
  1 43  1  0
  1 44  1  0
  1 45  1  0
 39  8  1  0
 16 11  1  0
 30 24  1  0
M  END
>  <cnnaffinity>  (1) 
-5.7172

>  <filename>  (1) 
CC(C)Cc1nc(CCc2ccc(F)cc2)n(-c2cccnc2)n1

$$$$
