
     RDKit          3D

 38 38  0  0  0  0  0  0  0  0999 V2000
    5.0468    1.7783   17.0099 H   0  0  0  0  0  0  0  0  0  0  0  0
    5.4805    1.2799   17.8712 C   0  0  0  0  0  0  0  0  0  0  0  0
    6.6364    0.6328   17.6531 N   0  0  0  0  0  0  0  0  0  0  0  0
    7.1922    0.0044   18.6842 C   0  0  0  0  0  0  0  0  0  0  0  0
    8.1220   -0.5350   18.5059 H   0  0  0  0  0  0  0  0  0  0  0  0
    6.6207    0.0127   19.9441 C   0  0  0  0  0  0  0  0  0  0  0  0
    7.4949   -0.8963   21.1402 S   0  0  0  0  0  0  0  0  0  0  0  0
    6.4866   -1.5134   21.9999 O   0  0  0  0  0  0  0  0  0  0  0  0
    8.4718   -1.7265   20.4358 O   0  0  0  0  0  0  0  0  0  0  0  0
    8.4964    0.3975   22.0830 C   0  0  0  0  0  0  0  0  0  0  0  0
    7.5954    1.3495   22.8931 C   0  0  0  0  0  0  0  0  0  0  0  0
    6.8987    0.8102   23.5438 H   0  0  0  0  0  0  0  0  0  0  0  0
    8.2308    1.9823   23.5287 H   0  0  0  0  0  0  0  0  0  0  0  0
    7.0159    2.0270   22.2529 H   0  0  0  0  0  0  0  0  0  0  0  0
    9.3598    1.1964   21.0861 C   0  0  0  0  0  0  0  0  0  0  0  0
    9.9298    0.5195   20.4419 H   0  0  0  0  0  0  0  0  0  0  0  0
    8.7523    1.8624   20.4626 H   0  0  0  0  0  0  0  0  0  0  0  0
   10.0745    1.8253   21.6345 H   0  0  0  0  0  0  0  0  0  0  0  0
    9.4326   -0.4301   22.9984 C   0  0  0  0  0  0  0  0  0  0  0  0
   10.0629    0.2851   23.5542 H   0  0  0  0  0  0  0  0  0  0  0  0
   10.1177   -1.0014   22.3547 H   0  0  0  0  0  0  0  0  0  0  0  0
    8.7474   -1.3652   24.0020 C   0  0  0  0  0  0  0  0  0  0  0  0
    8.0305   -0.7780   24.5970 H   0  0  0  0  0  0  0  0  0  0  0  0
    8.1582   -2.1284   23.4824 H   0  0  0  0  0  0  0  0  0  0  0  0
    9.7410   -2.0477   24.9469 C   0  0  0  0  0  0  0  0  0  0  0  0
   10.3884   -1.2415   25.3149 H   0  0  0  0  0  0  0  0  0  0  0  0
   10.5923   -3.1112   24.2378 C   0  0  0  0  0  0  0  0  0  0  0  0
   11.2878   -3.5903   24.9374 H   0  0  0  0  0  0  0  0  0  0  0  0
   11.1892   -2.7112   23.4115 H   0  0  0  0  0  0  0  0  0  0  0  0
    9.9537   -3.8964   23.8172 H   0  0  0  0  0  0  0  0  0  0  0  0
    9.0391   -2.6677   26.1586 C   0  0  0  0  0  0  0  0  0  0  0  0
    9.7634   -3.0502   26.8887 H   0  0  0  0  0  0  0  0  0  0  0  0
    8.4021   -1.9382   26.6729 H   0  0  0  0  0  0  0  0  0  0  0  0
    8.4156   -3.5121   25.8400 H   0  0  0  0  0  0  0  0  0  0  0  0
    5.4162    0.6648   20.1989 C   0  0  0  0  0  0  0  0  0  0  0  0
    4.9397    0.6605   21.1876 H   0  0  0  0  0  0  0  0  0  0  0  0
    4.8357    1.3152   19.1153 C   0  0  0  0  0  0  0  0  0  0  0  0
    3.8989    1.8509   19.2136 H   0  0  0  0  0  0  0  0  0  0  0  0
  1  2  1  0
  2  3  2  0
  3  4  1  0
  4  5  1  0
  4  6  2  0
  6  7  1  0
  7  8  2  0
  7  9  2  0
  7 10  1  0
 10 11  1  0
 11 12  1  0
 11 13  1  0
 11 14  1  0
 10 15  1  0
 15 16  1  0
 15 17  1  0
 15 18  1  0
 10 19  1  0
 19 20  1  0
 19 21  1  0
 19 22  1  0
 22 23  1  0
 22 24  1  0
 22 25  1  0
 25 26  1  0
 25 27  1  0
 27 28  1  0
 27 29  1  0
 27 30  1  0
 25 31  1  0
 31 32  1  0
 31 33  1  0
 31 34  1  0
  6 35  1  0
 35 36  1  0
 35 37  2  0
 37 38  1  0
 37  2  1  0
M  END
>  <cnnaffinity>  (1) 
-4.29406

>  <filename>  (1) 
CC(C)CCC(C)(C)S(=O)(=O)c1cccnc1

$$$$
