
     RDKit          3D

 41 43  0  0  0  0  0  0  0  0999 V2000
    8.2116   -5.9377   22.9576 C   0  0  0  0  0  0  0  0  0  0  0  0
    7.6380   -4.5208   22.8325 C   0  0  0  0  0  0  0  0  0  0  0  0
    7.0425   -4.0320   24.1518 C   0  0  0  0  0  0  0  0  0  0  0  0
    6.2595   -4.7045   24.5125 H   0  0  0  0  0  0  0  0  0  0  0  0
    7.8100   -3.9731   24.9327 H   0  0  0  0  0  0  0  0  0  0  0  0
    6.5997   -3.0365   24.0490 H   0  0  0  0  0  0  0  0  0  0  0  0
    8.7148   -3.5469   22.3010 C   0  0  0  0  0  0  0  0  0  0  0  0
    8.2434   -2.1654   22.0151 C   0  0  0  0  0  0  0  0  0  0  0  0
    7.6868   -1.9099   20.8484 N   0  0  0  0  0  0  0  0  0  0  0  0
    7.3665   -0.6011   20.9415 N   0  0  0  0  0  0  0  0  0  0  0  0
    6.6467    0.0258   19.8945 C   0  0  0  0  0  0  0  0  0  0  0  0
    5.4299    0.6643   20.1455 C   0  0  0  0  0  0  0  0  0  0  0  0
    4.7954    1.3081   19.0802 C   0  0  0  0  0  0  0  0  0  0  0  0
    5.4059    1.2828   17.8222 C   0  0  0  0  0  0  0  0  0  0  0  0
    6.5569    0.6344   17.5731 N   0  0  0  0  0  0  0  0  0  0  0  0
    7.1570    0.0087   18.5865 C   0  0  0  0  0  0  0  0  0  0  0  0
    8.0991   -0.4918   18.3693 H   0  0  0  0  0  0  0  0  0  0  0  0
    4.9593    1.8098   16.9814 H   0  0  0  0  0  0  0  0  0  0  0  0
    3.8673    1.8519   19.2318 H   0  0  0  0  0  0  0  0  0  0  0  0
    5.0224    0.6851   21.1557 H   0  0  0  0  0  0  0  0  0  0  0  0
    7.7802   -0.1317   22.1452 C   0  0  0  0  0  0  0  0  0  0  0  0
    7.6434    1.2610   22.6392 C   0  0  0  0  0  0  0  0  0  0  0  0
    6.4975    1.3458   23.5894 C   0  0  0  0  0  0  0  0  0  0  0  0
    6.3416    0.6393   24.7393 C   0  0  0  0  0  0  0  0  0  0  0  0
    4.8659    1.0649   25.5048 S   0  0  0  0  0  0  0  0  0  0  0  0
    4.5399    2.1512   24.1916 C   0  0  0  0  0  0  0  0  0  0  0  0
    3.3034    3.0327   24.2336 C   0  0  0  0  0  0  0  0  0  0  0  0
    2.8937    3.4510   23.0279 F   0  0  0  0  0  0  0  0  0  0  0  0
    2.2731    2.3817   24.7941 F   0  0  0  0  0  0  0  0  0  0  0  0
    3.5362    4.1255   24.9784 F   0  0  0  0  0  0  0  0  0  0  0  0
    5.4589    2.1801   23.2684 N   0  0  0  0  0  0  0  0  0  0  0  0
    7.0208   -0.1171   25.1109 H   0  0  0  0  0  0  0  0  0  0  0  0
    7.4632    1.9711   21.8268 H   0  0  0  0  0  0  0  0  0  0  0  0
    8.5897    1.5061   23.1347 H   0  0  0  0  0  0  0  0  0  0  0  0
    8.3247   -1.1038   22.8559 N   0  0  0  0  0  0  0  0  0  0  0  0
    9.5903   -3.5026   22.9599 H   0  0  0  0  0  0  0  0  0  0  0  0
    9.0196   -3.8884   21.3132 H   0  0  0  0  0  0  0  0  0  0  0  0
    6.8335   -4.5603   22.0787 H   0  0  0  0  0  0  0  0  0  0  0  0
    7.4259   -6.6483   23.2360 H   0  0  0  0  0  0  0  0  0  0  0  0
    8.9997   -5.9994   23.7215 H   0  0  0  0  0  0  0  0  0  0  0  0
    8.6440   -6.2794   22.0093 H   0  0  0  0  0  0  0  0  0  0  0  0
  1  2  1  0
  2  3  1  0
  3  4  1  0
  3  5  1  0
  3  6  1  0
  2  7  1  0
  7  8  1  0
  8  9  2  0
  9 10  1  0
 10 11  1  0
 11 12  2  0
 12 13  1  0
 13 14  2  0
 14 15  1  0
 15 16  2  0
 16 17  1  0
 14 18  1  0
 13 19  1  0
 12 20  1  0
 10 21  1  0
 21 22  1  0
 22 23  1  0
 23 24  2  0
 24 25  1  0
 25 26  1  0
 26 27  1  0
 27 28  1  0
 27 29  1  0
 27 30  1  0
 26 31  2  0
 24 32  1  0
 22 33  1  0
 22 34  1  0
 21 35  2  0
  7 36  1  0
  7 37  1  0
  2 38  1  0
  1 39  1  0
  1 40  1  0
  1 41  1  0
 35  8  1  0
 16 11  1  0
 31 23  1  0
M  END
>  <cnnaffinity>  (1) 
-5.38816

>  <filename>  (1) 
CC(C)Cc1nc(Cc2csc(C(F)(F)F)n2)n(-c2cccnc2)n1

$$$$
