
     RDKit          3D

 50 53  0  0  0  0  0  0  0  0999 V2000
    7.0040    0.4219   25.1118 C   0  0  0  0  0  0  0  0  0  0  0  0
    7.4788    1.8206   24.7012 C   0  0  0  0  0  0  0  0  0  0  0  0
    7.4968    1.9917   23.1611 C   0  0  0  0  0  0  0  0  0  0  0  0
    8.4509    1.0302   22.5363 C   0  0  0  0  0  0  0  0  0  0  0  0
    9.7663    1.0275   22.7043 N   0  0  0  0  0  0  0  0  0  0  0  0
   10.1610   -0.1053   22.0726 C   0  0  0  0  0  0  0  0  0  0  0  0
   11.5455   -0.5537   21.8682 C   0  0  0  0  0  0  0  0  0  0  0  0
   11.7092   -1.6933   21.0650 C   0  0  0  0  0  0  0  0  0  0  0  0
   12.9404   -1.9924   20.5176 C   0  0  0  0  0  0  0  0  0  0  0  0
   14.0631   -1.2360   20.8401 C   0  0  0  0  0  0  0  0  0  0  0  0
   15.1329   -1.3335   19.9677 N   0  0  0  0  0  0  0  0  0  0  0  0
   16.0471   -1.2797   20.3817 H   0  0  0  0  0  0  0  0  0  0  0  0
   15.0786   -2.1751   19.4184 H   0  0  0  0  0  0  0  0  0  0  0  0
   13.9621   -0.2623   21.8536 C   0  0  0  0  0  0  0  0  0  0  0  0
   12.7011    0.1203   22.3256 C   0  0  0  0  0  0  0  0  0  0  0  0
   12.6159    0.9842   22.9831 H   0  0  0  0  0  0  0  0  0  0  0  0
   14.8553    0.2701   22.1567 H   0  0  0  0  0  0  0  0  0  0  0  0
   13.0333   -2.7674   19.7650 H   0  0  0  0  0  0  0  0  0  0  0  0
   10.8290   -2.2770   20.8042 H   0  0  0  0  0  0  0  0  0  0  0  0
    9.1544   -0.7914   21.5378 N   0  0  0  0  0  0  0  0  0  0  0  0
    8.0663   -0.0752   21.8596 N   0  0  0  0  0  0  0  0  0  0  0  0
    6.7508   -0.5019   21.3973 C   0  0  0  0  0  0  0  0  0  0  0  0
    6.3196    0.1865   20.1181 C   0  0  0  0  0  0  0  0  0  0  0  0
    5.1036    0.8601   19.9802 C   0  0  0  0  0  0  0  0  0  0  0  0
    4.8157    1.4876   18.7641 C   0  0  0  0  0  0  0  0  0  0  0  0
    5.7530    1.4125   17.7312 C   0  0  0  0  0  0  0  0  0  0  0  0
    6.9139    0.7477   17.8326 N   0  0  0  0  0  0  0  0  0  0  0  0
    7.1787    0.1599   19.0034 C   0  0  0  0  0  0  0  0  0  0  0  0
    8.1229   -0.3788   19.0691 H   0  0  0  0  0  0  0  0  0  0  0  0
    5.5680    1.9101   16.7803 H   0  0  0  0  0  0  0  0  0  0  0  0
    3.8917    2.0357   18.6117 H   0  0  0  0  0  0  0  0  0  0  0  0
    4.3908    0.8946   20.8062 H   0  0  0  0  0  0  0  0  0  0  0  0
    6.0257   -0.3349   22.2019 H   0  0  0  0  0  0  0  0  0  0  0  0
    6.8351   -1.5848   21.2550 H   0  0  0  0  0  0  0  0  0  0  0  0
    6.4931    1.8504   22.7444 H   0  0  0  0  0  0  0  0  0  0  0  0
    7.7941    3.0130   22.9096 H   0  0  0  0  0  0  0  0  0  0  0  0
    6.6986    2.9229   25.3860 C   0  0  0  0  0  0  0  0  0  0  0  0
    5.3141    3.0803   25.2373 C   0  0  0  0  0  0  0  0  0  0  0  0
    4.6793    4.1487   25.8755 C   0  0  0  0  0  0  0  0  0  0  0  0
    5.4460    5.0234   26.6511 C   0  0  0  0  0  0  0  0  0  0  0  0
    6.7655    4.8839   26.8251 N   0  0  0  0  0  0  0  0  0  0  0  0
    7.3575    3.8557   26.2051 C   0  0  0  0  0  0  0  0  0  0  0  0
    8.4294    3.7520   26.3748 H   0  0  0  0  0  0  0  0  0  0  0  0
    4.9841    5.8736   27.1525 H   0  0  0  0  0  0  0  0  0  0  0  0
    3.6118    4.3090   25.7814 H   0  0  0  0  0  0  0  0  0  0  0  0
    4.7391    2.3774   24.6319 H   0  0  0  0  0  0  0  0  0  0  0  0
    8.5251    1.9201   25.0232 H   0  0  0  0  0  0  0  0  0  0  0  0
    5.9691    0.2301   24.8007 H   0  0  0  0  0  0  0  0  0  0  0  0
    7.6375   -0.3433   24.6500 H   0  0  0  0  0  0  0  0  0  0  0  0
    7.0551    0.3005   26.1976 H   0  0  0  0  0  0  0  0  0  0  0  0
  1  2  1  0
  2  3  1  0
  3  4  1  0
  4  5  2  0
  5  6  1  0
  6  7  1  0
  7  8  2  0
  8  9  1  0
  9 10  2  0
 10 11  1  0
 11 12  1  0
 11 13  1  0
 10 14  1  0
 14 15  2  0
 15 16  1  0
 14 17  1  0
  9 18  1  0
  8 19  1  0
  6 20  2  0
 20 21  1  0
 21 22  1  0
 22 23  1  0
 23 24  2  0
 24 25  1  0
 25 26  2  0
 26 27  1  0
 27 28  2  0
 28 29  1  0
 26 30  1  0
 25 31  1  0
 24 32  1  0
 22 33  1  0
 22 34  1  0
  3 35  1  0
  3 36  1  0
  2 37  1  0
 37 38  2  0
 38 39  1  0
 39 40  2  0
 40 41  1  0
 41 42  2  0
 42 43  1  0
 40 44  1  0
 39 45  1  0
 38 46  1  0
  2 47  1  0
  1 48  1  0
  1 49  1  0
  1 50  1  0
 21  4  1  0
 28 23  1  0
 42 37  1  0
 15  7  1  0
M  END
>  <cnnaffinity>  (1) 
-6.68226

>  <filename>  (1) 
CC(Cc1nc(-c2ccc(N)cc2)nn1Cc1cccnc1)c1cccnc1

$$$$
