
     RDKit          3D

 36 37  0  0  0  0  0  0  0  0999 V2000
    5.1272    1.7447   16.9523 H   0  0  0  0  0  0  0  0  0  0  0  0
    5.5159    1.2602   17.8455 C   0  0  0  0  0  0  0  0  0  0  0  0
    6.6571    0.5737   17.6967 N   0  0  0  0  0  0  0  0  0  0  0  0
    7.1529   -0.0453   18.7657 C   0  0  0  0  0  0  0  0  0  0  0  0
    8.0588   -0.6299   18.6052 H   0  0  0  0  0  0  0  0  0  0  0  0
    6.5542    0.0412   20.0168 C   0  0  0  0  0  0  0  0  0  0  0  0
    7.3804   -0.8540   21.2863 S   0  0  0  0  0  0  0  0  0  0  0  0
    6.4338   -1.0198   22.3865 O   0  0  0  0  0  0  0  0  0  0  0  0
    7.9289   -2.0490   20.6474 O   0  0  0  0  0  0  0  0  0  0  0  0
    8.8766    0.1926   21.8934 C   0  0  0  0  0  0  0  0  0  0  0  0
    8.4243    1.6309   22.2490 C   0  0  0  0  0  0  0  0  0  0  0  0
    7.1069    1.7901   22.7294 C   0  0  0  0  0  0  0  0  0  0  0  0
    6.5700    0.9278   23.1015 H   0  0  0  0  0  0  0  0  0  0  0  0
    6.4604    3.0242   22.6972 C   0  0  0  0  0  0  0  0  0  0  0  0
    5.3862    3.0893   22.8626 H   0  0  0  0  0  0  0  0  0  0  0  0
    7.2066    4.1705   22.4310 C   0  0  0  0  0  0  0  0  0  0  0  0
    6.7349    5.1468   22.4076 H   0  0  0  0  0  0  0  0  0  0  0  0
    8.5778    4.0554   22.2349 C   0  0  0  0  0  0  0  0  0  0  0  0
    9.1693    4.9594   22.1441 H   0  0  0  0  0  0  0  0  0  0  0  0
    9.2213    2.8032   22.1744 C   0  0  0  0  0  0  0  0  0  0  0  0
   10.7396    2.8412   22.0421 C   0  0  0  0  0  0  0  0  0  0  0  0
   11.2750    4.0112   22.4515 F   0  0  0  0  0  0  0  0  0  0  0  0
   11.3682    1.8960   22.7755 F   0  0  0  0  0  0  0  0  0  0  0  0
   11.1463    2.6708   20.7653 F   0  0  0  0  0  0  0  0  0  0  0  0
    9.9234    0.0965   20.7715 C   0  0  0  0  0  0  0  0  0  0  0  0
   10.8989    0.4466   21.1016 H   0  0  0  0  0  0  0  0  0  0  0  0
   10.0504   -0.9455   20.4578 H   0  0  0  0  0  0  0  0  0  0  0  0
    9.6081    0.6927   19.9074 H   0  0  0  0  0  0  0  0  0  0  0  0
    9.3820   -0.4910   23.1790 C   0  0  0  0  0  0  0  0  0  0  0  0
    9.6649   -1.5361   23.0024 H   0  0  0  0  0  0  0  0  0  0  0  0
    8.6116   -0.4571   23.9607 H   0  0  0  0  0  0  0  0  0  0  0  0
   10.2629    0.0485   23.5391 H   0  0  0  0  0  0  0  0  0  0  0  0
    5.3443    0.7218   20.1857 C   0  0  0  0  0  0  0  0  0  0  0  0
    4.8208    0.7810   21.1453 H   0  0  0  0  0  0  0  0  0  0  0  0
    4.8216    1.3432   19.0552 C   0  0  0  0  0  0  0  0  0  0  0  0
    3.8882    1.8937   19.0900 H   0  0  0  0  0  0  0  0  0  0  0  0
  1  2  1  0
  2  3  2  0
  3  4  1  0
  4  5  1  0
  4  6  2  0
  6  7  1  0
  7  8  2  0
  7  9  2  0
  7 10  1  0
 10 11  1  0
 11 12  2  0
 12 13  1  0
 12 14  1  0
 14 15  1  0
 14 16  2  0
 16 17  1  0
 16 18  1  0
 18 19  1  0
 18 20  2  0
 20 21  1  0
 21 22  1  0
 21 23  1  0
 21 24  1  0
 10 25  1  0
 25 26  1  0
 25 27  1  0
 25 28  1  0
 10 29  1  0
 29 30  1  0
 29 31  1  0
 29 32  1  0
  6 33  1  0
 33 34  1  0
 33 35  2  0
 35 36  1  0
 35  2  1  0
 20 11  1  0
M  END
>  <cnnaffinity>  (1) 
-4.95428

>  <filename>  (1) 
CC(C)(c1ccccc1C(F)(F)F)S(=O)(=O)c1cccnc1

$$$$
