
     RDKit          3D

 41 44  0  0  0  0  0  0  0  0999 V2000
   10.9611    0.4330   21.4032 C   0  0  0  0  0  0  0  0  0  0  0  0
    9.5002    0.6777   21.0199 C   0  0  0  0  0  0  0  0  0  0  0  0
    8.9557    2.0431   21.5578 C   0  0  0  0  0  0  0  0  0  0  0  0
    8.7577    2.0687   23.0438 C   0  0  0  0  0  0  0  0  0  0  0  0
    7.6966    1.6614   23.8164 C   0  0  0  0  0  0  0  0  0  0  0  0
    7.9995    1.7094   25.1531 N   0  0  0  0  0  0  0  0  0  0  0  0
    9.2338    2.1381   25.2070 C   0  0  0  0  0  0  0  0  0  0  0  0
    9.7403    2.3789   23.9643 N   0  0  0  0  0  0  0  0  0  0  0  0
   10.6894    2.6541   23.7444 H   0  0  0  0  0  0  0  0  0  0  0  0
    9.8021    2.3086   26.1124 H   0  0  0  0  0  0  0  0  0  0  0  0
    6.7418    1.2948   23.4622 H   0  0  0  0  0  0  0  0  0  0  0  0
    9.6416    2.8408   21.2445 H   0  0  0  0  0  0  0  0  0  0  0  0
    7.9980    2.2610   21.0733 H   0  0  0  0  0  0  0  0  0  0  0  0
    8.6301   -0.4824   21.4392 C   0  0  0  0  0  0  0  0  0  0  0  0
    8.8413   -1.3427   22.4246 N   0  0  0  0  0  0  0  0  0  0  0  0
    7.6523   -1.9751   22.5476 C   0  0  0  0  0  0  0  0  0  0  0  0
    7.3857   -2.9315   23.6669 C   0  0  0  0  0  0  0  0  0  0  0  0
    6.3347   -2.4181   24.7059 C   0  0  0  0  0  0  0  0  0  0  0  0
    5.2132   -3.8127   24.3409 S   0  0  0  0  0  0  0  0  0  0  0  0
    6.6179   -4.2135   23.2464 C   0  0  0  0  0  0  0  0  0  0  0  0
    6.3377   -4.2511   22.1875 H   0  0  0  0  0  0  0  0  0  0  0  0
    7.1170   -5.1500   23.5120 H   0  0  0  0  0  0  0  0  0  0  0  0
    5.8985   -1.4358   24.4840 H   0  0  0  0  0  0  0  0  0  0  0  0
    6.6832   -2.4062   25.7442 H   0  0  0  0  0  0  0  0  0  0  0  0
    8.3556   -3.1368   24.1286 H   0  0  0  0  0  0  0  0  0  0  0  0
    6.7345   -1.6136   21.6735 N   0  0  0  0  0  0  0  0  0  0  0  0
    7.3680   -0.6627   20.9395 N   0  0  0  0  0  0  0  0  0  0  0  0
    6.6655    0.0074   19.9016 C   0  0  0  0  0  0  0  0  0  0  0  0
    5.4449    0.6386   20.1607 C   0  0  0  0  0  0  0  0  0  0  0  0
    4.8118    1.3075   19.1092 C   0  0  0  0  0  0  0  0  0  0  0  0
    5.3983    1.2939   17.8389 C   0  0  0  0  0  0  0  0  0  0  0  0
    6.5546    0.6660   17.5783 N   0  0  0  0  0  0  0  0  0  0  0  0
    7.1693    0.0457   18.5907 C   0  0  0  0  0  0  0  0  0  0  0  0
    8.1147   -0.4413   18.3577 H   0  0  0  0  0  0  0  0  0  0  0  0
    4.9272    1.7951   16.9963 H   0  0  0  0  0  0  0  0  0  0  0  0
    3.8797    1.8390   19.2598 H   0  0  0  0  0  0  0  0  0  0  0  0
    5.0146    0.6029   21.1625 H   0  0  0  0  0  0  0  0  0  0  0  0
    9.4284    0.7174   19.9285 H   0  0  0  0  0  0  0  0  0  0  0  0
   11.0635    0.3069   22.4851 H   0  0  0  0  0  0  0  0  0  0  0  0
   11.5953    1.2676   21.0825 H   0  0  0  0  0  0  0  0  0  0  0  0
   11.3245   -0.4860   20.9314 H   0  0  0  0  0  0  0  0  0  0  0  0
  1  2  1  0
  2  3  1  0
  3  4  1  0
  4  5  2  0
  5  6  1  0
  6  7  2  0
  7  8  1  0
  8  9  1  0
  7 10  1  0
  5 11  1  0
  3 12  1  0
  3 13  1  0
  2 14  1  0
 14 15  2  0
 15 16  1  0
 16 17  1  0
 17 18  1  0
 18 19  1  0
 19 20  1  0
 20 21  1  0
 20 22  1  0
 18 23  1  0
 18 24  1  0
 17 25  1  0
 16 26  2  0
 26 27  1  0
 27 28  1  0
 28 29  2  0
 29 30  1  0
 30 31  2  0
 31 32  1  0
 32 33  2  0
 33 34  1  0
 31 35  1  0
 30 36  1  0
 29 37  1  0
  2 38  1  0
  1 39  1  0
  1 40  1  0
  1 41  1  0
  8  4  1  0
 27 14  1  0
 33 28  1  0
 20 17  1  0
M  END
>  <cnnaffinity>  (1) 
-6.00684

>  <filename>  (1) 
CC(Cc1cnc[nH]1)c1nc(C2CSC2)nn1-c1cccnc1

$$$$
