
     RDKit          3D

 50 53  0  0  0  0  0  0  0  0999 V2000
   12.6857   -2.0993   22.3257 C   0  0  0  0  0  0  0  0  0  0  0  0
   12.1776   -1.3445   21.1087 C   0  0  0  0  0  0  0  0  0  0  0  0
   13.2379   -1.5301   20.0031 C   0  0  0  0  0  0  0  0  0  0  0  0
   13.0625   -0.9722   19.0804 H   0  0  0  0  0  0  0  0  0  0  0  0
   14.2360   -1.2539   20.3644 H   0  0  0  0  0  0  0  0  0  0  0  0
   13.2483   -2.5908   19.7533 H   0  0  0  0  0  0  0  0  0  0  0  0
   11.8386    0.0678   21.5532 C   0  0  0  0  0  0  0  0  0  0  0  0
   12.6264    0.8204   22.2963 N   0  0  0  0  0  0  0  0  0  0  0  0
   11.9157    1.9555   22.5920 C   0  0  0  0  0  0  0  0  0  0  0  0
   10.6782    1.8882   22.0162 C   0  0  0  0  0  0  0  0  0  0  0  0
   10.6416    0.6911   21.3289 N   0  0  0  0  0  0  0  0  0  0  0  0
    9.5022    0.2265   20.5653 C   0  0  0  0  0  0  0  0  0  0  0  0
    8.5403   -0.6436   21.3076 C   0  0  0  0  0  0  0  0  0  0  0  0
    8.7805   -1.4435   22.3273 N   0  0  0  0  0  0  0  0  0  0  0  0
    7.5686   -2.0156   22.5588 C   0  0  0  0  0  0  0  0  0  0  0  0
    7.3363   -2.9734   23.6906 C   0  0  0  0  0  0  0  0  0  0  0  0
    6.5346   -2.3116   24.8489 C   0  0  0  0  0  0  0  0  0  0  0  0
    6.0201   -3.3091   25.8572 C   0  0  0  0  0  0  0  0  0  0  0  0
    6.0354   -4.6285   25.6693 C   0  0  0  0  0  0  0  0  0  0  0  0
    6.5048   -5.2799   24.3902 C   0  0  0  0  0  0  0  0  0  0  0  0
    6.6410   -4.2775   23.2309 C   0  0  0  0  0  0  0  0  0  0  0  0
    7.1956   -4.7392   22.4059 H   0  0  0  0  0  0  0  0  0  0  0  0
    5.6514   -4.0093   22.8368 H   0  0  0  0  0  0  0  0  0  0  0  0
    7.4714   -5.7685   24.5842 H   0  0  0  0  0  0  0  0  0  0  0  0
    5.8160   -6.0877   24.1084 H   0  0  0  0  0  0  0  0  0  0  0  0
    5.7003   -5.2912   26.4675 H   0  0  0  0  0  0  0  0  0  0  0  0
    5.6013   -2.8966   26.7752 H   0  0  0  0  0  0  0  0  0  0  0  0
    7.1557   -1.5626   25.3586 H   0  0  0  0  0  0  0  0  0  0  0  0
    5.6803   -1.7580   24.4386 H   0  0  0  0  0  0  0  0  0  0  0  0
    8.3382   -3.2152   24.0646 H   0  0  0  0  0  0  0  0  0  0  0  0
    6.6108   -1.6324   21.7269 N   0  0  0  0  0  0  0  0  0  0  0  0
    7.2458   -0.7727   20.8957 N   0  0  0  0  0  0  0  0  0  0  0  0
    6.5449   -0.1031   19.8500 C   0  0  0  0  0  0  0  0  0  0  0  0
    5.3611    0.5934   20.1075 C   0  0  0  0  0  0  0  0  0  0  0  0
    4.7897    1.3232   19.0612 C   0  0  0  0  0  0  0  0  0  0  0  0
    5.3952    1.3066   17.7975 C   0  0  0  0  0  0  0  0  0  0  0  0
    6.4975    0.5924   17.5280 N   0  0  0  0  0  0  0  0  0  0  0  0
    7.0470   -0.0962   18.5340 C   0  0  0  0  0  0  0  0  0  0  0  0
    7.9416   -0.6652   18.2938 H   0  0  0  0  0  0  0  0  0  0  0  0
    4.9773    1.8778   16.9719 H   0  0  0  0  0  0  0  0  0  0  0  0
    3.8919    1.9099   19.2134 H   0  0  0  0  0  0  0  0  0  0  0  0
    4.9160    0.5607   21.1037 H   0  0  0  0  0  0  0  0  0  0  0  0
    8.9813    1.1185   20.2167 H   0  0  0  0  0  0  0  0  0  0  0  0
    9.8164   -0.3232   19.6700 H   0  0  0  0  0  0  0  0  0  0  0  0
    9.8136    2.5410   22.0390 H   0  0  0  0  0  0  0  0  0  0  0  0
   12.3265    2.7402   23.2212 H   0  0  0  0  0  0  0  0  0  0  0  0
   11.2419   -1.8160   20.7965 H   0  0  0  0  0  0  0  0  0  0  0  0
   11.8554   -2.5034   22.9126 H   0  0  0  0  0  0  0  0  0  0  0  0
   13.3740   -2.9033   22.0652 H   0  0  0  0  0  0  0  0  0  0  0  0
   13.2730   -1.3877   22.9120 H   0  0  0  0  0  0  0  0  0  0  0  0
  1  2  1  0
  2  3  1  0
  3  4  1  0
  3  5  1  0
  3  6  1  0
  2  7  1  0
  7  8  2  0
  8  9  1  0
  9 10  2  0
 10 11  1  0
 11 12  1  0
 12 13  1  0
 13 14  2  0
 14 15  1  0
 15 16  1  0
 16 17  1  0
 17 18  1  0
 18 19  2  0
 19 20  1  0
 20 21  1  0
 21 22  1  0
 21 23  1  0
 20 24  1  0
 20 25  1  0
 19 26  1  0
 18 27  1  0
 17 28  1  0
 17 29  1  0
 16 30  1  0
 15 31  2  0
 31 32  1  0
 32 33  1  0
 33 34  2  0
 34 35  1  0
 35 36  2  0
 36 37  1  0
 37 38  2  0
 38 39  1  0
 36 40  1  0
 35 41  1  0
 34 42  1  0
 12 43  1  0
 12 44  1  0
 10 45  1  0
  9 46  1  0
  2 47  1  0
  1 48  1  0
  1 49  1  0
  1 50  1  0
 11  7  1  0
 32 13  1  0
 38 33  1  0
 21 16  1  0
M  END
>  <cnnaffinity>  (1) 
-6.82026

>  <filename>  (1) 
CC(C)c1nccn1Cc1nc(C2CC=CCC2)nn1-c1cccnc1

$$$$
