
     RDKit          3D

 42 44  0  0  0  0  0  0  0  0999 V2000
    7.4177   -2.2758   25.0233 C   0  0  0  0  0  0  0  0  0  0  0  0
    7.4405   -2.9830   23.6477 C   0  0  0  0  0  0  0  0  0  0  0  0
    8.4999   -4.0968   23.6294 C   0  0  0  0  0  0  0  0  0  0  0  0
    8.5264   -4.6095   22.6627 H   0  0  0  0  0  0  0  0  0  0  0  0
    8.2969   -4.8412   24.4078 H   0  0  0  0  0  0  0  0  0  0  0  0
    9.4942   -3.6718   23.8092 H   0  0  0  0  0  0  0  0  0  0  0  0
    7.6697   -1.9999   22.5273 C   0  0  0  0  0  0  0  0  0  0  0  0
    6.7136   -1.5798   21.7282 N   0  0  0  0  0  0  0  0  0  0  0  0
    7.3415   -0.6580   20.9507 N   0  0  0  0  0  0  0  0  0  0  0  0
    6.6572    0.0046   19.8930 C   0  0  0  0  0  0  0  0  0  0  0  0
    5.4395    0.6455   20.1486 C   0  0  0  0  0  0  0  0  0  0  0  0
    4.8099    1.3165   19.0987 C   0  0  0  0  0  0  0  0  0  0  0  0
    5.4083    1.3035   17.8331 C   0  0  0  0  0  0  0  0  0  0  0  0
    6.5600    0.6657   17.5706 N   0  0  0  0  0  0  0  0  0  0  0  0
    7.1679    0.0341   18.5816 C   0  0  0  0  0  0  0  0  0  0  0  0
    8.1022   -0.4770   18.3425 H   0  0  0  0  0  0  0  0  0  0  0  0
    4.9414    1.8191   16.9991 H   0  0  0  0  0  0  0  0  0  0  0  0
    3.8733    1.8446   19.2497 H   0  0  0  0  0  0  0  0  0  0  0  0
    5.0176    0.5994   21.1520 H   0  0  0  0  0  0  0  0  0  0  0  0
    8.6297   -0.5325   21.3779 C   0  0  0  0  0  0  0  0  0  0  0  0
    9.5035    0.5883   20.9263 C   0  0  0  0  0  0  0  0  0  0  0  0
    8.9740    1.9781   21.3340 C   0  0  0  0  0  0  0  0  0  0  0  0
    8.6284    2.1719   23.1267 S   0  0  0  0  0  0  0  0  0  0  0  0
   10.3138    2.0620   23.7165 C   0  0  0  0  0  0  0  0  0  0  0  0
   11.1213    3.1992   23.5971 C   0  0  0  0  0  0  0  0  0  0  0  0
   12.5018    3.0417   23.7050 C   0  0  0  0  0  0  0  0  0  0  0  0
   13.0007    1.7650   23.9929 C   0  0  0  0  0  0  0  0  0  0  0  0
   12.0941    0.7360   24.2420 C   0  0  0  0  0  0  0  0  0  0  0  0
   10.7666    0.8745   24.1245 N   0  0  0  0  0  0  0  0  0  0  0  0
   12.4256   -0.2524   24.5451 H   0  0  0  0  0  0  0  0  0  0  0  0
   14.0626    1.5601   24.0117 H   0  0  0  0  0  0  0  0  0  0  0  0
   13.1623    3.9007   23.5992 H   0  0  0  0  0  0  0  0  0  0  0  0
   10.6417    4.1434   23.3591 H   0  0  0  0  0  0  0  0  0  0  0  0
    8.0420    2.2233   20.8070 H   0  0  0  0  0  0  0  0  0  0  0  0
    9.7135    2.7346   21.0502 H   0  0  0  0  0  0  0  0  0  0  0  0
    9.5802    0.5478   19.8368 H   0  0  0  0  0  0  0  0  0  0  0  0
   10.5050    0.4184   21.3258 H   0  0  0  0  0  0  0  0  0  0  0  0
    8.8853   -1.4196   22.3139 N   0  0  0  0  0  0  0  0  0  0  0  0
    6.4492   -3.4093   23.4598 H   0  0  0  0  0  0  0  0  0  0  0  0
    8.3850   -1.7987   25.2282 H   0  0  0  0  0  0  0  0  0  0  0  0
    7.2212   -2.9998   25.8221 H   0  0  0  0  0  0  0  0  0  0  0  0
    6.6442   -1.5019   25.0759 H   0  0  0  0  0  0  0  0  0  0  0  0
  1  2  1  0
  2  3  1  0
  3  4  1  0
  3  5  1  0
  3  6  1  0
  2  7  1  0
  7  8  2  0
  8  9  1  0
  9 10  1  0
 10 11  2  0
 11 12  1  0
 12 13  2  0
 13 14  1  0
 14 15  2  0
 15 16  1  0
 13 17  1  0
 12 18  1  0
 11 19  1  0
  9 20  1  0
 20 21  1  0
 21 22  1  0
 22 23  1  0
 23 24  1  0
 24 25  2  0
 25 26  1  0
 26 27  2  0
 27 28  1  0
 28 29  2  0
 28 30  1  0
 27 31  1  0
 26 32  1  0
 25 33  1  0
 22 34  1  0
 22 35  1  0
 21 36  1  0
 21 37  1  0
 20 38  2  0
  2 39  1  0
  1 40  1  0
  1 41  1  0
  1 42  1  0
 38  7  1  0
 15 10  1  0
 29 24  1  0
M  END
>  <cnnaffinity>  (1) 
-6.03404

>  <filename>  (1) 
CC(C)c1nc(CCSc2ccccn2)n(-c2cccnc2)n1

$$$$
