
     RDKit          3D

 46 49  0  0  0  0  0  0  0  0999 V2000
   10.6325   -1.3950   21.7989 C   0  0  0  0  0  0  0  0  0  0  0  0
   11.0159    0.0530   21.5163 C   0  0  0  0  0  0  0  0  0  0  0  0
    9.8675    0.9749   21.0339 C   0  0  0  0  0  0  0  0  0  0  0  0
    8.7422    1.0921   22.0034 C   0  0  0  0  0  0  0  0  0  0  0  0
    8.6914    1.9292   23.0193 N   0  0  0  0  0  0  0  0  0  0  0  0
    7.6153    1.4976   23.7362 C   0  0  0  0  0  0  0  0  0  0  0  0
    7.2246    2.1176   25.0367 C   0  0  0  0  0  0  0  0  0  0  0  0
    6.0120    1.7810   25.6800 C   0  0  0  0  0  0  0  0  0  0  0  0
    5.6756    2.4144   26.8733 C   0  0  0  0  0  0  0  0  0  0  0  0
    4.5091    2.1098   27.4668 F   0  0  0  0  0  0  0  0  0  0  0  0
    6.5066    3.3601   27.4716 C   0  0  0  0  0  0  0  0  0  0  0  0
    7.7184    3.6748   26.8494 C   0  0  0  0  0  0  0  0  0  0  0  0
    8.0819    3.0617   25.6476 C   0  0  0  0  0  0  0  0  0  0  0  0
    9.0318    3.3160   25.1778 H   0  0  0  0  0  0  0  0  0  0  0  0
    8.3798    4.4114   27.3014 H   0  0  0  0  0  0  0  0  0  0  0  0
    6.1931    3.8316   28.3966 H   0  0  0  0  0  0  0  0  0  0  0  0
    5.3304    1.0332   25.2791 H   0  0  0  0  0  0  0  0  0  0  0  0
    6.9884    0.4675   23.1826 N   0  0  0  0  0  0  0  0  0  0  0  0
    7.7264    0.2063   22.0784 N   0  0  0  0  0  0  0  0  0  0  0  0
    7.2647   -0.7265   21.0504 C   0  0  0  0  0  0  0  0  0  0  0  0
    6.6008   -0.0278   19.8859 C   0  0  0  0  0  0  0  0  0  0  0  0
    5.4069    0.6675   20.1066 C   0  0  0  0  0  0  0  0  0  0  0  0
    4.8112    1.3316   19.0364 C   0  0  0  0  0  0  0  0  0  0  0  0
    5.4411    1.2822   17.7896 C   0  0  0  0  0  0  0  0  0  0  0  0
    6.5826    0.6165   17.5569 N   0  0  0  0  0  0  0  0  0  0  0  0
    7.1388   -0.0237   18.5929 C   0  0  0  0  0  0  0  0  0  0  0  0
    8.0595   -0.5766   18.3800 H   0  0  0  0  0  0  0  0  0  0  0  0
    5.0075    1.7944   16.9347 H   0  0  0  0  0  0  0  0  0  0  0  0
    3.8850    1.8815   19.1592 H   0  0  0  0  0  0  0  0  0  0  0  0
    4.9720    0.6807   21.1082 H   0  0  0  0  0  0  0  0  0  0  0  0
    6.5600   -1.3922   21.5559 H   0  0  0  0  0  0  0  0  0  0  0  0
    8.1136   -1.3321   20.7106 H   0  0  0  0  0  0  0  0  0  0  0  0
    9.5057    0.6227   20.0647 H   0  0  0  0  0  0  0  0  0  0  0  0
   10.2768    1.9757   20.8780 H   0  0  0  0  0  0  0  0  0  0  0  0
   11.7454    0.6615   22.6371 N   0  0  0  0  0  0  0  0  0  0  0  0
   12.7199    1.6266   22.4682 C   0  0  0  0  0  0  0  0  0  0  0  0
   13.1969    1.9123   23.7097 C   0  0  0  0  0  0  0  0  0  0  0  0
   12.5273    1.1769   24.6568 N   0  0  0  0  0  0  0  0  0  0  0  0
   11.6526    0.4567   23.9901 C   0  0  0  0  0  0  0  0  0  0  0  0
   10.9013   -0.1859   24.4456 H   0  0  0  0  0  0  0  0  0  0  0  0
   13.9590    2.6307   23.9652 H   0  0  0  0  0  0  0  0  0  0  0  0
   12.9018    2.0879   21.5107 H   0  0  0  0  0  0  0  0  0  0  0  0
   11.7357    0.0087   20.6988 H   0  0  0  0  0  0  0  0  0  0  0  0
   11.5296   -1.9525   22.0860 H   0  0  0  0  0  0  0  0  0  0  0  0
    9.8994   -1.4952   22.6061 H   0  0  0  0  0  0  0  0  0  0  0  0
   10.2188   -1.8667   20.8993 H   0  0  0  0  0  0  0  0  0  0  0  0
  1  2  1  0
  2  3  1  0
  3  4  1  0
  4  5  2  0
  5  6  1  0
  6  7  1  0
  7  8  2  0
  8  9  1  0
  9 10  1  0
  9 11  2  0
 11 12  1  0
 12 13  2  0
 13 14  1  0
 12 15  1  0
 11 16  1  0
  8 17  1  0
  6 18  2  0
 18 19  1  0
 19 20  1  0
 20 21  1  0
 21 22  2  0
 22 23  1  0
 23 24  2  0
 24 25  1  0
 25 26  2  0
 26 27  1  0
 24 28  1  0
 23 29  1  0
 22 30  1  0
 20 31  1  0
 20 32  1  0
  3 33  1  0
  3 34  1  0
  2 35  1  0
 35 36  1  0
 36 37  2  0
 37 38  1  0
 38 39  2  0
 39 40  1  0
 37 41  1  0
 36 42  1  0
  2 43  1  0
  1 44  1  0
  1 45  1  0
  1 46  1  0
 19  4  1  0
 26 21  1  0
 39 35  1  0
 13  7  1  0
M  END
>  <cnnaffinity>  (1) 
-6.55106

>  <filename>  (1) 
CC(Cc1nc(-c2cccc(F)c2)nn1Cc1cccnc1)n1ccnc1

$$$$
