
     RDKit          3D

 43 45  0  0  0  0  0  0  0  0999 V2000
    6.7742    0.0492   25.1671 C   0  0  0  0  0  0  0  0  0  0  0  0
    7.3778   -1.2954   25.5530 C   0  0  0  0  0  0  0  0  0  0  0  0
    7.2262   -1.6049   27.0331 C   0  0  0  0  0  0  0  0  0  0  0  0
    7.7377   -0.8555   27.6460 H   0  0  0  0  0  0  0  0  0  0  0  0
    7.6471   -2.5902   27.2520 H   0  0  0  0  0  0  0  0  0  0  0  0
    6.1646   -1.6216   27.2982 H   0  0  0  0  0  0  0  0  0  0  0  0
    6.6964   -2.3440   24.8591 O   0  0  0  0  0  0  0  0  0  0  0  0
    7.3469   -2.9140   23.7304 C   0  0  0  0  0  0  0  0  0  0  0  0
    7.6233   -1.9629   22.5940 C   0  0  0  0  0  0  0  0  0  0  0  0
    6.7302   -1.6185   21.6905 N   0  0  0  0  0  0  0  0  0  0  0  0
    7.3794   -0.6700   20.9597 N   0  0  0  0  0  0  0  0  0  0  0  0
    6.6890   -0.0230   19.8844 C   0  0  0  0  0  0  0  0  0  0  0  0
    5.4623    0.6046   20.1326 C   0  0  0  0  0  0  0  0  0  0  0  0
    4.8448    1.2934   19.0865 C   0  0  0  0  0  0  0  0  0  0  0  0
    5.4477    1.2929   17.8222 C   0  0  0  0  0  0  0  0  0  0  0  0
    6.5975    0.6512   17.5627 N   0  0  0  0  0  0  0  0  0  0  0  0
    7.1969    0.0061   18.5728 C   0  0  0  0  0  0  0  0  0  0  0  0
    8.1110   -0.5302   18.3195 H   0  0  0  0  0  0  0  0  0  0  0  0
    4.9779    1.8028   16.9830 H   0  0  0  0  0  0  0  0  0  0  0  0
    3.9088    1.8193   19.2417 H   0  0  0  0  0  0  0  0  0  0  0  0
    5.0208    0.5415   21.1291 H   0  0  0  0  0  0  0  0  0  0  0  0
    8.6177   -0.4667   21.5072 C   0  0  0  0  0  0  0  0  0  0  0  0
    9.5113    0.7078   21.2701 C   0  0  0  0  0  0  0  0  0  0  0  0
    8.9885    1.9139   22.0381 C   0  0  0  0  0  0  0  0  0  0  0  0
    7.9731    2.6719   21.4458 C   0  0  0  0  0  0  0  0  0  0  0  0
    7.4740    3.7971   22.0973 C   0  0  0  0  0  0  0  0  0  0  0  0
    6.5214    4.5341   21.4912 F   0  0  0  0  0  0  0  0  0  0  0  0
    7.9702    4.1948   23.3401 C   0  0  0  0  0  0  0  0  0  0  0  0
    8.9365    3.4057   23.9759 C   0  0  0  0  0  0  0  0  0  0  0  0
    9.4178    2.2576   23.3332 C   0  0  0  0  0  0  0  0  0  0  0  0
   10.5240    1.2347   24.2247 Cl  0  0  0  0  0  0  0  0  0  0  0  0
    9.3144    3.6481   24.9716 H   0  0  0  0  0  0  0  0  0  0  0  0
    7.5865    5.0927   23.8104 H   0  0  0  0  0  0  0  0  0  0  0  0
    7.5796    2.3634   20.4828 H   0  0  0  0  0  0  0  0  0  0  0  0
    9.5716    0.9212   20.1994 H   0  0  0  0  0  0  0  0  0  0  0  0
   10.5094    0.4377   21.6177 H   0  0  0  0  0  0  0  0  0  0  0  0
    8.8155   -1.3111   22.4992 N   0  0  0  0  0  0  0  0  0  0  0  0
    6.6864   -3.7122   23.3848 H   0  0  0  0  0  0  0  0  0  0  0  0
    8.3057   -3.3520   24.0325 H   0  0  0  0  0  0  0  0  0  0  0  0
    8.4468   -1.2930   25.2876 H   0  0  0  0  0  0  0  0  0  0  0  0
    5.7067    0.0537   25.4093 H   0  0  0  0  0  0  0  0  0  0  0  0
    6.8857    0.2342   24.0950 H   0  0  0  0  0  0  0  0  0  0  0  0
    7.2639    0.8680   25.7074 H   0  0  0  0  0  0  0  0  0  0  0  0
  1  2  1  0
  2  3  1  0
  3  4  1  0
  3  5  1  0
  3  6  1  0
  2  7  1  0
  7  8  1  0
  8  9  1  0
  9 10  2  0
 10 11  1  0
 11 12  1  0
 12 13  2  0
 13 14  1  0
 14 15  2  0
 15 16  1  0
 16 17  2  0
 17 18  1  0
 15 19  1  0
 14 20  1  0
 13 21  1  0
 11 22  1  0
 22 23  1  0
 23 24  1  0
 24 25  2  0
 25 26  1  0
 26 27  1  0
 26 28  2  0
 28 29  1  0
 29 30  2  0
 30 31  1  0
 29 32  1  0
 28 33  1  0
 25 34  1  0
 23 35  1  0
 23 36  1  0
 22 37  2  0
  8 38  1  0
  8 39  1  0
  2 40  1  0
  1 41  1  0
  1 42  1  0
  1 43  1  0
 37  9  1  0
 17 12  1  0
 30 24  1  0
M  END
>  <cnnaffinity>  (1) 
-6.24166

>  <filename>  (1) 
CC(C)OCc1nc(Cc2cc(F)ccc2Cl)n(-c2cccnc2)n1

$$$$
