
     RDKit          3D

 48 50  0  0  0  0  0  0  0  0999 V2000
    8.1176   -6.3462   22.9658 C   0  0  0  0  0  0  0  0  0  0  0  0
    7.5291   -5.0412   23.5104 C   0  0  0  0  0  0  0  0  0  0  0  0
    6.3264   -4.5737   22.6744 C   0  0  0  0  0  0  0  0  0  0  0  0
    5.9896   -3.5819   22.9964 H   0  0  0  0  0  0  0  0  0  0  0  0
    6.5667   -4.5135   21.6067 H   0  0  0  0  0  0  0  0  0  0  0  0
    5.4968   -5.2810   22.7878 H   0  0  0  0  0  0  0  0  0  0  0  0
    7.1282   -5.1747   24.9786 C   0  0  0  0  0  0  0  0  0  0  0  0
    6.3454   -5.9286   25.1179 H   0  0  0  0  0  0  0  0  0  0  0  0
    6.7534   -4.2143   25.3499 H   0  0  0  0  0  0  0  0  0  0  0  0
    7.9943   -5.4538   25.5866 H   0  0  0  0  0  0  0  0  0  0  0  0
    8.5822   -4.0602   23.5395 O   0  0  0  0  0  0  0  0  0  0  0  0
    8.9870   -3.4766   22.3184 C   0  0  0  0  0  0  0  0  0  0  0  0
    8.3453   -2.1618   21.9910 C   0  0  0  0  0  0  0  0  0  0  0  0
    7.7571   -1.9318   20.8293 N   0  0  0  0  0  0  0  0  0  0  0  0
    7.3584   -0.6387   20.9435 N   0  0  0  0  0  0  0  0  0  0  0  0
    6.6444    0.0110   19.9002 C   0  0  0  0  0  0  0  0  0  0  0  0
    5.4335    0.6668   20.1486 C   0  0  0  0  0  0  0  0  0  0  0  0
    4.8082    1.3189   19.0828 C   0  0  0  0  0  0  0  0  0  0  0  0
    5.4149    1.2976   17.8233 C   0  0  0  0  0  0  0  0  0  0  0  0
    6.5699    0.6546   17.5772 N   0  0  0  0  0  0  0  0  0  0  0  0
    7.1629    0.0179   18.5932 C   0  0  0  0  0  0  0  0  0  0  0  0
    8.0990   -0.4913   18.3745 H   0  0  0  0  0  0  0  0  0  0  0  0
    4.9556    1.8099   16.9805 H   0  0  0  0  0  0  0  0  0  0  0  0
    3.8751    1.8512   19.2272 H   0  0  0  0  0  0  0  0  0  0  0  0
    4.9920    0.6532   21.1471 H   0  0  0  0  0  0  0  0  0  0  0  0
    7.7770   -0.1558   22.1485 C   0  0  0  0  0  0  0  0  0  0  0  0
    7.6994    1.2638   22.5608 C   0  0  0  0  0  0  0  0  0  0  0  0
    8.6765    2.1720   21.7924 C   0  0  0  0  0  0  0  0  0  0  0  0
    8.5252    3.5832   22.2760 C   0  0  0  0  0  0  0  0  0  0  0  0
    9.3836    4.1060   23.2589 C   0  0  0  0  0  0  0  0  0  0  0  0
    9.2102    5.4379   23.6108 C   0  0  0  0  0  0  0  0  0  0  0  0
   10.0404    5.9991   24.5020 F   0  0  0  0  0  0  0  0  0  0  0  0
    8.2329    6.2162   22.9793 C   0  0  0  0  0  0  0  0  0  0  0  0
    7.3530    5.6983   22.1130 N   0  0  0  0  0  0  0  0  0  0  0  0
    7.4907    4.4049   21.7923 C   0  0  0  0  0  0  0  0  0  0  0  0
    6.7475    4.0002   21.1047 H   0  0  0  0  0  0  0  0  0  0  0  0
    8.1906    7.2858   23.1614 H   0  0  0  0  0  0  0  0  0  0  0  0
   10.1668    3.5136   23.7303 H   0  0  0  0  0  0  0  0  0  0  0  0
    9.7083    1.8273   21.9523 H   0  0  0  0  0  0  0  0  0  0  0  0
    8.4775    2.1103   20.7119 H   0  0  0  0  0  0  0  0  0  0  0  0
    6.6761    1.6238   22.4305 H   0  0  0  0  0  0  0  0  0  0  0  0
    7.9138    1.2954   23.6318 H   0  0  0  0  0  0  0  0  0  0  0  0
    8.4037   -1.0943   22.8222 N   0  0  0  0  0  0  0  0  0  0  0  0
    8.7828   -4.1175   21.4538 H   0  0  0  0  0  0  0  0  0  0  0  0
   10.0662   -3.3066   22.4074 H   0  0  0  0  0  0  0  0  0  0  0  0
    7.3792   -7.1511   22.9728 H   0  0  0  0  0  0  0  0  0  0  0  0
    8.9846   -6.6428   23.5648 H   0  0  0  0  0  0  0  0  0  0  0  0
    8.4457   -6.2208   21.9298 H   0  0  0  0  0  0  0  0  0  0  0  0
  1  2  1  0
  2  3  1  0
  3  4  1  0
  3  5  1  0
  3  6  1  0
  2  7  1  0
  7  8  1  0
  7  9  1  0
  7 10  1  0
  2 11  1  0
 11 12  1  0
 12 13  1  0
 13 14  2  0
 14 15  1  0
 15 16  1  0
 16 17  2  0
 17 18  1  0
 18 19  2  0
 19 20  1  0
 20 21  2  0
 21 22  1  0
 19 23  1  0
 18 24  1  0
 17 25  1  0
 15 26  1  0
 26 27  1  0
 27 28  1  0
 28 29  1  0
 29 30  2  0
 30 31  1  0
 31 32  1  0
 31 33  2  0
 33 34  1  0
 34 35  2  0
 35 36  1  0
 33 37  1  0
 30 38  1  0
 28 39  1  0
 28 40  1  0
 27 41  1  0
 27 42  1  0
 26 43  2  0
 12 44  1  0
 12 45  1  0
  1 46  1  0
  1 47  1  0
  1 48  1  0
 43 13  1  0
 21 16  1  0
 35 29  1  0
M  END
>  <cnnaffinity>  (1) 
-6.15802

>  <filename>  (1) 
CC(C)(C)OCc1nc(CCc2cncc(F)c2)n(-c2cccnc2)n1

$$$$
