
     RDKit          3D

 48 50  0  0  0  0  0  0  0  0999 V2000
    5.0838   -1.9821   25.4811 C   0  0  0  0  0  0  0  0  0  0  0  0
    6.5020   -1.3852   25.5253 C   0  0  0  0  0  0  0  0  0  0  0  0
    6.5985   -0.0423   24.7755 C   0  0  0  0  0  0  0  0  0  0  0  0
    5.9561    0.6973   25.2669 H   0  0  0  0  0  0  0  0  0  0  0  0
    6.2724   -0.1103   23.7291 H   0  0  0  0  0  0  0  0  0  0  0  0
    7.6237    0.3502   24.7831 H   0  0  0  0  0  0  0  0  0  0  0  0
    7.5948   -2.4020   25.1184 C   0  0  0  0  0  0  0  0  0  0  0  0
    7.4877   -3.0262   23.7066 C   0  0  0  0  0  0  0  0  0  0  0  0
    7.6488   -2.0380   22.5937 C   0  0  0  0  0  0  0  0  0  0  0  0
    6.7124   -1.6696   21.7408 N   0  0  0  0  0  0  0  0  0  0  0  0
    7.3352   -0.7198   20.9870 N   0  0  0  0  0  0  0  0  0  0  0  0
    6.6387   -0.0811   19.9166 C   0  0  0  0  0  0  0  0  0  0  0  0
    5.4176    0.5673   20.1502 C   0  0  0  0  0  0  0  0  0  0  0  0
    4.8278    1.2669   19.0941 C   0  0  0  0  0  0  0  0  0  0  0  0
    5.4584    1.2700   17.8437 C   0  0  0  0  0  0  0  0  0  0  0  0
    6.6078    0.6193   17.6023 N   0  0  0  0  0  0  0  0  0  0  0  0
    7.1739   -0.0483   18.6157 C   0  0  0  0  0  0  0  0  0  0  0  0
    8.0935   -0.5859   18.3823 H   0  0  0  0  0  0  0  0  0  0  0  0
    5.0159    1.7949   17.0000 H   0  0  0  0  0  0  0  0  0  0  0  0
    3.8940    1.8038   19.2278 H   0  0  0  0  0  0  0  0  0  0  0  0
    4.9627    0.5294   21.1429 H   0  0  0  0  0  0  0  0  0  0  0  0
    8.5984   -0.5357   21.4766 C   0  0  0  0  0  0  0  0  0  0  0  0
    9.4709    0.6664   21.2011 C   0  0  0  0  0  0  0  0  0  0  0  0
    8.9861    1.9072   21.8450 N   0  0  0  0  0  0  0  0  0  0  0  0
    7.9876    2.6264   21.2369 C   0  0  0  0  0  0  0  0  0  0  0  0
    7.4165    3.7156   21.8351 C   0  0  0  0  0  0  0  0  0  0  0  0
    7.8568    4.1183   23.1079 C   0  0  0  0  0  0  0  0  0  0  0  0
    8.8158    3.3750   23.7482 C   0  0  0  0  0  0  0  0  0  0  0  0
    9.4776    3.7841   24.9967 C   0  0  0  0  0  0  0  0  0  0  0  0
    8.8302    4.8051   25.5957 F   0  0  0  0  0  0  0  0  0  0  0  0
    9.5380    2.7905   25.8936 F   0  0  0  0  0  0  0  0  0  0  0  0
   10.7282    4.2125   24.7291 F   0  0  0  0  0  0  0  0  0  0  0  0
    9.3798    2.1722   23.1832 C   0  0  0  0  0  0  0  0  0  0  0  0
   10.1440    1.4258   23.7758 O   0  0  0  0  0  0  0  0  0  0  0  0
    7.4629    5.0301   23.5628 H   0  0  0  0  0  0  0  0  0  0  0  0
    6.6388    4.2801   21.3231 H   0  0  0  0  0  0  0  0  0  0  0  0
    7.7183    2.2767   20.2444 H   0  0  0  0  0  0  0  0  0  0  0  0
    9.5718    0.8350   20.1261 H   0  0  0  0  0  0  0  0  0  0  0  0
   10.4606    0.4505   21.6083 H   0  0  0  0  0  0  0  0  0  0  0  0
    8.8383   -1.4034   22.4360 N   0  0  0  0  0  0  0  0  0  0  0  0
    6.5413   -3.5548   23.5724 H   0  0  0  0  0  0  0  0  0  0  0  0
    8.2932   -3.7587   23.5853 H   0  0  0  0  0  0  0  0  0  0  0  0
    7.6057   -3.2223   25.8492 H   0  0  0  0  0  0  0  0  0  0  0  0
    8.5781   -1.9121   25.2014 H   0  0  0  0  0  0  0  0  0  0  0  0
    6.7083   -1.1432   26.5807 H   0  0  0  0  0  0  0  0  0  0  0  0
    4.3299   -1.1863   25.4905 H   0  0  0  0  0  0  0  0  0  0  0  0
    4.8915   -2.6382   26.3395 H   0  0  0  0  0  0  0  0  0  0  0  0
    4.9164   -2.5864   24.5827 H   0  0  0  0  0  0  0  0  0  0  0  0
  1  2  1  0
  2  3  1  0
  3  4  1  0
  3  5  1  0
  3  6  1  0
  2  7  1  0
  7  8  1  0
  8  9  1  0
  9 10  2  0
 10 11  1  0
 11 12  1  0
 12 13  2  0
 13 14  1  0
 14 15  2  0
 15 16  1  0
 16 17  2  0
 17 18  1  0
 15 19  1  0
 14 20  1  0
 13 21  1  0
 11 22  1  0
 22 23  1  0
 23 24  1  0
 24 25  1  0
 25 26  2  0
 26 27  1  0
 27 28  2  0
 28 29  1  0
 29 30  1  0
 29 31  1  0
 29 32  1  0
 28 33  1  0
 33 34  2  0
 27 35  1  0
 26 36  1  0
 25 37  1  0
 23 38  1  0
 23 39  1  0
 22 40  2  0
  8 41  1  0
  8 42  1  0
  7 43  1  0
  7 44  1  0
  2 45  1  0
  1 46  1  0
  1 47  1  0
  1 48  1  0
 40  9  1  0
 17 12  1  0
 33 24  1  0
M  END
>  <cnnaffinity>  (1) 
-6.18331

>  <filename>  (1) 
CC(C)CCc1nc(Cn2cccc(C(F)(F)F)c2=O)n(-c2cccnc2)n1

$$$$
