
     RDKit          3D

 43 45  0  0  0  0  0  0  0  0999 V2000
    6.9568   -4.3808   22.9848 C   0  0  0  0  0  0  0  0  0  0  0  0
    7.4352   -3.0418   23.5891 C   0  0  0  0  0  0  0  0  0  0  0  0
    6.4412   -2.5216   24.6601 C   0  0  0  0  0  0  0  0  0  0  0  0
    6.3072   -3.2639   25.4562 H   0  0  0  0  0  0  0  0  0  0  0  0
    6.7942   -1.5898   25.1210 H   0  0  0  0  0  0  0  0  0  0  0  0
    5.4577   -2.3248   24.2140 H   0  0  0  0  0  0  0  0  0  0  0  0
    7.6729   -2.0092   22.5165 C   0  0  0  0  0  0  0  0  0  0  0  0
    6.7399   -1.6356   21.6583 N   0  0  0  0  0  0  0  0  0  0  0  0
    7.3649   -0.6799   20.9258 N   0  0  0  0  0  0  0  0  0  0  0  0
    6.6591    0.0000   19.8959 C   0  0  0  0  0  0  0  0  0  0  0  0
    5.4419    0.6351   20.1605 C   0  0  0  0  0  0  0  0  0  0  0  0
    4.8098    1.3075   19.1089 C   0  0  0  0  0  0  0  0  0  0  0  0
    5.3945    1.2952   17.8377 C   0  0  0  0  0  0  0  0  0  0  0  0
    6.5465    0.6627   17.5733 N   0  0  0  0  0  0  0  0  0  0  0  0
    7.1603    0.0373   18.5830 C   0  0  0  0  0  0  0  0  0  0  0  0
    8.1036   -0.4494   18.3439 H   0  0  0  0  0  0  0  0  0  0  0  0
    4.9307    1.8033   16.9956 H   0  0  0  0  0  0  0  0  0  0  0  0
    3.8781    1.8399   19.2552 H   0  0  0  0  0  0  0  0  0  0  0  0
    5.0152    0.5958   21.1655 H   0  0  0  0  0  0  0  0  0  0  0  0
    8.6279   -0.5024   21.4099 C   0  0  0  0  0  0  0  0  0  0  0  0
    9.5598    0.5856   20.9967 C   0  0  0  0  0  0  0  0  0  0  0  0
    9.5139    1.8071   21.9425 C   0  0  0  0  0  0  0  0  0  0  0  0
    8.1544    2.5325   21.9253 C   0  0  0  0  0  0  0  0  0  0  0  0
    8.1276    3.7334   22.7525 N   0  0  0  0  0  0  0  0  0  0  0  0
    7.8742    3.7555   24.0992 C   0  0  0  0  0  0  0  0  0  0  0  0
    8.0993    5.0202   24.5798 C   0  0  0  0  0  0  0  0  0  0  0  0
    8.5151    5.8116   23.4710 C   0  0  0  0  0  0  0  0  0  0  0  0
    8.4993    4.9957   22.3688 C   0  0  0  0  0  0  0  0  0  0  0  0
    8.6435    5.2419   21.3287 H   0  0  0  0  0  0  0  0  0  0  0  0
    8.7932    6.8580   23.4528 H   0  0  0  0  0  0  0  0  0  0  0  0
    7.9546    5.3493   25.6042 H   0  0  0  0  0  0  0  0  0  0  0  0
    7.5436    2.8508   24.5933 H   0  0  0  0  0  0  0  0  0  0  0  0
    7.8982    2.8130   20.9019 H   0  0  0  0  0  0  0  0  0  0  0  0
    7.3458    1.8731   22.2666 H   0  0  0  0  0  0  0  0  0  0  0  0
   10.3072    2.5107   21.6564 H   0  0  0  0  0  0  0  0  0  0  0  0
    9.7357    1.4577   22.9620 H   0  0  0  0  0  0  0  0  0  0  0  0
    9.3279    0.8682   19.9672 H   0  0  0  0  0  0  0  0  0  0  0  0
   10.5645    0.1531   20.9934 H   0  0  0  0  0  0  0  0  0  0  0  0
    8.8537   -1.3491   22.3976 N   0  0  0  0  0  0  0  0  0  0  0  0
    8.4233   -3.1728   24.0506 H   0  0  0  0  0  0  0  0  0  0  0  0
    5.9925   -4.2494   22.4741 H   0  0  0  0  0  0  0  0  0  0  0  0
    7.6742   -4.7703   22.2517 H   0  0  0  0  0  0  0  0  0  0  0  0
    6.8323   -5.1327   23.7729 H   0  0  0  0  0  0  0  0  0  0  0  0
  1  2  1  0
  2  3  1  0
  3  4  1  0
  3  5  1  0
  3  6  1  0
  2  7  1  0
  7  8  2  0
  8  9  1  0
  9 10  1  0
 10 11  2  0
 11 12  1  0
 12 13  2  0
 13 14  1  0
 14 15  2  0
 15 16  1  0
 13 17  1  0
 12 18  1  0
 11 19  1  0
  9 20  1  0
 20 21  1  0
 21 22  1  0
 22 23  1  0
 23 24  1  0
 24 25  1  0
 25 26  2  0
 26 27  1  0
 27 28  2  0
 28 29  1  0
 27 30  1  0
 26 31  1  0
 25 32  1  0
 23 33  1  0
 23 34  1  0
 22 35  1  0
 22 36  1  0
 21 37  1  0
 21 38  1  0
 20 39  2  0
  2 40  1  0
  1 41  1  0
  1 42  1  0
  1 43  1  0
 39  7  1  0
 15 10  1  0
 28 24  1  0
M  END
>  <cnnaffinity>  (1) 
-5.78902

>  <filename>  (1) 
CC(C)c1nc(CCCn2cccc2)n(-c2cccnc2)n1

$$$$
