
     RDKit          3D

 32 33  0  0  0  0  0  0  0  0999 V2000
   10.2144    4.0555   22.7300 H   0  0  0  0  0  0  0  0  0  0  0  0
    9.3682    3.3628   22.6684 C   0  0  0  0  0  0  0  0  0  0  0  0
    8.1963    3.8217   23.0800 N   0  0  0  0  0  0  0  0  0  0  0  0
    7.2245    2.9155   23.0565 C   0  0  0  0  0  0  0  0  0  0  0  0
    6.0304    3.3258   23.5386 N   0  0  0  0  0  0  0  0  0  0  0  0
    5.3593    2.7848   23.0260 H   0  0  0  0  0  0  0  0  0  0  0  0
    6.0140    4.3174   23.3740 H   0  0  0  0  0  0  0  0  0  0  0  0
    7.2512    1.6779   22.6081 N   0  0  0  0  0  0  0  0  0  0  0  0
    8.4277    1.2450   22.1132 C   0  0  0  0  0  0  0  0  0  0  0  0
    8.5194   -0.2478   21.5903 C   0  0  0  0  0  0  0  0  0  0  0  0
    7.3031   -0.8183   20.9054 N   0  0  0  0  0  0  0  0  0  0  0  0
    6.5901   -0.9954   21.6107 H   0  0  0  0  0  0  0  0  0  0  0  0
    6.6869   -0.1074   19.8426 C   0  0  0  0  0  0  0  0  0  0  0  0
    7.1777   -0.0194   18.5140 C   0  0  0  0  0  0  0  0  0  0  0  0
    8.1134   -0.5100   18.2519 H   0  0  0  0  0  0  0  0  0  0  0  0
    6.5690    0.6480   17.5187 N   0  0  0  0  0  0  0  0  0  0  0  0
    5.4171    1.2738   17.8064 C   0  0  0  0  0  0  0  0  0  0  0  0
    4.9625    1.8409   16.9983 H   0  0  0  0  0  0  0  0  0  0  0  0
    4.8244    1.2333   19.0733 C   0  0  0  0  0  0  0  0  0  0  0  0
    3.8968    1.7675   19.2477 H   0  0  0  0  0  0  0  0  0  0  0  0
    5.4616    0.5300   20.1008 C   0  0  0  0  0  0  0  0  0  0  0  0
    5.0833    0.5135   21.1266 H   0  0  0  0  0  0  0  0  0  0  0  0
    8.7548   -1.1607   22.8008 C   0  0  0  0  0  0  0  0  0  0  0  0
    8.8335   -2.2019   22.4669 H   0  0  0  0  0  0  0  0  0  0  0  0
    7.9275   -1.0785   23.5186 H   0  0  0  0  0  0  0  0  0  0  0  0
    9.6846   -0.8961   23.3205 H   0  0  0  0  0  0  0  0  0  0  0  0
    9.6545   -0.4148   20.5752 C   0  0  0  0  0  0  0  0  0  0  0  0
    9.5540    0.3242   19.7743 H   0  0  0  0  0  0  0  0  0  0  0  0
    9.5830   -1.4153   20.1381 H   0  0  0  0  0  0  0  0  0  0  0  0
   10.6379   -0.3032   21.0453 H   0  0  0  0  0  0  0  0  0  0  0  0
    9.5613    2.0746   22.1837 C   0  0  0  0  0  0  0  0  0  0  0  0
   10.5484    1.7662   21.8747 H   0  0  0  0  0  0  0  0  0  0  0  0
  1  2  1  0
  2  3  2  0
  3  4  1  0
  4  5  1  0
  5  6  1  0
  5  7  1  0
  4  8  2  0
  8  9  1  0
  9 10  1  0
 10 11  1  0
 11 12  1  0
 11 13  1  0
 13 14  2  0
 14 15  1  0
 14 16  1  0
 16 17  2  0
 17 18  1  0
 17 19  1  0
 19 20  1  0
 19 21  2  0
 21 22  1  0
 10 23  1  0
 23 24  1  0
 23 25  1  0
 23 26  1  0
 10 27  1  0
 27 28  1  0
 27 29  1  0
 27 30  1  0
  9 31  2  0
 31 32  1  0
 31  2  1  0
 21 13  1  0
M  END
>  <cnnaffinity>  (1) 
-4.72737

>  <filename>  (1) 
CC(C)(Nc1cccnc1)c1ccnc(N)n1

$$$$
