
     RDKit          3D

 42 45  0  0  0  0  0  0  0  0999 V2000
    7.6295   -2.4247   25.0032 C   0  0  0  0  0  0  0  0  0  0  0  0
    7.4434   -3.0385   23.6043 C   0  0  0  0  0  0  0  0  0  0  0  0
    7.6504   -2.0360   22.5099 C   0  0  0  0  0  0  0  0  0  0  0  0
    6.6870   -1.6137   21.7144 N   0  0  0  0  0  0  0  0  0  0  0  0
    7.3170   -0.6984   20.9288 N   0  0  0  0  0  0  0  0  0  0  0  0
    6.6411   -0.0010   19.8964 C   0  0  0  0  0  0  0  0  0  0  0  0
    5.4323    0.6466   20.1628 C   0  0  0  0  0  0  0  0  0  0  0  0
    4.8100    1.3150   19.1078 C   0  0  0  0  0  0  0  0  0  0  0  0
    5.3978    1.2965   17.8370 C   0  0  0  0  0  0  0  0  0  0  0  0
    6.5556    0.6713   17.5754 N   0  0  0  0  0  0  0  0  0  0  0  0
    7.1631    0.0486   18.5893 C   0  0  0  0  0  0  0  0  0  0  0  0
    8.1132   -0.4318   18.3629 H   0  0  0  0  0  0  0  0  0  0  0  0
    4.9193    1.7855   16.9933 H   0  0  0  0  0  0  0  0  0  0  0  0
    3.8790    1.8426   19.2595 H   0  0  0  0  0  0  0  0  0  0  0  0
    5.0156    0.6069   21.1722 H   0  0  0  0  0  0  0  0  0  0  0  0
    8.6058   -0.5852   21.3462 C   0  0  0  0  0  0  0  0  0  0  0  0
    9.6237    0.3273   20.7698 C   0  0  0  0  0  0  0  0  0  0  0  0
   10.3370    1.1087   21.8416 C   0  0  0  0  0  0  0  0  0  0  0  0
    9.7432    2.1991   22.4912 C   0  0  0  0  0  0  0  0  0  0  0  0
    8.1755    2.7572   22.0094 Cl  0  0  0  0  0  0  0  0  0  0  0  0
   10.3967    2.8334   23.5535 C   0  0  0  0  0  0  0  0  0  0  0  0
   11.5910    2.4376   24.0091 N   0  0  0  0  0  0  0  0  0  0  0  0
   12.1640    1.3837   23.4168 C   0  0  0  0  0  0  0  0  0  0  0  0
   11.5700    0.7064   22.3512 C   0  0  0  0  0  0  0  0  0  0  0  0
   12.1899   -0.3591   21.8201 F   0  0  0  0  0  0  0  0  0  0  0  0
   13.1310    1.0491   23.7782 H   0  0  0  0  0  0  0  0  0  0  0  0
    9.9306    3.6842   24.0404 H   0  0  0  0  0  0  0  0  0  0  0  0
    9.1638    1.0320   20.0770 H   0  0  0  0  0  0  0  0  0  0  0  0
   10.3183   -0.3322   20.2500 H   0  0  0  0  0  0  0  0  0  0  0  0
    8.8527   -1.4423   22.3116 N   0  0  0  0  0  0  0  0  0  0  0  0
    8.3350   -4.2595   23.4052 C   0  0  0  0  0  0  0  0  0  0  0  0
    7.8508   -5.5966   23.8760 C   0  0  0  0  0  0  0  0  0  0  0  0
    7.9205   -5.2894   22.4024 C   0  0  0  0  0  0  0  0  0  0  0  0
    6.9863   -5.1185   21.8697 H   0  0  0  0  0  0  0  0  0  0  0  0
    8.6762   -5.7933   21.8059 H   0  0  0  0  0  0  0  0  0  0  0  0
    6.8672   -5.6364   24.3399 H   0  0  0  0  0  0  0  0  0  0  0  0
    8.5628   -6.3031   24.2941 H   0  0  0  0  0  0  0  0  0  0  0  0
    9.4024   -4.0596   23.5027 H   0  0  0  0  0  0  0  0  0  0  0  0
    6.4019   -3.3555   23.4942 H   0  0  0  0  0  0  0  0  0  0  0  0
    6.9599   -1.5709   25.1505 H   0  0  0  0  0  0  0  0  0  0  0  0
    8.6611   -2.0778   25.1343 H   0  0  0  0  0  0  0  0  0  0  0  0
    7.4090   -3.1669   25.7783 H   0  0  0  0  0  0  0  0  0  0  0  0
  1  2  1  0
  2  3  1  0
  3  4  2  0
  4  5  1  0
  5  6  1  0
  6  7  2  0
  7  8  1  0
  8  9  2  0
  9 10  1  0
 10 11  2  0
 11 12  1  0
  9 13  1  0
  8 14  1  0
  7 15  1  0
  5 16  1  0
 16 17  1  0
 17 18  1  0
 18 19  2  0
 19 20  1  0
 19 21  1  0
 21 22  2  0
 22 23  1  0
 23 24  2  0
 24 25  1  0
 23 26  1  0
 21 27  1  0
 17 28  1  0
 17 29  1  0
 16 30  2  0
  2 31  1  0
 31 32  1  0
 32 33  1  0
 33 34  1  0
 33 35  1  0
 32 36  1  0
 32 37  1  0
 31 38  1  0
  2 39  1  0
  1 40  1  0
  1 41  1  0
  1 42  1  0
 30  3  1  0
 33 31  1  0
 11  6  1  0
 24 18  1  0
M  END
>  <cnnaffinity>  (1) 
-6.83099

>  <filename>  (1) 
CC(c1nc(Cc2c(F)cncc2Cl)n(-c2cccnc2)n1)C1CC1

$$$$
