
     RDKit          3D

 47 50  0  0  0  0  0  0  0  0999 V2000
    8.2559    4.0678   22.0745 C   0  0  0  0  0  0  0  0  0  0  0  0
    8.2269    3.8707   22.1736 C   0  0  0  0  0  0  0  0  0  0  0  0
    7.6023    1.6743   23.0189 C   0  0  0  0  0  0  0  0  0  0  0  0
    8.5265    0.7849   22.5486 C   0  0  0  0  0  0  0  0  0  0  0  0
    9.8618    0.8557   22.7459 N   0  0  0  0  0  0  0  0  0  0  0  0
   10.3518   -0.2348   22.1256 C   0  0  0  0  0  0  0  0  0  0  0  0
   11.7792   -0.5904   21.9277 C   0  0  0  0  0  0  0  0  0  0  0  0
   12.8854    0.1610   22.3770 C   0  0  0  0  0  0  0  0  0  0  0  0
   14.1653   -0.1430   21.8944 C   0  0  0  0  0  0  0  0  0  0  0  0
   14.3429   -1.1854   20.9689 C   0  0  0  0  0  0  0  0  0  0  0  0
   13.2720   -1.9873   20.6062 C   0  0  0  0  0  0  0  0  0  0  0  0
   12.0142   -1.7150   21.1184 C   0  0  0  0  0  0  0  0  0  0  0  0
   11.1538   -2.3207   20.8653 H   0  0  0  0  0  0  0  0  0  0  0  0
   13.4215   -2.8038   19.9074 H   0  0  0  0  0  0  0  0  0  0  0  0
   15.2672   -1.3682   20.4388 H   0  0  0  0  0  0  0  0  0  0  0  0
   15.0048    0.4816   22.1861 H   0  0  0  0  0  0  0  0  0  0  0  0
   12.7616    0.9862   23.0749 H   0  0  0  0  0  0  0  0  0  0  0  0
    9.4144   -0.9761   21.5471 N   0  0  0  0  0  0  0  0  0  0  0  0
    8.2703   -0.3436   21.8000 N   0  0  0  0  0  0  0  0  0  0  0  0
    7.0329   -0.8770   21.2217 C   0  0  0  0  0  0  0  0  0  0  0  0
    6.4776   -0.0941   20.0469 C   0  0  0  0  0  0  0  0  0  0  0  0
    5.2354    0.5421   20.1167 C   0  0  0  0  0  0  0  0  0  0  0  0
    4.7740    1.2554   19.0094 C   0  0  0  0  0  0  0  0  0  0  0  0
    5.5712    1.2952   17.8614 C   0  0  0  0  0  0  0  0  0  0  0  0
    6.7597    0.6814   17.7654 N   0  0  0  0  0  0  0  0  0  0  0  0
    7.1963    0.0122   18.8414 C   0  0  0  0  0  0  0  0  0  0  0  0
    8.1641   -0.4768   18.7328 H   0  0  0  0  0  0  0  0  0  0  0  0
    5.2350    1.8403   16.9809 H   0  0  0  0  0  0  0  0  0  0  0  0
    3.8299    1.7903   19.0321 H   0  0  0  0  0  0  0  0  0  0  0  0
    4.6390    0.4742   21.0282 H   0  0  0  0  0  0  0  0  0  0  0  0
    6.2778   -0.9639   22.0095 H   0  0  0  0  0  0  0  0  0  0  0  0
    7.2867   -1.8959   20.9069 H   0  0  0  0  0  0  0  0  0  0  0  0
    7.8936    2.4060   23.7307 H   0  0  0  0  0  0  0  0  0  0  0  0
    6.6872    1.8661   22.5067 H   0  0  0  0  0  0  0  0  0  0  0  0
    6.7797    4.2671   22.3610 N   0  0  0  0  0  0  0  0  0  0  0  0
    6.2373    4.7407   23.5439 C   0  0  0  0  0  0  0  0  0  0  0  0
    4.8785    4.8823   23.4199 C   0  0  0  0  0  0  0  0  0  0  0  0
    4.5335    4.4293   22.1345 C   0  0  0  0  0  0  0  0  0  0  0  0
    5.6931    4.0285   21.5196 C   0  0  0  0  0  0  0  0  0  0  0  0
    5.7578    3.5784   20.5233 H   0  0  0  0  0  0  0  0  0  0  0  0
    3.5421    4.4036   21.6864 H   0  0  0  0  0  0  0  0  0  0  0  0
    4.2241    5.2868   24.1872 H   0  0  0  0  0  0  0  0  0  0  0  0
    6.8082    4.9907   24.4371 H   0  0  0  0  0  0  0  0  0  0  0  0
    7.9214    3.1782   21.1948 H   0  0  0  0  0  0  0  0  0  0  0  0
    8.6420    5.4512   21.3578 H   0  0  0  0  0  0  0  0  0  0  0  0
    9.3827    3.3929   22.1431 H   0  0  0  0  0  0  0  0  0  0  0  0
    8.6506    4.1286   23.3057 H   0  0  0  0  0  0  0  0  0  0  0  0
  1  2  1  0
  2  3  1  0
  3  4  1  0
  4  5  2  0
  5  6  1  0
  6  7  1  0
  7  8  2  0
  8  9  1  0
  9 10  2  0
 10 11  1  0
 11 12  2  0
 12 13  1  0
 11 14  1  0
 10 15  1  0
  9 16  1  0
  8 17  1  0
  6 18  2  0
 18 19  1  0
 19 20  1  0
 20 21  1  0
 21 22  2  0
 22 23  1  0
 23 24  2  0
 24 25  1  0
 25 26  2  0
 26 27  1  0
 24 28  1  0
 23 29  1  0
 22 30  1  0
 20 31  1  0
 20 32  1  0
  3 33  1  0
  3 34  1  0
  2 35  1  0
 35 36  1  0
 36 37  2  0
 37 38  1  0
 38 39  2  0
 39 40  1  0
 38 41  1  0
 37 42  1  0
 36 43  1  0
  2 44  1  0
  1 45  1  0
  1 46  1  0
  1 47  1  0
 19  4  1  0
 26 21  1  0
 39 35  1  0
 12  7  1  0
M  END
>  <cnnaffinity>  (1) 
-6.32229

>  <filename>  (1) 
CC(Cc1nc(-c2ccccc2)nn1Cc1cccnc1)n1cccc1

$$$$
