
     RDKit          3D

 47 50  0  0  0  0  0  0  0  0999 V2000
    6.5920    1.1787   23.9037 C   0  0  0  0  0  0  0  0  0  0  0  0
    7.5400    1.1765   22.6929 C   0  0  0  0  0  0  0  0  0  0  0  0
    8.9404    1.7546   23.0409 C   0  0  0  0  0  0  0  0  0  0  0  0
    8.8685    3.2226   23.3801 C   0  0  0  0  0  0  0  0  0  0  0  0
    8.7066    4.1524   22.3441 C   0  0  0  0  0  0  0  0  0  0  0  0
    8.6348    5.5212   22.6091 C   0  0  0  0  0  0  0  0  0  0  0  0
    8.6801    5.9802   23.9308 C   0  0  0  0  0  0  0  0  0  0  0  0
    8.8002    5.0460   24.9555 C   0  0  0  0  0  0  0  0  0  0  0  0
    8.8218    5.4750   26.2311 F   0  0  0  0  0  0  0  0  0  0  0  0
    8.8988    3.6780   24.7070 C   0  0  0  0  0  0  0  0  0  0  0  0
    8.9776    2.9896   25.5424 H   0  0  0  0  0  0  0  0  0  0  0  0
    8.6151    7.0350   24.1766 H   0  0  0  0  0  0  0  0  0  0  0  0
    8.5408    6.2247   21.7841 H   0  0  0  0  0  0  0  0  0  0  0  0
    8.6333    3.7836   21.3232 H   0  0  0  0  0  0  0  0  0  0  0  0
    9.3805    1.1805   23.8656 H   0  0  0  0  0  0  0  0  0  0  0  0
    9.6098    1.6151   22.1806 H   0  0  0  0  0  0  0  0  0  0  0  0
    7.6834   -0.2045   22.1393 C   0  0  0  0  0  0  0  0  0  0  0  0
    8.2633   -1.1852   22.8006 N   0  0  0  0  0  0  0  0  0  0  0  0
    8.2066   -2.2249   21.9410 C   0  0  0  0  0  0  0  0  0  0  0  0
    8.8163   -3.5299   22.3233 C   0  0  0  0  0  0  0  0  0  0  0  0
    8.7713   -3.9200   23.8240 C   0  0  0  0  0  0  0  0  0  0  0  0
    8.6889   -5.4601   23.7771 C   0  0  0  0  0  0  0  0  0  0  0  0
    8.7133   -5.8438   22.4106 O   0  0  0  0  0  0  0  0  0  0  0  0
    8.1831   -4.7671   21.6668 C   0  0  0  0  0  0  0  0  0  0  0  0
    8.4361   -4.9072   20.6119 H   0  0  0  0  0  0  0  0  0  0  0  0
    7.0821   -4.7524   21.7419 H   0  0  0  0  0  0  0  0  0  0  0  0
    7.7531   -5.7932   24.2469 H   0  0  0  0  0  0  0  0  0  0  0  0
    9.5287   -5.9498   24.2780 H   0  0  0  0  0  0  0  0  0  0  0  0
    9.6558   -3.5447   24.3502 H   0  0  0  0  0  0  0  0  0  0  0  0
    7.8854   -3.5036   24.3197 H   0  0  0  0  0  0  0  0  0  0  0  0
    9.8716   -3.4029   22.0569 H   0  0  0  0  0  0  0  0  0  0  0  0
    7.6758   -1.9485   20.7639 N   0  0  0  0  0  0  0  0  0  0  0  0
    7.3010   -0.6486   20.9047 N   0  0  0  0  0  0  0  0  0  0  0  0
    6.6066    0.0235   19.8691 C   0  0  0  0  0  0  0  0  0  0  0  0
    5.4003    0.6895   20.1134 C   0  0  0  0  0  0  0  0  0  0  0  0
    4.7818    1.3432   19.0451 C   0  0  0  0  0  0  0  0  0  0  0  0
    5.3948    1.3153   17.7891 C   0  0  0  0  0  0  0  0  0  0  0  0
    6.5458    0.6632   17.5480 N   0  0  0  0  0  0  0  0  0  0  0  0
    7.1293    0.0215   18.5636 C   0  0  0  0  0  0  0  0  0  0  0  0
    8.0574   -0.5029   18.3521 H   0  0  0  0  0  0  0  0  0  0  0  0
    4.9464    1.8281   16.9414 H   0  0  0  0  0  0  0  0  0  0  0  0
    3.8503    1.8796   19.1815 H   0  0  0  0  0  0  0  0  0  0  0  0
    4.9577    0.6817   21.1114 H   0  0  0  0  0  0  0  0  0  0  0  0
    7.1140    1.8151   21.9101 H   0  0  0  0  0  0  0  0  0  0  0  0
    7.0163    0.5974   24.7323 H   0  0  0  0  0  0  0  0  0  0  0  0
    5.6260    0.7318   23.6422 H   0  0  0  0  0  0  0  0  0  0  0  0
    6.4083    2.1975   24.2575 H   0  0  0  0  0  0  0  0  0  0  0  0
  1  2  1  0
  2  3  1  0
  3  4  1  0
  4  5  2  0
  5  6  1  0
  6  7  2  0
  7  8  1  0
  8  9  1  0
  8 10  2  0
 10 11  1  0
  7 12  1  0
  6 13  1  0
  5 14  1  0
  3 15  1  0
  3 16  1  0
  2 17  1  0
 17 18  2  0
 18 19  1  0
 19 20  1  0
 20 21  1  0
 21 22  1  0
 22 23  1  0
 23 24  1  0
 24 25  1  0
 24 26  1  0
 22 27  1  0
 22 28  1  0
 21 29  1  0
 21 30  1  0
 20 31  1  0
 19 32  2  0
 32 33  1  0
 33 34  1  0
 34 35  2  0
 35 36  1  0
 36 37  2  0
 37 38  1  0
 38 39  2  0
 39 40  1  0
 37 41  1  0
 36 42  1  0
 35 43  1  0
  2 44  1  0
  1 45  1  0
  1 46  1  0
  1 47  1  0
 10  4  1  0
 33 17  1  0
 39 34  1  0
 24 20  1  0
M  END
>  <cnnaffinity>  (1) 
-6.21487

>  <filename>  (1) 
CC(Cc1cccc(F)c1)c1nc(C2CCOC2)nn1-c1cccnc1

$$$$
