
     RDKit          3D

 37 38  0  0  0  0  0  0  0  0999 V2000
    7.3968    0.5358   22.3656 C   0  0  0  0  0  0  0  0  0  0  0  0
    7.4743   -0.4212   21.1872 C   0  0  0  0  0  0  0  0  0  0  0  0
    8.9326   -0.7413   20.8875 C   0  0  0  0  0  0  0  0  0  0  0  0
    9.0212   -1.3626   19.9946 H   0  0  0  0  0  0  0  0  0  0  0  0
    9.4955    0.1774   20.7220 H   0  0  0  0  0  0  0  0  0  0  0  0
    9.3717   -1.2844   21.7310 H   0  0  0  0  0  0  0  0  0  0  0  0
    6.8225   -1.6602   21.5294 N   0  0  0  0  0  4  0  0  0  0  0  0
    7.2393   -2.2621   22.8181 C   0  0  0  0  0  0  0  0  0  0  0  0
    6.2601   -3.3757   22.9661 C   0  0  0  0  0  0  0  0  0  0  0  0
    5.3135   -3.4023   23.9984 C   0  0  0  0  0  0  0  0  0  0  0  0
    4.2982   -4.3613   23.9959 C   0  0  0  0  0  0  0  0  0  0  0  0
    4.2675   -5.3320   22.9933 C   0  0  0  0  0  0  0  0  0  0  0  0
    5.2513   -5.3430   22.0058 C   0  0  0  0  0  0  0  0  0  0  0  0
    5.2601   -6.6863   20.6785 Br  0  0  0  0  0  0  0  0  0  0  0  0
    6.2287   -4.3577   21.9828 C   0  0  0  0  0  0  0  0  0  0  0  0
    7.1240   -4.3296   20.9505 O   0  0  0  0  0  0  0  0  0  0  0  0
    6.9005   -5.0414   20.3260 H   0  0  0  0  0  0  0  0  0  0  0  0
    3.4942   -6.0927   22.9890 H   0  0  0  0  0  0  0  0  0  0  0  0
    3.5370   -4.3541   24.7703 H   0  0  0  0  0  0  0  0  0  0  0  0
    5.3337   -2.6501   24.7823 H   0  0  0  0  0  0  0  0  0  0  0  0
    8.2691   -2.6476   22.7873 H   0  0  0  0  0  0  0  0  0  0  0  0
    7.1637   -1.5541   23.6585 H   0  0  0  0  0  0  0  0  0  0  0  0
    5.8212   -1.4786   21.5606 H   0  0  0  0  0  0  0  0  0  0  0  0
    6.9991   -2.3310   20.7840 H   0  0  0  0  0  0  0  0  0  0  0  0
    6.7149    0.1210   20.0051 C   0  0  0  0  0  0  0  0  0  0  0  0
    5.5237    0.8473   20.1665 C   0  0  0  0  0  0  0  0  0  0  0  0
    4.8892    1.3426   19.0304 C   0  0  0  0  0  0  0  0  0  0  0  0
    5.4414    1.1029   17.7710 C   0  0  0  0  0  0  0  0  0  0  0  0
    6.5749    0.3975   17.6106 N   0  0  0  0  0  0  0  0  0  0  0  0
    7.1947   -0.0792   18.7056 C   0  0  0  0  0  0  0  0  0  0  0  0
    8.1209   -0.6295   18.5585 H   0  0  0  0  0  0  0  0  0  0  0  0
    4.9458    1.5063   16.8908 H   0  0  0  0  0  0  0  0  0  0  0  0
    3.9825    1.9322   19.1143 H   0  0  0  0  0  0  0  0  0  0  0  0
    5.1116    1.0415   21.1553 H   0  0  0  0  0  0  0  0  0  0  0  0
    7.8627    0.0842   23.2459 H   0  0  0  0  0  0  0  0  0  0  0  0
    6.3556    0.7689   22.6016 H   0  0  0  0  0  0  0  0  0  0  0  0
    7.9190    1.4624   22.1282 H   0  0  0  0  0  0  0  0  0  0  0  0
  1  2  1  0
  2  3  1  0
  3  4  1  0
  3  5  1  0
  3  6  1  0
  2  7  1  0
  7  8  1  0
  8  9  1  0
  9 10  2  0
 10 11  1  0
 11 12  2  0
 12 13  1  0
 13 14  1  0
 13 15  2  0
 15 16  1  0
 16 17  1  0
 12 18  1  0
 11 19  1  0
 10 20  1  0
  8 21  1  0
  8 22  1  0
  7 23  1  0
  7 24  1  0
  2 25  1  0
 25 26  2  0
 26 27  1  0
 27 28  2  0
 28 29  1  0
 29 30  2  0
 30 31  1  0
 28 32  1  0
 27 33  1  0
 26 34  1  0
  1 35  1  0
  1 36  1  0
  1 37  1  0
 15  9  1  0
 30 25  1  0
M  CHG  1   7   1
M  END
>  <cnnaffinity>  (1) 
-4.52122

>  <filename>  (1) 
CC(C)([NH2+]Cc1cccc(Br)c1O)c1cccnc1

$$$$
