
     RDKit          3D

 34 35  0  0  0  0  0  0  0  0999 V2000
    9.9154   -1.4134   23.0228 H   0  0  0  0  0  0  0  0  0  0  0  0
    8.9815   -1.3184   22.4816 C   0  0  0  0  0  0  0  0  0  0  0  0
    7.8111   -1.8766   22.8456 C   0  0  0  0  0  0  0  0  0  0  0  0
    7.6190   -2.4538   24.1196 N   0  0  0  0  0  0  0  0  0  0  0  0
    8.2961   -2.0463   24.7545 H   0  0  0  0  0  0  0  0  0  0  0  0
    7.5124   -3.9115   24.2964 C   0  0  0  0  0  0  0  0  0  0  0  0
    8.6833   -4.6595   23.6327 C   0  0  0  0  0  0  0  0  0  0  0  0
    9.6431   -4.3747   24.0826 H   0  0  0  0  0  0  0  0  0  0  0  0
    8.5644   -5.7435   23.7440 H   0  0  0  0  0  0  0  0  0  0  0  0
    8.7321   -4.4254   22.5627 H   0  0  0  0  0  0  0  0  0  0  0  0
    7.4978   -4.1575   25.8048 C   0  0  0  0  0  0  0  0  0  0  0  0
    8.4432   -3.8456   26.2637 H   0  0  0  0  0  0  0  0  0  0  0  0
    7.3429   -5.2168   26.0414 H   0  0  0  0  0  0  0  0  0  0  0  0
    6.6885   -3.5816   26.2643 H   0  0  0  0  0  0  0  0  0  0  0  0
    6.1790   -4.3279   23.6762 C   0  0  0  0  0  0  0  0  0  0  0  0
    5.3802   -3.7278   24.1226 H   0  0  0  0  0  0  0  0  0  0  0  0
    6.1812   -4.1128   22.6058 H   0  0  0  0  0  0  0  0  0  0  0  0
    5.9594   -5.3918   23.8297 H   0  0  0  0  0  0  0  0  0  0  0  0
    6.8103   -1.6569   21.7177 C   0  0  0  0  0  0  0  0  0  0  0  0
    5.7255   -2.1565   21.4550 O   0  0  0  0  0  0  0  0  0  0  0  0
    7.4437   -0.7383   20.8753 N   0  0  0  0  0  0  0  0  0  0  0  0
    6.7619   -0.0298   19.8555 C   0  0  0  0  0  0  0  0  0  0  0  0
    7.2651    0.0771   18.5401 C   0  0  0  0  0  0  0  0  0  0  0  0
    8.2133   -0.3987   18.2993 H   0  0  0  0  0  0  0  0  0  0  0  0
    6.6336    0.7129   17.5460 N   0  0  0  0  0  0  0  0  0  0  0  0
    5.4601    1.3004   17.8308 C   0  0  0  0  0  0  0  0  0  0  0  0
    4.9547    1.7947   17.0045 H   0  0  0  0  0  0  0  0  0  0  0  0
    4.8809    1.2734   19.1073 C   0  0  0  0  0  0  0  0  0  0  0  0
    3.9356    1.7724   19.2805 H   0  0  0  0  0  0  0  0  0  0  0  0
    5.5343    0.5909   20.1396 C   0  0  0  0  0  0  0  0  0  0  0  0
    5.1279    0.5297   21.1461 H   0  0  0  0  0  0  0  0  0  0  0  0
    8.8676   -0.6436   21.1572 C   0  0  0  0  0  0  0  0  0  0  0  0
    9.2036    0.3991   21.1846 H   0  0  0  0  0  0  0  0  0  0  0  0
    9.4511   -1.1811   20.3887 H   0  0  0  0  0  0  0  0  0  0  0  0
  1  2  1  0
  2  3  2  0
  3  4  1  0
  4  5  1  0
  4  6  1  0
  6  7  1  0
  7  8  1  0
  7  9  1  0
  7 10  1  0
  6 11  1  0
 11 12  1  0
 11 13  1  0
 11 14  1  0
  6 15  1  0
 15 16  1  0
 15 17  1  0
 15 18  1  0
  3 19  1  0
 19 20  2  0
 19 21  1  0
 21 22  1  0
 22 23  2  0
 23 24  1  0
 23 25  1  0
 25 26  2  0
 26 27  1  0
 26 28  1  0
 28 29  1  0
 28 30  2  0
 30 31  1  0
 21 32  1  0
 32 33  1  0
 32 34  1  0
 32  2  1  0
 30 22  1  0
M  END
>  <cnnaffinity>  (1) 
-4.75411

>  <filename>  (1) 
CC(C)(C)NC1=CCN(c2cccnc2)C1=O

$$$$
