
     RDKit          3D

 40 42  0  0  0  0  0  0  0  0999 V2000
   10.5168   -2.7204   22.5010 C   0  0  0  0  0  0  0  0  0  0  0  0
    9.0386   -3.1751   22.4352 C   0  0  0  0  0  0  0  0  0  0  0  0
    8.6390   -3.8855   23.7345 C   0  0  0  0  0  0  0  0  0  0  0  0
    7.5707   -4.1184   23.7620 H   0  0  0  0  0  0  0  0  0  0  0  0
    9.1824   -4.8330   23.8213 H   0  0  0  0  0  0  0  0  0  0  0  0
    8.8874   -3.2788   24.6126 H   0  0  0  0  0  0  0  0  0  0  0  0
    8.1835   -1.9790   22.1230 C   0  0  0  0  0  0  0  0  0  0  0  0
    7.7333   -1.7241   20.9116 N   0  0  0  0  0  0  0  0  0  0  0  0
    7.1942   -0.4801   21.0467 N   0  0  0  0  0  0  0  0  0  0  0  0
    6.5332    0.1313   19.9463 C   0  0  0  0  0  0  0  0  0  0  0  0
    5.3368    0.8437   20.1011 C   0  0  0  0  0  0  0  0  0  0  0  0
    4.7772    1.4362   18.9640 C   0  0  0  0  0  0  0  0  0  0  0  0
    5.4269    1.3037   17.7340 C   0  0  0  0  0  0  0  0  0  0  0  0
    6.5597    0.5991   17.5751 N   0  0  0  0  0  0  0  0  0  0  0  0
    7.0874    0.0174   18.6560 C   0  0  0  0  0  0  0  0  0  0  0  0
    7.9883   -0.5711   18.4972 H   0  0  0  0  0  0  0  0  0  0  0  0
    5.0289    1.7751   16.8388 H   0  0  0  0  0  0  0  0  0  0  0  0
    3.8604    2.0114   19.0255 H   0  0  0  0  0  0  0  0  0  0  0  0
    4.8435    0.9175   21.0714 H   0  0  0  0  0  0  0  0  0  0  0  0
    7.4536   -0.0185   22.3075 C   0  0  0  0  0  0  0  0  0  0  0  0
    7.5273    1.4462   22.6528 C   0  0  0  0  0  0  0  0  0  0  0  0
    8.6659    2.1907   21.8837 C   0  0  0  0  0  0  0  0  0  0  0  0
   10.0698    1.6827   22.1386 C   0  0  0  0  0  0  0  0  0  0  0  0
   10.5784    0.5901   21.4390 C   0  0  0  0  0  0  0  0  0  0  0  0
   11.8657    0.2090   21.7370 C   0  0  0  0  0  0  0  0  0  0  0  0
   12.6133    0.8407   22.6464 N   0  0  0  0  0  0  0  0  0  0  0  0
   12.0388    1.8680   23.2599 C   0  0  0  0  0  0  0  0  0  0  0  0
   10.8015    2.3243   23.0540 N   0  0  0  0  0  0  0  0  0  0  0  0
   12.6503    2.3926   23.9954 H   0  0  0  0  0  0  0  0  0  0  0  0
   12.3265   -0.6626   21.2556 H   0  0  0  0  0  0  0  0  0  0  0  0
    9.9653    0.0220   20.7533 H   0  0  0  0  0  0  0  0  0  0  0  0
    8.4478    2.1191   20.8096 H   0  0  0  0  0  0  0  0  0  0  0  0
    8.6519    3.2506   22.1540 H   0  0  0  0  0  0  0  0  0  0  0  0
    7.6804    1.5306   23.7347 H   0  0  0  0  0  0  0  0  0  0  0  0
    6.5722    1.9299   22.4240 H   0  0  0  0  0  0  0  0  0  0  0  0
    7.9951   -0.9829   23.0290 N   0  0  0  0  0  0  0  0  0  0  0  0
    8.8605   -3.8553   21.5969 H   0  0  0  0  0  0  0  0  0  0  0  0
   10.6112   -1.8655   23.1843 H   0  0  0  0  0  0  0  0  0  0  0  0
   11.1726   -3.4910   22.9087 H   0  0  0  0  0  0  0  0  0  0  0  0
   10.8984   -2.4438   21.5089 H   0  0  0  0  0  0  0  0  0  0  0  0
  1  2  1  0
  2  3  1  0
  3  4  1  0
  3  5  1  0
  3  6  1  0
  2  7  1  0
  7  8  2  0
  8  9  1  0
  9 10  1  0
 10 11  2  0
 11 12  1  0
 12 13  2  0
 13 14  1  0
 14 15  2  0
 15 16  1  0
 13 17  1  0
 12 18  1  0
 11 19  1  0
  9 20  1  0
 20 21  1  0
 21 22  1  0
 22 23  1  0
 23 24  2  0
 24 25  1  0
 25 26  2  0
 26 27  1  0
 27 28  2  0
 27 29  1  0
 25 30  1  0
 24 31  1  0
 22 32  1  0
 22 33  1  0
 21 34  1  0
 21 35  1  0
 20 36  2  0
  2 37  1  0
  1 38  1  0
  1 39  1  0
  1 40  1  0
 36  7  1  0
 15 10  1  0
 28 23  1  0
M  END
>  <cnnaffinity>  (1) 
-5.92901

>  <filename>  (1) 
CC(C)c1nc(CCc2ccncn2)n(-c2cccnc2)n1

$$$$
