
     RDKit          3D

 46 49  0  0  0  0  0  0  0  0999 V2000
    9.2113    1.6840   20.9425 C   0  0  0  0  0  0  0  0  0  0  0  0
    8.6772    1.0837   22.2424 C   0  0  0  0  0  0  0  0  0  0  0  0
    7.6737    2.0567   22.9323 C   0  0  0  0  0  0  0  0  0  0  0  0
    7.3098    1.6255   24.3159 C   0  0  0  0  0  0  0  0  0  0  0  0
    7.8888    1.7847   25.5545 C   0  0  0  0  0  0  0  0  0  0  0  0
    7.2815    0.9737   26.4837 N   0  0  0  0  0  0  0  0  0  0  0  0
    6.3497    0.3268   25.8329 C   0  0  0  0  0  0  0  0  0  0  0  0
    6.3062    0.7073   24.5326 N   0  0  0  0  0  0  0  0  0  0  0  0
    5.7078    0.3094   23.8256 H   0  0  0  0  0  0  0  0  0  0  0  0
    5.6890   -0.4339   26.2385 H   0  0  0  0  0  0  0  0  0  0  0  0
    8.7341    2.4062   25.8312 H   0  0  0  0  0  0  0  0  0  0  0  0
    6.7652    2.1432   22.3225 H   0  0  0  0  0  0  0  0  0  0  0  0
    8.1032    3.0624   22.9545 H   0  0  0  0  0  0  0  0  0  0  0  0
    8.1417   -0.3152   22.0515 C   0  0  0  0  0  0  0  0  0  0  0  0
    8.4245   -1.3511   22.8259 N   0  0  0  0  0  0  0  0  0  0  0  0
    7.8025   -2.3927   22.2137 C   0  0  0  0  0  0  0  0  0  0  0  0
    7.7127   -3.7520   22.8568 C   0  0  0  0  0  0  0  0  0  0  0  0
    7.5224   -4.9847   21.9418 C   0  0  0  0  0  0  0  0  0  0  0  0
    6.9850   -6.0771   22.8920 C   0  0  0  0  0  0  0  0  0  0  0  0
    6.2387   -5.3359   24.0341 C   0  0  0  0  0  0  0  0  0  0  0  0
    6.4807   -3.8333   23.7933 C   0  0  0  0  0  0  0  0  0  0  0  0
    6.6353   -3.2482   24.7079 H   0  0  0  0  0  0  0  0  0  0  0  0
    5.6175   -3.3884   23.2788 H   0  0  0  0  0  0  0  0  0  0  0  0
    5.1667   -5.5611   24.0302 H   0  0  0  0  0  0  0  0  0  0  0  0
    6.6145   -5.6468   25.0166 H   0  0  0  0  0  0  0  0  0  0  0  0
    6.3441   -6.8003   22.3718 H   0  0  0  0  0  0  0  0  0  0  0  0
    7.8182   -6.6602   23.3022 H   0  0  0  0  0  0  0  0  0  0  0  0
    6.7875   -4.7581   21.1582 H   0  0  0  0  0  0  0  0  0  0  0  0
    8.4403   -5.2989   21.4320 H   0  0  0  0  0  0  0  0  0  0  0  0
    8.6336   -3.8675   23.4447 H   0  0  0  0  0  0  0  0  0  0  0  0
    7.1631   -2.0720   21.1041 N   0  0  0  0  0  0  0  0  0  0  0  0
    7.3615   -0.7324   21.0053 N   0  0  0  0  0  0  0  0  0  0  0  0
    6.6828   -0.0257   19.9594 C   0  0  0  0  0  0  0  0  0  0  0  0
    5.4910    0.6741   20.1820 C   0  0  0  0  0  0  0  0  0  0  0  0
    4.8907    1.3228   19.0972 C   0  0  0  0  0  0  0  0  0  0  0  0
    5.5067    1.2504   17.8452 C   0  0  0  0  0  0  0  0  0  0  0  0
    6.6268    0.5449   17.6165 N   0  0  0  0  0  0  0  0  0  0  0  0
    7.1813   -0.1001   18.6510 C   0  0  0  0  0  0  0  0  0  0  0  0
    8.0614   -0.7051   18.4347 H   0  0  0  0  0  0  0  0  0  0  0  0
    5.0811    1.7631   16.9869 H   0  0  0  0  0  0  0  0  0  0  0  0
    3.9646    1.8753   19.2153 H   0  0  0  0  0  0  0  0  0  0  0  0
    5.0262    0.6869   21.1693 H   0  0  0  0  0  0  0  0  0  0  0  0
    9.5290    0.9396   22.9180 H   0  0  0  0  0  0  0  0  0  0  0  0
    8.4052    2.0486   20.2936 H   0  0  0  0  0  0  0  0  0  0  0  0
    9.7994    0.9392   20.3979 H   0  0  0  0  0  0  0  0  0  0  0  0
    9.8690    2.5343   21.1544 H   0  0  0  0  0  0  0  0  0  0  0  0
  1  2  1  0
  2  3  1  0
  3  4  1  0
  4  5  2  0
  5  6  1  0
  6  7  2  0
  7  8  1  0
  8  9  1  0
  7 10  1  0
  5 11  1  0
  3 12  1  0
  3 13  1  0
  2 14  1  0
 14 15  2  0
 15 16  1  0
 16 17  1  0
 17 18  1  0
 18 19  1  0
 19 20  1  0
 20 21  1  0
 21 22  1  0
 21 23  1  0
 20 24  1  0
 20 25  1  0
 19 26  1  0
 19 27  1  0
 18 28  1  0
 18 29  1  0
 17 30  1  0
 16 31  2  0
 31 32  1  0
 32 33  1  0
 33 34  2  0
 34 35  1  0
 35 36  2  0
 36 37  1  0
 37 38  2  0
 38 39  1  0
 36 40  1  0
 35 41  1  0
 34 42  1  0
  2 43  1  0
  1 44  1  0
  1 45  1  0
  1 46  1  0
  8  4  1  0
 32 14  1  0
 38 33  1  0
 21 17  1  0
M  END
>  <cnnaffinity>  (1) 
-6.44431

>  <filename>  (1) 
CC(Cc1cnc[nH]1)c1nc(C2CCCC2)nn1-c1cccnc1

$$$$
