
     RDKit          3D

 41 43  0  0  0  0  0  0  0  0999 V2000
    9.5702   -0.4539   25.2032 C   0  0  0  0  0  0  0  0  0  0  0  0
   10.5776   -0.1649   24.0825 C   0  0  0  0  0  0  0  0  0  0  0  0
   10.4196    1.2771   23.5864 C   0  0  0  0  0  0  0  0  0  0  0  0
   10.6135    1.9726   24.4095 H   0  0  0  0  0  0  0  0  0  0  0  0
    9.4089    1.4620   23.2074 H   0  0  0  0  0  0  0  0  0  0  0  0
   11.1356    1.4818   22.7841 H   0  0  0  0  0  0  0  0  0  0  0  0
   10.4633   -1.1771   22.9206 C   0  0  0  0  0  0  0  0  0  0  0  0
    9.1339   -1.1559   22.2210 C   0  0  0  0  0  0  0  0  0  0  0  0
    8.7659   -0.1756   21.4342 N   0  0  0  0  0  0  0  0  0  0  0  0
    7.5138   -0.5354   21.0682 N   0  0  0  0  0  0  0  0  0  0  0  0
    6.8111    0.0846   20.0311 C   0  0  0  0  0  0  0  0  0  0  0  0
    5.5148    0.5837   20.2130 C   0  0  0  0  0  0  0  0  0  0  0  0
    4.8896    1.1816   19.1156 C   0  0  0  0  0  0  0  0  0  0  0  0
    5.5369    1.2264   17.8746 C   0  0  0  0  0  0  0  0  0  0  0  0
    6.7782    0.7355   17.6939 N   0  0  0  0  0  0  0  0  0  0  0  0
    7.4043    0.2047   18.7625 C   0  0  0  0  0  0  0  0  0  0  0  0
    8.4129   -0.1808   18.6373 H   0  0  0  0  0  0  0  0  0  0  0  0
    5.0277    1.6763   17.0275 H   0  0  0  0  0  0  0  0  0  0  0  0
    3.9042    1.6279   19.2066 H   0  0  0  0  0  0  0  0  0  0  0  0
    5.0216    0.5386   21.1830 H   0  0  0  0  0  0  0  0  0  0  0  0
    7.2121   -1.7832   21.6072 C   0  0  0  0  0  0  0  0  0  0  0  0
    5.9573   -2.5642   21.2614 C   0  0  0  0  0  0  0  0  0  0  0  0
    5.7990   -3.9525   21.8832 C   0  0  0  0  0  0  0  0  0  0  0  0
    5.7691   -4.1144   23.2670 C   0  0  0  0  0  0  0  0  0  0  0  0
    5.5147   -5.3938   23.7773 C   0  0  0  0  0  0  0  0  0  0  0  0
    5.3220   -6.4754   22.9081 C   0  0  0  0  0  0  0  0  0  0  0  0
    5.3860   -6.3321   21.5787 N   0  0  0  0  0  0  0  0  0  0  0  0
    5.6205   -5.1034   21.0929 C   0  0  0  0  0  0  0  0  0  0  0  0
    5.6607   -4.9093   19.2289 Br  0  0  0  0  0  0  0  0  0  0  0  0
    5.1191   -7.4618   23.3205 H   0  0  0  0  0  0  0  0  0  0  0  0
    5.4465   -5.5617   24.8471 H   0  0  0  0  0  0  0  0  0  0  0  0
    5.9269   -3.2582   23.9201 H   0  0  0  0  0  0  0  0  0  0  0  0
    5.9510   -2.6576   20.1715 H   0  0  0  0  0  0  0  0  0  0  0  0
    5.0905   -1.9645   21.5406 H   0  0  0  0  0  0  0  0  0  0  0  0
    8.2115   -2.1889   22.3395 N   0  0  0  0  0  0  0  0  0  0  0  0
   10.6245   -2.1845   23.3070 H   0  0  0  0  0  0  0  0  0  0  0  0
   11.2537   -0.9745   22.1916 H   0  0  0  0  0  0  0  0  0  0  0  0
   11.5806   -0.2615   24.5107 H   0  0  0  0  0  0  0  0  0  0  0  0
    9.6779   -1.4830   25.5600 H   0  0  0  0  0  0  0  0  0  0  0  0
    9.7539    0.2212   26.0459 H   0  0  0  0  0  0  0  0  0  0  0  0
    8.5397   -0.3092   24.8625 H   0  0  0  0  0  0  0  0  0  0  0  0
  1  2  1  0
  2  3  1  0
  3  4  1  0
  3  5  1  0
  3  6  1  0
  2  7  1  0
  7  8  1  0
  8  9  2  0
  9 10  1  0
 10 11  1  0
 11 12  2  0
 12 13  1  0
 13 14  2  0
 14 15  1  0
 15 16  2  0
 16 17  1  0
 14 18  1  0
 13 19  1  0
 12 20  1  0
 10 21  1  0
 21 22  1  0
 22 23  1  0
 23 24  2  0
 24 25  1  0
 25 26  2  0
 26 27  1  0
 27 28  2  0
 28 29  1  0
 26 30  1  0
 25 31  1  0
 24 32  1  0
 22 33  1  0
 22 34  1  0
 21 35  2  0
  7 36  1  0
  7 37  1  0
  2 38  1  0
  1 39  1  0
  1 40  1  0
  1 41  1  0
 35  8  1  0
 16 11  1  0
 28 23  1  0
M  END
>  <cnnaffinity>  (1) 
-5.86561

>  <filename>  (1) 
CC(C)Cc1nc(Cc2cccnc2Br)n(-c2cccnc2)n1

$$$$
