
     RDKit          3D

 46 49  0  0  0  0  0  0  0  0999 V2000
    9.3822    1.9467   21.0930 C   0  0  0  0  0  0  0  0  0  0  0  0
    9.0097    1.9516   22.5795 C   0  0  0  0  0  0  0  0  0  0  0  0
    7.6479    1.2178   22.7873 C   0  0  0  0  0  0  0  0  0  0  0  0
    7.6573   -0.1896   22.2627 C   0  0  0  0  0  0  0  0  0  0  0  0
    8.2074   -1.1989   22.9113 N   0  0  0  0  0  0  0  0  0  0  0  0
    8.1906   -2.2075   22.0028 C   0  0  0  0  0  0  0  0  0  0  0  0
    8.6708   -3.5834   22.3015 C   0  0  0  0  0  0  0  0  0  0  0  0
    7.6954   -4.3787   23.1737 C   0  0  0  0  0  0  0  0  0  0  0  0
    8.0720   -5.8643   23.4128 C   0  0  0  0  0  0  0  0  0  0  0  0
    6.8161   -6.3126   22.6282 C   0  0  0  0  0  0  0  0  0  0  0  0
    6.4395   -4.8328   22.3842 C   0  0  0  0  0  0  0  0  0  0  0  0
    6.4667   -4.5548   21.3202 H   0  0  0  0  0  0  0  0  0  0  0  0
    5.4826   -4.4975   22.7921 H   0  0  0  0  0  0  0  0  0  0  0  0
    6.0832   -6.8973   23.1918 H   0  0  0  0  0  0  0  0  0  0  0  0
    7.0492   -6.8572   21.7068 H   0  0  0  0  0  0  0  0  0  0  0  0
    9.0085   -6.1718   22.9357 H   0  0  0  0  0  0  0  0  0  0  0  0
    8.1170   -6.1705   24.4648 H   0  0  0  0  0  0  0  0  0  0  0  0
    7.4750   -3.8401   24.1104 H   0  0  0  0  0  0  0  0  0  0  0  0
    8.7532   -4.0844   21.3318 H   0  0  0  0  0  0  0  0  0  0  0  0
    9.6541   -3.5176   22.7743 H   0  0  0  0  0  0  0  0  0  0  0  0
    7.6798   -1.8892   20.8329 N   0  0  0  0  0  0  0  0  0  0  0  0
    7.3045   -0.5958   21.0006 N   0  0  0  0  0  0  0  0  0  0  0  0
    6.6269    0.0582   19.9367 C   0  0  0  0  0  0  0  0  0  0  0  0
    5.4110    0.7202   20.1418 C   0  0  0  0  0  0  0  0  0  0  0  0
    4.8156    1.3473   19.0404 C   0  0  0  0  0  0  0  0  0  0  0  0
    5.4507    1.2978   17.7961 C   0  0  0  0  0  0  0  0  0  0  0  0
    6.5931    0.6222   17.5833 N   0  0  0  0  0  0  0  0  0  0  0  0
    7.1485    0.0004   18.6297 C   0  0  0  0  0  0  0  0  0  0  0  0
    8.0382   -0.5903   18.4260 H   0  0  0  0  0  0  0  0  0  0  0  0
    5.0248    1.8115   16.9345 H   0  0  0  0  0  0  0  0  0  0  0  0
    3.8661    1.8616   19.1388 H   0  0  0  0  0  0  0  0  0  0  0  0
    4.9210    0.6961   21.1162 H   0  0  0  0  0  0  0  0  0  0  0  0
    7.4216    1.1730   23.8564 H   0  0  0  0  0  0  0  0  0  0  0  0
    6.8556    1.7895   22.2973 H   0  0  0  0  0  0  0  0  0  0  0  0
    8.9794    3.3182   23.1441 N   0  0  0  0  0  0  0  0  0  0  0  0
    8.1864    4.3633   22.7823 C   0  0  0  0  0  0  0  0  0  0  0  0
    8.5360    5.4310   23.5825 C   0  0  0  0  0  0  0  0  0  0  0  0
    9.5727    4.9257   24.3928 C   0  0  0  0  0  0  0  0  0  0  0  0
    9.8336    3.6559   24.1277 N   0  0  0  0  0  0  0  0  0  0  0  0
   10.1468    5.4413   25.1562 H   0  0  0  0  0  0  0  0  0  0  0  0
    8.1036    6.4256   23.5977 H   0  0  0  0  0  0  0  0  0  0  0  0
    7.4574    4.2929   21.9794 H   0  0  0  0  0  0  0  0  0  0  0  0
    9.7798    1.4321   23.1626 H   0  0  0  0  0  0  0  0  0  0  0  0
    8.5791    2.4116   20.5047 H   0  0  0  0  0  0  0  0  0  0  0  0
    9.5002    0.9145   20.7434 H   0  0  0  0  0  0  0  0  0  0  0  0
   10.3199    2.4777   20.9070 H   0  0  0  0  0  0  0  0  0  0  0  0
  1  2  1  0
  2  3  1  0
  3  4  1  0
  4  5  2  0
  5  6  1  0
  6  7  1  0
  7  8  1  0
  8  9  1  0
  9 10  1  0
 10 11  1  0
 11 12  1  0
 11 13  1  0
 10 14  1  0
 10 15  1  0
  9 16  1  0
  9 17  1  0
  8 18  1  0
  7 19  1  0
  7 20  1  0
  6 21  2  0
 21 22  1  0
 22 23  1  0
 23 24  2  0
 24 25  1  0
 25 26  2  0
 26 27  1  0
 27 28  2  0
 28 29  1  0
 26 30  1  0
 25 31  1  0
 24 32  1  0
  3 33  1  0
  3 34  1  0
  2 35  1  0
 35 36  1  0
 36 37  2  0
 37 38  1  0
 38 39  2  0
 38 40  1  0
 37 41  1  0
 36 42  1  0
  2 43  1  0
  1 44  1  0
  1 45  1  0
  1 46  1  0
 22  4  1  0
 28 23  1  0
 39 35  1  0
 11  8  1  0
M  END
>  <cnnaffinity>  (1) 
-5.9356

>  <filename>  (1) 
CC(Cc1nc(CC2CCC2)nn1-c1cccnc1)n1cccn1

$$$$
