
     RDKit          3D

 46 48  0  0  0  0  0  0  0  0999 V2000
    8.0626   -1.5611   26.8967 C   0  0  0  0  0  0  0  0  0  0  0  0
    7.0577   -2.1185   25.8868 C   0  0  0  0  0  0  0  0  0  0  0  0
    6.4764   -0.9500   25.0778 C   0  0  0  0  0  0  0  0  0  0  0  0
    5.8403   -1.2927   24.2620 H   0  0  0  0  0  0  0  0  0  0  0  0
    7.2678   -0.3350   24.6380 H   0  0  0  0  0  0  0  0  0  0  0  0
    5.8758   -0.3139   25.7333 H   0  0  0  0  0  0  0  0  0  0  0  0
    5.9515   -2.9128   26.5852 C   0  0  0  0  0  0  0  0  0  0  0  0
    5.2748   -3.3629   25.8514 H   0  0  0  0  0  0  0  0  0  0  0  0
    6.3877   -3.7210   27.1790 H   0  0  0  0  0  0  0  0  0  0  0  0
    5.3556   -2.2753   27.2449 H   0  0  0  0  0  0  0  0  0  0  0  0
    7.8238   -3.0629   25.1119 O   0  0  0  0  0  0  0  0  0  0  0  0
    7.4160   -3.4188   23.8069 C   0  0  0  0  0  0  0  0  0  0  0  0
    7.6774   -2.3524   22.7698 C   0  0  0  0  0  0  0  0  0  0  0  0
    6.8272   -2.0817   21.7968 N   0  0  0  0  0  0  0  0  0  0  0  0
    7.4032   -1.0153   21.1733 N   0  0  0  0  0  0  0  0  0  0  0  0
    6.7285   -0.3961   20.0769 C   0  0  0  0  0  0  0  0  0  0  0  0
    5.5081    0.2525   20.2787 C   0  0  0  0  0  0  0  0  0  0  0  0
    4.9446    0.9319   19.1946 C   0  0  0  0  0  0  0  0  0  0  0  0
    5.5899    0.8877   17.9511 C   0  0  0  0  0  0  0  0  0  0  0  0
    6.7271    0.2124   17.7387 N   0  0  0  0  0  0  0  0  0  0  0  0
    7.2852   -0.4105   18.7865 C   0  0  0  0  0  0  0  0  0  0  0  0
    8.2207   -0.9367   18.6034 H   0  0  0  0  0  0  0  0  0  0  0  0
    5.1794    1.4245   17.0974 H   0  0  0  0  0  0  0  0  0  0  0  0
    4.0452    1.5252   19.3125 H   0  0  0  0  0  0  0  0  0  0  0  0
    5.0646    0.3002   21.2745 H   0  0  0  0  0  0  0  0  0  0  0  0
    8.5631   -0.6974   21.8225 C   0  0  0  0  0  0  0  0  0  0  0  0
    9.4464    0.5045   21.6375 C   0  0  0  0  0  0  0  0  0  0  0  0
    8.9743    1.7102   22.4463 C   0  0  0  0  0  0  0  0  0  0  0  0
    9.4119    2.0084   23.7472 C   0  0  0  0  0  0  0  0  0  0  0  0
   10.2936    1.1780   24.3434 F   0  0  0  0  0  0  0  0  0  0  0  0
    8.9568    3.1096   24.4714 C   0  0  0  0  0  0  0  0  0  0  0  0
    8.0074    3.9584   23.8920 C   0  0  0  0  0  0  0  0  0  0  0  0
    7.5093    3.6873   22.6119 C   0  0  0  0  0  0  0  0  0  0  0  0
    7.9944    2.5716   21.9405 C   0  0  0  0  0  0  0  0  0  0  0  0
    7.4769    2.2791   20.7293 F   0  0  0  0  0  0  0  0  0  0  0  0
    6.7876    4.3155   22.0985 H   0  0  0  0  0  0  0  0  0  0  0  0
    7.6306    4.8111   24.4523 H   0  0  0  0  0  0  0  0  0  0  0  0
    9.3493    3.2748   25.4700 H   0  0  0  0  0  0  0  0  0  0  0  0
    9.5123    0.7620   20.5746 H   0  0  0  0  0  0  0  0  0  0  0  0
   10.4385    0.1902   21.9828 H   0  0  0  0  0  0  0  0  0  0  0  0
    8.7673   -1.5497   22.8063 N   0  0  0  0  0  0  0  0  0  0  0  0
    6.3512   -3.6880   23.7360 H   0  0  0  0  0  0  0  0  0  0  0  0
    8.0026   -4.3067   23.5549 H   0  0  0  0  0  0  0  0  0  0  0  0
    8.5680   -2.3740   27.4231 H   0  0  0  0  0  0  0  0  0  0  0  0
    8.8261   -0.9576   26.3884 H   0  0  0  0  0  0  0  0  0  0  0  0
    7.5576   -0.9252   27.6330 H   0  0  0  0  0  0  0  0  0  0  0  0
  1  2  1  0
  2  3  1  0
  3  4  1  0
  3  5  1  0
  3  6  1  0
  2  7  1  0
  7  8  1  0
  7  9  1  0
  7 10  1  0
  2 11  1  0
 11 12  1  0
 12 13  1  0
 13 14  2  0
 14 15  1  0
 15 16  1  0
 16 17  2  0
 17 18  1  0
 18 19  2  0
 19 20  1  0
 20 21  2  0
 21 22  1  0
 19 23  1  0
 18 24  1  0
 17 25  1  0
 15 26  1  0
 26 27  1  0
 27 28  1  0
 28 29  2  0
 29 30  1  0
 29 31  1  0
 31 32  2  0
 32 33  1  0
 33 34  2  0
 34 35  1  0
 33 36  1  0
 32 37  1  0
 31 38  1  0
 27 39  1  0
 27 40  1  0
 26 41  2  0
 12 42  1  0
 12 43  1  0
  1 44  1  0
  1 45  1  0
  1 46  1  0
 41 13  1  0
 21 16  1  0
 34 28  1  0
M  END
>  <cnnaffinity>  (1) 
-6.11169

>  <filename>  (1) 
CC(C)(C)OCc1nc(Cc2c(F)cccc2F)n(-c2cccnc2)n1

$$$$
