
     RDKit          3D

 43 45  0  0  0  0  0  0  0  0999 V2000
    6.6770   -4.2999   23.0542 C   0  0  0  0  0  0  0  0  0  0  0  0
    7.4143   -3.0526   23.5816 C   0  0  0  0  0  0  0  0  0  0  0  0
    6.6507   -2.4020   24.7663 C   0  0  0  0  0  0  0  0  0  0  0  0
    7.1970   -1.5488   25.1896 H   0  0  0  0  0  0  0  0  0  0  0  0
    5.6653   -2.0382   24.4441 H   0  0  0  0  0  0  0  0  0  0  0  0
    6.4994   -3.1304   25.5726 H   0  0  0  0  0  0  0  0  0  0  0  0
    7.6568   -2.0570   22.4761 C   0  0  0  0  0  0  0  0  0  0  0  0
    6.7109   -1.6294   21.6572 N   0  0  0  0  0  0  0  0  0  0  0  0
    7.3551   -0.6908   20.9165 N   0  0  0  0  0  0  0  0  0  0  0  0
    6.6553   -0.0032   19.8901 C   0  0  0  0  0  0  0  0  0  0  0  0
    5.4403    0.6351   20.1575 C   0  0  0  0  0  0  0  0  0  0  0  0
    4.8087    1.3088   19.1063 C   0  0  0  0  0  0  0  0  0  0  0  0
    5.3951    1.2973   17.8362 C   0  0  0  0  0  0  0  0  0  0  0  0
    6.5490    0.6666   17.5703 N   0  0  0  0  0  0  0  0  0  0  0  0
    7.1608    0.0399   18.5812 C   0  0  0  0  0  0  0  0  0  0  0  0
    8.1042   -0.4500   18.3470 H   0  0  0  0  0  0  0  0  0  0  0  0
    4.9300    1.8075   16.9957 H   0  0  0  0  0  0  0  0  0  0  0  0
    3.8769    1.8420   19.2558 H   0  0  0  0  0  0  0  0  0  0  0  0
    5.0157    0.5975   21.1623 H   0  0  0  0  0  0  0  0  0  0  0  0
    8.6382   -0.5675   21.3706 C   0  0  0  0  0  0  0  0  0  0  0  0
    9.5902    0.5164   20.9929 C   0  0  0  0  0  0  0  0  0  0  0  0
    9.4965    1.7995   21.8716 C   0  0  0  0  0  0  0  0  0  0  0  0
    8.1681    2.5151   21.6675 C   0  0  0  0  0  0  0  0  0  0  0  0
    8.1626    3.4818   22.1831 H   0  0  0  0  0  0  0  0  0  0  0  0
    7.3182    1.9272   22.0357 H   0  0  0  0  0  0  0  0  0  0  0  0
    8.0454    2.6354   20.5954 H   0  0  0  0  0  0  0  0  0  0  0  0
    9.7572    1.5483   23.2838 N   0  0  0  0  0  0  0  0  0  0  0  0
    8.8369    1.1652   24.2257 C   0  0  0  0  0  0  0  0  0  0  0  0
    9.4948    0.8454   25.3841 C   0  0  0  0  0  0  0  0  0  0  0  0
   10.8847    1.0160   25.1285 C   0  0  0  0  0  0  0  0  0  0  0  0
   11.0070    1.4481   23.8366 C   0  0  0  0  0  0  0  0  0  0  0  0
   11.8717    1.6854   23.2337 H   0  0  0  0  0  0  0  0  0  0  0  0
   11.7038    0.7841   25.7897 H   0  0  0  0  0  0  0  0  0  0  0  0
    9.0325    0.5053   26.3034 H   0  0  0  0  0  0  0  0  0  0  0  0
    7.8025    1.0676   23.9371 H   0  0  0  0  0  0  0  0  0  0  0  0
   10.3112    2.4634   21.5513 H   0  0  0  0  0  0  0  0  0  0  0  0
   10.5954    0.0946   21.0428 H   0  0  0  0  0  0  0  0  0  0  0  0
    9.3979    0.8038   19.9606 H   0  0  0  0  0  0  0  0  0  0  0  0
    8.8641   -1.4623   22.3107 N   0  0  0  0  0  0  0  0  0  0  0  0
    8.4254   -3.3219   23.9159 H   0  0  0  0  0  0  0  0  0  0  0  0
    6.5532   -5.0400   23.8531 H   0  0  0  0  0  0  0  0  0  0  0  0
    5.6833   -4.0224   22.6766 H   0  0  0  0  0  0  0  0  0  0  0  0
    7.2285   -4.7701   22.2310 H   0  0  0  0  0  0  0  0  0  0  0  0
  1  2  1  0
  2  3  1  0
  3  4  1  0
  3  5  1  0
  3  6  1  0
  2  7  1  0
  7  8  2  0
  8  9  1  0
  9 10  1  0
 10 11  2  0
 11 12  1  0
 12 13  2  0
 13 14  1  0
 14 15  2  0
 15 16  1  0
 13 17  1  0
 12 18  1  0
 11 19  1  0
  9 20  1  0
 20 21  1  0
 21 22  1  0
 22 23  1  0
 23 24  1  0
 23 25  1  0
 23 26  1  0
 22 27  1  0
 27 28  1  0
 28 29  2  0
 29 30  1  0
 30 31  2  0
 31 32  1  0
 30 33  1  0
 29 34  1  0
 28 35  1  0
 22 36  1  0
 21 37  1  0
 21 38  1  0
 20 39  2  0
  2 40  1  0
  1 41  1  0
  1 42  1  0
  1 43  1  0
 39  7  1  0
 15 10  1  0
 31 27  1  0
M  END
>  <cnnaffinity>  (1) 
-5.6725

>  <filename>  (1) 
CC(C)c1nc(CC(C)n2cccc2)n(-c2cccnc2)n1

$$$$
