
     RDKit          3D

 38 40  0  0  0  0  0  0  0  0999 V2000
    8.2893   -3.8315   23.7683 C   0  0  0  0  0  0  0  0  0  0  0  0
    8.9845   -3.0621   22.6265 C   0  0  0  0  0  0  0  0  0  0  0  0
   10.3968   -2.7023   23.1144 C   0  0  0  0  0  0  0  0  0  0  0  0
   10.9661   -3.6195   23.2676 H   0  0  0  0  0  0  0  0  0  0  0  0
   10.3626   -2.1616   24.0671 H   0  0  0  0  0  0  0  0  0  0  0  0
   10.9250   -2.0856   22.3814 H   0  0  0  0  0  0  0  0  0  0  0  0
    8.2552   -1.8250   22.1377 C   0  0  0  0  0  0  0  0  0  0  0  0
    7.6875   -1.7147   20.9541 N   0  0  0  0  0  0  0  0  0  0  0  0
    7.1825   -0.4526   20.9620 N   0  0  0  0  0  0  0  0  0  0  0  0
    6.5330    0.1361   19.8621 C   0  0  0  0  0  0  0  0  0  0  0  0
    5.4929    1.0621   20.0155 C   0  0  0  0  0  0  0  0  0  0  0  0
    4.9381    1.6370   18.8678 C   0  0  0  0  0  0  0  0  0  0  0  0
    5.4444    1.2940   17.6057 C   0  0  0  0  0  0  0  0  0  0  0  0
    6.4175    0.3778   17.4473 N   0  0  0  0  0  0  0  0  0  0  0  0
    6.9337   -0.1950   18.5550 C   0  0  0  0  0  0  0  0  0  0  0  0
    7.7320   -0.9184   18.4311 H   0  0  0  0  0  0  0  0  0  0  0  0
    5.0224    1.7769   16.7296 H   0  0  0  0  0  0  0  0  0  0  0  0
    4.1342    2.3649   18.9423 H   0  0  0  0  0  0  0  0  0  0  0  0
    5.1173    1.3266   21.0019 H   0  0  0  0  0  0  0  0  0  0  0  0
    7.5033    0.1566   22.1715 C   0  0  0  0  0  0  0  0  0  0  0  0
    7.2438    1.5901   22.5937 C   0  0  0  0  0  0  0  0  0  0  0  0
    7.5751    1.7558   24.0673 C   0  0  0  0  0  0  0  0  0  0  0  0
    8.9193    1.6776   24.4478 C   0  0  0  0  0  0  0  0  0  0  0  0
    9.2184    1.6000   25.8032 C   0  0  0  0  0  0  0  0  0  0  0  0
    8.1830    1.6436   26.7376 C   0  0  0  0  0  0  0  0  0  0  0  0
    6.8951    1.7810   26.3808 N   0  0  0  0  0  0  0  0  0  0  0  0
    6.5855    1.8191   25.0735 C   0  0  0  0  0  0  0  0  0  0  0  0
    4.7300    1.8696   24.5888 Br  0  0  0  0  0  0  0  0  0  0  0  0
    8.4129    1.5512   27.7915 H   0  0  0  0  0  0  0  0  0  0  0  0
   10.2411    1.4632   26.1409 H   0  0  0  0  0  0  0  0  0  0  0  0
    9.7034    1.6257   23.6946 H   0  0  0  0  0  0  0  0  0  0  0  0
    7.8604    2.2651   21.9878 H   0  0  0  0  0  0  0  0  0  0  0  0
    6.1993    1.8372   22.3991 H   0  0  0  0  0  0  0  0  0  0  0  0
    8.1696   -0.6869   22.9105 N   0  0  0  0  0  0  0  0  0  0  0  0
    9.0519   -3.7360   21.7768 H   0  0  0  0  0  0  0  0  0  0  0  0
    8.8950   -4.7112   24.0210 H   0  0  0  0  0  0  0  0  0  0  0  0
    7.2911   -4.1775   23.4713 H   0  0  0  0  0  0  0  0  0  0  0  0
    8.2009   -3.2131   24.6688 H   0  0  0  0  0  0  0  0  0  0  0  0
  1  2  1  0
  2  3  1  0
  3  4  1  0
  3  5  1  0
  3  6  1  0
  2  7  1  0
  7  8  2  0
  8  9  1  0
  9 10  1  0
 10 11  2  0
 11 12  1  0
 12 13  2  0
 13 14  1  0
 14 15  2  0
 15 16  1  0
 13 17  1  0
 12 18  1  0
 11 19  1  0
  9 20  1  0
 20 21  1  0
 21 22  1  0
 22 23  2  0
 23 24  1  0
 24 25  2  0
 25 26  1  0
 26 27  2  0
 27 28  1  0
 25 29  1  0
 24 30  1  0
 23 31  1  0
 21 32  1  0
 21 33  1  0
 20 34  2  0
  2 35  1  0
  1 36  1  0
  1 37  1  0
  1 38  1  0
 34  7  1  0
 15 10  1  0
 27 22  1  0
M  END
>  <cnnaffinity>  (1) 
-5.8092

>  <filename>  (1) 
CC(C)c1nc(Cc2cccnc2Br)n(-c2cccnc2)n1

$$$$
