
     RDKit          3D

 38 40  0  0  0  0  0  0  0  0999 V2000
    4.9764    1.7657   17.0206 H   0  0  0  0  0  0  0  0  0  0  0  0
    5.4362    1.2723   17.8746 C   0  0  0  0  0  0  0  0  0  0  0  0
    6.5934    0.6441   17.6337 N   0  0  0  0  0  0  0  0  0  0  0  0
    7.1868    0.0144   18.6438 C   0  0  0  0  0  0  0  0  0  0  0  0
    8.1303   -0.4754   18.4056 H   0  0  0  0  0  0  0  0  0  0  0  0
    6.6334   -0.0017   19.9151 C   0  0  0  0  0  0  0  0  0  0  0  0
    7.4916   -0.8961   21.1403 S   0  0  0  0  0  0  0  0  0  0  0  0
    6.4704   -1.4547   22.0210 O   0  0  0  0  0  0  0  0  0  0  0  0
    8.4168   -1.7857   20.4461 O   0  0  0  0  0  0  0  0  0  0  0  0
    8.5504    0.4135   22.0803 C   0  0  0  0  0  0  0  0  0  0  0  0
    7.7130    1.6752   22.4071 C   0  0  0  0  0  0  0  0  0  0  0  0
    7.9029    2.8616   21.7033 C   0  0  0  0  0  0  0  0  0  0  0  0
    8.6547    2.9209   20.9218 H   0  0  0  0  0  0  0  0  0  0  0  0
    7.2097    4.0155   21.8768 N   0  0  0  0  0  0  0  0  0  0  0  0
    6.2590    4.0244   22.7796 C   0  0  0  0  0  0  0  0  0  0  0  0
    5.7058    4.9550   22.9016 H   0  0  0  0  0  0  0  0  0  0  0  0
    5.9254    2.9034   23.5989 C   0  0  0  0  0  0  0  0  0  0  0  0
    4.8799    2.9784   24.5703 C   0  0  0  0  0  0  0  0  0  0  0  0
    4.3456    3.9196   24.6853 H   0  0  0  0  0  0  0  0  0  0  0  0
    4.5648    1.8880   25.3432 C   0  0  0  0  0  0  0  0  0  0  0  0
    3.7681    1.9516   26.0803 H   0  0  0  0  0  0  0  0  0  0  0  0
    5.2813    0.6784   25.1790 C   0  0  0  0  0  0  0  0  0  0  0  0
    5.0196   -0.1901   25.7769 H   0  0  0  0  0  0  0  0  0  0  0  0
    6.3013    0.5833   24.2498 C   0  0  0  0  0  0  0  0  0  0  0  0
    6.7891   -0.3690   24.1076 H   0  0  0  0  0  0  0  0  0  0  0  0
    6.6683    1.6920   23.4221 C   0  0  0  0  0  0  0  0  0  0  0  0
    9.1455   -0.2616   23.3679 C   0  0  0  0  0  0  0  0  0  0  0  0
    8.6437   -1.1959   23.6343 H   0  0  0  0  0  0  0  0  0  0  0  0
    9.0909    0.4062   24.2332 H   0  0  0  0  0  0  0  0  0  0  0  0
   10.2083   -0.5043   23.2366 H   0  0  0  0  0  0  0  0  0  0  0  0
    9.7413    0.7231   21.1407 C   0  0  0  0  0  0  0  0  0  0  0  0
    9.4174    1.0454   20.1495 H   0  0  0  0  0  0  0  0  0  0  0  0
   10.3466   -0.1786   21.0084 H   0  0  0  0  0  0  0  0  0  0  0  0
   10.3817    1.4972   21.5785 H   0  0  0  0  0  0  0  0  0  0  0  0
    5.4271    0.6409   20.1930 C   0  0  0  0  0  0  0  0  0  0  0  0
    4.9822    0.6425   21.1944 H   0  0  0  0  0  0  0  0  0  0  0  0
    4.8232    1.2997   19.1300 C   0  0  0  0  0  0  0  0  0  0  0  0
    3.8906    1.8338   19.2525 H   0  0  0  0  0  0  0  0  0  0  0  0
  1  2  1  0
  2  3  2  0
  3  4  1  0
  4  5  1  0
  4  6  2  0
  6  7  1  0
  7  8  2  0
  7  9  2  0
  7 10  1  0
 10 11  1  0
 11 12  2  0
 12 13  1  0
 12 14  1  0
 14 15  2  0
 15 16  1  0
 15 17  1  0
 17 18  2  0
 18 19  1  0
 18 20  1  0
 20 21  1  0
 20 22  2  0
 22 23  1  0
 22 24  1  0
 24 25  1  0
 24 26  2  0
 10 27  1  0
 27 28  1  0
 27 29  1  0
 27 30  1  0
 10 31  1  0
 31 32  1  0
 31 33  1  0
 31 34  1  0
  6 35  1  0
 35 36  1  0
 35 37  2  0
 37 38  1  0
 37  2  1  0
 26 11  1  0
 26 17  1  0
M  END
>  <cnnaffinity>  (1) 
-4.87386

>  <filename>  (1) 
CC(C)(c1cncc2ccccc12)S(=O)(=O)c1cccnc1

$$$$
