
     RDKit          3D

 43 45  0  0  0  0  0  0  0  0999 V2000
    5.0426    1.8073   16.7038 H   0  0  0  0  0  0  0  0  0  0  0  0
    5.4862    1.3482   17.5835 C   0  0  0  0  0  0  0  0  0  0  0  0
    6.5945    0.6214   17.3684 N   0  0  0  0  0  0  0  0  0  0  0  0
    7.1870    0.0620   18.4284 C   0  0  0  0  0  0  0  0  0  0  0  0
    8.0957   -0.5066   18.2343 H   0  0  0  0  0  0  0  0  0  0  0  0
    6.6980    0.1782   19.7485 C   0  0  0  0  0  0  0  0  0  0  0  0
    7.4216   -0.3933   20.8688 N   0  0  0  0  0  0  0  0  0  0  0  0
    6.8048   -1.3193   21.7126 C   0  0  0  0  0  0  0  0  0  0  0  0
    5.7523   -1.5199   21.5102 H   0  0  0  0  0  0  0  0  0  0  0  0
    7.4888   -1.9842   22.6865 C   0  0  0  0  0  0  0  0  0  0  0  0
    6.8713   -3.0254   23.5461 C   0  0  0  0  0  0  0  0  0  0  0  0
    5.6847   -2.8055   24.2626 C   0  0  0  0  0  0  0  0  0  0  0  0
    5.3348   -1.7946   24.4161 H   0  0  0  0  0  0  0  0  0  0  0  0
    4.9838   -3.8569   24.8527 C   0  0  0  0  0  0  0  0  0  0  0  0
    4.0324   -3.6469   25.3299 H   0  0  0  0  0  0  0  0  0  0  0  0
    5.4657   -5.1758   24.8078 C   0  0  0  0  0  0  0  0  0  0  0  0
    4.6891   -6.3754   25.4066 C   0  0  0  0  0  0  0  0  0  0  0  0
    3.2457   -6.0509   25.8668 C   0  0  0  0  0  0  0  0  0  0  0  0
    2.8155   -6.9459   26.3335 H   0  0  0  0  0  0  0  0  0  0  0  0
    3.1899   -5.2416   26.6028 H   0  0  0  0  0  0  0  0  0  0  0  0
    2.6038   -5.7931   25.0146 H   0  0  0  0  0  0  0  0  0  0  0  0
    4.5107   -7.4818   24.3320 C   0  0  0  0  0  0  0  0  0  0  0  0
    4.0049   -8.3555   24.7630 H   0  0  0  0  0  0  0  0  0  0  0  0
    3.8834   -7.0985   23.5151 H   0  0  0  0  0  0  0  0  0  0  0  0
    5.4447   -7.8257   23.8808 H   0  0  0  0  0  0  0  0  0  0  0  0
    5.4758   -6.8900   26.6407 C   0  0  0  0  0  0  0  0  0  0  0  0
    5.0220   -7.7917   27.0716 H   0  0  0  0  0  0  0  0  0  0  0  0
    6.5170   -7.1207   26.3887 H   0  0  0  0  0  0  0  0  0  0  0  0
    5.4937   -6.1246   27.4300 H   0  0  0  0  0  0  0  0  0  0  0  0
    6.7488   -5.3541   24.2380 C   0  0  0  0  0  0  0  0  0  0  0  0
    7.2508   -6.3119   24.2607 H   0  0  0  0  0  0  0  0  0  0  0  0
    7.4427   -4.3061   23.6402 C   0  0  0  0  0  0  0  0  0  0  0  0
    8.4490   -4.4545   23.2675 H   0  0  0  0  0  0  0  0  0  0  0  0
    8.9354   -1.7162   22.8203 C   0  0  0  0  0  0  0  0  0  0  0  0
    9.7766   -2.3639   23.4054 O   0  0  0  0  0  0  0  0  0  0  0  0
    9.3564   -0.5691   22.1780 N   0  0  0  0  0  0  0  0  0  0  0  0
   10.3506   -0.4599   22.1753 H   0  0  0  0  0  0  0  0  0  0  0  0
    8.7774   -0.0339   21.0709 C   0  0  0  0  0  0  0  0  0  0  0  0
    9.4267    0.6762   20.3364 O   0  0  0  0  0  0  0  0  0  0  0  0
    5.5108    0.8918   19.9504 C   0  0  0  0  0  0  0  0  0  0  0  0
    5.0933    0.9734   20.9557 H   0  0  0  0  0  0  0  0  0  0  0  0
    4.9071    1.5064   18.8457 C   0  0  0  0  0  0  0  0  0  0  0  0
    4.0123    2.1094   18.9512 H   0  0  0  0  0  0  0  0  0  0  0  0
  1  2  1  0
  2  3  2  0
  3  4  1  0
  4  5  1  0
  4  6  2  0
  6  7  1  0
  7  8  1  0
  8  9  1  0
  8 10  2  0
 10 11  1  0
 11 12  2  0
 12 13  1  0
 12 14  1  0
 14 15  1  0
 14 16  2  0
 16 17  1  0
 17 18  1  0
 18 19  1  0
 18 20  1  0
 18 21  1  0
 17 22  1  0
 22 23  1  0
 22 24  1  0
 22 25  1  0
 17 26  1  0
 26 27  1  0
 26 28  1  0
 26 29  1  0
 16 30  1  0
 30 31  1  0
 30 32  2  0
 32 33  1  0
 10 34  1  0
 34 35  2  0
 34 36  1  0
 36 37  1  0
 36 38  1  0
 38 39  2  0
  6 40  1  0
 40 41  1  0
 40 42  2  0
 42 43  1  0
 42  2  1  0
 38  7  1  0
 32 11  1  0
M  END
>  <cnnaffinity>  (1) 
-5.41376

>  <filename>  (1) 
CC(C)(C)c1ccc(-c2cn(-c3cccnc3)c(=O)[nH]c2=O)cc1

$$$$
