
     RDKit          3D

 29 29  0  0  0  0  0  0  0  0999 V2000
    6.8273    0.5289   22.5496 H   0  0  0  0  0  0  0  0  0  0  0  0
    7.3651   -0.3685   22.2529 C   0  0  0  0  0  0  0  0  0  0  0  0
    7.3713   -0.6862   20.9640 C   0  0  0  0  0  0  0  0  0  0  0  0
    8.1362   -1.7148   20.5223 F   0  0  0  0  0  0  0  0  0  0  0  0
    6.6449   -0.0045   19.8911 C   0  0  0  0  0  0  0  0  0  0  0  0
    7.1681    0.0386   18.5885 C   0  0  0  0  0  0  0  0  0  0  0  0
    8.1236   -0.4319   18.3625 H   0  0  0  0  0  0  0  0  0  0  0  0
    6.5683    0.6735   17.5781 N   0  0  0  0  0  0  0  0  0  0  0  0
    5.4042    1.2917   17.8355 C   0  0  0  0  0  0  0  0  0  0  0  0
    4.9264    1.7843   16.9947 H   0  0  0  0  0  0  0  0  0  0  0  0
    4.8049    1.3113   19.0974 C   0  0  0  0  0  0  0  0  0  0  0  0
    3.8789    1.8425   19.2534 H   0  0  0  0  0  0  0  0  0  0  0  0
    5.4313    0.6547   20.1497 C   0  0  0  0  0  0  0  0  0  0  0  0
    5.0035    0.6320   21.1532 H   0  0  0  0  0  0  0  0  0  0  0  0
    8.1243   -1.1333   23.2868 C   0  0  0  0  0  0  0  0  0  0  0  0
    9.1935   -1.1289   23.0236 H   0  0  0  0  0  0  0  0  0  0  0  0
    7.8222   -2.2030   23.2452 H   0  0  0  0  0  0  0  0  0  0  0  0
    7.9684   -0.4990   24.5835 N   0  0  0  0  0  0  0  0  0  0  0  0
    7.0030   -0.6285   24.8766 H   0  0  0  0  0  0  0  0  0  0  0  0
    8.8345   -1.0437   25.6223 C   0  0  0  0  0  0  0  0  0  0  0  0
    9.8396   -1.0943   25.1799 H   0  0  0  0  0  0  0  0  0  0  0  0
    8.8899   -0.0694   26.7895 C   0  0  0  0  0  0  0  0  0  0  0  0
    9.5993   -0.4170   27.5491 H   0  0  0  0  0  0  0  0  0  0  0  0
    7.9029    0.0241   27.2591 H   0  0  0  0  0  0  0  0  0  0  0  0
    9.2009    0.9207   26.4432 H   0  0  0  0  0  0  0  0  0  0  0  0
    8.4242   -2.4476   26.0744 C   0  0  0  0  0  0  0  0  0  0  0  0
    7.3982   -2.4350   26.4664 H   0  0  0  0  0  0  0  0  0  0  0  0
    9.0851   -2.8056   26.8705 H   0  0  0  0  0  0  0  0  0  0  0  0
    8.4667   -3.1697   25.2514 H   0  0  0  0  0  0  0  0  0  0  0  0
  1  2  1  0
  2  3  2  3
  3  4  1  0
  3  5  1  0
  5  6  2  0
  6  7  1  0
  6  8  1  0
  8  9  2  0
  9 10  1  0
  9 11  1  0
 11 12  1  0
 11 13  2  0
 13 14  1  0
  2 15  1  0
 15 16  1  0
 15 17  1  0
 15 18  1  0
 18 19  1  0
 18 20  1  0
 20 21  1  0
 20 22  1  0
 22 23  1  0
 22 24  1  0
 22 25  1  0
 20 26  1  0
 26 27  1  0
 26 28  1  0
 26 29  1  0
 13  5  1  0
M  END
>  <cnnaffinity>  (1) 
-4.21603

>  <filename>  (1) 
CC(C)NCC=C(F)c1cccnc1

$$$$
