
     RDKit          3D

 41 43  0  0  0  0  0  0  0  0999 V2000
    8.3418   -4.2097   23.4577 C   0  0  0  0  0  0  0  0  0  0  0  0
    8.9779   -3.3042   22.3920 C   0  0  0  0  0  0  0  0  0  0  0  0
   10.4058   -2.8774   22.8300 C   0  0  0  0  0  0  0  0  0  0  0  0
   10.9358   -3.7056   23.3151 H   0  0  0  0  0  0  0  0  0  0  0  0
   10.3728   -2.0322   23.5305 H   0  0  0  0  0  0  0  0  0  0  0  0
   11.0207   -2.5561   21.9868 H   0  0  0  0  0  0  0  0  0  0  0  0
    8.1353   -2.1083   22.0412 C   0  0  0  0  0  0  0  0  0  0  0  0
    7.8182   -1.8034   20.7964 N   0  0  0  0  0  0  0  0  0  0  0  0
    7.1946   -0.6034   20.9249 N   0  0  0  0  0  0  0  0  0  0  0  0
    6.5470    0.0249   19.8297 C   0  0  0  0  0  0  0  0  0  0  0  0
    5.3330    0.6924   20.0284 C   0  0  0  0  0  0  0  0  0  0  0  0
    4.7617    1.3615   18.9458 C   0  0  0  0  0  0  0  0  0  0  0  0
    5.4126    1.3278   17.7107 C   0  0  0  0  0  0  0  0  0  0  0  0
    6.5555    0.6494   17.5040 N   0  0  0  0  0  0  0  0  0  0  0  0
    7.1030    0.0006   18.5378 C   0  0  0  0  0  0  0  0  0  0  0  0
    8.0215   -0.5497   18.3411 H   0  0  0  0  0  0  0  0  0  0  0  0
    5.0035    1.8581   16.8537 H   0  0  0  0  0  0  0  0  0  0  0  0
    3.8386    1.9146   19.0631 H   0  0  0  0  0  0  0  0  0  0  0  0
    4.8549    0.6827   21.0075 H   0  0  0  0  0  0  0  0  0  0  0  0
    7.2551   -0.2168   22.2355 C   0  0  0  0  0  0  0  0  0  0  0  0
    6.9795    1.1569   22.7739 C   0  0  0  0  0  0  0  0  0  0  0  0
    8.1295    1.6242   23.6360 C   0  0  0  0  0  0  0  0  0  0  0  0
    8.1535    1.3676   25.0093 C   0  0  0  0  0  0  0  0  0  0  0  0
    9.3237    1.6463   25.7151 C   0  0  0  0  0  0  0  0  0  0  0  0
   10.3974    2.2051   25.1602 N   0  0  0  0  0  0  0  0  0  0  0  0
   10.3595    2.5182   23.8553 C   0  0  0  0  0  0  0  0  0  0  0  0
   11.5928    3.2342   23.2664 C   0  0  0  0  0  0  0  0  0  0  0  0
   12.4977    2.3512   22.8059 F   0  0  0  0  0  0  0  0  0  0  0  0
   12.2226    4.0251   24.1449 F   0  0  0  0  0  0  0  0  0  0  0  0
   11.2530    4.0195   22.2274 F   0  0  0  0  0  0  0  0  0  0  0  0
    9.2667    2.1813   23.0419 C   0  0  0  0  0  0  0  0  0  0  0  0
    9.3101    2.3338   21.9693 H   0  0  0  0  0  0  0  0  0  0  0  0
    9.4027    1.4080   26.7699 H   0  0  0  0  0  0  0  0  0  0  0  0
    7.3156    0.9142   25.5264 H   0  0  0  0  0  0  0  0  0  0  0  0
    6.8420    1.8665   21.9519 H   0  0  0  0  0  0  0  0  0  0  0  0
    6.0600    1.1179   23.3691 H   0  0  0  0  0  0  0  0  0  0  0  0
    7.7765   -1.1858   22.9622 N   0  0  0  0  0  0  0  0  0  0  0  0
    8.9932   -3.8483   21.4455 H   0  0  0  0  0  0  0  0  0  0  0  0
    8.9422   -5.1244   23.5359 H   0  0  0  0  0  0  0  0  0  0  0  0
    8.3293   -3.7323   24.4461 H   0  0  0  0  0  0  0  0  0  0  0  0
    7.3193   -4.4937   23.1842 H   0  0  0  0  0  0  0  0  0  0  0  0
  1  2  1  0
  2  3  1  0
  3  4  1  0
  3  5  1  0
  3  6  1  0
  2  7  1  0
  7  8  2  0
  8  9  1  0
  9 10  1  0
 10 11  2  0
 11 12  1  0
 12 13  2  0
 13 14  1  0
 14 15  2  0
 15 16  1  0
 13 17  1  0
 12 18  1  0
 11 19  1  0
  9 20  1  0
 20 21  1  0
 21 22  1  0
 22 23  2  0
 23 24  1  0
 24 25  2  0
 25 26  1  0
 26 27  1  0
 27 28  1  0
 27 29  1  0
 27 30  1  0
 26 31  2  0
 31 32  1  0
 24 33  1  0
 23 34  1  0
 21 35  1  0
 21 36  1  0
 20 37  2  0
  2 38  1  0
  1 39  1  0
  1 40  1  0
  1 41  1  0
 37  7  1  0
 15 10  1  0
 31 22  1  0
M  END
>  <cnnaffinity>  (1) 
-6.39586

>  <filename>  (1) 
CC(C)c1nc(Cc2ccnc(C(F)(F)F)c2)n(-c2cccnc2)n1

$$$$
