
     RDKit          3D

 44 46  0  0  0  0  0  0  0  0999 V2000
   10.5347   -0.0832   24.8092 C   0  0  0  0  0  0  0  0  0  0  0  0
    9.0669    0.2943   24.8578 C   0  0  0  0  0  0  0  0  0  0  0  0
    8.7551    1.3802   25.8701 C   0  0  0  0  0  0  0  0  0  0  0  0
    7.3426    1.8566   25.6867 C   0  0  0  0  0  0  0  0  0  0  0  0
    6.9810    2.6760   24.6047 C   0  0  0  0  0  0  0  0  0  0  0  0
    5.6854    3.1877   24.5369 C   0  0  0  0  0  0  0  0  0  0  0  0
    4.8045    2.8678   25.5701 C   0  0  0  0  0  0  0  0  0  0  0  0
    5.2379    2.0042   26.5784 C   0  0  0  0  0  0  0  0  0  0  0  0
    6.4516    1.4335   26.5898 N   0  0  0  0  0  0  0  0  0  0  0  0
    4.5823    1.7831   27.4210 H   0  0  0  0  0  0  0  0  0  0  0  0
    3.8041    3.2763   25.6066 H   0  0  0  0  0  0  0  0  0  0  0  0
    5.3814    3.8333   23.7096 H   0  0  0  0  0  0  0  0  0  0  0  0
    7.7199    2.9231   23.8539 H   0  0  0  0  0  0  0  0  0  0  0  0
    9.4486    2.2261   25.7891 H   0  0  0  0  0  0  0  0  0  0  0  0
    8.8486    0.9772   26.8826 H   0  0  0  0  0  0  0  0  0  0  0  0
    8.2051   -0.8762   25.2715 N   0  0  0  0  0  4  0  0  0  0  0  0
    8.0702   -2.0533   24.2926 C   0  0  0  0  0  0  0  0  0  0  0  0
    9.1725   -3.0872   24.5508 C   0  0  0  0  0  0  0  0  0  0  0  0
    9.1657   -3.3679   25.6105 H   0  0  0  0  0  0  0  0  0  0  0  0
   10.1684   -2.7095   24.3010 H   0  0  0  0  0  0  0  0  0  0  0  0
    9.0024   -3.9927   23.9653 H   0  0  0  0  0  0  0  0  0  0  0  0
    7.9282   -1.6208   22.8284 C   0  0  0  0  0  0  0  0  0  0  0  0
    6.9365   -0.9238   22.2227 C   0  0  0  0  0  0  0  0  0  0  0  0
    7.3909   -0.7194   20.8875 C   0  0  0  0  0  0  0  0  0  0  0  0
    6.6778    0.0164   19.8184 C   0  0  0  0  0  0  0  0  0  0  0  0
    5.4649    0.6773   20.0749 C   0  0  0  0  0  0  0  0  0  0  0  0
    4.8233    1.3339   19.0285 C   0  0  0  0  0  0  0  0  0  0  0  0
    5.4143    1.3270   17.7633 C   0  0  0  0  0  0  0  0  0  0  0  0
    6.5726    0.7066   17.4990 N   0  0  0  0  0  0  0  0  0  0  0  0
    7.1855    0.0721   18.5065 C   0  0  0  0  0  0  0  0  0  0  0  0
    8.1267   -0.4111   18.2539 H   0  0  0  0  0  0  0  0  0  0  0  0
    4.9399    1.8412   16.9288 H   0  0  0  0  0  0  0  0  0  0  0  0
    3.8824    1.8489   19.1782 H   0  0  0  0  0  0  0  0  0  0  0  0
    5.0305    0.6934   21.0769 H   0  0  0  0  0  0  0  0  0  0  0  0
    8.5714   -1.2780   20.7169 N   0  0  0  0  0  0  0  0  0  0  0  0
    8.9052   -1.8460   21.9319 O   0  0  0  0  0  0  0  0  0  0  0  0
    6.0405   -0.5607   22.6904 H   0  0  0  0  0  0  0  0  0  0  0  0
    7.1063   -2.5147   24.5280 H   0  0  0  0  0  0  0  0  0  0  0  0
    8.6821   -1.2444   26.1305 H   0  0  0  0  0  0  0  0  0  0  0  0
    7.2842   -0.4898   25.5949 H   0  0  0  0  0  0  0  0  0  0  0  0
    8.7703    0.6187   23.8553 H   0  0  0  0  0  0  0  0  0  0  0  0
   10.7186   -0.7336   23.9496 H   0  0  0  0  0  0  0  0  0  0  0  0
   11.1740    0.7995   24.7238 H   0  0  0  0  0  0  0  0  0  0  0  0
   10.8045   -0.6196   25.7233 H   0  0  0  0  0  0  0  0  0  0  0  0
  1  2  1  0
  2  3  1  0
  3  4  1  0
  4  5  2  0
  5  6  1  0
  6  7  2  0
  7  8  1  0
  8  9  2  0
  8 10  1  0
  7 11  1  0
  6 12  1  0
  5 13  1  0
  3 14  1  0
  3 15  1  0
  2 16  1  0
 16 17  1  0
 17 18  1  0
 18 19  1  0
 18 20  1  0
 18 21  1  0
 17 22  1  0
 22 23  2  0
 23 24  1  0
 24 25  1  0
 25 26  2  0
 26 27  1  0
 27 28  2  0
 28 29  1  0
 29 30  2  0
 30 31  1  0
 28 32  1  0
 27 33  1  0
 26 34  1  0
 24 35  2  0
 35 36  1  0
 23 37  1  0
 17 38  1  0
 16 39  1  0
 16 40  1  0
  2 41  1  0
  1 42  1  0
  1 43  1  0
  1 44  1  0
  9  4  1  0
 36 22  1  0
 30 25  1  0
M  CHG  1  16   1
M  END
>  <cnnaffinity>  (1) 
-5.35096

>  <filename>  (1) 
CC(Cc1ccccn1)[NH2+]C(C)c1cc(-c2cccnc2)no1

$$$$
