
     RDKit          3D

 45 47  0  0  0  0  0  0  0  0999 V2000
    4.9854    1.8382   17.0181 H   0  0  0  0  0  0  0  0  0  0  0  0
    5.4600    1.3038   17.8375 C   0  0  0  0  0  0  0  0  0  0  0  0
    6.6217    0.6935   17.5596 N   0  0  0  0  0  0  0  0  0  0  0  0
    7.2276    0.0358   18.5587 C   0  0  0  0  0  0  0  0  0  0  0  0
    8.1622   -0.4569   18.3019 H   0  0  0  0  0  0  0  0  0  0  0  0
    6.7340   -0.0682   19.8897 C   0  0  0  0  0  0  0  0  0  0  0  0
    7.3903   -0.8321   20.8643 N   0  0  0  0  0  0  0  0  0  0  0  0
    6.9465   -0.8646   22.2623 C   0  0  1  0  0  0  0  0  0  0  0  0
    5.8729   -1.0352   22.2895 H   0  0  0  0  0  0  0  0  0  0  0  0
    7.7222   -2.0794   22.7994 C   0  0  0  0  0  0  0  0  0  0  0  0
    7.9092   -1.9980   23.8733 H   0  0  0  0  0  0  0  0  0  0  0  0
    7.1265   -2.9847   22.6469 H   0  0  0  0  0  0  0  0  0  0  0  0
    9.0125   -2.1127   21.9383 C   0  0  0  0  0  0  0  0  0  0  0  0
    9.9309   -2.0436   22.5272 H   0  0  0  0  0  0  0  0  0  0  0  0
    9.0667   -3.0437   21.3667 H   0  0  0  0  0  0  0  0  0  0  0  0
    8.8559   -0.9179   20.9746 C   0  0  2  0  0  0  0  0  0  0  0  0
    9.3097   -1.1310   19.9987 H   0  0  0  0  0  0  0  0  0  0  0  0
    9.4086    0.4194   21.5219 C   0  0  0  0  0  0  0  0  0  0  0  0
   10.4976    0.3463   21.6162 H   0  0  0  0  0  0  0  0  0  0  0  0
    9.2045    1.1839   20.7588 H   0  0  0  0  0  0  0  0  0  0  0  0
    8.7760    0.8699   22.8677 C   0  0  2  0  0  0  0  0  0  0  0  0
    8.7914    1.9640   22.8573 H   0  0  0  0  0  0  0  0  0  0  0  0
    9.5700    0.4395   24.1153 C   0  0  0  0  0  0  0  0  0  0  0  0
    9.0050    0.7472   25.0098 H   0  0  0  0  0  0  0  0  0  0  0  0
    9.6280   -0.6541   24.1687 H   0  0  0  0  0  0  0  0  0  0  0  0
   10.9926    1.0108   24.2218 C   0  0  0  0  0  0  0  0  0  0  0  0
   11.6301    0.5420   23.4584 H   0  0  0  0  0  0  0  0  0  0  0  0
   11.3953    0.6844   25.1921 H   0  0  0  0  0  0  0  0  0  0  0  0
   11.1577    2.5539   24.0885 C   0  0  0  0  0  0  0  0  0  0  0  0
   12.0688    2.7970   24.6465 H   0  0  0  0  0  0  0  0  0  0  0  0
   10.0028    3.3617   24.7110 C   0  0  0  0  0  0  0  0  0  0  0  0
   10.2602    4.4250   24.7802 H   0  0  0  0  0  0  0  0  0  0  0  0
    9.0993    3.3178   24.0957 H   0  0  0  0  0  0  0  0  0  0  0  0
    9.7123    3.0287   25.7144 H   0  0  0  0  0  0  0  0  0  0  0  0
   11.4128    3.0378   22.6449 C   0  0  0  0  0  0  0  0  0  0  0  0
   11.7690    4.0790   22.6355 H   0  0  0  0  0  0  0  0  0  0  0  0
   12.1660    2.4256   22.1326 H   0  0  0  0  0  0  0  0  0  0  0  0
   10.5033    3.0155   22.0321 H   0  0  0  0  0  0  0  0  0  0  0  0
    7.2852    0.4641   22.9709 C   0  0  0  0  0  0  0  0  0  0  0  0
    6.9841    0.3924   24.0222 H   0  0  0  0  0  0  0  0  0  0  0  0
    6.6726    1.2561   22.5265 H   0  0  0  0  0  0  0  0  0  0  0  0
    5.5041    0.5845   20.1408 C   0  0  0  0  0  0  0  0  0  0  0  0
    5.0744    0.5673   21.1381 H   0  0  0  0  0  0  0  0  0  0  0  0
    4.8677    1.2698   19.1028 C   0  0  0  0  0  0  0  0  0  0  0  0
    3.9282    1.7845   19.2766 H   0  0  0  0  0  0  0  0  0  0  0  0
  1  2  1  0
  2  3  2  0
  3  4  1  0
  4  5  1  0
  4  6  2  0
  6  7  1  0
  7  8  1  0
  8  9  1  6
  8 10  1  0
 10 11  1  0
 10 12  1  0
 10 13  1  0
 13 14  1  0
 13 15  1  0
 13 16  1  0
 16 17  1  6
 16 18  1  0
 18 19  1  0
 18 20  1  0
 18 21  1  0
 21 22  1  6
 21 23  1  0
 23 24  1  0
 23 25  1  0
 23 26  1  0
 26 27  1  0
 26 28  1  0
 26 29  1  0
 29 30  1  0
 29 31  1  0
 31 32  1  0
 31 33  1  0
 31 34  1  0
 29 35  1  0
 35 36  1  0
 35 37  1  0
 35 38  1  0
 21 39  1  0
 39 40  1  0
 39 41  1  0
  6 42  1  0
 42 43  1  0
 42 44  2  0
 44 45  1  0
 44  2  1  0
 16  7  1  0
 39  8  1  0
M  END
>  <cnnaffinity>  (1) 
-5.7302

>  <filename>  (1) 
CC(C)CC[C@H]1C[C@H]2CC[C@@H](C1)N2c1cccnc1

$$$$
