
     RDKit          3D

 47 50  0  0  0  0  0  0  0  0999 V2000
    8.1072    1.8952   24.8745 C   0  0  0  0  0  0  0  0  0  0  0  0
    7.7895    2.8060   23.6760 C   0  0  0  0  0  0  0  0  0  0  0  0
    7.2764    2.0074   22.4458 C   0  0  0  0  0  0  0  0  0  0  0  0
    8.2895    1.0028   21.9929 C   0  0  0  0  0  0  0  0  0  0  0  0
    9.5778    1.1979   22.1683 N   0  0  0  0  0  0  0  0  0  0  0  0
   10.1414    0.0071   21.8685 C   0  0  0  0  0  0  0  0  0  0  0  0
   11.5827   -0.1308   22.0948 C   0  0  0  0  0  0  0  0  0  0  0  0
   12.4083   -1.0996   21.4988 C   0  0  0  0  0  0  0  0  0  0  0  0
   13.7741   -0.9799   21.7084 C   0  0  0  0  0  0  0  0  0  0  0  0
   14.6070   -1.8305   21.0976 F   0  0  0  0  0  0  0  0  0  0  0  0
   14.2788    0.0584   22.4971 C   0  0  0  0  0  0  0  0  0  0  0  0
   13.4902    0.9517   23.1042 N   0  0  0  0  0  0  0  0  0  0  0  0
   12.1760    0.8660   22.8928 C   0  0  0  0  0  0  0  0  0  0  0  0
   11.5593    1.6314   23.3535 H   0  0  0  0  0  0  0  0  0  0  0  0
   15.3417    0.1896   22.5880 H   0  0  0  0  0  0  0  0  0  0  0  0
   12.0314   -1.8947   20.8635 H   0  0  0  0  0  0  0  0  0  0  0  0
    9.2863   -0.9038   21.4402 N   0  0  0  0  0  0  0  0  0  0  0  0
    8.0913   -0.2471   21.5111 N   0  0  0  0  0  0  0  0  0  0  0  0
    6.8469   -0.8280   21.0127 C   0  0  0  0  0  0  0  0  0  0  0  0
    6.2634   -0.0303   19.8641 C   0  0  0  0  0  0  0  0  0  0  0  0
    5.0828    0.7141   19.9588 C   0  0  0  0  0  0  0  0  0  0  0  0
    4.6695    1.4603   18.8499 C   0  0  0  0  0  0  0  0  0  0  0  0
    5.4570    1.4438   17.6967 C   0  0  0  0  0  0  0  0  0  0  0  0
    6.5889    0.7311   17.5849 N   0  0  0  0  0  0  0  0  0  0  0  0
    6.9721    0.0230   18.6530 C   0  0  0  0  0  0  0  0  0  0  0  0
    7.9022   -0.5380   18.5508 H   0  0  0  0  0  0  0  0  0  0  0  0
    5.1643    2.0197   16.8196 H   0  0  0  0  0  0  0  0  0  0  0  0
    3.7666    2.0603   18.8698 H   0  0  0  0  0  0  0  0  0  0  0  0
    4.4938    0.7147   20.8784 H   0  0  0  0  0  0  0  0  0  0  0  0
    7.0908   -1.8477   20.7010 H   0  0  0  0  0  0  0  0  0  0  0  0
    6.1205   -0.8944   21.8353 H   0  0  0  0  0  0  0  0  0  0  0  0
    7.0814    2.7041   21.6227 H   0  0  0  0  0  0  0  0  0  0  0  0
    6.3265    1.5123   22.6793 H   0  0  0  0  0  0  0  0  0  0  0  0
    6.8320    3.9073   24.0717 C   0  0  0  0  0  0  0  0  0  0  0  0
    7.2294    5.2523   24.0389 C   0  0  0  0  0  0  0  0  0  0  0  0
    6.3311    6.2421   24.4364 C   0  0  0  0  0  0  0  0  0  0  0  0
    5.0534    5.8534   24.8512 C   0  0  0  0  0  0  0  0  0  0  0  0
    4.6537    4.5779   24.9064 N   0  0  0  0  0  0  0  0  0  0  0  0
    5.5315    3.6367   24.5287 C   0  0  0  0  0  0  0  0  0  0  0  0
    5.1776    2.6056   24.6014 H   0  0  0  0  0  0  0  0  0  0  0  0
    4.3200    6.5960   25.1611 H   0  0  0  0  0  0  0  0  0  0  0  0
    6.6054    7.2905   24.4209 H   0  0  0  0  0  0  0  0  0  0  0  0
    8.2380    5.5037   23.7039 H   0  0  0  0  0  0  0  0  0  0  0  0
    8.7318    3.2882   23.3761 H   0  0  0  0  0  0  0  0  0  0  0  0
    7.2161    1.3530   25.2108 H   0  0  0  0  0  0  0  0  0  0  0  0
    8.8669    1.1531   24.6095 H   0  0  0  0  0  0  0  0  0  0  0  0
    8.4813    2.4847   25.7177 H   0  0  0  0  0  0  0  0  0  0  0  0
  1  2  1  0
  2  3  1  0
  3  4  1  0
  4  5  2  0
  5  6  1  0
  6  7  1  0
  7  8  2  0
  8  9  1  0
  9 10  1  0
  9 11  2  0
 11 12  1  0
 12 13  2  0
 13 14  1  0
 11 15  1  0
  8 16  1  0
  6 17  2  0
 17 18  1  0
 18 19  1  0
 19 20  1  0
 20 21  2  0
 21 22  1  0
 22 23  2  0
 23 24  1  0
 24 25  2  0
 25 26  1  0
 23 27  1  0
 22 28  1  0
 21 29  1  0
 19 30  1  0
 19 31  1  0
  3 32  1  0
  3 33  1  0
  2 34  1  0
 34 35  2  0
 35 36  1  0
 36 37  2  0
 37 38  1  0
 38 39  2  0
 39 40  1  0
 37 41  1  0
 36 42  1  0
 35 43  1  0
  2 44  1  0
  1 45  1  0
  1 46  1  0
  1 47  1  0
 18  4  1  0
 25 20  1  0
 39 34  1  0
 13  7  1  0
M  END
>  <cnnaffinity>  (1) 
-6.68776

>  <filename>  (1) 
CC(Cc1nc(-c2cncc(F)c2)nn1Cc1cccnc1)c1cccnc1

$$$$
