
     RDKit          3D

 46 49  0  0  0  0  0  0  0  0999 V2000
   11.3294    0.1409   23.8228 C   0  0  0  0  0  0  0  0  0  0  0  0
   11.4183    1.6205   23.4058 C   0  0  0  0  0  0  0  0  0  0  0  0
   12.5690    1.8676   22.4127 C   0  0  0  0  0  0  0  0  0  0  0  0
   12.4226    1.3227   21.4737 H   0  0  0  0  0  0  0  0  0  0  0  0
   13.5245    1.5473   22.8436 H   0  0  0  0  0  0  0  0  0  0  0  0
   12.6489    2.9314   22.1668 H   0  0  0  0  0  0  0  0  0  0  0  0
   10.1213    2.2185   22.9139 C   0  0  0  0  0  0  0  0  0  0  0  0
    9.5688    3.2764   23.4596 N   0  0  0  0  0  0  0  0  0  0  0  0
    8.4449    3.5399   22.7230 C   0  0  0  0  0  0  0  0  0  0  0  0
    8.3062    2.6274   21.7228 C   0  0  0  0  0  0  0  0  0  0  0  0
    9.3947    1.7797   21.8265 N   0  0  0  0  0  0  0  0  0  0  0  0
    9.5390    0.5834   20.9971 C   0  0  0  0  0  0  0  0  0  0  0  0
    8.6135   -0.5187   21.4169 C   0  0  0  0  0  0  0  0  0  0  0  0
    8.8401   -1.3841   22.3790 N   0  0  0  0  0  0  0  0  0  0  0  0
    7.6549   -2.0385   22.5096 C   0  0  0  0  0  0  0  0  0  0  0  0
    7.4389   -3.0836   23.5416 C   0  0  0  0  0  0  0  0  0  0  0  0
    8.4590   -3.4159   24.4564 C   0  0  0  0  0  0  0  0  0  0  0  0
    8.2127   -4.4029   25.4058 C   0  0  0  0  0  0  0  0  0  0  0  0
    9.1799   -4.7204   26.2743 F   0  0  0  0  0  0  0  0  0  0  0  0
    7.0033   -5.0833   25.4996 C   0  0  0  0  0  0  0  0  0  0  0  0
    6.0193   -4.7272   24.5836 C   0  0  0  0  0  0  0  0  0  0  0  0
    4.8422   -5.3597   24.6443 F   0  0  0  0  0  0  0  0  0  0  0  0
    6.1995   -3.7504   23.6112 C   0  0  0  0  0  0  0  0  0  0  0  0
    5.3877   -3.5115   22.9298 H   0  0  0  0  0  0  0  0  0  0  0  0
    6.8350   -5.8499   26.2494 H   0  0  0  0  0  0  0  0  0  0  0  0
    9.4316   -2.9325   24.4493 H   0  0  0  0  0  0  0  0  0  0  0  0
    6.7244   -1.6450   21.6567 N   0  0  0  0  0  0  0  0  0  0  0  0
    7.3481   -0.6824   20.9353 N   0  0  0  0  0  0  0  0  0  0  0  0
    6.6546    0.0060   19.9006 C   0  0  0  0  0  0  0  0  0  0  0  0
    5.4376    0.6427   20.1655 C   0  0  0  0  0  0  0  0  0  0  0  0
    4.8105    1.3093   19.1083 C   0  0  0  0  0  0  0  0  0  0  0  0
    5.4005    1.2957   17.8383 C   0  0  0  0  0  0  0  0  0  0  0  0
    6.5594    0.6729   17.5782 N   0  0  0  0  0  0  0  0  0  0  0  0
    7.1682    0.0501   18.5927 C   0  0  0  0  0  0  0  0  0  0  0  0
    8.1122   -0.4394   18.3646 H   0  0  0  0  0  0  0  0  0  0  0  0
    4.9196    1.7860   16.9948 H   0  0  0  0  0  0  0  0  0  0  0  0
    3.8796    1.8396   19.2603 H   0  0  0  0  0  0  0  0  0  0  0  0
    5.0152    0.6144   21.1743 H   0  0  0  0  0  0  0  0  0  0  0  0
   10.5634    0.2127   21.0482 H   0  0  0  0  0  0  0  0  0  0  0  0
    9.3550    0.8727   19.9615 H   0  0  0  0  0  0  0  0  0  0  0  0
    7.5428    2.4836   20.9695 H   0  0  0  0  0  0  0  0  0  0  0  0
    7.8097    4.3851   22.9580 H   0  0  0  0  0  0  0  0  0  0  0  0
   11.6314    2.2016   24.3119 H   0  0  0  0  0  0  0  0  0  0  0  0
   12.1831   -0.1198   24.4591 H   0  0  0  0  0  0  0  0  0  0  0  0
   11.3298   -0.5449   22.9687 H   0  0  0  0  0  0  0  0  0  0  0  0
   10.4123   -0.0537   24.3886 H   0  0  0  0  0  0  0  0  0  0  0  0
  1  2  1  0
  2  3  1  0
  3  4  1  0
  3  5  1  0
  3  6  1  0
  2  7  1  0
  7  8  2  0
  8  9  1  0
  9 10  2  0
 10 11  1  0
 11 12  1  0
 12 13  1  0
 13 14  2  0
 14 15  1  0
 15 16  1  0
 16 17  2  0
 17 18  1  0
 18 19  1  0
 18 20  2  0
 20 21  1  0
 21 22  1  0
 21 23  2  0
 23 24  1  0
 20 25  1  0
 17 26  1  0
 15 27  2  0
 27 28  1  0
 28 29  1  0
 29 30  2  0
 30 31  1  0
 31 32  2  0
 32 33  1  0
 33 34  2  0
 34 35  1  0
 32 36  1  0
 31 37  1  0
 30 38  1  0
 12 39  1  0
 12 40  1  0
 10 41  1  0
  9 42  1  0
  2 43  1  0
  1 44  1  0
  1 45  1  0
  1 46  1  0
 11  7  1  0
 28 13  1  0
 34 29  1  0
 23 16  1  0
M  END
>  <cnnaffinity>  (1) 
-6.65609

>  <filename>  (1) 
CC(C)c1nccn1Cc1nc(-c2cc(F)cc(F)c2)nn1-c1cccnc1

$$$$
