
     RDKit          3D

 49 52  0  0  0  0  0  0  0  0999 V2000
    7.5258    0.5018   28.4028 C   0  0  0  0  0  0  0  0  0  0  0  0
    8.1399   -0.0890   27.1276 C   0  0  0  0  0  0  0  0  0  0  0  0
    8.1091   -1.6223   27.0893 C   0  0  0  0  0  0  0  0  0  0  0  0
    7.0786   -1.9945   27.0753 H   0  0  0  0  0  0  0  0  0  0  0  0
    8.6273   -2.0054   26.2053 H   0  0  0  0  0  0  0  0  0  0  0  0
    8.6131   -2.0230   27.9655 H   0  0  0  0  0  0  0  0  0  0  0  0
    7.5321    0.4819   25.9191 N   0  0  0  0  0  0  0  0  0  0  0  0
    8.1999    1.1596   24.9614 C   0  0  0  0  0  0  0  0  0  0  0  0
    7.3264    1.3986   23.9271 C   0  0  0  0  0  0  0  0  0  0  0  0
    7.7688    1.9493   22.5840 C   0  0  0  0  0  0  0  0  0  0  0  0
    8.7997    1.0392   21.9886 C   0  0  0  0  0  0  0  0  0  0  0  0
   10.1068    1.1056   22.1908 N   0  0  0  0  0  0  0  0  0  0  0  0
   10.5253   -0.1399   21.8611 C   0  0  0  0  0  0  0  0  0  0  0  0
   11.9158   -0.5928   21.8178 C   0  0  0  0  0  0  0  0  0  0  0  0
   13.0201    0.1733   22.2284 C   0  0  0  0  0  0  0  0  0  0  0  0
   14.2840   -0.1366   21.7210 C   0  0  0  0  0  0  0  0  0  0  0  0
   14.3774   -1.1601   20.7599 C   0  0  0  0  0  0  0  0  0  0  0  0
   15.4005   -1.2201   19.9014 F   0  0  0  0  0  0  0  0  0  0  0  0
   13.3548   -2.0667   20.5409 C   0  0  0  0  0  0  0  0  0  0  0  0
   12.1325   -1.7959   21.1292 C   0  0  0  0  0  0  0  0  0  0  0  0
   11.2651   -2.4308   21.0102 H   0  0  0  0  0  0  0  0  0  0  0  0
   13.5149   -2.8980   19.8605 H   0  0  0  0  0  0  0  0  0  0  0  0
   15.1270    0.5003   21.9709 H   0  0  0  0  0  0  0  0  0  0  0  0
   12.8849    1.0543   22.8559 H   0  0  0  0  0  0  0  0  0  0  0  0
    9.5519   -0.9429   21.4468 N   0  0  0  0  0  0  0  0  0  0  0  0
    8.4575   -0.1732   21.5053 N   0  0  0  0  0  0  0  0  0  0  0  0
    7.1864   -0.7262   21.0553 C   0  0  0  0  0  0  0  0  0  0  0  0
    6.5350    0.0374   19.9264 C   0  0  0  0  0  0  0  0  0  0  0  0
    5.3058    0.6849   20.0723 C   0  0  0  0  0  0  0  0  0  0  0  0
    4.7531    1.3553   18.9791 C   0  0  0  0  0  0  0  0  0  0  0  0
    5.4522    1.3500   17.7705 C   0  0  0  0  0  0  0  0  0  0  0  0
    6.6267    0.7220   17.6049 N   0  0  0  0  0  0  0  0  0  0  0  0
    7.1508    0.0974   18.6656 C   0  0  0  0  0  0  0  0  0  0  0  0
    8.1102   -0.3923   18.5008 H   0  0  0  0  0  0  0  0  0  0  0  0
    5.0525    1.8611   16.8953 H   0  0  0  0  0  0  0  0  0  0  0  0
    3.8161    1.8934   19.0547 H   0  0  0  0  0  0  0  0  0  0  0  0
    4.7887    0.6736   21.0327 H   0  0  0  0  0  0  0  0  0  0  0  0
    7.4092   -1.7526   20.7441 H   0  0  0  0  0  0  0  0  0  0  0  0
    6.5149   -0.7888   21.9154 H   0  0  0  0  0  0  0  0  0  0  0  0
    8.2456    2.9226   22.7053 H   0  0  0  0  0  0  0  0  0  0  0  0
    6.9299    2.0724   21.8951 H   0  0  0  0  0  0  0  0  0  0  0  0
    6.1176    0.8404   24.3866 C   0  0  0  0  0  0  0  0  0  0  0  0
    6.2490    0.2838   25.5902 N   0  0  0  0  0  0  0  0  0  0  0  0
    5.1632    0.7829   23.8789 H   0  0  0  0  0  0  0  0  0  0  0  0
    9.2613    1.3666   25.0366 H   0  0  0  0  0  0  0  0  0  0  0  0
    9.1871    0.2304   27.0848 H   0  0  0  0  0  0  0  0  0  0  0  0
    7.3919    1.5820   28.3034 H   0  0  0  0  0  0  0  0  0  0  0  0
    8.1946    0.3316   29.2532 H   0  0  0  0  0  0  0  0  0  0  0  0
    6.5503    0.0531   28.6220 H   0  0  0  0  0  0  0  0  0  0  0  0
  1  2  1  0
  2  3  1  0
  3  4  1  0
  3  5  1  0
  3  6  1  0
  2  7  1  0
  7  8  1  0
  8  9  2  0
  9 10  1  0
 10 11  1  0
 11 12  2  0
 12 13  1  0
 13 14  1  0
 14 15  2  0
 15 16  1  0
 16 17  2  0
 17 18  1  0
 17 19  1  0
 19 20  2  0
 20 21  1  0
 19 22  1  0
 16 23  1  0
 15 24  1  0
 13 25  2  0
 25 26  1  0
 26 27  1  0
 27 28  1  0
 28 29  2  0
 29 30  1  0
 30 31  2  0
 31 32  1  0
 32 33  2  0
 33 34  1  0
 31 35  1  0
 30 36  1  0
 29 37  1  0
 27 38  1  0
 27 39  1  0
 10 40  1  0
 10 41  1  0
  9 42  1  0
 42 43  2  0
 42 44  1  0
  8 45  1  0
  2 46  1  0
  1 47  1  0
  1 48  1  0
  1 49  1  0
 43  7  1  0
 26 11  1  0
 33 28  1  0
 20 14  1  0
M  END
>  <cnnaffinity>  (1) 
-6.84146

>  <filename>  (1) 
CC(C)n1cc(Cc2nc(-c3ccc(F)cc3)nn2Cc2cccnc2)cn1

$$$$
