
     RDKit          3D

 42 44  0  0  0  0  0  0  0  0999 V2000
    6.4620   -2.4646   24.7847 C   0  0  0  0  0  0  0  0  0  0  0  0
    7.2921   -3.0922   23.6433 C   0  0  0  0  0  0  0  0  0  0  0  0
    6.6903   -4.4118   23.1370 C   0  0  0  0  0  0  0  0  0  0  0  0
    6.5552   -5.1090   23.9714 H   0  0  0  0  0  0  0  0  0  0  0  0
    7.3453   -4.8890   22.3993 H   0  0  0  0  0  0  0  0  0  0  0  0
    5.7159   -4.2481   22.6654 H   0  0  0  0  0  0  0  0  0  0  0  0
    7.5514   -2.1109   22.5318 C   0  0  0  0  0  0  0  0  0  0  0  0
    6.6513   -1.7194   21.6494 N   0  0  0  0  0  0  0  0  0  0  0  0
    7.3275   -0.7999   20.9035 N   0  0  0  0  0  0  0  0  0  0  0  0
    6.6493   -0.1057   19.8530 C   0  0  0  0  0  0  0  0  0  0  0  0
    5.3929    0.4726   20.0887 C   0  0  0  0  0  0  0  0  0  0  0  0
    4.7970    1.2150   19.0615 C   0  0  0  0  0  0  0  0  0  0  0  0
    5.4604    1.3191   17.8330 C   0  0  0  0  0  0  0  0  0  0  0  0
    6.6254    0.7065   17.5748 N   0  0  0  0  0  0  0  0  0  0  0  0
    7.2019    0.0099   18.5636 C   0  0  0  0  0  0  0  0  0  0  0  0
    8.1321   -0.4993   18.3088 H   0  0  0  0  0  0  0  0  0  0  0  0
    5.0291    1.8985   17.0186 H   0  0  0  0  0  0  0  0  0  0  0  0
    3.8367    1.7050   19.2028 H   0  0  0  0  0  0  0  0  0  0  0  0
    4.9123    0.3297   21.0574 H   0  0  0  0  0  0  0  0  0  0  0  0
    8.5865   -0.6585   21.4274 C   0  0  0  0  0  0  0  0  0  0  0  0
    9.6246    0.3557   21.0968 C   0  0  0  0  0  0  0  0  0  0  0  0
    9.7665    1.4480   22.1961 C   0  0  0  0  0  0  0  0  0  0  0  0
   10.8950    2.4234   21.8565 C   0  0  0  0  0  0  0  0  0  0  0  0
   10.8473    2.7225   20.8057 H   0  0  0  0  0  0  0  0  0  0  0  0
   11.8742    1.9708   22.0469 H   0  0  0  0  0  0  0  0  0  0  0  0
   10.8176    3.3415   22.4437 H   0  0  0  0  0  0  0  0  0  0  0  0
    8.4910    2.1486   22.4087 N   0  0  0  0  0  0  0  0  0  0  0  0
    7.6431    2.0311   23.4627 C   0  0  0  0  0  0  0  0  0  0  0  0
    6.5160    2.7664   23.1478 C   0  0  0  0  0  0  0  0  0  0  0  0
    6.7833    3.2878   21.8579 C   0  0  0  0  0  0  0  0  0  0  0  0
    7.9815    2.8975   21.4290 N   0  0  0  0  0  0  0  0  0  0  0  0
    6.1728    3.9098   21.2109 H   0  0  0  0  0  0  0  0  0  0  0  0
    5.6298    2.9245   23.7489 H   0  0  0  0  0  0  0  0  0  0  0  0
    7.9326    1.4148   24.3089 H   0  0  0  0  0  0  0  0  0  0  0  0
    9.9688    0.9671   23.1583 H   0  0  0  0  0  0  0  0  0  0  0  0
    9.4091    0.8410   20.1461 H   0  0  0  0  0  0  0  0  0  0  0  0
   10.5779   -0.1754   21.0138 H   0  0  0  0  0  0  0  0  0  0  0  0
    8.7558   -1.5007   22.4278 N   0  0  0  0  0  0  0  0  0  0  0  0
    8.2880   -3.2975   24.0448 H   0  0  0  0  0  0  0  0  0  0  0  0
    6.9303   -1.5472   25.1629 H   0  0  0  0  0  0  0  0  0  0  0  0
    6.3769   -3.1663   25.6219 H   0  0  0  0  0  0  0  0  0  0  0  0
    5.4473   -2.2120   24.4629 H   0  0  0  0  0  0  0  0  0  0  0  0
  1  2  1  0
  2  3  1  0
  3  4  1  0
  3  5  1  0
  3  6  1  0
  2  7  1  0
  7  8  2  0
  8  9  1  0
  9 10  1  0
 10 11  2  0
 11 12  1  0
 12 13  2  0
 13 14  1  0
 14 15  2  0
 15 16  1  0
 13 17  1  0
 12 18  1  0
 11 19  1  0
  9 20  1  0
 20 21  1  0
 21 22  1  0
 22 23  1  0
 23 24  1  0
 23 25  1  0
 23 26  1  0
 22 27  1  0
 27 28  1  0
 28 29  2  0
 29 30  1  0
 30 31  2  0
 30 32  1  0
 29 33  1  0
 28 34  1  0
 22 35  1  0
 21 36  1  0
 21 37  1  0
 20 38  2  0
  2 39  1  0
  1 40  1  0
  1 41  1  0
  1 42  1  0
 38  7  1  0
 15 10  1  0
 31 27  1  0
M  END
>  <cnnaffinity>  (1) 
-5.76301

>  <filename>  (1) 
CC(C)c1nc(CC(C)n2cccn2)n(-c2cccnc2)n1

$$$$
