
     RDKit          3D

 42 44  0  0  0  0  0  0  0  0999 V2000
    6.8141   -4.2796   23.1313 C   0  0  0  0  0  0  0  0  0  0  0  0
    7.3922   -2.9600   23.6820 C   0  0  0  0  0  0  0  0  0  0  0  0
    6.4672   -2.3386   24.7523 C   0  0  0  0  0  0  0  0  0  0  0  0
    5.4941   -2.1037   24.3144 H   0  0  0  0  0  0  0  0  0  0  0  0
    6.8978   -1.4168   25.1504 H   0  0  0  0  0  0  0  0  0  0  0  0
    6.3160   -3.0391   25.5750 H   0  0  0  0  0  0  0  0  0  0  0  0
    7.6421   -1.9833   22.5600 C   0  0  0  0  0  0  0  0  0  0  0  0
    6.6769   -1.5528   21.7678 N   0  0  0  0  0  0  0  0  0  0  0  0
    7.3362   -0.6962   20.9302 N   0  0  0  0  0  0  0  0  0  0  0  0
    6.6505   -0.0037   19.9064 C   0  0  0  0  0  0  0  0  0  0  0  0
    5.4359    0.6467   20.1642 C   0  0  0  0  0  0  0  0  0  0  0  0
    4.8071    1.3131   19.1124 C   0  0  0  0  0  0  0  0  0  0  0  0
    5.3972    1.2954   17.8436 C   0  0  0  0  0  0  0  0  0  0  0  0
    6.5650    0.6756   17.5766 N   0  0  0  0  0  0  0  0  0  0  0  0
    7.1702    0.0504   18.5986 C   0  0  0  0  0  0  0  0  0  0  0  0
    8.1192   -0.4357   18.3676 H   0  0  0  0  0  0  0  0  0  0  0  0
    4.9146    1.7793   16.9993 H   0  0  0  0  0  0  0  0  0  0  0  0
    3.8811    1.8403   19.2639 H   0  0  0  0  0  0  0  0  0  0  0  0
    5.0136    0.6170   21.1691 H   0  0  0  0  0  0  0  0  0  0  0  0
    8.6336   -0.6379   21.3177 C   0  0  0  0  0  0  0  0  0  0  0  0
    9.6364    0.2371   20.6594 C   0  0  0  0  0  0  0  0  0  0  0  0
   10.6325    0.7319   21.6085 N   0  0  0  0  0  0  0  0  0  0  0  0
   11.6891   -0.0421   21.8688 C   0  0  0  0  0  0  0  0  0  0  0  0
   12.6071    0.3019   22.8059 C   0  0  0  0  0  0  0  0  0  0  0  0
   13.9824   -0.2976   22.6265 C   0  0  0  0  0  0  0  0  0  0  0  0
   14.7986    0.2052   23.5016 F   0  0  0  0  0  0  0  0  0  0  0  0
   14.6551   -0.7462   21.5753 F   0  0  0  0  0  0  0  0  0  0  0  0
   14.6552   -0.7462   21.5753 F   0  0  0  0  0  0  0  0  0  0  0  0
   12.4433    1.4201   23.6557 C   0  0  0  0  0  0  0  0  0  0  0  0
   11.3084    2.1512   23.5020 C   0  0  0  0  0  0  0  0  0  0  0  0
   10.2895    1.8249   22.4823 C   0  0  0  0  0  0  0  0  0  0  0  0
    9.2413    2.3949   22.3626 O   0  0  0  0  0  0  0  0  0  0  0  0
   11.0430    2.9992   24.1138 H   0  0  0  0  0  0  0  0  0  0  0  0
   13.2195    1.7382   24.3663 H   0  0  0  0  0  0  0  0  0  0  0  0
   11.8129   -0.8560   21.1558 H   0  0  0  0  0  0  0  0  0  0  0  0
    9.1926    1.1076   20.1875 H   0  0  0  0  0  0  0  0  0  0  0  0
   10.1144   -0.3832   19.8872 H   0  0  0  0  0  0  0  0  0  0  0  0
    8.8623   -1.4722   22.3053 N   0  0  0  0  0  0  0  0  0  0  0  0
    8.3637   -3.1629   24.1411 H   0  0  0  0  0  0  0  0  0  0  0  0
    5.8478   -4.0915   22.6497 H   0  0  0  0  0  0  0  0  0  0  0  0
    6.6721   -4.9955   23.9425 H   0  0  0  0  0  0  0  0  0  0  0  0
    7.4898   -4.7156   22.3922 H   0  0  0  0  0  0  0  0  0  0  0  0
  1  2  1  0
  2  3  1  0
  3  4  1  0
  3  5  1  0
  3  6  1  0
  2  7  1  0
  7  8  2  0
  8  9  1  0
  9 10  1  0
 10 11  2  0
 11 12  1  0
 12 13  2  0
 13 14  1  0
 14 15  2  0
 15 16  1  0
 13 17  1  0
 12 18  1  0
 11 19  1  0
  9 20  1  0
 20 21  1  0
 21 22  1  0
 22 23  1  0
 23 24  2  0
 24 25  1  0
 25 26  1  0
 25 27  1  0
 25 28  1  0
 24 29  1  0
 29 30  2  0
 30 31  1  0
 31 32  2  0
 30 33  1  0
 29 34  1  0
 23 35  1  0
 21 36  1  0
 21 37  1  0
 20 38  2  0
  2 39  1  0
  1 40  1  0
  1 41  1  0
  1 42  1  0
 38  7  1  0
 15 10  1  0
 31 22  1  0
M  END
>  <cnnaffinity>  (1) 
-6.58433

>  <filename>  (1) 
CC(C)c1nc(Cn2cc(C(F)(F)F)ccc2=O)n(-c2cccnc2)n1

$$$$
