
     RDKit          3D

 49 51  0  0  0  0  0  0  0  0999 V2000
    7.6419    0.7387   27.6407 C   0  0  0  0  0  0  0  0  0  0  0  0
    8.0818    0.2504   26.2527 C   0  0  0  0  0  0  0  0  0  0  0  0
    9.5372   -0.2453   26.2453 C   0  0  0  0  0  0  0  0  0  0  0  0
    9.6654   -1.0198   27.0112 H   0  0  0  0  0  0  0  0  0  0  0  0
   10.2444    0.5659   26.4539 H   0  0  0  0  0  0  0  0  0  0  0  0
    9.8107   -0.6882   25.2805 H   0  0  0  0  0  0  0  0  0  0  0  0
    7.8484    1.3606   25.2111 C   0  0  0  0  0  0  0  0  0  0  0  0
    8.6022    2.3165   25.1259 O   0  0  0  0  0  0  0  0  0  0  0  0
    6.7518    1.2375   24.3524 N   0  0  0  0  0  0  0  0  0  0  0  0
    5.6658    0.2967   24.5851 C   0  0  0  0  0  0  0  0  0  0  0  0
    5.8945   -0.7204   24.2270 H   0  0  0  0  0  0  0  0  0  0  0  0
    5.4304    0.2361   25.6532 H   0  0  0  0  0  0  0  0  0  0  0  0
    4.7652    0.6548   24.0732 H   0  0  0  0  0  0  0  0  0  0  0  0
    6.9142    1.8004   22.9889 C   0  0  0  0  0  0  0  0  0  0  0  0
    7.9584    1.0686   22.1799 C   0  0  0  0  0  0  0  0  0  0  0  0
    9.2282    1.4041   22.2291 N   0  0  0  0  0  0  0  0  0  0  0  0
    9.8740    0.2649   21.8777 C   0  0  0  0  0  0  0  0  0  0  0  0
   11.3203    0.1664   22.1245 C   0  0  0  0  0  0  0  0  0  0  0  0
   12.0833   -0.8839   21.5872 C   0  0  0  0  0  0  0  0  0  0  0  0
   13.4618   -0.8682   21.7871 C   0  0  0  0  0  0  0  0  0  0  0  0
   14.4154   -2.0778   20.9939 Cl  0  0  0  0  0  0  0  0  0  0  0  0
   14.0782    0.1432   22.5284 C   0  0  0  0  0  0  0  0  0  0  0  0
   13.3045    1.1478   23.1206 C   0  0  0  0  0  0  0  0  0  0  0  0
   11.9284    1.1644   22.9194 C   0  0  0  0  0  0  0  0  0  0  0  0
   11.3036    1.9240   23.3928 H   0  0  0  0  0  0  0  0  0  0  0  0
   13.7856    1.9537   23.6723 H   0  0  0  0  0  0  0  0  0  0  0  0
   15.1507    0.1545   22.6143 H   0  0  0  0  0  0  0  0  0  0  0  0
   11.6185   -1.6710   20.9953 H   0  0  0  0  0  0  0  0  0  0  0  0
    9.0708   -0.7021   21.4616 N   0  0  0  0  0  0  0  0  0  0  0  0
    7.8380   -0.1798   21.6750 N   0  0  0  0  0  0  0  0  0  0  0  0
    6.6561   -0.8278   21.1237 C   0  0  0  0  0  0  0  0  0  0  0  0
    6.1273   -0.0771   19.9209 C   0  0  0  0  0  0  0  0  0  0  0  0
    4.9546    0.6829   19.9378 C   0  0  0  0  0  0  0  0  0  0  0  0
    4.6330    1.4399   18.8063 C   0  0  0  0  0  0  0  0  0  0  0  0
    5.4918    1.4007   17.7044 C   0  0  0  0  0  0  0  0  0  0  0  0
    6.6235    0.6817   17.6702 N   0  0  0  0  0  0  0  0  0  0  0  0
    6.9291   -0.0187   18.7683 C   0  0  0  0  0  0  0  0  0  0  0  0
    7.8797   -0.5526   18.7541 H   0  0  0  0  0  0  0  0  0  0  0  0
    5.2714    1.9839   16.8124 H   0  0  0  0  0  0  0  0  0  0  0  0
    3.7532    2.0716   18.7765 H   0  0  0  0  0  0  0  0  0  0  0  0
    4.3146    0.7092   20.8240 H   0  0  0  0  0  0  0  0  0  0  0  0
    6.9731   -1.8461   20.8752 H   0  0  0  0  0  0  0  0  0  0  0  0
    5.9086   -0.8910   21.9199 H   0  0  0  0  0  0  0  0  0  0  0  0
    7.2814    2.8257   23.0951 H   0  0  0  0  0  0  0  0  0  0  0  0
    5.9616    1.8183   22.4507 H   0  0  0  0  0  0  0  0  0  0  0  0
    7.4547   -0.6023   25.9691 H   0  0  0  0  0  0  0  0  0  0  0  0
    6.5851    1.0273   27.6634 H   0  0  0  0  0  0  0  0  0  0  0  0
    7.7851   -0.0546   28.3788 H   0  0  0  0  0  0  0  0  0  0  0  0
    8.2292    1.6036   27.9664 H   0  0  0  0  0  0  0  0  0  0  0  0
  1  2  1  0
  2  3  1  0
  3  4  1  0
  3  5  1  0
  3  6  1  0
  2  7  1  0
  7  8  2  0
  7  9  1  0
  9 10  1  0
 10 11  1  0
 10 12  1  0
 10 13  1  0
  9 14  1  0
 14 15  1  0
 15 16  2  0
 16 17  1  0
 17 18  1  0
 18 19  2  0
 19 20  1  0
 20 21  1  0
 20 22  2  0
 22 23  1  0
 23 24  2  0
 24 25  1  0
 23 26  1  0
 22 27  1  0
 19 28  1  0
 17 29  2  0
 29 30  1  0
 30 31  1  0
 31 32  1  0
 32 33  2  0
 33 34  1  0
 34 35  2  0
 35 36  1  0
 36 37  2  0
 37 38  1  0
 35 39  1  0
 34 40  1  0
 33 41  1  0
 31 42  1  0
 31 43  1  0
 14 44  1  0
 14 45  1  0
  2 46  1  0
  1 47  1  0
  1 48  1  0
  1 49  1  0
 30 15  1  0
 37 32  1  0
 24 18  1  0
M  END
>  <cnnaffinity>  (1) 
-6.48188

>  <filename>  (1) 
CC(C)C(=O)N(C)Cc1nc(-c2cccc(Cl)c2)nn1Cc1cccnc1

$$$$
