
     RDKit          3D

 46 49  0  0  0  0  0  0  0  0999 V2000
    8.3031   -4.3286   23.4488 C   0  0  0  0  0  0  0  0  0  0  0  0
    7.3134   -3.1578   23.6029 C   0  0  0  0  0  0  0  0  0  0  0  0
    7.4610   -2.1449   22.4942 C   0  0  0  0  0  0  0  0  0  0  0  0
    6.4987   -1.7736   21.6684 N   0  0  0  0  0  0  0  0  0  0  0  0
    7.1120   -0.8565   20.8702 N   0  0  0  0  0  0  0  0  0  0  0  0
    6.4344   -0.1650   19.8232 C   0  0  0  0  0  0  0  0  0  0  0  0
    5.2881    0.5915   20.0844 C   0  0  0  0  0  0  0  0  0  0  0  0
    4.7471    1.3477   19.0403 C   0  0  0  0  0  0  0  0  0  0  0  0
    5.3662    1.3175   17.7853 C   0  0  0  0  0  0  0  0  0  0  0  0
    6.4524    0.5750   17.5212 N   0  0  0  0  0  0  0  0  0  0  0  0
    6.9632   -0.1533   18.5188 C   0  0  0  0  0  0  0  0  0  0  0  0
    7.8605   -0.7274   18.2854 H   0  0  0  0  0  0  0  0  0  0  0  0
    4.9706    1.8979   16.9561 H   0  0  0  0  0  0  0  0  0  0  0  0
    3.8657    1.9626   19.1893 H   0  0  0  0  0  0  0  0  0  0  0  0
    4.8640    0.5983   21.0889 H   0  0  0  0  0  0  0  0  0  0  0  0
    8.3964   -0.7016   21.2922 C   0  0  0  0  0  0  0  0  0  0  0  0
    9.3951    0.2462   20.6882 C   0  0  0  0  0  0  0  0  0  0  0  0
   10.0705    1.1131   21.6620 N   0  0  0  0  0  0  0  0  0  0  0  0
   11.2494    0.6939   22.2120 C   0  0  0  0  0  0  0  0  0  0  0  0
   11.7923    1.3054   23.2966 C   0  0  0  0  0  0  0  0  0  0  0  0
   13.1471    0.8898   23.7605 C   0  0  0  0  0  0  0  0  0  0  0  0
   13.1974    0.8213   25.0999 F   0  0  0  0  0  0  0  0  0  0  0  0
   13.5371   -0.3019   23.2684 F   0  0  0  0  0  0  0  0  0  0  0  0
   14.0740    1.7745   23.3626 F   0  0  0  0  0  0  0  0  0  0  0  0
   11.1293    2.4250   23.8876 C   0  0  0  0  0  0  0  0  0  0  0  0
    9.9663    2.8703   23.3471 C   0  0  0  0  0  0  0  0  0  0  0  0
    9.3622    2.2482   22.1808 C   0  0  0  0  0  0  0  0  0  0  0  0
    8.3284    2.6309   21.6629 O   0  0  0  0  0  0  0  0  0  0  0  0
    9.4110    3.7157   23.7280 H   0  0  0  0  0  0  0  0  0  0  0  0
   11.5662    2.9221   24.7525 H   0  0  0  0  0  0  0  0  0  0  0  0
   11.7285   -0.1652   21.7397 H   0  0  0  0  0  0  0  0  0  0  0  0
    8.9476    0.8837   19.9270 H   0  0  0  0  0  0  0  0  0  0  0  0
   10.1540   -0.3843   20.2143 H   0  0  0  0  0  0  0  0  0  0  0  0
    8.6599   -1.5405   22.2709 N   0  0  0  0  0  0  0  0  0  0  0  0
    7.5195   -2.4932   24.9643 C   0  0  0  0  0  0  0  0  0  0  0  0
    6.4662   -1.5977   25.5367 C   0  0  0  0  0  0  0  0  0  0  0  0
    6.7648   -2.9269   26.1891 C   0  0  0  0  0  0  0  0  0  0  0  0
    6.0233   -3.7167   26.0909 H   0  0  0  0  0  0  0  0  0  0  0  0
    7.2791   -2.9347   27.1466 H   0  0  0  0  0  0  0  0  0  0  0  0
    6.7736   -0.6822   26.0373 H   0  0  0  0  0  0  0  0  0  0  0  0
    5.5297   -1.5017   24.9919 H   0  0  0  0  0  0  0  0  0  0  0  0
    8.5494   -2.1784   25.1293 H   0  0  0  0  0  0  0  0  0  0  0  0
    6.2832   -3.5299   23.5433 H   0  0  0  0  0  0  0  0  0  0  0  0
    9.3381   -3.9730   23.5153 H   0  0  0  0  0  0  0  0  0  0  0  0
    8.1943   -4.8370   22.4869 H   0  0  0  0  0  0  0  0  0  0  0  0
    8.1503   -5.0595   24.2491 H   0  0  0  0  0  0  0  0  0  0  0  0
  1  2  1  0
  2  3  1  0
  3  4  2  0
  4  5  1  0
  5  6  1  0
  6  7  2  0
  7  8  1  0
  8  9  2  0
  9 10  1  0
 10 11  2  0
 11 12  1  0
  9 13  1  0
  8 14  1  0
  7 15  1  0
  5 16  1  0
 16 17  1  0
 17 18  1  0
 18 19  1  0
 19 20  2  0
 20 21  1  0
 21 22  1  0
 21 23  1  0
 21 24  1  0
 20 25  1  0
 25 26  2  0
 26 27  1  0
 27 28  2  0
 26 29  1  0
 25 30  1  0
 19 31  1  0
 17 32  1  0
 17 33  1  0
 16 34  2  0
  2 35  1  0
 35 36  1  0
 36 37  1  0
 37 38  1  0
 37 39  1  0
 36 40  1  0
 36 41  1  0
 35 42  1  0
  2 43  1  0
  1 44  1  0
  1 45  1  0
  1 46  1  0
 34  3  1  0
 37 35  1  0
 11  6  1  0
 27 18  1  0
M  END
>  <cnnaffinity>  (1) 
-6.76002

>  <filename>  (1) 
CC(c1nc(Cn2cc(C(F)(F)F)ccc2=O)n(-c2cccnc2)n1)C1CC1

$$$$
