
     RDKit          3D

 50 52  0  0  0  0  0  0  0  0999 V2000
    4.9159    1.8864   17.0170 H   0  0  0  0  0  0  0  0  0  0  0  0
    5.4120    1.3405   17.8161 C   0  0  0  0  0  0  0  0  0  0  0  0
    6.5750    0.7441   17.5035 N   0  0  0  0  0  0  0  0  0  0  0  0
    7.2201    0.0875   18.4788 C   0  0  0  0  0  0  0  0  0  0  0  0
    8.1558   -0.3891   18.1856 H   0  0  0  0  0  0  0  0  0  0  0  0
    6.7517   -0.0492   19.8165 C   0  0  0  0  0  0  0  0  0  0  0  0
    7.4626   -0.7911   20.7962 N   0  0  0  0  0  0  0  0  0  0  0  0
    8.7923   -0.3475   21.2057 C   0  0  0  0  0  0  0  0  0  0  0  0
    9.3139   -1.2050   21.6488 H   0  0  0  0  0  0  0  0  0  0  0  0
    9.3542   -0.0841   20.3049 H   0  0  0  0  0  0  0  0  0  0  0  0
    8.9133    0.8573   22.1794 C   0  0  0  0  0  0  0  0  0  0  0  0
    9.9948    1.0078   22.3214 H   0  0  0  0  0  0  0  0  0  0  0  0
    8.5608    1.7477   21.6458 H   0  0  0  0  0  0  0  0  0  0  0  0
    8.2619    0.7654   23.4981 N   0  0  0  0  0  0  0  0  0  0  0  0
    7.5022    1.8744   23.9789 C   0  0  0  0  0  0  0  0  0  0  0  0
    7.5453    2.1774   25.3514 C   0  0  0  0  0  0  0  0  0  0  0  0
    8.0922    1.5135   26.0105 H   0  0  0  0  0  0  0  0  0  0  0  0
    6.9255    3.3192   25.8582 C   0  0  0  0  0  0  0  0  0  0  0  0
    7.0312    3.5317   26.9191 H   0  0  0  0  0  0  0  0  0  0  0  0
    6.1822    4.1895   25.0384 C   0  0  0  0  0  0  0  0  0  0  0  0
    5.5810    5.4636   25.6834 C   0  0  0  0  0  0  0  0  0  0  0  0
    4.6253    5.0654   26.8347 C   0  0  0  0  0  0  0  0  0  0  0  0
    4.2014    5.9590   27.3103 H   0  0  0  0  0  0  0  0  0  0  0  0
    3.7965    4.4513   26.4632 H   0  0  0  0  0  0  0  0  0  0  0  0
    5.1389    4.4909   27.6134 H   0  0  0  0  0  0  0  0  0  0  0  0
    4.7845    6.3374   24.6951 C   0  0  0  0  0  0  0  0  0  0  0  0
    3.9351    5.7944   24.2643 H   0  0  0  0  0  0  0  0  0  0  0  0
    4.3824    7.2186   25.2123 H   0  0  0  0  0  0  0  0  0  0  0  0
    5.4144    6.7003   23.8741 H   0  0  0  0  0  0  0  0  0  0  0  0
    6.7169    6.3397   26.2698 C   0  0  0  0  0  0  0  0  0  0  0  0
    6.3020    7.2372   26.7456 H   0  0  0  0  0  0  0  0  0  0  0  0
    7.3006    5.8044   27.0271 H   0  0  0  0  0  0  0  0  0  0  0  0
    7.4114    6.6617   25.4848 H   0  0  0  0  0  0  0  0  0  0  0  0
    6.0544    3.8248   23.6848 C   0  0  0  0  0  0  0  0  0  0  0  0
    5.4739    4.4453   23.0062 H   0  0  0  0  0  0  0  0  0  0  0  0
    6.6900    2.6868   23.1644 C   0  0  0  0  0  0  0  0  0  0  0  0
    6.5333    2.4137   22.1233 H   0  0  0  0  0  0  0  0  0  0  0  0
    7.7789   -0.5464   23.9404 C   0  0  0  0  0  0  0  0  0  0  0  0
    8.6022   -1.2792   23.9355 H   0  0  0  0  0  0  0  0  0  0  0  0
    7.4967   -0.4550   24.9948 H   0  0  0  0  0  0  0  0  0  0  0  0
    6.5516   -1.0362   23.1660 C   0  0  0  0  0  0  0  0  0  0  0  0
    5.8932   -0.1656   23.0503 H   0  0  0  0  0  0  0  0  0  0  0  0
    6.0089   -1.7621   23.7877 H   0  0  0  0  0  0  0  0  0  0  0  0
    6.7760   -1.6347   21.7701 C   0  0  0  0  0  0  0  0  0  0  0  0
    5.8010   -1.9221   21.3617 H   0  0  0  0  0  0  0  0  0  0  0  0
    7.3467   -2.5740   21.8626 H   0  0  0  0  0  0  0  0  0  0  0  0
    5.5229    0.5778   20.1035 C   0  0  0  0  0  0  0  0  0  0  0  0
    5.1253    0.5277   21.1149 H   0  0  0  0  0  0  0  0  0  0  0  0
    4.8538    1.2810   19.0952 C   0  0  0  0  0  0  0  0  0  0  0  0
    3.9185    1.7886   19.2948 H   0  0  0  0  0  0  0  0  0  0  0  0
  1  2  1  0
  2  3  2  0
  3  4  1  0
  4  5  1  0
  4  6  2  0
  6  7  1  0
  7  8  1  0
  8  9  1  0
  8 10  1  0
  8 11  1  0
 11 12  1  0
 11 13  1  0
 11 14  1  0
 14 15  1  0
 15 16  2  0
 16 17  1  0
 16 18  1  0
 18 19  1  0
 18 20  2  0
 20 21  1  0
 21 22  1  0
 22 23  1  0
 22 24  1  0
 22 25  1  0
 21 26  1  0
 26 27  1  0
 26 28  1  0
 26 29  1  0
 21 30  1  0
 30 31  1  0
 30 32  1  0
 30 33  1  0
 20 34  1  0
 34 35  1  0
 34 36  2  0
 36 37  1  0
 14 38  1  0
 38 39  1  0
 38 40  1  0
 38 41  1  0
 41 42  1  0
 41 43  1  0
 41 44  1  0
 44 45  1  0
 44 46  1  0
  6 47  1  0
 47 48  1  0
 47 49  2  0
 49 50  1  0
 49  2  1  0
 44  7  1  0
 36 15  1  0
M  END
>  <cnnaffinity>  (1) 
-5.2205

>  <filename>  (1) 
CC(C)(C)c1ccc(N2CCCN(c3cccnc3)CC2)cc1

$$$$
