
     RDKit          3D

 43 45  0  0  0  0  0  0  0  0999 V2000
    8.0644   -5.6388   24.5020 C   0  0  0  0  0  0  0  0  0  0  0  0
    7.3068   -4.5740   23.7121 C   0  0  0  0  0  0  0  0  0  0  0  0
    5.8239   -4.8841   23.6014 C   0  0  0  0  0  0  0  0  0  0  0  0
    5.6796   -5.8476   23.1039 H   0  0  0  0  0  0  0  0  0  0  0  0
    5.3452   -4.9241   24.5861 H   0  0  0  0  0  0  0  0  0  0  0  0
    5.3264   -4.1158   23.0039 H   0  0  0  0  0  0  0  0  0  0  0  0
    7.7963   -4.5227   22.3688 O   0  0  0  0  0  0  0  0  0  0  0  0
    8.6733   -3.4608   22.0300 C   0  0  0  0  0  0  0  0  0  0  0  0
    8.0453   -2.0951   21.8904 C   0  0  0  0  0  0  0  0  0  0  0  0
    7.5842   -1.6985   20.7245 N   0  0  0  0  0  0  0  0  0  0  0  0
    7.1189   -0.4485   20.9684 N   0  0  0  0  0  0  0  0  0  0  0  0
    6.4821    0.2515   19.9036 C   0  0  0  0  0  0  0  0  0  0  0  0
    5.2715    0.9456   20.0374 C   0  0  0  0  0  0  0  0  0  0  0  0
    4.7093    1.5016   18.8774 C   0  0  0  0  0  0  0  0  0  0  0  0
    5.3797    1.3748   17.6588 C   0  0  0  0  0  0  0  0  0  0  0  0
    6.5422    0.7129   17.5284 N   0  0  0  0  0  0  0  0  0  0  0  0
    7.0605    0.1579   18.6250 C   0  0  0  0  0  0  0  0  0  0  0  0
    7.9849   -0.4050   18.5092 H   0  0  0  0  0  0  0  0  0  0  0  0
    4.9909    1.8294   16.7499 H   0  0  0  0  0  0  0  0  0  0  0  0
    3.7778    2.0528   18.9116 H   0  0  0  0  0  0  0  0  0  0  0  0
    4.7588    1.0255   20.9975 H   0  0  0  0  0  0  0  0  0  0  0  0
    7.3952   -0.1257   22.2697 C   0  0  0  0  0  0  0  0  0  0  0  0
    7.1975    1.2086   22.9271 C   0  0  0  0  0  0  0  0  0  0  0  0
    8.4979    1.7346   23.5297 C   0  0  0  0  0  0  0  0  0  0  0  0
    9.5464    2.2138   22.7264 C   0  0  0  0  0  0  0  0  0  0  0  0
    9.2525    2.4283   21.0307 Cl  0  0  0  0  0  0  0  0  0  0  0  0
   10.8247    2.5086   23.2206 C   0  0  0  0  0  0  0  0  0  0  0  0
   11.0814    2.2890   24.5779 C   0  0  0  0  0  0  0  0  0  0  0  0
   10.0583    1.8466   25.4183 C   0  0  0  0  0  0  0  0  0  0  0  0
    8.7878    1.6268   24.8973 C   0  0  0  0  0  0  0  0  0  0  0  0
    7.8020    1.3032   25.7564 F   0  0  0  0  0  0  0  0  0  0  0  0
   10.2034    1.6461   26.4691 H   0  0  0  0  0  0  0  0  0  0  0  0
   12.0737    2.4810   24.9795 H   0  0  0  0  0  0  0  0  0  0  0  0
   11.5935    2.8852   22.5520 H   0  0  0  0  0  0  0  0  0  0  0  0
    6.8243    1.9284   22.1925 H   0  0  0  0  0  0  0  0  0  0  0  0
    6.4526    1.0799   23.7183 H   0  0  0  0  0  0  0  0  0  0  0  0
    7.9669   -1.1588   22.8718 N   0  0  0  0  0  0  0  0  0  0  0  0
    9.5200   -3.4002   22.7300 H   0  0  0  0  0  0  0  0  0  0  0  0
    9.0383   -3.7049   21.0310 H   0  0  0  0  0  0  0  0  0  0  0  0
    7.4337   -3.5913   24.1914 H   0  0  0  0  0  0  0  0  0  0  0  0
    8.1651   -6.5458   23.9014 H   0  0  0  0  0  0  0  0  0  0  0  0
    9.0716   -5.3141   24.7761 H   0  0  0  0  0  0  0  0  0  0  0  0
    7.5319   -5.8893   25.4259 H   0  0  0  0  0  0  0  0  0  0  0  0
  1  2  1  0
  2  3  1  0
  3  4  1  0
  3  5  1  0
  3  6  1  0
  2  7  1  0
  7  8  1  0
  8  9  1  0
  9 10  2  0
 10 11  1  0
 11 12  1  0
 12 13  2  0
 13 14  1  0
 14 15  2  0
 15 16  1  0
 16 17  2  0
 17 18  1  0
 15 19  1  0
 14 20  1  0
 13 21  1  0
 11 22  1  0
 22 23  1  0
 23 24  1  0
 24 25  2  0
 25 26  1  0
 25 27  1  0
 27 28  2  0
 28 29  1  0
 29 30  2  0
 30 31  1  0
 29 32  1  0
 28 33  1  0
 27 34  1  0
 23 35  1  0
 23 36  1  0
 22 37  2  0
  8 38  1  0
  8 39  1  0
  2 40  1  0
  1 41  1  0
  1 42  1  0
  1 43  1  0
 37  9  1  0
 17 12  1  0
 30 24  1  0
M  END
>  <cnnaffinity>  (1) 
-6.25281

>  <filename>  (1) 
CC(C)OCc1nc(Cc2c(F)cccc2Cl)n(-c2cccnc2)n1

$$$$
