
     RDKit          3D

 43 46  0  0  0  0  0  0  0  0999 V2000
    7.8628   -2.1368   25.5319 C   0  0  0  0  0  0  0  0  0  0  0  0
    8.1805   -3.7965   23.4431 C   0  0  0  0  0  0  0  0  0  0  0  0
    7.4727   -1.5252   22.6374 C   0  0  0  0  0  0  0  0  0  0  0  0
    6.6645   -1.5268   21.6591 N   0  0  0  0  0  0  0  0  0  0  0  0
    7.3780   -0.6107   20.8512 N   0  0  0  0  0  0  0  0  0  0  0  0
    6.6485    0.0195   19.8659 C   0  0  0  0  0  0  0  0  0  0  0  0
    5.4288    0.6389   20.1531 C   0  0  0  0  0  0  0  0  0  0  0  0
    4.8050    1.3108   19.1046 C   0  0  0  0  0  0  0  0  0  0  0  0
    5.4004    1.2974   17.8335 C   0  0  0  0  0  0  0  0  0  0  0  0
    6.5677    0.6878   17.5695 N   0  0  0  0  0  0  0  0  0  0  0  0
    7.1747    0.0692   18.5774 C   0  0  0  0  0  0  0  0  0  0  0  0
    8.1193   -0.4344   18.3759 H   0  0  0  0  0  0  0  0  0  0  0  0
    4.9102    1.7802   16.9946 H   0  0  0  0  0  0  0  0  0  0  0  0
    3.8702    1.8450   19.2642 H   0  0  0  0  0  0  0  0  0  0  0  0
    5.0165    0.6186   21.1675 H   0  0  0  0  0  0  0  0  0  0  0  0
    8.6104   -0.4106   21.3703 C   0  0  0  0  0  0  0  0  0  0  0  0
    9.5926    0.5695   20.9094 C   0  0  0  0  0  0  0  0  0  0  0  0
    8.9946    1.9237   21.2692 C   0  0  0  0  0  0  0  0  0  0  0  0
    8.7630    2.4311   22.4991 C   0  0  0  0  0  0  0  0  0  0  0  0
    8.2111    3.8513   22.2263 C   0  0  0  0  0  0  0  0  0  0  0  0
    7.5326    4.7018   23.3158 C   0  0  0  0  0  0  0  0  0  0  0  0
    6.2854    4.3575   23.7327 F   0  0  0  0  0  0  0  0  0  0  0  0
    7.3466    5.9748   22.8146 F   0  0  0  0  0  0  0  0  0  0  0  0
    8.2046    4.9890   24.5572 F   0  0  0  0  0  0  0  0  0  0  0  0
    8.1541    3.7828   22.3806 N   0  0  0  0  0  0  0  0  0  0  0  0
    8.5170    2.6387   20.3538 N   0  0  0  0  0  0  0  0  0  0  0  0
    8.5240    2.4893   19.3494 H   0  0  0  0  0  0  0  0  0  0  0  0
    8.9338    1.9613   23.4533 H   0  0  0  0  0  0  0  0  0  0  0  0
   10.5204    0.4986   21.4575 H   0  0  0  0  0  0  0  0  0  0  0  0
    9.7047    0.5107   19.8340 H   0  0  0  0  0  0  0  0  0  0  0  0
    8.7583   -1.0698   22.5333 N   0  0  0  0  0  0  0  0  0  0  0  0
    8.7677   -4.4039   23.4450 C   0  0  0  0  0  0  0  0  0  0  0  0
    8.7593   -4.4070   23.4498 C   0  0  0  0  0  0  0  0  0  0  0  0
    8.7677   -4.4039   23.4450 C   0  0  0  0  0  0  0  0  0  0  0  0
    9.2962   -5.6983   23.8969 H   0  0  0  0  0  0  0  0  0  0  0  0
    9.2947   -5.6921   23.8944 H   0  0  0  0  0  0  0  0  0  0  0  0
    9.0248   -4.7667   23.2339 H   0  0  0  0  0  0  0  0  0  0  0  0
   10.0781   -4.6940   23.2714 H   0  0  0  0  0  0  0  0  0  0  0  0
    8.4101   -5.6327   22.7499 H   0  0  0  0  0  0  0  0  0  0  0  0
    6.2703   -2.9003   23.6814 H   0  0  0  0  0  0  0  0  0  0  0  0
    8.9067   -1.8182   25.4981 H   0  0  0  0  0  0  0  0  0  0  0  0
    7.4413   -2.9420   26.1161 H   0  0  0  0  0  0  0  0  0  0  0  0
    7.1791   -1.2888   25.1897 H   0  0  0  0  0  0  0  0  0  0  0  0
  1  2  1  0
  2  3  1  0
  3  4  2  0
  4  5  1  0
  5  6  1  0
  6  7  2  0
  7  8  1  0
  8  9  2  0
  9 10  1  0
 10 11  2  0
 11 12  1  0
  9 13  1  0
  8 14  1  0
  7 15  1  0
  5 16  1  0
 16 17  1  0
 17 18  1  0
 18 19  2  0
 19 20  1  0
 20 21  1  0
 21 22  1  0
 21 23  1  0
 21 24  1  0
 20 25  2  0
 25 26  1  0
 26 27  1  0
 19 28  1  0
 17 29  1  0
 17 30  1  0
 16 31  2  0
  2 32  1  0
 32 33  1  0
 33 34  1  0
 34 35  1  0
 34 36  1  0
 33 37  1  0
 33 38  1  0
 32 39  1  0
  2 40  1  0
  1 41  1  0
  1 42  1  0
  1 43  1  0
 31  3  1  0
 34 32  1  0
 11  6  1  0
 26 18  1  0
M  END
>  <cnnaffinity>  (1) 
-6.48945

>  <filename>  (1) 
CC(c1nc(Cc2cc(C(F)(F)F)n[nH]2)n(-c2cccnc2)n1)C1CC1

$$$$
