
     RDKit          3D

 52 54  0  0  0  0  0  0  0  0999 V2000
    6.1846   -5.2291   22.2208 C   0  0  0  0  0  0  0  0  0  0  0  0
    6.6337   -4.3526   23.4001 C   0  0  0  0  0  0  0  0  0  0  0  0
    6.0610   -4.8765   24.7222 C   0  0  0  0  0  0  0  0  0  0  0  0
    6.4187   -5.8932   24.9324 H   0  0  0  0  0  0  0  0  0  0  0  0
    6.3526   -4.2325   25.5592 H   0  0  0  0  0  0  0  0  0  0  0  0
    4.9669   -4.9120   24.6853 H   0  0  0  0  0  0  0  0  0  0  0  0
    8.1634   -4.2465   23.5006 C   0  0  0  0  0  0  0  0  0  0  0  0
    8.8256   -3.6186   22.2665 C   0  0  0  0  0  0  0  0  0  0  0  0
    8.3047   -2.2741   21.9088 C   0  0  0  0  0  0  0  0  0  0  0  0
    7.6833   -2.0055   20.7791 N   0  0  0  0  0  0  0  0  0  0  0  0
    7.3564   -0.6942   20.9158 N   0  0  0  0  0  0  0  0  0  0  0  0
    6.6435   -0.0055   19.9009 C   0  0  0  0  0  0  0  0  0  0  0  0
    5.4323    0.6482   20.1719 C   0  0  0  0  0  0  0  0  0  0  0  0
    4.8023    1.3056   19.1050 C   0  0  0  0  0  0  0  0  0  0  0  0
    5.3991    1.2909   17.8442 C   0  0  0  0  0  0  0  0  0  0  0  0
    6.5643    0.6690   17.5892 N   0  0  0  0  0  0  0  0  0  0  0  0
    7.1633    0.0330   18.5981 C   0  0  0  0  0  0  0  0  0  0  0  0
    8.1152   -0.4460   18.3726 H   0  0  0  0  0  0  0  0  0  0  0  0
    4.9325    1.7887   16.9947 H   0  0  0  0  0  0  0  0  0  0  0  0
    3.8737    1.8420   19.2529 H   0  0  0  0  0  0  0  0  0  0  0  0
    5.0170    0.6398   21.1842 H   0  0  0  0  0  0  0  0  0  0  0  0
    7.8171   -0.2495   22.1164 C   0  0  0  0  0  0  0  0  0  0  0  0
    7.7315    1.1704   22.5968 C   0  0  0  0  0  0  0  0  0  0  0  0
    7.5088    1.2869   24.0409 N   0  0  0  0  0  0  0  0  0  0  0  0
    8.5952    1.7736   24.8831 C   0  0  0  0  0  0  0  0  0  0  0  0
    8.6280    1.0432   26.2160 C   0  0  0  0  0  0  0  0  0  0  0  0
    7.2677    1.1392   26.9075 C   0  0  0  0  0  0  0  0  0  0  0  0
    6.1739    0.5483   26.0063 C   0  0  0  0  0  0  0  0  0  0  0  0
    6.0727   -0.9679   26.0521 C   0  0  0  0  0  0  0  0  0  0  0  0
    5.0140   -1.4267   25.3762 F   0  0  0  0  0  0  0  0  0  0  0  0
    7.1681   -1.5835   25.5488 F   0  0  0  0  0  0  0  0  0  0  0  0
    5.9343   -1.3850   27.3307 F   0  0  0  0  0  0  0  0  0  0  0  0
    6.2760    0.9387   24.5392 C   0  0  0  0  0  0  0  0  0  0  0  0
    5.2800    0.8911   23.8374 O   0  0  0  0  0  0  0  0  0  0  0  0
    5.1803    0.8810   26.3009 H   0  0  0  0  0  0  0  0  0  0  0  0
    7.0310    2.1959   27.1001 H   0  0  0  0  0  0  0  0  0  0  0  0
    7.2797    0.6369   27.8829 H   0  0  0  0  0  0  0  0  0  0  0  0
    9.3923    1.5301   26.8077 H   0  0  0  0  0  0  0  0  0  0  0  0
    8.9265   -0.0006   26.0675 H   0  0  0  0  0  0  0  0  0  0  0  0
    8.5038    2.8612   25.0475 H   0  0  0  0  0  0  0  0  0  0  0  0
    9.5392    1.6110   24.3491 H   0  0  0  0  0  0  0  0  0  0  0  0
    8.6866    1.6491   22.3602 H   0  0  0  0  0  0  0  0  0  0  0  0
    6.9640    1.7280   22.0568 H   0  0  0  0  0  0  0  0  0  0  0  0
    8.4553   -1.2202   22.7450 N   0  0  0  0  0  0  0  0  0  0  0  0
    8.6685   -4.2431   21.3852 H   0  0  0  0  0  0  0  0  0  0  0  0
    9.8945   -3.4923   22.4630 H   0  0  0  0  0  0  0  0  0  0  0  0
    8.5909   -5.2487   23.6547 H   0  0  0  0  0  0  0  0  0  0  0  0
    8.4227   -3.6518   24.3874 H   0  0  0  0  0  0  0  0  0  0  0  0
    6.2471   -3.3275   23.2435 H   0  0  0  0  0  0  0  0  0  0  0  0
    6.6349   -6.2301   22.2830 H   0  0  0  0  0  0  0  0  0  0  0  0
    5.0969   -5.3615   22.2273 H   0  0  0  0  0  0  0  0  0  0  0  0
    6.4624   -4.7903   21.2538 H   0  0  0  0  0  0  0  0  0  0  0  0
  1  2  1  0
  2  3  1  0
  3  4  1  0
  3  5  1  0
  3  6  1  0
  2  7  1  0
  7  8  1  0
  8  9  1  0
  9 10  2  0
 10 11  1  0
 11 12  1  0
 12 13  2  0
 13 14  1  0
 14 15  2  0
 15 16  1  0
 16 17  2  0
 17 18  1  0
 15 19  1  0
 14 20  1  0
 13 21  1  0
 11 22  1  0
 22 23  1  0
 23 24  1  0
 24 25  1  0
 25 26  1  0
 26 27  1  0
 27 28  1  0
 28 29  1  0
 29 30  1  0
 29 31  1  0
 29 32  1  0
 28 33  1  0
 33 34  2  0
 28 35  1  0
 27 36  1  0
 27 37  1  0
 26 38  1  0
 26 39  1  0
 25 40  1  0
 25 41  1  0
 23 42  1  0
 23 43  1  0
 22 44  2  0
  8 45  1  0
  8 46  1  0
  7 47  1  0
  7 48  1  0
  2 49  1  0
  1 50  1  0
  1 51  1  0
  1 52  1  0
 44  9  1  0
 17 12  1  0
 33 24  1  0
M  END
>  <cnnaffinity>  (1) 
-6.04709

>  <filename>  (1) 
CC(C)CCc1nc(CN2CCCC(C(F)(F)F)C2=O)n(-c2cccnc2)n1

$$$$
