
     RDKit          3D

 52 55  0  0  0  0  0  0  0  0999 V2000
    4.9760   -1.8706   25.9338 C   0  0  0  0  0  0  0  0  0  0  0  0
    5.3275   -0.5500   26.6532 C   0  0  0  0  0  0  0  0  0  0  0  0
    5.9371   -0.8877   28.0251 C   0  0  0  0  0  0  0  0  0  0  0  0
    5.2128   -1.4411   28.6306 H   0  0  0  0  0  0  0  0  0  0  0  0
    6.2213    0.0212   28.5625 H   0  0  0  0  0  0  0  0  0  0  0  0
    6.8351   -1.5009   27.9067 H   0  0  0  0  0  0  0  0  0  0  0  0
    4.0483    0.2904   26.8526 C   0  0  0  0  0  0  0  0  0  0  0  0
    4.2787    1.2292   27.3680 H   0  0  0  0  0  0  0  0  0  0  0  0
    3.3197   -0.2629   27.4540 H   0  0  0  0  0  0  0  0  0  0  0  0
    3.5810    0.5323   25.8917 H   0  0  0  0  0  0  0  0  0  0  0  0
    6.2876    0.2412   25.8238 N   0  0  0  0  0  0  0  0  0  0  0  0
    6.0591    0.7272   24.5679 C   0  0  0  0  0  0  0  0  0  0  0  0
    7.1879    1.4080   24.1786 C   0  0  0  0  0  0  0  0  0  0  0  0
    7.5859    1.9783   22.8286 C   0  0  0  0  0  0  0  0  0  0  0  0
    8.5815    1.0691   22.1694 C   0  0  0  0  0  0  0  0  0  0  0  0
    9.8960    1.1501   22.2904 N   0  0  0  0  0  0  0  0  0  0  0  0
   10.3217   -0.0607   21.8508 C   0  0  0  0  0  0  0  0  0  0  0  0
   11.7350   -0.4716   21.7495 C   0  0  0  0  0  0  0  0  0  0  0  0
   12.8145    0.3002   22.2275 C   0  0  0  0  0  0  0  0  0  0  0  0
   14.1235   -0.0690   21.9063 C   0  0  0  0  0  0  0  0  0  0  0  0
   14.3370   -1.1877   21.0820 C   0  0  0  0  0  0  0  0  0  0  0  0
   13.2822   -1.9798   20.6567 C   0  0  0  0  0  0  0  0  0  0  0  0
   11.9964   -1.6619   21.0540 C   0  0  0  0  0  0  0  0  0  0  0  0
   11.1450   -2.2849   20.8003 H   0  0  0  0  0  0  0  0  0  0  0  0
   13.4886   -2.8359   20.0159 H   0  0  0  0  0  0  0  0  0  0  0  0
   15.2705   -1.4449   20.6240 H   0  0  0  0  0  0  0  0  0  0  0  0
   14.9528    0.5623   22.2156 H   0  0  0  0  0  0  0  0  0  0  0  0
   12.6385    1.1897   22.8286 H   0  0  0  0  0  0  0  0  0  0  0  0
    9.3405   -0.8659   21.4656 N   0  0  0  0  0  0  0  0  0  0  0  0
    8.2313   -0.1322   21.6651 N   0  0  0  0  0  0  0  0  0  0  0  0
    6.9462   -0.6410   21.1889 C   0  0  0  0  0  0  0  0  0  0  0  0
    6.3955    0.1030   19.9891 C   0  0  0  0  0  0  0  0  0  0  0  0
    5.1835    0.7985   20.0341 C   0  0  0  0  0  0  0  0  0  0  0  0
    4.7273    1.4412   18.8808 C   0  0  0  0  0  0  0  0  0  0  0  0
    5.5047    1.3662   17.7228 C   0  0  0  0  0  0  0  0  0  0  0  0
    6.6704    0.7048   17.6551 N   0  0  0  0  0  0  0  0  0  0  0  0
    7.0988    0.0997   18.7700 C   0  0  0  0  0  0  0  0  0  0  0  0
    8.0483   -0.4294   18.6841 H   0  0  0  0  0  0  0  0  0  0  0  0
    5.1741    1.8511   16.8061 H   0  0  0  0  0  0  0  0  0  0  0  0
    3.7967    1.9972   18.8698 H   0  0  0  0  0  0  0  0  0  0  0  0
    4.5994    0.8319   20.9566 H   0  0  0  0  0  0  0  0  0  0  0  0
    6.2323   -0.6323   22.0204 H   0  0  0  0  0  0  0  0  0  0  0  0
    7.1373   -1.6897   20.9433 H   0  0  0  0  0  0  0  0  0  0  0  0
    8.0516    2.9627   22.9359 H   0  0  0  0  0  0  0  0  0  0  0  0
    6.7152    2.1002   22.1772 H   0  0  0  0  0  0  0  0  0  0  0  0
    8.0568    1.2731   25.2822 C   0  0  0  0  0  0  0  0  0  0  0  0
    7.5152    0.5794   26.2666 N   0  0  0  0  0  0  0  0  0  0  0  0
    9.0848    1.6091   25.3377 H   0  0  0  0  0  0  0  0  0  0  0  0
    5.1319    0.5201   24.0426 H   0  0  0  0  0  0  0  0  0  0  0  0
    5.8725   -2.4680   25.7368 H   0  0  0  0  0  0  0  0  0  0  0  0
    4.4664   -1.6906   24.9850 H   0  0  0  0  0  0  0  0  0  0  0  0
    4.3028   -2.4674   26.5590 H   0  0  0  0  0  0  0  0  0  0  0  0
  1  2  1  0
  2  3  1  0
  3  4  1  0
  3  5  1  0
  3  6  1  0
  2  7  1  0
  7  8  1  0
  7  9  1  0
  7 10  1  0
  2 11  1  0
 11 12  1  0
 12 13  2  0
 13 14  1  0
 14 15  1  0
 15 16  2  0
 16 17  1  0
 17 18  1  0
 18 19  2  0
 19 20  1  0
 20 21  2  0
 21 22  1  0
 22 23  2  0
 23 24  1  0
 22 25  1  0
 21 26  1  0
 20 27  1  0
 19 28  1  0
 17 29  2  0
 29 30  1  0
 30 31  1  0
 31 32  1  0
 32 33  2  0
 33 34  1  0
 34 35  2  0
 35 36  1  0
 36 37  2  0
 37 38  1  0
 35 39  1  0
 34 40  1  0
 33 41  1  0
 31 42  1  0
 31 43  1  0
 14 44  1  0
 14 45  1  0
 13 46  1  0
 46 47  2  0
 46 48  1  0
 12 49  1  0
  1 50  1  0
  1 51  1  0
  1 52  1  0
 47 11  1  0
 30 15  1  0
 37 32  1  0
 23 18  1  0
M  END
>  <cnnaffinity>  (1) 
-6.68854

>  <filename>  (1) 
CC(C)(C)n1cc(Cc2nc(-c3ccccc3)nn2Cc2cccnc2)cn1

$$$$
