
     RDKit          3D

 39 41  0  0  0  0  0  0  0  0999 V2000
    5.0933    1.8128   16.8835 H   0  0  0  0  0  0  0  0  0  0  0  0
    5.4947    1.3109   17.7621 C   0  0  0  0  0  0  0  0  0  0  0  0
    6.6477    0.6449   17.5891 N   0  0  0  0  0  0  0  0  0  0  0  0
    7.1605   -0.0014   18.6425 C   0  0  0  0  0  0  0  0  0  0  0  0
    8.0826   -0.5527   18.4542 H   0  0  0  0  0  0  0  0  0  0  0  0
    6.5721    0.0051   19.9214 C   0  0  0  0  0  0  0  0  0  0  0  0
    7.1834   -0.7183   21.0462 C   0  0  0  0  0  0  0  0  0  0  0  0
    7.7494   -1.9163   20.8816 N   0  0  0  0  0  0  0  0  0  0  0  0
    8.1058   -2.2682   22.1209 N   0  0  0  0  0  0  0  0  0  0  0  0
    7.8206   -1.3533   23.0532 C   0  0  0  0  0  0  0  0  0  0  0  0
    7.2486   -0.2800   22.4030 C   0  0  0  0  0  0  0  0  0  0  0  0
    6.9349    1.0645   22.9986 C   0  0  0  0  0  0  0  0  0  0  0  0
    6.9646    1.8209   22.1942 H   0  0  0  0  0  0  0  0  0  0  0  0
    5.9061    1.0684   23.3927 H   0  0  0  0  0  0  0  0  0  0  0  0
    7.8227    1.3793   24.1153 N   0  0  0  0  0  0  0  0  0  0  0  0
    8.7373    1.6412   23.7536 H   0  0  0  0  0  0  0  0  0  0  0  0
    7.3955    2.4306   25.0340 C   0  0  0  0  0  0  0  0  0  0  0  0
    6.3853    2.1673   25.3835 H   0  0  0  0  0  0  0  0  0  0  0  0
    7.3335    3.8196   24.3872 C   0  0  0  0  0  0  0  0  0  0  0  0
    6.9554    4.5658   25.0945 H   0  0  0  0  0  0  0  0  0  0  0  0
    6.6723    3.8200   23.5127 H   0  0  0  0  0  0  0  0  0  0  0  0
    8.3287    4.1446   24.0556 H   0  0  0  0  0  0  0  0  0  0  0  0
    8.3332    2.3770   26.2356 C   0  0  0  0  0  0  0  0  0  0  0  0
    8.3829    1.3537   26.6216 H   0  0  0  0  0  0  0  0  0  0  0  0
    8.0238    3.0421   27.0482 H   0  0  0  0  0  0  0  0  0  0  0  0
    9.3483    2.6649   25.9417 H   0  0  0  0  0  0  0  0  0  0  0  0
    8.3901   -1.7569   24.3747 C   0  0  0  0  0  0  0  0  0  0  0  0
    9.1949   -1.0642   24.6302 H   0  0  0  0  0  0  0  0  0  0  0  0
    7.6543   -1.6983   25.1768 H   0  0  0  0  0  0  0  0  0  0  0  0
    8.8834   -3.2044   24.1098 C   0  0  0  0  0  0  0  0  0  0  0  0
    8.1487   -3.9119   24.4949 H   0  0  0  0  0  0  0  0  0  0  0  0
    9.8417   -3.4255   24.5851 H   0  0  0  0  0  0  0  0  0  0  0  0
    8.9467   -3.3594   22.5691 C   0  0  0  0  0  0  0  0  0  0  0  0
    9.9551   -3.2086   22.1785 H   0  0  0  0  0  0  0  0  0  0  0  0
    8.5637   -4.3244   22.2243 H   0  0  0  0  0  0  0  0  0  0  0  0
    5.3638    0.7055   20.0782 C   0  0  0  0  0  0  0  0  0  0  0  0
    4.8629    0.7318   21.0467 H   0  0  0  0  0  0  0  0  0  0  0  0
    4.8099    1.3552   18.9794 C   0  0  0  0  0  0  0  0  0  0  0  0
    3.8734    1.8985   19.0565 H   0  0  0  0  0  0  0  0  0  0  0  0
  1  2  1  0
  2  3  2  0
  3  4  1  0
  4  5  1  0
  4  6  2  0
  6  7  1  0
  7  8  2  0
  8  9  1  0
  9 10  1  0
 10 11  2  0
 11 12  1  0
 12 13  1  0
 12 14  1  0
 12 15  1  0
 15 16  1  0
 15 17  1  0
 17 18  1  0
 17 19  1  0
 19 20  1  0
 19 21  1  0
 19 22  1  0
 17 23  1  0
 23 24  1  0
 23 25  1  0
 23 26  1  0
 10 27  1  0
 27 28  1  0
 27 29  1  0
 27 30  1  0
 30 31  1  0
 30 32  1  0
 30 33  1  0
 33 34  1  0
 33 35  1  0
  6 36  1  0
 36 37  1  0
 36 38  2  0
 38 39  1  0
 38  2  1  0
 11  7  1  0
 33  9  1  0
M  END
>  <cnnaffinity>  (1) 
-5.06743

>  <filename>  (1) 
CC(C)NCc1c(-c2cccnc2)nn2c1CCC2

$$$$
