
     RDKit          3D

 33 34  0  0  0  0  0  0  0  0999 V2000
    4.9138    1.8160   16.9636 H   0  0  0  0  0  0  0  0  0  0  0  0
    5.3804    1.3111   17.8092 C   0  0  0  0  0  0  0  0  0  0  0  0
    6.5392    0.6882   17.5441 N   0  0  0  0  0  0  0  0  0  0  0  0
    7.1514    0.0741   18.5658 C   0  0  0  0  0  0  0  0  0  0  0  0
    8.0945   -0.4165   18.3285 H   0  0  0  0  0  0  0  0  0  0  0  0
    6.6548    0.0203   19.8826 C   0  0  0  0  0  0  0  0  0  0  0  0
    7.3761   -0.7011   20.9671 C   0  0  0  0  0  0  0  0  0  0  0  0
    8.7728   -0.6111   21.1702 C   0  0  0  0  0  0  0  0  0  0  0  0
    9.3988    0.0114   20.5376 H   0  0  0  0  0  0  0  0  0  0  0  0
    9.4137   -1.2453   22.1537 N   0  0  0  0  0  0  0  0  0  0  0  0
    8.7335   -2.0238   23.0039 N   0  0  0  0  0  0  0  0  0  0  0  0
    7.4108   -2.1668   22.8640 C   0  0  0  0  0  0  0  0  0  0  0  0
    6.7146   -3.0951   23.8248 C   0  0  0  0  0  0  0  0  0  0  0  0
    5.7699   -2.6169   24.1222 H   0  0  0  0  0  0  0  0  0  0  0  0
    7.3563   -3.1667   24.7215 H   0  0  0  0  0  0  0  0  0  0  0  0
    6.3717   -4.3802   23.1863 N   0  0  0  0  0  0  0  0  0  0  0  0
    7.2169   -4.9201   22.9932 H   0  0  0  0  0  0  0  0  0  0  0  0
    5.4829   -5.2419   23.9605 C   0  0  0  0  0  0  0  0  0  0  0  0
    4.6292   -4.6176   24.2843 H   0  0  0  0  0  0  0  0  0  0  0  0
    6.1975   -5.8166   25.1919 C   0  0  0  0  0  0  0  0  0  0  0  0
    7.1539   -6.2610   24.8868 H   0  0  0  0  0  0  0  0  0  0  0  0
    5.5838   -6.5754   25.6892 H   0  0  0  0  0  0  0  0  0  0  0  0
    6.4393   -5.0343   25.9215 H   0  0  0  0  0  0  0  0  0  0  0  0
    4.9390   -6.3206   23.0214 C   0  0  0  0  0  0  0  0  0  0  0  0
    4.2109   -6.9664   23.5267 H   0  0  0  0  0  0  0  0  0  0  0  0
    4.4476   -5.8487   22.1646 H   0  0  0  0  0  0  0  0  0  0  0  0
    5.7425   -6.9617   22.6332 H   0  0  0  0  0  0  0  0  0  0  0  0
    6.6902   -1.5122   21.8523 C   0  0  0  0  0  0  0  0  0  0  0  0
    5.6221   -1.6799   21.7490 H   0  0  0  0  0  0  0  0  0  0  0  0
    5.4319    0.6632   20.1285 C   0  0  0  0  0  0  0  0  0  0  0  0
    5.0181    0.6520   21.1371 H   0  0  0  0  0  0  0  0  0  0  0  0
    4.7910    1.3279   19.0779 C   0  0  0  0  0  0  0  0  0  0  0  0
    3.8602    1.8562   19.2291 H   0  0  0  0  0  0  0  0  0  0  0  0
  1  2  1  0
  2  3  2  0
  3  4  1  0
  4  5  1  0
  4  6  2  0
  6  7  1  0
  7  8  2  0
  8  9  1  0
  8 10  1  0
 10 11  2  0
 11 12  1  0
 12 13  1  0
 13 14  1  0
 13 15  1  0
 13 16  1  0
 16 17  1  0
 16 18  1  0
 18 19  1  0
 18 20  1  0
 20 21  1  0
 20 22  1  0
 20 23  1  0
 18 24  1  0
 24 25  1  0
 24 26  1  0
 24 27  1  0
 12 28  2  0
 28 29  1  0
  6 30  1  0
 30 31  1  0
 30 32  2  0
 32 33  1  0
 32  2  1  0
 28  7  1  0
M  END
>  <cnnaffinity>  (1) 
-4.78703

>  <filename>  (1) 
CC(C)NCc1cc(-c2cccnc2)cnn1

$$$$
