
     RDKit          3D

 47 50  0  0  0  0  0  0  0  0999 V2000
   10.2299   -1.6473   21.5184 C   0  0  0  0  0  0  0  0  0  0  0  0
   10.8303   -0.2436   21.4190 C   0  0  0  0  0  0  0  0  0  0  0  0
    9.7609    0.8044   20.9624 C   0  0  0  0  0  0  0  0  0  0  0  0
    8.6543    0.9972   21.9518 C   0  0  0  0  0  0  0  0  0  0  0  0
    8.6527    1.8795   22.9311 N   0  0  0  0  0  0  0  0  0  0  0  0
    7.5817    1.5158   23.6734 C   0  0  0  0  0  0  0  0  0  0  0  0
    7.2368    2.1826   24.9194 C   0  0  0  0  0  0  0  0  0  0  0  0
    8.0140    3.2224   25.4594 C   0  0  0  0  0  0  0  0  0  0  0  0
    7.5898    3.7743   26.6569 C   0  0  0  0  0  0  0  0  0  0  0  0
    8.2895    4.7641   27.2256 F   0  0  0  0  0  0  0  0  0  0  0  0
    6.4222    3.3015   27.2700 C   0  0  0  0  0  0  0  0  0  0  0  0
    5.6956    2.3039   26.7529 N   0  0  0  0  0  0  0  0  0  0  0  0
    6.0992    1.7442   25.6079 C   0  0  0  0  0  0  0  0  0  0  0  0
    5.5102    0.9144   25.2250 H   0  0  0  0  0  0  0  0  0  0  0  0
    6.0741    3.7533   28.1950 H   0  0  0  0  0  0  0  0  0  0  0  0
    8.9148    3.5835   24.9666 H   0  0  0  0  0  0  0  0  0  0  0  0
    6.8940    0.4972   23.1847 N   0  0  0  0  0  0  0  0  0  0  0  0
    7.5958    0.1603   22.0777 N   0  0  0  0  0  0  0  0  0  0  0  0
    7.0416   -0.7825   21.1036 C   0  0  0  0  0  0  0  0  0  0  0  0
    6.4366   -0.0981   19.8936 C   0  0  0  0  0  0  0  0  0  0  0  0
    5.2876    0.6821   20.0641 C   0  0  0  0  0  0  0  0  0  0  0  0
    4.7785    1.3741   18.9628 C   0  0  0  0  0  0  0  0  0  0  0  0
    5.4347    1.2559   17.7328 C   0  0  0  0  0  0  0  0  0  0  0  0
    6.5234    0.4980   17.5400 N   0  0  0  0  0  0  0  0  0  0  0  0
    7.0063   -0.1564   18.6072 C   0  0  0  0  0  0  0  0  0  0  0  0
    7.9028   -0.7524   18.4198 H   0  0  0  0  0  0  0  0  0  0  0  0
    5.0674    1.7987   16.8643 H   0  0  0  0  0  0  0  0  0  0  0  0
    3.9098    2.0174   19.0524 H   0  0  0  0  0  0  0  0  0  0  0  0
    4.8190    0.7647   21.0494 H   0  0  0  0  0  0  0  0  0  0  0  0
    6.2995   -1.3621   21.6593 H   0  0  0  0  0  0  0  0  0  0  0  0
    7.8282   -1.4729   20.7955 H   0  0  0  0  0  0  0  0  0  0  0  0
    9.3402    0.4986   20.0052 H   0  0  0  0  0  0  0  0  0  0  0  0
   10.2269    1.7827   20.8019 H   0  0  0  0  0  0  0  0  0  0  0  0
   11.5404    0.2438   22.6718 C   0  0  0  0  0  0  0  0  0  0  0  0
   12.4125    1.3348   22.5439 C   0  0  0  0  0  0  0  0  0  0  0  0
   13.0126    1.8683   23.6809 C   0  0  0  0  0  0  0  0  0  0  0  0
   12.7926    1.4052   24.9134 N   0  0  0  0  0  0  0  0  0  0  0  0
   11.9419    0.3843   25.0420 C   0  0  0  0  0  0  0  0  0  0  0  0
   11.2974   -0.2246   23.9650 C   0  0  0  0  0  0  0  0  0  0  0  0
   10.6124   -1.0442   24.1527 H   0  0  0  0  0  0  0  0  0  0  0  0
   11.7515    0.0440   26.0550 H   0  0  0  0  0  0  0  0  0  0  0  0
   13.6782    2.7238   23.6047 H   0  0  0  0  0  0  0  0  0  0  0  0
   12.5987    1.7876   21.5777 H   0  0  0  0  0  0  0  0  0  0  0  0
   11.6054   -0.2925   20.6481 H   0  0  0  0  0  0  0  0  0  0  0  0
    9.8164   -1.9354   20.5441 H   0  0  0  0  0  0  0  0  0  0  0  0
    9.4259   -1.6845   22.2585 H   0  0  0  0  0  0  0  0  0  0  0  0
   10.9808   -2.3926   21.7932 H   0  0  0  0  0  0  0  0  0  0  0  0
  1  2  1  0
  2  3  1  0
  3  4  1  0
  4  5  2  0
  5  6  1  0
  6  7  1  0
  7  8  2  0
  8  9  1  0
  9 10  1  0
  9 11  2  0
 11 12  1  0
 12 13  2  0
 13 14  1  0
 11 15  1  0
  8 16  1  0
  6 17  2  0
 17 18  1  0
 18 19  1  0
 19 20  1  0
 20 21  2  0
 21 22  1  0
 22 23  2  0
 23 24  1  0
 24 25  2  0
 25 26  1  0
 23 27  1  0
 22 28  1  0
 21 29  1  0
 19 30  1  0
 19 31  1  0
  3 32  1  0
  3 33  1  0
  2 34  1  0
 34 35  2  0
 35 36  1  0
 36 37  2  0
 37 38  1  0
 38 39  2  0
 39 40  1  0
 38 41  1  0
 36 42  1  0
 35 43  1  0
  2 44  1  0
  1 45  1  0
  1 46  1  0
  1 47  1  0
 18  4  1  0
 25 20  1  0
 39 34  1  0
 13  7  1  0
M  END
>  <cnnaffinity>  (1) 
-6.20006

>  <filename>  (1) 
CC(Cc1nc(-c2cncc(F)c2)nn1Cc1cccnc1)c1ccncc1

$$$$
