
     RDKit          3D

 47 50  0  0  0  0  0  0  0  0999 V2000
    8.1588    2.5065   21.6857 C   0  0  0  0  0  0  0  0  0  0  0  0
    9.4945    1.8027   21.8599 C   0  0  0  0  0  0  0  0  0  0  0  0
    9.5845    0.5235   20.9899 C   0  0  0  0  0  0  0  0  0  0  0  0
    8.6323   -0.5557   21.3787 C   0  0  0  0  0  0  0  0  0  0  0  0
    8.8544   -1.4328   22.3357 N   0  0  0  0  0  0  0  0  0  0  0  0
    7.6558   -2.0490   22.4830 C   0  0  0  0  0  0  0  0  0  0  0  0
    7.4125   -3.0395   23.5805 C   0  0  0  0  0  0  0  0  0  0  0  0
    6.7314   -4.3270   23.0434 C   0  0  0  0  0  0  0  0  0  0  0  0
    6.2448   -5.2300   24.1515 C   0  0  0  0  0  0  0  0  0  0  0  0
    6.0681   -4.8239   25.4112 C   0  0  0  0  0  0  0  0  0  0  0  0
    6.4000   -3.4280   25.8950 C   0  0  0  0  0  0  0  0  0  0  0  0
    6.5708   -2.4244   24.7367 C   0  0  0  0  0  0  0  0  0  0  0  0
    7.0353   -1.4980   25.1073 H   0  0  0  0  0  0  0  0  0  0  0  0
    5.5878   -2.1387   24.3345 H   0  0  0  0  0  0  0  0  0  0  0  0
    5.6205   -3.0848   26.5889 H   0  0  0  0  0  0  0  0  0  0  0  0
    7.3202   -3.4721   26.5009 H   0  0  0  0  0  0  0  0  0  0  0  0
    5.6850   -5.5224   26.1574 H   0  0  0  0  0  0  0  0  0  0  0  0
    6.0111   -6.2581   23.8716 H   0  0  0  0  0  0  0  0  0  0  0  0
    5.8824   -4.0419   22.4006 H   0  0  0  0  0  0  0  0  0  0  0  0
    7.4206   -4.8799   22.3908 H   0  0  0  0  0  0  0  0  0  0  0  0
    8.4138   -3.2775   23.9668 H   0  0  0  0  0  0  0  0  0  0  0  0
    6.7136   -1.6375   21.6488 N   0  0  0  0  0  0  0  0  0  0  0  0
    7.3547   -0.6956   20.9122 N   0  0  0  0  0  0  0  0  0  0  0  0
    6.6567   -0.0060   19.8864 C   0  0  0  0  0  0  0  0  0  0  0  0
    5.4419    0.6324   20.1556 C   0  0  0  0  0  0  0  0  0  0  0  0
    4.8076    1.3078   19.1060 C   0  0  0  0  0  0  0  0  0  0  0  0
    5.3958    1.2978   17.8355 C   0  0  0  0  0  0  0  0  0  0  0  0
    6.5488    0.6670   17.5681 N   0  0  0  0  0  0  0  0  0  0  0  0
    7.1614    0.0393   18.5772 C   0  0  0  0  0  0  0  0  0  0  0  0
    8.1041   -0.4510   18.3430 H   0  0  0  0  0  0  0  0  0  0  0  0
    4.9297    1.8099   16.9964 H   0  0  0  0  0  0  0  0  0  0  0  0
    3.8748    1.8433   19.2561 H   0  0  0  0  0  0  0  0  0  0  0  0
    5.0191    0.5939   21.1615 H   0  0  0  0  0  0  0  0  0  0  0  0
   10.5894    0.1016   21.0524 H   0  0  0  0  0  0  0  0  0  0  0  0
    9.3951    0.8036   19.9548 H   0  0  0  0  0  0  0  0  0  0  0  0
    9.7767    1.5309   23.2675 N   0  0  0  0  0  0  0  0  0  0  0  0
   11.0296    1.4429   23.8369 C   0  0  0  0  0  0  0  0  0  0  0  0
   10.8238    1.0111   25.1199 C   0  0  0  0  0  0  0  0  0  0  0  0
    9.4867    0.8254   25.3530 N   0  0  0  0  0  0  0  0  0  0  0  0
    8.8945    1.1333   24.2291 C   0  0  0  0  0  0  0  0  0  0  0  0
    7.8339    1.0449   24.0342 H   0  0  0  0  0  0  0  0  0  0  0  0
   11.5493    0.7948   25.8868 H   0  0  0  0  0  0  0  0  0  0  0  0
   11.9222    1.6796   23.2745 H   0  0  0  0  0  0  0  0  0  0  0  0
   10.2995    2.4735   21.5296 H   0  0  0  0  0  0  0  0  0  0  0  0
    8.0100    2.6387   20.6165 H   0  0  0  0  0  0  0  0  0  0  0  0
    7.3201    1.9093   22.0598 H   0  0  0  0  0  0  0  0  0  0  0  0
    8.1545    3.4693   22.2070 H   0  0  0  0  0  0  0  0  0  0  0  0
  1  2  1  0
  2  3  1  0
  3  4  1  0
  4  5  2  0
  5  6  1  0
  6  7  1  0
  7  8  1  0
  8  9  1  0
  9 10  2  0
 10 11  1  0
 11 12  1  0
 12 13  1  0
 12 14  1  0
 11 15  1  0
 11 16  1  0
 10 17  1  0
  9 18  1  0
  8 19  1  0
  8 20  1  0
  7 21  1  0
  6 22  2  0
 22 23  1  0
 23 24  1  0
 24 25  2  0
 25 26  1  0
 26 27  2  0
 27 28  1  0
 28 29  2  0
 29 30  1  0
 27 31  1  0
 26 32  1  0
 25 33  1  0
  3 34  1  0
  3 35  1  0
  2 36  1  0
 36 37  1  0
 37 38  2  0
 38 39  1  0
 39 40  2  0
 40 41  1  0
 38 42  1  0
 37 43  1  0
  2 44  1  0
  1 45  1  0
  1 46  1  0
  1 47  1  0
 23  4  1  0
 29 24  1  0
 40 36  1  0
 12  7  1  0
M  END
>  <cnnaffinity>  (1) 
-6.21788

>  <filename>  (1) 
CC(Cc1nc(C2CC=CCC2)nn1-c1cccnc1)n1ccnc1

$$$$
