
     RDKit          3D

 43 45  0  0  0  0  0  0  0  0999 V2000
    4.9180    1.8467   16.9148 H   0  0  0  0  0  0  0  0  0  0  0  0
    5.3965    1.3210   17.7392 C   0  0  0  0  0  0  0  0  0  0  0  0
    6.5359    0.6738   17.4411 N   0  0  0  0  0  0  0  0  0  0  0  0
    7.1685    0.0482   18.4427 C   0  0  0  0  0  0  0  0  0  0  0  0
    8.1084   -0.4405   18.2011 H   0  0  0  0  0  0  0  0  0  0  0  0
    6.6909    0.0027   19.7679 C   0  0  0  0  0  0  0  0  0  0  0  0
    7.4140   -0.6923   20.8127 N   0  0  0  0  0  0  0  0  0  0  0  0
    6.7954   -1.7446   21.4620 C   0  0  0  0  0  0  0  0  0  0  0  0
    5.7803   -1.9469   21.1346 H   0  0  0  0  0  0  0  0  0  0  0  0
    7.4023   -2.4639   22.4658 C   0  0  0  0  0  0  0  0  0  0  0  0
    6.7087   -3.5884   23.1566 C   0  0  0  0  0  0  0  0  0  0  0  0
    7.4021   -4.6107   23.8382 C   0  0  0  0  0  0  0  0  0  0  0  0
    8.4857   -4.6703   23.7875 H   0  0  0  0  0  0  0  0  0  0  0  0
    6.7166   -5.5784   24.5744 C   0  0  0  0  0  0  0  0  0  0  0  0
    7.3067   -6.3013   25.1274 H   0  0  0  0  0  0  0  0  0  0  0  0
    5.3106   -5.5942   24.6636 C   0  0  0  0  0  0  0  0  0  0  0  0
    4.5559   -6.7244   25.3958 C   0  0  0  0  0  0  0  0  0  0  0  0
    4.4201   -7.9322   24.4355 C   0  0  0  0  0  0  0  0  0  0  0  0
    3.8269   -8.7307   24.9025 H   0  0  0  0  0  0  0  0  0  0  0  0
    5.3933   -8.3432   24.1529 H   0  0  0  0  0  0  0  0  0  0  0  0
    3.9212   -7.6290   23.5070 H   0  0  0  0  0  0  0  0  0  0  0  0
    5.2709   -7.1595   26.6982 C   0  0  0  0  0  0  0  0  0  0  0  0
    5.2631   -6.3689   27.4602 H   0  0  0  0  0  0  0  0  0  0  0  0
    4.7691   -8.0378   27.1232 H   0  0  0  0  0  0  0  0  0  0  0  0
    6.3141   -7.4264   26.5295 H   0  0  0  0  0  0  0  0  0  0  0  0
    3.1247   -6.3110   25.8005 C   0  0  0  0  0  0  0  0  0  0  0  0
    2.4925   -6.1297   24.9229 H   0  0  0  0  0  0  0  0  0  0  0  0
    3.1290   -5.4031   26.4157 H   0  0  0  0  0  0  0  0  0  0  0  0
    2.6668   -7.1218   26.3797 H   0  0  0  0  0  0  0  0  0  0  0  0
    4.6276   -4.5822   23.9648 C   0  0  0  0  0  0  0  0  0  0  0  0
    3.5481   -4.4903   24.0396 H   0  0  0  0  0  0  0  0  0  0  0  0
    5.3065   -3.6366   23.2044 C   0  0  0  0  0  0  0  0  0  0  0  0
    4.7086   -2.9269   22.6480 H   0  0  0  0  0  0  0  0  0  0  0  0
    8.6964   -2.0260   22.8967 C   0  0  0  0  0  0  0  0  0  0  0  0
    9.1650   -2.5224   23.7459 H   0  0  0  0  0  0  0  0  0  0  0  0
    9.3192   -0.9769   22.2954 C   0  0  0  0  0  0  0  0  0  0  0  0
   10.2854   -0.6011   22.5887 H   0  0  0  0  0  0  0  0  0  0  0  0
    8.7364   -0.2563   21.1763 C   0  0  0  0  0  0  0  0  0  0  0  0
    9.3078    0.6440   20.5848 O   0  0  0  0  0  0  0  0  0  0  0  0
    5.4926    0.6677   20.0585 C   0  0  0  0  0  0  0  0  0  0  0  0
    5.1214    0.6734   21.0856 H   0  0  0  0  0  0  0  0  0  0  0  0
    4.8333    1.3420   19.0211 C   0  0  0  0  0  0  0  0  0  0  0  0
    3.9128    1.8943   19.1947 H   0  0  0  0  0  0  0  0  0  0  0  0
  1  2  1  0
  2  3  2  0
  3  4  1  0
  4  5  1  0
  4  6  2  0
  6  7  1  0
  7  8  1  0
  8  9  1  0
  8 10  2  0
 10 11  1  0
 11 12  2  0
 12 13  1  0
 12 14  1  0
 14 15  1  0
 14 16  2  0
 16 17  1  0
 17 18  1  0
 18 19  1  0
 18 20  1  0
 18 21  1  0
 17 22  1  0
 22 23  1  0
 22 24  1  0
 22 25  1  0
 17 26  1  0
 26 27  1  0
 26 28  1  0
 26 29  1  0
 16 30  1  0
 30 31  1  0
 30 32  2  0
 32 33  1  0
 10 34  1  0
 34 35  1  0
 34 36  2  0
 36 37  1  0
 36 38  1  0
 38 39  2  0
  6 40  1  0
 40 41  1  0
 40 42  2  0
 42 43  1  0
 42  2  1  0
 38  7  1  0
 32 11  1  0
M  END
>  <cnnaffinity>  (1) 
-5.61198

>  <filename>  (1) 
CC(C)(C)c1ccc(-c2ccc(=O)n(-c3cccnc3)c2)cc1

$$$$
