
     RDKit          3D

 49 52  0  0  0  0  0  0  0  0999 V2000
    6.0805   -4.3284   23.0877 C   0  0  0  0  0  0  0  0  0  0  0  0
    5.5624   -4.1985   24.5325 C   0  0  0  0  0  0  0  0  0  0  0  0
    6.4873   -4.9617   25.5049 C   0  0  0  0  0  0  0  0  0  0  0  0
    7.4996   -4.5360   25.5063 H   0  0  0  0  0  0  0  0  0  0  0  0
    6.1098   -4.9351   26.5328 H   0  0  0  0  0  0  0  0  0  0  0  0
    6.5725   -6.0116   25.2031 H   0  0  0  0  0  0  0  0  0  0  0  0
    5.3273   -2.7746   24.9758 C   0  0  0  0  0  0  0  0  0  0  0  0
    4.2265   -2.3655   25.5658 N   0  0  0  0  0  0  0  0  0  0  0  0
    4.4373   -1.0461   25.8791 C   0  0  0  0  0  0  0  0  0  0  0  0
    5.6810   -0.6574   25.4811 C   0  0  0  0  0  0  0  0  0  0  0  0
    6.2559   -1.7657   24.8875 N   0  0  0  0  0  0  0  0  0  0  0  0
    7.5361   -1.7333   24.2028 C   0  0  0  0  0  0  0  0  0  0  0  0
    7.4987   -1.4655   22.7206 C   0  0  0  0  0  0  0  0  0  0  0  0
    6.5679   -0.8299   22.0382 N   0  0  0  0  0  0  0  0  0  0  0  0
    7.0814   -0.7536   20.7860 C   0  0  0  0  0  0  0  0  0  0  0  0
    6.4313   -0.0007   19.7130 C   0  0  0  0  0  0  0  0  0  0  0  0
    5.2491    0.7324   19.9075 C   0  0  0  0  0  0  0  0  0  0  0  0
    4.7367    1.4441   18.8245 C   0  0  0  0  0  0  0  0  0  0  0  0
    5.4181    1.3998   17.6018 C   0  0  0  0  0  0  0  0  0  0  0  0
    6.5484    0.7034   17.4084 N   0  0  0  0  0  0  0  0  0  0  0  0
    7.0436    0.0301   18.4515 C   0  0  0  0  0  0  0  0  0  0  0  0
    7.9747   -0.5102   18.2836 H   0  0  0  0  0  0  0  0  0  0  0  0
    5.0433    1.9518   16.7414 H   0  0  0  0  0  0  0  0  0  0  0  0
    3.8396    2.0471   18.9185 H   0  0  0  0  0  0  0  0  0  0  0  0
    4.7598    0.7491   20.8850 H   0  0  0  0  0  0  0  0  0  0  0  0
    8.2588   -1.3397   20.6488 N   0  0  0  0  0  0  0  0  0  0  0  0
    8.5253   -1.7951   21.8955 N   0  0  0  0  0  0  0  0  0  0  0  0
    9.8581   -2.3221   22.1929 C   0  0  0  0  0  0  0  0  0  0  0  0
   10.7538   -1.3246   22.8897 C   0  0  0  0  0  0  0  0  0  0  0  0
   11.6143   -0.5256   22.1306 C   0  0  0  0  0  0  0  0  0  0  0  0
   12.3503    0.5033   22.7215 C   0  0  0  0  0  0  0  0  0  0  0  0
   12.1774    0.7453   24.0787 C   0  0  0  0  0  0  0  0  0  0  0  0
   12.8444    1.7530   24.6571 F   0  0  0  0  0  0  0  0  0  0  0  0
   11.3644   -0.0526   24.8770 C   0  0  0  0  0  0  0  0  0  0  0  0
   10.6930   -1.1201   24.2768 C   0  0  0  0  0  0  0  0  0  0  0  0
   10.1677   -1.8305   24.9117 H   0  0  0  0  0  0  0  0  0  0  0  0
   11.2551    0.1781   25.9310 H   0  0  0  0  0  0  0  0  0  0  0  0
   13.0439    1.1181   22.1598 H   0  0  0  0  0  0  0  0  0  0  0  0
   11.7035   -0.7034   21.0594 H   0  0  0  0  0  0  0  0  0  0  0  0
    9.7622   -3.2297   22.7952 H   0  0  0  0  0  0  0  0  0  0  0  0
   10.2699   -2.5986   21.2214 H   0  0  0  0  0  0  0  0  0  0  0  0
    8.1088   -0.9185   24.6511 H   0  0  0  0  0  0  0  0  0  0  0  0
    8.0856   -2.6582   24.4010 H   0  0  0  0  0  0  0  0  0  0  0  0
    6.2071    0.2838   25.5697 H   0  0  0  0  0  0  0  0  0  0  0  0
    3.6765   -0.4564   26.3761 H   0  0  0  0  0  0  0  0  0  0  0  0
    4.5584   -4.6379   24.5921 H   0  0  0  0  0  0  0  0  0  0  0  0
    5.8964   -5.3421   22.7163 H   0  0  0  0  0  0  0  0  0  0  0  0
    7.1640   -4.1700   23.0297 H   0  0  0  0  0  0  0  0  0  0  0  0
    5.6029   -3.6110   22.4106 H   0  0  0  0  0  0  0  0  0  0  0  0
  1  2  1  0
  2  3  1  0
  3  4  1  0
  3  5  1  0
  3  6  1  0
  2  7  1  0
  7  8  2  0
  8  9  1  0
  9 10  2  0
 10 11  1  0
 11 12  1  0
 12 13  1  0
 13 14  2  0
 14 15  1  0
 15 16  1  0
 16 17  2  0
 17 18  1  0
 18 19  2  0
 19 20  1  0
 20 21  2  0
 21 22  1  0
 19 23  1  0
 18 24  1  0
 17 25  1  0
 15 26  2  0
 26 27  1  0
 27 28  1  0
 28 29  1  0
 29 30  2  0
 30 31  1  0
 31 32  2  0
 32 33  1  0
 32 34  1  0
 34 35  2  0
 35 36  1  0
 34 37  1  0
 31 38  1  0
 30 39  1  0
 28 40  1  0
 28 41  1  0
 12 42  1  0
 12 43  1  0
 10 44  1  0
  9 45  1  0
  2 46  1  0
  1 47  1  0
  1 48  1  0
  1 49  1  0
 11  7  1  0
 27 13  1  0
 35 29  1  0
 21 16  1  0
M  END
>  <cnnaffinity>  (1) 
-6.06579

>  <filename>  (1) 
CC(C)c1nccn1Cc1nc(-c2cccnc2)nn1Cc1ccc(F)cc1

$$$$
