
     RDKit          3D

 46 49  0  0  0  0  0  0  0  0999 V2000
    8.3852    1.3935   25.4446 C   0  0  0  0  0  0  0  0  0  0  0  0
    7.1656    1.2145   24.5403 C   0  0  0  0  0  0  0  0  0  0  0  0
    7.3995    1.7815   23.1127 C   0  0  0  0  0  0  0  0  0  0  0  0
    8.3876    0.9571   22.3735 C   0  0  0  0  0  0  0  0  0  0  0  0
    9.7013    1.0511   22.5014 N   0  0  0  0  0  0  0  0  0  0  0  0
   10.1519   -0.0825   21.9118 C   0  0  0  0  0  0  0  0  0  0  0  0
   11.5687   -0.4669   21.7854 C   0  0  0  0  0  0  0  0  0  0  0  0
   12.6341    0.3360   22.2402 C   0  0  0  0  0  0  0  0  0  0  0  0
   13.9507   -0.0630   21.9746 C   0  0  0  0  0  0  0  0  0  0  0  0
   14.1830   -1.2097   21.2095 C   0  0  0  0  0  0  0  0  0  0  0  0
   13.1359   -1.9939   20.7582 C   0  0  0  0  0  0  0  0  0  0  0  0
   11.8361   -1.6637   21.1072 C   0  0  0  0  0  0  0  0  0  0  0  0
   10.9822   -2.2767   20.8418 H   0  0  0  0  0  0  0  0  0  0  0  0
   13.3658   -2.8255   20.1028 H   0  0  0  0  0  0  0  0  0  0  0  0
   15.1486   -1.5307   20.8692 H   0  0  0  0  0  0  0  0  0  0  0  0
   14.7967    0.5561   22.2553 H   0  0  0  0  0  0  0  0  0  0  0  0
   12.4380    1.2714   22.7620 H   0  0  0  0  0  0  0  0  0  0  0  0
    9.1890   -0.8363   21.3993 N   0  0  0  0  0  0  0  0  0  0  0  0
    8.0640   -0.1593   21.6851 N   0  0  0  0  0  0  0  0  0  0  0  0
    6.7840   -0.6269   21.1586 C   0  0  0  0  0  0  0  0  0  0  0  0
    6.2742    0.1479   19.9574 C   0  0  0  0  0  0  0  0  0  0  0  0
    5.0595    0.8427   19.9562 C   0  0  0  0  0  0  0  0  0  0  0  0
    4.6530    1.4994   18.7908 C   0  0  0  0  0  0  0  0  0  0  0  0
    5.4732    1.4285   17.6627 C   0  0  0  0  0  0  0  0  0  0  0  0
    6.6442    0.7736   17.6417 N   0  0  0  0  0  0  0  0  0  0  0  0
    7.0266    0.1647   18.7707 C   0  0  0  0  0  0  0  0  0  0  0  0
    7.9851   -0.3501   18.7297 H   0  0  0  0  0  0  0  0  0  0  0  0
    5.1842    1.9252   16.7375 H   0  0  0  0  0  0  0  0  0  0  0  0
    3.7276    2.0645   18.7465 H   0  0  0  0  0  0  0  0  0  0  0  0
    4.4352    0.8712   20.8507 H   0  0  0  0  0  0  0  0  0  0  0  0
    6.9500   -1.6770   20.8973 H   0  0  0  0  0  0  0  0  0  0  0  0
    6.0448   -0.6058   21.9652 H   0  0  0  0  0  0  0  0  0  0  0  0
    6.4617    1.8274   22.5516 H   0  0  0  0  0  0  0  0  0  0  0  0
    7.7907    2.7990   23.1678 H   0  0  0  0  0  0  0  0  0  0  0  0
    5.9571    1.7719   25.1425 N   0  0  0  0  0  0  0  0  0  0  0  0
    5.7546    3.0397   25.6483 C   0  0  0  0  0  0  0  0  0  0  0  0
    4.4619    3.0541   26.0853 C   0  0  0  0  0  0  0  0  0  0  0  0
    3.8553    1.8442   25.8625 N   0  0  0  0  0  0  0  0  0  0  0  0
    4.7785    1.1056   25.3013 C   0  0  0  0  0  0  0  0  0  0  0  0
    4.6687    0.0686   25.0021 H   0  0  0  0  0  0  0  0  0  0  0  0
    3.9289    3.8732   26.5537 H   0  0  0  0  0  0  0  0  0  0  0  0
    6.5293    3.7965   25.6557 H   0  0  0  0  0  0  0  0  0  0  0  0
    6.9657    0.1381   24.4576 H   0  0  0  0  0  0  0  0  0  0  0  0
    8.6366    2.4550   25.5488 H   0  0  0  0  0  0  0  0  0  0  0  0
    8.2016    0.9781   26.4387 H   0  0  0  0  0  0  0  0  0  0  0  0
    9.2539    0.8904   25.0115 H   0  0  0  0  0  0  0  0  0  0  0  0
  1  2  1  0
  2  3  1  0
  3  4  1  0
  4  5  2  0
  5  6  1  0
  6  7  1  0
  7  8  2  0
  8  9  1  0
  9 10  2  0
 10 11  1  0
 11 12  2  0
 12 13  1  0
 11 14  1  0
 10 15  1  0
  9 16  1  0
  8 17  1  0
  6 18  2  0
 18 19  1  0
 19 20  1  0
 20 21  1  0
 21 22  2  0
 22 23  1  0
 23 24  2  0
 24 25  1  0
 25 26  2  0
 26 27  1  0
 24 28  1  0
 23 29  1  0
 22 30  1  0
 20 31  1  0
 20 32  1  0
  3 33  1  0
  3 34  1  0
  2 35  1  0
 35 36  1  0
 36 37  2  0
 37 38  1  0
 38 39  2  0
 39 40  1  0
 37 41  1  0
 36 42  1  0
  2 43  1  0
  1 44  1  0
  1 45  1  0
  1 46  1  0
 19  4  1  0
 26 21  1  0
 39 35  1  0
 12  7  1  0
M  END
>  <cnnaffinity>  (1) 
-6.41587

>  <filename>  (1) 
CC(Cc1nc(-c2ccccc2)nn1Cc1cccnc1)n1ccnc1

$$$$
