
     RDKit          3D

 44 46  0  0  0  0  0  0  0  0999 V2000
    8.1204   -5.2936   24.4445 C   0  0  0  0  0  0  0  0  0  0  0  0
    8.1980   -4.3175   23.2678 C   0  0  0  0  0  0  0  0  0  0  0  0
    7.5971   -4.9638   22.0158 C   0  0  0  0  0  0  0  0  0  0  0  0
    7.7091   -4.3031   21.1525 H   0  0  0  0  0  0  0  0  0  0  0  0
    6.5325   -5.1696   22.1566 H   0  0  0  0  0  0  0  0  0  0  0  0
    8.1019   -5.9081   21.7936 H   0  0  0  0  0  0  0  0  0  0  0  0
    7.4743   -3.0043   23.6142 C   0  0  0  0  0  0  0  0  0  0  0  0
    7.6730   -1.9618   22.5495 C   0  0  0  0  0  0  0  0  0  0  0  0
    6.7294   -1.6404   21.6990 N   0  0  0  0  0  0  0  0  0  0  0  0
    7.3172   -0.6846   20.9422 N   0  0  0  0  0  0  0  0  0  0  0  0
    6.6671    0.0060   19.9130 C   0  0  0  0  0  0  0  0  0  0  0  0
    5.4473    0.6419   20.1629 C   0  0  0  0  0  0  0  0  0  0  0  0
    4.8195    1.3049   19.1047 C   0  0  0  0  0  0  0  0  0  0  0  0
    5.4031    1.2948   17.8290 C   0  0  0  0  0  0  0  0  0  0  0  0
    6.5740    0.6781   17.5808 N   0  0  0  0  0  0  0  0  0  0  0  0
    7.1903    0.0600   18.6065 C   0  0  0  0  0  0  0  0  0  0  0  0
    8.1307   -0.4401   18.4011 H   0  0  0  0  0  0  0  0  0  0  0  0
    4.8885    1.7933   17.0125 H   0  0  0  0  0  0  0  0  0  0  0  0
    3.8824    1.8325   19.2606 H   0  0  0  0  0  0  0  0  0  0  0  0
    5.0066    0.6271   21.1623 H   0  0  0  0  0  0  0  0  0  0  0  0
    8.5985   -0.4466   21.4230 C   0  0  0  0  0  0  0  0  0  0  0  0
    9.5430    0.6206   20.9463 C   0  0  0  0  0  0  0  0  0  0  0  0
    9.0616    2.0034   21.4067 C   0  0  0  0  0  0  0  0  0  0  0  0
    8.9515    2.0661   22.9195 C   0  0  0  0  0  0  0  0  0  0  0  0
    7.7094    1.8464   23.5221 C   0  0  0  0  0  0  0  0  0  0  0  0
    7.6302    1.8891   24.9115 C   0  0  0  0  0  0  0  0  0  0  0  0
    8.7778    2.1486   25.6636 C   0  0  0  0  0  0  0  0  0  0  0  0
    9.9705    2.3700   25.0928 N   0  0  0  0  0  0  0  0  0  0  0  0
   10.0649    2.3277   23.7501 C   0  0  0  0  0  0  0  0  0  0  0  0
   11.7898    2.6360   22.9889 Br  0  0  0  0  0  0  0  0  0  0  0  0
    8.6984    2.1743   26.7461 H   0  0  0  0  0  0  0  0  0  0  0  0
    6.6858    1.7151   25.4132 H   0  0  0  0  0  0  0  0  0  0  0  0
    6.8234    1.6402   22.9229 H   0  0  0  0  0  0  0  0  0  0  0  0
    8.0860    2.2220   20.9529 H   0  0  0  0  0  0  0  0  0  0  0  0
    9.7593    2.7630   21.0447 H   0  0  0  0  0  0  0  0  0  0  0  0
   10.5457    0.4201   21.3432 H   0  0  0  0  0  0  0  0  0  0  0  0
    9.5849    0.5902   19.8544 H   0  0  0  0  0  0  0  0  0  0  0  0
    8.8568   -1.2518   22.4102 N   0  0  0  0  0  0  0  0  0  0  0  0
    6.4046   -3.1891   23.7460 H   0  0  0  0  0  0  0  0  0  0  0  0
    7.8576   -2.6185   24.5620 H   0  0  0  0  0  0  0  0  0  0  0  0
    9.2539   -4.1028   23.0782 H   0  0  0  0  0  0  0  0  0  0  0  0
    8.6506   -6.2211   24.2082 H   0  0  0  0  0  0  0  0  0  0  0  0
    8.5816   -4.8559   25.3342 H   0  0  0  0  0  0  0  0  0  0  0  0
    7.0819   -5.5410   24.6806 H   0  0  0  0  0  0  0  0  0  0  0  0
  1  2  1  0
  2  3  1  0
  3  4  1  0
  3  5  1  0
  3  6  1  0
  2  7  1  0
  7  8  1  0
  8  9  2  0
  9 10  1  0
 10 11  1  0
 11 12  2  0
 12 13  1  0
 13 14  2  0
 14 15  1  0
 15 16  2  0
 16 17  1  0
 14 18  1  0
 13 19  1  0
 12 20  1  0
 10 21  1  0
 21 22  1  0
 22 23  1  0
 23 24  1  0
 24 25  2  0
 25 26  1  0
 26 27  2  0
 27 28  1  0
 28 29  2  0
 29 30  1  0
 27 31  1  0
 26 32  1  0
 25 33  1  0
 23 34  1  0
 23 35  1  0
 22 36  1  0
 22 37  1  0
 21 38  2  0
  7 39  1  0
  7 40  1  0
  2 41  1  0
  1 42  1  0
  1 43  1  0
  1 44  1  0
 38  8  1  0
 16 11  1  0
 29 24  1  0
M  END
>  <cnnaffinity>  (1) 
-6.33403

>  <filename>  (1) 
CC(C)Cc1nc(CCc2cccnc2Br)n(-c2cccnc2)n1

$$$$
