
     RDKit          3D

 50 53  0  0  0  0  0  0  0  0999 V2000
    6.6476   -4.7125   23.2841 C   0  0  0  0  0  0  0  0  0  0  0  0
    7.4717   -3.5163   23.7919 C   0  0  0  0  0  0  0  0  0  0  0  0
    7.7076   -2.4558   22.7406 C   0  0  0  0  0  0  0  0  0  0  0  0
    6.9060   -2.1848   21.7293 N   0  0  0  0  0  0  0  0  0  0  0  0
    7.4750   -1.0860   21.1639 N   0  0  0  0  0  0  0  0  0  0  0  0
    6.8206   -0.4708   20.0493 C   0  0  0  0  0  0  0  0  0  0  0  0
    5.5426    0.0630   20.2261 C   0  0  0  0  0  0  0  0  0  0  0  0
    4.9455    0.7100   19.1442 C   0  0  0  0  0  0  0  0  0  0  0  0
    5.6185    0.7475   17.9190 C   0  0  0  0  0  0  0  0  0  0  0  0
    6.8203    0.1810   17.7270 N   0  0  0  0  0  0  0  0  0  0  0  0
    7.4063   -0.4153   18.7745 C   0  0  0  0  0  0  0  0  0  0  0  0
    8.3706   -0.8928   18.5857 H   0  0  0  0  0  0  0  0  0  0  0  0
    5.1688    1.2416   17.0596 H   0  0  0  0  0  0  0  0  0  0  0  0
    3.9749    1.1854   19.2462 H   0  0  0  0  0  0  0  0  0  0  0  0
    5.0514   -0.0225   21.1979 H   0  0  0  0  0  0  0  0  0  0  0  0
    8.5784   -0.7423   21.8855 C   0  0  0  0  0  0  0  0  0  0  0  0
    9.4292    0.4793   21.6640 C   0  0  0  0  0  0  0  0  0  0  0  0
    8.9557    1.7077   22.3315 N   0  0  0  0  0  0  0  0  0  0  0  0
    9.1063    1.7762   23.7866 C   0  0  0  0  0  0  0  0  0  0  0  0
    9.1823    3.2391   24.2484 C   0  0  0  0  0  0  0  0  0  0  0  0
   10.4753    3.9111   23.7806 C   0  0  0  0  0  0  0  0  0  0  0  0
   10.5941    3.9877   22.4512 F   0  0  0  0  0  0  0  0  0  0  0  0
   10.5626    5.1716   24.2597 F   0  0  0  0  0  0  0  0  0  0  0  0
   11.5700    3.2584   24.2269 F   0  0  0  0  0  0  0  0  0  0  0  0
    7.9023    3.9810   23.7922 C   0  0  0  0  0  0  0  0  0  0  0  0
    7.7141    3.8789   22.2681 C   0  0  0  0  0  0  0  0  0  0  0  0
    8.0775    2.5316   21.6413 C   0  0  0  0  0  0  0  0  0  0  0  0
    7.6572    2.2066   20.5478 O   0  0  0  0  0  0  0  0  0  0  0  0
    6.6795    4.0884   21.9822 H   0  0  0  0  0  0  0  0  0  0  0  0
    8.3337    4.6183   21.7459 H   0  0  0  0  0  0  0  0  0  0  0  0
    7.9271    5.0389   24.0937 H   0  0  0  0  0  0  0  0  0  0  0  0
    7.0452    3.5185   24.3070 H   0  0  0  0  0  0  0  0  0  0  0  0
    9.2911    3.2620   25.3387 H   0  0  0  0  0  0  0  0  0  0  0  0
   10.0114    1.2206   24.0681 H   0  0  0  0  0  0  0  0  0  0  0  0
    8.2686    1.2689   24.2986 H   0  0  0  0  0  0  0  0  0  0  0  0
   10.4276    0.2467   22.0481 H   0  0  0  0  0  0  0  0  0  0  0  0
    9.5252    0.6703   20.5933 H   0  0  0  0  0  0  0  0  0  0  0  0
    8.7679   -1.6114   22.8587 N   0  0  0  0  0  0  0  0  0  0  0  0
    6.9184   -2.8229   25.0559 C   0  0  0  0  0  0  0  0  0  0  0  0
    5.4694   -2.4817   25.2395 C   0  0  0  0  0  0  0  0  0  0  0  0
    6.1204   -3.5044   26.1318 C   0  0  0  0  0  0  0  0  0  0  0  0
    5.8336   -4.5471   26.0025 H   0  0  0  0  0  0  0  0  0  0  0  0
    6.3388   -3.2348   27.1637 H   0  0  0  0  0  0  0  0  0  0  0  0
    4.7453   -2.8481   24.5141 H   0  0  0  0  0  0  0  0  0  0  0  0
    5.2207   -1.5044   25.6467 H   0  0  0  0  0  0  0  0  0  0  0  0
    7.6010   -2.0605   25.4369 H   0  0  0  0  0  0  0  0  0  0  0  0
    8.4816   -3.8710   24.0388 H   0  0  0  0  0  0  0  0  0  0  0  0
    6.5151   -5.4660   24.0694 H   0  0  0  0  0  0  0  0  0  0  0  0
    7.1519   -5.1956   22.4416 H   0  0  0  0  0  0  0  0  0  0  0  0
    5.6549   -4.4037   22.9375 H   0  0  0  0  0  0  0  0  0  0  0  0
  1  2  1  0
  2  3  1  0
  3  4  2  0
  4  5  1  0
  5  6  1  0
  6  7  2  0
  7  8  1  0
  8  9  2  0
  9 10  1  0
 10 11  2  0
 11 12  1  0
  9 13  1  0
  8 14  1  0
  7 15  1  0
  5 16  1  0
 16 17  1  0
 17 18  1  0
 18 19  1  0
 19 20  1  0
 20 21  1  0
 21 22  1  0
 21 23  1  0
 21 24  1  0
 20 25  1  0
 25 26  1  0
 26 27  1  0
 27 28  2  0
 26 29  1  0
 26 30  1  0
 25 31  1  0
 25 32  1  0
 20 33  1  0
 19 34  1  0
 19 35  1  0
 17 36  1  0
 17 37  1  0
 16 38  2  0
  2 39  1  0
 39 40  1  0
 40 41  1  0
 41 42  1  0
 41 43  1  0
 40 44  1  0
 40 45  1  0
 39 46  1  0
  2 47  1  0
  1 48  1  0
  1 49  1  0
  1 50  1  0
 38  3  1  0
 41 39  1  0
 11  6  1  0
 27 18  1  0
M  END
>  <cnnaffinity>  (1) 
-6.59908

>  <filename>  (1) 
CC(c1nc(CN2CC(C(F)(F)F)CCC2=O)n(-c2cccnc2)n1)C1CC1

$$$$
