
     RDKit          3D

 36 37  0  0  0  0  0  0  0  0999 V2000
    4.9396    1.7646   17.0134 H   0  0  0  0  0  0  0  0  0  0  0  0
    5.4194    1.2768   17.8629 C   0  0  0  0  0  0  0  0  0  0  0  0
    6.5824    0.6556   17.6245 N   0  0  0  0  0  0  0  0  0  0  0  0
    7.1922    0.0335   18.6370 C   0  0  0  0  0  0  0  0  0  0  0  0
    8.1356   -0.4510   18.3897 H   0  0  0  0  0  0  0  0  0  0  0  0
    6.6506    0.0130   19.9136 C   0  0  0  0  0  0  0  0  0  0  0  0
    7.4809   -0.9040   21.1591 S   0  0  0  0  0  0  0  0  0  0  0  0
    8.3560   -1.8654   20.5022 O   0  0  0  0  0  0  0  0  0  0  0  0
    6.4383   -1.3427   22.0703 O   0  0  0  0  0  0  0  0  0  0  0  0
    8.6115    0.3160   22.0571 C   0  0  0  0  0  0  0  0  0  0  0  0
    9.4795    1.0480   21.0214 C   0  0  0  0  0  0  0  0  0  0  0  0
   10.1962    1.7133   21.5270 H   0  0  0  0  0  0  0  0  0  0  0  0
    8.8596    1.6749   20.3729 H   0  0  0  0  0  0  0  0  0  0  0  0
   10.0426    0.3313   20.4194 H   0  0  0  0  0  0  0  0  0  0  0  0
    7.7621    1.3357   22.8263 C   0  0  0  0  0  0  0  0  0  0  0  0
    7.1346    1.9258   22.1471 H   0  0  0  0  0  0  0  0  0  0  0  0
    7.1146    0.8525   23.5639 H   0  0  0  0  0  0  0  0  0  0  0  0
    8.4180    2.0421   23.3519 H   0  0  0  0  0  0  0  0  0  0  0  0
    9.5688   -0.4900   23.0090 C   0  0  0  0  0  0  0  0  0  0  0  0
   10.1554   -1.1893   22.3984 H   0  0  0  0  0  0  0  0  0  0  0  0
   10.2883    0.2222   23.4379 H   0  0  0  0  0  0  0  0  0  0  0  0
    8.9239   -1.2631   24.1405 C   0  0  0  0  0  0  0  0  0  0  0  0
    8.5251   -2.5955   23.9271 C   0  0  0  0  0  0  0  0  0  0  0  0
    8.6921   -3.0379   22.9485 H   0  0  0  0  0  0  0  0  0  0  0  0
    7.8797   -3.3324   24.9193 C   0  0  0  0  0  0  0  0  0  0  0  0
    7.5718   -4.3532   24.7173 H   0  0  0  0  0  0  0  0  0  0  0  0
    7.6356   -2.7572   26.1688 C   0  0  0  0  0  0  0  0  0  0  0  0
    7.1394   -3.3281   26.9482 H   0  0  0  0  0  0  0  0  0  0  0  0
    8.0423   -1.4485   26.4242 C   0  0  0  0  0  0  0  0  0  0  0  0
    7.8797   -0.9854   27.3930 H   0  0  0  0  0  0  0  0  0  0  0  0
    8.6892   -0.7212   25.4189 C   0  0  0  0  0  0  0  0  0  0  0  0
    9.2275    0.8883   25.8399 Cl  0  0  0  0  0  0  0  0  0  0  0  0
    5.4393    0.6554   20.1836 C   0  0  0  0  0  0  0  0  0  0  0  0
    4.9851    0.6317   21.1775 H   0  0  0  0  0  0  0  0  0  0  0  0
    4.8177    1.3050   19.1230 C   0  0  0  0  0  0  0  0  0  0  0  0
    3.8858    1.8347   19.2627 H   0  0  0  0  0  0  0  0  0  0  0  0
  1  2  1  0
  2  3  2  0
  3  4  1  0
  4  5  1  0
  4  6  2  0
  6  7  1  0
  7  8  2  0
  7  9  2  0
  7 10  1  0
 10 11  1  0
 11 12  1  0
 11 13  1  0
 11 14  1  0
 10 15  1  0
 15 16  1  0
 15 17  1  0
 15 18  1  0
 10 19  1  0
 19 20  1  0
 19 21  1  0
 19 22  1  0
 22 23  2  0
 23 24  1  0
 23 25  1  0
 25 26  1  0
 25 27  2  0
 27 28  1  0
 27 29  1  0
 29 30  1  0
 29 31  2  0
 31 32  1  0
  6 33  1  0
 33 34  1  0
 33 35  2  0
 35 36  1  0
 35  2  1  0
 31 22  1  0
M  END
>  <cnnaffinity>  (1) 
-5.83939

>  <filename>  (1) 
CC(C)(Cc1ccccc1Cl)S(=O)(=O)c1cccnc1

$$$$
