
     RDKit          3D

 48 50  0  0  0  0  0  0  0  0999 V2000
    8.3234   -6.5946   22.6021 C   0  0  0  0  0  0  0  0  0  0  0  0
    8.0622   -5.6374   23.7679 C   0  0  0  0  0  0  0  0  0  0  0  0
    9.2474   -5.6009   24.7528 C   0  0  0  0  0  0  0  0  0  0  0  0
    9.6703   -6.6033   24.8874 H   0  0  0  0  0  0  0  0  0  0  0  0
   10.0644   -4.9597   24.3997 H   0  0  0  0  0  0  0  0  0  0  0  0
    8.9424   -5.2383   25.7429 H   0  0  0  0  0  0  0  0  0  0  0  0
    7.6417   -4.2392   23.2658 C   0  0  0  0  0  0  0  0  0  0  0  0
    8.6460   -3.5538   22.3114 C   0  0  0  0  0  0  0  0  0  0  0  0
    8.2735   -2.1533   21.9569 C   0  0  0  0  0  0  0  0  0  0  0  0
    7.7063   -1.8681   20.8066 N   0  0  0  0  0  0  0  0  0  0  0  0
    7.3776   -0.5591   20.9348 N   0  0  0  0  0  0  0  0  0  0  0  0
    6.6512    0.0924   19.9004 C   0  0  0  0  0  0  0  0  0  0  0  0
    5.4563    0.7832   20.1404 C   0  0  0  0  0  0  0  0  0  0  0  0
    4.8299    1.4099   19.0559 C   0  0  0  0  0  0  0  0  0  0  0  0
    5.4232    1.3270   17.7942 C   0  0  0  0  0  0  0  0  0  0  0  0
    6.5521    0.6349   17.5525 N   0  0  0  0  0  0  0  0  0  0  0  0
    7.1328    0.0101   18.5822 C   0  0  0  0  0  0  0  0  0  0  0  0
    8.0219   -0.5766   18.3613 H   0  0  0  0  0  0  0  0  0  0  0  0
    4.9622    1.8027   16.9316 H   0  0  0  0  0  0  0  0  0  0  0  0
    3.8939    1.9465   19.1780 H   0  0  0  0  0  0  0  0  0  0  0  0
    5.0223    0.8106   21.1378 H   0  0  0  0  0  0  0  0  0  0  0  0
    7.8163   -0.1114   22.1435 C   0  0  0  0  0  0  0  0  0  0  0  0
    7.6034    1.2751   22.6590 C   0  0  0  0  0  0  0  0  0  0  0  0
    6.3527    1.3837   23.4904 C   0  0  0  0  0  0  0  0  0  0  0  0
    5.8882    0.4983   24.4320 C   0  0  0  0  0  0  0  0  0  0  0  0
    4.6844    1.0602   24.8913 C   0  0  0  0  0  0  0  0  0  0  0  0
    3.7395    0.4517   25.9011 C   0  0  0  0  0  0  0  0  0  0  0  0
    4.4322   -0.2114   26.8528 F   0  0  0  0  0  0  0  0  0  0  0  0
    2.9786    1.3679   26.5079 F   0  0  0  0  0  0  0  0  0  0  0  0
    2.9129   -0.4469   25.3334 F   0  0  0  0  0  0  0  0  0  0  0  0
    4.4273    2.2123   24.2772 N   0  0  0  0  0  0  0  0  0  0  0  0
    5.4560    2.4028   23.4423 N   0  0  0  0  0  0  0  0  0  0  0  0
    5.4924    3.5805   22.6010 C   0  0  0  0  0  0  0  0  0  0  0  0
    5.3249    3.3192   21.5528 H   0  0  0  0  0  0  0  0  0  0  0  0
    6.4548    4.0885   22.6896 H   0  0  0  0  0  0  0  0  0  0  0  0
    4.7038    4.2488   22.9381 H   0  0  0  0  0  0  0  0  0  0  0  0
    6.3753   -0.4322   24.7048 H   0  0  0  0  0  0  0  0  0  0  0  0
    7.5872    1.9742   21.8168 H   0  0  0  0  0  0  0  0  0  0  0  0
    8.4601    1.5100   23.2961 H   0  0  0  0  0  0  0  0  0  0  0  0
    8.3940   -1.0943   22.8092 N   0  0  0  0  0  0  0  0  0  0  0  0
    9.6485   -3.5498   22.7535 H   0  0  0  0  0  0  0  0  0  0  0  0
    8.6846   -4.1050   21.3677 H   0  0  0  0  0  0  0  0  0  0  0  0
    6.6671   -4.3149   22.7529 H   0  0  0  0  0  0  0  0  0  0  0  0
    7.4909   -3.5938   24.1405 H   0  0  0  0  0  0  0  0  0  0  0  0
    7.1975   -6.0267   24.3230 H   0  0  0  0  0  0  0  0  0  0  0  0
    9.1455   -6.2441   21.9739 H   0  0  0  0  0  0  0  0  0  0  0  0
    7.4379   -6.7101   21.9685 H   0  0  0  0  0  0  0  0  0  0  0  0
    8.5959   -7.6018   22.9250 H   0  0  0  0  0  0  0  0  0  0  0  0
  1  2  1  0
  2  3  1  0
  3  4  1  0
  3  5  1  0
  3  6  1  0
  2  7  1  0
  7  8  1  0
  8  9  1  0
  9 10  2  0
 10 11  1  0
 11 12  1  0
 12 13  2  0
 13 14  1  0
 14 15  2  0
 15 16  1  0
 16 17  2  0
 17 18  1  0
 15 19  1  0
 14 20  1  0
 13 21  1  0
 11 22  1  0
 22 23  1  0
 23 24  1  0
 24 25  2  0
 25 26  1  0
 26 27  1  0
 27 28  1  0
 27 29  1  0
 27 30  1  0
 26 31  2  0
 31 32  1  0
 32 33  1  0
 33 34  1  0
 33 35  1  0
 33 36  1  0
 25 37  1  0
 23 38  1  0
 23 39  1  0
 22 40  2  0
  8 41  1  0
  8 42  1  0
  7 43  1  0
  7 44  1  0
  2 45  1  0
  1 46  1  0
  1 47  1  0
  1 48  1  0
 40  9  1  0
 17 12  1  0
 32 24  1  0
M  END
>  <cnnaffinity>  (1) 
-5.54394

>  <filename>  (1) 
CC(C)CCc1nc(Cc2cc(C(F)(F)F)nn2C)n(-c2cccnc2)n1

$$$$
