
     RDKit          3D

 49 52  0  0  0  0  0  0  0  0999 V2000
    8.1767    2.5133   21.6722 C   0  0  0  0  0  0  0  0  0  0  0  0
    9.5031    1.7958   21.8624 C   0  0  0  0  0  0  0  0  0  0  0  0
    9.5910    0.5168   20.9881 C   0  0  0  0  0  0  0  0  0  0  0  0
    8.6384   -0.5577   21.3818 C   0  0  0  0  0  0  0  0  0  0  0  0
    8.8597   -1.4336   22.3399 N   0  0  0  0  0  0  0  0  0  0  0  0
    7.6554   -2.0362   22.4948 C   0  0  0  0  0  0  0  0  0  0  0  0
    7.3993   -3.0048   23.6123 C   0  0  0  0  0  0  0  0  0  0  0  0
    6.4875   -4.1701   23.1641 C   0  0  0  0  0  0  0  0  0  0  0  0
    6.3153   -5.2227   24.2865 C   0  0  0  0  0  0  0  0  0  0  0  0
    6.4011   -4.6382   25.7012 C   0  0  0  0  0  0  0  0  0  0  0  0
    7.6985   -4.7424   26.1554 F   0  0  0  0  0  0  0  0  0  0  0  0
    5.6288   -5.3866   26.5514 F   0  0  0  0  0  0  0  0  0  0  0  0
    5.9685   -3.1847   25.7844 C   0  0  0  0  0  0  0  0  0  0  0  0
    6.8225   -2.2665   24.8732 C   0  0  0  0  0  0  0  0  0  0  0  0
    7.6691   -1.8637   25.4417 H   0  0  0  0  0  0  0  0  0  0  0  0
    6.2088   -1.4026   24.5728 H   0  0  0  0  0  0  0  0  0  0  0  0
    4.9131   -3.1566   25.4818 H   0  0  0  0  0  0  0  0  0  0  0  0
    6.0161   -2.8810   26.8347 H   0  0  0  0  0  0  0  0  0  0  0  0
    7.0919   -5.9921   24.2368 H   0  0  0  0  0  0  0  0  0  0  0  0
    5.3452   -5.7238   24.1880 H   0  0  0  0  0  0  0  0  0  0  0  0
    5.5143   -3.7432   22.8761 H   0  0  0  0  0  0  0  0  0  0  0  0
    6.8930   -4.6410   22.2600 H   0  0  0  0  0  0  0  0  0  0  0  0
    8.3918   -3.3911   23.8738 H   0  0  0  0  0  0  0  0  0  0  0  0
    6.7127   -1.6188   21.6666 N   0  0  0  0  0  0  0  0  0  0  0  0
    7.3578   -0.6878   20.9176 N   0  0  0  0  0  0  0  0  0  0  0  0
    6.6561   -0.0016   19.8928 C   0  0  0  0  0  0  0  0  0  0  0  0
    5.4399    0.6357   20.1594 C   0  0  0  0  0  0  0  0  0  0  0  0
    4.8099    1.3086   19.1071 C   0  0  0  0  0  0  0  0  0  0  0  0
    5.3956    1.2975   17.8364 C   0  0  0  0  0  0  0  0  0  0  0  0
    6.5496    0.6672   17.5711 N   0  0  0  0  0  0  0  0  0  0  0  0
    7.1614    0.0416   18.5824 C   0  0  0  0  0  0  0  0  0  0  0  0
    8.1054   -0.4474   18.3495 H   0  0  0  0  0  0  0  0  0  0  0  0
    4.9297    1.8048   16.9952 H   0  0  0  0  0  0  0  0  0  0  0  0
    3.8789    1.8409   19.2562 H   0  0  0  0  0  0  0  0  0  0  0  0
    5.0148    0.5988   21.1645 H   0  0  0  0  0  0  0  0  0  0  0  0
    9.4014    0.7973   19.9535 H   0  0  0  0  0  0  0  0  0  0  0  0
   10.5938    0.0920   21.0437 H   0  0  0  0  0  0  0  0  0  0  0  0
    9.7528    1.5216   23.2734 N   0  0  0  0  0  0  0  0  0  0  0  0
    8.8281    1.1459   24.2280 C   0  0  0  0  0  0  0  0  0  0  0  0
    9.5541    0.8439   25.3447 C   0  0  0  0  0  0  0  0  0  0  0  0
   10.8966    1.0077   25.1101 N   0  0  0  0  0  0  0  0  0  0  0  0
   10.9759    1.4022   23.8643 C   0  0  0  0  0  0  0  0  0  0  0  0
   11.8885    1.6287   23.3280 H   0  0  0  0  0  0  0  0  0  0  0  0
    9.2007    0.5028   26.3109 H   0  0  0  0  0  0  0  0  0  0  0  0
    7.7807    1.0497   23.9858 H   0  0  0  0  0  0  0  0  0  0  0  0
   10.3142    2.4626   21.5388 H   0  0  0  0  0  0  0  0  0  0  0  0
    7.3257    1.9230   22.0340 H   0  0  0  0  0  0  0  0  0  0  0  0
    8.0502    2.6411   20.6020 H   0  0  0  0  0  0  0  0  0  0  0  0
    8.1763    3.4750   22.1980 H   0  0  0  0  0  0  0  0  0  0  0  0
  1  2  1  0
  2  3  1  0
  3  4  1  0
  4  5  2  0
  5  6  1  0
  6  7  1  0
  7  8  1  0
  8  9  1  0
  9 10  1  0
 10 11  1  0
 10 12  1  0
 10 13  1  0
 13 14  1  0
 14 15  1  0
 14 16  1  0
 13 17  1  0
 13 18  1  0
  9 19  1  0
  9 20  1  0
  8 21  1  0
  8 22  1  0
  7 23  1  0
  6 24  2  0
 24 25  1  0
 25 26  1  0
 26 27  2  0
 27 28  1  0
 28 29  2  0
 29 30  1  0
 30 31  2  0
 31 32  1  0
 29 33  1  0
 28 34  1  0
 27 35  1  0
  3 36  1  0
  3 37  1  0
  2 38  1  0
 38 39  1  0
 39 40  2  0
 40 41  1  0
 41 42  2  0
 42 43  1  0
 40 44  1  0
 39 45  1  0
  2 46  1  0
  1 47  1  0
  1 48  1  0
  1 49  1  0
 25  4  1  0
 31 26  1  0
 42 38  1  0
 14  7  1  0
M  END
>  <cnnaffinity>  (1) 
-6.19552

>  <filename>  (1) 
CC(Cc1nc(C2CCC(F)(F)CC2)nn1-c1cccnc1)n1ccnc1

$$$$
