
     RDKit          3D

 44 46  0  0  0  0  0  0  0  0999 V2000
    8.6647   -5.4313   23.8065 C   0  0  0  0  0  0  0  0  0  0  0  0
    7.8829   -4.1919   23.3713 C   0  0  0  0  0  0  0  0  0  0  0  0
    6.5293   -4.6108   22.7878 C   0  0  0  0  0  0  0  0  0  0  0  0
    6.6736   -5.2441   21.9040 H   0  0  0  0  0  0  0  0  0  0  0  0
    5.9621   -5.1752   23.5373 H   0  0  0  0  0  0  0  0  0  0  0  0
    5.9458   -3.7270   22.5030 H   0  0  0  0  0  0  0  0  0  0  0  0
    8.7132   -3.4115   22.3393 C   0  0  0  0  0  0  0  0  0  0  0  0
    8.1553   -2.0534   22.0418 C   0  0  0  0  0  0  0  0  0  0  0  0
    7.8171   -1.7512   20.8167 N   0  0  0  0  0  0  0  0  0  0  0  0
    7.3288   -0.5045   20.9352 N   0  0  0  0  0  0  0  0  0  0  0  0
    6.6793    0.1344   19.8837 C   0  0  0  0  0  0  0  0  0  0  0  0
    5.5395    0.9049   20.1201 C   0  0  0  0  0  0  0  0  0  0  0  0
    4.9022    1.4774   19.0208 C   0  0  0  0  0  0  0  0  0  0  0  0
    5.4216    1.2870   17.7351 C   0  0  0  0  0  0  0  0  0  0  0  0
    6.5151    0.5342   17.5050 N   0  0  0  0  0  0  0  0  0  0  0  0
    7.1206   -0.0487   18.5591 C   0  0  0  0  0  0  0  0  0  0  0  0
    7.9866   -0.6834   18.3757 H   0  0  0  0  0  0  0  0  0  0  0  0
    4.9281    1.7689   16.8958 H   0  0  0  0  0  0  0  0  0  0  0  0
    4.0108    2.0801   19.1515 H   0  0  0  0  0  0  0  0  0  0  0  0
    5.1489    1.0294   21.1290 H   0  0  0  0  0  0  0  0  0  0  0  0
    7.4831   -0.0690   22.2461 C   0  0  0  0  0  0  0  0  0  0  0  0
    7.2829    1.3393   22.7454 C   0  0  0  0  0  0  0  0  0  0  0  0
    8.2762    2.2951   22.0552 C   0  0  0  0  0  0  0  0  0  0  0  0
    9.6286    1.6205   22.0399 C   0  0  0  0  0  0  0  0  0  0  0  0
   10.5103    1.8452   23.0898 C   0  0  0  0  0  0  0  0  0  0  0  0
   11.6325    1.0354   23.1948 C   0  0  0  0  0  0  0  0  0  0  0  0
   12.7914    1.1999   24.6880 Br  0  0  0  0  0  0  0  0  0  0  0  0
   11.8570    0.0497   22.2317 C   0  0  0  0  0  0  0  0  0  0  0  0
   11.0473   -0.1294   21.1754 N   0  0  0  0  0  0  0  0  0  0  0  0
    9.9482    0.6414   21.0810 C   0  0  0  0  0  0  0  0  0  0  0  0
    9.2700    0.4834   20.2450 H   0  0  0  0  0  0  0  0  0  0  0  0
   12.7205   -0.5950   22.3482 H   0  0  0  0  0  0  0  0  0  0  0  0
   10.2832    2.5934   23.8442 H   0  0  0  0  0  0  0  0  0  0  0  0
    8.3267    3.2441   22.6025 H   0  0  0  0  0  0  0  0  0  0  0  0
    7.9390    2.5201   21.0371 H   0  0  0  0  0  0  0  0  0  0  0  0
    6.2576    1.6648   22.5637 H   0  0  0  0  0  0  0  0  0  0  0  0
    7.4523    1.3526   23.8267 H   0  0  0  0  0  0  0  0  0  0  0  0
    7.9869   -1.0324   22.9667 N   0  0  0  0  0  0  0  0  0  0  0  0
    8.7402   -3.9725   21.4024 H   0  0  0  0  0  0  0  0  0  0  0  0
    9.7393   -3.2910   22.6993 H   0  0  0  0  0  0  0  0  0  0  0  0
    7.7097   -3.5616   24.2501 H   0  0  0  0  0  0  0  0  0  0  0  0
    8.1200   -5.9583   24.5958 H   0  0  0  0  0  0  0  0  0  0  0  0
    8.8058   -6.1145   22.9605 H   0  0  0  0  0  0  0  0  0  0  0  0
    9.6451   -5.1371   24.2002 H   0  0  0  0  0  0  0  0  0  0  0  0
  1  2  1  0
  2  3  1  0
  3  4  1  0
  3  5  1  0
  3  6  1  0
  2  7  1  0
  7  8  1  0
  8  9  2  0
  9 10  1  0
 10 11  1  0
 11 12  2  0
 12 13  1  0
 13 14  2  0
 14 15  1  0
 15 16  2  0
 16 17  1  0
 14 18  1  0
 13 19  1  0
 12 20  1  0
 10 21  1  0
 21 22  1  0
 22 23  1  0
 23 24  1  0
 24 25  2  0
 25 26  1  0
 26 27  1  0
 26 28  2  0
 28 29  1  0
 29 30  2  0
 30 31  1  0
 28 32  1  0
 25 33  1  0
 23 34  1  0
 23 35  1  0
 22 36  1  0
 22 37  1  0
 21 38  2  0
  7 39  1  0
  7 40  1  0
  2 41  1  0
  1 42  1  0
  1 43  1  0
  1 44  1  0
 38  8  1  0
 16 11  1  0
 30 24  1  0
M  END
>  <cnnaffinity>  (1) 
-6.14861

>  <filename>  (1) 
CC(C)Cc1nc(CCc2cncc(Br)c2)n(-c2cccnc2)n1

$$$$
