
     RDKit          3D

 46 48  0  0  0  0  0  0  0  0999 V2000
    8.2899   -5.8391   22.9244 C   0  0  0  0  0  0  0  0  0  0  0  0
    7.3936   -4.6038   22.7138 C   0  0  0  0  0  0  0  0  0  0  0  0
    6.2803   -4.9206   21.6978 C   0  0  0  0  0  0  0  0  0  0  0  0
    5.6896   -5.7814   22.0386 H   0  0  0  0  0  0  0  0  0  0  0  0
    5.6008   -4.0675   21.5871 H   0  0  0  0  0  0  0  0  0  0  0  0
    6.6894   -5.1664   20.7094 H   0  0  0  0  0  0  0  0  0  0  0  0
    6.7490   -4.2433   24.0805 C   0  0  0  0  0  0  0  0  0  0  0  0
    5.8302   -3.1807   24.0469 O   0  0  0  0  0  0  0  0  0  0  0  0
    6.3218   -2.3495   23.8987 H   0  0  0  0  0  0  0  0  0  0  0  0
    6.1820   -5.1291   24.4053 H   0  0  0  0  0  0  0  0  0  0  0  0
    7.5422   -4.0546   24.8299 H   0  0  0  0  0  0  0  0  0  0  0  0
    8.3095   -3.4733   22.1675 C   0  0  0  0  0  0  0  0  0  0  0  0
    7.6530   -2.1832   21.8181 C   0  0  0  0  0  0  0  0  0  0  0  0
    7.2252   -1.9020   20.6027 N   0  0  0  0  0  0  0  0  0  0  0  0
    6.7772   -0.6212   20.7167 N   0  0  0  0  0  0  0  0  0  0  0  0
    6.2389    0.0489   19.5894 C   0  0  0  0  0  0  0  0  0  0  0  0
    5.0902    0.8467   19.6686 C   0  0  0  0  0  0  0  0  0  0  0  0
    4.6707    1.5109   18.5119 C   0  0  0  0  0  0  0  0  0  0  0  0
    5.4052    1.3583   17.3337 C   0  0  0  0  0  0  0  0  0  0  0  0
    6.4932    0.5710   17.2488 N   0  0  0  0  0  0  0  0  0  0  0  0
    6.8885   -0.0730   18.3494 C   0  0  0  0  0  0  0  0  0  0  0  0
    7.7814   -0.6923   18.2708 H   0  0  0  0  0  0  0  0  0  0  0  0
    5.1093    1.8816   16.4256 H   0  0  0  0  0  0  0  0  0  0  0  0
    3.7931    2.1474   18.5183 H   0  0  0  0  0  0  0  0  0  0  0  0
    4.5503    0.9578   20.6084 H   0  0  0  0  0  0  0  0  0  0  0  0
    7.0359   -0.1736   21.9779 C   0  0  0  0  0  0  0  0  0  0  0  0
    6.9074    1.2361   22.4409 C   0  0  0  0  0  0  0  0  0  0  0  0
    8.1292    1.6468   23.2382 C   0  0  0  0  0  0  0  0  0  0  0  0
    8.0173    1.7180   24.6254 C   0  0  0  0  0  0  0  0  0  0  0  0
    9.1306    1.9812   25.4124 C   0  0  0  0  0  0  0  0  0  0  0  0
    8.9369    2.0970   26.7304 F   0  0  0  0  0  0  0  0  0  0  0  0
   10.4021    2.1220   24.8613 C   0  0  0  0  0  0  0  0  0  0  0  0
   10.5295    2.0791   23.4694 C   0  0  0  0  0  0  0  0  0  0  0  0
    9.4057    1.8258   22.6706 C   0  0  0  0  0  0  0  0  0  0  0  0
    9.6640    1.6102   20.9675 Cl  0  0  0  0  0  0  0  0  0  0  0  0
   11.5001    2.2097   22.9962 H   0  0  0  0  0  0  0  0  0  0  0  0
   11.2730    2.1899   25.5015 H   0  0  0  0  0  0  0  0  0  0  0  0
    7.0741    1.5271   25.1253 H   0  0  0  0  0  0  0  0  0  0  0  0
    6.0204    1.2923   23.0813 H   0  0  0  0  0  0  0  0  0  0  0  0
    6.7667    1.9107   21.5925 H   0  0  0  0  0  0  0  0  0  0  0  0
    7.5146   -1.1694   22.7114 N   0  0  0  0  0  0  0  0  0  0  0  0
    9.0934   -3.2494   22.8985 H   0  0  0  0  0  0  0  0  0  0  0  0
    8.7954   -3.8244   21.2543 H   0  0  0  0  0  0  0  0  0  0  0  0
    8.8145   -6.1137   22.0011 H   0  0  0  0  0  0  0  0  0  0  0  0
    9.0492   -5.6587   23.6977 H   0  0  0  0  0  0  0  0  0  0  0  0
    7.7000   -6.7087   23.2320 H   0  0  0  0  0  0  0  0  0  0  0  0
  1  2  1  0
  2  3  1  0
  3  4  1  0
  3  5  1  0
  3  6  1  0
  2  7  1  0
  7  8  1  0
  8  9  1  0
  7 10  1  0
  7 11  1  0
  2 12  1  0
 12 13  1  0
 13 14  2  0
 14 15  1  0
 15 16  1  0
 16 17  2  0
 17 18  1  0
 18 19  2  0
 19 20  1  0
 20 21  2  0
 21 22  1  0
 19 23  1  0
 18 24  1  0
 17 25  1  0
 15 26  1  0
 26 27  1  0
 27 28  1  0
 28 29  2  0
 29 30  1  0
 30 31  1  0
 30 32  2  0
 32 33  1  0
 33 34  2  0
 34 35  1  0
 33 36  1  0
 32 37  1  0
 29 38  1  0
 27 39  1  0
 27 40  1  0
 26 41  2  0
 12 42  1  0
 12 43  1  0
  1 44  1  0
  1 45  1  0
  1 46  1  0
 41 13  1  0
 21 16  1  0
 34 28  1  0
M  END
>  <cnnaffinity>  (1) 
-5.53084

>  <filename>  (1) 
CC(C)(CO)Cc1nc(Cc2cc(F)ccc2Cl)n(-c2cccnc2)n1

$$$$
