
     RDKit          3D

 45 48  0  0  0  0  0  0  0  0999 V2000
    9.2080    1.7125   20.9453 C   0  0  0  0  0  0  0  0  0  0  0  0
    8.6741    1.0957   22.2397 C   0  0  0  0  0  0  0  0  0  0  0  0
    7.6647    2.0486   22.9463 C   0  0  0  0  0  0  0  0  0  0  0  0
    7.3237    1.5777   24.3349 C   0  0  0  0  0  0  0  0  0  0  0  0
    6.2420    0.7150   24.5691 C   0  0  0  0  0  0  0  0  0  0  0  0
    6.1166    0.1132   25.8221 C   0  0  0  0  0  0  0  0  0  0  0  0
    6.9540    0.3422   26.8407 N   0  0  0  0  0  0  0  0  0  0  0  0
    7.9572    1.2060   26.6305 C   0  0  0  0  0  0  0  0  0  0  0  0
    8.1732    1.8558   25.4147 C   0  0  0  0  0  0  0  0  0  0  0  0
    9.0057    2.5476   25.3174 H   0  0  0  0  0  0  0  0  0  0  0  0
    8.6278    1.3745   27.4680 H   0  0  0  0  0  0  0  0  0  0  0  0
    5.3156   -0.5989   26.0146 H   0  0  0  0  0  0  0  0  0  0  0  0
    5.5284    0.4825   23.7849 H   0  0  0  0  0  0  0  0  0  0  0  0
    8.1072    3.0510   22.9928 H   0  0  0  0  0  0  0  0  0  0  0  0
    6.7647    2.1373   22.3271 H   0  0  0  0  0  0  0  0  0  0  0  0
    8.1580   -0.3093   22.0356 C   0  0  0  0  0  0  0  0  0  0  0  0
    8.4567   -1.3454   22.8021 N   0  0  0  0  0  0  0  0  0  0  0  0
    7.8283   -2.3844   22.1964 C   0  0  0  0  0  0  0  0  0  0  0  0
    7.8016   -3.7336   22.8445 C   0  0  0  0  0  0  0  0  0  0  0  0
    6.5084   -4.0339   23.6743 C   0  0  0  0  0  0  0  0  0  0  0  0
    6.1958   -5.2350   22.7566 C   0  0  0  0  0  0  0  0  0  0  0  0
    7.5221   -5.0083   21.9915 C   0  0  0  0  0  0  0  0  0  0  0  0
    8.2664   -5.7949   22.1597 H   0  0  0  0  0  0  0  0  0  0  0  0
    7.4333   -4.8570   20.9100 H   0  0  0  0  0  0  0  0  0  0  0  0
    6.0909   -6.1979   23.2697 H   0  0  0  0  0  0  0  0  0  0  0  0
    5.3024   -5.0947   22.1362 H   0  0  0  0  0  0  0  0  0  0  0  0
    5.7620   -3.2316   23.6605 H   0  0  0  0  0  0  0  0  0  0  0  0
    6.7148   -4.2775   24.7207 H   0  0  0  0  0  0  0  0  0  0  0  0
    8.7225   -3.7973   23.4349 H   0  0  0  0  0  0  0  0  0  0  0  0
    7.1840   -2.0710   21.0912 N   0  0  0  0  0  0  0  0  0  0  0  0
    7.3678   -0.7271   20.9970 N   0  0  0  0  0  0  0  0  0  0  0  0
    6.6912   -0.0183   19.9518 C   0  0  0  0  0  0  0  0  0  0  0  0
    5.5072    0.6943   20.1809 C   0  0  0  0  0  0  0  0  0  0  0  0
    4.8993    1.3357   19.0945 C   0  0  0  0  0  0  0  0  0  0  0  0
    5.5084    1.2579   17.8377 C   0  0  0  0  0  0  0  0  0  0  0  0
    6.6245    0.5465   17.6053 N   0  0  0  0  0  0  0  0  0  0  0  0
    7.1795   -0.1014   18.6382 C   0  0  0  0  0  0  0  0  0  0  0  0
    8.0479   -0.7209   18.4213 H   0  0  0  0  0  0  0  0  0  0  0  0
    5.0770    1.7691   16.9809 H   0  0  0  0  0  0  0  0  0  0  0  0
    3.9681    1.8805   19.2129 H   0  0  0  0  0  0  0  0  0  0  0  0
    5.0549    0.7176   21.1739 H   0  0  0  0  0  0  0  0  0  0  0  0
    9.5209    0.9503   22.9212 H   0  0  0  0  0  0  0  0  0  0  0  0
    9.8586    2.5731   21.1510 H   0  0  0  0  0  0  0  0  0  0  0  0
    8.3914    2.0701   20.3037 H   0  0  0  0  0  0  0  0  0  0  0  0
    9.7961    0.9804   20.3865 H   0  0  0  0  0  0  0  0  0  0  0  0
  1  2  1  0
  2  3  1  0
  3  4  1  0
  4  5  2  0
  5  6  1  0
  6  7  2  0
  7  8  1  0
  8  9  2  0
  9 10  1  0
  8 11  1  0
  6 12  1  0
  5 13  1  0
  3 14  1  0
  3 15  1  0
  2 16  1  0
 16 17  2  0
 17 18  1  0
 18 19  1  0
 19 20  1  0
 20 21  1  0
 21 22  1  0
 22 23  1  0
 22 24  1  0
 21 25  1  0
 21 26  1  0
 20 27  1  0
 20 28  1  0
 19 29  1  0
 18 30  2  0
 30 31  1  0
 31 32  1  0
 32 33  2  0
 33 34  1  0
 34 35  2  0
 35 36  1  0
 36 37  2  0
 37 38  1  0
 35 39  1  0
 34 40  1  0
 33 41  1  0
  2 42  1  0
  1 43  1  0
  1 44  1  0
  1 45  1  0
  9  4  1  0
 31 16  1  0
 37 32  1  0
 22 19  1  0
M  END
>  <cnnaffinity>  (1) 
-5.91961

>  <filename>  (1) 
CC(Cc1ccncc1)c1nc(C2CCC2)nn1-c1cccnc1

$$$$
