
     RDKit          3D

 44 46  0  0  0  0  0  0  0  0999 V2000
    8.3611   -5.9169   22.8967 C   0  0  0  0  0  0  0  0  0  0  0  0
    7.6622   -4.5554   22.7792 C   0  0  0  0  0  0  0  0  0  0  0  0
    7.0810   -4.1183   24.1256 C   0  0  0  0  0  0  0  0  0  0  0  0
    6.6158   -3.1274   24.0670 H   0  0  0  0  0  0  0  0  0  0  0  0
    7.8700   -4.0690   24.8889 H   0  0  0  0  0  0  0  0  0  0  0  0
    6.3260   -4.8332   24.4740 H   0  0  0  0  0  0  0  0  0  0  0  0
    8.6553   -3.5227   22.1957 C   0  0  0  0  0  0  0  0  0  0  0  0
    8.1488   -2.1338   21.9948 C   0  0  0  0  0  0  0  0  0  0  0  0
    7.6470   -1.8001   20.8264 N   0  0  0  0  0  0  0  0  0  0  0  0
    7.2833   -0.5097   20.9997 N   0  0  0  0  0  0  0  0  0  0  0  0
    6.5997    0.1469   19.9429 C   0  0  0  0  0  0  0  0  0  0  0  0
    5.3890    0.8221   20.1319 C   0  0  0  0  0  0  0  0  0  0  0  0
    4.7970    1.4161   19.0116 C   0  0  0  0  0  0  0  0  0  0  0  0
    5.4384    1.3232   17.7721 C   0  0  0  0  0  0  0  0  0  0  0  0
    6.5859    0.6456   17.5849 N   0  0  0  0  0  0  0  0  0  0  0  0
    7.1340    0.0507   18.6458 C   0  0  0  0  0  0  0  0  0  0  0  0
    8.0332   -0.5416   18.4791 H   0  0  0  0  0  0  0  0  0  0  0  0
    5.0187    1.7980   16.8892 H   0  0  0  0  0  0  0  0  0  0  0  0
    3.8545    1.9478   19.0898 H   0  0  0  0  0  0  0  0  0  0  0  0
    4.9094    0.8458   21.1126 H   0  0  0  0  0  0  0  0  0  0  0  0
    7.6439   -0.1105   22.2529 C   0  0  0  0  0  0  0  0  0  0  0  0
    7.6288    1.3173   22.6851 C   0  0  0  0  0  0  0  0  0  0  0  0
    8.5741    2.2185   21.8518 C   0  0  0  0  0  0  0  0  0  0  0  0
    8.4652    3.6736   22.2669 C   0  0  0  0  0  0  0  0  0  0  0  0
    7.3780    4.4715   21.8507 C   0  0  0  0  0  0  0  0  0  0  0  0
    7.2493    5.7780   22.3186 C   0  0  0  0  0  0  0  0  0  0  0  0
    8.2377    6.2452   23.1929 C   0  0  0  0  0  0  0  0  0  0  0  0
    8.0606    7.8498   23.8490 Cl  0  0  0  0  0  0  0  0  0  0  0  0
    9.2797    5.5405   23.6008 N   0  0  0  0  0  0  0  0  0  0  0  0
    9.3914    4.2844   23.1302 C   0  0  0  0  0  0  0  0  0  0  0  0
   10.2535    3.7347   23.5194 H   0  0  0  0  0  0  0  0  0  0  0  0
    6.4525    6.4453   22.0031 H   0  0  0  0  0  0  0  0  0  0  0  0
    6.6203    4.0825   21.1633 H   0  0  0  0  0  0  0  0  0  0  0  0
    9.6063    1.8576   21.9663 H   0  0  0  0  0  0  0  0  0  0  0  0
    8.3255    2.1078   20.7866 H   0  0  0  0  0  0  0  0  0  0  0  0
    7.9147    1.3548   23.7389 H   0  0  0  0  0  0  0  0  0  0  0  0
    6.6101    1.7119   22.6089 H   0  0  0  0  0  0  0  0  0  0  0  0
    8.1746   -1.1296   22.9107 N   0  0  0  0  0  0  0  0  0  0  0  0
    8.9147   -3.8487   21.1876 H   0  0  0  0  0  0  0  0  0  0  0  0
    9.5707   -3.4794   22.7938 H   0  0  0  0  0  0  0  0  0  0  0  0
    6.8332   -4.6594   22.0608 H   0  0  0  0  0  0  0  0  0  0  0  0
    8.9365   -6.1547   21.9951 H   0  0  0  0  0  0  0  0  0  0  0  0
    7.6479   -6.7326   23.0567 H   0  0  0  0  0  0  0  0  0  0  0  0
    9.0616   -5.9209   23.7423 H   0  0  0  0  0  0  0  0  0  0  0  0
  1  2  1  0
  2  3  1  0
  3  4  1  0
  3  5  1  0
  3  6  1  0
  2  7  1  0
  7  8  1  0
  8  9  2  0
  9 10  1  0
 10 11  1  0
 11 12  2  0
 12 13  1  0
 13 14  2  0
 14 15  1  0
 15 16  2  0
 16 17  1  0
 14 18  1  0
 13 19  1  0
 12 20  1  0
 10 21  1  0
 21 22  1  0
 22 23  1  0
 23 24  1  0
 24 25  2  0
 25 26  1  0
 26 27  2  0
 27 28  1  0
 27 29  1  0
 29 30  2  0
 30 31  1  0
 26 32  1  0
 25 33  1  0
 23 34  1  0
 23 35  1  0
 22 36  1  0
 22 37  1  0
 21 38  2  0
  7 39  1  0
  7 40  1  0
  2 41  1  0
  1 42  1  0
  1 43  1  0
  1 44  1  0
 38  8  1  0
 16 11  1  0
 30 24  1  0
M  END
>  <cnnaffinity>  (1) 
-5.87294

>  <filename>  (1) 
CC(C)Cc1nc(CCc2ccc(Cl)nc2)n(-c2cccnc2)n1

$$$$
