
     RDKit          3D

 39 41  0  0  0  0  0  0  0  0999 V2000
    9.0351   -1.8995   25.0715 C   0  0  0  0  0  0  0  0  0  0  0  0
    7.6967   -1.7869   24.3347 C   0  0  0  0  0  0  0  0  0  0  0  0
    6.8018   -3.0504   24.5005 C   0  0  0  0  0  0  0  0  0  0  0  0
    7.4131   -4.3080   23.9172 C   0  0  0  0  0  0  0  0  0  0  0  0
    7.1548   -4.7025   22.5868 C   0  0  0  0  0  0  0  0  0  0  0  0
    7.6830   -5.8808   22.0453 C   0  0  0  0  0  0  0  0  0  0  0  0
    8.5469   -6.6667   22.8141 C   0  0  0  0  0  0  0  0  0  0  0  0
    8.8789   -6.2707   24.1086 C   0  0  0  0  0  0  0  0  0  0  0  0
    8.2684   -5.1431   24.6617 C   0  0  0  0  0  0  0  0  0  0  0  0
    8.5788   -4.8672   26.3559 Cl  0  0  0  0  0  0  0  0  0  0  0  0
    9.6122   -6.8105   24.6961 H   0  0  0  0  0  0  0  0  0  0  0  0
    8.9518   -7.5964   22.4239 H   0  0  0  0  0  0  0  0  0  0  0  0
    7.4014   -6.2050   21.0451 H   0  0  0  0  0  0  0  0  0  0  0  0
    6.5016   -4.0861   21.9752 H   0  0  0  0  0  0  0  0  0  0  0  0
    6.5993   -3.1989   25.5699 H   0  0  0  0  0  0  0  0  0  0  0  0
    5.8336   -2.8525   24.0235 H   0  0  0  0  0  0  0  0  0  0  0  0
    7.8232   -1.4184   22.8743 C   0  0  0  0  0  0  0  0  0  0  0  0
    6.8640   -0.7944   22.2165 N   0  0  0  0  0  0  0  0  0  0  0  0
    7.3632   -0.6677   20.9683 C   0  0  0  0  0  0  0  0  0  0  0  0
    6.6320    0.0065   19.9046 C   0  0  0  0  0  0  0  0  0  0  0  0
    5.4131    0.6631   20.1278 C   0  0  0  0  0  0  0  0  0  0  0  0
    4.8236    1.3087   19.0438 C   0  0  0  0  0  0  0  0  0  0  0  0
    5.4623    1.2792   17.7981 C   0  0  0  0  0  0  0  0  0  0  0  0
    6.6193    0.6391   17.5819 N   0  0  0  0  0  0  0  0  0  0  0  0
    7.1854    0.0188   18.6186 C   0  0  0  0  0  0  0  0  0  0  0  0
    8.1252   -0.4946   18.4296 H   0  0  0  0  0  0  0  0  0  0  0  0
    5.0308    1.7873   16.9385 H   0  0  0  0  0  0  0  0  0  0  0  0
    3.8905    1.8466   19.1523 H   0  0  0  0  0  0  0  0  0  0  0  0
    4.9632    0.6745   21.1225 H   0  0  0  0  0  0  0  0  0  0  0  0
    8.5619   -1.2015   20.8037 N   0  0  0  0  0  0  0  0  0  0  0  0
    8.8505   -1.6820   22.0315 N   0  0  0  0  0  0  0  0  0  0  0  0
   10.0656   -2.4558   22.1942 C   0  0  0  0  0  0  0  0  0  0  0  0
    9.8191   -3.4572   22.5720 H   0  0  0  0  0  0  0  0  0  0  0  0
   10.7642   -1.9567   22.8760 H   0  0  0  0  0  0  0  0  0  0  0  0
   10.5213   -2.5096   21.2048 H   0  0  0  0  0  0  0  0  0  0  0  0
    7.1381   -0.9497   24.7743 H   0  0  0  0  0  0  0  0  0  0  0  0
    9.6583   -1.0153   24.9050 H   0  0  0  0  0  0  0  0  0  0  0  0
    8.8629   -1.9931   26.1499 H   0  0  0  0  0  0  0  0  0  0  0  0
    9.6032   -2.7767   24.7482 H   0  0  0  0  0  0  0  0  0  0  0  0
  1  2  1  0
  2  3  1  0
  3  4  1  0
  4  5  2  0
  5  6  1  0
  6  7  2  0
  7  8  1  0
  8  9  2  0
  9 10  1  0
  8 11  1  0
  7 12  1  0
  6 13  1  0
  5 14  1  0
  3 15  1  0
  3 16  1  0
  2 17  1  0
 17 18  2  0
 18 19  1  0
 19 20  1  0
 20 21  2  0
 21 22  1  0
 22 23  2  0
 23 24  1  0
 24 25  2  0
 25 26  1  0
 23 27  1  0
 22 28  1  0
 21 29  1  0
 19 30  2  0
 30 31  1  0
 31 32  1  0
 32 33  1  0
 32 34  1  0
 32 35  1  0
  2 36  1  0
  1 37  1  0
  1 38  1  0
  1 39  1  0
  9  4  1  0
 31 17  1  0
 25 20  1  0
M  END
>  <cnnaffinity>  (1) 
-5.97896

>  <filename>  (1) 
CC(Cc1ccccc1Cl)c1nc(-c2cccnc2)nn1C

$$$$
