
     RDKit          3D

 32 33  0  0  0  0  0  0  0  0999 V2000
    4.9085    1.7784   16.9974 H   0  0  0  0  0  0  0  0  0  0  0  0
    5.3984    1.2949   17.8384 C   0  0  0  0  0  0  0  0  0  0  0  0
    6.5648    0.6822   17.5743 N   0  0  0  0  0  0  0  0  0  0  0  0
    7.1856    0.0728   18.5912 C   0  0  0  0  0  0  0  0  0  0  0  0
    8.1252   -0.4328   18.3713 H   0  0  0  0  0  0  0  0  0  0  0  0
    6.6695    0.0227   19.8977 C   0  0  0  0  0  0  0  0  0  0  0  0
    7.3668   -0.6713   20.9475 N   0  0  0  0  0  0  0  0  0  0  0  0
    8.6664   -0.2624   21.2817 C   0  0  0  0  0  0  0  0  0  0  0  0
    9.0583    0.5765   20.7048 H   0  0  0  0  0  0  0  0  0  0  0  0
    9.3910   -0.8505   22.2628 C   0  0  0  0  0  0  0  0  0  0  0  0
   10.6910   -0.4799   22.5991 N   0  0  0  0  0  0  0  0  0  0  0  0
   11.1561   -1.0579   23.2886 H   0  0  0  0  0  0  0  0  0  0  0  0
   11.3554    0.7299   22.1592 C   0  0  0  0  0  0  0  0  0  0  0  0
   11.2382    0.7841   21.0691 H   0  0  0  0  0  0  0  0  0  0  0  0
   12.8413    0.6371   22.4681 C   0  0  0  0  0  0  0  0  0  0  0  0
   13.2935   -0.2458   22.0086 H   0  0  0  0  0  0  0  0  0  0  0  0
   13.3527    1.5212   22.0797 H   0  0  0  0  0  0  0  0  0  0  0  0
   13.0187    0.6077   23.5489 H   0  0  0  0  0  0  0  0  0  0  0  0
   10.7295    1.9703   22.7907 C   0  0  0  0  0  0  0  0  0  0  0  0
    9.6640    2.0455   22.5576 H   0  0  0  0  0  0  0  0  0  0  0  0
   11.2252    2.8729   22.4232 H   0  0  0  0  0  0  0  0  0  0  0  0
   10.8332    1.9330   23.8817 H   0  0  0  0  0  0  0  0  0  0  0  0
    8.7354   -1.9971   22.9979 C   0  0  0  0  0  0  0  0  0  0  0  0
    9.2349   -2.6390   23.8987 O   0  0  0  0  0  0  0  0  0  0  0  0
    7.4637   -2.3282   22.5848 N   0  0  0  0  0  0  0  0  0  0  0  0
    7.0187   -3.0877   23.0619 H   0  0  0  0  0  0  0  0  0  0  0  0
    6.7216   -1.7467   21.6035 C   0  0  0  0  0  0  0  0  0  0  0  0
    5.6207   -2.1639   21.3273 O   0  0  0  0  0  0  0  0  0  0  0  0
    5.4468    0.6515   20.1595 C   0  0  0  0  0  0  0  0  0  0  0  0
    5.0139    0.6177   21.1607 H   0  0  0  0  0  0  0  0  0  0  0  0
    4.8085    1.3142   19.1076 C   0  0  0  0  0  0  0  0  0  0  0  0
    3.8740    1.8436   19.2631 H   0  0  0  0  0  0  0  0  0  0  0  0
  1  2  1  0
  2  3  2  0
  3  4  1  0
  4  5  1  0
  4  6  2  0
  6  7  1  0
  7  8  1  0
  8  9  1  0
  8 10  2  0
 10 11  1  0
 11 12  1  0
 11 13  1  0
 13 14  1  0
 13 15  1  0
 15 16  1  0
 15 17  1  0
 15 18  1  0
 13 19  1  0
 19 20  1  0
 19 21  1  0
 19 22  1  0
 10 23  1  0
 23 24  2  0
 23 25  1  0
 25 26  1  0
 25 27  1  0
 27 28  2  0
  6 29  1  0
 29 30  1  0
 29 31  2  0
 31 32  1  0
 31  2  1  0
 27  7  1  0
M  END
>  <cnnaffinity>  (1) 
-4.90243

>  <filename>  (1) 
CC(C)Nc1cn(-c2cccnc2)c(=O)[nH]c1=O

$$$$
