
     RDKit          3D

 35 37  0  0  0  0  0  0  0  0999 V2000
    4.8630    1.6209   16.9240 H   0  0  0  0  0  0  0  0  0  0  0  0
    5.4161    1.2503   17.7851 C   0  0  0  0  0  0  0  0  0  0  0  0
    6.5653    0.6214   17.5025 N   0  0  0  0  0  0  0  0  0  0  0  0
    7.2940    0.1837   18.5263 C   0  0  0  0  0  0  0  0  0  0  0  0
    8.2242   -0.3291   18.2877 H   0  0  0  0  0  0  0  0  0  0  0  0
    6.9345    0.3478   19.8789 C   0  0  0  0  0  0  0  0  0  0  0  0
    7.8966   -0.2482   20.8653 C   0  0  0  0  0  0  0  0  0  0  0  0
    8.6567   -1.1170   20.4720 O   0  0  0  0  0  0  0  0  0  0  0  0
    7.9745    0.1553   22.3826 C   0  0  0  0  0  0  0  0  0  0  0  0
    7.4677    1.5563   22.6683 C   0  0  0  0  0  0  0  0  0  0  0  0
    7.9610    2.5922   21.9072 O   0  0  0  0  0  0  0  0  0  0  0  0
    7.4058    3.7469   22.4051 C   0  0  0  0  0  0  0  0  0  0  0  0
    7.6002    5.0631   21.9633 C   0  0  0  0  0  0  0  0  0  0  0  0
    8.2924    5.2999   21.1641 H   0  0  0  0  0  0  0  0  0  0  0  0
    6.8659    6.0608   22.6112 C   0  0  0  0  0  0  0  0  0  0  0  0
    6.9464    7.0939   22.2791 H   0  0  0  0  0  0  0  0  0  0  0  0
    5.9977    5.7659   23.6872 C   0  0  0  0  0  0  0  0  0  0  0  0
    5.4280    6.5632   24.1539 H   0  0  0  0  0  0  0  0  0  0  0  0
    5.8478    4.4626   24.1436 C   0  0  0  0  0  0  0  0  0  0  0  0
    5.1980    4.2266   24.9852 H   0  0  0  0  0  0  0  0  0  0  0  0
    6.5725    3.4456   23.4951 C   0  0  0  0  0  0  0  0  0  0  0  0
    6.6545    2.0233   23.6548 C   0  0  0  0  0  0  0  0  0  0  0  0
    6.1719    1.4333   24.4186 H   0  0  0  0  0  0  0  0  0  0  0  0
    7.1514   -0.8349   23.2456 C   0  0  0  0  0  0  0  0  0  0  0  0
    7.4598   -0.7391   24.2929 H   0  0  0  0  0  0  0  0  0  0  0  0
    7.3168   -1.8780   22.9631 H   0  0  0  0  0  0  0  0  0  0  0  0
    6.0830   -0.6220   23.1971 H   0  0  0  0  0  0  0  0  0  0  0  0
    9.4541    0.0309   22.8536 C   0  0  0  0  0  0  0  0  0  0  0  0
   10.1251    0.6930   22.2969 H   0  0  0  0  0  0  0  0  0  0  0  0
    9.7915   -1.0013   22.7243 H   0  0  0  0  0  0  0  0  0  0  0  0
    9.5231    0.2841   23.9161 H   0  0  0  0  0  0  0  0  0  0  0  0
    5.7192    0.9899   20.1579 C   0  0  0  0  0  0  0  0  0  0  0  0
    5.3677    1.1417   21.1795 H   0  0  0  0  0  0  0  0  0  0  0  0
    4.9512    1.4469   19.0881 C   0  0  0  0  0  0  0  0  0  0  0  0
    4.0209    1.9800   19.2409 H   0  0  0  0  0  0  0  0  0  0  0  0
  1  2  1  0
  2  3  2  0
  3  4  1  0
  4  5  1  0
  4  6  2  0
  6  7  1  0
  7  8  2  0
  7  9  1  0
  9 10  1  0
 10 11  1  0
 11 12  1  0
 12 13  2  0
 13 14  1  0
 13 15  1  0
 15 16  1  0
 15 17  2  0
 17 18  1  0
 17 19  1  0
 19 20  1  0
 19 21  2  0
 21 22  1  0
 22 23  1  0
  9 24  1  0
 24 25  1  0
 24 26  1  0
 24 27  1  0
  9 28  1  0
 28 29  1  0
 28 30  1  0
 28 31  1  0
  6 32  1  0
 32 33  1  0
 32 34  2  0
 34 35  1  0
 34  2  1  0
 22 10  2  0
 21 12  1  0
M  END
>  <cnnaffinity>  (1) 
-4.82683

>  <filename>  (1) 
CC(C)(C(=O)c1cccnc1)c1cc2ccccc2o1

$$$$
