
     RDKit          3D

 47 49  0  0  0  0  0  0  0  0999 V2000
    7.5919   -3.9688   24.4111 C   0  0  0  0  0  0  0  0  0  0  0  0
    7.9579   -4.4352   22.9975 C   0  0  0  0  0  0  0  0  0  0  0  0
    6.7152   -4.8230   22.1864 C   0  0  0  0  0  0  0  0  0  0  0  0
    6.0592   -3.9608   22.0112 H   0  0  0  0  0  0  0  0  0  0  0  0
    6.1279   -5.5848   22.7139 H   0  0  0  0  0  0  0  0  0  0  0  0
    6.9890   -5.2407   21.2085 H   0  0  0  0  0  0  0  0  0  0  0  0
    8.8173   -3.3930   22.2434 C   0  0  0  0  0  0  0  0  0  0  0  0
    8.1877   -2.0576   22.0333 C   0  0  0  0  0  0  0  0  0  0  0  0
    7.7206   -1.7184   20.8501 N   0  0  0  0  0  0  0  0  0  0  0  0
    7.2408   -0.4619   21.0479 N   0  0  0  0  0  0  0  0  0  0  0  0
    6.5673    0.1711   19.9718 C   0  0  0  0  0  0  0  0  0  0  0  0
    5.3545    0.8526   20.1318 C   0  0  0  0  0  0  0  0  0  0  0  0
    4.7758    1.4306   18.9952 C   0  0  0  0  0  0  0  0  0  0  0  0
    5.4256    1.3150   17.7613 C   0  0  0  0  0  0  0  0  0  0  0  0
    6.5717    0.6310   17.5984 N   0  0  0  0  0  0  0  0  0  0  0  0
    7.1110    0.0568   18.6762 C   0  0  0  0  0  0  0  0  0  0  0  0
    8.0107   -0.5347   18.5175 H   0  0  0  0  0  0  0  0  0  0  0  0
    5.0149    1.7790   16.8669 H   0  0  0  0  0  0  0  0  0  0  0  0
    3.8427    1.9810   19.0590 H   0  0  0  0  0  0  0  0  0  0  0  0
    4.8612    0.9025   21.1042 H   0  0  0  0  0  0  0  0  0  0  0  0
    7.4818   -0.0956   22.3435 C   0  0  0  0  0  0  0  0  0  0  0  0
    7.3180    1.2836   22.8911 C   0  0  0  0  0  0  0  0  0  0  0  0
    8.2966    2.3155   22.2533 C   0  0  0  0  0  0  0  0  0  0  0  0
    8.0329    3.7329   22.7710 C   0  0  0  0  0  0  0  0  0  0  0  0
    8.1860    3.8394   23.8513 H   0  0  0  0  0  0  0  0  0  0  0  0
    6.9967    4.0173   22.5663 H   0  0  0  0  0  0  0  0  0  0  0  0
    8.6804    4.4549   22.2599 H   0  0  0  0  0  0  0  0  0  0  0  0
    9.7514    1.8813   22.4164 C   0  0  0  0  0  0  0  0  0  0  0  0
   10.4346    1.9882   23.6366 C   0  0  0  0  0  0  0  0  0  0  0  0
   11.7557    1.5302   23.7141 C   0  0  0  0  0  0  0  0  0  0  0  0
   12.3372    0.9549   22.5760 C   0  0  0  0  0  0  0  0  0  0  0  0
   11.7067    0.8371   21.4017 N   0  0  0  0  0  0  0  0  0  0  0  0
   10.4483    1.2903   21.3442 C   0  0  0  0  0  0  0  0  0  0  0  0
    9.9526    1.1831   20.3821 H   0  0  0  0  0  0  0  0  0  0  0  0
   13.3458    0.5530   22.6113 H   0  0  0  0  0  0  0  0  0  0  0  0
   12.3322    1.6127   24.6287 H   0  0  0  0  0  0  0  0  0  0  0  0
    9.9351    2.4219   24.5081 H   0  0  0  0  0  0  0  0  0  0  0  0
    8.0781    2.3328   21.1762 H   0  0  0  0  0  0  0  0  0  0  0  0
    6.2914    1.6242   22.7296 H   0  0  0  0  0  0  0  0  0  0  0  0
    7.4754    1.2092   23.9739 H   0  0  0  0  0  0  0  0  0  0  0  0
    8.0695   -1.0939   22.9848 N   0  0  0  0  0  0  0  0  0  0  0  0
    9.7884   -3.2585   22.7397 H   0  0  0  0  0  0  0  0  0  0  0  0
    8.9973   -3.7464   21.2281 H   0  0  0  0  0  0  0  0  0  0  0  0
    8.5888   -5.3342   23.0833 H   0  0  0  0  0  0  0  0  0  0  0  0
    6.9494   -3.0786   24.3773 H   0  0  0  0  0  0  0  0  0  0  0  0
    7.0590   -4.7577   24.9560 H   0  0  0  0  0  0  0  0  0  0  0  0
    8.4943   -3.7098   24.9793 H   0  0  0  0  0  0  0  0  0  0  0  0
  1  2  1  0
  2  3  1  0
  3  4  1  0
  3  5  1  0
  3  6  1  0
  2  7  1  0
  7  8  1  0
  8  9  2  0
  9 10  1  0
 10 11  1  0
 11 12  2  0
 12 13  1  0
 13 14  2  0
 14 15  1  0
 15 16  2  0
 16 17  1  0
 14 18  1  0
 13 19  1  0
 12 20  1  0
 10 21  1  0
 21 22  1  0
 22 23  1  0
 23 24  1  0
 24 25  1  0
 24 26  1  0
 24 27  1  0
 23 28  1  0
 28 29  2  0
 29 30  1  0
 30 31  2  0
 31 32  1  0
 32 33  2  0
 33 34  1  0
 31 35  1  0
 30 36  1  0
 29 37  1  0
 23 38  1  0
 22 39  1  0
 22 40  1  0
 21 41  2  0
  7 42  1  0
  7 43  1  0
  2 44  1  0
  1 45  1  0
  1 46  1  0
  1 47  1  0
 41  8  1  0
 16 11  1  0
 33 28  1  0
M  END
>  <cnnaffinity>  (1) 
-5.9989

>  <filename>  (1) 
CC(C)Cc1nc(CC(C)c2cccnc2)n(-c2cccnc2)n1

$$$$
