
     RDKit          3D

 43 46  0  0  0  0  0  0  0  0999 V2000
   10.8430    2.5092   21.8008 C   0  0  0  0  0  0  0  0  0  0  0  0
    9.7059    1.5496   22.1735 C   0  0  0  0  0  0  0  0  0  0  0  0
    9.6041    0.4123   21.1043 C   0  0  0  0  0  0  0  0  0  0  0  0
    8.5992   -0.6436   21.4399 C   0  0  0  0  0  0  0  0  0  0  0  0
    8.7596   -1.4759   22.4492 N   0  0  0  0  0  0  0  0  0  0  0  0
    7.5705   -2.1227   22.5173 C   0  0  0  0  0  0  0  0  0  0  0  0
    7.3205   -3.1006   23.6126 C   0  0  0  0  0  0  0  0  0  0  0  0
    6.2061   -2.7258   24.6444 C   0  0  0  0  0  0  0  0  0  0  0  0
    5.3720   -3.9379   24.1669 C   0  0  0  0  0  0  0  0  0  0  0  0
    6.5317   -4.3899   23.2464 C   0  0  0  0  0  0  0  0  0  0  0  0
    6.2896   -4.4849   22.1828 H   0  0  0  0  0  0  0  0  0  0  0  0
    7.0357   -5.3082   23.5672 H   0  0  0  0  0  0  0  0  0  0  0  0
    5.0820   -4.6455   24.9483 H   0  0  0  0  0  0  0  0  0  0  0  0
    4.4612   -3.6607   23.6264 H   0  0  0  0  0  0  0  0  0  0  0  0
    6.5411   -2.7809   25.6860 H   0  0  0  0  0  0  0  0  0  0  0  0
    5.7543   -1.7397   24.4951 H   0  0  0  0  0  0  0  0  0  0  0  0
    8.2987   -3.2764   24.0675 H   0  0  0  0  0  0  0  0  0  0  0  0
    6.6852   -1.7603   21.6087 N   0  0  0  0  0  0  0  0  0  0  0  0
    7.3536   -0.8136   20.8922 N   0  0  0  0  0  0  0  0  0  0  0  0
    6.6737   -0.1072   19.8528 C   0  0  0  0  0  0  0  0  0  0  0  0
    5.4481    0.5170   20.1193 C   0  0  0  0  0  0  0  0  0  0  0  0
    4.8475    1.2617   19.0991 C   0  0  0  0  0  0  0  0  0  0  0  0
    5.4673    1.3247   17.8465 C   0  0  0  0  0  0  0  0  0  0  0  0
    6.6129    0.6824   17.5688 N   0  0  0  0  0  0  0  0  0  0  0  0
    7.1976   -0.0127   18.5532 C   0  0  0  0  0  0  0  0  0  0  0  0
    8.1151   -0.5386   18.2802 H   0  0  0  0  0  0  0  0  0  0  0  0
    5.0270    1.9063   17.0366 H   0  0  0  0  0  0  0  0  0  0  0  0
    3.9097    1.7849   19.2622 H   0  0  0  0  0  0  0  0  0  0  0  0
    4.9913    0.3996   21.1028 H   0  0  0  0  0  0  0  0  0  0  0  0
    9.3760    0.8534   20.1331 H   0  0  0  0  0  0  0  0  0  0  0  0
   10.5827   -0.0753   21.0377 H   0  0  0  0  0  0  0  0  0  0  0  0
    8.3872    2.2332   22.4064 C   0  0  0  0  0  0  0  0  0  0  0  0
    7.4768    2.1163   23.4170 C   0  0  0  0  0  0  0  0  0  0  0  0
    6.3371    2.9032   23.0169 C   0  0  0  0  0  0  0  0  0  0  0  0
    6.6524    3.4335   21.8091 C   0  0  0  0  0  0  0  0  0  0  0  0
    7.8957    3.0403   21.4402 O   0  0  0  0  0  0  0  0  0  0  0  0
    6.1337    4.0622   21.0971 H   0  0  0  0  0  0  0  0  0  0  0  0
    5.4057    3.0630   23.5337 H   0  0  0  0  0  0  0  0  0  0  0  0
    7.6178    1.5163   24.3101 H   0  0  0  0  0  0  0  0  0  0  0  0
    9.9345    1.0778   23.1369 H   0  0  0  0  0  0  0  0  0  0  0  0
   11.8117    2.0228   21.9629 H   0  0  0  0  0  0  0  0  0  0  0  0
   10.8126    3.4373   22.3858 H   0  0  0  0  0  0  0  0  0  0  0  0
   10.7829    2.7738   20.7428 H   0  0  0  0  0  0  0  0  0  0  0  0
  1  2  1  0
  2  3  1  0
  3  4  1  0
  4  5  2  0
  5  6  1  0
  6  7  1  0
  7  8  1  0
  8  9  1  0
  9 10  1  0
 10 11  1  0
 10 12  1  0
  9 13  1  0
  9 14  1  0
  8 15  1  0
  8 16  1  0
  7 17  1  0
  6 18  2  0
 18 19  1  0
 19 20  1  0
 20 21  2  0
 21 22  1  0
 22 23  2  0
 23 24  1  0
 24 25  2  0
 25 26  1  0
 23 27  1  0
 22 28  1  0
 21 29  1  0
  3 30  1  0
  3 31  1  0
  2 32  1  0
 32 33  2  0
 33 34  1  0
 34 35  2  0
 35 36  1  0
 35 37  1  0
 34 38  1  0
 33 39  1  0
  2 40  1  0
  1 41  1  0
  1 42  1  0
  1 43  1  0
 19  4  1  0
 25 20  1  0
 36 32  1  0
 10  7  1  0
M  END
>  <cnnaffinity>  (1) 
-5.81875

>  <filename>  (1) 
CC(Cc1nc(C2CCC2)nn1-c1cccnc1)c1ccco1

$$$$
