
     RDKit          3D

 38 40  0  0  0  0  0  0  0  0999 V2000
    4.9857    1.7841   16.7744 H   0  0  0  0  0  0  0  0  0  0  0  0
    5.4548    1.3033   17.6294 C   0  0  0  0  0  0  0  0  0  0  0  0
    6.6189    0.6882   17.3980 N   0  0  0  0  0  0  0  0  0  0  0  0
    7.2298    0.1176   18.4478 C   0  0  0  0  0  0  0  0  0  0  0  0
    8.1785   -0.3576   18.2149 H   0  0  0  0  0  0  0  0  0  0  0  0
    6.7401    0.1119   19.7701 C   0  0  0  0  0  0  0  0  0  0  0  0
    7.4930   -0.5221   20.9602 C   0  0  0  0  0  0  0  0  0  0  0  0
    8.8973   -0.9953   20.5592 C   0  0  0  0  0  0  0  0  0  0  0  0
    8.8500   -1.8860   19.9394 H   0  0  0  0  0  0  0  0  0  0  0  0
    9.4870   -1.2622   21.4384 H   0  0  0  0  0  0  0  0  0  0  0  0
    9.4448   -0.2342   19.9949 H   0  0  0  0  0  0  0  0  0  0  0  0
    6.7155   -1.7506   21.4780 C   0  0  0  0  0  0  0  0  0  0  0  0
    5.6960   -1.4833   21.7697 H   0  0  0  0  0  0  0  0  0  0  0  0
    6.6411   -2.5114   20.6938 H   0  0  0  0  0  0  0  0  0  0  0  0
    7.2104   -2.2081   22.3433 H   0  0  0  0  0  0  0  0  0  0  0  0
    7.6096    0.5437   22.1015 C   0  0  0  0  0  0  0  0  0  0  0  0
    6.5935    0.8400   22.3938 H   0  0  0  0  0  0  0  0  0  0  0  0
    8.0830    1.4446   21.6894 H   0  0  0  0  0  0  0  0  0  0  0  0
    8.3431    0.1447   23.3607 C   0  0  0  0  0  0  0  0  0  0  0  0
    7.6603   -0.3997   24.4386 C   0  0  0  0  0  0  0  0  0  0  0  0
    6.5982   -0.6346   24.3438 H   0  0  0  0  0  0  0  0  0  0  0  0
    8.1984   -0.6498   25.6632 N   0  0  0  0  0  0  0  0  0  0  0  0
    9.4676   -0.3545   25.8400 C   0  0  0  0  0  0  0  0  0  0  0  0
    9.8737   -0.5110   26.8415 H   0  0  0  0  0  0  0  0  0  0  0  0
   10.3182    0.1855   24.8217 C   0  0  0  0  0  0  0  0  0  0  0  0
   11.7036    0.4519   25.0219 C   0  0  0  0  0  0  0  0  0  0  0  0
   12.1241    0.2867   26.0021 H   0  0  0  0  0  0  0  0  0  0  0  0
   12.5131    0.8633   23.9967 C   0  0  0  0  0  0  0  0  0  0  0  0
   13.5770    1.0109   24.1667 H   0  0  0  0  0  0  0  0  0  0  0  0
   11.9712    1.0526   22.7027 C   0  0  0  0  0  0  0  0  0  0  0  0
   12.6288    1.3251   21.8839 H   0  0  0  0  0  0  0  0  0  0  0  0
   10.6177    0.8679   22.4909 C   0  0  0  0  0  0  0  0  0  0  0  0
   10.2122    1.0425   21.5000 H   0  0  0  0  0  0  0  0  0  0  0  0
    9.7454    0.4213   23.5328 C   0  0  0  0  0  0  0  0  0  0  0  0
    5.4936    0.7337   19.9642 C   0  0  0  0  0  0  0  0  0  0  0  0
    5.0264    0.7551   20.9508 H   0  0  0  0  0  0  0  0  0  0  0  0
    4.8485    1.3451   18.8879 C   0  0  0  0  0  0  0  0  0  0  0  0
    3.9074    1.8662   19.0205 H   0  0  0  0  0  0  0  0  0  0  0  0
  1  2  1  0
  2  3  2  0
  3  4  1  0
  4  5  1  0
  4  6  2  0
  6  7  1  0
  7  8  1  0
  8  9  1  0
  8 10  1  0
  8 11  1  0
  7 12  1  0
 12 13  1  0
 12 14  1  0
 12 15  1  0
  7 16  1  0
 16 17  1  0
 16 18  1  0
 16 19  1  0
 19 20  2  0
 20 21  1  0
 20 22  1  0
 22 23  2  0
 23 24  1  0
 23 25  1  0
 25 26  2  0
 26 27  1  0
 26 28  1  0
 28 29  1  0
 28 30  2  0
 30 31  1  0
 30 32  1  0
 32 33  1  0
 32 34  2  0
  6 35  1  0
 35 36  1  0
 35 37  2  0
 37 38  1  0
 37  2  1  0
 34 19  1  0
 34 25  1  0
M  END
>  <cnnaffinity>  (1) 
-5.51816

>  <filename>  (1) 
CC(C)(Cc1cncc2ccccc12)c1cccnc1

$$$$
