
     RDKit          3D

 40 43  0  0  0  0  0  0  0  0999 V2000
    9.3722    1.9812   21.0461 C   0  0  0  0  0  0  0  0  0  0  0  0
    9.0157    1.9640   22.5313 C   0  0  0  0  0  0  0  0  0  0  0  0
    7.6579    1.2352   22.7377 C   0  0  0  0  0  0  0  0  0  0  0  0
    7.6972   -0.1593   22.2170 C   0  0  0  0  0  0  0  0  0  0  0  0
    8.2849   -1.1214   22.8923 N   0  0  0  0  0  0  0  0  0  0  0  0
    8.2490   -2.1680   22.0350 C   0  0  0  0  0  0  0  0  0  0  0  0
    8.8487   -3.4609   22.4138 C   0  0  0  0  0  0  0  0  0  0  0  0
    8.3827   -4.2669   23.6038 C   0  0  0  0  0  0  0  0  0  0  0  0
    8.1195   -4.7565   22.2082 C   0  0  0  0  0  0  0  0  0  0  0  0
    7.0982   -4.6735   21.8445 H   0  0  0  0  0  0  0  0  0  0  0  0
    8.6695   -5.6108   21.8227 H   0  0  0  0  0  0  0  0  0  0  0  0
    9.1727   -4.7573   24.1698 H   0  0  0  0  0  0  0  0  0  0  0  0
    7.5441   -3.9169   24.2066 H   0  0  0  0  0  0  0  0  0  0  0  0
    9.9275   -3.4397   22.2968 H   0  0  0  0  0  0  0  0  0  0  0  0
    7.6982   -1.9162   20.8600 N   0  0  0  0  0  0  0  0  0  0  0  0
    7.3180   -0.6144   20.9806 N   0  0  0  0  0  0  0  0  0  0  0  0
    6.6252    0.0375   19.9124 C   0  0  0  0  0  0  0  0  0  0  0  0
    5.4081    0.6968   20.1292 C   0  0  0  0  0  0  0  0  0  0  0  0
    4.8009    1.3361   19.0411 C   0  0  0  0  0  0  0  0  0  0  0  0
    5.4278    1.3065   17.7920 C   0  0  0  0  0  0  0  0  0  0  0  0
    6.5728    0.6412   17.5678 N   0  0  0  0  0  0  0  0  0  0  0  0
    7.1450    0.0092   18.6022 C   0  0  0  0  0  0  0  0  0  0  0  0
    8.0533   -0.5458   18.3795 H   0  0  0  0  0  0  0  0  0  0  0  0
    4.9911    1.8303   16.9422 H   0  0  0  0  0  0  0  0  0  0  0  0
    3.8624    1.8644   19.1593 H   0  0  0  0  0  0  0  0  0  0  0  0
    4.9346    0.6857   21.1138 H   0  0  0  0  0  0  0  0  0  0  0  0
    6.8642    1.8062   22.2529 H   0  0  0  0  0  0  0  0  0  0  0  0
    7.4364    1.1667   23.8064 H   0  0  0  0  0  0  0  0  0  0  0  0
    8.9806    3.3184   23.0990 N   0  0  0  0  0  0  0  0  0  0  0  0
    8.1755    4.3540   22.7490 C   0  0  0  0  0  0  0  0  0  0  0  0
    8.5181    5.4136   23.5590 C   0  0  0  0  0  0  0  0  0  0  0  0
    9.5666    4.9168   24.3588 C   0  0  0  0  0  0  0  0  0  0  0  0
    9.8360    3.6553   24.0770 N   0  0  0  0  0  0  0  0  0  0  0  0
   10.1527    5.4214   25.1218 H   0  0  0  0  0  0  0  0  0  0  0  0
    8.0764    6.3994   23.5847 H   0  0  0  0  0  0  0  0  0  0  0  0
    7.4429    4.2742   21.9510 H   0  0  0  0  0  0  0  0  0  0  0  0
    9.7971    1.4458   23.0996 H   0  0  0  0  0  0  0  0  0  0  0  0
    9.4939    0.9593   20.6731 H   0  0  0  0  0  0  0  0  0  0  0  0
   10.2970    2.5268   20.8436 H   0  0  0  0  0  0  0  0  0  0  0  0
    8.5544    2.4421   20.4791 H   0  0  0  0  0  0  0  0  0  0  0  0
  1  2  1  0
  2  3  1  0
  3  4  1  0
  4  5  2  0
  5  6  1  0
  6  7  1  0
  7  8  1  0
  8  9  1  0
  9 10  1  0
  9 11  1  0
  8 12  1  0
  8 13  1  0
  7 14  1  0
  6 15  2  0
 15 16  1  0
 16 17  1  0
 17 18  2  0
 18 19  1  0
 19 20  2  0
 20 21  1  0
 21 22  2  0
 22 23  1  0
 20 24  1  0
 19 25  1  0
 18 26  1  0
  3 27  1  0
  3 28  1  0
  2 29  1  0
 29 30  1  0
 30 31  2  0
 31 32  1  0
 32 33  2  0
 32 34  1  0
 31 35  1  0
 30 36  1  0
  2 37  1  0
  1 38  1  0
  1 39  1  0
  1 40  1  0
 16  4  1  0
 22 17  1  0
 33 29  1  0
  9  7  1  0
M  END
>  <cnnaffinity>  (1) 
-6.05858

>  <filename>  (1) 
CC(Cc1nc(C2CC2)nn1-c1cccnc1)n1cccn1

$$$$
