
     RDKit          3D

 42 45  0  0  0  0  0  0  0  0999 V2000
   10.0142   -3.2202   23.2427 C   0  0  0  0  0  0  0  0  0  0  0  0
    8.6133   -3.6731   22.7772 C   0  0  0  0  0  0  0  0  0  0  0  0
    7.7554   -2.4523   22.5435 C   0  0  0  0  0  0  0  0  0  0  0  0
    7.4890   -2.0230   21.3345 N   0  0  0  0  0  0  0  0  0  0  0  0
    6.8160   -0.8701   21.5411 N   0  0  0  0  0  0  0  0  0  0  0  0
    6.3920   -0.0491   20.4866 C   0  0  0  0  0  0  0  0  0  0  0  0
    5.4301    0.9494   20.6657 C   0  0  0  0  0  0  0  0  0  0  0  0
    5.1001    1.7550   19.5790 C   0  0  0  0  0  0  0  0  0  0  0  0
    5.6874    1.5266   18.3337 C   0  0  0  0  0  0  0  0  0  0  0  0
    6.5907    0.5473   18.1478 N   0  0  0  0  0  0  0  0  0  0  0  0
    6.9352   -0.2247   19.1973 C   0  0  0  0  0  0  0  0  0  0  0  0
    7.6745   -1.0080   19.0409 H   0  0  0  0  0  0  0  0  0  0  0  0
    5.4094    2.1603   17.4948 H   0  0  0  0  0  0  0  0  0  0  0  0
    4.3878    2.5639   19.6787 H   0  0  0  0  0  0  0  0  0  0  0  0
    4.9361    1.0946   21.6210 H   0  0  0  0  0  0  0  0  0  0  0  0
    6.7582   -0.6286   22.9145 C   0  0  0  0  0  0  0  0  0  0  0  0
    6.4113    0.6464   23.6227 C   0  0  0  0  0  0  0  0  0  0  0  0
    7.6210    1.4961   23.3954 C   0  0  0  0  0  0  0  0  0  0  0  0
    7.7104    2.3851   22.3407 C   0  0  0  0  0  0  0  0  0  0  0  0
    8.9283    2.9889   22.0597 C   0  0  0  0  0  0  0  0  0  0  0  0
   10.0428    2.7465   22.7666 N   0  0  0  0  0  0  0  0  0  0  0  0
    9.9766    1.8774   23.7847 C   0  0  0  0  0  0  0  0  0  0  0  0
   11.5904    1.4002   24.6910 Br  0  0  0  0  0  0  0  0  0  0  0  0
    8.7815    1.2448   24.1202 C   0  0  0  0  0  0  0  0  0  0  0  0
    8.7719    0.5146   24.9112 H   0  0  0  0  0  0  0  0  0  0  0  0
    8.9500    3.6326   21.1979 H   0  0  0  0  0  0  0  0  0  0  0  0
    6.8762    2.5739   21.6805 H   0  0  0  0  0  0  0  0  0  0  0  0
    6.2659    0.4723   24.6898 H   0  0  0  0  0  0  0  0  0  0  0  0
    5.5037    1.1046   23.2352 H   0  0  0  0  0  0  0  0  0  0  0  0
    7.2987   -1.6220   23.5596 N   0  0  0  0  0  0  0  0  0  0  0  0
    7.9474   -4.6267   23.7844 C   0  0  0  0  0  0  0  0  0  0  0  0
    7.8615   -4.2157   25.2477 C   0  0  0  0  0  0  0  0  0  0  0  0
    8.7848   -5.3576   24.8276 C   0  0  0  0  0  0  0  0  0  0  0  0
    9.8630   -5.1716   24.8521 H   0  0  0  0  0  0  0  0  0  0  0  0
    8.4909   -6.3788   25.0854 H   0  0  0  0  0  0  0  0  0  0  0  0
    6.9385   -4.4669   25.7804 H   0  0  0  0  0  0  0  0  0  0  0  0
    8.3178   -3.2583   25.5242 H   0  0  0  0  0  0  0  0  0  0  0  0
    7.0956   -5.1809   23.3712 H   0  0  0  0  0  0  0  0  0  0  0  0
    8.7137   -4.2042   21.8262 H   0  0  0  0  0  0  0  0  0  0  0  0
   10.5978   -4.0694   23.6050 H   0  0  0  0  0  0  0  0  0  0  0  0
   10.5627   -2.7609   22.4119 H   0  0  0  0  0  0  0  0  0  0  0  0
    9.9296   -2.4929   24.0593 H   0  0  0  0  0  0  0  0  0  0  0  0
  1  2  1  0
  2  3  1  0
  3  4  2  0
  4  5  1  0
  5  6  1  0
  6  7  2  0
  7  8  1  0
  8  9  2  0
  9 10  1  0
 10 11  2  0
 11 12  1  0
  9 13  1  0
  8 14  1  0
  7 15  1  0
  5 16  1  0
 16 17  1  0
 17 18  1  0
 18 19  2  0
 19 20  1  0
 20 21  2  0
 21 22  1  0
 22 23  1  0
 22 24  2  0
 24 25  1  0
 20 26  1  0
 19 27  1  0
 17 28  1  0
 17 29  1  0
 16 30  2  0
  2 31  1  0
 31 32  1  0
 32 33  1  0
 33 34  1  0
 33 35  1  0
 32 36  1  0
 32 37  1  0
 31 38  1  0
  2 39  1  0
  1 40  1  0
  1 41  1  0
  1 42  1  0
 30  3  1  0
 33 31  1  0
 11  6  1  0
 24 18  1  0
M  END
>  <cnnaffinity>  (1) 
-6.43167

>  <filename>  (1) 
CC(c1nc(Cc2ccnc(Br)c2)n(-c2cccnc2)n1)C1CC1

$$$$
