
     RDKit          3D

 42 44  0  0  0  0  0  0  0  0999 V2000
    7.9931   -5.8314   22.8014 C   0  0  0  0  0  0  0  0  0  0  0  0
    7.2643   -4.4915   22.6637 C   0  0  0  0  0  0  0  0  0  0  0  0
    6.6403   -4.0986   24.0061 C   0  0  0  0  0  0  0  0  0  0  0  0
    5.9135   -4.8513   24.3255 H   0  0  0  0  0  0  0  0  0  0  0  0
    6.1248   -3.1392   23.9205 H   0  0  0  0  0  0  0  0  0  0  0  0
    7.4088   -4.0091   24.7792 H   0  0  0  0  0  0  0  0  0  0  0  0
    8.2805   -3.4369   22.1914 C   0  0  0  0  0  0  0  0  0  0  0  0
    7.6929   -2.0763   21.9633 C   0  0  0  0  0  0  0  0  0  0  0  0
    7.3897   -1.6420   20.7698 N   0  0  0  0  0  0  0  0  0  0  0  0
    6.9756   -0.3684   20.9836 N   0  0  0  0  0  0  0  0  0  0  0  0
    6.4898    0.4032   19.9205 C   0  0  0  0  0  0  0  0  0  0  0  0
    5.5313    1.4224   20.0486 C   0  0  0  0  0  0  0  0  0  0  0  0
    4.9853    1.9396   18.8680 C   0  0  0  0  0  0  0  0  0  0  0  0
    5.4315    1.4737   17.6234 C   0  0  0  0  0  0  0  0  0  0  0  0
    6.4132    0.5634   17.5009 N   0  0  0  0  0  0  0  0  0  0  0  0
    6.9246    0.0482   18.6306 C   0  0  0  0  0  0  0  0  0  0  0  0
    7.7037   -0.7080   18.5572 H   0  0  0  0  0  0  0  0  0  0  0  0
    4.9724    1.8431   16.7143 H   0  0  0  0  0  0  0  0  0  0  0  0
    4.2103    2.7004   18.8939 H   0  0  0  0  0  0  0  0  0  0  0  0
    5.1801    1.7738   21.0185 H   0  0  0  0  0  0  0  0  0  0  0  0
    7.0758   -0.0912   22.3471 C   0  0  0  0  0  0  0  0  0  0  0  0
    6.8561    1.1942   23.0895 C   0  0  0  0  0  0  0  0  0  0  0  0
    8.1505    1.5122   23.7769 C   0  0  0  0  0  0  0  0  0  0  0  0
    9.3092    1.8614   23.0880 C   0  0  0  0  0  0  0  0  0  0  0  0
    9.2653    2.0883   21.1983 Br  0  0  0  0  0  0  0  0  0  0  0  0
   10.4978    1.9955   23.8148 C   0  0  0  0  0  0  0  0  0  0  0  0
   11.6873    2.2997   23.2782 O   0  0  0  0  0  0  0  0  0  0  0  0
   12.2574    2.3068   24.0607 H   0  0  0  0  0  0  0  0  0  0  0  0
   10.6027    1.8180   25.1272 N   0  0  0  0  0  0  0  0  0  0  0  0
    9.4790    1.4797   25.7746 C   0  0  0  0  0  0  0  0  0  0  0  0
    8.2541    1.3221   25.1399 C   0  0  0  0  0  0  0  0  0  0  0  0
    7.3887    1.0149   25.7119 H   0  0  0  0  0  0  0  0  0  0  0  0
    9.4910    1.2893   26.8354 H   0  0  0  0  0  0  0  0  0  0  0  0
    6.0757    1.0368   23.8421 H   0  0  0  0  0  0  0  0  0  0  0  0
    6.5637    2.0123   22.4274 H   0  0  0  0  0  0  0  0  0  0  0  0
    7.5067   -1.1529   22.9715 N   0  0  0  0  0  0  0  0  0  0  0  0
    8.7172   -3.7694   21.2455 H   0  0  0  0  0  0  0  0  0  0  0  0
    9.0765   -3.3402   22.9353 H   0  0  0  0  0  0  0  0  0  0  0  0
    6.4690   -4.5972   21.9169 H   0  0  0  0  0  0  0  0  0  0  0  0
    8.7326   -5.7900   23.6073 H   0  0  0  0  0  0  0  0  0  0  0  0
    8.5102   -6.0746   21.8713 H   0  0  0  0  0  0  0  0  0  0  0  0
    7.2892   -6.6378   23.0187 H   0  0  0  0  0  0  0  0  0  0  0  0
  1  2  1  0
  2  3  1  0
  3  4  1  0
  3  5  1  0
  3  6  1  0
  2  7  1  0
  7  8  1  0
  8  9  2  0
  9 10  1  0
 10 11  1  0
 11 12  2  0
 12 13  1  0
 13 14  2  0
 14 15  1  0
 15 16  2  0
 16 17  1  0
 14 18  1  0
 13 19  1  0
 12 20  1  0
 10 21  1  0
 21 22  1  0
 22 23  1  0
 23 24  2  0
 24 25  1  0
 24 26  1  0
 26 27  1  0
 27 28  1  0
 26 29  2  0
 29 30  1  0
 30 31  2  0
 31 32  1  0
 30 33  1  0
 22 34  1  0
 22 35  1  0
 21 36  2  0
  7 37  1  0
  7 38  1  0
  2 39  1  0
  1 40  1  0
  1 41  1  0
  1 42  1  0
 36  8  1  0
 16 11  1  0
 31 23  1  0
M  END
>  <cnnaffinity>  (1) 
-5.98335

>  <filename>  (1) 
CC(C)Cc1nc(Cc2ccnc(O)c2Br)n(-c2cccnc2)n1

$$$$
