
     RDKit          3D

 48 50  0  0  0  0  0  0  0  0999 V2000
    7.4023   -5.5060   24.7508 C   0  0  0  0  0  0  0  0  0  0  0  0
    8.2999   -5.1703   23.5554 C   0  0  0  0  0  0  0  0  0  0  0  0
    8.3772   -6.3669   22.6045 C   0  0  0  0  0  0  0  0  0  0  0  0
    7.3770   -6.6446   22.2439 H   0  0  0  0  0  0  0  0  0  0  0  0
    8.8024   -7.2468   23.0947 H   0  0  0  0  0  0  0  0  0  0  0  0
    8.9976   -6.1605   21.7294 H   0  0  0  0  0  0  0  0  0  0  0  0
    7.7444   -3.9222   22.8509 C   0  0  0  0  0  0  0  0  0  0  0  0
    8.7176   -3.1610   21.9259 C   0  0  0  0  0  0  0  0  0  0  0  0
    8.1857   -1.8098   21.5934 C   0  0  0  0  0  0  0  0  0  0  0  0
    7.6793   -1.4703   20.4300 N   0  0  0  0  0  0  0  0  0  0  0  0
    7.1439   -0.2427   20.6725 N   0  0  0  0  0  0  0  0  0  0  0  0
    6.4638    0.4276   19.6280 C   0  0  0  0  0  0  0  0  0  0  0  0
    5.2452    1.0881   19.8227 C   0  0  0  0  0  0  0  0  0  0  0  0
    4.6363    1.6665   18.7032 C   0  0  0  0  0  0  0  0  0  0  0  0
    5.2682    1.5833   17.4604 C   0  0  0  0  0  0  0  0  0  0  0  0
    6.4346    0.9407   17.2706 N   0  0  0  0  0  0  0  0  0  0  0  0
    7.0046    0.3690   18.3315 C   0  0  0  0  0  0  0  0  0  0  0  0
    7.9358   -0.1675   18.1619 H   0  0  0  0  0  0  0  0  0  0  0  0
    4.8377    2.0447   16.5757 H   0  0  0  0  0  0  0  0  0  0  0  0
    3.6941    2.1941   18.7939 H   0  0  0  0  0  0  0  0  0  0  0  0
    4.7739    1.1254   20.8047 H   0  0  0  0  0  0  0  0  0  0  0  0
    7.4029    0.1025   21.9682 C   0  0  0  0  0  0  0  0  0  0  0  0
    6.9379    1.3186   22.7335 C   0  0  0  0  0  0  0  0  0  0  0  0
    7.9360    1.8002   23.7095 N   0  0  0  0  0  0  0  0  0  0  0  0
    9.0898    2.3751   23.2376 C   0  0  0  0  0  0  0  0  0  0  0  0
   10.2351    2.3561   23.9848 C   0  0  0  0  0  0  0  0  0  0  0  0
   11.5158    2.9240   23.4548 C   0  0  0  0  0  0  0  0  0  0  0  0
   11.4810    3.1505   22.1294 F   0  0  0  0  0  0  0  0  0  0  0  0
   12.5506    2.0935   23.6860 F   0  0  0  0  0  0  0  0  0  0  0  0
   11.8178    4.0938   24.0525 F   0  0  0  0  0  0  0  0  0  0  0  0
   10.2162    1.7976   25.2984 C   0  0  0  0  0  0  0  0  0  0  0  0
    9.0450    1.3692   25.8301 C   0  0  0  0  0  0  0  0  0  0  0  0
    7.7977    1.3979   25.0876 C   0  0  0  0  0  0  0  0  0  0  0  0
    6.7147    1.0825   25.5480 O   0  0  0  0  0  0  0  0  0  0  0  0
    8.9581    1.0013   26.8400 H   0  0  0  0  0  0  0  0  0  0  0  0
   11.1376    1.7135   25.8742 H   0  0  0  0  0  0  0  0  0  0  0  0
    9.0291    2.8082   22.2343 H   0  0  0  0  0  0  0  0  0  0  0  0
    6.6509    2.1376   22.0685 H   0  0  0  0  0  0  0  0  0  0  0  0
    6.0697    1.0137   23.3257 H   0  0  0  0  0  0  0  0  0  0  0  0
    8.0683   -0.8682   22.5582 N   0  0  0  0  0  0  0  0  0  0  0  0
    9.6781   -3.0042   22.4295 H   0  0  0  0  0  0  0  0  0  0  0  0
    8.9037   -3.6837   20.9870 H   0  0  0  0  0  0  0  0  0  0  0  0
    7.4070   -3.2103   23.6170 H   0  0  0  0  0  0  0  0  0  0  0  0
    6.8340   -4.1969   22.2918 H   0  0  0  0  0  0  0  0  0  0  0  0
    9.3176   -4.9487   23.9218 H   0  0  0  0  0  0  0  0  0  0  0  0
    7.7299   -6.4085   25.2762 H   0  0  0  0  0  0  0  0  0  0  0  0
    7.3699   -4.6821   25.4735 H   0  0  0  0  0  0  0  0  0  0  0  0
    6.3807   -5.6635   24.3821 H   0  0  0  0  0  0  0  0  0  0  0  0
  1  2  1  0
  2  3  1  0
  3  4  1  0
  3  5  1  0
  3  6  1  0
  2  7  1  0
  7  8  1  0
  8  9  1  0
  9 10  2  0
 10 11  1  0
 11 12  1  0
 12 13  2  0
 13 14  1  0
 14 15  2  0
 15 16  1  0
 16 17  2  0
 17 18  1  0
 15 19  1  0
 14 20  1  0
 13 21  1  0
 11 22  1  0
 22 23  1  0
 23 24  1  0
 24 25  1  0
 25 26  2  0
 26 27  1  0
 27 28  1  0
 27 29  1  0
 27 30  1  0
 26 31  1  0
 31 32  2  0
 32 33  1  0
 33 34  2  0
 32 35  1  0
 31 36  1  0
 25 37  1  0
 23 38  1  0
 23 39  1  0
 22 40  2  0
  8 41  1  0
  8 42  1  0
  7 43  1  0
  7 44  1  0
  2 45  1  0
  1 46  1  0
  1 47  1  0
  1 48  1  0
 40  9  1  0
 17 12  1  0
 33 24  1  0
M  END
>  <cnnaffinity>  (1) 
-6.70865

>  <filename>  (1) 
CC(C)CCc1nc(Cn2cc(C(F)(F)F)ccc2=O)n(-c2cccnc2)n1

$$$$
