
     RDKit          3D

 40 43  0  0  0  0  0  0  0  0999 V2000
    9.3655    1.9930   21.0442 C   0  0  0  0  0  0  0  0  0  0  0  0
    9.0116    1.9405   22.5233 C   0  0  0  0  0  0  0  0  0  0  0  0
    7.6407    1.2494   22.7369 C   0  0  0  0  0  0  0  0  0  0  0  0
    7.6617   -0.1525   22.2294 C   0  0  0  0  0  0  0  0  0  0  0  0
    8.2504   -1.1151   22.9098 N   0  0  0  0  0  0  0  0  0  0  0  0
    8.2354   -2.1621   22.0507 C   0  0  0  0  0  0  0  0  0  0  0  0
    8.8496   -3.4534   22.4255 C   0  0  0  0  0  0  0  0  0  0  0  0
    8.1222   -4.7526   22.2094 C   0  0  0  0  0  0  0  0  0  0  0  0
    8.3805   -4.2689   23.6092 C   0  0  0  0  0  0  0  0  0  0  0  0
    7.5343   -3.9154   24.2003 H   0  0  0  0  0  0  0  0  0  0  0  0
    9.1687   -4.7612   24.1790 H   0  0  0  0  0  0  0  0  0  0  0  0
    7.0920   -4.6771   21.8595 H   0  0  0  0  0  0  0  0  0  0  0  0
    8.6801   -5.6067   21.8335 H   0  0  0  0  0  0  0  0  0  0  0  0
    9.9320   -3.4078   22.3085 H   0  0  0  0  0  0  0  0  0  0  0  0
    7.7022   -1.9095   20.8684 N   0  0  0  0  0  0  0  0  0  0  0  0
    7.2885   -0.6176   20.9952 N   0  0  0  0  0  0  0  0  0  0  0  0
    6.6127    0.0348   19.9169 C   0  0  0  0  0  0  0  0  0  0  0  0
    5.4018    0.7036   20.1269 C   0  0  0  0  0  0  0  0  0  0  0  0
    4.8069    1.3440   19.0346 C   0  0  0  0  0  0  0  0  0  0  0  0
    5.4343    1.3108   17.7861 C   0  0  0  0  0  0  0  0  0  0  0  0
    6.5792    0.6429   17.5690 N   0  0  0  0  0  0  0  0  0  0  0  0
    7.1396    0.0057   18.6072 C   0  0  0  0  0  0  0  0  0  0  0  0
    8.0456   -0.5502   18.3803 H   0  0  0  0  0  0  0  0  0  0  0  0
    4.9907    1.8253   16.9334 H   0  0  0  0  0  0  0  0  0  0  0  0
    3.8677    1.8671   19.1493 H   0  0  0  0  0  0  0  0  0  0  0  0
    4.9264    0.6978   21.1114 H   0  0  0  0  0  0  0  0  0  0  0  0
    6.8574    1.8347   22.2509 H   0  0  0  0  0  0  0  0  0  0  0  0
    7.4223    1.1966   23.8072 H   0  0  0  0  0  0  0  0  0  0  0  0
    9.0231    3.2760   23.1205 N   0  0  0  0  0  0  0  0  0  0  0  0
    9.8637    3.7264   24.1195 C   0  0  0  0  0  0  0  0  0  0  0  0
    9.5066    5.0230   24.3433 C   0  0  0  0  0  0  0  0  0  0  0  0
    8.4867    5.3969   23.5076 N   0  0  0  0  0  0  0  0  0  0  0  0
    8.2293    4.3349   22.7793 C   0  0  0  0  0  0  0  0  0  0  0  0
    7.4823    4.2884   21.9954 H   0  0  0  0  0  0  0  0  0  0  0  0
    9.9392    5.7045   25.0646 H   0  0  0  0  0  0  0  0  0  0  0  0
   10.6437    3.1116   24.5496 H   0  0  0  0  0  0  0  0  0  0  0  0
    9.7714    1.3565   23.0586 H   0  0  0  0  0  0  0  0  0  0  0  0
   10.2886    2.5504   20.8622 H   0  0  0  0  0  0  0  0  0  0  0  0
    8.5453    2.4578   20.4829 H   0  0  0  0  0  0  0  0  0  0  0  0
    9.4966    0.9818   20.6470 H   0  0  0  0  0  0  0  0  0  0  0  0
  1  2  1  0
  2  3  1  0
  3  4  1  0
  4  5  2  0
  5  6  1  0
  6  7  1  0
  7  8  1  0
  8  9  1  0
  9 10  1  0
  9 11  1  0
  8 12  1  0
  8 13  1  0
  7 14  1  0
  6 15  2  0
 15 16  1  0
 16 17  1  0
 17 18  2  0
 18 19  1  0
 19 20  2  0
 20 21  1  0
 21 22  2  0
 22 23  1  0
 20 24  1  0
 19 25  1  0
 18 26  1  0
  3 27  1  0
  3 28  1  0
  2 29  1  0
 29 30  1  0
 30 31  2  0
 31 32  1  0
 32 33  2  0
 33 34  1  0
 31 35  1  0
 30 36  1  0
  2 37  1  0
  1 38  1  0
  1 39  1  0
  1 40  1  0
 16  4  1  0
 22 17  1  0
 33 29  1  0
  9  7  1  0
M  END
>  <cnnaffinity>  (1) 
-5.8439

>  <filename>  (1) 
CC(Cc1nc(C2CC2)nn1-c1cccnc1)n1ccnc1

$$$$
