
     RDKit          3D

 49 51  0  0  0  0  0  0  0  0999 V2000
    9.5528   -0.3666   26.3996 C   0  0  0  0  0  0  0  0  0  0  0  0
    8.1284    0.2281   26.3866 C   0  0  0  0  0  0  0  0  0  0  0  0
    7.6671    0.6963   27.7701 C   0  0  0  0  0  0  0  0  0  0  0  0
    6.5977    0.9371   27.7831 H   0  0  0  0  0  0  0  0  0  0  0  0
    8.2231    1.5833   28.0861 H   0  0  0  0  0  0  0  0  0  0  0  0
    7.8372   -0.0832   28.5109 H   0  0  0  0  0  0  0  0  0  0  0  0
    8.0698    1.4112   25.4079 C   0  0  0  0  0  0  0  0  0  0  0  0
    8.7913    2.3827   25.5636 O   0  0  0  0  0  0  0  0  0  0  0  0
    7.2191    1.3149   24.3029 N   0  0  0  0  0  0  0  0  0  0  0  0
    6.0232    0.4833   24.2969 C   0  0  0  0  0  0  0  0  0  0  0  0
    5.3222    0.8696   23.5442 H   0  0  0  0  0  0  0  0  0  0  0  0
    6.2246   -0.5753   24.0685 H   0  0  0  0  0  0  0  0  0  0  0  0
    5.5268    0.5323   25.2724 H   0  0  0  0  0  0  0  0  0  0  0  0
    7.7899    1.7625   23.0192 C   0  0  0  0  0  0  0  0  0  0  0  0
    8.8430    0.8317   22.4567 C   0  0  0  0  0  0  0  0  0  0  0  0
   10.1432    0.8590   22.7178 N   0  0  0  0  0  0  0  0  0  0  0  0
   10.6203   -0.2409   22.0804 C   0  0  0  0  0  0  0  0  0  0  0  0
   12.0542   -0.5789   21.9112 C   0  0  0  0  0  0  0  0  0  0  0  0
   12.3735   -1.6448   21.0530 C   0  0  0  0  0  0  0  0  0  0  0  0
   13.6284   -1.7716   20.4562 C   0  0  0  0  0  0  0  0  0  0  0  0
   14.5815   -0.8105   20.7557 C   0  0  0  0  0  0  0  0  0  0  0  0
   15.9847   -0.4100   19.6549 Cl  0  0  0  0  0  0  0  0  0  0  0  0
   14.3754    0.0771   21.8363 C   0  0  0  0  0  0  0  0  0  0  0  0
   13.1122    0.2034   22.4104 C   0  0  0  0  0  0  0  0  0  0  0  0
   12.9624    0.9222   23.2132 H   0  0  0  0  0  0  0  0  0  0  0  0
   15.1811    0.7314   22.1449 H   0  0  0  0  0  0  0  0  0  0  0  0
   13.8047   -2.5706   19.7546 H   0  0  0  0  0  0  0  0  0  0  0  0
   11.5709   -2.3125   20.7907 H   0  0  0  0  0  0  0  0  0  0  0  0
    9.6770   -0.9294   21.4493 N   0  0  0  0  0  0  0  0  0  0  0  0
    8.5460   -0.2545   21.7109 N   0  0  0  0  0  0  0  0  0  0  0  0
    7.2802   -0.7337   21.1632 C   0  0  0  0  0  0  0  0  0  0  0  0
    6.6965    0.0827   20.0247 C   0  0  0  0  0  0  0  0  0  0  0  0
    5.4578    0.7264   20.1336 C   0  0  0  0  0  0  0  0  0  0  0  0
    4.9222    1.3652   19.0127 C   0  0  0  0  0  0  0  0  0  0  0  0
    5.6520    1.3449   17.8214 C   0  0  0  0  0  0  0  0  0  0  0  0
    6.8500    0.7513   17.6992 N   0  0  0  0  0  0  0  0  0  0  0  0
    7.3556    0.1512   18.7841 C   0  0  0  0  0  0  0  0  0  0  0  0
    8.3327   -0.3158   18.6597 H   0  0  0  0  0  0  0  0  0  0  0  0
    5.2594    1.8242   16.9260 H   0  0  0  0  0  0  0  0  0  0  0  0
    3.9673    1.8778   19.0502 H   0  0  0  0  0  0  0  0  0  0  0  0
    4.9130    0.7243   21.0810 H   0  0  0  0  0  0  0  0  0  0  0  0
    7.4944   -1.7528   20.8285 H   0  0  0  0  0  0  0  0  0  0  0  0
    6.5447   -0.8116   21.9720 H   0  0  0  0  0  0  0  0  0  0  0  0
    6.9875    1.9026   22.2877 H   0  0  0  0  0  0  0  0  0  0  0  0
    8.2532    2.7376   23.1863 H   0  0  0  0  0  0  0  0  0  0  0  0
    7.4522   -0.5566   26.0307 H   0  0  0  0  0  0  0  0  0  0  0  0
    9.6327   -1.1664   27.1460 H   0  0  0  0  0  0  0  0  0  0  0  0
    9.8264   -0.7907   25.4247 H   0  0  0  0  0  0  0  0  0  0  0  0
   10.2918    0.4029   26.6451 H   0  0  0  0  0  0  0  0  0  0  0  0
  1  2  1  0
  2  3  1  0
  3  4  1  0
  3  5  1  0
  3  6  1  0
  2  7  1  0
  7  8  2  0
  7  9  1  0
  9 10  1  0
 10 11  1  0
 10 12  1  0
 10 13  1  0
  9 14  1  0
 14 15  1  0
 15 16  2  0
 16 17  1  0
 17 18  1  0
 18 19  2  0
 19 20  1  0
 20 21  2  0
 21 22  1  0
 21 23  1  0
 23 24  2  0
 24 25  1  0
 23 26  1  0
 20 27  1  0
 19 28  1  0
 17 29  2  0
 29 30  1  0
 30 31  1  0
 31 32  1  0
 32 33  2  0
 33 34  1  0
 34 35  2  0
 35 36  1  0
 36 37  2  0
 37 38  1  0
 35 39  1  0
 34 40  1  0
 33 41  1  0
 31 42  1  0
 31 43  1  0
 14 44  1  0
 14 45  1  0
  2 46  1  0
  1 47  1  0
  1 48  1  0
  1 49  1  0
 30 15  1  0
 37 32  1  0
 24 18  1  0
M  END
>  <cnnaffinity>  (1) 
-6.46451

>  <filename>  (1) 
CC(C)C(=O)N(C)Cc1nc(-c2ccc(Cl)cc2)nn1Cc1cccnc1

$$$$
