
     RDKit          3D

 43 45  0  0  0  0  0  0  0  0999 V2000
    6.5030   -2.3528   24.7456 C   0  0  0  0  0  0  0  0  0  0  0  0
    7.4320   -2.9492   23.6658 C   0  0  0  0  0  0  0  0  0  0  0  0
    6.8815   -4.2761   23.1191 C   0  0  0  0  0  0  0  0  0  0  0  0
    6.7539   -5.0049   23.9262 H   0  0  0  0  0  0  0  0  0  0  0  0
    7.5536   -4.7073   22.3701 H   0  0  0  0  0  0  0  0  0  0  0  0
    5.9092   -4.1145   22.6406 H   0  0  0  0  0  0  0  0  0  0  0  0
    7.6869   -1.9587   22.5599 C   0  0  0  0  0  0  0  0  0  0  0  0
    6.7571   -1.6110   21.6901 N   0  0  0  0  0  0  0  0  0  0  0  0
    7.3707   -0.6549   20.9494 N   0  0  0  0  0  0  0  0  0  0  0  0
    6.6618    0.0105   19.9056 C   0  0  0  0  0  0  0  0  0  0  0  0
    5.4396    0.6401   20.1689 C   0  0  0  0  0  0  0  0  0  0  0  0
    4.8138    1.3079   19.1101 C   0  0  0  0  0  0  0  0  0  0  0  0
    5.4014    1.2965   17.8373 C   0  0  0  0  0  0  0  0  0  0  0  0
    6.5586    0.6711   17.5749 N   0  0  0  0  0  0  0  0  0  0  0  0
    7.1674    0.0522   18.5930 C   0  0  0  0  0  0  0  0  0  0  0  0
    8.1097   -0.4357   18.3627 H   0  0  0  0  0  0  0  0  0  0  0  0
    4.9236    1.7885   16.9920 H   0  0  0  0  0  0  0  0  0  0  0  0
    3.8812    1.8382   19.2584 H   0  0  0  0  0  0  0  0  0  0  0  0
    5.0141    0.6064   21.1774 H   0  0  0  0  0  0  0  0  0  0  0  0
    8.6246   -0.4555   21.4492 C   0  0  0  0  0  0  0  0  0  0  0  0
    9.5103    0.6472   21.0049 C   0  0  0  0  0  0  0  0  0  0  0  0
    9.0401    2.0147   21.5009 C   0  0  0  0  0  0  0  0  0  0  0  0
    8.9836    1.9596   22.9225 O   0  0  0  0  0  0  0  0  0  0  0  0
    8.5342    3.0213   23.6497 C   0  0  0  0  0  0  0  0  0  0  0  0
    8.1427    4.2579   23.1154 C   0  0  0  0  0  0  0  0  0  0  0  0
    7.7019    5.2884   23.9610 C   0  0  0  0  0  0  0  0  0  0  0  0
    7.6575    5.0736   25.3322 C   0  0  0  0  0  0  0  0  0  0  0  0
    7.2350    6.0606   26.1422 F   0  0  0  0  0  0  0  0  0  0  0  0
    8.0425    3.8552   25.8895 C   0  0  0  0  0  0  0  0  0  0  0  0
    8.4796    2.8304   25.0470 C   0  0  0  0  0  0  0  0  0  0  0  0
    8.7827    1.8742   25.4600 H   0  0  0  0  0  0  0  0  0  0  0  0
    7.9884    3.7351   26.9682 H   0  0  0  0  0  0  0  0  0  0  0  0
    7.3912    6.2517   23.5675 H   0  0  0  0  0  0  0  0  0  0  0  0
    8.1841    4.4227   22.0423 H   0  0  0  0  0  0  0  0  0  0  0  0
    8.0526    2.2477   21.0769 H   0  0  0  0  0  0  0  0  0  0  0  0
    9.7480    2.7867   21.1738 H   0  0  0  0  0  0  0  0  0  0  0  0
   10.5119    0.4228   21.3696 H   0  0  0  0  0  0  0  0  0  0  0  0
    9.5560    0.6628   19.9154 H   0  0  0  0  0  0  0  0  0  0  0  0
    8.8662   -1.2976   22.4321 N   0  0  0  0  0  0  0  0  0  0  0  0
    8.4161   -3.1151   24.1099 H   0  0  0  0  0  0  0  0  0  0  0  0
    6.3512   -3.0578   25.5694 H   0  0  0  0  0  0  0  0  0  0  0  0
    6.9117   -1.4252   25.1609 H   0  0  0  0  0  0  0  0  0  0  0  0
    5.5219   -2.1228   24.3211 H   0  0  0  0  0  0  0  0  0  0  0  0
  1  2  1  0
  2  3  1  0
  3  4  1  0
  3  5  1  0
  3  6  1  0
  2  7  1  0
  7  8  2  0
  8  9  1  0
  9 10  1  0
 10 11  2  0
 11 12  1  0
 12 13  2  0
 13 14  1  0
 14 15  2  0
 15 16  1  0
 13 17  1  0
 12 18  1  0
 11 19  1  0
  9 20  1  0
 20 21  1  0
 21 22  1  0
 22 23  1  0
 23 24  1  0
 24 25  2  0
 25 26  1  0
 26 27  2  0
 27 28  1  0
 27 29  1  0
 29 30  2  0
 30 31  1  0
 29 32  1  0
 26 33  1  0
 25 34  1  0
 22 35  1  0
 22 36  1  0
 21 37  1  0
 21 38  1  0
 20 39  2  0
  2 40  1  0
  1 41  1  0
  1 42  1  0
  1 43  1  0
 39  7  1  0
 15 10  1  0
 30 24  1  0
M  END
>  <cnnaffinity>  (1) 
-5.81956

>  <filename>  (1) 
CC(C)c1nc(CCOc2ccc(F)cc2)n(-c2cccnc2)n1

$$$$
