
     RDKit          3D

 43 45  0  0  0  0  0  0  0  0999 V2000
    4.9354    1.7958   16.9866 H   0  0  0  0  0  0  0  0  0  0  0  0
    5.3989    1.2864   17.8303 C   0  0  0  0  0  0  0  0  0  0  0  0
    6.5618    0.6625   17.5767 N   0  0  0  0  0  0  0  0  0  0  0  0
    7.1564    0.0279   18.5916 C   0  0  0  0  0  0  0  0  0  0  0  0
    8.1187   -0.4349   18.3583 H   0  0  0  0  0  0  0  0  0  0  0  0
    6.6388   -0.0161   19.8959 C   0  0  0  0  0  0  0  0  0  0  0  0
    7.3810   -0.6619   20.9817 C   0  0  0  0  0  0  0  0  0  0  0  0
    7.7204   -0.0602   22.1780 C   0  0  0  0  0  0  0  0  0  0  0  0
    7.4844    1.3882   22.4257 C   0  0  0  0  0  0  0  0  0  0  0  0
    7.9887    2.3712   21.5530 C   0  0  0  0  0  0  0  0  0  0  0  0
    8.5267    2.0562   20.6626 H   0  0  0  0  0  0  0  0  0  0  0  0
    7.7908    3.7214   21.8318 C   0  0  0  0  0  0  0  0  0  0  0  0
    8.2470    4.4913   21.2145 H   0  0  0  0  0  0  0  0  0  0  0  0
    7.0090    4.1418   22.9200 C   0  0  0  0  0  0  0  0  0  0  0  0
    6.7586    5.6519   23.0927 C   0  0  0  0  0  0  0  0  0  0  0  0
    5.9810    6.2089   21.8687 C   0  0  0  0  0  0  0  0  0  0  0  0
    6.5480    6.1037   20.9348 H   0  0  0  0  0  0  0  0  0  0  0  0
    5.0274    5.6821   21.7333 H   0  0  0  0  0  0  0  0  0  0  0  0
    5.7638    7.2757   22.0063 H   0  0  0  0  0  0  0  0  0  0  0  0
    5.9396    5.9616   24.3601 C   0  0  0  0  0  0  0  0  0  0  0  0
    4.9503    5.4861   24.3226 H   0  0  0  0  0  0  0  0  0  0  0  0
    5.7919    7.0435   24.4531 H   0  0  0  0  0  0  0  0  0  0  0  0
    6.4555    5.6088   25.2629 H   0  0  0  0  0  0  0  0  0  0  0  0
    8.1201    6.3860   23.2057 C   0  0  0  0  0  0  0  0  0  0  0  0
    7.9655    7.4565   23.3821 H   0  0  0  0  0  0  0  0  0  0  0  0
    8.7135    5.9801   24.0348 H   0  0  0  0  0  0  0  0  0  0  0  0
    8.7202    6.2867   22.2928 H   0  0  0  0  0  0  0  0  0  0  0  0
    6.5113    3.1513   23.7885 C   0  0  0  0  0  0  0  0  0  0  0  0
    5.9496    3.4431   24.6702 H   0  0  0  0  0  0  0  0  0  0  0  0
    6.7605    1.8001   23.5518 C   0  0  0  0  0  0  0  0  0  0  0  0
    6.3897    1.0500   24.2475 H   0  0  0  0  0  0  0  0  0  0  0  0
    8.3496   -0.8626   23.1926 C   0  0  0  0  0  0  0  0  0  0  0  0
    8.5975   -0.3647   24.1309 H   0  0  0  0  0  0  0  0  0  0  0  0
    8.6443   -2.1756   22.9824 C   0  0  0  0  0  0  0  0  0  0  0  0
    9.1240   -2.8149   23.7137 H   0  0  0  0  0  0  0  0  0  0  0  0
    8.3025   -2.8121   21.7160 C   0  0  0  0  0  0  0  0  0  0  0  0
    8.4521   -3.9843   21.4124 O   0  0  0  0  0  0  0  0  0  0  0  0
    7.7437   -1.9688   20.7745 N   0  0  0  0  0  0  0  0  0  0  0  0
    7.4804   -2.4857   19.9534 H   0  0  0  0  0  0  0  0  0  0  0  0
    5.4257    0.6435   20.1463 C   0  0  0  0  0  0  0  0  0  0  0  0
    5.0184    0.6537   21.1597 H   0  0  0  0  0  0  0  0  0  0  0  0
    4.7962    1.3002   19.0919 C   0  0  0  0  0  0  0  0  0  0  0  0
    3.8711    1.8436   19.2349 H   0  0  0  0  0  0  0  0  0  0  0  0
  1  2  1  0
  2  3  2  0
  3  4  1  0
  4  5  1  0
  4  6  2  0
  6  7  1  0
  7  8  2  0
  8  9  1  0
  9 10  2  0
 10 11  1  0
 10 12  1  0
 12 13  1  0
 12 14  2  0
 14 15  1  0
 15 16  1  0
 16 17  1  0
 16 18  1  0
 16 19  1  0
 15 20  1  0
 20 21  1  0
 20 22  1  0
 20 23  1  0
 15 24  1  0
 24 25  1  0
 24 26  1  0
 24 27  1  0
 14 28  1  0
 28 29  1  0
 28 30  2  0
 30 31  1  0
  8 32  1  0
 32 33  1  0
 32 34  2  0
 34 35  1  0
 34 36  1  0
 36 37  2  0
 36 38  1  0
 38 39  1  0
  6 40  1  0
 40 41  1  0
 40 42  2  0
 42 43  1  0
 42  2  1  0
 38  7  1  0
 30  9  1  0
M  END
>  <cnnaffinity>  (1) 
-5.52083

>  <filename>  (1) 
CC(C)(C)c1ccc(-c2ccc(=O)[nH]c2-c2cccnc2)cc1

$$$$
