
     RDKit          3D

 42 44  0  0  0  0  0  0  0  0999 V2000
    6.4998   -2.3565   24.7417 C   0  0  0  0  0  0  0  0  0  0  0  0
    7.4360   -2.9500   23.6669 C   0  0  0  0  0  0  0  0  0  0  0  0
    6.8901   -4.2771   23.1158 C   0  0  0  0  0  0  0  0  0  0  0  0
    5.9177   -4.1170   22.6355 H   0  0  0  0  0  0  0  0  0  0  0  0
    7.5683   -4.7028   22.3687 H   0  0  0  0  0  0  0  0  0  0  0  0
    6.7639   -5.0071   23.9226 H   0  0  0  0  0  0  0  0  0  0  0  0
    7.6876   -1.9564   22.5614 C   0  0  0  0  0  0  0  0  0  0  0  0
    6.7559   -1.6117   21.6912 N   0  0  0  0  0  0  0  0  0  0  0  0
    7.3688   -0.6565   20.9470 N   0  0  0  0  0  0  0  0  0  0  0  0
    6.6610    0.0102   19.9044 C   0  0  0  0  0  0  0  0  0  0  0  0
    5.4399    0.6415   20.1676 C   0  0  0  0  0  0  0  0  0  0  0  0
    4.8128    1.3088   19.1104 C   0  0  0  0  0  0  0  0  0  0  0  0
    5.4007    1.2958   17.8388 C   0  0  0  0  0  0  0  0  0  0  0  0
    6.5600    0.6731   17.5774 N   0  0  0  0  0  0  0  0  0  0  0  0
    7.1695    0.0529   18.5938 C   0  0  0  0  0  0  0  0  0  0  0  0
    8.1129   -0.4364   18.3657 H   0  0  0  0  0  0  0  0  0  0  0  0
    4.9204    1.7858   16.9944 H   0  0  0  0  0  0  0  0  0  0  0  0
    3.8804    1.8388   19.2600 H   0  0  0  0  0  0  0  0  0  0  0  0
    5.0139    0.6085   21.1745 H   0  0  0  0  0  0  0  0  0  0  0  0
    8.6233   -0.4565   21.4429 C   0  0  0  0  0  0  0  0  0  0  0  0
    9.5126    0.6437   20.9955 C   0  0  0  0  0  0  0  0  0  0  0  0
    9.0417    2.0130   21.4875 C   0  0  0  0  0  0  0  0  0  0  0  0
    8.9855    1.9677   22.9150 O   0  0  0  0  0  0  0  0  0  0  0  0
    8.5394    3.0368   23.6272 C   0  0  0  0  0  0  0  0  0  0  0  0
    8.1467    4.2665   23.0844 C   0  0  0  0  0  0  0  0  0  0  0  0
    7.7167    5.2737   23.9593 C   0  0  0  0  0  0  0  0  0  0  0  0
    7.6912    5.0342   25.3318 C   0  0  0  0  0  0  0  0  0  0  0  0
    8.0689    3.8650   25.8675 N   0  0  0  0  0  0  0  0  0  0  0  0
    8.4752    2.8985   25.0386 C   0  0  0  0  0  0  0  0  0  0  0  0
    8.7700    1.9675   25.5145 H   0  0  0  0  0  0  0  0  0  0  0  0
    7.3604    5.7995   26.0326 H   0  0  0  0  0  0  0  0  0  0  0  0
    7.4027    6.2352   23.5743 H   0  0  0  0  0  0  0  0  0  0  0  0
    8.1797    4.4321   22.0071 H   0  0  0  0  0  0  0  0  0  0  0  0
    9.7502    2.7841   21.1601 H   0  0  0  0  0  0  0  0  0  0  0  0
    8.0523    2.2436   21.0669 H   0  0  0  0  0  0  0  0  0  0  0  0
    9.5616    0.6575   19.9049 H   0  0  0  0  0  0  0  0  0  0  0  0
   10.5139    0.4225   21.3650 H   0  0  0  0  0  0  0  0  0  0  0  0
    8.8639   -1.2913   22.4320 N   0  0  0  0  0  0  0  0  0  0  0  0
    8.4166   -3.1199   24.1196 H   0  0  0  0  0  0  0  0  0  0  0  0
    6.9067   -1.4275   25.1566 H   0  0  0  0  0  0  0  0  0  0  0  0
    6.3500   -3.0635   25.5645 H   0  0  0  0  0  0  0  0  0  0  0  0
    5.5196   -2.1311   24.3113 H   0  0  0  0  0  0  0  0  0  0  0  0
  1  2  1  0
  2  3  1  0
  3  4  1  0
  3  5  1  0
  3  6  1  0
  2  7  1  0
  7  8  2  0
  8  9  1  0
  9 10  1  0
 10 11  2  0
 11 12  1  0
 12 13  2  0
 13 14  1  0
 14 15  2  0
 15 16  1  0
 13 17  1  0
 12 18  1  0
 11 19  1  0
  9 20  1  0
 20 21  1  0
 21 22  1  0
 22 23  1  0
 23 24  1  0
 24 25  2  0
 25 26  1  0
 26 27  2  0
 27 28  1  0
 28 29  2  0
 29 30  1  0
 27 31  1  0
 26 32  1  0
 25 33  1  0
 22 34  1  0
 22 35  1  0
 21 36  1  0
 21 37  1  0
 20 38  2  0
  2 39  1  0
  1 40  1  0
  1 41  1  0
  1 42  1  0
 38  7  1  0
 15 10  1  0
 29 24  1  0
M  END
>  <cnnaffinity>  (1) 
-5.96727

>  <filename>  (1) 
CC(C)c1nc(CCOc2cccnc2)n(-c2cccnc2)n1

$$$$
