
     RDKit          3D

 44 46  0  0  0  0  0  0  0  0999 V2000
    8.5171   -5.6193   23.5664 C   0  0  0  0  0  0  0  0  0  0  0  0
    7.7217   -4.4040   23.1006 C   0  0  0  0  0  0  0  0  0  0  0  0
    6.4432   -4.8204   22.3637 C   0  0  0  0  0  0  0  0  0  0  0  0
    5.8193   -5.4451   23.0109 H   0  0  0  0  0  0  0  0  0  0  0  0
    5.8644   -3.9331   22.0847 H   0  0  0  0  0  0  0  0  0  0  0  0
    6.6835   -5.3849   21.4557 H   0  0  0  0  0  0  0  0  0  0  0  0
    8.6244   -3.5638   22.1883 C   0  0  0  0  0  0  0  0  0  0  0  0
    8.0662   -2.2102   21.9558 C   0  0  0  0  0  0  0  0  0  0  0  0
    7.8516   -1.7569   20.7509 N   0  0  0  0  0  0  0  0  0  0  0  0
    7.3126   -0.5449   20.9856 N   0  0  0  0  0  0  0  0  0  0  0  0
    6.6819    0.1567   19.9470 C   0  0  0  0  0  0  0  0  0  0  0  0
    5.5546    0.9539   20.1655 C   0  0  0  0  0  0  0  0  0  0  0  0
    4.9278    1.5186   19.0497 C   0  0  0  0  0  0  0  0  0  0  0  0
    5.4424    1.2960   17.7661 C   0  0  0  0  0  0  0  0  0  0  0  0
    6.5263    0.5300   17.5512 N   0  0  0  0  0  0  0  0  0  0  0  0
    7.1219   -0.0341   18.6213 C   0  0  0  0  0  0  0  0  0  0  0  0
    7.9783   -0.6811   18.4488 H   0  0  0  0  0  0  0  0  0  0  0  0
    4.9530    1.7597   16.9142 H   0  0  0  0  0  0  0  0  0  0  0  0
    4.0455    2.1389   19.1564 H   0  0  0  0  0  0  0  0  0  0  0  0
    5.1510    1.1027   21.1664 H   0  0  0  0  0  0  0  0  0  0  0  0
    7.3183   -0.3017   22.3608 C   0  0  0  0  0  0  0  0  0  0  0  0
    6.9530    0.9670   23.0768 C   0  0  0  0  0  0  0  0  0  0  0  0
    7.9001    1.2824   24.2596 C   0  0  0  0  0  0  0  0  0  0  0  0
    7.7170    2.7166   24.6860 C   0  0  0  0  0  0  0  0  0  0  0  0
    7.2287    3.0311   25.9537 C   0  0  0  0  0  0  0  0  0  0  0  0
    7.0260    4.3628   26.3150 C   0  0  0  0  0  0  0  0  0  0  0  0
    7.3153    5.3767   25.4886 N   0  0  0  0  0  0  0  0  0  0  0  0
    7.7870    5.0936   24.2637 C   0  0  0  0  0  0  0  0  0  0  0  0
    7.9882    3.7792   23.8215 C   0  0  0  0  0  0  0  0  0  0  0  0
    8.5741    3.4549   22.0368 Br  0  0  0  0  0  0  0  0  0  0  0  0
    7.9934    5.9308   23.6012 H   0  0  0  0  0  0  0  0  0  0  0  0
    6.6033    4.5999   27.2872 H   0  0  0  0  0  0  0  0  0  0  0  0
    6.9799    2.2567   26.6646 H   0  0  0  0  0  0  0  0  0  0  0  0
    7.6861    0.6170   25.1034 H   0  0  0  0  0  0  0  0  0  0  0  0
    8.9495    1.1288   23.9788 H   0  0  0  0  0  0  0  0  0  0  0  0
    5.9267    0.8911   23.4444 H   0  0  0  0  0  0  0  0  0  0  0  0
    6.9934    1.7777   22.3477 H   0  0  0  0  0  0  0  0  0  0  0  0
    7.7682   -1.3477   22.9890 N   0  0  0  0  0  0  0  0  0  0  0  0
    8.7287   -4.0548   21.2203 H   0  0  0  0  0  0  0  0  0  0  0  0
    9.6136   -3.4422   22.6403 H   0  0  0  0  0  0  0  0  0  0  0  0
    7.4369   -3.8184   23.9833 H   0  0  0  0  0  0  0  0  0  0  0  0
    7.9219   -6.2169   24.2599 H   0  0  0  0  0  0  0  0  0  0  0  0
    9.4200   -5.2844   24.0892 H   0  0  0  0  0  0  0  0  0  0  0  0
    8.8080   -6.2461   22.7158 H   0  0  0  0  0  0  0  0  0  0  0  0
  1  2  1  0
  2  3  1  0
  3  4  1  0
  3  5  1  0
  3  6  1  0
  2  7  1  0
  7  8  1  0
  8  9  2  0
  9 10  1  0
 10 11  1  0
 11 12  2  0
 12 13  1  0
 13 14  2  0
 14 15  1  0
 15 16  2  0
 16 17  1  0
 14 18  1  0
 13 19  1  0
 12 20  1  0
 10 21  1  0
 21 22  1  0
 22 23  1  0
 23 24  1  0
 24 25  2  0
 25 26  1  0
 26 27  2  0
 27 28  1  0
 28 29  2  0
 29 30  1  0
 28 31  1  0
 26 32  1  0
 25 33  1  0
 23 34  1  0
 23 35  1  0
 22 36  1  0
 22 37  1  0
 21 38  2  0
  7 39  1  0
  7 40  1  0
  2 41  1  0
  1 42  1  0
  1 43  1  0
  1 44  1  0
 38  8  1  0
 16 11  1  0
 29 24  1  0
M  END
>  <cnnaffinity>  (1) 
-6.33516

>  <filename>  (1) 
CC(C)Cc1nc(CCc2ccncc2Br)n(-c2cccnc2)n1

$$$$
