
     RDKit          3D

 47 50  0  0  0  0  0  0  0  0999 V2000
   10.9586    0.4305   21.3758 C   0  0  0  0  0  0  0  0  0  0  0  0
    9.4936    0.6879   21.0113 C   0  0  0  0  0  0  0  0  0  0  0  0
    8.9438    2.0375   21.5803 C   0  0  0  0  0  0  0  0  0  0  0  0
    8.8456    2.0554   23.0781 C   0  0  0  0  0  0  0  0  0  0  0  0
    9.7725    2.3522   24.0514 C   0  0  0  0  0  0  0  0  0  0  0  0
    9.2821    2.0861   25.3058 N   0  0  0  0  0  0  0  0  0  0  0  0
    8.0741    1.6228   25.1091 C   0  0  0  0  0  0  0  0  0  0  0  0
    7.7569    1.5941   23.7872 N   0  0  0  0  0  0  0  0  0  0  0  0
    6.9270    1.1797   23.3852 H   0  0  0  0  0  0  0  0  0  0  0  0
    7.3736    1.3099   25.8766 H   0  0  0  0  0  0  0  0  0  0  0  0
   10.7836    2.7216   23.9112 H   0  0  0  0  0  0  0  0  0  0  0  0
    9.6246    2.8366   21.2728 H   0  0  0  0  0  0  0  0  0  0  0  0
    7.9761    2.2676   21.1151 H   0  0  0  0  0  0  0  0  0  0  0  0
    8.6280   -0.4650   21.4355 C   0  0  0  0  0  0  0  0  0  0  0  0
    8.8500   -1.3192   22.4183 N   0  0  0  0  0  0  0  0  0  0  0  0
    7.6649   -1.9584   22.5515 C   0  0  0  0  0  0  0  0  0  0  0  0
    7.3996   -2.9185   23.6803 C   0  0  0  0  0  0  0  0  0  0  0  0
    6.8233   -4.2704   23.1784 C   0  0  0  0  0  0  0  0  0  0  0  0
    6.1240   -5.0529   24.3149 C   0  0  0  0  0  0  0  0  0  0  0  0
    6.5523   -4.6320   25.5927 O   0  0  0  0  0  0  0  0  0  0  0  0
    6.1461   -3.3088   25.8929 C   0  0  0  0  0  0  0  0  0  0  0  0
    6.4700   -2.2979   24.7622 C   0  0  0  0  0  0  0  0  0  0  0  0
    5.5354   -1.9809   24.2849 H   0  0  0  0  0  0  0  0  0  0  0  0
    6.9223   -1.3923   25.1851 H   0  0  0  0  0  0  0  0  0  0  0  0
    5.0608   -3.2893   26.1009 H   0  0  0  0  0  0  0  0  0  0  0  0
    6.6670   -3.0669   26.8234 H   0  0  0  0  0  0  0  0  0  0  0  0
    5.0291   -4.9329   24.2310 H   0  0  0  0  0  0  0  0  0  0  0  0
    6.3474   -6.1209   24.2647 H   0  0  0  0  0  0  0  0  0  0  0  0
    6.1016   -4.0899   22.3714 H   0  0  0  0  0  0  0  0  0  0  0  0
    7.6416   -4.8635   22.7513 H   0  0  0  0  0  0  0  0  0  0  0  0
    8.3796   -3.0913   24.1370 H   0  0  0  0  0  0  0  0  0  0  0  0
    6.7365   -1.5941   21.6843 N   0  0  0  0  0  0  0  0  0  0  0  0
    7.3635   -0.6441   20.9472 N   0  0  0  0  0  0  0  0  0  0  0  0
    6.6608    0.0121   19.8996 C   0  0  0  0  0  0  0  0  0  0  0  0
    5.4379    0.6397   20.1565 C   0  0  0  0  0  0  0  0  0  0  0  0
    4.8089    1.3091   19.1034 C   0  0  0  0  0  0  0  0  0  0  0  0
    5.3965    1.2959   17.8333 C   0  0  0  0  0  0  0  0  0  0  0  0
    6.5502    0.6637   17.5722 N   0  0  0  0  0  0  0  0  0  0  0  0
    7.1640    0.0452   18.5866 C   0  0  0  0  0  0  0  0  0  0  0  0
    8.1101   -0.4408   18.3541 H   0  0  0  0  0  0  0  0  0  0  0  0
    4.9286    1.8003   16.9909 H   0  0  0  0  0  0  0  0  0  0  0  0
    3.8779    1.8411   19.2544 H   0  0  0  0  0  0  0  0  0  0  0  0
    5.0076    0.6013   21.1584 H   0  0  0  0  0  0  0  0  0  0  0  0
    9.4039    0.7345   19.9224 H   0  0  0  0  0  0  0  0  0  0  0  0
   11.3143   -0.4869   20.8954 H   0  0  0  0  0  0  0  0  0  0  0  0
   11.5982    1.2618   21.0585 H   0  0  0  0  0  0  0  0  0  0  0  0
   11.0697    0.2931   22.4570 H   0  0  0  0  0  0  0  0  0  0  0  0
  1  2  1  0
  2  3  1  0
  3  4  1  0
  4  5  2  0
  5  6  1  0
  6  7  2  0
  7  8  1  0
  8  9  1  0
  7 10  1  0
  5 11  1  0
  3 12  1  0
  3 13  1  0
  2 14  1  0
 14 15  2  0
 15 16  1  0
 16 17  1  0
 17 18  1  0
 18 19  1  0
 19 20  1  0
 20 21  1  0
 21 22  1  0
 22 23  1  0
 22 24  1  0
 21 25  1  0
 21 26  1  0
 19 27  1  0
 19 28  1  0
 18 29  1  0
 18 30  1  0
 17 31  1  0
 16 32  2  0
 32 33  1  0
 33 34  1  0
 34 35  2  0
 35 36  1  0
 36 37  2  0
 37 38  1  0
 38 39  2  0
 39 40  1  0
 37 41  1  0
 36 42  1  0
 35 43  1  0
  2 44  1  0
  1 45  1  0
  1 46  1  0
  1 47  1  0
  8  4  1  0
 33 14  1  0
 39 34  1  0
 22 17  1  0
M  END
>  <cnnaffinity>  (1) 
-5.93631

>  <filename>  (1) 
CC(Cc1cnc[nH]1)c1nc(C2CCOCC2)nn1-c1cccnc1

$$$$
