
     RDKit          3D

 49 52  0  0  0  0  0  0  0  0999 V2000
    8.0692   -1.4026   26.9732 C   0  0  0  0  0  0  0  0  0  0  0  0
    8.0071    0.1278   27.0883 C   0  0  0  0  0  0  0  0  0  0  0  0
    7.5188    0.6169   28.4518 C   0  0  0  0  0  0  0  0  0  0  0  0
    8.2473    0.3417   29.2209 H   0  0  0  0  0  0  0  0  0  0  0  0
    7.4272    1.7063   28.4577 H   0  0  0  0  0  0  0  0  0  0  0  0
    6.5457    0.1822   28.7061 H   0  0  0  0  0  0  0  0  0  0  0  0
    7.2358    0.7303   25.9901 N   0  0  0  0  0  0  0  0  0  0  0  0
    7.7918    1.3961   24.9573 C   0  0  0  0  0  0  0  0  0  0  0  0
    6.8254    1.5888   23.9988 C   0  0  0  0  0  0  0  0  0  0  0  0
    7.1804    2.0180   22.5792 C   0  0  0  0  0  0  0  0  0  0  0  0
    8.1850    1.0485   22.0054 C   0  0  0  0  0  0  0  0  0  0  0  0
    9.5001    1.1646   22.1188 N   0  0  0  0  0  0  0  0  0  0  0  0
    9.9483   -0.0953   21.8941 C   0  0  0  0  0  0  0  0  0  0  0  0
   11.3820   -0.4932   21.8636 C   0  0  0  0  0  0  0  0  0  0  0  0
   12.4397    0.2909   22.3862 C   0  0  0  0  0  0  0  0  0  0  0  0
   13.7494   -0.1187   22.1375 C   0  0  0  0  0  0  0  0  0  0  0  0
   14.7787    0.6078   22.5941 F   0  0  0  0  0  0  0  0  0  0  0  0
   14.0329   -1.2431   21.3692 C   0  0  0  0  0  0  0  0  0  0  0  0
   12.9892   -1.9962   20.8569 C   0  0  0  0  0  0  0  0  0  0  0  0
   11.6743   -1.6767   21.1641 C   0  0  0  0  0  0  0  0  0  0  0  0
   10.8428   -2.3017   20.8513 H   0  0  0  0  0  0  0  0  0  0  0  0
   13.2495   -2.7837   20.1589 H   0  0  0  0  0  0  0  0  0  0  0  0
   15.0351   -1.5530   21.1476 H   0  0  0  0  0  0  0  0  0  0  0  0
   12.2812    1.1850   22.9840 H   0  0  0  0  0  0  0  0  0  0  0  0
    8.9802   -0.9604   21.6095 N   0  0  0  0  0  0  0  0  0  0  0  0
    7.8542   -0.2167   21.6690 N   0  0  0  0  0  0  0  0  0  0  0  0
    6.6084   -0.7412   21.0965 C   0  0  0  0  0  0  0  0  0  0  0  0
    6.1387    0.0194   19.8703 C   0  0  0  0  0  0  0  0  0  0  0  0
    4.9320    0.7254   19.8617 C   0  0  0  0  0  0  0  0  0  0  0  0
    4.5802    1.4517   18.7207 C   0  0  0  0  0  0  0  0  0  0  0  0
    5.4470    1.4353   17.6243 C   0  0  0  0  0  0  0  0  0  0  0  0
    6.6027    0.7545   17.6061 N   0  0  0  0  0  0  0  0  0  0  0  0
    6.9371    0.0787   18.7134 C   0  0  0  0  0  0  0  0  0  0  0  0
    7.8976   -0.4383   18.6814 H   0  0  0  0  0  0  0  0  0  0  0  0
    5.1995    1.9886   16.7202 H   0  0  0  0  0  0  0  0  0  0  0  0
    3.6691    2.0364   18.6791 H   0  0  0  0  0  0  0  0  0  0  0  0
    4.2862    0.7262   20.7437 H   0  0  0  0  0  0  0  0  0  0  0  0
    5.8264   -0.7413   21.8601 H   0  0  0  0  0  0  0  0  0  0  0  0
    6.8132   -1.7897   20.8674 H   0  0  0  0  0  0  0  0  0  0  0  0
    7.6759    2.9925   22.5832 H   0  0  0  0  0  0  0  0  0  0  0  0
    6.3026    2.0944   21.9302 H   0  0  0  0  0  0  0  0  0  0  0  0
    5.6683    1.0314   24.5929 C   0  0  0  0  0  0  0  0  0  0  0  0
    5.9265    0.5100   25.7926 N   0  0  0  0  0  0  0  0  0  0  0  0
    4.6640    0.9564   24.1878 H   0  0  0  0  0  0  0  0  0  0  0  0
    8.8543    1.6194   24.9277 H   0  0  0  0  0  0  0  0  0  0  0  0
    9.0217    0.5152   26.9413 H   0  0  0  0  0  0  0  0  0  0  0  0
    8.7378   -1.8041   27.7400 H   0  0  0  0  0  0  0  0  0  0  0  0
    8.4568   -1.7063   25.9947 H   0  0  0  0  0  0  0  0  0  0  0  0
    7.0768   -1.8505   27.1006 H   0  0  0  0  0  0  0  0  0  0  0  0
  1  2  1  0
  2  3  1  0
  3  4  1  0
  3  5  1  0
  3  6  1  0
  2  7  1  0
  7  8  1  0
  8  9  2  0
  9 10  1  0
 10 11  1  0
 11 12  2  0
 12 13  1  0
 13 14  1  0
 14 15  2  0
 15 16  1  0
 16 17  1  0
 16 18  2  0
 18 19  1  0
 19 20  2  0
 20 21  1  0
 19 22  1  0
 18 23  1  0
 15 24  1  0
 13 25  2  0
 25 26  1  0
 26 27  1  0
 27 28  1  0
 28 29  2  0
 29 30  1  0
 30 31  2  0
 31 32  1  0
 32 33  2  0
 33 34  1  0
 31 35  1  0
 30 36  1  0
 29 37  1  0
 27 38  1  0
 27 39  1  0
 10 40  1  0
 10 41  1  0
  9 42  1  0
 42 43  2  0
 42 44  1  0
  8 45  1  0
  2 46  1  0
  1 47  1  0
  1 48  1  0
  1 49  1  0
 43  7  1  0
 26 11  1  0
 33 28  1  0
 20 14  1  0
M  END
>  <cnnaffinity>  (1) 
-6.69935

>  <filename>  (1) 
CC(C)n1cc(Cc2nc(-c3cccc(F)c3)nn2Cc2cccnc2)cn1

$$$$
