
     RDKit          3D

 38 40  0  0  0  0  0  0  0  0999 V2000
    8.4270   -4.1513   23.6504 C   0  0  0  0  0  0  0  0  0  0  0  0
    7.3635   -3.0377   23.6425 C   0  0  0  0  0  0  0  0  0  0  0  0
    7.3316   -2.3149   25.0089 C   0  0  0  0  0  0  0  0  0  0  0  0
    8.3047   -1.8460   25.2145 H   0  0  0  0  0  0  0  0  0  0  0  0
    6.5601   -1.5363   25.0295 H   0  0  0  0  0  0  0  0  0  0  0  0
    7.1137   -3.0255   25.8146 H   0  0  0  0  0  0  0  0  0  0  0  0
    7.6139   -2.0444   22.5305 C   0  0  0  0  0  0  0  0  0  0  0  0
    6.6812   -1.6064   21.7105 N   0  0  0  0  0  0  0  0  0  0  0  0
    7.3345   -0.6713   20.9664 N   0  0  0  0  0  0  0  0  0  0  0  0
    6.6569   -0.0220   19.8976 C   0  0  0  0  0  0  0  0  0  0  0  0
    5.4300    0.6016   20.1396 C   0  0  0  0  0  0  0  0  0  0  0  0
    4.8231    1.3005   19.0930 C   0  0  0  0  0  0  0  0  0  0  0  0
    5.4378    1.3091   17.8353 C   0  0  0  0  0  0  0  0  0  0  0  0
    6.5822    0.6590   17.5779 N   0  0  0  0  0  0  0  0  0  0  0  0
    7.1701    0.0037   18.5874 C   0  0  0  0  0  0  0  0  0  0  0  0
    8.0775   -0.5418   18.3334 H   0  0  0  0  0  0  0  0  0  0  0  0
    4.9805    1.8402   17.0015 H   0  0  0  0  0  0  0  0  0  0  0  0
    3.8891    1.8321   19.2393 H   0  0  0  0  0  0  0  0  0  0  0  0
    4.9627    0.5049   21.1203 H   0  0  0  0  0  0  0  0  0  0  0  0
    8.6179   -0.5607   21.4202 C   0  0  0  0  0  0  0  0  0  0  0  0
    9.6102    0.5084   21.0714 C   0  0  0  0  0  0  0  0  0  0  0  0
    9.7084    1.6547   22.1136 C   0  0  0  0  0  0  0  0  0  0  0  0
    8.4544    2.4539   22.2782 C   0  0  0  0  0  0  0  0  0  0  0  0
    8.2296    3.6803   21.8910 N   0  0  0  0  0  0  0  0  0  0  0  0
    6.9190    3.9763   22.1840 N   0  0  0  0  0  0  0  0  0  0  0  0
    6.4028    2.9284   22.7540 C   0  0  0  0  0  0  0  0  0  0  0  0
    7.3237    1.9321   22.8331 N   0  0  0  0  0  0  0  0  0  0  0  0
    7.2298    1.0507   23.3179 H   0  0  0  0  0  0  0  0  0  0  0  0
    5.3857    2.8626   23.1272 H   0  0  0  0  0  0  0  0  0  0  0  0
   10.4989    2.3483   21.8193 H   0  0  0  0  0  0  0  0  0  0  0  0
    9.9740    1.2367   23.0920 H   0  0  0  0  0  0  0  0  0  0  0  0
   10.5835    0.0178   21.0009 H   0  0  0  0  0  0  0  0  0  0  0  0
    9.3864    0.9205   20.0879 H   0  0  0  0  0  0  0  0  0  0  0  0
    8.8266   -1.4477   22.3708 N   0  0  0  0  0  0  0  0  0  0  0  0
    6.3742   -3.4745   23.4521 H   0  0  0  0  0  0  0  0  0  0  0  0
    9.4204   -3.7293   23.8518 H   0  0  0  0  0  0  0  0  0  0  0  0
    8.2050   -4.8891   24.4312 H   0  0  0  0  0  0  0  0  0  0  0  0
    8.4638   -4.6691   22.6862 H   0  0  0  0  0  0  0  0  0  0  0  0
  1  2  1  0
  2  3  1  0
  3  4  1  0
  3  5  1  0
  3  6  1  0
  2  7  1  0
  7  8  2  0
  8  9  1  0
  9 10  1  0
 10 11  2  0
 11 12  1  0
 12 13  2  0
 13 14  1  0
 14 15  2  0
 15 16  1  0
 13 17  1  0
 12 18  1  0
 11 19  1  0
  9 20  1  0
 20 21  1  0
 21 22  1  0
 22 23  1  0
 23 24  2  0
 24 25  1  0
 25 26  2  0
 26 27  1  0
 27 28  1  0
 26 29  1  0
 22 30  1  0
 22 31  1  0
 21 32  1  0
 21 33  1  0
 20 34  2  0
  2 35  1  0
  1 36  1  0
  1 37  1  0
  1 38  1  0
 34  7  1  0
 15 10  1  0
 27 23  1  0
M  END
>  <cnnaffinity>  (1) 
-5.49769

>  <filename>  (1) 
CC(C)c1nc(CCc2nnc[nH]2)n(-c2cccnc2)n1

$$$$
