
     RDKit          3D

 44 47  0  0  0  0  0  0  0  0999 V2000
    8.9426    1.7111   23.2929 C   0  0  0  0  0  0  0  0  0  0  0  0
    7.6612    1.2274   22.5924 C   0  0  0  0  0  0  0  0  0  0  0  0
    6.4398    1.3998   23.4973 C   0  0  0  0  0  0  0  0  0  0  0  0
    5.5211    2.4281   23.2499 C   0  0  0  0  0  0  0  0  0  0  0  0
    4.4171    2.6139   24.0923 C   0  0  0  0  0  0  0  0  0  0  0  0
    4.2226    1.7746   25.1925 C   0  0  0  0  0  0  0  0  0  0  0  0
    5.1541    0.7648   25.4293 C   0  0  0  0  0  0  0  0  0  0  0  0
    4.9798   -0.0412   26.4893 F   0  0  0  0  0  0  0  0  0  0  0  0
    6.2600    0.5642   24.6081 C   0  0  0  0  0  0  0  0  0  0  0  0
    6.9610   -0.2393   24.8252 H   0  0  0  0  0  0  0  0  0  0  0  0
    3.3797    1.8890   25.8674 H   0  0  0  0  0  0  0  0  0  0  0  0
    3.7128    3.4166   23.8895 H   0  0  0  0  0  0  0  0  0  0  0  0
    5.6683    3.0814   22.3922 H   0  0  0  0  0  0  0  0  0  0  0  0
    7.8083   -0.1899   22.1316 C   0  0  0  0  0  0  0  0  0  0  0  0
    8.4174   -1.1586   22.7867 N   0  0  0  0  0  0  0  0  0  0  0  0
    8.3008   -2.2118   21.9508 C   0  0  0  0  0  0  0  0  0  0  0  0
    8.9298   -3.5206   22.2719 C   0  0  0  0  0  0  0  0  0  0  0  0
    8.1973   -4.7418   21.6530 C   0  0  0  0  0  0  0  0  0  0  0  0
    8.5383   -5.8939   22.6024 C   0  0  0  0  0  0  0  0  0  0  0  0
    8.9924   -5.3068   23.8129 O   0  0  0  0  0  0  0  0  0  0  0  0
    8.9671   -3.8890   23.7628 C   0  0  0  0  0  0  0  0  0  0  0  0
    9.8743   -3.5234   24.2613 H   0  0  0  0  0  0  0  0  0  0  0  0
    8.0925   -3.4880   24.2991 H   0  0  0  0  0  0  0  0  0  0  0  0
    9.3171   -6.5496   22.1920 H   0  0  0  0  0  0  0  0  0  0  0  0
    7.6790   -6.5462   22.8077 H   0  0  0  0  0  0  0  0  0  0  0  0
    7.1190   -4.5508   21.6635 H   0  0  0  0  0  0  0  0  0  0  0  0
    8.4475   -4.9595   20.6107 H   0  0  0  0  0  0  0  0  0  0  0  0
    9.9662   -3.3405   21.9713 H   0  0  0  0  0  0  0  0  0  0  0  0
    7.7173   -1.9541   20.7960 N   0  0  0  0  0  0  0  0  0  0  0  0
    7.3539   -0.6558   20.9322 N   0  0  0  0  0  0  0  0  0  0  0  0
    6.6475    0.0074   19.9020 C   0  0  0  0  0  0  0  0  0  0  0  0
    5.4362    0.6540   20.1615 C   0  0  0  0  0  0  0  0  0  0  0  0
    4.8054    1.3122   19.1066 C   0  0  0  0  0  0  0  0  0  0  0  0
    5.4013    1.2929   17.8416 C   0  0  0  0  0  0  0  0  0  0  0  0
    6.5673    0.6698   17.5890 N   0  0  0  0  0  0  0  0  0  0  0  0
    7.1714    0.0356   18.5971 C   0  0  0  0  0  0  0  0  0  0  0  0
    8.1230   -0.4452   18.3779 H   0  0  0  0  0  0  0  0  0  0  0  0
    4.9231    1.7817   16.9981 H   0  0  0  0  0  0  0  0  0  0  0  0
    3.8750    1.8430   19.2584 H   0  0  0  0  0  0  0  0  0  0  0  0
    5.0153    0.6322   21.1672 H   0  0  0  0  0  0  0  0  0  0  0  0
    7.5083    1.8422   21.7004 H   0  0  0  0  0  0  0  0  0  0  0  0
    9.8045    1.6006   22.6261 H   0  0  0  0  0  0  0  0  0  0  0  0
    8.8456    2.7634   23.5770 H   0  0  0  0  0  0  0  0  0  0  0  0
    9.1311    1.1195   24.1964 H   0  0  0  0  0  0  0  0  0  0  0  0
  1  2  1  0
  2  3  1  0
  3  4  2  0
  4  5  1  0
  5  6  2  0
  6  7  1  0
  7  8  1  0
  7  9  2  0
  9 10  1  0
  6 11  1  0
  5 12  1  0
  4 13  1  0
  2 14  1  0
 14 15  2  0
 15 16  1  0
 16 17  1  0
 17 18  1  0
 18 19  1  0
 19 20  1  0
 20 21  1  0
 21 22  1  0
 21 23  1  0
 19 24  1  0
 19 25  1  0
 18 26  1  0
 18 27  1  0
 17 28  1  0
 16 29  2  0
 29 30  1  0
 30 31  1  0
 31 32  2  0
 32 33  1  0
 33 34  2  0
 34 35  1  0
 35 36  2  0
 36 37  1  0
 34 38  1  0
 33 39  1  0
 32 40  1  0
  2 41  1  0
  1 42  1  0
  1 43  1  0
  1 44  1  0
  9  3  1  0
 30 14  1  0
 36 31  1  0
 21 17  1  0
M  END
>  <cnnaffinity>  (1) 
-5.87361

>  <filename>  (1) 
CC(c1cccc(F)c1)c1nc(C2CCOC2)nn1-c1cccnc1

$$$$
