
     RDKit          3D

 41 43  0  0  0  0  0  0  0  0999 V2000
    6.2228   -3.6247   25.8425 C   0  0  0  0  0  0  0  0  0  0  0  0
    6.5279   -2.5466   24.7998 C   0  0  0  0  0  0  0  0  0  0  0  0
    7.2481   -1.3531   25.4428 C   0  0  0  0  0  0  0  0  0  0  0  0
    6.6592   -0.9467   26.2733 H   0  0  0  0  0  0  0  0  0  0  0  0
    7.4199   -0.5403   24.7286 H   0  0  0  0  0  0  0  0  0  0  0  0
    8.2273   -1.6499   25.8414 H   0  0  0  0  0  0  0  0  0  0  0  0
    7.3353   -3.1692   23.6282 C   0  0  0  0  0  0  0  0  0  0  0  0
    7.6613   -2.2030   22.5398 C   0  0  0  0  0  0  0  0  0  0  0  0
    6.8026   -1.8674   21.6016 N   0  0  0  0  0  0  0  0  0  0  0  0
    7.4381   -0.8598   20.9432 N   0  0  0  0  0  0  0  0  0  0  0  0
    6.7644   -0.2060   19.8686 C   0  0  0  0  0  0  0  0  0  0  0  0
    5.5094    0.3715   20.0970 C   0  0  0  0  0  0  0  0  0  0  0  0
    4.9260    1.1134   19.0683 C   0  0  0  0  0  0  0  0  0  0  0  0
    5.5807    1.1929   17.8316 C   0  0  0  0  0  0  0  0  0  0  0  0
    6.7476    0.5792   17.5804 N   0  0  0  0  0  0  0  0  0  0  0  0
    7.3217   -0.1026   18.5814 C   0  0  0  0  0  0  0  0  0  0  0  0
    8.2589   -0.6036   18.3429 H   0  0  0  0  0  0  0  0  0  0  0  0
    5.1400    1.7563   17.0108 H   0  0  0  0  0  0  0  0  0  0  0  0
    3.9798    1.6277   19.2121 H   0  0  0  0  0  0  0  0  0  0  0  0
    5.0157    0.2318   21.0606 H   0  0  0  0  0  0  0  0  0  0  0  0
    8.6339   -0.6223   21.5581 C   0  0  0  0  0  0  0  0  0  0  0  0
    9.5345    0.5688   21.3366 C   0  0  0  0  0  0  0  0  0  0  0  0
    9.0882    1.8699   21.9968 C   0  0  0  0  0  0  0  0  0  0  0  0
    8.3170    2.8672   21.2668 C   0  0  0  0  0  0  0  0  0  0  0  0
    7.8987    3.8225   22.2093 C   0  0  0  0  0  0  0  0  0  0  0  0
    8.0511    4.0017   22.3042 C   0  0  0  0  0  0  0  0  0  0  0  0
    8.6138    3.5768   23.6229 N   0  0  0  0  0  0  0  0  0  0  0  0
    9.3228    2.3164   23.3046 C   0  0  0  0  0  0  0  0  0  0  0  0
   10.2542    1.6084   24.5282 Cl  0  0  0  0  0  0  0  0  0  0  0  0
    9.0713    4.4004   23.2853 H   0  0  0  0  0  0  0  0  0  0  0  0
    6.9875    4.6448   22.3694 H   0  0  0  0  0  0  0  0  0  0  0  0
    7.3706    2.6364   20.8928 H   0  0  0  0  0  0  0  0  0  0  0  0
   10.5211    0.2473   21.6891 H   0  0  0  0  0  0  0  0  0  0  0  0
    9.6124    0.7353   20.2580 H   0  0  0  0  0  0  0  0  0  0  0  0
    8.8222   -1.4977   22.5268 N   0  0  0  0  0  0  0  0  0  0  0  0
    8.2849   -3.5636   24.0036 H   0  0  0  0  0  0  0  0  0  0  0  0
    6.7686   -3.9970   23.1909 H   0  0  0  0  0  0  0  0  0  0  0  0
    5.5698   -2.1849   24.3948 H   0  0  0  0  0  0  0  0  0  0  0  0
    5.6843   -4.4700   25.3989 H   0  0  0  0  0  0  0  0  0  0  0  0
    5.6072   -3.2280   26.6580 H   0  0  0  0  0  0  0  0  0  0  0  0
    7.1489   -4.0138   26.2861 H   0  0  0  0  0  0  0  0  0  0  0  0
  1  2  1  0
  2  3  1  0
  3  4  1  0
  3  5  1  0
  3  6  1  0
  2  7  1  0
  7  8  1  0
  8  9  2  0
  9 10  1  0
 10 11  1  0
 11 12  2  0
 12 13  1  0
 13 14  2  0
 14 15  1  0
 15 16  2  0
 16 17  1  0
 14 18  1  0
 13 19  1  0
 12 20  1  0
 10 21  1  0
 21 22  1  0
 22 23  1  0
 23 24  2  0
 24 25  1  0
 25 26  2  0
 26 27  1  0
 27 28  2  0
 28 29  1  0
 26 30  1  0
 25 31  1  0
 24 32  1  0
 22 33  1  0
 22 34  1  0
 21 35  2  0
  7 36  1  0
  7 37  1  0
  2 38  1  0
  1 39  1  0
  1 40  1  0
  1 41  1  0
 35  8  1  0
 16 11  1  0
 28 23  1  0
M  END
>  <cnnaffinity>  (1) 
-6.03872

>  <filename>  (1) 
CC(C)Cc1nc(Cc2cccnc2Cl)n(-c2cccnc2)n1

$$$$
