
     RDKit          3D

 38 39  0  0  0  0  0  0  0  0999 V2000
    5.1348    1.7248   17.0806 H   0  0  0  0  0  0  0  0  0  0  0  0
    5.5348    1.1974   17.9427 C   0  0  0  0  0  0  0  0  0  0  0  0
    6.6436    0.4753   17.7332 N   0  0  0  0  0  0  0  0  0  0  0  0
    7.1630   -0.1748   18.7889 C   0  0  0  0  0  0  0  0  0  0  0  0
    8.0588   -0.7544   18.5657 H   0  0  0  0  0  0  0  0  0  0  0  0
    6.6280   -0.1377   20.0951 C   0  0  0  0  0  0  0  0  0  0  0  0
    7.1851   -0.9540   21.2896 C   0  0  0  0  0  0  0  0  0  0  0  0
    6.9770   -0.2196   22.6894 C   0  0  0  0  0  0  0  0  0  0  0  0
    6.6154   -0.8466   23.6621 O   0  0  0  0  0  0  0  0  0  0  0  0
    7.2906    1.2553   22.8106 C   0  0  0  0  0  0  0  0  0  0  0  0
    8.0059    1.9273   21.8106 C   0  0  0  0  0  0  0  0  0  0  0  0
    8.3670    1.4201   20.9212 H   0  0  0  0  0  0  0  0  0  0  0  0
    8.2284    3.2924   21.9201 C   0  0  0  0  0  0  0  0  0  0  0  0
    8.7038    3.8094   21.1113 H   0  0  0  0  0  0  0  0  0  0  0  0
    7.7589    4.0290   22.9979 C   0  0  0  0  0  0  0  0  0  0  0  0
    7.9550    5.0995   23.0169 H   0  0  0  0  0  0  0  0  0  0  0  0
    7.0562    3.3511   24.0055 C   0  0  0  0  0  0  0  0  0  0  0  0
    6.3008    4.3397   25.2788 S   0  0  0  0  0  0  0  0  0  0  0  0
    5.9162    3.4894   26.3977 O   0  0  0  0  0  0  0  0  0  0  0  0
    7.1191    5.5316   25.4661 O   0  0  0  0  0  0  0  0  0  0  0  0
    4.7994    4.8972   24.5305 C   0  0  0  0  0  0  0  0  0  0  0  0
    5.0478    5.4049   23.5986 H   0  0  0  0  0  0  0  0  0  0  0  0
    4.1250    4.0572   24.3784 H   0  0  0  0  0  0  0  0  0  0  0  0
    4.3848    5.6026   25.2471 H   0  0  0  0  0  0  0  0  0  0  0  0
    6.8505    1.9696   23.9429 C   0  0  0  0  0  0  0  0  0  0  0  0
    6.3412    1.4293   24.7410 H   0  0  0  0  0  0  0  0  0  0  0  0
    8.6979   -1.2704   21.1880 C   0  0  0  0  0  0  0  0  0  0  0  0
    8.9886   -1.9113   22.0293 H   0  0  0  0  0  0  0  0  0  0  0  0
    8.9293   -1.8303   20.2785 H   0  0  0  0  0  0  0  0  0  0  0  0
    9.3514   -0.3931   21.2093 H   0  0  0  0  0  0  0  0  0  0  0  0
    6.4490   -2.3149   21.2632 C   0  0  0  0  0  0  0  0  0  0  0  0
    6.8088   -2.9824   22.0534 H   0  0  0  0  0  0  0  0  0  0  0  0
    6.6384   -2.8004   20.2972 H   0  0  0  0  0  0  0  0  0  0  0  0
    5.3664   -2.1951   21.3766 H   0  0  0  0  0  0  0  0  0  0  0  0
    5.4484    0.6027   20.2691 C   0  0  0  0  0  0  0  0  0  0  0  0
    4.9853    0.6606   21.2552 H   0  0  0  0  0  0  0  0  0  0  0  0
    4.9036    1.2888   19.1851 C   0  0  0  0  0  0  0  0  0  0  0  0
    4.0271    1.9126   19.3002 H   0  0  0  0  0  0  0  0  0  0  0  0
  1  2  1  0
  2  3  2  0
  3  4  1  0
  4  5  1  0
  4  6  2  0
  6  7  1  0
  7  8  1  0
  8  9  2  0
  8 10  1  0
 10 11  2  0
 11 12  1  0
 11 13  1  0
 13 14  1  0
 13 15  2  0
 15 16  1  0
 15 17  1  0
 17 18  1  0
 18 19  2  0
 18 20  2  0
 18 21  1  0
 21 22  1  0
 21 23  1  0
 21 24  1  0
 17 25  2  0
 25 26  1  0
  7 27  1  0
 27 28  1  0
 27 29  1  0
 27 30  1  0
  7 31  1  0
 31 32  1  0
 31 33  1  0
 31 34  1  0
  6 35  1  0
 35 36  1  0
 35 37  2  0
 37 38  1  0
 37  2  1  0
 25 10  1  0
M  END
>  <cnnaffinity>  (1) 
-4.73771

>  <filename>  (1) 
CC(C)(C(=O)c1cccc(S(C)(=O)=O)c1)c1cccnc1

$$$$
