
     RDKit          3D

 37 38  0  0  0  0  0  0  0  0999 V2000
    4.9832    1.7694   17.0190 H   0  0  0  0  0  0  0  0  0  0  0  0
    5.4407    1.2706   17.8708 C   0  0  0  0  0  0  0  0  0  0  0  0
    6.5971    0.6388   17.6264 N   0  0  0  0  0  0  0  0  0  0  0  0
    7.1762   -0.0111   18.6330 C   0  0  0  0  0  0  0  0  0  0  0  0
    8.1330   -0.4848   18.4142 H   0  0  0  0  0  0  0  0  0  0  0  0
    6.6048   -0.0517   19.8929 C   0  0  0  0  0  0  0  0  0  0  0  0
    7.4636   -0.9472   21.1229 S   0  0  0  0  0  0  0  0  0  0  0  0
    6.4430   -1.3636   22.0840 O   0  0  0  0  0  0  0  0  0  0  0  0
    8.2710   -1.9520   20.4470 O   0  0  0  0  0  0  0  0  0  0  0  0
    8.7125    0.3460   21.9739 C   0  0  0  0  0  0  0  0  0  0  0  0
    8.1288    1.6571   22.2041 N   0  0  0  0  0  0  0  0  0  0  0  0
    8.8382    2.3770   22.3307 H   0  0  0  0  0  0  0  0  0  0  0  0
    7.0139    1.7950   23.1351 C   0  0  0  0  0  0  0  0  0  0  0  0
    6.2664    2.4593   22.6761 H   0  0  0  0  0  0  0  0  0  0  0  0
    6.5340    0.8152   23.2660 H   0  0  0  0  0  0  0  0  0  0  0  0
    7.4572    2.3511   24.4752 C   0  0  0  0  0  0  0  0  0  0  0  0
    7.4667    1.5943   25.6582 C   0  0  0  0  0  0  0  0  0  0  0  0
    7.1295    0.5611   25.6757 H   0  0  0  0  0  0  0  0  0  0  0  0
    7.9400    2.1741   26.8404 C   0  0  0  0  0  0  0  0  0  0  0  0
    7.9631    1.6087   27.7694 H   0  0  0  0  0  0  0  0  0  0  0  0
    8.3893    3.4329   26.9176 N   0  0  0  0  0  0  0  0  0  0  0  0
    8.3862    4.1544   25.7913 C   0  0  0  0  0  0  0  0  0  0  0  0
    8.7674    5.1698   25.8744 H   0  0  0  0  0  0  0  0  0  0  0  0
    7.9386    3.6672   24.5649 C   0  0  0  0  0  0  0  0  0  0  0  0
    7.9777    4.3100   23.6906 H   0  0  0  0  0  0  0  0  0  0  0  0
    9.1897   -0.3022   23.2924 C   0  0  0  0  0  0  0  0  0  0  0  0
    8.3440   -0.5707   23.9315 H   0  0  0  0  0  0  0  0  0  0  0  0
    9.8152    0.4118   23.8435 H   0  0  0  0  0  0  0  0  0  0  0  0
    9.7778   -1.2062   23.0979 H   0  0  0  0  0  0  0  0  0  0  0  0
    9.8874    0.5138   21.0148 C   0  0  0  0  0  0  0  0  0  0  0  0
   10.3434   -0.4564   20.8070 H   0  0  0  0  0  0  0  0  0  0  0  0
    9.5635    0.9558   20.0714 H   0  0  0  0  0  0  0  0  0  0  0  0
   10.6463    1.1595   21.4705 H   0  0  0  0  0  0  0  0  0  0  0  0
    5.4204    0.6267   20.1859 C   0  0  0  0  0  0  0  0  0  0  0  0
    4.9774    0.6300   21.1854 H   0  0  0  0  0  0  0  0  0  0  0  0
    4.8253    1.2988   19.1262 C   0  0  0  0  0  0  0  0  0  0  0  0
    3.8965    1.8393   19.2516 H   0  0  0  0  0  0  0  0  0  0  0  0
  1  2  1  0
  2  3  2  0
  3  4  1  0
  4  5  1  0
  4  6  2  0
  6  7  1  0
  7  8  2  0
  7  9  2  0
  7 10  1  0
 10 11  1  0
 11 12  1  0
 11 13  1  0
 13 14  1  0
 13 15  1  0
 13 16  1  0
 16 17  2  0
 17 18  1  0
 17 19  1  0
 19 20  1  0
 19 21  2  0
 21 22  1  0
 22 23  1  0
 22 24  2  0
 24 25  1  0
 10 26  1  0
 26 27  1  0
 26 28  1  0
 26 29  1  0
 10 30  1  0
 30 31  1  0
 30 32  1  0
 30 33  1  0
  6 34  1  0
 34 35  1  0
 34 36  2  0
 36 37  1  0
 36  2  1  0
 24 16  1  0
M  END
>  <cnnaffinity>  (1) 
-4.61288

>  <filename>  (1) 
CC(C)(NCc1ccncc1)S(=O)(=O)c1cccnc1

$$$$
