
     RDKit          3D

 44 47  0  0  0  0  0  0  0  0999 V2000
    6.6763   -1.4747   21.9346 C   0  0  0  0  0  0  0  0  0  0  0  0
    7.5100   -0.6585   20.9434 C   0  0  0  0  0  0  0  0  0  0  0  0
    8.4098    0.3798   21.6928 C   0  0  0  0  0  0  0  0  0  0  0  0
    7.6948    1.4674   22.4422 C   0  0  0  0  0  0  0  0  0  0  0  0
    7.3650    2.6514   21.9732 N   0  0  0  0  0  0  0  0  0  0  0  0
    6.5364    3.1698   22.9269 C   0  0  0  0  0  0  0  0  0  0  0  0
    5.8542    4.4800   22.7764 C   0  0  0  0  0  0  0  0  0  0  0  0
    5.0421    5.0313   23.7970 C   0  0  0  0  0  0  0  0  0  0  0  0
    4.3508    6.2269   23.5761 C   0  0  0  0  0  0  0  0  0  0  0  0
    4.4778    6.8826   22.3506 C   0  0  0  0  0  0  0  0  0  0  0  0
    3.7874    8.0152   22.1355 F   0  0  0  0  0  0  0  0  0  0  0  0
    5.2950    6.3785   21.3440 C   0  0  0  0  0  0  0  0  0  0  0  0
    5.9727    5.1804   21.5617 C   0  0  0  0  0  0  0  0  0  0  0  0
    6.5799    4.7693   20.7598 H   0  0  0  0  0  0  0  0  0  0  0  0
    5.3724    6.8902   20.3910 H   0  0  0  0  0  0  0  0  0  0  0  0
    3.7189    6.6654   24.3387 H   0  0  0  0  0  0  0  0  0  0  0  0
    4.9469    4.5315   24.7626 H   0  0  0  0  0  0  0  0  0  0  0  0
    6.3665    2.3848   23.9760 N   0  0  0  0  0  0  0  0  0  0  0  0
    7.1551    1.3175   23.6901 N   0  0  0  0  0  0  0  0  0  0  0  0
    7.4080    0.3551   24.6983 C   0  0  0  0  0  0  0  0  0  0  0  0
    8.6864   -0.0620   25.0443 C   0  0  0  0  0  0  0  0  0  0  0  0
    8.7714   -0.9984   26.0825 C   0  0  0  0  0  0  0  0  0  0  0  0
    7.7018   -1.4855   26.7292 N   0  0  0  0  0  0  0  0  0  0  0  0
    6.4800   -1.0486   26.4078 N   0  0  0  0  0  0  0  0  0  0  0  0
    6.3217   -0.1459   25.4369 C   0  0  0  0  0  0  0  0  0  0  0  0
    5.3030    0.1870   25.2431 H   0  0  0  0  0  0  0  0  0  0  0  0
    9.7327   -1.3726   26.4130 H   0  0  0  0  0  0  0  0  0  0  0  0
    9.5905    0.3533   24.5850 H   0  0  0  0  0  0  0  0  0  0  0  0
    9.0684    0.8685   20.9680 H   0  0  0  0  0  0  0  0  0  0  0  0
    9.0420   -0.1745   22.3906 H   0  0  0  0  0  0  0  0  0  0  0  0
    6.6808   -0.0223   19.8324 C   0  0  0  0  0  0  0  0  0  0  0  0
    5.4388    0.5824   20.0684 C   0  0  0  0  0  0  0  0  0  0  0  0
    4.8057    1.2682   19.0269 C   0  0  0  0  0  0  0  0  0  0  0  0
    5.4121    1.3061   17.7676 C   0  0  0  0  0  0  0  0  0  0  0  0
    6.5653    0.6762   17.4954 N   0  0  0  0  0  0  0  0  0  0  0  0
    7.1635    0.0320   18.5081 C   0  0  0  0  0  0  0  0  0  0  0  0
    8.0867   -0.4830   18.2463 H   0  0  0  0  0  0  0  0  0  0  0  0
    4.9562    1.8573   16.9450 H   0  0  0  0  0  0  0  0  0  0  0  0
    3.8651    1.7842   19.1838 H   0  0  0  0  0  0  0  0  0  0  0  0
    4.9754    0.5182   21.0562 H   0  0  0  0  0  0  0  0  0  0  0  0
    8.2053   -1.3519   20.4513 H   0  0  0  0  0  0  0  0  0  0  0  0
    5.9758   -2.1383   21.4138 H   0  0  0  0  0  0  0  0  0  0  0  0
    7.3370   -2.0884   22.5546 H   0  0  0  0  0  0  0  0  0  0  0  0
    6.1018   -0.8271   22.6012 H   0  0  0  0  0  0  0  0  0  0  0  0
  1  2  1  0
  2  3  1  0
  3  4  1  0
  4  5  2  0
  5  6  1  0
  6  7  1  0
  7  8  2  0
  8  9  1  0
  9 10  2  0
 10 11  1  0
 10 12  1  0
 12 13  2  0
 13 14  1  0
 12 15  1  0
  9 16  1  0
  8 17  1  0
  6 18  2  0
 18 19  1  0
 19 20  1  0
 20 21  2  0
 21 22  1  0
 22 23  2  0
 23 24  1  0
 24 25  2  0
 25 26  1  0
 22 27  1  0
 21 28  1  0
  3 29  1  0
  3 30  1  0
  2 31  1  0
 31 32  2  0
 32 33  1  0
 33 34  2  0
 34 35  1  0
 35 36  2  0
 36 37  1  0
 34 38  1  0
 33 39  1  0
 32 40  1  0
  2 41  1  0
  1 42  1  0
  1 43  1  0
  1 44  1  0
 19  4  1  0
 25 20  1  0
 36 31  1  0
 13  7  1  0
M  END
>  <cnnaffinity>  (1) 
-5.73438

>  <filename>  (1) 
CC(Cc1nc(-c2ccc(F)cc2)nn1-c1ccnnc1)c1cccnc1

$$$$
