
     RDKit          3D

 34 36  0  0  0  0  0  0  0  0999 V2000
    6.6796   -2.0409   21.3411 C   0  0  0  0  0  0  0  0  0  0  0  0
    7.4003   -0.7584   20.9375 C   0  0  0  0  0  0  0  0  0  0  0  0
    7.6797    0.0532   22.1020 N   0  0  0  0  0  0  0  0  0  0  0  0
    8.4629    1.1718   22.0515 C   0  0  0  0  0  0  0  0  0  0  0  0
    9.0286    1.5264   21.0298 O   0  0  0  0  0  0  0  0  0  0  0  0
    8.5390    1.9143   23.3596 C   0  0  0  0  0  0  0  0  0  0  0  0
    8.6056    3.2686   23.4412 C   0  0  0  0  0  0  0  0  0  0  0  0
    8.4816    3.8713   25.0575 S   0  0  0  0  0  0  0  0  0  0  0  0
    8.3914    2.2553   25.7060 C   0  0  0  0  0  0  0  0  0  0  0  0
    8.2779    1.8714   27.0560 C   0  0  0  0  0  0  0  0  0  0  0  0
    8.3886    0.5222   27.3773 C   0  0  0  0  0  0  0  0  0  0  0  0
    8.6043   -0.4507   26.3786 C   0  0  0  0  0  0  0  0  0  0  0  0
    8.6335   -0.0703   25.0470 C   0  0  0  0  0  0  0  0  0  0  0  0
    8.5011    1.2943   24.6839 C   0  0  0  0  0  0  0  0  0  0  0  0
    8.7626   -0.8159   24.2754 H   0  0  0  0  0  0  0  0  0  0  0  0
    8.7741   -1.4926   26.6492 H   0  0  0  0  0  0  0  0  0  0  0  0
    8.3594    0.2241   28.4191 H   0  0  0  0  0  0  0  0  0  0  0  0
    8.1570    2.6141   27.8408 H   0  0  0  0  0  0  0  0  0  0  0  0
    8.7146    3.9642   22.6085 H   0  0  0  0  0  0  0  0  0  0  0  0
    7.0887   -0.0307   22.9130 H   0  0  0  0  0  0  0  0  0  0  0  0
    6.6377    0.0215   19.8824 C   0  0  0  0  0  0  0  0  0  0  0  0
    5.4225    0.6792   20.1207 C   0  0  0  0  0  0  0  0  0  0  0  0
    4.7971    1.3236   19.0498 C   0  0  0  0  0  0  0  0  0  0  0  0
    5.4094    1.3000   17.7898 C   0  0  0  0  0  0  0  0  0  0  0  0
    6.5757    0.6872   17.5461 N   0  0  0  0  0  0  0  0  0  0  0  0
    7.1614    0.0826   18.5886 C   0  0  0  0  0  0  0  0  0  0  0  0
    8.1180   -0.4005   18.3894 H   0  0  0  0  0  0  0  0  0  0  0  0
    4.9444    1.7972   16.9391 H   0  0  0  0  0  0  0  0  0  0  0  0
    3.8604    1.8539   19.1789 H   0  0  0  0  0  0  0  0  0  0  0  0
    4.9734    0.7107   21.1192 H   0  0  0  0  0  0  0  0  0  0  0  0
    8.3701   -1.0307   20.4998 H   0  0  0  0  0  0  0  0  0  0  0  0
    7.2411   -2.5646   22.1224 H   0  0  0  0  0  0  0  0  0  0  0  0
    6.5951   -2.7111   20.4799 H   0  0  0  0  0  0  0  0  0  0  0  0
    5.6619   -1.8398   21.6975 H   0  0  0  0  0  0  0  0  0  0  0  0
  1  2  1  0
  2  3  1  0
  3  4  1  0
  4  5  2  0
  4  6  1  0
  6  7  2  0
  7  8  1  0
  8  9  1  0
  9 10  2  0
 10 11  1  0
 11 12  2  0
 12 13  1  0
 13 14  2  0
 13 15  1  0
 12 16  1  0
 11 17  1  0
 10 18  1  0
  7 19  1  0
  3 20  1  0
  2 21  1  0
 21 22  2  0
 22 23  1  0
 23 24  2  0
 24 25  1  0
 25 26  2  0
 26 27  1  0
 24 28  1  0
 23 29  1  0
 22 30  1  0
  2 31  1  0
  1 32  1  0
  1 33  1  0
  1 34  1  0
 14  6  1  0
 26 21  1  0
 14  9  1  0
M  END
>  <cnnaffinity>  (1) 
-5.07442

>  <filename>  (1) 
CC(NC(=O)c1csc2ccccc12)c1cccnc1

$$$$
