
     RDKit          3D

 39 40  0  0  0  0  0  0  0  0999 V2000
    7.3560    3.6455   23.2525 C   0  0  0  0  0  0  0  0  0  0  0  0
    7.7286    2.1855   23.4933 C   0  0  0  0  0  0  0  0  0  0  0  0
    7.3718    1.4279   22.2972 N   0  0  0  0  0  0  0  0  0  0  0  0
    7.5932    0.0803   22.2183 C   0  0  0  0  0  0  0  0  0  0  0  0
    7.9513   -0.5675   23.1887 O   0  0  0  0  0  0  0  0  0  0  0  0
    7.3724   -0.5244   20.9648 N   0  0  0  0  0  0  0  0  0  0  0  0
    7.6881   -1.9609   20.8812 C   0  0  0  0  0  0  0  0  0  0  0  0
    8.7254   -2.1301   20.5634 H   0  0  0  0  0  0  0  0  0  0  0  0
    7.5790   -2.4261   21.8661 H   0  0  0  0  0  0  0  0  0  0  0  0
    6.9987   -2.4456   20.1833 H   0  0  0  0  0  0  0  0  0  0  0  0
    6.6806    0.1045   19.8743 C   0  0  0  0  0  0  0  0  0  0  0  0
    5.4548    0.7531   20.0896 C   0  0  0  0  0  0  0  0  0  0  0  0
    4.8013    1.3560   19.0102 C   0  0  0  0  0  0  0  0  0  0  0  0
    5.4033    1.3237   17.7503 C   0  0  0  0  0  0  0  0  0  0  0  0
    6.5739    0.7081   17.5200 N   0  0  0  0  0  0  0  0  0  0  0  0
    7.1808    0.1061   18.5529 C   0  0  0  0  0  0  0  0  0  0  0  0
    8.1246   -0.3924   18.3366 H   0  0  0  0  0  0  0  0  0  0  0  0
    4.9240    1.7955   16.8938 H   0  0  0  0  0  0  0  0  0  0  0  0
    3.8524    1.8605   19.1453 H   0  0  0  0  0  0  0  0  0  0  0  0
    5.0510    0.7991   21.0985 H   0  0  0  0  0  0  0  0  0  0  0  0
    7.3868    1.9208   21.4225 H   0  0  0  0  0  0  0  0  0  0  0  0
    9.1897    1.9924   23.9030 C   0  0  0  0  0  0  0  0  0  0  0  0
    9.4965    1.4391   25.1580 C   0  0  0  0  0  0  0  0  0  0  0  0
   10.8158    1.1763   25.5239 C   0  0  0  0  0  0  0  0  0  0  0  0
   11.8655    1.5022   24.6657 C   0  0  0  0  0  0  0  0  0  0  0  0
   11.5773    2.0621   23.4095 C   0  0  0  0  0  0  0  0  0  0  0  0
   12.6890    2.4257   22.4484 C   0  0  0  0  0  0  0  0  0  0  0  0
   13.8313    1.7640   22.7150 F   0  0  0  0  0  0  0  0  0  0  0  0
   12.9943    3.7386   22.4876 F   0  0  0  0  0  0  0  0  0  0  0  0
   12.3417    2.1389   21.1760 F   0  0  0  0  0  0  0  0  0  0  0  0
   10.2427    2.2886   23.0307 C   0  0  0  0  0  0  0  0  0  0  0  0
   10.0233    2.6721   22.0328 H   0  0  0  0  0  0  0  0  0  0  0  0
   12.8967    1.3064   24.9604 H   0  0  0  0  0  0  0  0  0  0  0  0
   11.0327    0.6940   26.4728 H   0  0  0  0  0  0  0  0  0  0  0  0
    8.6879    1.1784   25.8371 H   0  0  0  0  0  0  0  0  0  0  0  0
    7.1238    1.7954   24.3229 H   0  0  0  0  0  0  0  0  0  0  0  0
    7.4974    4.2507   24.1541 H   0  0  0  0  0  0  0  0  0  0  0  0
    7.9755    4.0781   22.4571 H   0  0  0  0  0  0  0  0  0  0  0  0
    6.3047    3.7223   22.9551 H   0  0  0  0  0  0  0  0  0  0  0  0
  1  2  1  0
  2  3  1  0
  3  4  1  0
  4  5  2  0
  4  6  1  0
  6  7  1  0
  7  8  1  0
  7  9  1  0
  7 10  1  0
  6 11  1  0
 11 12  2  0
 12 13  1  0
 13 14  2  0
 14 15  1  0
 15 16  2  0
 16 17  1  0
 14 18  1  0
 13 19  1  0
 12 20  1  0
  3 21  1  0
  2 22  1  0
 22 23  2  0
 23 24  1  0
 24 25  2  0
 25 26  1  0
 26 27  1  0
 27 28  1  0
 27 29  1  0
 27 30  1  0
 26 31  2  0
 31 32  1  0
 25 33  1  0
 24 34  1  0
 23 35  1  0
  2 36  1  0
  1 37  1  0
  1 38  1  0
  1 39  1  0
 16 11  1  0
 31 22  1  0
M  END
>  <cnnaffinity>  (1) 
-4.95067

>  <filename>  (1) 
CC(NC(=O)N(C)c1cccnc1)c1cccc(C(F)(F)F)c1

$$$$
