
     RDKit          3D

 45 48  0  0  0  0  0  0  0  0999 V2000
    8.8767    2.1337   21.7599 C   0  0  0  0  0  0  0  0  0  0  0  0
    7.7877    1.4000   22.5737 C   0  0  0  0  0  0  0  0  0  0  0  0
    8.0719    1.5023   23.9697 O   0  0  0  0  0  0  0  0  0  0  0  0
    7.6632    2.5677   24.7074 C   0  0  0  0  0  0  0  0  0  0  0  0
    7.2390    3.7954   24.1807 C   0  0  0  0  0  0  0  0  0  0  0  0
    6.8398    4.8255   25.0458 C   0  0  0  0  0  0  0  0  0  0  0  0
    6.8645    4.6487   26.4307 C   0  0  0  0  0  0  0  0  0  0  0  0
    7.3210    3.4242   26.9218 C   0  0  0  0  0  0  0  0  0  0  0  0
    7.4025    3.2517   28.2511 F   0  0  0  0  0  0  0  0  0  0  0  0
    7.7038    2.3775   26.0986 C   0  0  0  0  0  0  0  0  0  0  0  0
    8.0153    1.4336   26.5298 H   0  0  0  0  0  0  0  0  0  0  0  0
    6.5393    5.4055   27.1379 H   0  0  0  0  0  0  0  0  0  0  0  0
    6.5056    5.7740   24.6256 H   0  0  0  0  0  0  0  0  0  0  0  0
    7.2094    3.9389   23.1072 H   0  0  0  0  0  0  0  0  0  0  0  0
    7.6847   -0.0750   22.2612 C   0  0  0  0  0  0  0  0  0  0  0  0
    8.1397   -1.1122   22.9481 N   0  0  0  0  0  0  0  0  0  0  0  0
    8.0292   -2.1342   22.0718 C   0  0  0  0  0  0  0  0  0  0  0  0
    8.6042   -3.4800   22.3438 C   0  0  0  0  0  0  0  0  0  0  0  0
    7.8523   -4.6806   21.7321 C   0  0  0  0  0  0  0  0  0  0  0  0
    8.2214   -5.8350   22.6913 C   0  0  0  0  0  0  0  0  0  0  0  0
    8.9362   -5.2675   23.7814 O   0  0  0  0  0  0  0  0  0  0  0  0
    8.7079   -3.8704   23.8199 C   0  0  0  0  0  0  0  0  0  0  0  0
    7.7879   -3.6009   24.3699 H   0  0  0  0  0  0  0  0  0  0  0  0
    9.5644   -3.4194   24.3284 H   0  0  0  0  0  0  0  0  0  0  0  0
    7.3230   -6.3508   23.0555 H   0  0  0  0  0  0  0  0  0  0  0  0
    8.8695   -6.5799   22.2161 H   0  0  0  0  0  0  0  0  0  0  0  0
    8.1297   -4.8773   20.6917 H   0  0  0  0  0  0  0  0  0  0  0  0
    6.7726   -4.4778   21.7357 H   0  0  0  0  0  0  0  0  0  0  0  0
    9.6263   -3.4171   21.9643 H   0  0  0  0  0  0  0  0  0  0  0  0
    7.5106   -1.8182   20.9009 N   0  0  0  0  0  0  0  0  0  0  0  0
    7.2414   -0.4964   21.0427 N   0  0  0  0  0  0  0  0  0  0  0  0
    6.5990    0.1640   19.9670 C   0  0  0  0  0  0  0  0  0  0  0  0
    5.4007    0.8639   20.1264 C   0  0  0  0  0  0  0  0  0  0  0  0
    4.8216    1.4382   18.9900 C   0  0  0  0  0  0  0  0  0  0  0  0
    5.4683    1.3116   17.7570 C   0  0  0  0  0  0  0  0  0  0  0  0
    6.6078    0.6129   17.5991 N   0  0  0  0  0  0  0  0  0  0  0  0
    7.1423    0.0371   18.6780 C   0  0  0  0  0  0  0  0  0  0  0  0
    8.0481   -0.5469   18.5250 H   0  0  0  0  0  0  0  0  0  0  0  0
    5.0604    1.7770   16.8608 H   0  0  0  0  0  0  0  0  0  0  0  0
    3.8942    1.9938   19.0620 H   0  0  0  0  0  0  0  0  0  0  0  0
    4.9311    0.9259   21.1091 H   0  0  0  0  0  0  0  0  0  0  0  0
    6.8072    1.8498   22.3515 H   0  0  0  0  0  0  0  0  0  0  0  0
    9.8637    1.7184   21.9858 H   0  0  0  0  0  0  0  0  0  0  0  0
    8.6933    2.0482   20.6842 H   0  0  0  0  0  0  0  0  0  0  0  0
    8.9214    3.1978   22.0172 H   0  0  0  0  0  0  0  0  0  0  0  0
  1  2  1  0
  2  3  1  0
  3  4  1  0
  4  5  2  0
  5  6  1  0
  6  7  2  0
  7  8  1  0
  8  9  1  0
  8 10  2  0
 10 11  1  0
  7 12  1  0
  6 13  1  0
  5 14  1  0
  2 15  1  0
 15 16  2  0
 16 17  1  0
 17 18  1  0
 18 19  1  0
 19 20  1  0
 20 21  1  0
 21 22  1  0
 22 23  1  0
 22 24  1  0
 20 25  1  0
 20 26  1  0
 19 27  1  0
 19 28  1  0
 18 29  1  0
 17 30  2  0
 30 31  1  0
 31 32  1  0
 32 33  2  0
 33 34  1  0
 34 35  2  0
 35 36  1  0
 36 37  2  0
 37 38  1  0
 35 39  1  0
 34 40  1  0
 33 41  1  0
  2 42  1  0
  1 43  1  0
  1 44  1  0
  1 45  1  0
 10  4  1  0
 31 15  1  0
 37 32  1  0
 22 18  1  0
M  END
>  <cnnaffinity>  (1) 
-6.06241

>  <filename>  (1) 
CC(Oc1cccc(F)c1)c1nc(C2CCOC2)nn1-c1cccnc1

$$$$
