
     RDKit          3D

 46 49  0  0  0  0  0  0  0  0999 V2000
    7.8215    2.0182   23.0410 C   0  0  0  0  0  0  0  0  0  0  0  0
    8.8104    1.2984   22.1132 C   0  0  0  0  0  0  0  0  0  0  0  0
   10.1314    1.2811   22.6519 O   0  0  0  0  0  0  0  0  0  0  0  0
   11.0125    2.2981   22.6096 C   0  0  0  0  0  0  0  0  0  0  0  0
   10.6597    3.6595   22.5763 C   0  0  0  0  0  0  0  0  0  0  0  0
   11.6723    4.6106   22.6652 C   0  0  0  0  0  0  0  0  0  0  0  0
   12.9979    4.1730   22.7284 C   0  0  0  0  0  0  0  0  0  0  0  0
   13.2352    2.7971   22.6884 C   0  0  0  0  0  0  0  0  0  0  0  0
   12.2732    1.8753   22.6657 N   0  0  0  0  0  0  0  0  0  0  0  0
   14.2568    2.4179   22.7035 H   0  0  0  0  0  0  0  0  0  0  0  0
   13.8378    4.8473   22.8271 H   0  0  0  0  0  0  0  0  0  0  0  0
   11.4241    5.6721   22.6660 H   0  0  0  0  0  0  0  0  0  0  0  0
    9.6294    3.9597   22.4618 H   0  0  0  0  0  0  0  0  0  0  0  0
    8.3671   -0.1497   21.9837 C   0  0  0  0  0  0  0  0  0  0  0  0
    8.5554   -1.0983   22.8889 N   0  0  0  0  0  0  0  0  0  0  0  0
    7.7009   -2.0731   22.5076 C   0  0  0  0  0  0  0  0  0  0  0  0
    7.6319   -3.3759   23.2511 C   0  0  0  0  0  0  0  0  0  0  0  0
    8.4409   -4.4938   22.5295 C   0  0  0  0  0  0  0  0  0  0  0  0
    7.6592   -5.8093   22.7503 C   0  0  0  0  0  0  0  0  0  0  0  0
    6.5487   -5.4630   23.7565 C   0  0  0  0  0  0  0  0  0  0  0  0
    6.2331   -3.9874   23.4808 C   0  0  0  0  0  0  0  0  0  0  0  0
    5.6900   -3.5086   24.3064 H   0  0  0  0  0  0  0  0  0  0  0  0
    5.6349   -3.8823   22.5647 H   0  0  0  0  0  0  0  0  0  0  0  0
    5.6699   -6.1099   23.6544 H   0  0  0  0  0  0  0  0  0  0  0  0
    6.9199   -5.5797   24.7860 H   0  0  0  0  0  0  0  0  0  0  0  0
    7.2203   -6.1373   21.7988 H   0  0  0  0  0  0  0  0  0  0  0  0
    8.3042   -6.6192   23.1084 H   0  0  0  0  0  0  0  0  0  0  0  0
    8.5337   -4.2814   21.4545 H   0  0  0  0  0  0  0  0  0  0  0  0
    9.4494   -4.5287   22.9535 H   0  0  0  0  0  0  0  0  0  0  0  0
    8.0951   -3.1779   24.2254 H   0  0  0  0  0  0  0  0  0  0  0  0
    7.0134   -1.8121   21.4135 N   0  0  0  0  0  0  0  0  0  0  0  0
    7.4475   -0.5729   21.0655 N   0  0  0  0  0  0  0  0  0  0  0  0
    6.7937    0.0896   19.9736 C   0  0  0  0  0  0  0  0  0  0  0  0
    5.5643    0.7224   20.1849 C   0  0  0  0  0  0  0  0  0  0  0  0
    4.9330    1.3307   19.0965 C   0  0  0  0  0  0  0  0  0  0  0  0
    5.5395    1.2614   17.8389 C   0  0  0  0  0  0  0  0  0  0  0  0
    6.7020    0.6243   17.6214 N   0  0  0  0  0  0  0  0  0  0  0  0
    7.3098    0.0481   18.6673 C   0  0  0  0  0  0  0  0  0  0  0  0
    8.2530   -0.4567   18.4607 H   0  0  0  0  0  0  0  0  0  0  0  0
    5.0673    1.7199   16.9718 H   0  0  0  0  0  0  0  0  0  0  0  0
    3.9878    1.8483   19.2191 H   0  0  0  0  0  0  0  0  0  0  0  0
    5.1118    0.7270   21.1773 H   0  0  0  0  0  0  0  0  0  0  0  0
    8.8194    1.7509   21.1113 H   0  0  0  0  0  0  0  0  0  0  0  0
    8.0382    3.0767   23.1807 H   0  0  0  0  0  0  0  0  0  0  0  0
    6.8211    1.9371   22.6071 H   0  0  0  0  0  0  0  0  0  0  0  0
    7.8171    1.5246   24.0188 H   0  0  0  0  0  0  0  0  0  0  0  0
  1  2  1  0
  2  3  1  0
  3  4  1  0
  4  5  2  0
  5  6  1  0
  6  7  2  0
  7  8  1  0
  8  9  2  0
  8 10  1  0
  7 11  1  0
  6 12  1  0
  5 13  1  0
  2 14  1  0
 14 15  2  0
 15 16  1  0
 16 17  1  0
 17 18  1  0
 18 19  1  0
 19 20  1  0
 20 21  1  0
 21 22  1  0
 21 23  1  0
 20 24  1  0
 20 25  1  0
 19 26  1  0
 19 27  1  0
 18 28  1  0
 18 29  1  0
 17 30  1  0
 16 31  2  0
 31 32  1  0
 32 33  1  0
 33 34  2  0
 34 35  1  0
 35 36  2  0
 36 37  1  0
 37 38  2  0
 38 39  1  0
 36 40  1  0
 35 41  1  0
 34 42  1  0
  2 43  1  0
  1 44  1  0
  1 45  1  0
  1 46  1  0
  9  4  1  0
 32 14  1  0
 38 33  1  0
 21 17  1  0
M  END
>  <cnnaffinity>  (1) 
-5.75332

>  <filename>  (1) 
CC(Oc1ccccn1)c1nc(C2CCCC2)nn1-c1cccnc1

$$$$
