
     RDKit          3D

 36 38  0  0  0  0  0  0  0  0999 V2000
    8.0477   -4.8047   23.3465 C   0  0  0  0  0  0  0  0  0  0  0  0
    6.9520   -3.9195   23.9612 C   0  0  0  0  0  0  0  0  0  0  0  0
    7.6329   -2.2626   24.4403 S   0  0  0  0  0  0  0  0  0  0  0  0
    7.8310   -1.6091   22.8018 C   0  0  0  0  0  0  0  0  0  0  0  0
    8.9606   -1.7049   22.1241 N   0  0  0  0  0  0  0  0  0  0  0  0
    8.6318   -1.1158   20.9452 N   0  0  0  0  0  0  0  0  0  0  0  0
    7.3541   -0.6844   20.9782 C   0  0  0  0  0  0  0  0  0  0  0  0
    6.6536    0.0214   19.8982 C   0  0  0  0  0  0  0  0  0  0  0  0
    5.4307    0.6606   20.1509 C   0  0  0  0  0  0  0  0  0  0  0  0
    4.8011    1.3153   19.0962 C   0  0  0  0  0  0  0  0  0  0  0  0
    5.3990    1.2948   17.8309 C   0  0  0  0  0  0  0  0  0  0  0  0
    6.5601    0.6742   17.5756 N   0  0  0  0  0  0  0  0  0  0  0  0
    7.1668    0.0631   18.5962 C   0  0  0  0  0  0  0  0  0  0  0  0
    8.1084   -0.4223   18.3376 H   0  0  0  0  0  0  0  0  0  0  0  0
    4.9319    1.7902   16.9817 H   0  0  0  0  0  0  0  0  0  0  0  0
    3.8694    1.8472   19.2394 H   0  0  0  0  0  0  0  0  0  0  0  0
    5.0009    0.6374   21.1575 H   0  0  0  0  0  0  0  0  0  0  0  0
    6.8246   -0.9904   22.1423 N   0  0  0  0  0  0  0  0  0  0  0  0
    9.3238   -0.9951   20.2247 H   0  0  0  0  0  0  0  0  0  0  0  0
    6.1658   -4.5249   25.1430 C   0  0  0  0  0  0  0  0  0  0  0  0
    4.9493   -4.4935   25.1049 O   0  0  0  0  0  0  0  0  0  0  0  0
    6.8895   -5.2018   26.2653 C   0  0  0  0  0  0  0  0  0  0  0  0
    6.2089   -6.2416   26.9277 C   0  0  0  0  0  0  0  0  0  0  0  0
    6.8128   -6.8964   27.9937 C   0  0  0  0  0  0  0  0  0  0  0  0
    8.1095   -6.5562   28.3732 C   0  0  0  0  0  0  0  0  0  0  0  0
    8.7923   -5.5107   27.7429 C   0  0  0  0  0  0  0  0  0  0  0  0
    8.1864   -4.8276   26.6833 C   0  0  0  0  0  0  0  0  0  0  0  0
    8.7257   -4.0157   26.1903 H   0  0  0  0  0  0  0  0  0  0  0  0
    9.8008   -5.2498   28.0577 H   0  0  0  0  0  0  0  0  0  0  0  0
    8.5895   -7.2052   29.0891 H   0  0  0  0  0  0  0  0  0  0  0  0
    6.3224   -7.7308   28.4922 H   0  0  0  0  0  0  0  0  0  0  0  0
    5.2177   -6.5466   26.5965 H   0  0  0  0  0  0  0  0  0  0  0  0
    6.1457   -3.7403   23.2420 H   0  0  0  0  0  0  0  0  0  0  0  0
    7.6594   -5.8144   23.1696 H   0  0  0  0  0  0  0  0  0  0  0  0
    8.3866   -4.3763   22.3973 H   0  0  0  0  0  0  0  0  0  0  0  0
    8.9252   -4.8974   23.9994 H   0  0  0  0  0  0  0  0  0  0  0  0
  1  2  1  0
  2  3  1  0
  3  4  1  0
  4  5  2  0
  5  6  1  0
  6  7  1  0
  7  8  1  0
  8  9  2  0
  9 10  1  0
 10 11  2  0
 11 12  1  0
 12 13  2  0
 13 14  1  0
 11 15  1  0
 10 16  1  0
  9 17  1  0
  7 18  2  0
  6 19  1  0
  2 20  1  0
 20 21  2  0
 20 22  1  0
 22 23  2  0
 23 24  1  0
 24 25  2  0
 25 26  1  0
 26 27  2  0
 27 28  1  0
 26 29  1  0
 25 30  1  0
 24 31  1  0
 23 32  1  0
  2 33  1  0
  1 34  1  0
  1 35  1  0
  1 36  1  0
 18  4  1  0
 27 22  1  0
 13  8  1  0
M  END
>  <cnnaffinity>  (1) 
-5.22007

>  <filename>  (1) 
CC(Sc1n[nH]c(-c2cccnc2)n1)C(=O)c1ccccc1

$$$$
