
     RDKit          3D

 43 46  0  0  0  0  0  0  0  0999 V2000
    6.8434   -4.7931   21.7749 C   0  0  0  0  0  0  0  0  0  0  0  0
    7.0106   -4.4568   23.2465 C   0  0  0  0  0  0  0  0  0  0  0  0
    6.0443   -5.1534   24.1850 C   0  0  0  0  0  0  0  0  0  0  0  0
    6.2015   -4.8375   25.2236 H   0  0  0  0  0  0  0  0  0  0  0  0
    4.9992   -4.9405   23.9253 H   0  0  0  0  0  0  0  0  0  0  0  0
    6.1891   -6.2382   24.1387 H   0  0  0  0  0  0  0  0  0  0  0  0
    8.3976   -4.1633   23.7582 C   0  0  0  0  0  0  0  0  0  0  0  0
    7.3965   -3.0396   23.6020 C   0  0  0  0  0  0  0  0  0  0  0  0
    7.5919   -2.0264   22.5389 C   0  0  0  0  0  0  0  0  0  0  0  0
    6.6268   -1.5870   21.7484 N   0  0  0  0  0  0  0  0  0  0  0  0
    7.2860   -0.7148   20.9372 N   0  0  0  0  0  0  0  0  0  0  0  0
    6.6252   -0.0249   19.8925 C   0  0  0  0  0  0  0  0  0  0  0  0
    5.4218    0.6347   20.1546 C   0  0  0  0  0  0  0  0  0  0  0  0
    4.8021    1.3149   19.1034 C   0  0  0  0  0  0  0  0  0  0  0  0
    5.3966    1.2978   17.8346 C   0  0  0  0  0  0  0  0  0  0  0  0
    6.5490    0.6621   17.5746 N   0  0  0  0  0  0  0  0  0  0  0  0
    7.1502    0.0278   18.5858 C   0  0  0  0  0  0  0  0  0  0  0  0
    8.1019   -0.4458   18.3500 H   0  0  0  0  0  0  0  0  0  0  0  0
    4.9307    1.8058   16.9934 H   0  0  0  0  0  0  0  0  0  0  0  0
    3.8718    1.8534   19.2542 H   0  0  0  0  0  0  0  0  0  0  0  0
    5.0062    0.6026   21.1622 H   0  0  0  0  0  0  0  0  0  0  0  0
    8.5814   -0.6244   21.3473 C   0  0  0  0  0  0  0  0  0  0  0  0
    9.6238    0.2454   20.7208 C   0  0  0  0  0  0  0  0  0  0  0  0
   10.5759    0.8795   21.7208 C   0  0  0  0  0  0  0  0  0  0  0  0
   11.8575    0.3731   21.9336 C   0  0  0  0  0  0  0  0  0  0  0  0
   12.7095    0.8109   22.8682 N   0  0  0  0  0  0  0  0  0  0  0  0
   12.2908    1.7945   23.6793 C   0  0  0  0  0  0  0  0  0  0  0  0
   11.0326    2.3683   23.5928 C   0  0  0  0  0  0  0  0  0  0  0  0
   10.1735    1.8918   22.6073 C   0  0  0  0  0  0  0  0  0  0  0  0
    8.9455    2.4344   22.5672 O   0  0  0  0  0  0  0  0  0  0  0  0
    8.4362    1.9475   21.9104 H   0  0  0  0  0  0  0  0  0  0  0  0
   10.6659    3.1443   24.2574 H   0  0  0  0  0  0  0  0  0  0  0  0
   13.0066    2.1229   24.4320 H   0  0  0  0  0  0  0  0  0  0  0  0
   12.2144   -0.4544   21.3161 H   0  0  0  0  0  0  0  0  0  0  0  0
   10.1634   -0.4336   20.0544 H   0  0  0  0  0  0  0  0  0  0  0  0
    9.1407    1.0008   20.0962 H   0  0  0  0  0  0  0  0  0  0  0  0
    8.8099   -1.4737   22.3220 N   0  0  0  0  0  0  0  0  0  0  0  0
    6.9778   -2.5949   24.5052 H   0  0  0  0  0  0  0  0  0  0  0  0
    9.2283   -4.1824   23.0505 H   0  0  0  0  0  0  0  0  0  0  0  0
    8.6707   -4.4921   24.7596 H   0  0  0  0  0  0  0  0  0  0  0  0
    6.9032   -5.8754   21.6135 H   0  0  0  0  0  0  0  0  0  0  0  0
    5.8749   -4.4321   21.4031 H   0  0  0  0  0  0  0  0  0  0  0  0
    7.6186   -4.3055   21.1711 H   0  0  0  0  0  0  0  0  0  0  0  0
  1  2  1  0
  2  3  1  0
  3  4  1  0
  3  5  1  0
  3  6  1  0
  2  7  1  0
  7  8  1  0
  8  9  1  0
  9 10  2  0
 10 11  1  0
 11 12  1  0
 12 13  2  0
 13 14  1  0
 14 15  2  0
 15 16  1  0
 16 17  2  0
 17 18  1  0
 15 19  1  0
 14 20  1  0
 13 21  1  0
 11 22  1  0
 22 23  1  0
 23 24  1  0
 24 25  2  0
 25 26  1  0
 26 27  2  0
 27 28  1  0
 28 29  2  0
 29 30  1  0
 30 31  1  0
 28 32  1  0
 27 33  1  0
 25 34  1  0
 23 35  1  0
 23 36  1  0
 22 37  2  0
  8 38  1  0
  7 39  1  0
  7 40  1  0
  1 41  1  0
  1 42  1  0
  1 43  1  0
  8  2  1  0
 37  9  1  0
 17 12  1  0
 29 24  1  0
M  END
>  <cnnaffinity>  (1) 
-6.18693

>  <filename>  (1) 
CC1(C)CC1c1nc(Cc2cnccc2O)n(-c2cccnc2)n1

$$$$
