
     RDKit          3D

 50 53  0  0  0  0  0  0  0  0999 V2000
    8.0251   -5.9504   22.0090 C   0  0  0  0  0  0  0  0  0  0  0  0
    7.5822   -4.6380   22.6308 C   0  0  0  0  0  0  0  0  0  0  0  0
    6.1089   -4.3138   22.4318 C   0  0  0  0  0  0  0  0  0  0  0  0
    5.8571   -3.3529   22.8964 H   0  0  0  0  0  0  0  0  0  0  0  0
    5.8760   -4.2306   21.3617 H   0  0  0  0  0  0  0  0  0  0  0  0
    5.4708   -5.0890   22.8695 H   0  0  0  0  0  0  0  0  0  0  0  0
    8.2222   -4.1500   23.9056 C   0  0  0  0  0  0  0  0  0  0  0  0
    8.5418   -3.4730   22.5845 C   0  0  0  0  0  0  0  0  0  0  0  0
    8.0766   -2.1319   22.1425 C   0  0  0  0  0  0  0  0  0  0  0  0
    7.5446   -1.9077   20.9485 N   0  0  0  0  0  0  0  0  0  0  0  0
    7.2323   -0.5845   21.0060 N   0  0  0  0  0  0  0  0  0  0  0  0
    6.5518    0.0413   19.9287 C   0  0  0  0  0  0  0  0  0  0  0  0
    5.3687    0.7715   20.1078 C   0  0  0  0  0  0  0  0  0  0  0  0
    4.8078    1.3982   18.9862 C   0  0  0  0  0  0  0  0  0  0  0  0
    5.4595    1.2795   17.7537 C   0  0  0  0  0  0  0  0  0  0  0  0
    6.5675    0.5386   17.5721 N   0  0  0  0  0  0  0  0  0  0  0  0
    7.0836   -0.0840   18.6356 C   0  0  0  0  0  0  0  0  0  0  0  0
    7.9639   -0.7014   18.4753 H   0  0  0  0  0  0  0  0  0  0  0  0
    5.0896    1.8057   16.8755 H   0  0  0  0  0  0  0  0  0  0  0  0
    3.9011    1.9914   19.0627 H   0  0  0  0  0  0  0  0  0  0  0  0
    4.8906    0.8285   21.0899 H   0  0  0  0  0  0  0  0  0  0  0  0
    7.6644   -0.0754   22.1941 C   0  0  0  0  0  0  0  0  0  0  0  0
    7.6311    1.3743   22.6135 C   0  0  0  0  0  0  0  0  0  0  0  0
    7.1131    1.5844   23.9786 N   0  0  0  0  0  0  0  0  0  0  0  0
    5.7254    1.1191   24.1733 C   0  0  0  0  0  0  0  0  0  0  0  0
    5.1546    1.5536   25.5211 C   0  0  0  0  0  0  0  0  0  0  0  0
    6.0894    1.1392   26.6629 C   0  0  0  0  0  0  0  0  0  0  0  0
    7.5279    1.6280   26.4123 C   0  0  0  0  0  0  0  0  0  0  0  0
    7.7817    3.1060   26.6488 C   0  0  0  0  0  0  0  0  0  0  0  0
    9.0632    3.4330   26.4387 F   0  0  0  0  0  0  0  0  0  0  0  0
    7.0401    3.8986   25.8526 F   0  0  0  0  0  0  0  0  0  0  0  0
    7.4847    3.4387   27.9195 F   0  0  0  0  0  0  0  0  0  0  0  0
    8.0314    1.4051   25.0066 C   0  0  0  0  0  0  0  0  0  0  0  0
    9.2079    1.1592   24.8184 O   0  0  0  0  0  0  0  0  0  0  0  0
    8.2420    1.1165   27.0603 H   0  0  0  0  0  0  0  0  0  0  0  0
    6.1118    0.0415   26.7378 H   0  0  0  0  0  0  0  0  0  0  0  0
    5.7204    1.5008   27.6296 H   0  0  0  0  0  0  0  0  0  0  0  0
    4.1695    1.0918   25.6598 H   0  0  0  0  0  0  0  0  0  0  0  0
    4.9923    2.6357   25.5171 H   0  0  0  0  0  0  0  0  0  0  0  0
    5.1115    1.5256   23.3583 H   0  0  0  0  0  0  0  0  0  0  0  0
    5.7168    0.0187   24.0796 H   0  0  0  0  0  0  0  0  0  0  0  0
    7.0601    1.9795   21.9045 H   0  0  0  0  0  0  0  0  0  0  0  0
    8.6654    1.7344   22.6086 H   0  0  0  0  0  0  0  0  0  0  0  0
    8.1968   -1.0404   22.9224 N   0  0  0  0  0  0  0  0  0  0  0  0
    9.5637   -3.6277   22.2563 H   0  0  0  0  0  0  0  0  0  0  0  0
    7.5923   -3.6484   24.6392 H   0  0  0  0  0  0  0  0  0  0  0  0
    9.0060   -4.7693   24.3514 H   0  0  0  0  0  0  0  0  0  0  0  0
    9.1067   -6.1079   22.0819 H   0  0  0  0  0  0  0  0  0  0  0  0
    7.7576   -5.9762   20.9438 H   0  0  0  0  0  0  0  0  0  0  0  0
    7.5293   -6.8004   22.4970 H   0  0  0  0  0  0  0  0  0  0  0  0
  1  2  1  0
  2  3  1  0
  3  4  1  0
  3  5  1  0
  3  6  1  0
  2  7  1  0
  7  8  1  0
  8  9  1  0
  9 10  2  0
 10 11  1  0
 11 12  1  0
 12 13  2  0
 13 14  1  0
 14 15  2  0
 15 16  1  0
 16 17  2  0
 17 18  1  0
 15 19  1  0
 14 20  1  0
 13 21  1  0
 11 22  1  0
 22 23  1  0
 23 24  1  0
 24 25  1  0
 25 26  1  0
 26 27  1  0
 27 28  1  0
 28 29  1  0
 29 30  1  0
 29 31  1  0
 29 32  1  0
 28 33  1  0
 33 34  2  0
 28 35  1  0
 27 36  1  0
 27 37  1  0
 26 38  1  0
 26 39  1  0
 25 40  1  0
 25 41  1  0
 23 42  1  0
 23 43  1  0
 22 44  2  0
  8 45  1  0
  7 46  1  0
  7 47  1  0
  1 48  1  0
  1 49  1  0
  1 50  1  0
  8  2  1  0
 44  9  1  0
 17 12  1  0
 33 24  1  0
M  END
>  <cnnaffinity>  (1) 
-6.16655

>  <filename>  (1) 
CC1(C)CC1c1nc(CN2CCCC(C(F)(F)F)C2=O)n(-c2cccnc2)n1

$$$$
