
     RDKit          3D

 42 45  0  0  0  0  0  0  0  0999 V2000
    6.0730   -4.1865   22.2618 C   0  0  0  0  0  0  0  0  0  0  0  0
    7.5271   -4.5680   22.4956 C   0  0  0  0  0  0  0  0  0  0  0  0
    7.9954   -5.8423   21.8223 C   0  0  0  0  0  0  0  0  0  0  0  0
    7.2717   -6.6504   21.9558 H   0  0  0  0  0  0  0  0  0  0  0  0
    8.1510   -5.6992   20.7456 H   0  0  0  0  0  0  0  0  0  0  0  0
    8.9404   -6.2009   22.2413 H   0  0  0  0  0  0  0  0  0  0  0  0
    8.1611   -4.1714   23.8062 C   0  0  0  0  0  0  0  0  0  0  0  0
    8.5238   -3.4326   22.5448 C   0  0  0  0  0  0  0  0  0  0  0  0
    8.0486   -2.0681   22.2284 C   0  0  0  0  0  0  0  0  0  0  0  0
    7.7244   -1.7355   20.9936 N   0  0  0  0  0  0  0  0  0  0  0  0
    7.2544   -0.4639   21.1388 N   0  0  0  0  0  0  0  0  0  0  0  0
    6.6070    0.1389   20.0304 C   0  0  0  0  0  0  0  0  0  0  0  0
    5.3950    0.8281   20.1515 C   0  0  0  0  0  0  0  0  0  0  0  0
    4.8500    1.3929   18.9933 C   0  0  0  0  0  0  0  0  0  0  0  0
    5.5237    1.2456   17.7748 C   0  0  0  0  0  0  0  0  0  0  0  0
    6.6566    0.5289   17.6474 N   0  0  0  0  0  0  0  0  0  0  0  0
    7.1651   -0.0288   18.7492 C   0  0  0  0  0  0  0  0  0  0  0  0
    8.0560   -0.6440   18.6368 H   0  0  0  0  0  0  0  0  0  0  0  0
    5.1410    1.7061   16.8659 H   0  0  0  0  0  0  0  0  0  0  0  0
    3.9199    1.9484   19.0307 H   0  0  0  0  0  0  0  0  0  0  0  0
    4.8851    0.8804   21.1155 H   0  0  0  0  0  0  0  0  0  0  0  0
    7.4190   -0.0827   22.4429 C   0  0  0  0  0  0  0  0  0  0  0  0
    7.2403    1.2710   23.0720 C   0  0  0  0  0  0  0  0  0  0  0  0
    8.5572    1.7929   23.6497 C   0  0  0  0  0  0  0  0  0  0  0  0
    8.8802    1.6789   25.0111 C   0  0  0  0  0  0  0  0  0  0  0  0
   10.0848    1.9284   25.5326 N   0  0  0  0  0  0  0  0  0  0  0  0
   11.0490    2.3298   24.6991 C   0  0  0  0  0  0  0  0  0  0  0  0
   10.8541    2.5402   23.3393 C   0  0  0  0  0  0  0  0  0  0  0  0
    9.5926    2.2454   22.8226 C   0  0  0  0  0  0  0  0  0  0  0  0
    9.3260    2.3760   21.1173 Cl  0  0  0  0  0  0  0  0  0  0  0  0
   11.6580    2.9023   22.7103 H   0  0  0  0  0  0  0  0  0  0  0  0
   12.0246    2.4954   25.1507 H   0  0  0  0  0  0  0  0  0  0  0  0
    8.1188    1.3519   25.7201 H   0  0  0  0  0  0  0  0  0  0  0  0
    6.5231    1.1377   23.8870 H   0  0  0  0  0  0  0  0  0  0  0  0
    6.8249    1.9843   22.3548 H   0  0  0  0  0  0  0  0  0  0  0  0
    7.8854   -1.0965   23.1490 N   0  0  0  0  0  0  0  0  0  0  0  0
    9.5202   -3.5868   22.1575 H   0  0  0  0  0  0  0  0  0  0  0  0
    7.5656   -3.6542   24.5588 H   0  0  0  0  0  0  0  0  0  0  0  0
    8.8975   -4.8619   24.2174 H   0  0  0  0  0  0  0  0  0  0  0  0
    5.8382   -3.2433   22.7692 H   0  0  0  0  0  0  0  0  0  0  0  0
    5.8881   -4.0190   21.1926 H   0  0  0  0  0  0  0  0  0  0  0  0
    5.3830   -4.9512   22.6389 H   0  0  0  0  0  0  0  0  0  0  0  0
  1  2  1  0
  2  3  1  0
  3  4  1  0
  3  5  1  0
  3  6  1  0
  2  7  1  0
  7  8  1  0
  8  9  1  0
  9 10  2  0
 10 11  1  0
 11 12  1  0
 12 13  2  0
 13 14  1  0
 14 15  2  0
 15 16  1  0
 16 17  2  0
 17 18  1  0
 15 19  1  0
 14 20  1  0
 13 21  1  0
 11 22  1  0
 22 23  1  0
 23 24  1  0
 24 25  2  0
 25 26  1  0
 26 27  2  0
 27 28  1  0
 28 29  2  0
 29 30  1  0
 28 31  1  0
 27 32  1  0
 25 33  1  0
 23 34  1  0
 23 35  1  0
 22 36  2  0
  8 37  1  0
  7 38  1  0
  7 39  1  0
  1 40  1  0
  1 41  1  0
  1 42  1  0
  8  2  1  0
 36  9  1  0
 17 12  1  0
 29 24  1  0
M  END
>  <cnnaffinity>  (1) 
-6.16611

>  <filename>  (1) 
CC1(C)CC1c1nc(Cc2cnccc2Cl)n(-c2cccnc2)n1

$$$$
