
     RDKit          3D

 43 46  0  0  0  0  0  0  0  0999 V2000
    8.2448   -4.7216   25.2410 C   0  0  0  0  0  0  0  0  0  0  0  0
    7.7255   -4.2500   23.9001 C   0  0  0  0  0  0  0  0  0  0  0  0
    8.7129   -4.4904   22.7683 C   0  0  0  0  0  0  0  0  0  0  0  0
    8.8568   -5.5593   22.5752 H   0  0  0  0  0  0  0  0  0  0  0  0
    9.6775   -4.0424   23.0443 H   0  0  0  0  0  0  0  0  0  0  0  0
    8.4066   -4.0056   21.8334 H   0  0  0  0  0  0  0  0  0  0  0  0
    6.2507   -4.2491   23.6066 C   0  0  0  0  0  0  0  0  0  0  0  0
    6.9514   -2.9470   23.8965 C   0  0  0  0  0  0  0  0  0  0  0  0
    7.2927   -1.9551   22.8513 C   0  0  0  0  0  0  0  0  0  0  0  0
    6.6453   -1.7446   21.7276 N   0  0  0  0  0  0  0  0  0  0  0  0
    7.4083   -0.7907   21.1036 N   0  0  0  0  0  0  0  0  0  0  0  0
    6.8036   -0.0826   20.0051 C   0  0  0  0  0  0  0  0  0  0  0  0
    5.5963    0.6014   20.2220 C   0  0  0  0  0  0  0  0  0  0  0  0
    5.0040    1.2673   19.1498 C   0  0  0  0  0  0  0  0  0  0  0  0
    5.6186    1.2192   17.8956 C   0  0  0  0  0  0  0  0  0  0  0  0
    6.7561    0.5439   17.6694 N   0  0  0  0  0  0  0  0  0  0  0  0
    7.3293   -0.0905   18.7028 C   0  0  0  0  0  0  0  0  0  0  0  0
    8.2373   -0.6479   18.4741 H   0  0  0  0  0  0  0  0  0  0  0  0
    5.1848    1.7472   17.0484 H   0  0  0  0  0  0  0  0  0  0  0  0
    4.0790    1.8196   19.2759 H   0  0  0  0  0  0  0  0  0  0  0  0
    5.1306    0.5738   21.2082 H   0  0  0  0  0  0  0  0  0  0  0  0
    8.4874   -0.5154   21.9140 C   0  0  0  0  0  0  0  0  0  0  0  0
    9.6085    0.4415   21.6834 C   0  0  0  0  0  0  0  0  0  0  0  0
    9.1252    1.8041   22.0156 C   0  0  0  0  0  0  0  0  0  0  0  0
    9.1653    2.2874   23.2322 N   0  0  0  0  0  0  0  0  0  0  0  0
    8.4849    3.4546   23.1884 N   0  0  0  0  0  0  0  0  0  0  0  0
    8.2702    4.1432   24.4287 C   0  0  0  0  0  0  0  0  0  0  0  0
    6.9411    4.2062   24.7112 F   0  0  0  0  0  0  0  0  0  0  0  0
    8.7245    5.4215   24.3669 F   0  0  0  0  0  0  0  0  0  0  0  0
    8.7965    3.5666   25.1927 H   0  0  0  0  0  0  0  0  0  0  0  0
    7.9734    3.6859   21.9402 C   0  0  0  0  0  0  0  0  0  0  0  0
    8.3885    2.6370   21.1622 C   0  0  0  0  0  0  0  0  0  0  0  0
    8.1883    2.3829   20.1351 H   0  0  0  0  0  0  0  0  0  0  0  0
    7.3622    4.5533   21.7182 H   0  0  0  0  0  0  0  0  0  0  0  0
   10.4303    0.1721   22.3514 H   0  0  0  0  0  0  0  0  0  0  0  0
    9.9493    0.3866   20.6520 H   0  0  0  0  0  0  0  0  0  0  0  0
    8.4162   -1.2143   23.0164 N   0  0  0  0  0  0  0  0  0  0  0  0
    6.7962   -2.4648   24.8620 H   0  0  0  0  0  0  0  0  0  0  0  0
    5.9371   -4.4213   22.5764 H   0  0  0  0  0  0  0  0  0  0  0  0
    5.5710   -4.6446   24.3647 H   0  0  0  0  0  0  0  0  0  0  0  0
    9.1624   -4.1677   25.4833 H   0  0  0  0  0  0  0  0  0  0  0  0
    8.4837   -5.7900   25.2082 H   0  0  0  0  0  0  0  0  0  0  0  0
    7.5322   -4.5585   26.0571 H   0  0  0  0  0  0  0  0  0  0  0  0
  1  2  1  0
  2  3  1  0
  3  4  1  0
  3  5  1  0
  3  6  1  0
  2  7  1  0
  7  8  1  0
  8  9  1  0
  9 10  2  0
 10 11  1  0
 11 12  1  0
 12 13  2  0
 13 14  1  0
 14 15  2  0
 15 16  1  0
 16 17  2  0
 17 18  1  0
 15 19  1  0
 14 20  1  0
 13 21  1  0
 11 22  1  0
 22 23  1  0
 23 24  1  0
 24 25  2  0
 25 26  1  0
 26 27  1  0
 27 28  1  0
 27 29  1  0
 27 30  1  0
 26 31  1  0
 31 32  2  0
 32 33  1  0
 31 34  1  0
 23 35  1  0
 23 36  1  0
 22 37  2  0
  8 38  1  0
  7 39  1  0
  7 40  1  0
  1 41  1  0
  1 42  1  0
  1 43  1  0
  8  2  1  0
 37  9  1  0
 17 12  1  0
 32 24  1  0
M  END
>  <cnnaffinity>  (1) 
-6.03666

>  <filename>  (1) 
CC1(C)CC1c1nc(Cc2ccn(C(F)F)n2)n(-c2cccnc2)n1

$$$$
