
     RDKit          3D

 47 50  0  0  0  0  0  0  0  0999 V2000
    8.7866   -4.4236   22.7240 C   0  0  0  0  0  0  0  0  0  0  0  0
    7.7827   -4.1481   23.8315 C   0  0  0  0  0  0  0  0  0  0  0  0
    8.2410   -4.6710   25.1758 C   0  0  0  0  0  0  0  0  0  0  0  0
    7.5033   -4.4928   25.9655 H   0  0  0  0  0  0  0  0  0  0  0  0
    8.4386   -5.7475   25.1193 H   0  0  0  0  0  0  0  0  0  0  0  0
    9.1796   -4.1817   25.4707 H   0  0  0  0  0  0  0  0  0  0  0  0
    6.3059   -4.0721   23.5378 C   0  0  0  0  0  0  0  0  0  0  0  0
    7.0737   -2.8051   23.8198 C   0  0  0  0  0  0  0  0  0  0  0  0
    7.3752   -1.8399   22.7289 C   0  0  0  0  0  0  0  0  0  0  0  0
    6.5807   -1.6075   21.7026 N   0  0  0  0  0  0  0  0  0  0  0  0
    7.2793   -0.6996   20.9674 N   0  0  0  0  0  0  0  0  0  0  0  0
    6.6368   -0.0259   19.8881 C   0  0  0  0  0  0  0  0  0  0  0  0
    5.4281    0.6465   20.1175 C   0  0  0  0  0  0  0  0  0  0  0  0
    4.8427    1.3367   19.0526 C   0  0  0  0  0  0  0  0  0  0  0  0
    5.4671    1.3156   17.7999 C   0  0  0  0  0  0  0  0  0  0  0  0
    6.6043    0.6428   17.5651 N   0  0  0  0  0  0  0  0  0  0  0  0
    7.1678   -0.0153   18.5874 C   0  0  0  0  0  0  0  0  0  0  0  0
    8.0821   -0.5615   18.3614 H   0  0  0  0  0  0  0  0  0  0  0  0
    5.0388    1.8488   16.9530 H   0  0  0  0  0  0  0  0  0  0  0  0
    3.9184    1.8914   19.1794 H   0  0  0  0  0  0  0  0  0  0  0  0
    4.9796    0.6218   21.1112 H   0  0  0  0  0  0  0  0  0  0  0  0
    8.4539   -0.4279   21.6175 C   0  0  0  0  0  0  0  0  0  0  0  0
    9.4396    0.5743   21.1339 C   0  0  0  0  0  0  0  0  0  0  0  0
    9.0271    1.9933   21.5033 C   0  0  0  0  0  0  0  0  0  0  0  0
    9.0463    2.0106   22.9225 O   0  0  0  0  0  0  0  0  0  0  0  0
    8.6165    3.0823   23.6345 C   0  0  0  0  0  0  0  0  0  0  0  0
    8.6019    2.8961   25.0292 C   0  0  0  0  0  0  0  0  0  0  0  0
    8.1856    3.9349   25.8609 C   0  0  0  0  0  0  0  0  0  0  0  0
    7.7787    5.1620   25.3166 C   0  0  0  0  0  0  0  0  0  0  0  0
    7.7979    5.3368   23.9327 C   0  0  0  0  0  0  0  0  0  0  0  0
    8.2180    4.3054   23.0816 C   0  0  0  0  0  0  0  0  0  0  0  0
    8.2433    4.4431   22.0031 H   0  0  0  0  0  0  0  0  0  0  0  0
    7.4793    6.2827   23.4970 H   0  0  0  0  0  0  0  0  0  0  0  0
    7.4477    5.9669   25.9708 H   0  0  0  0  0  0  0  0  0  0  0  0
    8.1743    3.7854   26.9374 H   0  0  0  0  0  0  0  0  0  0  0  0
    8.9160    1.9331   25.4239 H   0  0  0  0  0  0  0  0  0  0  0  0
    8.0256    2.2255   21.1108 H   0  0  0  0  0  0  0  0  0  0  0  0
    9.7369    2.7249   21.0938 H   0  0  0  0  0  0  0  0  0  0  0  0
    9.5810    0.4746   20.0577 H   0  0  0  0  0  0  0  0  0  0  0  0
   10.3890    0.3462   21.6162 H   0  0  0  0  0  0  0  0  0  0  0  0
    8.5342   -1.1292   22.7264 N   0  0  0  0  0  0  0  0  0  0  0  0
    6.9039   -2.3171   24.7812 H   0  0  0  0  0  0  0  0  0  0  0  0
    5.5992   -4.4210   24.2916 H   0  0  0  0  0  0  0  0  0  0  0  0
    5.9719   -4.2283   22.5126 H   0  0  0  0  0  0  0  0  0  0  0  0
    8.5110   -3.9142   21.7921 H   0  0  0  0  0  0  0  0  0  0  0  0
    8.8749   -5.4980   22.5137 H   0  0  0  0  0  0  0  0  0  0  0  0
    9.7686   -4.0321   23.0416 H   0  0  0  0  0  0  0  0  0  0  0  0
  1  2  1  0
  2  3  1  0
  3  4  1  0
  3  5  1  0
  3  6  1  0
  2  7  1  0
  7  8  1  0
  8  9  1  0
  9 10  2  0
 10 11  1  0
 11 12  1  0
 12 13  2  0
 13 14  1  0
 14 15  2  0
 15 16  1  0
 16 17  2  0
 17 18  1  0
 15 19  1  0
 14 20  1  0
 13 21  1  0
 11 22  1  0
 22 23  1  0
 23 24  1  0
 24 25  1  0
 25 26  1  0
 26 27  2  0
 27 28  1  0
 28 29  2  0
 29 30  1  0
 30 31  2  0
 31 32  1  0
 30 33  1  0
 29 34  1  0
 28 35  1  0
 27 36  1  0
 24 37  1  0
 24 38  1  0
 23 39  1  0
 23 40  1  0
 22 41  2  0
  8 42  1  0
  7 43  1  0
  7 44  1  0
  1 45  1  0
  1 46  1  0
  1 47  1  0
  8  2  1  0
 41  9  1  0
 17 12  1  0
 31 26  1  0
M  END
>  <cnnaffinity>  (1) 
-6.099

>  <filename>  (1) 
CC1(C)CC1c1nc(CCOc2ccccc2)n(-c2cccnc2)n1

$$$$
