
     RDKit          3D

 42 45  0  0  0  0  0  0  0  0999 V2000
    6.4384   -5.2894   24.0390 C   0  0  0  0  0  0  0  0  0  0  0  0
    7.4073   -4.4773   23.2002 C   0  0  0  0  0  0  0  0  0  0  0  0
    7.4404   -4.8063   21.7072 C   0  0  0  0  0  0  0  0  0  0  0  0
    8.1716   -4.1753   21.1932 H   0  0  0  0  0  0  0  0  0  0  0  0
    7.7119   -5.8545   21.5527 H   0  0  0  0  0  0  0  0  0  0  0  0
    6.4570   -4.6270   21.2625 H   0  0  0  0  0  0  0  0  0  0  0  0
    8.7003   -4.0169   23.8651 C   0  0  0  0  0  0  0  0  0  0  0  0
    7.5518   -3.0255   23.6143 C   0  0  0  0  0  0  0  0  0  0  0  0
    7.6840   -1.9798   22.5573 C   0  0  0  0  0  0  0  0  0  0  0  0
    6.7690   -1.7062   21.6566 N   0  0  0  0  0  0  0  0  0  0  0  0
    7.3339   -0.6966   20.9588 N   0  0  0  0  0  0  0  0  0  0  0  0
    6.6831   -0.0058   19.9265 C   0  0  0  0  0  0  0  0  0  0  0  0
    5.4518    0.6210   20.1466 C   0  0  0  0  0  0  0  0  0  0  0  0
    4.8529    1.2908   19.0775 C   0  0  0  0  0  0  0  0  0  0  0  0
    5.4740    1.3063   17.8245 C   0  0  0  0  0  0  0  0  0  0  0  0
    6.6484    0.6873   17.6026 N   0  0  0  0  0  0  0  0  0  0  0  0
    7.2353    0.0511   18.6361 C   0  0  0  0  0  0  0  0  0  0  0  0
    8.1811   -0.4520   18.4590 H   0  0  0  0  0  0  0  0  0  0  0  0
    4.9927    1.8339   17.0059 H   0  0  0  0  0  0  0  0  0  0  0  0
    3.9109    1.8117   19.2018 H   0  0  0  0  0  0  0  0  0  0  0  0
    4.9796    0.5987   21.1286 H   0  0  0  0  0  0  0  0  0  0  0  0
    8.5823   -0.4188   21.5128 C   0  0  0  0  0  0  0  0  0  0  0  0
    9.5170    0.6950   21.1894 C   0  0  0  0  0  0  0  0  0  0  0  0
    8.9972    1.8767   21.9431 C   0  0  0  0  0  0  0  0  0  0  0  0
    9.5538    2.2714   23.1558 C   0  0  0  0  0  0  0  0  0  0  0  0
    8.9696    3.3131   23.8801 C   0  0  0  0  0  0  0  0  0  0  0  0
    7.8564    3.9321   23.4657 N   0  0  0  0  0  0  0  0  0  0  0  0
    7.3183    3.5677   22.2877 C   0  0  0  0  0  0  0  0  0  0  0  0
    5.7227    4.4383   21.7223 Br  0  0  0  0  0  0  0  0  0  0  0  0
    7.8679    2.5496   21.4994 C   0  0  0  0  0  0  0  0  0  0  0  0
    7.3939    2.2550   20.5678 H   0  0  0  0  0  0  0  0  0  0  0  0
    9.4354    3.6415   24.8067 H   0  0  0  0  0  0  0  0  0  0  0  0
   10.4425    1.7841   23.5315 H   0  0  0  0  0  0  0  0  0  0  0  0
    9.5158    0.8961   20.1209 H   0  0  0  0  0  0  0  0  0  0  0  0
   10.5337    0.4307   21.4991 H   0  0  0  0  0  0  0  0  0  0  0  0
    8.8282   -1.2157   22.5032 N   0  0  0  0  0  0  0  0  0  0  0  0
    6.9819   -2.6833   24.4816 H   0  0  0  0  0  0  0  0  0  0  0  0
    8.8880   -4.3220   24.9000 H   0  0  0  0  0  0  0  0  0  0  0  0
    9.6008   -3.9310   23.2465 H   0  0  0  0  0  0  0  0  0  0  0  0
    5.4145   -5.1540   23.6800 H   0  0  0  0  0  0  0  0  0  0  0  0
    6.4867   -4.9841   25.0892 H   0  0  0  0  0  0  0  0  0  0  0  0
    6.6992   -6.3406   23.9637 H   0  0  0  0  0  0  0  0  0  0  0  0
  1  2  1  0
  2  3  1  0
  3  4  1  0
  3  5  1  0
  3  6  1  0
  2  7  1  0
  7  8  1  0
  8  9  1  0
  9 10  2  0
 10 11  1  0
 11 12  1  0
 12 13  2  0
 13 14  1  0
 14 15  2  0
 15 16  1  0
 16 17  2  0
 17 18  1  0
 15 19  1  0
 14 20  1  0
 13 21  1  0
 11 22  1  0
 22 23  1  0
 23 24  1  0
 24 25  2  0
 25 26  1  0
 26 27  2  0
 27 28  1  0
 28 29  1  0
 28 30  2  0
 30 31  1  0
 26 32  1  0
 25 33  1  0
 23 34  1  0
 23 35  1  0
 22 36  2  0
  8 37  1  0
  7 38  1  0
  7 39  1  0
  1 40  1  0
  1 41  1  0
  1 42  1  0
  8  2  1  0
 36  9  1  0
 17 12  1  0
 30 24  1  0
M  END
>  <cnnaffinity>  (1) 
-6.10058

>  <filename>  (1) 
CC1(C)CC1c1nc(Cc2ccnc(Br)c2)n(-c2cccnc2)n1

$$$$
