
     RDKit          3D

 42 45  0  0  0  0  0  0  0  0999 V2000
    8.2054   -4.9585   25.0815 C   0  0  0  0  0  0  0  0  0  0  0  0
    7.7227   -4.3211   23.7774 C   0  0  0  0  0  0  0  0  0  0  0  0
    8.6662   -4.5098   22.6062 C   0  0  0  0  0  0  0  0  0  0  0  0
    8.8677   -5.5666   22.4277 H   0  0  0  0  0  0  0  0  0  0  0  0
    8.2571   -4.0640   21.6951 H   0  0  0  0  0  0  0  0  0  0  0  0
    9.6033   -4.0077   22.8450 H   0  0  0  0  0  0  0  0  0  0  0  0
    6.2215   -4.2558   23.5121 C   0  0  0  0  0  0  0  0  0  0  0  0
    7.0150   -2.9704   23.7880 C   0  0  0  0  0  0  0  0  0  0  0  0
    7.3275   -1.9710   22.6961 C   0  0  0  0  0  0  0  0  0  0  0  0
    6.4444   -1.5768   21.8100 N   0  0  0  0  0  0  0  0  0  0  0  0
    7.1527   -0.7561   21.0021 N   0  0  0  0  0  0  0  0  0  0  0  0
    6.5844   -0.0433   19.9344 C   0  0  0  0  0  0  0  0  0  0  0  0
    5.3614    0.6059   20.1123 C   0  0  0  0  0  0  0  0  0  0  0  0
    4.8208    1.3037   19.0328 C   0  0  0  0  0  0  0  0  0  0  0  0
    5.4987    1.3353   17.8082 C   0  0  0  0  0  0  0  0  0  0  0  0
    6.6769    0.7097   17.6251 N   0  0  0  0  0  0  0  0  0  0  0  0
    7.2012    0.0433   18.6714 C   0  0  0  0  0  0  0  0  0  0  0  0
    8.1494   -0.4650   18.5237 H   0  0  0  0  0  0  0  0  0  0  0  0
    5.0441    1.8651   16.9754 H   0  0  0  0  0  0  0  0  0  0  0  0
    3.8769    1.8262   19.1350 H   0  0  0  0  0  0  0  0  0  0  0  0
    4.8665    0.5810   21.0832 H   0  0  0  0  0  0  0  0  0  0  0  0
    8.4730   -0.7029   21.4375 C   0  0  0  0  0  0  0  0  0  0  0  0
    9.5837    0.1052   20.7921 C   0  0  0  0  0  0  0  0  0  0  0  0
   10.4434    0.8646   21.7936 C   0  0  0  0  0  0  0  0  0  0  0  0
   11.7207    0.3852   22.0883 C   0  0  0  0  0  0  0  0  0  0  0  0
   12.4466    1.0229   23.0889 C   0  0  0  0  0  0  0  0  0  0  0  0
   11.8949    2.1142   23.7589 C   0  0  0  0  0  0  0  0  0  0  0  0
   10.6970    2.6196   23.4436 N   0  0  0  0  0  0  0  0  0  0  0  0
    9.9848    2.0191   22.4728 C   0  0  0  0  0  0  0  0  0  0  0  0
    8.2822    2.7638   22.0313 Br  0  0  0  0  0  0  0  0  0  0  0  0
   12.4461    2.5594   24.5746 H   0  0  0  0  0  0  0  0  0  0  0  0
   13.4315    0.6714   23.3660 H   0  0  0  0  0  0  0  0  0  0  0  0
   12.1308   -0.4760   21.5620 H   0  0  0  0  0  0  0  0  0  0  0  0
    9.1520    0.8062   20.0713 H   0  0  0  0  0  0  0  0  0  0  0  0
   10.2194   -0.5995   20.2466 H   0  0  0  0  0  0  0  0  0  0  0  0
    8.6064   -1.4675   22.4899 N   0  0  0  0  0  0  0  0  0  0  0  0
    6.8213   -2.5078   24.7546 H   0  0  0  0  0  0  0  0  0  0  0  0
    5.5470   -4.5968   24.3054 H   0  0  0  0  0  0  0  0  0  0  0  0
    5.8623   -4.4353   22.4942 H   0  0  0  0  0  0  0  0  0  0  0  0
    8.2576   -6.0488   24.9825 H   0  0  0  0  0  0  0  0  0  0  0  0
    7.5293   -4.7061   25.9014 H   0  0  0  0  0  0  0  0  0  0  0  0
    9.2069   -4.6042   25.3374 H   0  0  0  0  0  0  0  0  0  0  0  0
  1  2  1  0
  2  3  1  0
  3  4  1  0
  3  5  1  0
  3  6  1  0
  2  7  1  0
  7  8  1  0
  8  9  1  0
  9 10  2  0
 10 11  1  0
 11 12  1  0
 12 13  2  0
 13 14  1  0
 14 15  2  0
 15 16  1  0
 16 17  2  0
 17 18  1  0
 15 19  1  0
 14 20  1  0
 13 21  1  0
 11 22  1  0
 22 23  1  0
 23 24  1  0
 24 25  2  0
 25 26  1  0
 26 27  2  0
 27 28  1  0
 28 29  2  0
 29 30  1  0
 27 31  1  0
 26 32  1  0
 25 33  1  0
 23 34  1  0
 23 35  1  0
 22 36  2  0
  8 37  1  0
  7 38  1  0
  7 39  1  0
  1 40  1  0
  1 41  1  0
  1 42  1  0
  8  2  1  0
 36  9  1  0
 17 12  1  0
 29 24  1  0
M  END
>  <cnnaffinity>  (1) 
-6.34005

>  <filename>  (1) 
CC1(C)CC1c1nc(Cc2cccnc2Br)n(-c2cccnc2)n1

$$$$
