
     RDKit          3D

 45 48  0  0  0  0  0  0  0  0999 V2000
    6.0260   -4.1335   22.5731 C   0  0  0  0  0  0  0  0  0  0  0  0
    7.4857   -4.5497   22.6630 C   0  0  0  0  0  0  0  0  0  0  0  0
    7.8689   -5.8543   21.9879 C   0  0  0  0  0  0  0  0  0  0  0  0
    7.3191   -6.7077   22.4047 H   0  0  0  0  0  0  0  0  0  0  0  0
    8.9411   -6.0416   22.1271 H   0  0  0  0  0  0  0  0  0  0  0  0
    7.6724   -5.8276   20.9085 H   0  0  0  0  0  0  0  0  0  0  0  0
    8.2542   -4.1536   23.8982 C   0  0  0  0  0  0  0  0  0  0  0  0
    8.5187   -3.4397   22.5988 C   0  0  0  0  0  0  0  0  0  0  0  0
    8.0836   -2.0607   22.2768 C   0  0  0  0  0  0  0  0  0  0  0  0
    7.6763   -1.8040   21.0460 N   0  0  0  0  0  0  0  0  0  0  0  0
    7.3124   -0.4987   21.1129 N   0  0  0  0  0  0  0  0  0  0  0  0
    6.6643    0.0956   19.9953 C   0  0  0  0  0  0  0  0  0  0  0  0
    5.4891    0.8412   20.1374 C   0  0  0  0  0  0  0  0  0  0  0  0
    4.9410    1.4284   18.9901 C   0  0  0  0  0  0  0  0  0  0  0  0
    5.5751    1.2377   17.7596 C   0  0  0  0  0  0  0  0  0  0  0  0
    6.6755    0.4804   17.6125 N   0  0  0  0  0  0  0  0  0  0  0  0
    7.1928   -0.0955   18.7048 C   0  0  0  0  0  0  0  0  0  0  0  0
    8.0647   -0.7295   18.5601 H   0  0  0  0  0  0  0  0  0  0  0  0
    5.1813    1.6945   16.8530 H   0  0  0  0  0  0  0  0  0  0  0  0
    4.0429    2.0307   19.0443 H   0  0  0  0  0  0  0  0  0  0  0  0
    4.9976    0.9276   21.1057 H   0  0  0  0  0  0  0  0  0  0  0  0
    7.5880   -0.0237   22.3651 C   0  0  0  0  0  0  0  0  0  0  0  0
    7.5031    1.4184   22.7575 C   0  0  0  0  0  0  0  0  0  0  0  0
    8.4093    2.3482   21.9104 C   0  0  0  0  0  0  0  0  0  0  0  0
    8.3939    3.7828   22.3938 C   0  0  0  0  0  0  0  0  0  0  0  0
    9.4708    4.3256   23.1233 C   0  0  0  0  0  0  0  0  0  0  0  0
    9.3600    5.6357   23.5800 C   0  0  0  0  0  0  0  0  0  0  0  0
   10.3603    6.1893   24.2808 F   0  0  0  0  0  0  0  0  0  0  0  0
    8.2089    6.3859   23.3040 C   0  0  0  0  0  0  0  0  0  0  0  0
    7.1953    5.8891   22.5856 N   0  0  0  0  0  0  0  0  0  0  0  0
    7.2909    4.6247   22.1435 C   0  0  0  0  0  0  0  0  0  0  0  0
    6.4573    4.2702   21.5324 H   0  0  0  0  0  0  0  0  0  0  0  0
    8.1205    7.4026   23.6848 H   0  0  0  0  0  0  0  0  0  0  0  0
   10.3767    3.7586   23.3419 H   0  0  0  0  0  0  0  0  0  0  0  0
    8.0801    2.2967   20.8635 H   0  0  0  0  0  0  0  0  0  0  0  0
    9.4397    1.9666   21.9306 H   0  0  0  0  0  0  0  0  0  0  0  0
    7.7802    1.4756   23.8135 H   0  0  0  0  0  0  0  0  0  0  0  0
    6.4606    1.7501   22.6902 H   0  0  0  0  0  0  0  0  0  0  0  0
    8.0588   -0.9994   23.1214 N   0  0  0  0  0  0  0  0  0  0  0  0
    9.4558   -3.6552   22.1050 H   0  0  0  0  0  0  0  0  0  0  0  0
    9.0218   -4.8480   24.2355 H   0  0  0  0  0  0  0  0  0  0  0  0
    7.7420   -3.6207   24.6979 H   0  0  0  0  0  0  0  0  0  0  0  0
    5.8561   -3.1846   23.0999 H   0  0  0  0  0  0  0  0  0  0  0  0
    5.3604   -4.8891   23.0048 H   0  0  0  0  0  0  0  0  0  0  0  0
    5.7363   -3.9688   21.5286 H   0  0  0  0  0  0  0  0  0  0  0  0
  1  2  1  0
  2  3  1  0
  3  4  1  0
  3  5  1  0
  3  6  1  0
  2  7  1  0
  7  8  1  0
  8  9  1  0
  9 10  2  0
 10 11  1  0
 11 12  1  0
 12 13  2  0
 13 14  1  0
 14 15  2  0
 15 16  1  0
 16 17  2  0
 17 18  1  0
 15 19  1  0
 14 20  1  0
 13 21  1  0
 11 22  1  0
 22 23  1  0
 23 24  1  0
 24 25  1  0
 25 26  2  0
 26 27  1  0
 27 28  1  0
 27 29  2  0
 29 30  1  0
 30 31  2  0
 31 32  1  0
 29 33  1  0
 26 34  1  0
 24 35  1  0
 24 36  1  0
 23 37  1  0
 23 38  1  0
 22 39  2  0
  8 40  1  0
  7 41  1  0
  7 42  1  0
  1 43  1  0
  1 44  1  0
  1 45  1  0
  8  2  1  0
 39  9  1  0
 17 12  1  0
 31 25  1  0
M  END
>  <cnnaffinity>  (1) 
-6.14094

>  <filename>  (1) 
CC1(C)CC1c1nc(CCc2cncc(F)c2)n(-c2cccnc2)n1

$$$$
