
     RDKit          3D

 50 53  0  0  0  0  0  0  0  0999 V2000
    6.8487   -4.7817   21.8817 C   0  0  0  0  0  0  0  0  0  0  0  0
    7.0122   -4.4162   23.3427 C   0  0  0  0  0  0  0  0  0  0  0  0
    6.0367   -5.0904   24.2862 C   0  0  0  0  0  0  0  0  0  0  0  0
    5.0032   -4.8625   24.0038 H   0  0  0  0  0  0  0  0  0  0  0  0
    6.1757   -4.7509   25.3184 H   0  0  0  0  0  0  0  0  0  0  0  0
    6.1539   -6.1793   24.2787 H   0  0  0  0  0  0  0  0  0  0  0  0
    8.3858   -4.0882   23.8654 C   0  0  0  0  0  0  0  0  0  0  0  0
    7.3670   -2.9862   23.6686 C   0  0  0  0  0  0  0  0  0  0  0  0
    7.5733   -1.9748   22.6063 C   0  0  0  0  0  0  0  0  0  0  0  0
    6.6525   -1.5819   21.7429 N   0  0  0  0  0  0  0  0  0  0  0  0
    7.3237   -0.6889   20.9650 N   0  0  0  0  0  0  0  0  0  0  0  0
    6.6536   -0.0110   19.9038 C   0  0  0  0  0  0  0  0  0  0  0  0
    5.4373    0.6350   20.1539 C   0  0  0  0  0  0  0  0  0  0  0  0
    4.8132    1.3085   19.1013 C   0  0  0  0  0  0  0  0  0  0  0  0
    5.4114    1.2958   17.8361 C   0  0  0  0  0  0  0  0  0  0  0  0
    6.5614    0.6544   17.5787 N   0  0  0  0  0  0  0  0  0  0  0  0
    7.1657    0.0222   18.5921 C   0  0  0  0  0  0  0  0  0  0  0  0
    8.1001   -0.4825   18.3439 H   0  0  0  0  0  0  0  0  0  0  0  0
    4.9487    1.8163   17.0005 H   0  0  0  0  0  0  0  0  0  0  0  0
    3.8814    1.8430   19.2542 H   0  0  0  0  0  0  0  0  0  0  0  0
    5.0095    0.5960   21.1552 H   0  0  0  0  0  0  0  0  0  0  0  0
    8.6037   -0.5810   21.4324 C   0  0  0  0  0  0  0  0  0  0  0  0
    9.6793    0.1996   20.7356 C   0  0  0  0  0  0  0  0  0  0  0  0
   10.7900    0.6626   21.5732 N   0  0  0  0  0  0  0  0  0  0  0  0
   10.4362    1.6702   22.5784 C   0  0  0  0  0  0  0  0  0  0  0  0
   11.6766    2.3799   23.1431 C   0  0  0  0  0  0  0  0  0  0  0  0
   12.2788    3.3558   22.1150 C   0  0  0  0  0  0  0  0  0  0  0  0
   11.6000    4.5242   22.1185 F   0  0  0  0  0  0  0  0  0  0  0  0
   13.5578    3.6721   22.4158 F   0  0  0  0  0  0  0  0  0  0  0  0
   12.2625    2.8967   20.8571 F   0  0  0  0  0  0  0  0  0  0  0  0
   12.6748    1.3427   23.6889 C   0  0  0  0  0  0  0  0  0  0  0  0
   13.0284    0.3261   22.6049 C   0  0  0  0  0  0  0  0  0  0  0  0
   11.8874   -0.1749   21.7389 C   0  0  0  0  0  0  0  0  0  0  0  0
   11.9961   -1.2401   21.1556 O   0  0  0  0  0  0  0  0  0  0  0  0
   13.7367    0.7643   21.8994 H   0  0  0  0  0  0  0  0  0  0  0  0
   13.5080   -0.5701   22.9984 H   0  0  0  0  0  0  0  0  0  0  0  0
   12.2371    0.8529   24.5702 H   0  0  0  0  0  0  0  0  0  0  0  0
   13.5848    1.8392   24.0471 H   0  0  0  0  0  0  0  0  0  0  0  0
   11.3487    3.0254   23.9627 H   0  0  0  0  0  0  0  0  0  0  0  0
    9.7703    2.4049   22.1087 H   0  0  0  0  0  0  0  0  0  0  0  0
    9.8647    1.1823   23.3883 H   0  0  0  0  0  0  0  0  0  0  0  0
    9.2191    1.0550   20.2345 H   0  0  0  0  0  0  0  0  0  0  0  0
   10.0895   -0.4704   19.9747 H   0  0  0  0  0  0  0  0  0  0  0  0
    8.7796   -1.3733   22.4647 N   0  0  0  0  0  0  0  0  0  0  0  0
    6.9211   -2.5552   24.5626 H   0  0  0  0  0  0  0  0  0  0  0  0
    8.6565   -4.3891   24.8772 H   0  0  0  0  0  0  0  0  0  0  0  0
    9.2185   -4.1148   23.1611 H   0  0  0  0  0  0  0  0  0  0  0  0
    6.8995   -5.8630   21.7210 H   0  0  0  0  0  0  0  0  0  0  0  0
    5.8813   -4.4196   21.5164 H   0  0  0  0  0  0  0  0  0  0  0  0
    7.6153   -4.3078   21.2613 H   0  0  0  0  0  0  0  0  0  0  0  0
  1  2  1  0
  2  3  1  0
  3  4  1  0
  3  5  1  0
  3  6  1  0
  2  7  1  0
  7  8  1  0
  8  9  1  0
  9 10  2  0
 10 11  1  0
 11 12  1  0
 12 13  2  0
 13 14  1  0
 14 15  2  0
 15 16  1  0
 16 17  2  0
 17 18  1  0
 15 19  1  0
 14 20  1  0
 13 21  1  0
 11 22  1  0
 22 23  1  0
 23 24  1  0
 24 25  1  0
 25 26  1  0
 26 27  1  0
 27 28  1  0
 27 29  1  0
 27 30  1  0
 26 31  1  0
 31 32  1  0
 32 33  1  0
 33 34  2  0
 32 35  1  0
 32 36  1  0
 31 37  1  0
 31 38  1  0
 26 39  1  0
 25 40  1  0
 25 41  1  0
 23 42  1  0
 23 43  1  0
 22 44  2  0
  8 45  1  0
  7 46  1  0
  7 47  1  0
  1 48  1  0
  1 49  1  0
  1 50  1  0
  8  2  1  0
 44  9  1  0
 17 12  1  0
 33 24  1  0
M  END
>  <cnnaffinity>  (1) 
-6.82231

>  <filename>  (1) 
CC1(C)CC1c1nc(CN2CC(C(F)(F)F)CCC2=O)n(-c2cccnc2)n1

$$$$
