
     RDKit          3D

 46 49  0  0  0  0  0  0  0  0999 V2000
    7.5720   -1.0640   25.3646 C   0  0  0  0  0  0  0  0  0  0  0  0
    7.3942   -2.5565   25.1264 C   0  0  0  0  0  0  0  0  0  0  0  0
    8.0490   -3.4296   26.1794 C   0  0  0  0  0  0  0  0  0  0  0  0
    7.6099   -3.2434   27.1669 H   0  0  0  0  0  0  0  0  0  0  0  0
    9.1231   -3.2208   26.2465 H   0  0  0  0  0  0  0  0  0  0  0  0
    7.9299   -4.4971   25.9656 H   0  0  0  0  0  0  0  0  0  0  0  0
    6.1325   -3.0589   24.4783 C   0  0  0  0  0  0  0  0  0  0  0  0
    7.4161   -3.0598   23.6903 C   0  0  0  0  0  0  0  0  0  0  0  0
    7.6408   -2.0912   22.5870 C   0  0  0  0  0  0  0  0  0  0  0  0
    6.7211   -1.6726   21.7394 N   0  0  0  0  0  0  0  0  0  0  0  0
    7.3588   -0.6752   21.0675 N   0  0  0  0  0  0  0  0  0  0  0  0
    6.6969   -0.0285   19.9812 C   0  0  0  0  0  0  0  0  0  0  0  0
    5.4600    0.5948   20.1873 C   0  0  0  0  0  0  0  0  0  0  0  0
    4.8733    1.2600   19.1078 C   0  0  0  0  0  0  0  0  0  0  0  0
    5.5187    1.2462   17.8650 C   0  0  0  0  0  0  0  0  0  0  0  0
    6.6821    0.6114   17.6512 N   0  0  0  0  0  0  0  0  0  0  0  0
    7.2523   -0.0133   18.6900 C   0  0  0  0  0  0  0  0  0  0  0  0
    8.1845   -0.5384   18.4828 H   0  0  0  0  0  0  0  0  0  0  0  0
    5.0843    1.7689   17.0154 H   0  0  0  0  0  0  0  0  0  0  0  0
    3.9336    1.7896   19.2207 H   0  0  0  0  0  0  0  0  0  0  0  0
    4.9902    0.5538   21.1720 H   0  0  0  0  0  0  0  0  0  0  0  0
    8.6052   -0.5141   21.6035 C   0  0  0  0  0  0  0  0  0  0  0  0
    9.4303    0.7508   21.4982 C   0  0  0  0  0  0  0  0  0  0  0  0
    8.7836    1.9416   22.1029 N   0  0  0  0  0  0  0  0  0  0  0  0
    7.9148    2.6901   21.3568 C   0  0  0  0  0  0  0  0  0  0  0  0
    7.2624    3.7751   21.8690 C   0  0  0  0  0  0  0  0  0  0  0  0
    7.4558    4.1339   23.2166 C   0  0  0  0  0  0  0  0  0  0  0  0
    8.2867    3.3622   24.0002 C   0  0  0  0  0  0  0  0  0  0  0  0
    8.6420    3.7076   25.3985 C   0  0  0  0  0  0  0  0  0  0  0  0
    7.7054    4.4956   25.9672 F   0  0  0  0  0  0  0  0  0  0  0  0
    8.7728    2.6499   26.2057 F   0  0  0  0  0  0  0  0  0  0  0  0
    9.7927    4.4061   25.4197 F   0  0  0  0  0  0  0  0  0  0  0  0
    9.0141    2.2247   23.4773 C   0  0  0  0  0  0  0  0  0  0  0  0
    9.7796    1.5377   24.1283 O   0  0  0  0  0  0  0  0  0  0  0  0
    6.9454    5.0100   23.6197 H   0  0  0  0  0  0  0  0  0  0  0  0
    6.6149    4.3737   21.2326 H   0  0  0  0  0  0  0  0  0  0  0  0
    7.7859    2.3542   20.3323 H   0  0  0  0  0  0  0  0  0  0  0  0
   10.3587    0.5672   22.0430 H   0  0  0  0  0  0  0  0  0  0  0  0
    9.6827    0.9605   20.4547 H   0  0  0  0  0  0  0  0  0  0  0  0
    8.8425   -1.4685   22.4792 N   0  0  0  0  0  0  0  0  0  0  0  0
    7.9248   -4.0037   23.5123 H   0  0  0  0  0  0  0  0  0  0  0  0
    5.3795   -2.3265   24.1974 H   0  0  0  0  0  0  0  0  0  0  0  0
    5.7278   -4.0157   24.8025 H   0  0  0  0  0  0  0  0  0  0  0  0
    7.1864   -0.7577   26.3419 H   0  0  0  0  0  0  0  0  0  0  0  0
    7.0717   -0.4607   24.5998 H   0  0  0  0  0  0  0  0  0  0  0  0
    8.6352   -0.8044   25.3156 H   0  0  0  0  0  0  0  0  0  0  0  0
  1  2  1  0
  2  3  1  0
  3  4  1  0
  3  5  1  0
  3  6  1  0
  2  7  1  0
  7  8  1  0
  8  9  1  0
  9 10  2  0
 10 11  1  0
 11 12  1  0
 12 13  2  0
 13 14  1  0
 14 15  2  0
 15 16  1  0
 16 17  2  0
 17 18  1  0
 15 19  1  0
 14 20  1  0
 13 21  1  0
 11 22  1  0
 22 23  1  0
 23 24  1  0
 24 25  1  0
 25 26  2  0
 26 27  1  0
 27 28  2  0
 28 29  1  0
 29 30  1  0
 29 31  1  0
 29 32  1  0
 28 33  1  0
 33 34  2  0
 27 35  1  0
 26 36  1  0
 25 37  1  0
 23 38  1  0
 23 39  1  0
 22 40  2  0
  8 41  1  0
  7 42  1  0
  7 43  1  0
  1 44  1  0
  1 45  1  0
  1 46  1  0
  8  2  1  0
 40  9  1  0
 17 12  1  0
 33 24  1  0
M  END
>  <cnnaffinity>  (1) 
-6.1713

>  <filename>  (1) 
CC1(C)CC1c1nc(Cn2cccc(C(F)(F)F)c2=O)n(-c2cccnc2)n1

$$$$
