
     RDKit          3D

 42 45  0  0  0  0  0  0  0  0999 V2000
    7.9704   -6.0294   22.4130 C   0  0  0  0  0  0  0  0  0  0  0  0
    7.6371   -4.6200   22.8753 C   0  0  0  0  0  0  0  0  0  0  0  0
    6.1580   -4.2890   22.7500 C   0  0  0  0  0  0  0  0  0  0  0  0
    5.8666   -4.3415   21.6921 H   0  0  0  0  0  0  0  0  0  0  0  0
    5.9291   -3.2716   23.0924 H   0  0  0  0  0  0  0  0  0  0  0  0
    5.5479   -4.9968   23.3254 H   0  0  0  0  0  0  0  0  0  0  0  0
    8.4037   -3.9978   24.0154 C   0  0  0  0  0  0  0  0  0  0  0  0
    8.6073   -3.4954   22.6022 C   0  0  0  0  0  0  0  0  0  0  0  0
    8.1716   -2.1705   22.1084 C   0  0  0  0  0  0  0  0  0  0  0  0
    7.5079   -1.9831   20.9768 N   0  0  0  0  0  0  0  0  0  0  0  0
    7.3459   -0.6327   20.9453 N   0  0  0  0  0  0  0  0  0  0  0  0
    6.6409   -0.0035   19.8762 C   0  0  0  0  0  0  0  0  0  0  0  0
    5.4399    0.6646   20.1242 C   0  0  0  0  0  0  0  0  0  0  0  0
    4.8189    1.3265   19.0610 C   0  0  0  0  0  0  0  0  0  0  0  0
    5.4216    1.2946   17.8006 C   0  0  0  0  0  0  0  0  0  0  0  0
    6.5583    0.6207   17.5481 N   0  0  0  0  0  0  0  0  0  0  0  0
    7.1455   -0.0249   18.5632 C   0  0  0  0  0  0  0  0  0  0  0  0
    8.0663   -0.5567   18.3318 H   0  0  0  0  0  0  0  0  0  0  0  0
    4.9699    1.8244   16.9625 H   0  0  0  0  0  0  0  0  0  0  0  0
    3.8893    1.8660   19.2064 H   0  0  0  0  0  0  0  0  0  0  0  0
    5.0017    0.6396   21.1194 H   0  0  0  0  0  0  0  0  0  0  0  0
    7.9554   -0.0863   22.0343 C   0  0  0  0  0  0  0  0  0  0  0  0
    7.9346    1.3633   22.4242 C   0  0  0  0  0  0  0  0  0  0  0  0
    6.7216    1.7313   23.2641 C   0  0  0  0  0  0  0  0  0  0  0  0
    6.3783    1.0364   24.3961 C   0  0  0  0  0  0  0  0  0  0  0  0
    5.2122    1.4073   25.1526 C   0  0  0  0  0  0  0  0  0  0  0  0
    4.4256    2.3927   24.7984 N   0  0  0  0  0  0  0  0  0  0  0  0
    4.7760    3.0574   23.6688 N   0  0  0  0  0  0  0  0  0  0  0  0
    5.8690    2.8600   22.8338 C   0  0  0  0  0  0  0  0  0  0  0  0
    6.0220    3.5786   21.8610 O   0  0  0  0  0  0  0  0  0  0  0  0
    4.2139    3.8433   23.3603 H   0  0  0  0  0  0  0  0  0  0  0  0
    4.9251    0.8821   26.0573 H   0  0  0  0  0  0  0  0  0  0  0  0
    6.9672    0.1843   24.7217 H   0  0  0  0  0  0  0  0  0  0  0  0
    7.9924    2.0078   21.5416 H   0  0  0  0  0  0  0  0  0  0  0  0
    8.8593    1.5157   22.9953 H   0  0  0  0  0  0  0  0  0  0  0  0
    8.5041   -1.0323   22.7669 N   0  0  0  0  0  0  0  0  0  0  0  0
    9.5924   -3.7085   22.2232 H   0  0  0  0  0  0  0  0  0  0  0  0
    7.8555   -3.3754   24.7190 H   0  0  0  0  0  0  0  0  0  0  0  0
    9.2381   -4.5537   24.4504 H   0  0  0  0  0  0  0  0  0  0  0  0
    7.5999   -6.1845   21.3917 H   0  0  0  0  0  0  0  0  0  0  0  0
    7.4767   -6.7620   23.0639 H   0  0  0  0  0  0  0  0  0  0  0  0
    9.0394   -6.2614   22.4204 H   0  0  0  0  0  0  0  0  0  0  0  0
  1  2  1  0
  2  3  1  0
  3  4  1  0
  3  5  1  0
  3  6  1  0
  2  7  1  0
  7  8  1  0
  8  9  1  0
  9 10  2  0
 10 11  1  0
 11 12  1  0
 12 13  2  0
 13 14  1  0
 14 15  2  0
 15 16  1  0
 16 17  2  0
 17 18  1  0
 15 19  1  0
 14 20  1  0
 13 21  1  0
 11 22  1  0
 22 23  1  0
 23 24  1  0
 24 25  2  0
 25 26  1  0
 26 27  2  0
 27 28  1  0
 28 29  1  0
 29 30  2  0
 28 31  1  0
 26 32  1  0
 25 33  1  0
 23 34  1  0
 23 35  1  0
 22 36  2  0
  8 37  1  0
  7 38  1  0
  7 39  1  0
  1 40  1  0
  1 41  1  0
  1 42  1  0
  8  2  1  0
 36  9  1  0
 17 12  1  0
 29 24  1  0
M  END
>  <cnnaffinity>  (1) 
-5.7196

>  <filename>  (1) 
CC1(C)CC1c1nc(Cc2ccn[nH]c2=O)n(-c2cccnc2)n1

$$$$
