
     RDKit          3D

 42 45  0  0  0  0  0  0  0  0999 V2000
    8.0274   -5.8627   21.8199 C   0  0  0  0  0  0  0  0  0  0  0  0
    7.5501   -4.5888   22.4867 C   0  0  0  0  0  0  0  0  0  0  0  0
    6.0909   -4.2220   22.2554 C   0  0  0  0  0  0  0  0  0  0  0  0
    5.8530   -3.2792   22.7631 H   0  0  0  0  0  0  0  0  0  0  0  0
    5.9001   -4.0564   21.1870 H   0  0  0  0  0  0  0  0  0  0  0  0
    5.4085   -4.9923   22.6346 H   0  0  0  0  0  0  0  0  0  0  0  0
    8.1796   -4.1743   23.7933 C   0  0  0  0  0  0  0  0  0  0  0  0
    8.5348   -3.4431   22.5251 C   0  0  0  0  0  0  0  0  0  0  0  0
    8.0479   -2.0876   22.1870 C   0  0  0  0  0  0  0  0  0  0  0  0
    7.7002   -1.7780   20.9515 N   0  0  0  0  0  0  0  0  0  0  0  0
    7.2443   -0.5015   21.0830 N   0  0  0  0  0  0  0  0  0  0  0  0
    6.5918    0.1076   19.9825 C   0  0  0  0  0  0  0  0  0  0  0  0
    5.3764    0.7877   20.1173 C   0  0  0  0  0  0  0  0  0  0  0  0
    4.8296    1.3764   18.9725 C   0  0  0  0  0  0  0  0  0  0  0  0
    5.5063    1.2560   17.7533 C   0  0  0  0  0  0  0  0  0  0  0  0
    6.6426    0.5483   17.6126 N   0  0  0  0  0  0  0  0  0  0  0  0
    7.1560   -0.0287   18.7019 C   0  0  0  0  0  0  0  0  0  0  0  0
    8.0557   -0.6275   18.5791 H   0  0  0  0  0  0  0  0  0  0  0  0
    5.1224    1.7331   16.8537 H   0  0  0  0  0  0  0  0  0  0  0  0
    3.8998    1.9316   19.0223 H   0  0  0  0  0  0  0  0  0  0  0  0
    4.8715    0.8215   21.0845 H   0  0  0  0  0  0  0  0  0  0  0  0
    7.4341   -0.0958   22.3745 C   0  0  0  0  0  0  0  0  0  0  0  0
    7.2609    1.2815   22.9488 C   0  0  0  0  0  0  0  0  0  0  0  0
    8.5528    1.7795   23.5910 C   0  0  0  0  0  0  0  0  0  0  0  0
    8.7939    1.5761   24.9542 C   0  0  0  0  0  0  0  0  0  0  0  0
   10.0574    1.8465   25.4813 C   0  0  0  0  0  0  0  0  0  0  0  0
   11.0321    2.3662   24.6327 C   0  0  0  0  0  0  0  0  0  0  0  0
   10.8328    2.5832   23.3300 N   0  0  0  0  0  0  0  0  0  0  0  0
    9.6449    2.2660   22.8403 C   0  0  0  0  0  0  0  0  0  0  0  0
    9.4863    2.3902   21.1206 Cl  0  0  0  0  0  0  0  0  0  0  0  0
   12.0201    2.6172   25.0076 H   0  0  0  0  0  0  0  0  0  0  0  0
   10.2946    1.6164   26.5059 H   0  0  0  0  0  0  0  0  0  0  0  0
    8.0023    1.1712   25.5875 H   0  0  0  0  0  0  0  0  0  0  0  0
    6.9015    1.9794   22.1860 H   0  0  0  0  0  0  0  0  0  0  0  0
    6.4935    1.1970   23.7240 H   0  0  0  0  0  0  0  0  0  0  0  0
    7.9091   -1.0981   23.0908 N   0  0  0  0  0  0  0  0  0  0  0  0
    9.5400   -3.5806   22.1529 H   0  0  0  0  0  0  0  0  0  0  0  0
    7.5792   -3.6599   24.5443 H   0  0  0  0  0  0  0  0  0  0  0  0
    8.9244   -4.8548   24.2067 H   0  0  0  0  0  0  0  0  0  0  0  0
    7.3190   -6.6811   21.9703 H   0  0  0  0  0  0  0  0  0  0  0  0
    8.9833   -6.2044   22.2269 H   0  0  0  0  0  0  0  0  0  0  0  0
    8.1634   -5.7241   20.7406 H   0  0  0  0  0  0  0  0  0  0  0  0
  1  2  1  0
  2  3  1  0
  3  4  1  0
  3  5  1  0
  3  6  1  0
  2  7  1  0
  7  8  1  0
  8  9  1  0
  9 10  2  0
 10 11  1  0
 11 12  1  0
 12 13  2  0
 13 14  1  0
 14 15  2  0
 15 16  1  0
 16 17  2  0
 17 18  1  0
 15 19  1  0
 14 20  1  0
 13 21  1  0
 11 22  1  0
 22 23  1  0
 23 24  1  0
 24 25  2  0
 25 26  1  0
 26 27  2  0
 27 28  1  0
 28 29  2  0
 29 30  1  0
 27 31  1  0
 26 32  1  0
 25 33  1  0
 23 34  1  0
 23 35  1  0
 22 36  2  0
  8 37  1  0
  7 38  1  0
  7 39  1  0
  1 40  1  0
  1 41  1  0
  1 42  1  0
  8  2  1  0
 36  9  1  0
 17 12  1  0
 29 24  1  0
M  END
>  <cnnaffinity>  (1) 
-6.0293

>  <filename>  (1) 
CC1(C)CC1c1nc(Cc2cccnc2Cl)n(-c2cccnc2)n1

$$$$
