
     RDKit          3D

 47 50  0  0  0  0  0  0  0  0999 V2000
    5.7884   -3.7176   25.4522 C   0  0  0  0  0  0  0  0  0  0  0  0
    6.7324   -2.6360   24.9527 C   0  0  0  0  0  0  0  0  0  0  0  0
    6.2589   -1.2172   25.2123 C   0  0  0  0  0  0  0  0  0  0  0  0
    6.2769   -1.0114   26.2893 H   0  0  0  0  0  0  0  0  0  0  0  0
    6.8987   -0.4831   24.7070 H   0  0  0  0  0  0  0  0  0  0  0  0
    5.2333   -1.0575   24.8600 H   0  0  0  0  0  0  0  0  0  0  0  0
    8.2183   -2.8866   24.9821 C   0  0  0  0  0  0  0  0  0  0  0  0
    7.4720   -2.9543   23.6708 C   0  0  0  0  0  0  0  0  0  0  0  0
    7.6852   -1.9362   22.6146 C   0  0  0  0  0  0  0  0  0  0  0  0
    6.7487   -1.6183   21.7427 N   0  0  0  0  0  0  0  0  0  0  0  0
    7.3569   -0.6780   20.9664 N   0  0  0  0  0  0  0  0  0  0  0  0
    6.6589   -0.0262   19.9023 C   0  0  0  0  0  0  0  0  0  0  0  0
    5.4437    0.6183   20.1573 C   0  0  0  0  0  0  0  0  0  0  0  0
    4.8207    1.3006   19.1083 C   0  0  0  0  0  0  0  0  0  0  0  0
    5.4160    1.2979   17.8412 C   0  0  0  0  0  0  0  0  0  0  0  0
    6.5628    0.6524   17.5769 N   0  0  0  0  0  0  0  0  0  0  0  0
    7.1634    0.0105   18.5882 C   0  0  0  0  0  0  0  0  0  0  0  0
    8.0950   -0.4990   18.3431 H   0  0  0  0  0  0  0  0  0  0  0  0
    4.9527    1.8230   17.0084 H   0  0  0  0  0  0  0  0  0  0  0  0
    3.8876    1.8339   19.2586 H   0  0  0  0  0  0  0  0  0  0  0  0
    5.0183    0.5790   21.1612 H   0  0  0  0  0  0  0  0  0  0  0  0
    8.6189   -0.4679   21.4400 C   0  0  0  0  0  0  0  0  0  0  0  0
    9.5184    0.5880   20.9058 C   0  0  0  0  0  0  0  0  0  0  0  0
    9.0122    2.0172   21.1618 C   0  0  0  0  0  0  0  0  0  0  0  0
    8.7430    2.3309   22.6489 C   0  0  0  0  0  0  0  0  0  0  0  0
    9.9840    2.1478   23.4845 C   0  0  0  0  0  0  0  0  0  0  0  0
   10.1637    1.0484   24.3525 C   0  0  0  0  0  0  0  0  0  0  0  0
   11.3461    0.7377   24.9180 N   0  0  0  0  0  0  0  0  0  0  0  0
   12.3483    1.5867   24.6439 C   0  0  0  0  0  0  0  0  0  0  0  0
   12.1569    2.7443   23.8724 C   0  0  0  0  0  0  0  0  0  0  0  0
   10.9822    3.0341   23.2911 N   0  0  0  0  0  0  0  0  0  0  0  0
   12.9721    3.4395   23.7025 H   0  0  0  0  0  0  0  0  0  0  0  0
   13.3263    1.3481   25.0469 H   0  0  0  0  0  0  0  0  0  0  0  0
    9.3138    0.4057   24.5591 H   0  0  0  0  0  0  0  0  0  0  0  0
    8.3991    3.3641   22.7511 H   0  0  0  0  0  0  0  0  0  0  0  0
    7.9369    1.6897   23.0284 H   0  0  0  0  0  0  0  0  0  0  0  0
    9.7742    2.7132   20.8016 H   0  0  0  0  0  0  0  0  0  0  0  0
    8.1046    2.1997   20.5766 H   0  0  0  0  0  0  0  0  0  0  0  0
   10.5057    0.4370   21.3513 H   0  0  0  0  0  0  0  0  0  0  0  0
    9.6262    0.4221   19.8322 H   0  0  0  0  0  0  0  0  0  0  0  0
    8.8623   -1.2653   22.4589 N   0  0  0  0  0  0  0  0  0  0  0  0
    7.2722   -3.9402   23.2527 H   0  0  0  0  0  0  0  0  0  0  0  0
    8.6042   -3.7955   25.4458 H   0  0  0  0  0  0  0  0  0  0  0  0
    8.8536   -2.0098   25.1318 H   0  0  0  0  0  0  0  0  0  0  0  0
    6.1931   -4.7275   25.3107 H   0  0  0  0  0  0  0  0  0  0  0  0
    5.5658   -3.6038   26.5193 H   0  0  0  0  0  0  0  0  0  0  0  0
    4.8368   -3.6637   24.9080 H   0  0  0  0  0  0  0  0  0  0  0  0
  1  2  1  0
  2  3  1  0
  3  4  1  0
  3  5  1  0
  3  6  1  0
  2  7  1  0
  7  8  1  0
  8  9  1  0
  9 10  2  0
 10 11  1  0
 11 12  1  0
 12 13  2  0
 13 14  1  0
 14 15  2  0
 15 16  1  0
 16 17  2  0
 17 18  1  0
 15 19  1  0
 14 20  1  0
 13 21  1  0
 11 22  1  0
 22 23  1  0
 23 24  1  0
 24 25  1  0
 25 26  1  0
 26 27  2  0
 27 28  1  0
 28 29  2  0
 29 30  1  0
 30 31  2  0
 30 32  1  0
 29 33  1  0
 27 34  1  0
 25 35  1  0
 25 36  1  0
 24 37  1  0
 24 38  1  0
 23 39  1  0
 23 40  1  0
 22 41  2  0
  8 42  1  0
  7 43  1  0
  7 44  1  0
  1 45  1  0
  1 46  1  0
  1 47  1  0
  8  2  1  0
 41  9  1  0
 17 12  1  0
 31 26  1  0
M  END
>  <cnnaffinity>  (1) 
-6.28494

>  <filename>  (1) 
CC1(C)CC1c1nc(CCCc2cnccn2)n(-c2cccnc2)n1

$$$$
