
     RDKit          3D

 44 47  0  0  0  0  0  0  0  0999 V2000
    6.2726   -0.1120   27.0228 C   0  0  0  0  0  0  0  0  0  0  0  0
    6.6562    0.9644   26.0532 C   0  0  0  0  0  0  0  0  0  0  0  0
    6.0447    2.0792   25.9617 N   0  0  0  0  0  0  0  0  0  0  0  0
    6.5588    2.8248   24.9094 O   0  0  0  0  0  0  0  0  0  0  0  0
    7.6537    2.1301   24.2905 C   0  0  0  0  0  0  0  0  0  0  0  0
    7.4149    2.0174   22.7724 C   0  0  0  0  0  0  0  0  0  0  0  0
    8.3860    1.0359   22.1921 C   0  0  0  0  0  0  0  0  0  0  0  0
    9.6919    1.1039   22.3829 N   0  0  0  0  0  0  0  0  0  0  0  0
   10.1462   -0.0726   21.8888 C   0  0  0  0  0  0  0  0  0  0  0  0
   11.5694   -0.4749   21.7950 C   0  0  0  0  0  0  0  0  0  0  0  0
   11.8511   -1.6558   21.0846 C   0  0  0  0  0  0  0  0  0  0  0  0
   13.1544   -1.9037   20.7022 C   0  0  0  0  0  0  0  0  0  0  0  0
   13.4660   -2.8614   19.8203 F   0  0  0  0  0  0  0  0  0  0  0  0
   14.2085   -1.1538   21.1843 C   0  0  0  0  0  0  0  0  0  0  0  0
   13.9506   -0.0507   22.0086 C   0  0  0  0  0  0  0  0  0  0  0  0
   12.6270    0.3160   22.2917 C   0  0  0  0  0  0  0  0  0  0  0  0
   12.4167    1.2178   22.8624 H   0  0  0  0  0  0  0  0  0  0  0  0
   14.7775    0.5753   22.3309 H   0  0  0  0  0  0  0  0  0  0  0  0
   15.1548   -1.4648   20.7797 H   0  0  0  0  0  0  0  0  0  0  0  0
   11.0330   -2.3102   20.8094 H   0  0  0  0  0  0  0  0  0  0  0  0
    9.1861   -0.8517   21.3990 N   0  0  0  0  0  0  0  0  0  0  0  0
    8.0646   -0.1375   21.6004 N   0  0  0  0  0  0  0  0  0  0  0  0
    6.7806   -0.6415   21.1234 C   0  0  0  0  0  0  0  0  0  0  0  0
    6.2415    0.1000   19.9167 C   0  0  0  0  0  0  0  0  0  0  0  0
    5.0379    0.8109   19.9358 C   0  0  0  0  0  0  0  0  0  0  0  0
    4.6239    1.4754   18.7781 C   0  0  0  0  0  0  0  0  0  0  0  0
    5.4372    1.4109   17.6444 C   0  0  0  0  0  0  0  0  0  0  0  0
    6.5899    0.7252   17.5997 N   0  0  0  0  0  0  0  0  0  0  0  0
    6.9718    0.0954   18.7165 C   0  0  0  0  0  0  0  0  0  0  0  0
    7.9124   -0.4509   18.6586 H   0  0  0  0  0  0  0  0  0  0  0  0
    5.1572    1.9354   16.7323 H   0  0  0  0  0  0  0  0  0  0  0  0
    3.7074    2.0554   18.7476 H   0  0  0  0  0  0  0  0  0  0  0  0
    4.4393    0.8564   20.8480 H   0  0  0  0  0  0  0  0  0  0  0  0
    6.9520   -1.6963   20.8872 H   0  0  0  0  0  0  0  0  0  0  0  0
    6.0559   -0.6096   21.9454 H   0  0  0  0  0  0  0  0  0  0  0  0
    7.5246    2.9972   22.2976 H   0  0  0  0  0  0  0  0  0  0  0  0
    6.3842    1.6918   22.6075 H   0  0  0  0  0  0  0  0  0  0  0  0
    7.7088    0.7774   25.0079 C   0  0  0  0  0  0  0  0  0  0  0  0
    7.4225   -0.0620   24.3580 H   0  0  0  0  0  0  0  0  0  0  0  0
    8.7013    0.5417   25.4055 H   0  0  0  0  0  0  0  0  0  0  0  0
    8.5487    2.7311   24.4853 H   0  0  0  0  0  0  0  0  0  0  0  0
    6.4640    0.1720   28.0615 H   0  0  0  0  0  0  0  0  0  0  0  0
    5.2109   -0.3539   26.9175 H   0  0  0  0  0  0  0  0  0  0  0  0
    6.8423   -1.0240   26.8183 H   0  0  0  0  0  0  0  0  0  0  0  0
  1  2  1  0
  2  3  2  0
  3  4  1  0
  4  5  1  0
  5  6  1  0
  6  7  1  0
  7  8  2  0
  8  9  1  0
  9 10  1  0
 10 11  2  0
 11 12  1  0
 12 13  1  0
 12 14  2  0
 14 15  1  0
 15 16  2  0
 16 17  1  0
 15 18  1  0
 14 19  1  0
 11 20  1  0
  9 21  2  0
 21 22  1  0
 22 23  1  0
 23 24  1  0
 24 25  2  0
 25 26  1  0
 26 27  2  0
 27 28  1  0
 28 29  2  0
 29 30  1  0
 27 31  1  0
 26 32  1  0
 25 33  1  0
 23 34  1  0
 23 35  1  0
  6 36  1  0
  6 37  1  0
  5 38  1  0
 38 39  1  0
 38 40  1  0
  5 41  1  0
  1 42  1  0
  1 43  1  0
  1 44  1  0
 38  2  1  0
 22  7  1  0
 29 24  1  0
 16 10  1  0
M  END
>  <cnnaffinity>  (1) 
-6.38758

>  <filename>  (1) 
CC1=NOC(Cc2nc(-c3cccc(F)c3)nn2Cc2cccnc2)C1

$$$$
