
     RDKit          3D

 47 50  0  0  0  0  0  0  0  0999 V2000
   12.4252    4.2913   21.9581 C   0  0  0  0  0  0  0  0  0  0  0  0
   11.5406    3.0929   22.1194 C   0  0  0  0  0  0  0  0  0  0  0  0
   10.5465    3.0634   22.9161 N   0  0  0  0  0  0  0  0  0  0  0  0
    9.8931    1.8404   22.8181 O   0  0  0  0  0  0  0  0  0  0  0  0
   10.6089    0.9399   21.9430 C   0  0  0  0  0  0  0  0  0  0  0  0
    9.6756    0.3196   20.8860 C   0  0  0  0  0  0  0  0  0  0  0  0
    8.5763   -0.5201   21.4493 C   0  0  0  0  0  0  0  0  0  0  0  0
    8.7557   -1.3384   22.4653 N   0  0  0  0  0  0  0  0  0  0  0  0
    7.5825   -2.0086   22.5487 C   0  0  0  0  0  0  0  0  0  0  0  0
    7.3267   -3.0312   23.6276 C   0  0  0  0  0  0  0  0  0  0  0  0
    6.7835   -4.3774   23.0796 C   0  0  0  0  0  0  0  0  0  0  0  0
    6.5136   -5.3894   24.2074 C   0  0  0  0  0  0  0  0  0  0  0  0
    5.6199   -4.8060   25.2918 C   0  0  0  0  0  0  0  0  0  0  0  0
    5.4461   -5.7191   26.2970 F   0  0  0  0  0  0  0  0  0  0  0  0
    4.3676   -4.5943   24.7637 F   0  0  0  0  0  0  0  0  0  0  0  0
    6.1405   -3.4948   25.8615 C   0  0  0  0  0  0  0  0  0  0  0  0
    6.4130   -2.4662   24.7518 C   0  0  0  0  0  0  0  0  0  0  0  0
    5.4539   -2.1464   24.3307 H   0  0  0  0  0  0  0  0  0  0  0  0
    6.8781   -1.5781   25.1923 H   0  0  0  0  0  0  0  0  0  0  0  0
    7.0521   -3.7216   26.4265 H   0  0  0  0  0  0  0  0  0  0  0  0
    5.4052   -3.1091   26.5763 H   0  0  0  0  0  0  0  0  0  0  0  0
    6.0383   -6.2958   23.8177 H   0  0  0  0  0  0  0  0  0  0  0  0
    7.4482   -5.6958   24.6930 H   0  0  0  0  0  0  0  0  0  0  0  0
    5.8622   -4.2084   22.5068 H   0  0  0  0  0  0  0  0  0  0  0  0
    7.5070   -4.8132   22.3833 H   0  0  0  0  0  0  0  0  0  0  0  0
    8.3152   -3.2173   24.0655 H   0  0  0  0  0  0  0  0  0  0  0  0
    6.6890   -1.6648   21.6396 N   0  0  0  0  0  0  0  0  0  0  0  0
    7.3311   -0.7170   20.9067 N   0  0  0  0  0  0  0  0  0  0  0  0
    6.6252   -0.0518   19.8498 C   0  0  0  0  0  0  0  0  0  0  0  0
    5.4138    0.6046   20.1064 C   0  0  0  0  0  0  0  0  0  0  0  0
    4.8064    1.3160   19.0685 C   0  0  0  0  0  0  0  0  0  0  0  0
    5.4085    1.3185   17.8053 C   0  0  0  0  0  0  0  0  0  0  0  0
    6.5300    0.6335   17.5311 N   0  0  0  0  0  0  0  0  0  0  0  0
    7.1115   -0.0432   18.5293 C   0  0  0  0  0  0  0  0  0  0  0  0
    7.9983   -0.6229   18.2705 H   0  0  0  0  0  0  0  0  0  0  0  0
    4.9684    1.8758   16.9824 H   0  0  0  0  0  0  0  0  0  0  0  0
    3.8884    1.8714   19.2272 H   0  0  0  0  0  0  0  0  0  0  0  0
    4.9692    0.5456   21.0984 H   0  0  0  0  0  0  0  0  0  0  0  0
   10.2738   -0.3798   20.2881 H   0  0  0  0  0  0  0  0  0  0  0  0
    9.2756    1.0991   20.2337 H   0  0  0  0  0  0  0  0  0  0  0  0
   11.7238    1.8145   21.3584 C   0  0  0  0  0  0  0  0  0  0  0  0
   11.6356    2.0239   20.2866 H   0  0  0  0  0  0  0  0  0  0  0  0
   12.7168    1.3975   21.5420 H   0  0  0  0  0  0  0  0  0  0  0  0
   11.0213    0.1452   22.5819 H   0  0  0  0  0  0  0  0  0  0  0  0
   11.8335    5.2121   21.9365 H   0  0  0  0  0  0  0  0  0  0  0  0
   12.9814    4.2166   21.0177 H   0  0  0  0  0  0  0  0  0  0  0  0
   13.1567    4.3364   22.7741 H   0  0  0  0  0  0  0  0  0  0  0  0
  1  2  1  0
  2  3  2  0
  3  4  1  0
  4  5  1  0
  5  6  1  0
  6  7  1  0
  7  8  2  0
  8  9  1  0
  9 10  1  0
 10 11  1  0
 11 12  1  0
 12 13  1  0
 13 14  1  0
 13 15  1  0
 13 16  1  0
 16 17  1  0
 17 18  1  0
 17 19  1  0
 16 20  1  0
 16 21  1  0
 12 22  1  0
 12 23  1  0
 11 24  1  0
 11 25  1  0
 10 26  1  0
  9 27  2  0
 27 28  1  0
 28 29  1  0
 29 30  2  0
 30 31  1  0
 31 32  2  0
 32 33  1  0
 33 34  2  0
 34 35  1  0
 32 36  1  0
 31 37  1  0
 30 38  1  0
  6 39  1  0
  6 40  1  0
  5 41  1  0
 41 42  1  0
 41 43  1  0
  5 44  1  0
  1 45  1  0
  1 46  1  0
  1 47  1  0
 41  2  1  0
 28  7  1  0
 34 29  1  0
 17 10  1  0
M  END
>  <cnnaffinity>  (1) 
-6.40853

>  <filename>  (1) 
CC1=NOC(Cc2nc(C3CCC(F)(F)CC3)nn2-c2cccnc2)C1

$$$$
