
     RDKit          3D

 44 47  0  0  0  0  0  0  0  0999 V2000
   12.3832    4.2607   21.9325 C   0  0  0  0  0  0  0  0  0  0  0  0
   11.5159    3.0498   22.0997 C   0  0  0  0  0  0  0  0  0  0  0  0
   10.5339    3.0124   22.9096 N   0  0  0  0  0  0  0  0  0  0  0  0
    9.8911    1.7829   22.8281 O   0  0  0  0  0  0  0  0  0  0  0  0
   10.5936    0.8913   21.9330 C   0  0  0  0  0  0  0  0  0  0  0  0
    9.6411    0.2941   20.8769 C   0  0  0  0  0  0  0  0  0  0  0  0
    8.5446   -0.5506   21.4332 C   0  0  0  0  0  0  0  0  0  0  0  0
    8.7352   -1.3741   22.4363 N   0  0  0  0  0  0  0  0  0  0  0  0
    7.5428   -2.0142   22.5646 C   0  0  0  0  0  0  0  0  0  0  0  0
    7.3497   -3.0269   23.6550 C   0  0  0  0  0  0  0  0  0  0  0  0
    8.2670   -4.2708   23.5311 C   0  0  0  0  0  0  0  0  0  0  0  0
    8.3062   -4.8839   24.9458 C   0  0  0  0  0  0  0  0  0  0  0  0
    7.9839   -3.7250   25.9268 C   0  0  0  0  0  0  0  0  0  0  0  0
    7.7458   -2.4827   25.0497 C   0  0  0  0  0  0  0  0  0  0  0  0
    8.6828   -1.9224   24.9332 H   0  0  0  0  0  0  0  0  0  0  0  0
    7.0101   -1.7844   25.4656 H   0  0  0  0  0  0  0  0  0  0  0  0
    7.1006   -3.9611   26.5332 H   0  0  0  0  0  0  0  0  0  0  0  0
    8.8000   -3.5472   26.6361 H   0  0  0  0  0  0  0  0  0  0  0  0
    9.2831   -5.3366   25.1491 H   0  0  0  0  0  0  0  0  0  0  0  0
    7.5706   -5.6912   25.0507 H   0  0  0  0  0  0  0  0  0  0  0  0
    7.9368   -4.9794   22.7627 H   0  0  0  0  0  0  0  0  0  0  0  0
    9.2707   -3.9329   23.2400 H   0  0  0  0  0  0  0  0  0  0  0  0
    6.2939   -3.3265   23.6352 H   0  0  0  0  0  0  0  0  0  0  0  0
    6.6357   -1.6600   21.6811 N   0  0  0  0  0  0  0  0  0  0  0  0
    7.2822   -0.7245   20.9287 N   0  0  0  0  0  0  0  0  0  0  0  0
    6.5969   -0.0547   19.8660 C   0  0  0  0  0  0  0  0  0  0  0  0
    5.3891    0.6157   20.1092 C   0  0  0  0  0  0  0  0  0  0  0  0
    4.8023    1.3263   19.0581 C   0  0  0  0  0  0  0  0  0  0  0  0
    5.4188    1.3150   17.8030 C   0  0  0  0  0  0  0  0  0  0  0  0
    6.5432    0.6260   17.5449 N   0  0  0  0  0  0  0  0  0  0  0  0
    7.1052   -0.0481   18.5564 C   0  0  0  0  0  0  0  0  0  0  0  0
    7.9982   -0.6272   18.3140 H   0  0  0  0  0  0  0  0  0  0  0  0
    4.9889    1.8701   16.9720 H   0  0  0  0  0  0  0  0  0  0  0  0
    3.8841    1.8862   19.2054 H   0  0  0  0  0  0  0  0  0  0  0  0
    4.9302    0.5553   21.0941 H   0  0  0  0  0  0  0  0  0  0  0  0
    9.2322    1.1014   20.2650 H   0  0  0  0  0  0  0  0  0  0  0  0
   10.2219   -0.3852   20.2402 H   0  0  0  0  0  0  0  0  0  0  0  0
   11.6951    1.7738   21.3366 C   0  0  0  0  0  0  0  0  0  0  0  0
   11.5869    1.9928   20.2695 H   0  0  0  0  0  0  0  0  0  0  0  0
   12.6933    1.3649   21.4999 H   0  0  0  0  0  0  0  0  0  0  0  0
   11.0176    0.0952   22.5635 H   0  0  0  0  0  0  0  0  0  0  0  0
   13.0972    4.3302   22.7623 H   0  0  0  0  0  0  0  0  0  0  0  0
   11.7751    5.1668   21.8969 H   0  0  0  0  0  0  0  0  0  0  0  0
   12.9613    4.1986   21.0052 H   0  0  0  0  0  0  0  0  0  0  0  0
  1  2  1  0
  2  3  2  0
  3  4  1  0
  4  5  1  0
  5  6  1  0
  6  7  1  0
  7  8  2  0
  8  9  1  0
  9 10  1  0
 10 11  1  0
 11 12  1  0
 12 13  1  0
 13 14  1  0
 14 15  1  0
 14 16  1  0
 13 17  1  0
 13 18  1  0
 12 19  1  0
 12 20  1  0
 11 21  1  0
 11 22  1  0
 10 23  1  0
  9 24  2  0
 24 25  1  0
 25 26  1  0
 26 27  2  0
 27 28  1  0
 28 29  2  0
 29 30  1  0
 30 31  2  0
 31 32  1  0
 29 33  1  0
 28 34  1  0
 27 35  1  0
  6 36  1  0
  6 37  1  0
  5 38  1  0
 38 39  1  0
 38 40  1  0
  5 41  1  0
  1 42  1  0
  1 43  1  0
  1 44  1  0
 38  2  1  0
 25  7  1  0
 31 26  1  0
 14 10  1  0
M  END
>  <cnnaffinity>  (1) 
-6.12898

>  <filename>  (1) 
CC1=NOC(Cc2nc(C3CCCC3)nn2-c2cccnc2)C1

$$$$
