
     RDKit          3D

 43 46  0  0  0  0  0  0  0  0999 V2000
    8.2835    2.5378   21.7329 C   0  0  0  0  0  0  0  0  0  0  0  0
    9.5866    2.0211   22.2313 C   0  0  0  0  0  0  0  0  0  0  0  0
   10.2377    0.9405   21.7303 C   0  0  0  0  0  0  0  0  0  0  0  0
    9.6086    0.0116   20.6953 C   0  0  0  0  0  0  0  0  0  0  0  0
    8.4710   -0.8363   21.2267 C   0  0  0  0  0  0  0  0  0  0  0  0
    8.6384   -1.6542   22.2379 N   0  0  0  0  0  0  0  0  0  0  0  0
    7.3996   -2.1664   22.4720 C   0  0  0  0  0  0  0  0  0  0  0  0
    7.1900   -3.1426   23.5731 C   0  0  0  0  0  0  0  0  0  0  0  0
    8.2900   -3.4932   24.3850 C   0  0  0  0  0  0  0  0  0  0  0  0
    8.1591   -4.4448   25.3943 C   0  0  0  0  0  0  0  0  0  0  0  0
    6.9228   -5.0549   25.6219 C   0  0  0  0  0  0  0  0  0  0  0  0
    5.8179   -4.6985   24.8414 C   0  0  0  0  0  0  0  0  0  0  0  0
    5.9397   -3.7432   23.8277 C   0  0  0  0  0  0  0  0  0  0  0  0
    5.0735   -3.4635   23.2312 H   0  0  0  0  0  0  0  0  0  0  0  0
    4.8604   -5.1783   25.0192 H   0  0  0  0  0  0  0  0  0  0  0  0
    6.8266   -5.8081   26.3990 H   0  0  0  0  0  0  0  0  0  0  0  0
    9.0255   -4.7181   25.9909 H   0  0  0  0  0  0  0  0  0  0  0  0
    9.2499   -3.0135   24.2044 H   0  0  0  0  0  0  0  0  0  0  0  0
    6.4682   -1.7095   21.6504 N   0  0  0  0  0  0  0  0  0  0  0  0
    7.1603   -0.8784   20.8253 N   0  0  0  0  0  0  0  0  0  0  0  0
    6.4803   -0.1801   19.7838 C   0  0  0  0  0  0  0  0  0  0  0  0
    5.3112    0.5357   20.0606 C   0  0  0  0  0  0  0  0  0  0  0  0
    4.7588    1.3227   19.0447 C   0  0  0  0  0  0  0  0  0  0  0  0
    5.3657    1.3310   17.7837 C   0  0  0  0  0  0  0  0  0  0  0  0
    6.4353    0.5792   17.4857 N   0  0  0  0  0  0  0  0  0  0  0  0
    6.9682   -0.1653   18.4633 C   0  0  0  0  0  0  0  0  0  0  0  0
    7.8147   -0.7939   18.1881 H   0  0  0  0  0  0  0  0  0  0  0  0
    4.9746    1.9448   16.9750 H   0  0  0  0  0  0  0  0  0  0  0  0
    3.8810    1.9354   19.2156 H   0  0  0  0  0  0  0  0  0  0  0  0
    4.8584    0.4588   21.0496 H   0  0  0  0  0  0  0  0  0  0  0  0
    9.2819    0.5595   19.8025 H   0  0  0  0  0  0  0  0  0  0  0  0
   10.3895   -0.6865   20.3753 H   0  0  0  0  0  0  0  0  0  0  0  0
   11.5853    0.6319   22.2520 C   0  0  0  0  0  0  0  0  0  0  0  0
   12.3357   -0.2311   21.8445 O   0  0  0  0  0  0  0  0  0  0  0  0
   12.0391    1.4032   23.2958 N   0  0  0  0  0  0  0  0  0  0  0  0
   11.4587    2.5492   23.7053 C   0  0  0  0  0  0  0  0  0  0  0  0
   11.9808    3.3482   24.4407 O   0  0  0  0  0  0  0  0  0  0  0  0
   10.1915    2.7462   23.2308 N   0  0  0  0  0  0  0  0  0  0  0  0
    9.8650    3.6443   23.5378 H   0  0  0  0  0  0  0  0  0  0  0  0
   13.0046    1.2674   23.5217 H   0  0  0  0  0  0  0  0  0  0  0  0
    7.5283    1.7489   21.6919 H   0  0  0  0  0  0  0  0  0  0  0  0
    8.4242    2.8615   20.7037 H   0  0  0  0  0  0  0  0  0  0  0  0
    7.8946    3.3719   22.3259 H   0  0  0  0  0  0  0  0  0  0  0  0
  1  2  1  0
  2  3  2  0
  3  4  1  0
  4  5  1  0
  5  6  2  0
  6  7  1  0
  7  8  1  0
  8  9  2  0
  9 10  1  0
 10 11  2  0
 11 12  1  0
 12 13  2  0
 13 14  1  0
 12 15  1  0
 11 16  1  0
 10 17  1  0
  9 18  1  0
  7 19  2  0
 19 20  1  0
 20 21  1  0
 21 22  2  0
 22 23  1  0
 23 24  2  0
 24 25  1  0
 25 26  2  0
 26 27  1  0
 24 28  1  0
 23 29  1  0
 22 30  1  0
  4 31  1  0
  4 32  1  0
  3 33  1  0
 33 34  2  0
 33 35  1  0
 35 36  1  0
 36 37  2  0
 36 38  1  0
 38 39  1  0
 35 40  1  0
  1 41  1  0
  1 42  1  0
  1 43  1  0
 38  2  1  0
 20  5  1  0
 26 21  1  0
 13  8  1  0
M  END
>  <cnnaffinity>  (1) 
-6.07322

>  <filename>  (1) 
Cc1[nH]c(=O)[nH]c(=O)c1Cc1nc(-c2ccccc2)nn1-c1cccnc1

$$$$
