
     RDKit          3D

 41 45  0  0  0  0  0  0  0  0999 V2000
    9.4106    1.1393   25.3980 C   0  0  0  0  0  0  0  0  0  0  0  0
    7.9406    1.3128   25.2016 C   0  0  0  0  0  0  0  0  0  0  0  0
    7.1897    1.4629   24.0632 C   0  0  0  0  0  0  0  0  0  0  0  0
    7.6086    1.3969   22.6355 C   0  0  0  0  0  0  0  0  0  0  0  0
    7.5793   -0.0320   22.1964 C   0  0  0  0  0  0  0  0  0  0  0  0
    8.1259   -1.0086   22.8987 N   0  0  0  0  0  0  0  0  0  0  0  0
    8.0760   -2.0643   22.0579 C   0  0  0  0  0  0  0  0  0  0  0  0
    8.5894   -3.4337   22.3035 C   0  0  0  0  0  0  0  0  0  0  0  0
    7.7213   -4.6136   22.7857 C   0  0  0  0  0  0  0  0  0  0  0  0
    8.8156   -4.0539   23.6481 C   0  0  0  0  0  0  0  0  0  0  0  0
    9.8352   -4.6802   24.5430 C   0  0  0  0  0  0  0  0  0  0  0  0
    8.9780   -3.5070   25.0294 C   0  0  0  0  0  0  0  0  0  0  0  0
    8.1695   -3.6750   25.7406 H   0  0  0  0  0  0  0  0  0  0  0  0
    9.4681   -2.5362   25.1139 H   0  0  0  0  0  0  0  0  0  0  0  0
    9.5868   -5.6766   24.9162 H   0  0  0  0  0  0  0  0  0  0  0  0
   10.8942   -4.5233   24.3466 H   0  0  0  0  0  0  0  0  0  0  0  0
    7.9213   -5.5767   22.3043 H   0  0  0  0  0  0  0  0  0  0  0  0
    6.6888   -4.4732   23.1105 H   0  0  0  0  0  0  0  0  0  0  0  0
    9.2696   -3.6448   21.4939 H   0  0  0  0  0  0  0  0  0  0  0  0
    7.5792   -1.7937   20.8617 N   0  0  0  0  0  0  0  0  0  0  0  0
    7.2111   -0.4932   20.9675 N   0  0  0  0  0  0  0  0  0  0  0  0
    6.5332    0.1477   19.8947 C   0  0  0  0  0  0  0  0  0  0  0  0
    5.3437    0.8601   20.0903 C   0  0  0  0  0  0  0  0  0  0  0  0
    4.7506    1.4535   18.9687 C   0  0  0  0  0  0  0  0  0  0  0  0
    5.3794    1.3304   17.7244 C   0  0  0  0  0  0  0  0  0  0  0  0
    6.5130    0.6289   17.5321 N   0  0  0  0  0  0  0  0  0  0  0  0
    7.0568    0.0332   18.5960 C   0  0  0  0  0  0  0  0  0  0  0  0
    7.9560   -0.5587   18.4359 H   0  0  0  0  0  0  0  0  0  0  0  0
    4.9635    1.8106   16.8427 H   0  0  0  0  0  0  0  0  0  0  0  0
    3.8297    2.0224   19.0579 H   0  0  0  0  0  0  0  0  0  0  0  0
    4.8974    0.9321   21.0861 H   0  0  0  0  0  0  0  0  0  0  0  0
    8.6418    1.7422   22.4975 H   0  0  0  0  0  0  0  0  0  0  0  0
    6.9483    2.0134   22.0195 H   0  0  0  0  0  0  0  0  0  0  0  0
    5.8486    1.4531   24.3554 N   0  0  0  0  0  0  0  0  0  0  0  0
    5.7754    1.2950   25.6485 C   0  0  0  0  0  0  0  0  0  0  0  0
    7.0103    1.2123   26.2157 N   0  0  0  0  0  0  0  0  0  0  0  0
    7.2124    1.0315   27.1867 H   0  0  0  0  0  0  0  0  0  0  0  0
    4.8618    1.1711   26.2156 H   0  0  0  0  0  0  0  0  0  0  0  0
    9.7343    0.2236   24.8873 H   0  0  0  0  0  0  0  0  0  0  0  0
    9.9690    1.9755   24.9642 H   0  0  0  0  0  0  0  0  0  0  0  0
    9.6845    1.0575   26.4548 H   0  0  0  0  0  0  0  0  0  0  0  0
  1  2  1  0
  2  3  2  0
  3  4  1  0
  4  5  1  0
  5  6  2  0
  6  7  1  0
  7  8  1  0
  8  9  1  0
  9 10  1  0
 10 11  1  0
 11 12  1  0
 12 13  1  0
 12 14  1  0
 11 15  1  0
 11 16  1  0
  9 17  1  0
  9 18  1  0
  8 19  1  0
  7 20  2  0
 20 21  1  0
 21 22  1  0
 22 23  2  0
 23 24  1  0
 24 25  2  0
 25 26  1  0
 26 27  2  0
 27 28  1  0
 25 29  1  0
 24 30  1  0
 23 31  1  0
  4 32  1  0
  4 33  1  0
  3 34  1  0
 34 35  2  0
 35 36  1  0
 36 37  1  0
 35 38  1  0
  1 39  1  0
  1 40  1  0
  1 41  1  0
 36  2  1  0
 21  5  1  0
 27 22  1  0
 10  8  1  0
 12 10  1  0
M  END
>  <cnnaffinity>  (1) 
-6.1621

>  <filename>  (1) 
Cc1[nH]cnc1Cc1nc(C2CC23CC3)nn1-c1cccnc1

$$$$
