
     RDKit          3D

 41 44  0  0  0  0  0  0  0  0999 V2000
    7.2875    0.3266   25.9516 C   0  0  0  0  0  0  0  0  0  0  0  0
    8.2470    1.1786   25.1844 C   0  0  0  0  0  0  0  0  0  0  0  0
    8.2250    1.5492   23.8671 C   0  0  0  0  0  0  0  0  0  0  0  0
    7.2470    1.1869   22.8098 C   0  0  0  0  0  0  0  0  0  0  0  0
    7.5851   -0.1493   22.2339 C   0  0  0  0  0  0  0  0  0  0  0  0
    8.1154   -1.1409   22.9302 N   0  0  0  0  0  0  0  0  0  0  0  0
    8.2709   -2.1247   22.0144 C   0  0  0  0  0  0  0  0  0  0  0  0
    8.8503   -3.5023   22.2518 C   0  0  0  0  0  0  0  0  0  0  0  0
    8.0001   -4.4906   23.0776 C   0  0  0  0  0  0  0  0  0  0  0  0
    8.5693   -4.3036   24.4867 C   0  0  0  0  0  0  0  0  0  0  0  0
   10.0480   -4.0175   24.2231 C   0  0  0  0  0  0  0  0  0  0  0  0
   10.1128   -3.4806   22.9073 O   0  0  0  0  0  0  0  0  0  0  0  0
   10.6684   -4.9273   24.2823 H   0  0  0  0  0  0  0  0  0  0  0  0
   10.4686   -3.2558   24.8905 H   0  0  0  0  0  0  0  0  0  0  0  0
    8.4123   -5.1714   25.1323 H   0  0  0  0  0  0  0  0  0  0  0  0
    8.1086   -3.4277   24.9567 H   0  0  0  0  0  0  0  0  0  0  0  0
    8.1841   -5.5066   22.7043 H   0  0  0  0  0  0  0  0  0  0  0  0
    6.9245   -4.3093   22.9958 H   0  0  0  0  0  0  0  0  0  0  0  0
    8.9798   -3.8515   21.2294 H   0  0  0  0  0  0  0  0  0  0  0  0
    7.8317   -1.8159   20.8036 N   0  0  0  0  0  0  0  0  0  0  0  0
    7.3573   -0.5567   20.9506 N   0  0  0  0  0  0  0  0  0  0  0  0
    6.6397    0.0734   19.8969 C   0  0  0  0  0  0  0  0  0  0  0  0
    5.4124    0.7064   20.1265 C   0  0  0  0  0  0  0  0  0  0  0  0
    4.7876    1.3329   19.0457 C   0  0  0  0  0  0  0  0  0  0  0  0
    5.4052    1.3006   17.7923 C   0  0  0  0  0  0  0  0  0  0  0  0
    6.5557    0.6431   17.5586 N   0  0  0  0  0  0  0  0  0  0  0  0
    7.1497    0.0331   18.5884 C   0  0  0  0  0  0  0  0  0  0  0  0
    8.0714   -0.5093   18.3830 H   0  0  0  0  0  0  0  0  0  0  0  0
    4.9670    1.8234   16.9440 H   0  0  0  0  0  0  0  0  0  0  0  0
    3.8500    1.8614   19.1721 H   0  0  0  0  0  0  0  0  0  0  0  0
    4.9504    0.6884   21.1147 H   0  0  0  0  0  0  0  0  0  0  0  0
    6.2328    1.1414   23.2209 H   0  0  0  0  0  0  0  0  0  0  0  0
    7.2569    1.9650   22.0434 H   0  0  0  0  0  0  0  0  0  0  0  0
    9.3697    2.2167   23.5218 N   0  0  0  0  0  0  0  0  0  0  0  0
   10.0820    2.2834   24.6122 C   0  0  0  0  0  0  0  0  0  0  0  0
    9.4483    1.6765   25.6563 N   0  0  0  0  0  0  0  0  0  0  0  0
    9.8091    1.5877   26.5912 H   0  0  0  0  0  0  0  0  0  0  0  0
   11.0525    2.7623   24.6913 H   0  0  0  0  0  0  0  0  0  0  0  0
    7.5432    0.2359   27.0118 H   0  0  0  0  0  0  0  0  0  0  0  0
    6.2738    0.7354   25.8729 H   0  0  0  0  0  0  0  0  0  0  0  0
    7.2662   -0.6762   25.5063 H   0  0  0  0  0  0  0  0  0  0  0  0
  1  2  1  0
  2  3  2  0
  3  4  1  0
  4  5  1  0
  5  6  2  0
  6  7  1  0
  7  8  1  0
  8  9  1  0
  9 10  1  0
 10 11  1  0
 11 12  1  0
 11 13  1  0
 11 14  1  0
 10 15  1  0
 10 16  1  0
  9 17  1  0
  9 18  1  0
  8 19  1  0
  7 20  2  0
 20 21  1  0
 21 22  1  0
 22 23  2  0
 23 24  1  0
 24 25  2  0
 25 26  1  0
 26 27  2  0
 27 28  1  0
 25 29  1  0
 24 30  1  0
 23 31  1  0
  4 32  1  0
  4 33  1  0
  3 34  1  0
 34 35  2  0
 35 36  1  0
 36 37  1  0
 35 38  1  0
  1 39  1  0
  1 40  1  0
  1 41  1  0
 36  2  1  0
 21  5  1  0
 27 22  1  0
 12  8  1  0
M  END
>  <cnnaffinity>  (1) 
-6.0219

>  <filename>  (1) 
Cc1[nH]cnc1Cc1nc(C2CCCO2)nn1-c1cccnc1

$$$$
