
     RDKit          3D

 44 47  0  0  0  0  0  0  0  0999 V2000
   12.4042   -1.3309   21.4232 C   0  0  0  0  0  0  0  0  0  0  0  0
   11.8790   -0.0302   21.9443 C   0  0  0  0  0  0  0  0  0  0  0  0
   10.7270    0.6385   21.6301 C   0  0  0  0  0  0  0  0  0  0  0  0
    9.6557    0.2249   20.6888 C   0  0  0  0  0  0  0  0  0  0  0  0
    8.6206   -0.5921   21.3670 C   0  0  0  0  0  0  0  0  0  0  0  0
    8.8546   -1.4512   22.3329 N   0  0  0  0  0  0  0  0  0  0  0  0
    7.6302   -1.9998   22.5563 C   0  0  0  0  0  0  0  0  0  0  0  0
    7.3916   -2.9689   23.6684 C   0  0  0  0  0  0  0  0  0  0  0  0
    7.5491   -2.2752   25.0560 C   0  0  0  0  0  0  0  0  0  0  0  0
    7.5447   -3.2703   26.1934 C   0  0  0  0  0  0  0  0  0  0  0  0
    7.7703   -4.5768   26.0295 C   0  0  0  0  0  0  0  0  0  0  0  0
    7.9864   -5.2219   24.6775 C   0  0  0  0  0  0  0  0  0  0  0  0
    8.3343   -4.1959   23.5829 C   0  0  0  0  0  0  0  0  0  0  0  0
    9.3739   -3.8500   23.6950 H   0  0  0  0  0  0  0  0  0  0  0  0
    8.2660   -4.6656   22.5941 H   0  0  0  0  0  0  0  0  0  0  0  0
    7.0724   -5.7711   24.3974 H   0  0  0  0  0  0  0  0  0  0  0  0
    8.7713   -5.9856   24.7528 H   0  0  0  0  0  0  0  0  0  0  0  0
    7.7783   -5.2395   26.8964 H   0  0  0  0  0  0  0  0  0  0  0  0
    7.3668   -2.8679   27.1917 H   0  0  0  0  0  0  0  0  0  0  0  0
    6.7506   -1.5361   25.2114 H   0  0  0  0  0  0  0  0  0  0  0  0
    8.4908   -1.6991   25.0791 H   0  0  0  0  0  0  0  0  0  0  0  0
    6.3483   -3.2949   23.5475 H   0  0  0  0  0  0  0  0  0  0  0  0
    6.6762   -1.5697   21.7569 N   0  0  0  0  0  0  0  0  0  0  0  0
    7.3223   -0.6786   20.9594 N   0  0  0  0  0  0  0  0  0  0  0  0
    6.6479   -0.0042   19.9036 C   0  0  0  0  0  0  0  0  0  0  0  0
    5.4343    0.6416   20.1573 C   0  0  0  0  0  0  0  0  0  0  0  0
    4.8062    1.3117   19.1044 C   0  0  0  0  0  0  0  0  0  0  0  0
    5.3981    1.2948   17.8352 C   0  0  0  0  0  0  0  0  0  0  0  0
    6.5534    0.6633   17.5773 N   0  0  0  0  0  0  0  0  0  0  0  0
    7.1616    0.0389   18.5926 C   0  0  0  0  0  0  0  0  0  0  0  0
    8.1092   -0.4415   18.3521 H   0  0  0  0  0  0  0  0  0  0  0  0
    4.9331    1.8018   16.9924 H   0  0  0  0  0  0  0  0  0  0  0  0
    3.8744    1.8467   19.2527 H   0  0  0  0  0  0  0  0  0  0  0  0
    5.0167    0.6020   21.1624 H   0  0  0  0  0  0  0  0  0  0  0  0
   10.0441   -0.4257   19.8953 H   0  0  0  0  0  0  0  0  0  0  0  0
    9.2006    1.1143   20.2521 H   0  0  0  0  0  0  0  0  0  0  0  0
   10.5832    1.7677   22.3940 N   0  0  0  0  0  0  0  0  0  0  0  0
   11.6316    1.7922   23.1720 C   0  0  0  0  0  0  0  0  0  0  0  0
   12.4532    0.7264   22.9470 N   0  0  0  0  0  0  0  0  0  0  0  0
   13.3103    0.5222   23.4383 H   0  0  0  0  0  0  0  0  0  0  0  0
   11.8472    2.5442   23.9226 H   0  0  0  0  0  0  0  0  0  0  0  0
   11.6263   -2.0956   21.5293 H   0  0  0  0  0  0  0  0  0  0  0  0
   12.6478   -1.2815   20.3564 H   0  0  0  0  0  0  0  0  0  0  0  0
   13.3014   -1.6748   21.9456 H   0  0  0  0  0  0  0  0  0  0  0  0
  1  2  1  0
  2  3  2  0
  3  4  1  0
  4  5  1  0
  5  6  2  0
  6  7  1  0
  7  8  1  0
  8  9  1  0
  9 10  1  0
 10 11  2  0
 11 12  1  0
 12 13  1  0
 13 14  1  0
 13 15  1  0
 12 16  1  0
 12 17  1  0
 11 18  1  0
 10 19  1  0
  9 20  1  0
  9 21  1  0
  8 22  1  0
  7 23  2  0
 23 24  1  0
 24 25  1  0
 25 26  2  0
 26 27  1  0
 27 28  2  0
 28 29  1  0
 29 30  2  0
 30 31  1  0
 28 32  1  0
 27 33  1  0
 26 34  1  0
  4 35  1  0
  4 36  1  0
  3 37  1  0
 37 38  2  0
 38 39  1  0
 39 40  1  0
 38 41  1  0
  1 42  1  0
  1 43  1  0
  1 44  1  0
 39  2  1  0
 24  5  1  0
 30 25  1  0
 13  8  1  0
M  END
>  <cnnaffinity>  (1) 
-6.47821

>  <filename>  (1) 
Cc1[nH]cnc1Cc1nc(C2CC=CCC2)nn1-c1cccnc1

$$$$
