
     RDKit          3D

 43 46  0  0  0  0  0  0  0  0999 V2000
   12.0501    1.2088   24.0020 C   0  0  0  0  0  0  0  0  0  0  0  0
   11.9115    0.3562   22.7827 C   0  0  0  0  0  0  0  0  0  0  0  0
   11.0447    0.3356   21.7177 C   0  0  0  0  0  0  0  0  0  0  0  0
    9.9676    1.2779   21.3160 C   0  0  0  0  0  0  0  0  0  0  0  0
    8.8371    1.1491   22.2582 C   0  0  0  0  0  0  0  0  0  0  0  0
    8.8004    1.7947   23.3961 N   0  0  0  0  0  0  0  0  0  0  0  0
    7.6490    1.3511   23.9795 C   0  0  0  0  0  0  0  0  0  0  0  0
    7.2130    1.8610   25.2965 C   0  0  0  0  0  0  0  0  0  0  0  0
    6.0722    1.3782   25.9738 C   0  0  0  0  0  0  0  0  0  0  0  0
    5.7061    1.9134   27.2116 C   0  0  0  0  0  0  0  0  0  0  0  0
    6.4821    2.9307   27.7642 C   0  0  0  0  0  0  0  0  0  0  0  0
    6.1289    3.4541   28.9479 F   0  0  0  0  0  0  0  0  0  0  0  0
    7.6153    3.4230   27.1267 C   0  0  0  0  0  0  0  0  0  0  0  0
    7.9794    2.8772   25.9011 C   0  0  0  0  0  0  0  0  0  0  0  0
    8.8696    3.2301   25.3876 H   0  0  0  0  0  0  0  0  0  0  0  0
    8.1887    4.2154   27.5915 H   0  0  0  0  0  0  0  0  0  0  0  0
    4.8416    1.5627   27.7658 H   0  0  0  0  0  0  0  0  0  0  0  0
    5.4749    0.5814   25.5331 H   0  0  0  0  0  0  0  0  0  0  0  0
    7.0082    0.4465   23.2576 N   0  0  0  0  0  0  0  0  0  0  0  0
    7.7875    0.3141   22.1561 N   0  0  0  0  0  0  0  0  0  0  0  0
    7.4320   -0.6045   21.0774 C   0  0  0  0  0  0  0  0  0  0  0  0
    6.7095    0.0470   19.9057 C   0  0  0  0  0  0  0  0  0  0  0  0
    5.4899    0.7063   20.1095 C   0  0  0  0  0  0  0  0  0  0  0  0
    4.8747    1.3247   19.0188 C   0  0  0  0  0  0  0  0  0  0  0  0
    5.4856    1.2554   17.7642 C   0  0  0  0  0  0  0  0  0  0  0  0
    6.6350    0.6023   17.5384 N   0  0  0  0  0  0  0  0  0  0  0  0
    7.2180    0.0208   18.5955 C   0  0  0  0  0  0  0  0  0  0  0  0
    8.1510   -0.5012   18.3792 H   0  0  0  0  0  0  0  0  0  0  0  0
    5.0358    1.7460   16.9031 H   0  0  0  0  0  0  0  0  0  0  0  0
    3.9434    1.8678   19.1277 H   0  0  0  0  0  0  0  0  0  0  0  0
    5.0410    0.7370   21.1046 H   0  0  0  0  0  0  0  0  0  0  0  0
    6.8019   -1.3614   21.5550 H   0  0  0  0  0  0  0  0  0  0  0  0
    8.3632   -1.0822   20.7463 H   0  0  0  0  0  0  0  0  0  0  0  0
   10.3041    2.3164   21.3757 H   0  0  0  0  0  0  0  0  0  0  0  0
    9.6540    1.0415   20.2988 H   0  0  0  0  0  0  0  0  0  0  0  0
   11.2150   -0.7993   20.9771 N   0  0  0  0  0  0  0  0  0  0  0  0
   12.2101   -1.4420   21.5266 C   0  0  0  0  0  0  0  0  0  0  0  0
   12.6625   -0.7866   22.6225 N   0  0  0  0  0  0  0  0  0  0  0  0
   13.4212   -1.0730   23.2206 H   0  0  0  0  0  0  0  0  0  0  0  0
   12.6523   -2.3514   21.1488 H   0  0  0  0  0  0  0  0  0  0  0  0
   13.0076    1.0551   24.5156 H   0  0  0  0  0  0  0  0  0  0  0  0
   11.2374    0.9944   24.7045 H   0  0  0  0  0  0  0  0  0  0  0  0
   11.9599    2.2667   23.7543 H   0  0  0  0  0  0  0  0  0  0  0  0
  1  2  1  0
  2  3  2  0
  3  4  1  0
  4  5  1  0
  5  6  2  0
  6  7  1  0
  7  8  1  0
  8  9  2  0
  9 10  1  0
 10 11  2  0
 11 12  1  0
 11 13  1  0
 13 14  2  0
 14 15  1  0
 13 16  1  0
 10 17  1  0
  9 18  1  0
  7 19  2  0
 19 20  1  0
 20 21  1  0
 21 22  1  0
 22 23  2  0
 23 24  1  0
 24 25  2  0
 25 26  1  0
 26 27  2  0
 27 28  1  0
 25 29  1  0
 24 30  1  0
 23 31  1  0
 21 32  1  0
 21 33  1  0
  4 34  1  0
  4 35  1  0
  3 36  1  0
 36 37  2  0
 37 38  1  0
 38 39  1  0
 37 40  1  0
  1 41  1  0
  1 42  1  0
  1 43  1  0
 38  2  1  0
 20  5  1  0
 27 22  1  0
 14  8  1  0
M  END
>  <cnnaffinity>  (1) 
-5.86435

>  <filename>  (1) 
Cc1[nH]cnc1Cc1nc(-c2ccc(F)cc2)nn1Cc1cccnc1

$$$$
