
     RDKit          3D

 40 43  0  0  0  0  0  0  0  0999 V2000
    7.7306    2.8142   21.9758 C   0  0  0  0  0  0  0  0  0  0  0  0
    9.1032    2.4092   22.4263 C   0  0  0  0  0  0  0  0  0  0  0  0
    9.9386    1.4190   21.9779 C   0  0  0  0  0  0  0  0  0  0  0  0
    9.6498    0.4133   20.9192 C   0  0  0  0  0  0  0  0  0  0  0  0
    8.6285   -0.5555   21.3952 C   0  0  0  0  0  0  0  0  0  0  0  0
    8.8419   -1.4002   22.3712 N   0  0  0  0  0  0  0  0  0  0  0  0
    7.6485   -2.0369   22.5121 C   0  0  0  0  0  0  0  0  0  0  0  0
    7.4206   -3.0818   23.5463 C   0  0  0  0  0  0  0  0  0  0  0  0
    8.4646   -3.4685   24.4154 C   0  0  0  0  0  0  0  0  0  0  0  0
    8.2140   -4.4381   25.3777 C   0  0  0  0  0  0  0  0  0  0  0  0
    9.2059   -4.8007   26.2035 F   0  0  0  0  0  0  0  0  0  0  0  0
    6.9704   -5.0463   25.5167 C   0  0  0  0  0  0  0  0  0  0  0  0
    5.9565   -4.6468   24.6525 C   0  0  0  0  0  0  0  0  0  0  0  0
    4.7477   -5.2146   24.7659 F   0  0  0  0  0  0  0  0  0  0  0  0
    6.1481   -3.6802   23.6756 C   0  0  0  0  0  0  0  0  0  0  0  0
    5.3135   -3.3962   23.0422 H   0  0  0  0  0  0  0  0  0  0  0  0
    6.7997   -5.7976   26.2714 H   0  0  0  0  0  0  0  0  0  0  0  0
    9.4565   -3.0286   24.3653 H   0  0  0  0  0  0  0  0  0  0  0  0
    6.7106   -1.6270   21.6694 N   0  0  0  0  0  0  0  0  0  0  0  0
    7.3489   -0.6874   20.9318 N   0  0  0  0  0  0  0  0  0  0  0  0
    6.6521   -0.0095   19.8909 C   0  0  0  0  0  0  0  0  0  0  0  0
    5.4364    0.6278   20.1536 C   0  0  0  0  0  0  0  0  0  0  0  0
    4.8060    1.3083   19.1053 C   0  0  0  0  0  0  0  0  0  0  0  0
    5.3943    1.2973   17.8354 C   0  0  0  0  0  0  0  0  0  0  0  0
    6.5428    0.6580   17.5690 N   0  0  0  0  0  0  0  0  0  0  0  0
    7.1548    0.0303   18.5802 C   0  0  0  0  0  0  0  0  0  0  0  0
    8.0990   -0.4571   18.3418 H   0  0  0  0  0  0  0  0  0  0  0  0
    4.9347    1.8157   16.9964 H   0  0  0  0  0  0  0  0  0  0  0  0
    3.8744    1.8445   19.2540 H   0  0  0  0  0  0  0  0  0  0  0  0
    5.0108    0.5807   21.1574 H   0  0  0  0  0  0  0  0  0  0  0  0
    9.2798    0.8937   20.0134 H   0  0  0  0  0  0  0  0  0  0  0  0
   10.5689   -0.1412   20.7255 H   0  0  0  0  0  0  0  0  0  0  0  0
   11.0841    1.3539   22.7245 N   0  0  0  0  0  0  0  0  0  0  0  0
   10.9614    2.2931   23.6245 C   0  0  0  0  0  0  0  0  0  0  0  0
    9.7809    2.9624   23.4946 N   0  0  0  0  0  0  0  0  0  0  0  0
    9.4693    3.7462   24.0430 H   0  0  0  0  0  0  0  0  0  0  0  0
   11.6721    2.5168   24.4127 H   0  0  0  0  0  0  0  0  0  0  0  0
    6.9514    2.1566   22.3799 H   0  0  0  0  0  0  0  0  0  0  0  0
    7.6612    2.7032   20.8926 H   0  0  0  0  0  0  0  0  0  0  0  0
    7.4550    3.8409   22.2373 H   0  0  0  0  0  0  0  0  0  0  0  0
  1  2  1  0
  2  3  2  0
  3  4  1  0
  4  5  1  0
  5  6  2  0
  6  7  1  0
  7  8  1  0
  8  9  2  0
  9 10  1  0
 10 11  1  0
 10 12  2  0
 12 13  1  0
 13 14  1  0
 13 15  2  0
 15 16  1  0
 12 17  1  0
  9 18  1  0
  7 19  2  0
 19 20  1  0
 20 21  1  0
 21 22  2  0
 22 23  1  0
 23 24  2  0
 24 25  1  0
 25 26  2  0
 26 27  1  0
 24 28  1  0
 23 29  1  0
 22 30  1  0
  4 31  1  0
  4 32  1  0
  3 33  1  0
 33 34  2  0
 34 35  1  0
 35 36  1  0
 34 37  1  0
  1 38  1  0
  1 39  1  0
  1 40  1  0
 35  2  1  0
 20  5  1  0
 26 21  1  0
 15  8  1  0
M  END
>  <cnnaffinity>  (1) 
-6.05512

>  <filename>  (1) 
Cc1[nH]cnc1Cc1nc(-c2cc(F)cc(F)c2)nn1-c1cccnc1

$$$$
