
     RDKit          3D

 40 43  0  0  0  0  0  0  0  0999 V2000
    6.9626    0.2973   25.3226 C   0  0  0  0  0  0  0  0  0  0  0  0
    6.4696    1.3308   24.3648 C   0  0  0  0  0  0  0  0  0  0  0  0
    6.9270    1.7899   23.1534 C   0  0  0  0  0  0  0  0  0  0  0  0
    8.0774    1.3212   22.3218 C   0  0  0  0  0  0  0  0  0  0  0  0
    7.9348   -0.1224   21.9936 C   0  0  0  0  0  0  0  0  0  0  0  0
    8.3530   -1.0765   22.7849 N   0  0  0  0  0  0  0  0  0  0  0  0
    8.0157   -2.2249   22.1272 C   0  0  0  0  0  0  0  0  0  0  0  0
    8.3031   -3.5319   22.7532 C   0  0  0  0  0  0  0  0  0  0  0  0
    8.9318   -3.5465   24.0181 C   0  0  0  0  0  0  0  0  0  0  0  0
    9.3035   -4.7304   24.6355 C   0  0  0  0  0  0  0  0  0  0  0  0
    9.0688   -5.9483   24.0025 C   0  0  0  0  0  0  0  0  0  0  0  0
    8.3920   -5.9803   22.7809 C   0  0  0  0  0  0  0  0  0  0  0  0
    7.9888   -4.7823   22.1772 C   0  0  0  0  0  0  0  0  0  0  0  0
    7.0883   -4.9378   20.7035 Cl  0  0  0  0  0  0  0  0  0  0  0  0
    8.1532   -6.9124   22.2801 H   0  0  0  0  0  0  0  0  0  0  0  0
    9.4647   -6.8412   24.4712 H   0  0  0  0  0  0  0  0  0  0  0  0
    9.7787   -4.7071   25.6111 H   0  0  0  0  0  0  0  0  0  0  0  0
    9.1374   -2.6074   24.5172 H   0  0  0  0  0  0  0  0  0  0  0  0
    7.4273   -2.0194   20.9624 N   0  0  0  0  0  0  0  0  0  0  0  0
    7.3517   -0.6668   20.8901 N   0  0  0  0  0  0  0  0  0  0  0  0
    6.6536   -0.0178   19.8224 C   0  0  0  0  0  0  0  0  0  0  0  0
    5.4712    0.6850   20.0676 C   0  0  0  0  0  0  0  0  0  0  0  0
    4.8501    1.3376   18.9978 C   0  0  0  0  0  0  0  0  0  0  0  0
    5.4430    1.2667   17.7338 C   0  0  0  0  0  0  0  0  0  0  0  0
    6.5733    0.5797   17.4903 N   0  0  0  0  0  0  0  0  0  0  0  0
    7.1592   -0.0531   18.5131 C   0  0  0  0  0  0  0  0  0  0  0  0
    8.0796   -0.5922   18.2994 H   0  0  0  0  0  0  0  0  0  0  0  0
    4.9955    1.7758   16.8817 H   0  0  0  0  0  0  0  0  0  0  0  0
    3.9335    1.9014   19.1384 H   0  0  0  0  0  0  0  0  0  0  0  0
    5.0608    0.7240   21.0756 H   0  0  0  0  0  0  0  0  0  0  0  0
    8.1319    1.9387   21.4225 H   0  0  0  0  0  0  0  0  0  0  0  0
    9.0158    1.4215   22.8760 H   0  0  0  0  0  0  0  0  0  0  0  0
    6.0970    2.7637   22.6629 N   0  0  0  0  0  0  0  0  0  0  0  0
    5.1481    2.9074   23.5472 C   0  0  0  0  0  0  0  0  0  0  0  0
    5.3182    2.0581   24.5943 N   0  0  0  0  0  0  0  0  0  0  0  0
    4.7216    1.9763   25.4009 H   0  0  0  0  0  0  0  0  0  0  0  0
    4.3234    3.6044   23.4700 H   0  0  0  0  0  0  0  0  0  0  0  0
    8.0544    0.2677   25.3167 H   0  0  0  0  0  0  0  0  0  0  0  0
    6.6277    0.4785   26.3495 H   0  0  0  0  0  0  0  0  0  0  0  0
    6.6160   -0.6971   25.0263 H   0  0  0  0  0  0  0  0  0  0  0  0
  1  2  1  0
  2  3  2  0
  3  4  1  0
  4  5  1  0
  5  6  2  0
  6  7  1  0
  7  8  1  0
  8  9  2  0
  9 10  1  0
 10 11  2  0
 11 12  1  0
 12 13  2  0
 13 14  1  0
 12 15  1  0
 11 16  1  0
 10 17  1  0
  9 18  1  0
  7 19  2  0
 19 20  1  0
 20 21  1  0
 21 22  2  0
 22 23  1  0
 23 24  2  0
 24 25  1  0
 25 26  2  0
 26 27  1  0
 24 28  1  0
 23 29  1  0
 22 30  1  0
  4 31  1  0
  4 32  1  0
  3 33  1  0
 33 34  2  0
 34 35  1  0
 35 36  1  0
 34 37  1  0
  1 38  1  0
  1 39  1  0
  1 40  1  0
 35  2  1  0
 20  5  1  0
 26 21  1  0
 13  8  1  0
M  END
>  <cnnaffinity>  (1) 
-6.06835

>  <filename>  (1) 
Cc1[nH]cnc1Cc1nc(-c2ccccc2Cl)nn1-c1cccnc1

$$$$
