
     RDKit          3D

 44 47  0  0  0  0  0  0  0  0999 V2000
   16.0331   -0.3093   19.6498 C   0  0  0  0  0  0  0  0  0  0  0  0
   14.7309   -0.8033   20.5139 C   0  0  0  0  0  0  0  0  0  0  0  0
   13.7885   -1.8179   20.2951 C   0  0  0  0  0  0  0  0  0  0  0  0
   12.4969   -1.6651   20.8270 C   0  0  0  0  0  0  0  0  0  0  0  0
   12.1228   -0.5720   21.6197 C   0  0  0  0  0  0  0  0  0  0  0  0
   10.6879   -0.2210   21.7588 C   0  0  0  0  0  0  0  0  0  0  0  0
    9.7103   -0.9509   21.2377 N   0  0  0  0  0  0  0  0  0  0  0  0
    8.5939   -0.2570   21.5498 N   0  0  0  0  0  0  0  0  0  0  0  0
    7.2787   -0.7183   21.1158 C   0  0  0  0  0  0  0  0  0  0  0  0
    6.6374    0.0825   19.9933 C   0  0  0  0  0  0  0  0  0  0  0  0
    5.4007    0.7259   20.1386 C   0  0  0  0  0  0  0  0  0  0  0  0
    4.8245    1.3546   19.0307 C   0  0  0  0  0  0  0  0  0  0  0  0
    5.5134    1.3266   17.8139 C   0  0  0  0  0  0  0  0  0  0  0  0
    6.7074    0.7335   17.6565 N   0  0  0  0  0  0  0  0  0  0  0  0
    7.2491    0.1416   18.7283 C   0  0  0  0  0  0  0  0  0  0  0  0
    8.2176   -0.3322   18.5709 H   0  0  0  0  0  0  0  0  0  0  0  0
    5.0892    1.7934   16.9256 H   0  0  0  0  0  0  0  0  0  0  0  0
    3.8702    1.8671   19.0947 H   0  0  0  0  0  0  0  0  0  0  0  0
    4.8892    0.7311   21.1057 H   0  0  0  0  0  0  0  0  0  0  0  0
    7.4229   -1.7601   20.8159 H   0  0  0  0  0  0  0  0  0  0  0  0
    6.6117   -0.7241   21.9846 H   0  0  0  0  0  0  0  0  0  0  0  0
    8.9426    0.8631   22.2111 C   0  0  0  0  0  0  0  0  0  0  0  0
    7.9415    1.7719   22.8581 C   0  0  0  0  0  0  0  0  0  0  0  0
    7.4919    1.1791   24.1717 C   0  0  0  0  0  0  0  0  0  0  0  0
    8.3542    0.9599   25.2157 C   0  0  0  0  0  0  0  0  0  0  0  0
    7.7002    0.2303   26.1679 N   0  0  0  0  0  0  0  0  0  0  0  0
    6.4186   -0.0234   25.7497 C   0  0  0  0  0  0  0  0  0  0  0  0
    6.2602    0.5638   24.5172 C   0  0  0  0  0  0  0  0  0  0  0  0
    5.3604    0.5612   23.9103 H   0  0  0  0  0  0  0  0  0  0  0  0
    5.7337   -0.5962   26.3628 H   0  0  0  0  0  0  0  0  0  0  0  0
    8.1278   -0.1030   27.0160 H   0  0  0  0  0  0  0  0  0  0  0  0
    9.3954    1.2345   25.2832 H   0  0  0  0  0  0  0  0  0  0  0  0
    8.4292    2.7406   23.0004 H   0  0  0  0  0  0  0  0  0  0  0  0
    7.0933    1.9281   22.1841 H   0  0  0  0  0  0  0  0  0  0  0  0
   10.2507    0.9198   22.3610 N   0  0  0  0  0  0  0  0  0  0  0  0
   13.1626    0.2195   22.1494 C   0  0  0  0  0  0  0  0  0  0  0  0
   14.4400    0.0654   21.6301 C   0  0  0  0  0  0  0  0  0  0  0  0
   15.2131    0.7444   21.9877 H   0  0  0  0  0  0  0  0  0  0  0  0
   12.9616    1.0145   22.8631 H   0  0  0  0  0  0  0  0  0  0  0  0
   11.6994   -2.3539   20.6237 H   0  0  0  0  0  0  0  0  0  0  0  0
   14.0150   -2.7351   19.7610 H   0  0  0  0  0  0  0  0  0  0  0  0
   15.9469    0.1191   18.6419 H   0  0  0  0  0  0  0  0  0  0  0  0
   16.8545   -1.0251   19.6464 H   0  0  0  0  0  0  0  0  0  0  0  0
   16.3885    0.5775   20.1557 H   0  0  0  0  0  0  0  0  0  0  0  0
  1  2  1  0
  2  3  2  0
  3  4  1  0
  4  5  2  0
  5  6  1  0
  6  7  2  0
  7  8  1  0
  8  9  1  0
  9 10  1  0
 10 11  2  0
 11 12  1  0
 12 13  2  0
 13 14  1  0
 14 15  2  0
 15 16  1  0
 13 17  1  0
 12 18  1  0
 11 19  1  0
  9 20  1  0
  9 21  1  0
  8 22  1  0
 22 23  1  0
 23 24  1  0
 24 25  2  0
 25 26  1  0
 26 27  1  0
 27 28  2  0
 28 29  1  0
 27 30  1  0
 26 31  1  0
 25 32  1  0
 23 33  1  0
 23 34  1  0
 22 35  2  0
  5 36  1  0
 36 37  2  0
 37 38  1  0
 36 39  1  0
  4 40  1  0
  3 41  1  0
  1 42  1  0
  1 43  1  0
  1 44  1  0
 37  2  1  0
 35  6  1  0
 15 10  1  0
 28 24  1  0
M  END
>  <cnnaffinity>  (1) 
-6.33449

>  <filename>  (1) 
Cc1ccc(-c2nc(Cc3cc[nH]c3)n(Cc3cccnc3)n2)cc1

$$$$
