
     RDKit          3D

 43 46  0  0  0  0  0  0  0  0999 V2000
    7.9527   -0.1781   27.2154 C   0  0  0  0  0  0  0  0  0  0  0  0
    7.0431    0.2423   26.0997 C   0  0  0  0  0  0  0  0  0  0  0  0
    7.4888    1.0956   25.1909 N   0  0  0  0  0  0  0  0  0  0  0  0
    6.5243    1.2026   24.2642 N   0  0  0  0  0  0  0  0  0  0  0  0
    6.8933    1.7653   22.9648 C   0  0  0  0  0  0  0  0  0  0  0  0
    8.0151    0.9781   22.3639 C   0  0  0  0  0  0  0  0  0  0  0  0
    9.2804    1.2757   22.5219 N   0  0  0  0  0  0  0  0  0  0  0  0
    9.9253    0.1498   22.1139 C   0  0  0  0  0  0  0  0  0  0  0  0
   11.3939    0.0449   22.2548 C   0  0  0  0  0  0  0  0  0  0  0  0
   12.1321   -1.0074   21.6742 C   0  0  0  0  0  0  0  0  0  0  0  0
   13.5089   -1.0225   21.8647 C   0  0  0  0  0  0  0  0  0  0  0  0
   14.2250   -2.0336   21.3522 F   0  0  0  0  0  0  0  0  0  0  0  0
   14.1729   -0.0108   22.5560 C   0  0  0  0  0  0  0  0  0  0  0  0
   13.4376    1.0281   23.1260 C   0  0  0  0  0  0  0  0  0  0  0  0
   12.0537    1.0498   22.9967 C   0  0  0  0  0  0  0  0  0  0  0  0
   11.4673    1.8549   23.4351 H   0  0  0  0  0  0  0  0  0  0  0  0
   13.9416    1.8218   23.6717 H   0  0  0  0  0  0  0  0  0  0  0  0
   15.2443   -0.0148   22.6048 H   0  0  0  0  0  0  0  0  0  0  0  0
   11.6598   -1.7950   21.0882 H   0  0  0  0  0  0  0  0  0  0  0  0
    9.1183   -0.7962   21.6609 N   0  0  0  0  0  0  0  0  0  0  0  0
    7.8857   -0.2508   21.8167 N   0  0  0  0  0  0  0  0  0  0  0  0
    6.7099   -0.8583   21.1935 C   0  0  0  0  0  0  0  0  0  0  0  0
    6.2026   -0.0802   19.9915 C   0  0  0  0  0  0  0  0  0  0  0  0
    4.9834    0.6085   19.9675 C   0  0  0  0  0  0  0  0  0  0  0  0
    4.6804    1.4003   18.8534 C   0  0  0  0  0  0  0  0  0  0  0  0
    5.5841    1.4375   17.7863 C   0  0  0  0  0  0  0  0  0  0  0  0
    6.7326    0.7437   17.7687 N   0  0  0  0  0  0  0  0  0  0  0  0
    7.0233    0.0121   18.8508 C   0  0  0  0  0  0  0  0  0  0  0  0
    7.9628   -0.5419   18.8141 H   0  0  0  0  0  0  0  0  0  0  0  0
    5.3743    2.0377   16.9014 H   0  0  0  0  0  0  0  0  0  0  0  0
    3.7852    2.0106   18.8144 H   0  0  0  0  0  0  0  0  0  0  0  0
    4.2722    0.5277   20.7957 H   0  0  0  0  0  0  0  0  0  0  0  0
    7.0226   -1.8680   20.9157 H   0  0  0  0  0  0  0  0  0  0  0  0
    5.9254   -0.9635   21.9491 H   0  0  0  0  0  0  0  0  0  0  0  0
    7.2737    2.7716   23.1410 H   0  0  0  0  0  0  0  0  0  0  0  0
    6.0273    1.7854   22.2968 H   0  0  0  0  0  0  0  0  0  0  0  0
    5.4371    0.4679   24.6059 C   0  0  0  0  0  0  0  0  0  0  0  0
    5.7353   -0.1862   25.7813 C   0  0  0  0  0  0  0  0  0  0  0  0
    5.1372   -0.8933   26.3421 H   0  0  0  0  0  0  0  0  0  0  0  0
    4.5355    0.5305   24.0134 H   0  0  0  0  0  0  0  0  0  0  0  0
    7.6441   -1.1416   27.6291 H   0  0  0  0  0  0  0  0  0  0  0  0
    8.9743   -0.2748   26.8335 H   0  0  0  0  0  0  0  0  0  0  0  0
    7.9580    0.5651   28.0194 H   0  0  0  0  0  0  0  0  0  0  0  0
  1  2  1  0
  2  3  2  0
  3  4  1  0
  4  5  1  0
  5  6  1  0
  6  7  2  0
  7  8  1  0
  8  9  1  0
  9 10  2  0
 10 11  1  0
 11 12  1  0
 11 13  2  0
 13 14  1  0
 14 15  2  0
 15 16  1  0
 14 17  1  0
 13 18  1  0
 10 19  1  0
  8 20  2  0
 20 21  1  0
 21 22  1  0
 22 23  1  0
 23 24  2  0
 24 25  1  0
 25 26  2  0
 26 27  1  0
 27 28  2  0
 28 29  1  0
 26 30  1  0
 25 31  1  0
 24 32  1  0
 22 33  1  0
 22 34  1  0
  5 35  1  0
  5 36  1  0
  4 37  1  0
 37 38  2  0
 38 39  1  0
 37 40  1  0
  1 41  1  0
  1 42  1  0
  1 43  1  0
 38  2  1  0
 21  6  1  0
 28 23  1  0
 15  9  1  0
M  END
>  <cnnaffinity>  (1) 
-6.36925

>  <filename>  (1) 
Cc1ccn(Cc2nc(-c3cccc(F)c3)nn2Cc2cccnc2)n1

$$$$
