
     RDKit          3D

 44 47  0  0  0  0  0  0  0  0999 V2000
    9.0484    1.9376   21.0700 C   0  0  0  0  0  0  0  0  0  0  0  0
    9.1385    2.0516   22.5714 C   0  0  0  0  0  0  0  0  0  0  0  0
   10.3993    2.3316   23.1129 C   0  0  0  0  0  0  0  0  0  0  0  0
   10.5997    2.2269   24.4821 C   0  0  0  0  0  0  0  0  0  0  0  0
   11.8608    2.3552   24.9337 F   0  0  0  0  0  0  0  0  0  0  0  0
    9.5619    1.9517   25.3612 C   0  0  0  0  0  0  0  0  0  0  0  0
    8.2757    1.7735   24.8238 C   0  0  0  0  0  0  0  0  0  0  0  0
    8.0543    1.7786   23.4345 C   0  0  0  0  0  0  0  0  0  0  0  0
    6.7458    1.2362   22.8516 C   0  0  0  0  0  0  0  0  0  0  0  0
    6.9487   -0.1813   22.3706 C   0  0  0  0  0  0  0  0  0  0  0  0
    7.4369   -1.1293   23.1464 N   0  0  0  0  0  0  0  0  0  0  0  0
    7.7635   -2.1198   22.2758 C   0  0  0  0  0  0  0  0  0  0  0  0
    8.4708   -3.3244   22.7779 C   0  0  0  0  0  0  0  0  0  0  0  0
    7.7830   -4.0199   23.9752 C   0  0  0  0  0  0  0  0  0  0  0  0
    8.9618   -4.6802   24.7103 C   0  0  0  0  0  0  0  0  0  0  0  0
   10.1510   -4.0912   24.1973 O   0  0  0  0  0  0  0  0  0  0  0  0
    9.8286   -2.9699   23.4021 C   0  0  0  0  0  0  0  0  0  0  0  0
    9.7465   -2.0579   24.0221 H   0  0  0  0  0  0  0  0  0  0  0  0
   10.6277   -2.8298   22.6651 H   0  0  0  0  0  0  0  0  0  0  0  0
    8.9061   -4.4985   25.7927 H   0  0  0  0  0  0  0  0  0  0  0  0
    9.0191   -5.7642   24.5354 H   0  0  0  0  0  0  0  0  0  0  0  0
    7.3193   -3.2681   24.6312 H   0  0  0  0  0  0  0  0  0  0  0  0
    7.0042   -4.7259   23.6721 H   0  0  0  0  0  0  0  0  0  0  0  0
    8.6265   -4.0200   21.9453 H   0  0  0  0  0  0  0  0  0  0  0  0
    7.4741   -1.8776   21.0178 N   0  0  0  0  0  0  0  0  0  0  0  0
    6.8932   -0.6419   21.0798 N   0  0  0  0  0  0  0  0  0  0  0  0
    6.3842   -0.0505   19.8958 C   0  0  0  0  0  0  0  0  0  0  0  0
    5.2152    0.7219   19.8840 C   0  0  0  0  0  0  0  0  0  0  0  0
    4.8393    1.3155   18.6720 C   0  0  0  0  0  0  0  0  0  0  0  0
    5.6258    1.1169   17.5334 C   0  0  0  0  0  0  0  0  0  0  0  0
    6.7290    0.3476   17.5324 N   0  0  0  0  0  0  0  0  0  0  0  0
    7.0812   -0.2341   18.6850 C   0  0  0  0  0  0  0  0  0  0  0  0
    7.9641   -0.8705   18.6749 H   0  0  0  0  0  0  0  0  0  0  0  0
    5.3660    1.5832   16.5844 H   0  0  0  0  0  0  0  0  0  0  0  0
    3.9608    1.9477   18.6147 H   0  0  0  0  0  0  0  0  0  0  0  0
    4.6194    0.8510   20.7886 H   0  0  0  0  0  0  0  0  0  0  0  0
    5.9719    1.2296   23.6238 H   0  0  0  0  0  0  0  0  0  0  0  0
    6.3914    1.8667   22.0310 H   0  0  0  0  0  0  0  0  0  0  0  0
    7.4309    1.5902   25.4899 H   0  0  0  0  0  0  0  0  0  0  0  0
    9.7728    1.8560   26.4234 H   0  0  0  0  0  0  0  0  0  0  0  0
   11.2312    2.6117   22.4716 H   0  0  0  0  0  0  0  0  0  0  0  0
    8.2418    2.5368   20.6443 H   0  0  0  0  0  0  0  0  0  0  0  0
   10.0016    2.2663   20.6531 H   0  0  0  0  0  0  0  0  0  0  0  0
    8.8811    0.8971   20.7633 H   0  0  0  0  0  0  0  0  0  0  0  0
  1  2  1  0
  2  3  2  0
  3  4  1  0
  4  5  1  0
  4  6  2  0
  6  7  1  0
  7  8  2  0
  8  9  1  0
  9 10  1  0
 10 11  2  0
 11 12  1  0
 12 13  1  0
 13 14  1  0
 14 15  1  0
 15 16  1  0
 16 17  1  0
 17 18  1  0
 17 19  1  0
 15 20  1  0
 15 21  1  0
 14 22  1  0
 14 23  1  0
 13 24  1  0
 12 25  2  0
 25 26  1  0
 26 27  1  0
 27 28  2  0
 28 29  1  0
 29 30  2  0
 30 31  1  0
 31 32  2  0
 32 33  1  0
 30 34  1  0
 29 35  1  0
 28 36  1  0
  9 37  1  0
  9 38  1  0
  7 39  1  0
  6 40  1  0
  3 41  1  0
  1 42  1  0
  1 43  1  0
  1 44  1  0
  8  2  1  0
 26 10  1  0
 32 27  1  0
 17 13  1  0
M  END
>  <cnnaffinity>  (1) 
-6.02552

>  <filename>  (1) 
Cc1cc(F)ccc1Cc1nc(C2CCOC2)nn1-c1cccnc1

$$$$
