
     RDKit          3D

 35 37  0  0  0  0  0  0  0  0999 V2000
    9.0225   -3.0822   22.2048 H   0  0  0  0  0  0  0  0  0  0  0  0
    8.4573   -2.2048   21.9240 C   0  0  0  0  0  0  0  0  0  0  0  0
    8.0742   -1.8701   20.7418 N   0  0  0  0  0  0  0  0  0  0  0  0
    7.3634   -0.6943   20.9405 C   0  0  0  0  0  0  0  0  0  0  0  0
    6.6465   -0.0001   19.8832 C   0  0  0  0  0  0  0  0  0  0  0  0
    7.1678    0.0432   18.5792 C   0  0  0  0  0  0  0  0  0  0  0  0
    8.1192   -0.4348   18.3627 H   0  0  0  0  0  0  0  0  0  0  0  0
    6.5671    0.6757   17.5683 N   0  0  0  0  0  0  0  0  0  0  0  0
    5.4056    1.2936   17.8347 C   0  0  0  0  0  0  0  0  0  0  0  0
    4.9255    1.7856   16.9935 H   0  0  0  0  0  0  0  0  0  0  0  0
    4.8031    1.3125   19.0996 C   0  0  0  0  0  0  0  0  0  0  0  0
    3.8718    1.8434   19.2502 H   0  0  0  0  0  0  0  0  0  0  0  0
    5.4332    0.6562   20.1516 C   0  0  0  0  0  0  0  0  0  0  0  0
    5.0116    0.6361   21.1607 H   0  0  0  0  0  0  0  0  0  0  0  0
    7.4050   -0.3698   22.2752 C   0  0  0  0  0  0  0  0  0  0  0  0
    6.9764    0.7179   22.9744 N   0  0  0  0  0  0  0  0  0  0  0  0
    7.2590    2.0669   22.4945 C   0  0  0  0  0  0  0  0  0  0  0  0
    6.3411    2.6775   22.4816 H   0  0  0  0  0  0  0  0  0  0  0  0
    7.6161    2.0133   21.4624 H   0  0  0  0  0  0  0  0  0  0  0  0
    8.2905    2.7334   23.4054 C   0  0  0  0  0  0  0  0  0  0  0  0
    8.4714    3.7651   23.0839 H   0  0  0  0  0  0  0  0  0  0  0  0
    9.2446    2.2053   23.2949 H   0  0  0  0  0  0  0  0  0  0  0  0
    7.8478    2.6959   24.8752 C   0  0  0  0  0  0  0  0  0  0  0  0
    6.9338    3.3025   24.9640 H   0  0  0  0  0  0  0  0  0  0  0  0
    8.9097    3.2939   25.7908 C   0  0  0  0  0  0  0  0  0  0  0  0
    8.5906    3.2879   26.8380 H   0  0  0  0  0  0  0  0  0  0  0  0
    9.8288    2.7032   25.7217 H   0  0  0  0  0  0  0  0  0  0  0  0
    9.1512    4.3255   25.5134 H   0  0  0  0  0  0  0  0  0  0  0  0
    7.5022    1.2568   25.2907 C   0  0  0  0  0  0  0  0  0  0  0  0
    8.4083    0.6404   25.2761 H   0  0  0  0  0  0  0  0  0  0  0  0
    7.1242    1.2371   26.3187 H   0  0  0  0  0  0  0  0  0  0  0  0
    6.4895    0.6279   24.3407 C   0  0  0  0  0  0  0  0  0  0  0  0
    5.5359    1.1721   24.4188 H   0  0  0  0  0  0  0  0  0  0  0  0
    6.2857   -0.4174   24.5789 H   0  0  0  0  0  0  0  0  0  0  0  0
    8.0976   -1.3549   22.9168 O   0  0  0  0  0  0  0  0  0  0  0  0
  1  2  1  0
  2  3  2  0
  3  4  1  0
  4  5  1  0
  5  6  2  0
  6  7  1  0
  6  8  1  0
  8  9  2  0
  9 10  1  0
  9 11  1  0
 11 12  1  0
 11 13  2  0
 13 14  1  0
  4 15  2  0
 15 16  1  0
 16 17  1  0
 17 18  1  0
 17 19  1  0
 17 20  1  0
 20 21  1  0
 20 22  1  0
 20 23  1  0
 23 24  1  0
 23 25  1  0
 25 26  1  0
 25 27  1  0
 25 28  1  0
 23 29  1  0
 29 30  1  0
 29 31  1  0
 29 32  1  0
 32 33  1  0
 32 34  1  0
 15 35  1  0
 35  2  1  0
 13  5  1  0
 32 16  1  0
M  END
>  <cnnaffinity>  (1) 
-4.92875

>  <filename>  (1) 
CC1CCN(c2ocnc2-c2cccnc2)CC1

$$$$
