
     RDKit          3D

 46 49  0  0  0  0  0  0  0  0999 V2000
   13.8477    1.6337   23.2262 C   0  0  0  0  0  0  0  0  0  0  0  0
   12.9973    0.5324   22.6574 C   0  0  0  0  0  0  0  0  0  0  0  0
   13.5751   -0.6635   22.2110 C   0  0  0  0  0  0  0  0  0  0  0  0
   12.7986   -1.6401   21.5842 C   0  0  0  0  0  0  0  0  0  0  0  0
   11.4186   -1.4697   21.4474 C   0  0  0  0  0  0  0  0  0  0  0  0
   10.8134   -0.2938   21.9356 C   0  0  0  0  0  0  0  0  0  0  0  0
    9.3495   -0.0751   21.8678 C   0  0  0  0  0  0  0  0  0  0  0  0
    8.4809   -0.9185   21.3320 N   0  0  0  0  0  0  0  0  0  0  0  0
    7.2852   -0.3198   21.5448 N   0  0  0  0  0  0  0  0  0  0  0  0
    6.0926   -0.8240   20.8642 C   0  0  0  0  0  0  0  0  0  0  0  0
    5.7406   -0.0472   19.6112 C   0  0  0  0  0  0  0  0  0  0  0  0
    4.6082    0.7708   19.5417 C   0  0  0  0  0  0  0  0  0  0  0  0
    4.4081    1.5512   18.4029 C   0  0  0  0  0  0  0  0  0  0  0  0
    5.3339    1.4630   17.3617 C   0  0  0  0  0  0  0  0  0  0  0  0
    6.4034    0.6543   17.3882 N   0  0  0  0  0  0  0  0  0  0  0  0
    6.5900   -0.0769   18.4941 C   0  0  0  0  0  0  0  0  0  0  0  0
    7.4529   -0.7433   18.4851 H   0  0  0  0  0  0  0  0  0  0  0  0
    5.2150    2.0672   16.4645 H   0  0  0  0  0  0  0  0  0  0  0  0
    3.5719    2.2358   18.3178 H   0  0  0  0  0  0  0  0  0  0  0  0
    3.8808    0.7830   20.3555 H   0  0  0  0  0  0  0  0  0  0  0  0
    6.2806   -1.8831   20.6574 H   0  0  0  0  0  0  0  0  0  0  0  0
    5.2593   -0.7729   21.5615 H   0  0  0  0  0  0  0  0  0  0  0  0
    7.4843    0.8440   22.2068 C   0  0  0  0  0  0  0  0  0  0  0  0
    6.4560    1.6645   22.9211 C   0  0  0  0  0  0  0  0  0  0  0  0
    6.4072    1.1741   24.3415 C   0  0  0  0  0  0  0  0  0  0  0  0
    5.6451    0.1514   24.6640 N   0  0  0  0  0  0  0  0  0  0  0  0
    5.9534   -0.1654   25.9422 N   0  0  0  0  0  0  0  0  0  0  0  0
    5.3546   -1.3297   26.5278 C   0  0  0  0  0  0  0  0  0  0  0  0
    4.8447   -1.0287   27.7503 F   0  0  0  0  0  0  0  0  0  0  0  0
    6.2818   -2.3066   26.7217 F   0  0  0  0  0  0  0  0  0  0  0  0
    4.5745   -1.6665   25.8402 H   0  0  0  0  0  0  0  0  0  0  0  0
    6.9231    0.6621   26.4346 C   0  0  0  0  0  0  0  0  0  0  0  0
    7.2374    1.5390   25.4304 C   0  0  0  0  0  0  0  0  0  0  0  0
    8.0004    2.3045   25.4361 H   0  0  0  0  0  0  0  0  0  0  0  0
    7.3140    0.5409   27.4371 H   0  0  0  0  0  0  0  0  0  0  0  0
    5.4681    1.5894   22.4541 H   0  0  0  0  0  0  0  0  0  0  0  0
    6.8023    2.7012   22.8863 H   0  0  0  0  0  0  0  0  0  0  0  0
    8.7703    1.0366   22.3986 N   0  0  0  0  0  0  0  0  0  0  0  0
   11.6184    0.7078   22.5032 C   0  0  0  0  0  0  0  0  0  0  0  0
   11.1577    1.6502   22.7956 H   0  0  0  0  0  0  0  0  0  0  0  0
   10.8027   -2.2257   20.9693 H   0  0  0  0  0  0  0  0  0  0  0  0
   13.2940   -2.5097   21.1755 H   0  0  0  0  0  0  0  0  0  0  0  0
   14.6438   -0.8265   22.3319 H   0  0  0  0  0  0  0  0  0  0  0  0
   13.6957    1.7473   24.3043 H   0  0  0  0  0  0  0  0  0  0  0  0
   13.6091    2.5927   22.7522 H   0  0  0  0  0  0  0  0  0  0  0  0
   14.9001    1.4135   23.0373 H   0  0  0  0  0  0  0  0  0  0  0  0
  1  2  1  0
  2  3  2  0
  3  4  1  0
  4  5  2  0
  5  6  1  0
  6  7  1  0
  7  8  2  0
  8  9  1  0
  9 10  1  0
 10 11  1  0
 11 12  2  0
 12 13  1  0
 13 14  2  0
 14 15  1  0
 15 16  2  0
 16 17  1  0
 14 18  1  0
 13 19  1  0
 12 20  1  0
 10 21  1  0
 10 22  1  0
  9 23  1  0
 23 24  1  0
 24 25  1  0
 25 26  2  0
 26 27  1  0
 27 28  1  0
 28 29  1  0
 28 30  1  0
 28 31  1  0
 27 32  1  0
 32 33  2  0
 33 34  1  0
 32 35  1  0
 24 36  1  0
 24 37  1  0
 23 38  2  0
  6 39  2  0
 39 40  1  0
  5 41  1  0
  4 42  1  0
  3 43  1  0
  1 44  1  0
  1 45  1  0
  1 46  1  0
 39  2  1  0
 38  7  1  0
 16 11  1  0
 33 25  1  0
M  END
>  <cnnaffinity>  (1) 
-6.59232

>  <filename>  (1) 
Cc1cccc(-c2nc(Cc3ccn(C(F)F)n3)n(Cc3cccnc3)n2)c1

$$$$
