
     RDKit          3D

 45 48  0  0  0  0  0  0  0  0999 V2000
   12.2179   -1.3204   21.1198 C   0  0  0  0  0  0  0  0  0  0  0  0
   11.9167   -0.0600   21.8743 C   0  0  0  0  0  0  0  0  0  0  0  0
   12.7979    0.4037   22.8541 C   0  0  0  0  0  0  0  0  0  0  0  0
   12.4869    1.5564   23.5691 C   0  0  0  0  0  0  0  0  0  0  0  0
   11.3687    2.2657   23.3920 N   0  0  0  0  0  0  0  0  0  0  0  0
   10.5372    1.8250   22.4400 C   0  0  0  0  0  0  0  0  0  0  0  0
   10.7566    0.7013   21.6338 C   0  0  0  0  0  0  0  0  0  0  0  0
    9.6701    0.2354   20.6798 C   0  0  0  0  0  0  0  0  0  0  0  0
    8.6371   -0.6324   21.3291 C   0  0  0  0  0  0  0  0  0  0  0  0
    8.8495   -1.4761   22.3122 N   0  0  0  0  0  0  0  0  0  0  0  0
    7.6144   -1.9900   22.5537 C   0  0  0  0  0  0  0  0  0  0  0  0
    7.3933   -2.9659   23.6613 C   0  0  0  0  0  0  0  0  0  0  0  0
    8.2546   -4.2398   23.5454 C   0  0  0  0  0  0  0  0  0  0  0  0
    8.3562   -4.7996   24.9743 C   0  0  0  0  0  0  0  0  0  0  0  0
    8.0228   -3.6342   25.9376 C   0  0  0  0  0  0  0  0  0  0  0  0
    7.7221   -2.4049   25.0623 C   0  0  0  0  0  0  0  0  0  0  0  0
    6.8971   -1.8018   25.4586 H   0  0  0  0  0  0  0  0  0  0  0  0
    8.5996   -1.7495   25.0057 H   0  0  0  0  0  0  0  0  0  0  0  0
    8.8476   -3.4298   26.6280 H   0  0  0  0  0  0  0  0  0  0  0  0
    7.1597   -3.8921   26.5616 H   0  0  0  0  0  0  0  0  0  0  0  0
    7.6534   -5.6271   25.1222 H   0  0  0  0  0  0  0  0  0  0  0  0
    9.3537   -5.2091   25.1638 H   0  0  0  0  0  0  0  0  0  0  0  0
    9.2499   -3.9832   23.1640 H   0  0  0  0  0  0  0  0  0  0  0  0
    7.8159   -4.9593   22.8450 H   0  0  0  0  0  0  0  0  0  0  0  0
    6.3348   -3.2333   23.6186 H   0  0  0  0  0  0  0  0  0  0  0  0
    6.6689   -1.5467   21.7535 N   0  0  0  0  0  0  0  0  0  0  0  0
    7.3316   -0.6897   20.9347 N   0  0  0  0  0  0  0  0  0  0  0  0
    6.6507    0.0039   19.9000 C   0  0  0  0  0  0  0  0  0  0  0  0
    5.4363    0.6472   20.1649 C   0  0  0  0  0  0  0  0  0  0  0  0
    4.8112    1.3123   19.1091 C   0  0  0  0  0  0  0  0  0  0  0  0
    5.4019    1.2950   17.8376 C   0  0  0  0  0  0  0  0  0  0  0  0
    6.5609    0.6737   17.5791 N   0  0  0  0  0  0  0  0  0  0  0  0
    7.1681    0.0526   18.5930 C   0  0  0  0  0  0  0  0  0  0  0  0
    8.1140   -0.4302   18.3659 H   0  0  0  0  0  0  0  0  0  0  0  0
    4.9183    1.7826   16.9940 H   0  0  0  0  0  0  0  0  0  0  0  0
    3.8786    1.8415   19.2612 H   0  0  0  0  0  0  0  0  0  0  0  0
    5.0160    0.6111   21.1732 H   0  0  0  0  0  0  0  0  0  0  0  0
   10.0484   -0.3819   19.8557 H   0  0  0  0  0  0  0  0  0  0  0  0
    9.1828    1.1047   20.2310 H   0  0  0  0  0  0  0  0  0  0  0  0
    9.6167    2.3886   22.3136 H   0  0  0  0  0  0  0  0  0  0  0  0
   13.1671    1.9259   24.3251 H   0  0  0  0  0  0  0  0  0  0  0  0
   13.7180   -0.1323   23.0502 H   0  0  0  0  0  0  0  0  0  0  0  0
   13.0946   -1.8271   21.5275 H   0  0  0  0  0  0  0  0  0  0  0  0
   11.3693   -2.0114   21.1403 H   0  0  0  0  0  0  0  0  0  0  0  0
   12.4412   -1.1157   20.0710 H   0  0  0  0  0  0  0  0  0  0  0  0
  1  2  1  0
  2  3  2  0
  3  4  1  0
  4  5  2  0
  5  6  1  0
  6  7  2  0
  7  8  1  0
  8  9  1  0
  9 10  2  0
 10 11  1  0
 11 12  1  0
 12 13  1  0
 13 14  1  0
 14 15  1  0
 15 16  1  0
 16 17  1  0
 16 18  1  0
 15 19  1  0
 15 20  1  0
 14 21  1  0
 14 22  1  0
 13 23  1  0
 13 24  1  0
 12 25  1  0
 11 26  2  0
 26 27  1  0
 27 28  1  0
 28 29  2  0
 29 30  1  0
 30 31  2  0
 31 32  1  0
 32 33  2  0
 33 34  1  0
 31 35  1  0
 30 36  1  0
 29 37  1  0
  8 38  1  0
  8 39  1  0
  6 40  1  0
  4 41  1  0
  3 42  1  0
  1 43  1  0
  1 44  1  0
  1 45  1  0
  7  2  1  0
 27  9  1  0
 33 28  1  0
 16 12  1  0
M  END
>  <cnnaffinity>  (1) 
-6.65308

>  <filename>  (1) 
Cc1ccncc1Cc1nc(C2CCCC2)nn1-c1cccnc1

$$$$
