
     RDKit          3D

 50 54  0  0  0  0  0  0  0  0999 V2000
   16.0264   -0.2907   19.6561 C   0  0  0  0  0  0  0  0  0  0  0  0
   14.7267   -0.7897   20.5304 C   0  0  0  0  0  0  0  0  0  0  0  0
   13.7869   -1.8048   20.3108 C   0  0  0  0  0  0  0  0  0  0  0  0
   12.4890   -1.6634   20.8249 C   0  0  0  0  0  0  0  0  0  0  0  0
   12.0821   -0.5740   21.6058 C   0  0  0  0  0  0  0  0  0  0  0  0
   10.6377   -0.2456   21.7434 C   0  0  0  0  0  0  0  0  0  0  0  0
    9.6538   -0.9846   21.2400 N   0  0  0  0  0  0  0  0  0  0  0  0
    8.5406   -0.2933   21.5613 N   0  0  0  0  0  0  0  0  0  0  0  0
    7.2223   -0.7418   21.1225 C   0  0  0  0  0  0  0  0  0  0  0  0
    6.6039    0.0745   19.9989 C   0  0  0  0  0  0  0  0  0  0  0  0
    5.3713    0.7277   20.1261 C   0  0  0  0  0  0  0  0  0  0  0  0
    4.8223    1.3701   19.0118 C   0  0  0  0  0  0  0  0  0  0  0  0
    5.5309    1.3454   17.8087 C   0  0  0  0  0  0  0  0  0  0  0  0
    6.7231    0.7452   17.6691 N   0  0  0  0  0  0  0  0  0  0  0  0
    7.2394    0.1408   18.7464 C   0  0  0  0  0  0  0  0  0  0  0  0
    8.2064   -0.3397   18.6031 H   0  0  0  0  0  0  0  0  0  0  0  0
    5.1251    1.8226   16.9170 H   0  0  0  0  0  0  0  0  0  0  0  0
    3.8709    1.8875   19.0626 H   0  0  0  0  0  0  0  0  0  0  0  0
    4.8346    0.7299   21.0773 H   0  0  0  0  0  0  0  0  0  0  0  0
    7.3549   -1.7862   20.8205 H   0  0  0  0  0  0  0  0  0  0  0  0
    6.5537   -0.7385   21.9894 H   0  0  0  0  0  0  0  0  0  0  0  0
    8.8998    0.8212   22.2348 C   0  0  0  0  0  0  0  0  0  0  0  0
    7.9174    1.7344   22.8911 C   0  0  0  0  0  0  0  0  0  0  0  0
    7.3928    1.1320   24.1075 N   0  0  0  0  0  0  0  0  0  0  0  0
    6.1835    0.5672   24.3495 C   0  0  0  0  0  0  0  0  0  0  0  0
    6.2394   -0.0214   25.5992 C   0  0  0  0  0  0  0  0  0  0  0  0
    5.2100   -0.7890   26.3355 C   0  0  0  0  0  0  0  0  0  0  0  0
    5.5807   -2.0473   27.0859 C   0  0  0  0  0  0  0  0  0  0  0  0
    5.2199   -0.8096   27.8449 C   0  0  0  0  0  0  0  0  0  0  0  0
    4.2706   -0.7639   28.3681 H   0  0  0  0  0  0  0  0  0  0  0  0
    6.0269   -0.2739   28.3408 H   0  0  0  0  0  0  0  0  0  0  0  0
    6.6244   -2.3521   27.0705 H   0  0  0  0  0  0  0  0  0  0  0  0
    4.8789   -2.8753   27.0685 H   0  0  0  0  0  0  0  0  0  0  0  0
    4.2255   -0.7971   25.8681 H   0  0  0  0  0  0  0  0  0  0  0  0
    7.5608    0.2748   26.0315 C   0  0  0  0  0  0  0  0  0  0  0  0
    8.2350    0.9664   25.1313 N   0  0  0  0  0  0  0  0  0  0  0  0
    8.0503   -0.0086   26.9566 H   0  0  0  0  0  0  0  0  0  0  0  0
    5.3833    0.6586   23.6243 H   0  0  0  0  0  0  0  0  0  0  0  0
    7.0884    1.9668   22.2170 H   0  0  0  0  0  0  0  0  0  0  0  0
    8.4473    2.6462   23.1696 H   0  0  0  0  0  0  0  0  0  0  0  0
   10.2060    0.8923   22.3458 N   0  0  0  0  0  0  0  0  0  0  0  0
   13.1006    0.2346   22.1466 C   0  0  0  0  0  0  0  0  0  0  0  0
   14.3838    0.0619   21.6473 C   0  0  0  0  0  0  0  0  0  0  0  0
   15.2993    0.9003   22.1599 F   0  0  0  0  0  0  0  0  0  0  0  0
   12.9211    1.0546   22.8391 H   0  0  0  0  0  0  0  0  0  0  0  0
   11.7078   -2.3572   20.6005 H   0  0  0  0  0  0  0  0  0  0  0  0
   14.0256   -2.7229   19.7781 H   0  0  0  0  0  0  0  0  0  0  0  0
   16.3703    0.6028   20.1541 H   0  0  0  0  0  0  0  0  0  0  0  0
   16.8453   -1.0093   19.6634 H   0  0  0  0  0  0  0  0  0  0  0  0
   15.9285    0.1128   18.6415 H   0  0  0  0  0  0  0  0  0  0  0  0
  1  2  1  0
  2  3  2  0
  3  4  1  0
  4  5  2  0
  5  6  1  0
  6  7  2  0
  7  8  1  0
  8  9  1  0
  9 10  1  0
 10 11  2  0
 11 12  1  0
 12 13  2  0
 13 14  1  0
 14 15  2  0
 15 16  1  0
 13 17  1  0
 12 18  1  0
 11 19  1  0
  9 20  1  0
  9 21  1  0
  8 22  1  0
 22 23  1  0
 23 24  1  0
 24 25  1  0
 25 26  2  0
 26 27  1  0
 27 28  1  0
 28 29  1  0
 29 30  1  0
 29 31  1  0
 28 32  1  0
 28 33  1  0
 27 34  1  0
 26 35  1  0
 35 36  2  0
 35 37  1  0
 25 38  1  0
 23 39  1  0
 23 40  1  0
 22 41  2  0
  5 42  1  0
 42 43  2  0
 43 44  1  0
 42 45  1  0
  4 46  1  0
  3 47  1  0
  1 48  1  0
  1 49  1  0
  1 50  1  0
 43  2  1  0
 41  6  1  0
 15 10  1  0
 36 24  1  0
 29 27  1  0
M  END
>  <cnnaffinity>  (1) 
-6.83788

>  <filename>  (1) 
Cc1ccc(-c2nc(Cn3cc(C4CC4)cn3)n(Cc3cccnc3)n2)cc1F

$$$$
