
     RDKit          3D

 40 43  0  0  0  0  0  0  0  0999 V2000
    7.8515    2.7083   22.0451 C   0  0  0  0  0  0  0  0  0  0  0  0
    9.2312    2.3468   22.4948 C   0  0  0  0  0  0  0  0  0  0  0  0
    9.9669    2.8322   23.5523 C   0  0  0  0  0  0  0  0  0  0  0  0
    9.4856    4.1003   24.6114 Cl  0  0  0  0  0  0  0  0  0  0  0  0
   11.1581    2.0838   23.5788 C   0  0  0  0  0  0  0  0  0  0  0  0
   11.1643    1.1927   22.6016 N   0  0  0  0  0  0  0  0  0  0  0  0
   10.0083    1.3743   21.9445 N   0  0  0  0  0  0  0  0  0  0  0  0
    9.6150    0.4407   20.9085 C   0  0  0  0  0  0  0  0  0  0  0  0
    8.6280   -0.5531   21.4013 C   0  0  0  0  0  0  0  0  0  0  0  0
    8.8599   -1.4177   22.3561 N   0  0  0  0  0  0  0  0  0  0  0  0
    7.6566   -2.0300   22.5275 C   0  0  0  0  0  0  0  0  0  0  0  0
    7.4275   -3.0500   23.5741 C   0  0  0  0  0  0  0  0  0  0  0  0
    6.1561   -3.6462   23.7144 C   0  0  0  0  0  0  0  0  0  0  0  0
    5.9268   -4.6080   24.6942 C   0  0  0  0  0  0  0  0  0  0  0  0
    6.9777   -4.9641   25.5359 C   0  0  0  0  0  0  0  0  0  0  0  0
    6.7572   -5.8897   26.4793 F   0  0  0  0  0  0  0  0  0  0  0  0
    8.2452   -4.3955   25.4344 C   0  0  0  0  0  0  0  0  0  0  0  0
    8.4673   -3.4338   24.4492 C   0  0  0  0  0  0  0  0  0  0  0  0
    9.4516   -2.9765   24.3597 H   0  0  0  0  0  0  0  0  0  0  0  0
    9.0227   -4.7154   26.1225 H   0  0  0  0  0  0  0  0  0  0  0  0
    4.9592   -5.0824   24.8231 H   0  0  0  0  0  0  0  0  0  0  0  0
    5.3483   -3.3440   23.0510 H   0  0  0  0  0  0  0  0  0  0  0  0
    6.7134   -1.6083   21.6986 N   0  0  0  0  0  0  0  0  0  0  0  0
    7.3492   -0.6887   20.9354 N   0  0  0  0  0  0  0  0  0  0  0  0
    6.6533   -0.0013   19.9011 C   0  0  0  0  0  0  0  0  0  0  0  0
    5.4385    0.6408   20.1668 C   0  0  0  0  0  0  0  0  0  0  0  0
    4.8131    1.3106   19.1093 C   0  0  0  0  0  0  0  0  0  0  0  0
    5.3991    1.2963   17.8373 C   0  0  0  0  0  0  0  0  0  0  0  0
    6.5553    0.6691   17.5741 N   0  0  0  0  0  0  0  0  0  0  0  0
    7.1645    0.0467   18.5908 C   0  0  0  0  0  0  0  0  0  0  0  0
    8.1114   -0.4363   18.3636 H   0  0  0  0  0  0  0  0  0  0  0  0
    4.9222    1.7886   16.9928 H   0  0  0  0  0  0  0  0  0  0  0  0
    3.8811    1.8392   19.2591 H   0  0  0  0  0  0  0  0  0  0  0  0
    5.0124    0.6050   21.1745 H   0  0  0  0  0  0  0  0  0  0  0  0
   10.5074   -0.0989   20.6115 H   0  0  0  0  0  0  0  0  0  0  0  0
    9.2174    1.0026   20.0676 H   0  0  0  0  0  0  0  0  0  0  0  0
   11.9790    2.1696   24.2784 H   0  0  0  0  0  0  0  0  0  0  0  0
    7.5922    3.6956   22.4329 H   0  0  0  0  0  0  0  0  0  0  0  0
    7.1050    1.9959   22.4193 H   0  0  0  0  0  0  0  0  0  0  0  0
    7.7593    2.7138   20.9565 H   0  0  0  0  0  0  0  0  0  0  0  0
  1  2  1  0
  2  3  2  0
  3  4  1  0
  3  5  1  0
  5  6  2  0
  6  7  1  0
  7  8  1  0
  8  9  1  0
  9 10  2  0
 10 11  1  0
 11 12  1  0
 12 13  2  0
 13 14  1  0
 14 15  2  0
 15 16  1  0
 15 17  1  0
 17 18  2  0
 18 19  1  0
 17 20  1  0
 14 21  1  0
 13 22  1  0
 11 23  2  0
 23 24  1  0
 24 25  1  0
 25 26  2  0
 26 27  1  0
 27 28  2  0
 28 29  1  0
 29 30  2  0
 30 31  1  0
 28 32  1  0
 27 33  1  0
 26 34  1  0
  8 35  1  0
  8 36  1  0
  5 37  1  0
  1 38  1  0
  1 39  1  0
  1 40  1  0
  7  2  1  0
 24  9  1  0
 30 25  1  0
 18 12  1  0
M  END
>  <cnnaffinity>  (1) 
-6.09291

>  <filename>  (1) 
Cc1c(Cl)cnn1Cc1nc(-c2ccc(F)cc2)nn1-c1cccnc1

$$$$
