
     RDKit          3D

 46 49  0  0  0  0  0  0  0  0999 V2000
    4.6121   -0.1189   25.4692 C   0  0  0  0  0  0  0  0  0  0  0  0
    5.9184    0.4257   24.9898 C   0  0  0  0  0  0  0  0  0  0  0  0
    6.0697    1.0022   23.8009 N   0  0  0  0  0  0  0  0  0  0  0  0
    7.3759    1.3304   23.7237 N   0  0  0  0  0  0  0  0  0  0  0  0
    7.8724    1.9957   22.5397 C   0  0  0  0  0  0  0  0  0  0  0  0
    9.1252    1.2427   21.8990 C   0  0  0  0  0  0  0  0  0  0  0  0
   10.1714    1.9232   22.1048 N   0  0  0  0  0  0  0  0  0  0  0  0
   11.4402   -0.3879   20.9625 C   0  0  0  0  0  0  0  0  0  0  0  0
   11.4401   -0.3881   20.9626 C   0  0  0  0  0  0  0  0  0  0  0  0
   12.8780    0.7211   22.0215 C   0  0  0  0  0  0  0  0  0  0  0  0
   14.1317    0.2941   21.8627 C   0  0  0  0  0  0  0  0  0  0  0  0
   15.3508    1.3899   22.4304 Cl  0  0  0  0  0  0  0  0  0  0  0  0
   14.5747   -0.6628   20.8163 C   0  0  0  0  0  0  0  0  0  0  0  0
   13.8347   -1.7306   20.2981 C   0  0  0  0  0  0  0  0  0  0  0  0
   12.5489   -1.8637   20.5815 C   0  0  0  0  0  0  0  0  0  0  0  0
   12.1609   -2.7233   21.1142 H   0  0  0  0  0  0  0  0  0  0  0  0
   14.4039   -2.3038   19.6174 H   0  0  0  0  0  0  0  0  0  0  0  0
   15.3961   -0.3685   20.1343 H   0  0  0  0  0  0  0  0  0  0  0  0
   12.6600    1.7662   22.2196 H   0  0  0  0  0  0  0  0  0  0  0  0
   10.0068   -0.7829   20.8070 N   0  0  0  0  0  0  0  0  0  0  0  0
    8.9245   -0.0277   21.3284 N   0  0  0  0  0  0  0  0  0  0  0  0
    7.5686   -0.6148   21.0148 C   0  0  0  0  0  0  0  0  0  0  0  0
    6.7148    0.0562   19.9342 C   0  0  0  0  0  0  0  0  0  0  0  0
    5.4607    0.6540   20.1666 C   0  0  0  0  0  0  0  0  0  0  0  0
    4.8073    1.2931   19.1028 C   0  0  0  0  0  0  0  0  0  0  0  0
    5.4095    1.2786   17.8411 C   0  0  0  0  0  0  0  0  0  0  0  0
    6.5740    0.6631   17.5901 N   0  0  0  0  0  0  0  0  0  0  0  0
    7.1970    0.0810   18.6204 C   0  0  0  0  0  0  0  0  0  0  0  0
    8.1646   -0.3904   18.4374 H   0  0  0  0  0  0  0  0  0  0  0  0
    4.9438    1.7858   16.9947 H   0  0  0  0  0  0  0  0  0  0  0  0
    3.8782    1.8372   19.2326 H   0  0  0  0  0  0  0  0  0  0  0  0
    5.0204    0.6548   21.1683 H   0  0  0  0  0  0  0  0  0  0  0  0
    7.7738   -1.6700   20.7280 H   0  0  0  0  0  0  0  0  0  0  0  0
    6.9751   -0.6609   21.9267 H   0  0  0  0  0  0  0  0  0  0  0  0
    8.2281    2.9979   22.8326 H   0  0  0  0  0  0  0  0  0  0  0  0
    7.0152    2.1368   21.8741 H   0  0  0  0  0  0  0  0  0  0  0  0
    8.0615    0.9917   24.8523 C   0  0  0  0  0  0  0  0  0  0  0  0
    9.5294    1.1792   25.1027 C   0  0  0  0  0  0  0  0  0  0  0  0
    9.9141    2.1397   24.7411 H   0  0  0  0  0  0  0  0  0  0  0  0
   10.1177    0.4021   24.5943 H   0  0  0  0  0  0  0  0  0  0  0  0
    9.7384    1.0973   26.1700 H   0  0  0  0  0  0  0  0  0  0  0  0
    7.1416    0.3985   25.6837 C   0  0  0  0  0  0  0  0  0  0  0  0
    7.3229    0.0056   26.6767 H   0  0  0  0  0  0  0  0  0  0  0  0
    4.5324    0.0100   26.5526 H   0  0  0  0  0  0  0  0  0  0  0  0
    4.5500   -1.1940   25.2593 H   0  0  0  0  0  0  0  0  0  0  0  0
    3.7698    0.3818   24.9854 H   0  0  0  0  0  0  0  0  0  0  0  0
  1  2  1  0
  2  3  2  0
  3  4  1  0
  4  5  1  0
  5  6  1  0
  6  7  2  0
  7  8  1  0
  8  9  1  0
  9 10  2  0
 10 11  1  0
 11 12  1  0
 11 13  2  0
 13 14  1  0
 14 15  2  0
 15 16  1  0
 14 17  1  0
 13 18  1  0
 10 19  1  0
  8 20  2  0
 20 21  1  0
 21 22  1  0
 22 23  1  0
 23 24  2  0
 24 25  1  0
 25 26  2  0
 26 27  1  0
 27 28  2  0
 28 29  1  0
 26 30  1  0
 25 31  1  0
 24 32  1  0
 22 33  1  0
 22 34  1  0
  5 35  1  0
  5 36  1  0
  4 37  1  0
 37 38  1  0
 38 39  1  0
 38 40  1  0
 38 41  1  0
 37 42  2  0
 42 43  1  0
  1 44  1  0
  1 45  1  0
  1 46  1  0
 42  2  1  0
 21  6  1  0
 28 23  1  0
 15  9  1  0
M  END
>  <cnnaffinity>  (1) 
-6.21083

>  <filename>  (1) 
Cc1cc(C)n(Cc2nc(-c3cccc(Cl)c3)nn2Cc2cccnc2)n1

$$$$
