
     RDKit          3D

 37 40  0  0  0  0  0  0  0  0999 V2000
    9.3824    0.6870   20.7683 C   0  0  0  0  0  0  0  0  0  0  0  0
    8.6063   -0.4285   21.4107 C   0  0  0  0  0  0  0  0  0  0  0  0
    9.1221   -1.2092   22.4407 C   0  0  0  0  0  0  0  0  0  0  0  0
    8.4326   -2.1511   23.0732 N   0  0  0  0  0  0  0  0  0  0  0  0
    7.2031   -2.4138   22.6132 C   0  0  0  0  0  0  0  0  0  0  0  0
    6.4254   -3.5005   23.2304 C   0  0  0  0  0  0  0  0  0  0  0  0
    5.3909   -4.1386   22.5241 C   0  0  0  0  0  0  0  0  0  0  0  0
    4.6609   -5.1917   23.0779 C   0  0  0  0  0  0  0  0  0  0  0  0
    4.9363   -5.6319   24.3881 C   0  0  0  0  0  0  0  0  0  0  0  0
    5.9378   -4.9964   25.1168 C   0  0  0  0  0  0  0  0  0  0  0  0
    6.6681   -3.9379   24.5406 C   0  0  0  0  0  0  0  0  0  0  0  0
    7.5610   -3.4304   25.4746 N   0  0  0  0  0  0  0  0  0  0  0  0
    7.5208   -4.1010   26.6699 C   0  0  0  0  0  0  0  0  0  0  0  0
    8.2230   -3.8482   27.6207 O   0  0  0  0  0  0  0  0  0  0  0  0
    6.4543   -5.1889   26.5284 C   0  0  0  0  0  0  0  0  0  0  0  0
    5.7086   -5.0609   27.3175 H   0  0  0  0  0  0  0  0  0  0  0  0
    6.9247   -6.1592   26.7112 H   0  0  0  0  0  0  0  0  0  0  0  0
    8.2816   -2.7491   25.2885 H   0  0  0  0  0  0  0  0  0  0  0  0
    4.3528   -6.4514   24.8083 H   0  0  0  0  0  0  0  0  0  0  0  0
    3.8777   -5.6590   22.4842 H   0  0  0  0  0  0  0  0  0  0  0  0
    5.1683   -3.7852   21.5205 H   0  0  0  0  0  0  0  0  0  0  0  0
    6.6263   -1.7664   21.5939 N   0  0  0  0  0  0  0  0  0  0  0  0
    7.2969   -0.7727   21.0246 C   0  0  0  0  0  0  0  0  0  0  0  0
    6.5833   -0.0531   19.9527 C   0  0  0  0  0  0  0  0  0  0  0  0
    5.3689    0.6103   20.1674 C   0  0  0  0  0  0  0  0  0  0  0  0
    4.7914    1.3010   19.1035 C   0  0  0  0  0  0  0  0  0  0  0  0
    5.4352    1.2759   17.8608 C   0  0  0  0  0  0  0  0  0  0  0  0
    6.5796    0.6140   17.6353 N   0  0  0  0  0  0  0  0  0  0  0  0
    7.1332   -0.0297   18.6687 C   0  0  0  0  0  0  0  0  0  0  0  0
    8.0779   -0.5345   18.4584 H   0  0  0  0  0  0  0  0  0  0  0  0
    5.0066    1.8086   17.0137 H   0  0  0  0  0  0  0  0  0  0  0  0
    3.8731    1.8674   19.2269 H   0  0  0  0  0  0  0  0  0  0  0  0
    4.9048    0.6010   21.1555 H   0  0  0  0  0  0  0  0  0  0  0  0
   10.1469   -1.0686   22.7820 H   0  0  0  0  0  0  0  0  0  0  0  0
    8.7641    1.5858   20.6652 H   0  0  0  0  0  0  0  0  0  0  0  0
   10.2959    0.9362   21.3132 H   0  0  0  0  0  0  0  0  0  0  0  0
    9.6567    0.3874   19.7593 H   0  0  0  0  0  0  0  0  0  0  0  0
  1  2  1  0
  2  3  2  0
  3  4  1  0
  4  5  2  0
  5  6  1  0
  6  7  2  0
  7  8  1  0
  8  9  2  0
  9 10  1  0
 10 11  2  0
 11 12  1  0
 12 13  1  0
 13 14  2  0
 13 15  1  0
 15 16  1  0
 15 17  1  0
 12 18  1  0
  9 19  1  0
  8 20  1  0
  7 21  1  0
  5 22  1  0
 22 23  2  0
 23 24  1  0
 24 25  2  0
 25 26  1  0
 26 27  2  0
 27 28  1  0
 28 29  2  0
 29 30  1  0
 27 31  1  0
 26 32  1  0
 25 33  1  0
  3 34  1  0
  1 35  1  0
  1 36  1  0
  1 37  1  0
 23  2  1  0
 29 24  1  0
 11  6  1  0
 15 10  1  0
M  END
>  <cnnaffinity>  (1) 
-5.59426

>  <filename>  (1) 
Cc1cnc(-c2cccc3c2NC(=O)C3)nc1-c1cccnc1

$$$$
