
     RDKit          3D

 43 47  0  0  0  0  0  0  0  0999 V2000
   11.5816   -1.6308   21.4692 C   0  0  0  0  0  0  0  0  0  0  0  0
   11.3713   -0.1559   21.6829 C   0  0  0  0  0  0  0  0  0  0  0  0
   12.3603    0.5665   22.3639 C   0  0  0  0  0  0  0  0  0  0  0  0
   12.2063    1.9421   22.5052 C   0  0  0  0  0  0  0  0  0  0  0  0
   13.4469    2.8672   23.3031 Cl  0  0  0  0  0  0  0  0  0  0  0  0
   11.1656    2.6235   22.0597 N   0  0  0  0  0  0  0  0  0  0  0  0
   10.2183    1.9302   21.4192 C   0  0  0  0  0  0  0  0  0  0  0  0
   10.2456    0.5468   21.2039 C   0  0  0  0  0  0  0  0  0  0  0  0
    9.1428   -0.1376   20.4044 C   0  0  0  0  0  0  0  0  0  0  0  0
    8.1967   -1.0931   21.1021 C   0  0  0  0  0  0  0  0  0  0  0  0
    8.3588   -1.7704   22.2203 N   0  0  0  0  0  0  0  0  0  0  0  0
    7.1340   -2.3326   22.4340 C   0  0  0  0  0  0  0  0  0  0  0  0
    6.7711   -2.9413   23.7405 C   0  0  0  0  0  0  0  0  0  0  0  0
    7.6390   -4.0169   24.3992 C   0  0  0  0  0  0  0  0  0  0  0  0
    6.2377   -4.3191   23.9568 C   0  0  0  0  0  0  0  0  0  0  0  0
    4.9887   -4.8110   24.5917 C   0  0  0  0  0  0  0  0  0  0  0  0
    5.4626   -5.3695   23.2435 C   0  0  0  0  0  0  0  0  0  0  0  0
    5.8842   -6.3757   23.2512 H   0  0  0  0  0  0  0  0  0  0  0  0
    4.9389   -5.0725   22.3338 H   0  0  0  0  0  0  0  0  0  0  0  0
    5.0819   -5.4369   25.4814 H   0  0  0  0  0  0  0  0  0  0  0  0
    4.1399   -4.1245   24.5923 H   0  0  0  0  0  0  0  0  0  0  0  0
    8.4714   -4.4378   23.8350 H   0  0  0  0  0  0  0  0  0  0  0  0
    7.7946   -3.9563   25.4767 H   0  0  0  0  0  0  0  0  0  0  0  0
    6.3245   -2.1856   24.3944 H   0  0  0  0  0  0  0  0  0  0  0  0
    6.2454   -2.0844   21.4935 N   0  0  0  0  0  0  0  0  0  0  0  0
    6.9390   -1.3320   20.6021 N   0  0  0  0  0  0  0  0  0  0  0  0
    6.2471   -0.6191   19.5718 C   0  0  0  0  0  0  0  0  0  0  0  0
    5.2741    0.3226   19.9270 C   0  0  0  0  0  0  0  0  0  0  0  0
    4.7861    1.1706   18.9307 C   0  0  0  0  0  0  0  0  0  0  0  0
    5.2575    1.0289   17.6192 C   0  0  0  0  0  0  0  0  0  0  0  0
    6.1247    0.0677   17.2598 N   0  0  0  0  0  0  0  0  0  0  0  0
    6.5852   -0.7516   18.2145 C   0  0  0  0  0  0  0  0  0  0  0  0
    7.2460   -1.5529   17.8837 H   0  0  0  0  0  0  0  0  0  0  0  0
    4.9235    1.7035   16.8321 H   0  0  0  0  0  0  0  0  0  0  0  0
    4.0453    1.9292   19.1604 H   0  0  0  0  0  0  0  0  0  0  0  0
    4.9225    0.3587   20.9600 H   0  0  0  0  0  0  0  0  0  0  0  0
    9.5883   -0.6837   19.5647 H   0  0  0  0  0  0  0  0  0  0  0  0
    8.5248    0.6395   19.9440 H   0  0  0  0  0  0  0  0  0  0  0  0
    9.3874    2.5239   21.0356 H   0  0  0  0  0  0  0  0  0  0  0  0
   13.2263    0.0540   22.7613 H   0  0  0  0  0  0  0  0  0  0  0  0
   12.5161   -1.8199   20.9273 H   0  0  0  0  0  0  0  0  0  0  0  0
   10.7612   -2.0844   20.9139 H   0  0  0  0  0  0  0  0  0  0  0  0
   11.6405   -2.1551   22.4273 H   0  0  0  0  0  0  0  0  0  0  0  0
  1  2  1  0
  2  3  2  0
  3  4  1  0
  4  5  1  0
  4  6  2  0
  6  7  1  0
  7  8  2  0
  8  9  1  0
  9 10  1  0
 10 11  2  0
 11 12  1  0
 12 13  1  0
 13 14  1  0
 14 15  1  0
 15 16  1  0
 16 17  1  0
 17 18  1  0
 17 19  1  0
 16 20  1  0
 16 21  1  0
 14 22  1  0
 14 23  1  0
 13 24  1  0
 12 25  2  0
 25 26  1  0
 26 27  1  0
 27 28  2  0
 28 29  1  0
 29 30  2  0
 30 31  1  0
 31 32  2  0
 32 33  1  0
 30 34  1  0
 29 35  1  0
 28 36  1  0
  9 37  1  0
  9 38  1  0
  7 39  1  0
  3 40  1  0
  1 41  1  0
  1 42  1  0
  1 43  1  0
  8  2  1  0
 26 10  1  0
 32 27  1  0
 15 13  1  0
 17 15  1  0
M  END
>  <cnnaffinity>  (1) 
-6.795

>  <filename>  (1) 
Cc1cc(Cl)ncc1Cc1nc(C2CC23CC3)nn1-c1cccnc1

$$$$
