
     RDKit          3D

 45 48  0  0  0  0  0  0  0  0999 V2000
    6.2380    3.8505   22.9165 C   0  0  0  0  0  0  0  0  0  0  0  0
    7.6527    3.3949   23.1805 C   0  0  0  0  0  0  0  0  0  0  0  0
    8.3636    3.9603   24.2441 C   0  0  0  0  0  0  0  0  0  0  0  0
    9.7035    3.6303   24.4566 C   0  0  0  0  0  0  0  0  0  0  0  0
   10.3239    2.6588   23.6758 C   0  0  0  0  0  0  0  0  0  0  0  0
   11.9360    2.1422   24.0649 Cl  0  0  0  0  0  0  0  0  0  0  0  0
    9.6259    2.0741   22.6011 C   0  0  0  0  0  0  0  0  0  0  0  0
   10.3094    1.1827   21.8369 O   0  0  0  0  0  0  0  0  0  0  0  0
    9.6410    0.3725   20.8821 C   0  0  0  0  0  0  0  0  0  0  0  0
    8.5949   -0.5373   21.4416 C   0  0  0  0  0  0  0  0  0  0  0  0
    8.7860   -1.3623   22.4470 N   0  0  0  0  0  0  0  0  0  0  0  0
    7.5894   -1.9784   22.5753 C   0  0  0  0  0  0  0  0  0  0  0  0
    7.4021   -2.9794   23.6723 C   0  0  0  0  0  0  0  0  0  0  0  0
    6.6891   -4.2838   23.2525 C   0  0  0  0  0  0  0  0  0  0  0  0
    5.2070   -3.9368   23.4654 C   0  0  0  0  0  0  0  0  0  0  0  0
    5.1685   -2.8358   24.3536 O   0  0  0  0  0  0  0  0  0  0  0  0
    6.4570   -2.4362   24.7547 C   0  0  0  0  0  0  0  0  0  0  0  0
    6.7073   -2.8552   25.7445 H   0  0  0  0  0  0  0  0  0  0  0  0
    6.4611   -1.3414   24.8302 H   0  0  0  0  0  0  0  0  0  0  0  0
    4.7414   -3.6392   22.5170 H   0  0  0  0  0  0  0  0  0  0  0  0
    4.6299   -4.7628   23.9056 H   0  0  0  0  0  0  0  0  0  0  0  0
    7.0003   -5.1205   23.8924 H   0  0  0  0  0  0  0  0  0  0  0  0
    6.9040   -4.5656   22.2171 H   0  0  0  0  0  0  0  0  0  0  0  0
    8.4042   -3.1453   24.0603 H   0  0  0  0  0  0  0  0  0  0  0  0
    6.6666   -1.5883   21.7180 N   0  0  0  0  0  0  0  0  0  0  0  0
    7.3235   -0.6681   20.9629 N   0  0  0  0  0  0  0  0  0  0  0  0
    6.6447   -0.0027   19.9026 C   0  0  0  0  0  0  0  0  0  0  0  0
    5.4300    0.6423   20.1609 C   0  0  0  0  0  0  0  0  0  0  0  0
    4.8037    1.3155   19.1079 C   0  0  0  0  0  0  0  0  0  0  0  0
    5.4004    1.2951   17.8431 C   0  0  0  0  0  0  0  0  0  0  0  0
    6.5365    0.6340   17.5740 N   0  0  0  0  0  0  0  0  0  0  0  0
    7.1436   -0.0002   18.5853 C   0  0  0  0  0  0  0  0  0  0  0  0
    8.0665   -0.5305   18.3380 H   0  0  0  0  0  0  0  0  0  0  0  0
    4.9438    1.8301   17.0136 H   0  0  0  0  0  0  0  0  0  0  0  0
    3.8771    1.8572   19.2625 H   0  0  0  0  0  0  0  0  0  0  0  0
    5.0071    0.5987   21.1654 H   0  0  0  0  0  0  0  0  0  0  0  0
   10.4462   -0.2445   20.4869 H   0  0  0  0  0  0  0  0  0  0  0  0
    9.2273    0.9776   20.0745 H   0  0  0  0  0  0  0  0  0  0  0  0
    8.2974    2.4603   22.3572 C   0  0  0  0  0  0  0  0  0  0  0  0
    7.7743    2.0220   21.5141 H   0  0  0  0  0  0  0  0  0  0  0  0
   10.2895    4.1512   25.1971 H   0  0  0  0  0  0  0  0  0  0  0  0
    7.8524    4.6585   24.9044 H   0  0  0  0  0  0  0  0  0  0  0  0
    5.6067    3.0827   22.4562 H   0  0  0  0  0  0  0  0  0  0  0  0
    6.2199    4.7163   22.2439 H   0  0  0  0  0  0  0  0  0  0  0  0
    5.7484    4.1581   23.8461 H   0  0  0  0  0  0  0  0  0  0  0  0
  1  2  1  0
  2  3  2  0
  3  4  1  0
  4  5  2  0
  5  6  1  0
  5  7  1  0
  7  8  1  0
  8  9  1  0
  9 10  1  0
 10 11  2  0
 11 12  1  0
 12 13  1  0
 13 14  1  0
 14 15  1  0
 15 16  1  0
 16 17  1  0
 17 18  1  0
 17 19  1  0
 15 20  1  0
 15 21  1  0
 14 22  1  0
 14 23  1  0
 13 24  1  0
 12 25  2  0
 25 26  1  0
 26 27  1  0
 27 28  2  0
 28 29  1  0
 29 30  2  0
 30 31  1  0
 31 32  2  0
 32 33  1  0
 30 34  1  0
 29 35  1  0
 28 36  1  0
  9 37  1  0
  9 38  1  0
  7 39  2  0
 39 40  1  0
  4 41  1  0
  3 42  1  0
  1 43  1  0
  1 44  1  0
  1 45  1  0
 39  2  1  0
 26 10  1  0
 32 27  1  0
 17 13  1  0
M  END
>  <cnnaffinity>  (1) 
-5.93044

>  <filename>  (1) 
Cc1ccc(Cl)c(OCc2nc(C3CCOC3)nn2-c2cccnc2)c1

$$$$
