
     RDKit          3D

 46 49  0  0  0  0  0  0  0  0999 V2000
    3.0957    2.7460   26.2563 C   0  0  0  0  0  0  0  0  0  0  0  0
    4.5397    2.5811   25.9213 C   0  0  0  0  0  0  0  0  0  0  0  0
    5.4741    3.3959   26.3941 N   0  0  0  0  0  0  0  0  0  0  0  0
    6.6173    2.9555   25.8389 N   0  0  0  0  0  0  0  0  0  0  0  0
    6.4448    1.8913   25.0228 C   0  0  0  0  0  0  0  0  0  0  0  0
    7.5228    1.2806   24.2147 C   0  0  0  0  0  0  0  0  0  0  0  0
    7.6539    1.8418   22.7731 C   0  0  0  0  0  0  0  0  0  0  0  0
    8.6415    0.9915   22.0662 C   0  0  0  0  0  0  0  0  0  0  0  0
    9.9460    1.0692   22.2736 N   0  0  0  0  0  0  0  0  0  0  0  0
   10.3893   -0.1385   21.8612 C   0  0  0  0  0  0  0  0  0  0  0  0
   11.8028   -0.5459   21.8148 C   0  0  0  0  0  0  0  0  0  0  0  0
   12.8807    0.2519   22.2439 C   0  0  0  0  0  0  0  0  0  0  0  0
   14.1755   -0.0986   21.8481 C   0  0  0  0  0  0  0  0  0  0  0  0
   14.3700   -1.1922   20.9873 C   0  0  0  0  0  0  0  0  0  0  0  0
   13.3218   -2.0484   20.6921 C   0  0  0  0  0  0  0  0  0  0  0  0
   12.0549   -1.7649   21.1730 C   0  0  0  0  0  0  0  0  0  0  0  0
   11.2089   -2.4247   21.0419 H   0  0  0  0  0  0  0  0  0  0  0  0
   13.5116   -2.8798   20.0268 H   0  0  0  0  0  0  0  0  0  0  0  0
   15.2875   -1.4192   20.4730 H   0  0  0  0  0  0  0  0  0  0  0  0
   15.0129    0.5243   22.1343 H   0  0  0  0  0  0  0  0  0  0  0  0
   12.6967    1.1461   22.8366 H   0  0  0  0  0  0  0  0  0  0  0  0
    9.4318   -0.9403   21.4071 N   0  0  0  0  0  0  0  0  0  0  0  0
    8.3201   -0.1953   21.5066 N   0  0  0  0  0  0  0  0  0  0  0  0
    7.0397   -0.7235   21.0284 C   0  0  0  0  0  0  0  0  0  0  0  0
    6.4032    0.0533   19.8918 C   0  0  0  0  0  0  0  0  0  0  0  0
    5.1853    0.7316   20.0181 C   0  0  0  0  0  0  0  0  0  0  0  0
    4.6727    1.4222   18.9166 C   0  0  0  0  0  0  0  0  0  0  0  0
    5.3915    1.3992   17.7193 C   0  0  0  0  0  0  0  0  0  0  0  0
    6.5449    0.7307   17.5677 N   0  0  0  0  0  0  0  0  0  0  0  0
    7.0299    0.0848   18.6342 C   0  0  0  0  0  0  0  0  0  0  0  0
    7.9634   -0.4541   18.4758 H   0  0  0  0  0  0  0  0  0  0  0  0
    5.0257    1.9332   16.8432 H   0  0  0  0  0  0  0  0  0  0  0  0
    3.7506    1.9885   18.9769 H   0  0  0  0  0  0  0  0  0  0  0  0
    4.6426    0.7218   20.9656 H   0  0  0  0  0  0  0  0  0  0  0  0
    6.3489   -0.7980   21.8769 H   0  0  0  0  0  0  0  0  0  0  0  0
    7.2679   -1.7432   20.7073 H   0  0  0  0  0  0  0  0  0  0  0  0
    8.0185    2.8707   22.7837 H   0  0  0  0  0  0  0  0  0  0  0  0
    6.6953    1.8312   22.2451 H   0  0  0  0  0  0  0  0  0  0  0  0
    8.4950    1.3771   24.7157 H   0  0  0  0  0  0  0  0  0  0  0  0
    7.3213    0.2034   24.1532 H   0  0  0  0  0  0  0  0  0  0  0  0
    5.1002    1.6052   25.0735 C   0  0  0  0  0  0  0  0  0  0  0  0
    4.5836    0.8001   24.5721 H   0  0  0  0  0  0  0  0  0  0  0  0
    7.4902    3.4064   26.0705 H   0  0  0  0  0  0  0  0  0  0  0  0
    2.7908    2.0313   27.0272 H   0  0  0  0  0  0  0  0  0  0  0  0
    2.8948    3.7580   26.6143 H   0  0  0  0  0  0  0  0  0  0  0  0
    2.4865    2.5572   25.3676 H   0  0  0  0  0  0  0  0  0  0  0  0
  1  2  1  0
  2  3  2  0
  3  4  1  0
  4  5  1  0
  5  6  1  0
  6  7  1  0
  7  8  1  0
  8  9  2  0
  9 10  1  0
 10 11  1  0
 11 12  2  0
 12 13  1  0
 13 14  2  0
 14 15  1  0
 15 16  2  0
 16 17  1  0
 15 18  1  0
 14 19  1  0
 13 20  1  0
 12 21  1  0
 10 22  2  0
 22 23  1  0
 23 24  1  0
 24 25  1  0
 25 26  2  0
 26 27  1  0
 27 28  2  0
 28 29  1  0
 29 30  2  0
 30 31  1  0
 28 32  1  0
 27 33  1  0
 26 34  1  0
 24 35  1  0
 24 36  1  0
  7 37  1  0
  7 38  1  0
  6 39  1  0
  6 40  1  0
  5 41  2  0
 41 42  1  0
  4 43  1  0
  1 44  1  0
  1 45  1  0
  1 46  1  0
 41  2  1  0
 23  8  1  0
 30 25  1  0
 16 11  1  0
M  END
>  <cnnaffinity>  (1) 
-6.38213

>  <filename>  (1) 
Cc1cc(CCc2nc(-c3ccccc3)nn2Cc2cccnc2)[nH]n1

$$$$
