
     RDKit          3D

 43 46  0  0  0  0  0  0  0  0999 V2000
    5.8694   -1.3314   26.2055 C   0  0  0  0  0  0  0  0  0  0  0  0
    6.7603   -0.2476   25.6809 C   0  0  0  0  0  0  0  0  0  0  0  0
    6.5825    0.2720   24.4676 N   0  0  0  0  0  0  0  0  0  0  0  0
    7.5363    1.2018   24.3275 N   0  0  0  0  0  0  0  0  0  0  0  0
    7.8066    1.7735   23.0168 C   0  0  0  0  0  0  0  0  0  0  0  0
    8.8197    0.9250   22.3212 C   0  0  0  0  0  0  0  0  0  0  0  0
   10.1251    1.0173   22.4809 N   0  0  0  0  0  0  0  0  0  0  0  0
   10.5919   -0.1123   21.8814 C   0  0  0  0  0  0  0  0  0  0  0  0
   12.0181   -0.4825   21.7509 C   0  0  0  0  0  0  0  0  0  0  0  0
   13.0543    0.3348   22.2455 C   0  0  0  0  0  0  0  0  0  0  0  0
   14.3476    0.1428   21.7658 C   0  0  0  0  0  0  0  0  0  0  0  0
   14.5852   -0.8067   20.7441 C   0  0  0  0  0  0  0  0  0  0  0  0
   15.9945   -0.4205   19.6543 Cl  0  0  0  0  0  0  0  0  0  0  0  0
   13.6465   -1.7904   20.4562 C   0  0  0  0  0  0  0  0  0  0  0  0
   12.3626   -1.6136   20.9839 C   0  0  0  0  0  0  0  0  0  0  0  0
   11.5561   -2.2885   20.7416 H   0  0  0  0  0  0  0  0  0  0  0  0
   13.8930   -2.6515   19.8428 H   0  0  0  0  0  0  0  0  0  0  0  0
   15.1380    0.8385   22.0275 H   0  0  0  0  0  0  0  0  0  0  0  0
   12.8486    1.1401   22.9491 H   0  0  0  0  0  0  0  0  0  0  0  0
    9.6363   -0.8583   21.3455 N   0  0  0  0  0  0  0  0  0  0  0  0
    8.5066   -0.1879   21.6285 N   0  0  0  0  0  0  0  0  0  0  0  0
    7.2196   -0.7021   21.1827 C   0  0  0  0  0  0  0  0  0  0  0  0
    6.5983    0.0654   20.0353 C   0  0  0  0  0  0  0  0  0  0  0  0
    5.3699    0.7230   20.1522 C   0  0  0  0  0  0  0  0  0  0  0  0
    4.8340    1.3569   19.0280 C   0  0  0  0  0  0  0  0  0  0  0  0
    5.5532    1.3154   17.8298 C   0  0  0  0  0  0  0  0  0  0  0  0
    6.7420    0.7055   17.7003 N   0  0  0  0  0  0  0  0  0  0  0  0
    7.2455    0.1087   18.7877 C   0  0  0  0  0  0  0  0  0  0  0  0
    8.2121   -0.3782   18.6629 H   0  0  0  0  0  0  0  0  0  0  0  0
    5.1582    1.7919   16.9338 H   0  0  0  0  0  0  0  0  0  0  0  0
    3.8888    1.8867   19.0732 H   0  0  0  0  0  0  0  0  0  0  0  0
    4.8400    0.7393   21.1082 H   0  0  0  0  0  0  0  0  0  0  0  0
    7.4115   -1.7412   20.8953 H   0  0  0  0  0  0  0  0  0  0  0  0
    6.5535   -0.7131   22.0513 H   0  0  0  0  0  0  0  0  0  0  0  0
    8.2019    2.7820   23.1497 H   0  0  0  0  0  0  0  0  0  0  0  0
    6.8676    1.8205   22.4613 H   0  0  0  0  0  0  0  0  0  0  0  0
    8.3589    1.2492   25.4006 C   0  0  0  0  0  0  0  0  0  0  0  0
    7.8883    0.3285   26.3056 C   0  0  0  0  0  0  0  0  0  0  0  0
    8.3023    0.0661   27.2702 H   0  0  0  0  0  0  0  0  0  0  0  0
    9.2082    1.9232   25.4046 H   0  0  0  0  0  0  0  0  0  0  0  0
    5.7676   -1.2636   27.2928 H   0  0  0  0  0  0  0  0  0  0  0  0
    4.8728   -1.2773   25.7590 H   0  0  0  0  0  0  0  0  0  0  0  0
    6.2917   -2.3177   25.9802 H   0  0  0  0  0  0  0  0  0  0  0  0
  1  2  1  0
  2  3  2  0
  3  4  1  0
  4  5  1  0
  5  6  1  0
  6  7  2  0
  7  8  1  0
  8  9  1  0
  9 10  2  0
 10 11  1  0
 11 12  2  0
 12 13  1  0
 12 14  1  0
 14 15  2  0
 15 16  1  0
 14 17  1  0
 11 18  1  0
 10 19  1  0
  8 20  2  0
 20 21  1  0
 21 22  1  0
 22 23  1  0
 23 24  2  0
 24 25  1  0
 25 26  2  0
 26 27  1  0
 27 28  2  0
 28 29  1  0
 26 30  1  0
 25 31  1  0
 24 32  1  0
 22 33  1  0
 22 34  1  0
  5 35  1  0
  5 36  1  0
  4 37  1  0
 37 38  2  0
 38 39  1  0
 37 40  1  0
  1 41  1  0
  1 42  1  0
  1 43  1  0
 38  2  1  0
 21  6  1  0
 28 23  1  0
 15  9  1  0
M  END
>  <cnnaffinity>  (1) 
-6.45915

>  <filename>  (1) 
Cc1ccn(Cc2nc(-c3ccc(Cl)cc3)nn2Cc2cccnc2)n1

$$$$
