
     RDKit          3D

 34 37  0  0  0  0  0  0  0  0999 V2000
    9.3896    0.6881   20.7590 C   0  0  0  0  0  0  0  0  0  0  0  0
    8.5925   -0.4046   21.4143 C   0  0  0  0  0  0  0  0  0  0  0  0
    9.1528   -1.2203   22.3975 C   0  0  0  0  0  0  0  0  0  0  0  0
    8.5126   -2.2176   22.9733 N   0  0  0  0  0  0  0  0  0  0  0  0
    7.2475   -2.4263   22.6003 C   0  0  0  0  0  0  0  0  0  0  0  0
    6.5035   -3.4416   23.2617 C   0  0  0  0  0  0  0  0  0  0  0  0
    6.9514   -4.2676   24.2878 C   0  0  0  0  0  0  0  0  0  0  0  0
    8.1280   -4.3846   24.9495 N   0  0  0  0  0  0  0  0  0  0  0  0
    8.1918   -5.2896   25.8968 C   0  0  0  0  0  0  0  0  0  0  0  0
    7.0986   -6.1442   26.2518 C   0  0  0  0  0  0  0  0  0  0  0  0
    5.9232   -6.0268   25.5562 C   0  0  0  0  0  0  0  0  0  0  0  0
    5.8594   -5.0807   24.5734 N   0  0  0  0  0  0  0  0  0  0  0  0
    4.7775   -4.8144   23.8021 N   0  0  0  0  0  0  0  0  0  0  0  0
    5.1785   -3.8219   23.0225 C   0  0  0  0  0  0  0  0  0  0  0  0
    4.4847   -3.4114   22.2956 H   0  0  0  0  0  0  0  0  0  0  0  0
    5.0049   -6.5891   25.6736 H   0  0  0  0  0  0  0  0  0  0  0  0
    7.2108   -6.8451   27.0622 H   0  0  0  0  0  0  0  0  0  0  0  0
    9.1402   -5.3733   26.4270 H   0  0  0  0  0  0  0  0  0  0  0  0
    6.6133   -1.7559   21.6257 N   0  0  0  0  0  0  0  0  0  0  0  0
    7.2870   -0.7768   21.0276 C   0  0  0  0  0  0  0  0  0  0  0  0
    6.5931   -0.0643   19.9331 C   0  0  0  0  0  0  0  0  0  0  0  0
    5.3933    0.6158   20.1704 C   0  0  0  0  0  0  0  0  0  0  0  0
    4.8019    1.3070   19.1146 C   0  0  0  0  0  0  0  0  0  0  0  0
    5.4183    1.2824   17.8592 C   0  0  0  0  0  0  0  0  0  0  0  0
    6.5717    0.6425   17.6204 N   0  0  0  0  0  0  0  0  0  0  0  0
    7.1426   -0.0030   18.6437 C   0  0  0  0  0  0  0  0  0  0  0  0
    8.1042   -0.4639   18.4081 H   0  0  0  0  0  0  0  0  0  0  0  0
    4.9725    1.7879   17.0059 H   0  0  0  0  0  0  0  0  0  0  0  0
    3.8769    1.8562   19.2431 H   0  0  0  0  0  0  0  0  0  0  0  0
    4.9532    0.6097   21.1703 H   0  0  0  0  0  0  0  0  0  0  0  0
   10.1866   -1.0756   22.7235 H   0  0  0  0  0  0  0  0  0  0  0  0
   10.2590    0.9770   21.3542 H   0  0  0  0  0  0  0  0  0  0  0  0
    8.7808    1.5761   20.5635 H   0  0  0  0  0  0  0  0  0  0  0  0
    9.7407    0.3131   19.7991 H   0  0  0  0  0  0  0  0  0  0  0  0
  1  2  1  0
  2  3  2  0
  3  4  1  0
  4  5  2  0
  5  6  1  0
  6  7  2  0
  7  8  1  0
  8  9  2  0
  9 10  1  0
 10 11  2  0
 11 12  1  0
 12 13  1  0
 13 14  2  0
 14 15  1  0
 11 16  1  0
 10 17  1  0
  9 18  1  0
  5 19  1  0
 19 20  2  0
 20 21  1  0
 21 22  2  0
 22 23  1  0
 23 24  2  0
 24 25  1  0
 25 26  2  0
 26 27  1  0
 24 28  1  0
 23 29  1  0
 22 30  1  0
  3 31  1  0
  1 32  1  0
  1 33  1  0
  1 34  1  0
 20  2  1  0
 26 21  1  0
 14  6  1  0
 12  7  1  0
M  END
>  <cnnaffinity>  (1) 
-5.47733

>  <filename>  (1) 
Cc1cnc(-c2cnn3cccnc23)nc1-c1cccnc1

$$$$
