
     RDKit          3D

 43 46  0  0  0  0  0  0  0  0999 V2000
    6.8558    0.4808   25.6424 C   0  0  0  0  0  0  0  0  0  0  0  0
    8.0616    1.2162   25.1139 C   0  0  0  0  0  0  0  0  0  0  0  0
    9.2179    1.3719   25.8942 C   0  0  0  0  0  0  0  0  0  0  0  0
   10.3643    1.9079   25.4588 N   0  0  0  0  0  0  0  0  0  0  0  0
   10.3935    2.3517   24.1985 C   0  0  0  0  0  0  0  0  0  0  0  0
    9.2939    2.2815   23.3406 C   0  0  0  0  0  0  0  0  0  0  0  0
    8.1271    1.6556   23.7804 C   0  0  0  0  0  0  0  0  0  0  0  0
    7.0651    1.2541   22.7746 C   0  0  0  0  0  0  0  0  0  0  0  0
    7.3448   -0.1229   22.2344 C   0  0  0  0  0  0  0  0  0  0  0  0
    7.8414   -1.1262   22.9431 N   0  0  0  0  0  0  0  0  0  0  0  0
    8.0440   -2.1058   22.0315 C   0  0  0  0  0  0  0  0  0  0  0  0
    8.5862   -3.4866   22.3505 C   0  0  0  0  0  0  0  0  0  0  0  0
    7.6256   -4.3799   23.1896 C   0  0  0  0  0  0  0  0  0  0  0  0
    8.6052   -5.2204   24.0236 C   0  0  0  0  0  0  0  0  0  0  0  0
    9.7347   -4.2171   24.2684 C   0  0  0  0  0  0  0  0  0  0  0  0
    9.8231   -3.4604   23.0652 O   0  0  0  0  0  0  0  0  0  0  0  0
    9.5084   -3.5491   25.1155 H   0  0  0  0  0  0  0  0  0  0  0  0
   10.7199   -4.6662   24.4434 H   0  0  0  0  0  0  0  0  0  0  0  0
    8.1661   -5.6032   24.9528 H   0  0  0  0  0  0  0  0  0  0  0  0
    8.9744   -6.0760   23.4436 H   0  0  0  0  0  0  0  0  0  0  0  0
    6.9992   -3.7495   23.8415 H   0  0  0  0  0  0  0  0  0  0  0  0
    6.9553   -4.9715   22.5544 H   0  0  0  0  0  0  0  0  0  0  0  0
    8.7690   -3.9278   21.3601 H   0  0  0  0  0  0  0  0  0  0  0  0
    7.6666   -1.7907   20.8071 N   0  0  0  0  0  0  0  0  0  0  0  0
    7.1751   -0.5342   20.9391 N   0  0  0  0  0  0  0  0  0  0  0  0
    6.5373    0.1006   19.8405 C   0  0  0  0  0  0  0  0  0  0  0  0
    5.3314    0.7923   20.0029 C   0  0  0  0  0  0  0  0  0  0  0  0
    4.7752    1.4099   18.8822 C   0  0  0  0  0  0  0  0  0  0  0  0
    5.4427    1.3191   17.6571 C   0  0  0  0  0  0  0  0  0  0  0  0
    6.5853    0.6247   17.4900 N   0  0  0  0  0  0  0  0  0  0  0  0
    7.1017    0.0086   18.5559 C   0  0  0  0  0  0  0  0  0  0  0  0
    7.9954   -0.5958   18.4016 H   0  0  0  0  0  0  0  0  0  0  0  0
    5.0549    1.8133   16.7710 H   0  0  0  0  0  0  0  0  0  0  0  0
    3.8441    1.9630   18.9533 H   0  0  0  0  0  0  0  0  0  0  0  0
    4.8362    0.8161   20.9754 H   0  0  0  0  0  0  0  0  0  0  0  0
    7.0348    1.9771   21.9586 H   0  0  0  0  0  0  0  0  0  0  0  0
    6.0737    1.2536   23.2430 H   0  0  0  0  0  0  0  0  0  0  0  0
    9.3664    2.6697   22.3300 H   0  0  0  0  0  0  0  0  0  0  0  0
   11.3465    2.7417   23.8520 H   0  0  0  0  0  0  0  0  0  0  0  0
    9.2183    0.9941   26.9149 H   0  0  0  0  0  0  0  0  0  0  0  0
    5.9314    1.0490   25.5027 H   0  0  0  0  0  0  0  0  0  0  0  0
    6.9473    0.2420   26.7040 H   0  0  0  0  0  0  0  0  0  0  0  0
    6.7464   -0.4600   25.0926 H   0  0  0  0  0  0  0  0  0  0  0  0
  1  2  1  0
  2  3  2  0
  3  4  1  0
  4  5  2  0
  5  6  1  0
  6  7  2  0
  7  8  1  0
  8  9  1  0
  9 10  2  0
 10 11  1  0
 11 12  1  0
 12 13  1  0
 13 14  1  0
 14 15  1  0
 15 16  1  0
 15 17  1  0
 15 18  1  0
 14 19  1  0
 14 20  1  0
 13 21  1  0
 13 22  1  0
 12 23  1  0
 11 24  2  0
 24 25  1  0
 25 26  1  0
 26 27  2  0
 27 28  1  0
 28 29  2  0
 29 30  1  0
 30 31  2  0
 31 32  1  0
 29 33  1  0
 28 34  1  0
 27 35  1  0
  8 36  1  0
  8 37  1  0
  6 38  1  0
  5 39  1  0
  3 40  1  0
  1 41  1  0
  1 42  1  0
  1 43  1  0
  7  2  1  0
 25  9  1  0
 31 26  1  0
 16 12  1  0
M  END
>  <cnnaffinity>  (1) 
-6.12197

>  <filename>  (1) 
Cc1cnccc1Cc1nc(C2CCCO2)nn1-c1cccnc1

$$$$
