
     RDKit          3D

 35 37  0  0  0  0  0  0  0  0999 V2000
    7.0185    1.7450   22.1345 H   0  0  0  0  0  0  0  0  0  0  0  0
    7.2942    0.9321   22.8122 C   0  0  0  0  0  0  0  0  0  0  0  0
    7.5220   -0.3004   22.3250 C   0  0  0  0  0  0  0  0  0  0  0  0
    7.3806   -0.7653   20.9285 C   0  0  0  0  0  0  0  0  0  0  0  0
    6.6528    0.0118   19.9053 C   0  0  0  0  0  0  0  0  0  0  0  0
    7.1708    0.0545   18.6064 C   0  0  0  0  0  0  0  0  0  0  0  0
    8.1138   -0.4355   18.3806 H   0  0  0  0  0  0  0  0  0  0  0  0
    6.5723    0.6771   17.5884 N   0  0  0  0  0  0  0  0  0  0  0  0
    5.4061    1.2911   17.8435 C   0  0  0  0  0  0  0  0  0  0  0  0
    4.9222    1.7775   16.9994 H   0  0  0  0  0  0  0  0  0  0  0  0
    4.8015    1.3097   19.1064 C   0  0  0  0  0  0  0  0  0  0  0  0
    3.8693    1.8452   19.2570 H   0  0  0  0  0  0  0  0  0  0  0  0
    5.4363    0.6596   20.1634 C   0  0  0  0  0  0  0  0  0  0  0  0
    4.9988    0.6412   21.1678 H   0  0  0  0  0  0  0  0  0  0  0  0
    7.9463   -1.8867   20.6818 N   0  0  0  0  0  0  0  0  0  0  0  0
    8.5293   -2.4086   21.9177 C   0  0  0  0  0  0  0  0  0  0  0  0
    9.6091   -2.4821   21.7808 H   0  0  0  0  0  0  0  0  0  0  0  0
    8.1477   -3.4139   22.1000 H   0  0  0  0  0  0  0  0  0  0  0  0
    8.1739   -1.4405   23.0697 C   0  0  0  0  0  0  0  0  0  0  0  0
    7.4874   -1.9076   23.7834 H   0  0  0  0  0  0  0  0  0  0  0  0
    9.0467   -1.0931   23.6293 H   0  0  0  0  0  0  0  0  0  0  0  0
    7.5090    1.3554   24.2148 C   0  0  0  0  0  0  0  0  0  0  0  0
    8.2195    2.5425   24.4721 C   0  0  0  0  0  0  0  0  0  0  0  0
    8.5831    3.1328   23.6335 H   0  0  0  0  0  0  0  0  0  0  0  0
    8.4791    2.9397   25.7827 C   0  0  0  0  0  0  0  0  0  0  0  0
    9.0278    3.8575   25.9761 H   0  0  0  0  0  0  0  0  0  0  0  0
    8.0133    2.1639   26.8512 C   0  0  0  0  0  0  0  0  0  0  0  0
    8.2063    2.4691   27.8744 H   0  0  0  0  0  0  0  0  0  0  0  0
    7.2911    0.9855   26.6226 C   0  0  0  0  0  0  0  0  0  0  0  0
    6.8004    0.1425   27.7689 C   0  0  0  0  0  0  0  0  0  0  0  0
    7.5425   -0.6193   28.0252 H   0  0  0  0  0  0  0  0  0  0  0  0
    5.8688   -0.3771   27.5223 H   0  0  0  0  0  0  0  0  0  0  0  0
    6.6200    0.7445   28.6638 H   0  0  0  0  0  0  0  0  0  0  0  0
    7.0503    0.5945   25.3014 C   0  0  0  0  0  0  0  0  0  0  0  0
    6.4860   -0.3130   25.1021 H   0  0  0  0  0  0  0  0  0  0  0  0
  1  2  1  0
  2  3  2  3
  3  4  1  0
  4  5  1  0
  5  6  2  0
  6  7  1  0
  6  8  1  0
  8  9  2  0
  9 10  1  0
  9 11  1  0
 11 12  1  0
 11 13  2  0
 13 14  1  0
  4 15  2  0
 15 16  1  0
 16 17  1  0
 16 18  1  0
 16 19  1  0
 19 20  1  0
 19 21  1  0
  2 22  1  0
 22 23  2  0
 23 24  1  0
 23 25  1  0
 25 26  1  0
 25 27  2  0
 27 28  1  0
 27 29  1  0
 29 30  1  0
 30 31  1  0
 30 32  1  0
 30 33  1  0
 29 34  2  0
 34 35  1  0
 19  3  1  0
 34 22  1  0
 13  5  1  0
M  END
>  <cnnaffinity>  (1) 
-5.09246

>  <filename>  (1) 
Cc1cccc(C=C2CCN=C2c2cccnc2)c1

$$$$
