
     RDKit          3D

 47 50  0  0  0  0  0  0  0  0999 V2000
    7.3881    5.9665   26.6191 C   0  0  0  0  0  0  0  0  0  0  0  0
    7.8092    4.8895   25.6417 C   0  0  0  0  0  0  0  0  0  0  0  0
    7.8258    5.1298   24.2641 C   0  0  0  0  0  0  0  0  0  0  0  0
    8.2342    4.1517   23.3455 C   0  0  0  0  0  0  0  0  0  0  0  0
    8.6392    2.8914   23.8046 C   0  0  0  0  0  0  0  0  0  0  0  0
    9.0589    1.8673   23.0076 O   0  0  0  0  0  0  0  0  0  0  0  0
    9.0594    1.9904   21.5887 C   0  0  0  0  0  0  0  0  0  0  0  0
    9.5001    0.6435   21.0135 C   0  0  0  0  0  0  0  0  0  0  0  0
    8.6072   -0.4659   21.4425 C   0  0  0  0  0  0  0  0  0  0  0  0
    8.8331   -1.2965   22.4320 N   0  0  0  0  0  0  0  0  0  0  0  0
    7.6505   -1.9611   22.5572 C   0  0  0  0  0  0  0  0  0  0  0  0
    7.4203   -2.9285   23.6640 C   0  0  0  0  0  0  0  0  0  0  0  0
    7.5490   -2.3330   25.1048 C   0  0  0  0  0  0  0  0  0  0  0  0
    8.7328   -3.2859   25.3873 C   0  0  0  0  0  0  0  0  0  0  0  0
    8.5956   -3.9030   23.9757 C   0  0  0  0  0  0  0  0  0  0  0  0
    9.4679   -3.7751   23.3260 H   0  0  0  0  0  0  0  0  0  0  0  0
    8.3180   -4.9600   23.9624 H   0  0  0  0  0  0  0  0  0  0  0  0
    9.6849   -2.7776   25.5621 H   0  0  0  0  0  0  0  0  0  0  0  0
    8.5787   -3.9815   26.2178 H   0  0  0  0  0  0  0  0  0  0  0  0
    7.7992   -1.2640   25.1229 H   0  0  0  0  0  0  0  0  0  0  0  0
    6.6706   -2.4803   25.7380 H   0  0  0  0  0  0  0  0  0  0  0  0
    6.4641   -3.4187   23.4716 H   0  0  0  0  0  0  0  0  0  0  0  0
    6.7283   -1.6198   21.6821 N   0  0  0  0  0  0  0  0  0  0  0  0
    7.3520   -0.6645   20.9393 N   0  0  0  0  0  0  0  0  0  0  0  0
    6.6583    0.0132   19.8997 C   0  0  0  0  0  0  0  0  0  0  0  0
    5.4391    0.6472   20.1641 C   0  0  0  0  0  0  0  0  0  0  0  0
    4.8117    1.3121   19.1078 C   0  0  0  0  0  0  0  0  0  0  0  0
    5.4007    1.2965   17.8368 C   0  0  0  0  0  0  0  0  0  0  0  0
    6.5591    0.6725   17.5747 N   0  0  0  0  0  0  0  0  0  0  0  0
    7.1690    0.0526   18.5906 C   0  0  0  0  0  0  0  0  0  0  0  0
    8.1134   -0.4374   18.3647 H   0  0  0  0  0  0  0  0  0  0  0  0
    4.9205    1.7860   16.9929 H   0  0  0  0  0  0  0  0  0  0  0  0
    3.8788    1.8405   19.2592 H   0  0  0  0  0  0  0  0  0  0  0  0
    5.0148    0.6090   21.1715 H   0  0  0  0  0  0  0  0  0  0  0  0
   10.5162    0.4085   21.3331 H   0  0  0  0  0  0  0  0  0  0  0  0
    9.5186    0.7144   19.9250 H   0  0  0  0  0  0  0  0  0  0  0  0
    9.7557    2.7779   21.2698 H   0  0  0  0  0  0  0  0  0  0  0  0
    8.0560    2.2478   21.2188 H   0  0  0  0  0  0  0  0  0  0  0  0
    8.6331    2.6334   25.1894 C   0  0  0  0  0  0  0  0  0  0  0  0
    8.2239    3.6230   26.0848 C   0  0  0  0  0  0  0  0  0  0  0  0
    8.2195    3.4230   27.1548 H   0  0  0  0  0  0  0  0  0  0  0  0
    8.9474    1.6586   25.5501 H   0  0  0  0  0  0  0  0  0  0  0  0
    8.2409    4.3771   22.2831 H   0  0  0  0  0  0  0  0  0  0  0  0
    7.5132    6.1065   23.8998 H   0  0  0  0  0  0  0  0  0  0  0  0
    6.6546    6.6528   26.1813 H   0  0  0  0  0  0  0  0  0  0  0  0
    6.9430    5.5510   27.5298 H   0  0  0  0  0  0  0  0  0  0  0  0
    8.2450    6.5751   26.9309 H   0  0  0  0  0  0  0  0  0  0  0  0
  1  2  1  0
  2  3  2  0
  3  4  1  0
  4  5  2  0
  5  6  1  0
  6  7  1  0
  7  8  1  0
  8  9  1  0
  9 10  2  0
 10 11  1  0
 11 12  1  0
 12 13  1  0
 13 14  1  0
 14 15  1  0
 15 16  1  0
 15 17  1  0
 14 18  1  0
 14 19  1  0
 13 20  1  0
 13 21  1  0
 12 22  1  0
 11 23  2  0
 23 24  1  0
 24 25  1  0
 25 26  2  0
 26 27  1  0
 27 28  2  0
 28 29  1  0
 29 30  2  0
 30 31  1  0
 28 32  1  0
 27 33  1  0
 26 34  1  0
  8 35  1  0
  8 36  1  0
  7 37  1  0
  7 38  1  0
  5 39  1  0
 39 40  2  0
 40 41  1  0
 39 42  1  0
  4 43  1  0
  3 44  1  0
  1 45  1  0
  1 46  1  0
  1 47  1  0
 40  2  1  0
 24  9  1  0
 30 25  1  0
 15 12  1  0
M  END
>  <cnnaffinity>  (1) 
-6.12656

>  <filename>  (1) 
Cc1ccc(OCCc2nc(C3CCC3)nn2-c2cccnc2)cc1

$$$$
