
     RDKit          3D

 43 46  0  0  0  0  0  0  0  0999 V2000
   13.7850    0.1333   23.3219 C   0  0  0  0  0  0  0  0  0  0  0  0
   12.4507    0.5726   22.8106 C   0  0  0  0  0  0  0  0  0  0  0  0
   11.8349   -0.0372   21.8074 N   0  0  0  0  0  0  0  0  0  0  0  0
   10.7002    0.6532   21.6073 N   0  0  0  0  0  0  0  0  0  0  0  0
    9.6774    0.1955   20.6908 C   0  0  0  0  0  0  0  0  0  0  0  0
    8.6415   -0.6359   21.3532 C   0  0  0  0  0  0  0  0  0  0  0  0
    8.8392   -1.4820   22.3322 N   0  0  0  0  0  0  0  0  0  0  0  0
    7.6005   -1.9849   22.5644 C   0  0  0  0  0  0  0  0  0  0  0  0
    7.3784   -2.9467   23.6816 C   0  0  0  0  0  0  0  0  0  0  0  0
    8.2349   -4.2276   23.5727 C   0  0  0  0  0  0  0  0  0  0  0  0
    8.3340   -4.7769   25.0083 C   0  0  0  0  0  0  0  0  0  0  0  0
    8.0247   -3.5940   25.9628 C   0  0  0  0  0  0  0  0  0  0  0  0
    7.7321   -2.3702   25.0734 C   0  0  0  0  0  0  0  0  0  0  0  0
    8.6166   -1.7244   24.9932 H   0  0  0  0  0  0  0  0  0  0  0  0
    6.9218   -1.7474   25.4685 H   0  0  0  0  0  0  0  0  0  0  0  0
    7.1669   -3.8343   26.6015 H   0  0  0  0  0  0  0  0  0  0  0  0
    8.8554   -3.3936   26.6471 H   0  0  0  0  0  0  0  0  0  0  0  0
    9.3229   -5.2064   25.1980 H   0  0  0  0  0  0  0  0  0  0  0  0
    7.6205   -5.5931   25.1698 H   0  0  0  0  0  0  0  0  0  0  0  0
    9.2292   -3.9775   23.1815 H   0  0  0  0  0  0  0  0  0  0  0  0
    7.7917   -4.9478   22.8765 H   0  0  0  0  0  0  0  0  0  0  0  0
    6.3166   -3.1993   23.6451 H   0  0  0  0  0  0  0  0  0  0  0  0
    6.6632   -1.5327   21.7584 N   0  0  0  0  0  0  0  0  0  0  0  0
    7.3388   -0.6821   20.9398 N   0  0  0  0  0  0  0  0  0  0  0  0
    6.6584    0.0103   19.9038 C   0  0  0  0  0  0  0  0  0  0  0  0
    5.4388    0.6473   20.1652 C   0  0  0  0  0  0  0  0  0  0  0  0
    4.8139    1.3111   19.1088 C   0  0  0  0  0  0  0  0  0  0  0  0
    5.4018    1.2955   17.8369 C   0  0  0  0  0  0  0  0  0  0  0  0
    6.5607    0.6722   17.5778 N   0  0  0  0  0  0  0  0  0  0  0  0
    7.1711    0.0539   18.5945 C   0  0  0  0  0  0  0  0  0  0  0  0
    8.1150   -0.4309   18.3625 H   0  0  0  0  0  0  0  0  0  0  0  0
    4.9244    1.7854   16.9924 H   0  0  0  0  0  0  0  0  0  0  0  0
    3.8819    1.8386   19.2591 H   0  0  0  0  0  0  0  0  0  0  0  0
    5.0163    0.6082   21.1730 H   0  0  0  0  0  0  0  0  0  0  0  0
   10.1239   -0.4235   19.9120 H   0  0  0  0  0  0  0  0  0  0  0  0
    9.2283    1.0787   20.2357 H   0  0  0  0  0  0  0  0  0  0  0  0
   10.5746    1.6848   22.4792 C   0  0  0  0  0  0  0  0  0  0  0  0
   11.6924    1.6693   23.2762 C   0  0  0  0  0  0  0  0  0  0  0  0
   11.9670    2.3418   24.0760 H   0  0  0  0  0  0  0  0  0  0  0  0
    9.7015    2.3282   22.4634 H   0  0  0  0  0  0  0  0  0  0  0  0
   14.5830    0.7186   22.8575 H   0  0  0  0  0  0  0  0  0  0  0  0
   13.9779   -0.9179   23.1040 H   0  0  0  0  0  0  0  0  0  0  0  0
   13.8522    0.3090   24.4000 H   0  0  0  0  0  0  0  0  0  0  0  0
  1  2  1  0
  2  3  2  0
  3  4  1  0
  4  5  1  0
  5  6  1  0
  6  7  2  0
  7  8  1  0
  8  9  1  0
  9 10  1  0
 10 11  1  0
 11 12  1  0
 12 13  1  0
 13 14  1  0
 13 15  1  0
 12 16  1  0
 12 17  1  0
 11 18  1  0
 11 19  1  0
 10 20  1  0
 10 21  1  0
  9 22  1  0
  8 23  2  0
 23 24  1  0
 24 25  1  0
 25 26  2  0
 26 27  1  0
 27 28  2  0
 28 29  1  0
 29 30  2  0
 30 31  1  0
 28 32  1  0
 27 33  1  0
 26 34  1  0
  5 35  1  0
  5 36  1  0
  4 37  1  0
 37 38  2  0
 38 39  1  0
 37 40  1  0
  1 41  1  0
  1 42  1  0
  1 43  1  0
 38  2  1  0
 24  6  1  0
 30 25  1  0
 13  9  1  0
M  END
>  <cnnaffinity>  (1) 
-6.32584

>  <filename>  (1) 
Cc1ccn(Cc2nc(C3CCCC3)nn2-c2cccnc2)n1

$$$$
