
     RDKit          3D

 44 47  0  0  0  0  0  0  0  0999 V2000
    8.8388    2.8590   25.2865 C   0  0  0  0  0  0  0  0  0  0  0  0
    7.9798    1.6187   25.3806 C   0  0  0  0  0  0  0  0  0  0  0  0
    7.9606    0.8638   26.5596 C   0  0  0  0  0  0  0  0  0  0  0  0
    7.2264   -0.3266   26.6155 C   0  0  0  0  0  0  0  0  0  0  0  0
    6.5119   -0.7173   25.4824 C   0  0  0  0  0  0  0  0  0  0  0  0
    6.5006   -0.0063   24.3450 N   0  0  0  0  0  0  0  0  0  0  0  0
    7.2180    1.1228   24.2912 C   0  0  0  0  0  0  0  0  0  0  0  0
    7.2685    1.6996   22.8974 C   0  0  0  0  0  0  0  0  0  0  0  0
    8.2851    0.8636   22.1975 C   0  0  0  0  0  0  0  0  0  0  0  0
    9.5553    1.0571   22.4382 N   0  0  0  0  0  0  0  0  0  0  0  0
   10.1594   -0.0588   21.9539 C   0  0  0  0  0  0  0  0  0  0  0  0
   11.6114   -0.1657   22.1146 C   0  0  0  0  0  0  0  0  0  0  0  0
   12.4410   -1.1376   21.5326 C   0  0  0  0  0  0  0  0  0  0  0  0
   13.8121   -0.9352   21.6422 C   0  0  0  0  0  0  0  0  0  0  0  0
   14.6419   -1.7731   21.0140 F   0  0  0  0  0  0  0  0  0  0  0  0
   14.3080    0.1634   22.3586 C   0  0  0  0  0  0  0  0  0  0  0  0
   13.5128    1.0129   23.0197 N   0  0  0  0  0  0  0  0  0  0  0  0
   12.1970    0.8434   22.8975 C   0  0  0  0  0  0  0  0  0  0  0  0
   11.5630    1.5407   23.4268 H   0  0  0  0  0  0  0  0  0  0  0  0
   15.3598    0.4014   22.3624 H   0  0  0  0  0  0  0  0  0  0  0  0
   12.0445   -1.9737   20.9626 H   0  0  0  0  0  0  0  0  0  0  0  0
    9.3241   -0.9219   21.4015 N   0  0  0  0  0  0  0  0  0  0  0  0
    8.1129   -0.3107   21.5574 N   0  0  0  0  0  0  0  0  0  0  0  0
    6.8659   -0.8456   21.0056 C   0  0  0  0  0  0  0  0  0  0  0  0
    6.2942   -0.0277   19.8569 C   0  0  0  0  0  0  0  0  0  0  0  0
    5.0835    0.6761   19.9323 C   0  0  0  0  0  0  0  0  0  0  0  0
    4.6394    1.3941   18.8169 C   0  0  0  0  0  0  0  0  0  0  0  0
    5.4206    1.3881   17.6601 C   0  0  0  0  0  0  0  0  0  0  0  0
    6.5777    0.7163   17.5639 N   0  0  0  0  0  0  0  0  0  0  0  0
    6.9974    0.0448   18.6430 C   0  0  0  0  0  0  0  0  0  0  0  0
    7.9509   -0.4704   18.5339 H   0  0  0  0  0  0  0  0  0  0  0  0
    5.1119    1.9499   16.7774 H   0  0  0  0  0  0  0  0  0  0  0  0
    3.7297    1.9838   18.8401 H   0  0  0  0  0  0  0  0  0  0  0  0
    4.4938    0.6813   20.8513 H   0  0  0  0  0  0  0  0  0  0  0  0
    7.0808   -1.8718   20.6969 H   0  0  0  0  0  0  0  0  0  0  0  0
    6.1444   -0.9008   21.8287 H   0  0  0  0  0  0  0  0  0  0  0  0
    7.6152    2.7343   22.8803 H   0  0  0  0  0  0  0  0  0  0  0  0
    6.2879    1.6427   22.4279 H   0  0  0  0  0  0  0  0  0  0  0  0
    5.9611   -1.6544   25.4590 H   0  0  0  0  0  0  0  0  0  0  0  0
    7.2131   -0.9423   27.5073 H   0  0  0  0  0  0  0  0  0  0  0  0
    8.5471    1.2058   27.4129 H   0  0  0  0  0  0  0  0  0  0  0  0
    9.1991    3.1692   26.2704 H   0  0  0  0  0  0  0  0  0  0  0  0
    9.7223    2.6704   24.6663 H   0  0  0  0  0  0  0  0  0  0  0  0
    8.3131    3.7090   24.8389 H   0  0  0  0  0  0  0  0  0  0  0  0
  1  2  1  0
  2  3  2  0
  3  4  1  0
  4  5  2  0
  5  6  1  0
  6  7  2  0
  7  8  1  0
  8  9  1  0
  9 10  2  0
 10 11  1  0
 11 12  1  0
 12 13  2  0
 13 14  1  0
 14 15  1  0
 14 16  2  0
 16 17  1  0
 17 18  2  0
 18 19  1  0
 16 20  1  0
 13 21  1  0
 11 22  2  0
 22 23  1  0
 23 24  1  0
 24 25  1  0
 25 26  2  0
 26 27  1  0
 27 28  2  0
 28 29  1  0
 29 30  2  0
 30 31  1  0
 28 32  1  0
 27 33  1  0
 26 34  1  0
 24 35  1  0
 24 36  1  0
  8 37  1  0
  8 38  1  0
  5 39  1  0
  4 40  1  0
  3 41  1  0
  1 42  1  0
  1 43  1  0
  1 44  1  0
  7  2  1  0
 23  9  1  0
 30 25  1  0
 18 12  1  0
M  END
>  <cnnaffinity>  (1) 
-6.83423

>  <filename>  (1) 
Cc1cccnc1Cc1nc(-c2cncc(F)c2)nn1Cc1cccnc1

$$$$
