
     RDKit          3D

 42 45  0  0  0  0  0  0  0  0999 V2000
   13.6619    0.4806   23.7359 C   0  0  0  0  0  0  0  0  0  0  0  0
   12.4566    0.9137   22.9629 C   0  0  0  0  0  0  0  0  0  0  0  0
   11.8963    2.0546   23.2896 N   0  0  0  0  0  0  0  0  0  0  0  0
   10.5148    2.2790   22.3979 S   0  0  0  0  0  0  0  0  0  0  0  0
   10.6446    0.7849   21.5587 C   0  0  0  0  0  0  0  0  0  0  0  0
    9.5904    0.2121   20.6672 C   0  0  0  0  0  0  0  0  0  0  0  0
    8.5647   -0.6027   21.3823 C   0  0  0  0  0  0  0  0  0  0  0  0
    8.7617   -1.3989   22.4087 N   0  0  0  0  0  0  0  0  0  0  0  0
    7.5421   -1.9704   22.5980 C   0  0  0  0  0  0  0  0  0  0  0  0
    7.3126   -2.9649   23.7039 C   0  0  0  0  0  0  0  0  0  0  0  0
    8.5391   -3.8316   24.0560 C   0  0  0  0  0  0  0  0  0  0  0  0
    7.9748   -5.0593   24.7883 C   0  0  0  0  0  0  0  0  0  0  0  0
    6.4880   -5.1698   24.3811 C   0  0  0  0  0  0  0  0  0  0  0  0
    6.2092   -3.9987   23.4258 C   0  0  0  0  0  0  0  0  0  0  0  0
    6.2891   -4.3346   22.3873 H   0  0  0  0  0  0  0  0  0  0  0  0
    5.2116   -3.5712   23.5586 H   0  0  0  0  0  0  0  0  0  0  0  0
    5.8520   -5.1035   25.2696 H   0  0  0  0  0  0  0  0  0  0  0  0
    6.2614   -6.1276   23.9021 H   0  0  0  0  0  0  0  0  0  0  0  0
    8.5378   -5.9662   24.5438 H   0  0  0  0  0  0  0  0  0  0  0  0
    8.0545   -4.9235   25.8716 H   0  0  0  0  0  0  0  0  0  0  0  0
    9.2603   -3.2786   24.6658 H   0  0  0  0  0  0  0  0  0  0  0  0
    9.0519   -4.1382   23.1379 H   0  0  0  0  0  0  0  0  0  0  0  0
    7.0473   -2.3769   24.5947 H   0  0  0  0  0  0  0  0  0  0  0  0
    6.6126   -1.5713   21.7454 N   0  0  0  0  0  0  0  0  0  0  0  0
    7.2797   -0.7083   20.9403 N   0  0  0  0  0  0  0  0  0  0  0  0
    6.6093   -0.0379   19.8832 C   0  0  0  0  0  0  0  0  0  0  0  0
    5.4019    0.6222   20.1357 C   0  0  0  0  0  0  0  0  0  0  0  0
    4.7994    1.3141   19.0831 C   0  0  0  0  0  0  0  0  0  0  0  0
    5.4056    1.3051   17.8210 C   0  0  0  0  0  0  0  0  0  0  0  0
    6.5453    0.6478   17.5629 N   0  0  0  0  0  0  0  0  0  0  0  0
    7.1295   -0.0035   18.5747 C   0  0  0  0  0  0  0  0  0  0  0  0
    8.0676   -0.5049   18.3385 H   0  0  0  0  0  0  0  0  0  0  0  0
    4.9544    1.8398   16.9876 H   0  0  0  0  0  0  0  0  0  0  0  0
    3.8761    1.8597   19.2364 H   0  0  0  0  0  0  0  0  0  0  0  0
    4.9747    0.5971   21.1392 H   0  0  0  0  0  0  0  0  0  0  0  0
   10.0620   -0.4705   19.9509 H   0  0  0  0  0  0  0  0  0  0  0  0
    9.0908    0.9953   20.0953 H   0  0  0  0  0  0  0  0  0  0  0  0
   11.8053    0.1724   21.9292 C   0  0  0  0  0  0  0  0  0  0  0  0
   12.2123   -0.7256   21.4659 H   0  0  0  0  0  0  0  0  0  0  0  0
   14.2875   -0.2286   23.1886 H   0  0  0  0  0  0  0  0  0  0  0  0
   13.3610    0.0089   24.6775 H   0  0  0  0  0  0  0  0  0  0  0  0
   14.2453    1.3645   23.9724 H   0  0  0  0  0  0  0  0  0  0  0  0
  1  2  1  0
  2  3  2  0
  3  4  1  0
  4  5  1  0
  5  6  1  0
  6  7  1  0
  7  8  2  0
  8  9  1  0
  9 10  1  0
 10 11  1  0
 11 12  1  0
 12 13  1  0
 13 14  1  0
 14 15  1  0
 14 16  1  0
 13 17  1  0
 13 18  1  0
 12 19  1  0
 12 20  1  0
 11 21  1  0
 11 22  1  0
 10 23  1  0
  9 24  2  0
 24 25  1  0
 25 26  1  0
 26 27  2  0
 27 28  1  0
 28 29  2  0
 29 30  1  0
 30 31  2  0
 31 32  1  0
 29 33  1  0
 28 34  1  0
 27 35  1  0
  6 36  1  0
  6 37  1  0
  5 38  2  0
 38 39  1  0
  1 40  1  0
  1 41  1  0
  1 42  1  0
 38  2  1  0
 25  7  1  0
 31 26  1  0
 14 10  1  0
M  END
>  <cnnaffinity>  (1) 
-6.45484

>  <filename>  (1) 
Cc1cc(Cc2nc(C3CCCC3)nn2-c2cccnc2)sn1

$$$$
