
     RDKit          3D

 48 50  0  0  0  0  0  0  0  0999 V2000
    8.9883    6.9320   23.9562 C   0  0  0  0  0  0  0  0  0  0  0  0
    8.5513    5.5231   23.7489 C   0  0  0  0  0  0  0  0  0  0  0  0
    9.3845    4.5566   23.3894 N   0  0  0  0  0  0  0  0  0  0  0  0
    8.6300    3.4373   23.3635 N   0  0  0  0  0  0  0  0  0  0  0  0
    9.1924    2.1819   22.9035 C   0  0  0  0  0  0  0  0  0  0  0  0
    9.0972    1.9959   21.3834 C   0  0  0  0  0  0  0  0  0  0  0  0
    9.5467    0.5947   20.9312 C   0  0  0  0  0  0  0  0  0  0  0  0
    8.6445   -0.4875   21.4167 C   0  0  0  0  0  0  0  0  0  0  0  0
    8.8645   -1.2952   22.4383 N   0  0  0  0  0  0  0  0  0  0  0  0
    7.6757   -1.9373   22.5783 C   0  0  0  0  0  0  0  0  0  0  0  0
    7.4146   -2.9065   23.7026 C   0  0  0  0  0  0  0  0  0  0  0  0
    6.5349   -2.2558   24.7906 C   0  0  0  0  0  0  0  0  0  0  0  0
    5.5542   -1.9948   24.3825 H   0  0  0  0  0  0  0  0  0  0  0  0
    6.3761   -2.9399   25.6305 H   0  0  0  0  0  0  0  0  0  0  0  0
    6.9898   -1.3371   25.1775 H   0  0  0  0  0  0  0  0  0  0  0  0
    6.8026   -4.2208   23.1908 C   0  0  0  0  0  0  0  0  0  0  0  0
    5.8254   -4.0303   22.7326 H   0  0  0  0  0  0  0  0  0  0  0  0
    7.4414   -4.6888   22.4343 H   0  0  0  0  0  0  0  0  0  0  0  0
    6.6680   -4.9306   24.0143 H   0  0  0  0  0  0  0  0  0  0  0  0
    8.4008   -3.1071   24.1301 H   0  0  0  0  0  0  0  0  0  0  0  0
    6.7453   -1.5842   21.7116 N   0  0  0  0  0  0  0  0  0  0  0  0
    7.3746   -0.6584   20.9443 N   0  0  0  0  0  0  0  0  0  0  0  0
    6.6647    0.0102   19.9072 C   0  0  0  0  0  0  0  0  0  0  0  0
    5.4446    0.6429   20.1683 C   0  0  0  0  0  0  0  0  0  0  0  0
    4.8149    1.3091   19.1117 C   0  0  0  0  0  0  0  0  0  0  0  0
    5.3999    1.2969   17.8388 C   0  0  0  0  0  0  0  0  0  0  0  0
    6.5573    0.6707   17.5772 N   0  0  0  0  0  0  0  0  0  0  0  0
    7.1676    0.0527   18.5946 C   0  0  0  0  0  0  0  0  0  0  0  0
    8.1110   -0.4351   18.3666 H   0  0  0  0  0  0  0  0  0  0  0  0
    4.9220    1.7878   16.9940 H   0  0  0  0  0  0  0  0  0  0  0  0
    3.8822    1.8370   19.2614 H   0  0  0  0  0  0  0  0  0  0  0  0
    5.0129    0.5985   21.1723 H   0  0  0  0  0  0  0  0  0  0  0  0
   10.5509    0.3613   21.2952 H   0  0  0  0  0  0  0  0  0  0  0  0
    9.5820    0.5590   19.8395 H   0  0  0  0  0  0  0  0  0  0  0  0
    9.7212    2.7562   20.9091 H   0  0  0  0  0  0  0  0  0  0  0  0
    8.0654    2.1675   21.0457 H   0  0  0  0  0  0  0  0  0  0  0  0
    8.6691    1.3719   23.4178 H   0  0  0  0  0  0  0  0  0  0  0  0
   10.2294    2.1392   23.2376 H   0  0  0  0  0  0  0  0  0  0  0  0
    7.3313    3.6836   23.6806 C   0  0  0  0  0  0  0  0  0  0  0  0
    6.2608    2.6442   23.7482 C   0  0  0  0  0  0  0  0  0  0  0  0
    6.2325    2.0069   22.8549 H   0  0  0  0  0  0  0  0  0  0  0  0
    5.2942    3.1448   23.8363 H   0  0  0  0  0  0  0  0  0  0  0  0
    6.3803    2.0012   24.6285 H   0  0  0  0  0  0  0  0  0  0  0  0
    7.2492    5.0281   23.9456 C   0  0  0  0  0  0  0  0  0  0  0  0
    6.3716    5.5791   24.2532 H   0  0  0  0  0  0  0  0  0  0  0  0
    9.8696    7.1810   23.3635 H   0  0  0  0  0  0  0  0  0  0  0  0
    9.2137    7.0996   25.0138 H   0  0  0  0  0  0  0  0  0  0  0  0
    8.1786    7.6190   23.6985 H   0  0  0  0  0  0  0  0  0  0  0  0
  1  2  1  0
  2  3  2  0
  3  4  1  0
  4  5  1  0
  5  6  1  0
  6  7  1  0
  7  8  1  0
  8  9  2  0
  9 10  1  0
 10 11  1  0
 11 12  1  0
 12 13  1  0
 12 14  1  0
 12 15  1  0
 11 16  1  0
 16 17  1  0
 16 18  1  0
 16 19  1  0
 11 20  1  0
 10 21  2  0
 21 22  1  0
 22 23  1  0
 23 24  2  0
 24 25  1  0
 25 26  2  0
 26 27  1  0
 27 28  2  0
 28 29  1  0
 26 30  1  0
 25 31  1  0
 24 32  1  0
  7 33  1  0
  7 34  1  0
  6 35  1  0
  6 36  1  0
  5 37  1  0
  5 38  1  0
  4 39  1  0
 39 40  1  0
 40 41  1  0
 40 42  1  0
 40 43  1  0
 39 44  2  0
 44 45  1  0
  1 46  1  0
  1 47  1  0
  1 48  1  0
 44  2  1  0
 22  8  1  0
 28 23  1  0
M  END
>  <cnnaffinity>  (1) 
-6.11195

>  <filename>  (1) 
Cc1cc(C)n(CCCc2nc(C(C)C)nn2-c2cccnc2)n1

$$$$
