
     RDKit          3D

 44 47  0  0  0  0  0  0  0  0999 V2000
   14.3993   -1.8910   22.0171 C   0  0  0  0  0  0  0  0  0  0  0  0
   13.1052   -1.1597   22.0648 C   0  0  0  0  0  0  0  0  0  0  0  0
   12.9898    0.0596   22.7407 C   0  0  0  0  0  0  0  0  0  0  0  0
   11.8821    0.8581   22.4678 C   0  0  0  0  0  0  0  0  0  0  0  0
   10.8834    0.3795   21.5996 C   0  0  0  0  0  0  0  0  0  0  0  0
    9.7348    1.3056   21.2302 C   0  0  0  0  0  0  0  0  0  0  0  0
    8.6220    1.3122   22.2271 C   0  0  0  0  0  0  0  0  0  0  0  0
    8.5569    2.0716   23.2969 N   0  0  0  0  0  0  0  0  0  0  0  0
    7.5089    1.5482   23.9810 C   0  0  0  0  0  0  0  0  0  0  0  0
    7.1491    2.0398   25.3059 C   0  0  0  0  0  0  0  0  0  0  0  0
    7.9220    3.0141   25.9620 C   0  0  0  0  0  0  0  0  0  0  0  0
    7.5017    3.4694   27.2034 C   0  0  0  0  0  0  0  0  0  0  0  0
    6.3298    2.9136   27.7357 C   0  0  0  0  0  0  0  0  0  0  0  0
    5.7702    3.4949   29.2741 Cl  0  0  0  0  0  0  0  0  0  0  0  0
    5.6065    1.9764   27.1486 N   0  0  0  0  0  0  0  0  0  0  0  0
    6.0170    1.5373   25.9521 C   0  0  0  0  0  0  0  0  0  0  0  0
    5.4128    0.7540   25.5003 H   0  0  0  0  0  0  0  0  0  0  0  0
    8.0363    4.2280   27.7561 H   0  0  0  0  0  0  0  0  0  0  0  0
    8.8304    3.3920   25.4911 H   0  0  0  0  0  0  0  0  0  0  0  0
    6.9034    0.5467   23.3661 N   0  0  0  0  0  0  0  0  0  0  0  0
    7.6249    0.4097   22.2288 N   0  0  0  0  0  0  0  0  0  0  0  0
    7.2563   -0.5526   21.1925 C   0  0  0  0  0  0  0  0  0  0  0  0
    6.6160    0.0847   19.9703 C   0  0  0  0  0  0  0  0  0  0  0  0
    5.4105    0.7766   20.1277 C   0  0  0  0  0  0  0  0  0  0  0  0
    4.8307    1.3774   19.0106 C   0  0  0  0  0  0  0  0  0  0  0  0
    5.4776    1.2739   17.7761 C   0  0  0  0  0  0  0  0  0  0  0  0
    6.6314    0.6131   17.6007 N   0  0  0  0  0  0  0  0  0  0  0  0
    7.1782    0.0409   18.6824 C   0  0  0  0  0  0  0  0  0  0  0  0
    8.1175   -0.4853   18.4992 H   0  0  0  0  0  0  0  0  0  0  0  0
    5.0550    1.7432   16.8902 H   0  0  0  0  0  0  0  0  0  0  0  0
    3.9060    1.9371   19.0867 H   0  0  0  0  0  0  0  0  0  0  0  0
    4.9579    0.8432   21.1190 H   0  0  0  0  0  0  0  0  0  0  0  0
    6.5752   -1.2445   21.6957 H   0  0  0  0  0  0  0  0  0  0  0  0
    8.1482   -1.1192   20.9041 H   0  0  0  0  0  0  0  0  0  0  0  0
    9.3235    1.0755   20.2431 H   0  0  0  0  0  0  0  0  0  0  0  0
   10.1038    2.3345   21.2003 H   0  0  0  0  0  0  0  0  0  0  0  0
   11.0104   -0.9494   21.1612 C   0  0  0  0  0  0  0  0  0  0  0  0
   12.1055   -1.6881   21.3524 N   0  0  0  0  0  0  0  0  0  0  0  0
   10.2049   -1.4542   20.6285 H   0  0  0  0  0  0  0  0  0  0  0  0
   11.7749    1.8466   22.9129 H   0  0  0  0  0  0  0  0  0  0  0  0
   13.7955    0.3642   23.4029 H   0  0  0  0  0  0  0  0  0  0  0  0
   14.2432   -2.9712   22.0662 H   0  0  0  0  0  0  0  0  0  0  0  0
   15.0546   -1.5629   22.8250 H   0  0  0  0  0  0  0  0  0  0  0  0
   14.8616   -1.6682   21.0496 H   0  0  0  0  0  0  0  0  0  0  0  0
  1  2  1  0
  2  3  2  0
  3  4  1  0
  4  5  2  0
  5  6  1  0
  6  7  1  0
  7  8  2  0
  8  9  1  0
  9 10  1  0
 10 11  2  0
 11 12  1  0
 12 13  2  0
 13 14  1  0
 13 15  1  0
 15 16  2  0
 16 17  1  0
 12 18  1  0
 11 19  1  0
  9 20  2  0
 20 21  1  0
 21 22  1  0
 22 23  1  0
 23 24  2  0
 24 25  1  0
 25 26  2  0
 26 27  1  0
 27 28  2  0
 28 29  1  0
 26 30  1  0
 25 31  1  0
 24 32  1  0
 22 33  1  0
 22 34  1  0
  6 35  1  0
  6 36  1  0
  5 37  1  0
 37 38  2  0
 37 39  1  0
  4 40  1  0
  3 41  1  0
  1 42  1  0
  1 43  1  0
  1 44  1  0
 38  2  1  0
 21  7  1  0
 28 23  1  0
 16 10  1  0
M  END
>  <cnnaffinity>  (1) 
-6.59702

>  <filename>  (1) 
Cc1ccc(Cc2nc(-c3ccc(Cl)nc3)nn2Cc2cccnc2)cn1

$$$$
