
     RDKit          3D

 42 45  0  0  0  0  0  0  0  0999 V2000
    5.5084   -0.6479   26.6143 C   0  0  0  0  0  0  0  0  0  0  0  0
    6.3987    0.1174   25.6841 C   0  0  0  0  0  0  0  0  0  0  0  0
    6.2389    0.6152   24.4054 C   0  0  0  0  0  0  0  0  0  0  0  0
    7.4616    1.2403   24.0724 C   0  0  0  0  0  0  0  0  0  0  0  0
    7.9169    1.8412   22.7681 C   0  0  0  0  0  0  0  0  0  0  0  0
    8.9174    0.9329   22.1226 C   0  0  0  0  0  0  0  0  0  0  0  0
   10.2277    0.9849   22.2787 N   0  0  0  0  0  0  0  0  0  0  0  0
   10.6491   -0.2054   21.7878 C   0  0  0  0  0  0  0  0  0  0  0  0
   12.0656   -0.5940   21.6983 C   0  0  0  0  0  0  0  0  0  0  0  0
   12.4340   -1.7174   20.9497 C   0  0  0  0  0  0  0  0  0  0  0  0
   13.7218   -1.8587   20.4417 C   0  0  0  0  0  0  0  0  0  0  0  0
   14.5930   -0.8128   20.7369 C   0  0  0  0  0  0  0  0  0  0  0  0
   16.0085   -0.3761   19.6518 Cl  0  0  0  0  0  0  0  0  0  0  0  0
   14.3562    0.0872   21.6912 N   0  0  0  0  0  0  0  0  0  0  0  0
   13.1119    0.2045   22.1719 C   0  0  0  0  0  0  0  0  0  0  0  0
   12.9436    0.9805   22.9139 H   0  0  0  0  0  0  0  0  0  0  0  0
   14.0266   -2.7049   19.8427 H   0  0  0  0  0  0  0  0  0  0  0  0
   11.6275   -2.3957   20.7482 H   0  0  0  0  0  0  0  0  0  0  0  0
    9.6741   -0.9604   21.3002 N   0  0  0  0  0  0  0  0  0  0  0  0
    8.5645   -0.2146   21.5001 N   0  0  0  0  0  0  0  0  0  0  0  0
    7.2536   -0.7090   21.0694 C   0  0  0  0  0  0  0  0  0  0  0  0
    6.5761    0.0625   19.9487 C   0  0  0  0  0  0  0  0  0  0  0  0
    5.3421    0.7134   20.0978 C   0  0  0  0  0  0  0  0  0  0  0  0
    4.7749    1.3606   18.9953 C   0  0  0  0  0  0  0  0  0  0  0  0
    5.4647    1.3380   17.7797 C   0  0  0  0  0  0  0  0  0  0  0  0
    6.6410    0.7143   17.6122 N   0  0  0  0  0  0  0  0  0  0  0  0
    7.1725    0.1025   18.6771 C   0  0  0  0  0  0  0  0  0  0  0  0
    8.1243   -0.4005   18.5131 H   0  0  0  0  0  0  0  0  0  0  0  0
    5.0568    1.8331   16.8994 H   0  0  0  0  0  0  0  0  0  0  0  0
    3.8282    1.8872   19.0613 H   0  0  0  0  0  0  0  0  0  0  0  0
    4.8219    0.7212   21.0599 H   0  0  0  0  0  0  0  0  0  0  0  0
    6.5999   -0.7315   21.9449 H   0  0  0  0  0  0  0  0  0  0  0  0
    7.4200   -1.7489   20.7715 H   0  0  0  0  0  0  0  0  0  0  0  0
    7.0598    2.0024   22.1067 H   0  0  0  0  0  0  0  0  0  0  0  0
    8.4013    2.8011   22.9555 H   0  0  0  0  0  0  0  0  0  0  0  0
    8.3114    1.1642   25.0854 N   0  0  0  0  0  0  0  0  0  0  0  0
    7.6525    0.4915   26.0385 N   0  0  0  0  0  0  0  0  0  0  0  0
    8.1578    0.2009   26.8624 H   0  0  0  0  0  0  0  0  0  0  0  0
    5.3527    0.5579   23.7932 H   0  0  0  0  0  0  0  0  0  0  0  0
    4.7316   -1.1782   26.0590 H   0  0  0  0  0  0  0  0  0  0  0  0
    5.0111    0.0146   27.3303 H   0  0  0  0  0  0  0  0  0  0  0  0
    6.0709   -1.3910   27.1916 H   0  0  0  0  0  0  0  0  0  0  0  0
  1  2  1  0
  2  3  2  0
  3  4  1  0
  4  5  1  0
  5  6  1  0
  6  7  2  0
  7  8  1  0
  8  9  1  0
  9 10  2  0
 10 11  1  0
 11 12  2  0
 12 13  1  0
 12 14  1  0
 14 15  2  0
 15 16  1  0
 11 17  1  0
 10 18  1  0
  8 19  2  0
 19 20  1  0
 20 21  1  0
 21 22  1  0
 22 23  2  0
 23 24  1  0
 24 25  2  0
 25 26  1  0
 26 27  2  0
 27 28  1  0
 25 29  1  0
 24 30  1  0
 23 31  1  0
 21 32  1  0
 21 33  1  0
  5 34  1  0
  5 35  1  0
  4 36  2  0
 36 37  1  0
 37 38  1  0
  3 39  1  0
  1 40  1  0
  1 41  1  0
  1 42  1  0
 37  2  1  0
 20  6  1  0
 27 22  1  0
 15  9  1  0
M  END
>  <cnnaffinity>  (1) 
-6.441

>  <filename>  (1) 
Cc1cc(Cc2nc(-c3ccc(Cl)nc3)nn2Cc2cccnc2)n[nH]1

$$$$
