
     RDKit          3D

 46 49  0  0  0  0  0  0  0  0999 V2000
    8.9718    2.6348   22.5227 C   0  0  0  0  0  0  0  0  0  0  0  0
   10.2160    1.8026   22.5639 C   0  0  0  0  0  0  0  0  0  0  0  0
   11.3443    1.9170   23.3470 C   0  0  0  0  0  0  0  0  0  0  0  0
   12.2209    0.9169   22.8594 C   0  0  0  0  0  0  0  0  0  0  0  0
   13.6365    0.5774   23.2782 C   0  0  0  0  0  0  0  0  0  0  0  0
   14.0729   -0.5725   22.7542 F   0  0  0  0  0  0  0  0  0  0  0  0
   13.7247    0.4745   24.6210 F   0  0  0  0  0  0  0  0  0  0  0  0
   14.4958    1.5376   22.8931 F   0  0  0  0  0  0  0  0  0  0  0  0
   11.6536    0.2361   21.8784 N   0  0  0  0  0  0  0  0  0  0  0  0
   10.4438    0.7626   21.7112 N   0  0  0  0  0  0  0  0  0  0  0  0
    9.5431    0.1193   20.7805 C   0  0  0  0  0  0  0  0  0  0  0  0
    8.4498   -0.6238   21.4694 C   0  0  0  0  0  0  0  0  0  0  0  0
    8.5671   -1.3172   22.5843 N   0  0  0  0  0  0  0  0  0  0  0  0
    7.3672   -1.9495   22.6822 C   0  0  0  0  0  0  0  0  0  0  0  0
    7.0732   -2.9250   23.7721 C   0  0  0  0  0  0  0  0  0  0  0  0
    6.2493   -4.1583   23.4963 C   0  0  0  0  0  0  0  0  0  0  0  0
    7.7260   -4.2944   23.7459 C   0  0  0  0  0  0  0  0  0  0  0  0
    8.2116   -4.9003   25.0496 C   0  0  0  0  0  0  0  0  0  0  0  0
    9.2205   -4.5487   25.2977 H   0  0  0  0  0  0  0  0  0  0  0  0
    8.2787   -5.9933   24.9678 H   0  0  0  0  0  0  0  0  0  0  0  0
    7.5598   -4.6482   25.8913 H   0  0  0  0  0  0  0  0  0  0  0  0
    8.6634   -4.5740   22.5950 C   0  0  0  0  0  0  0  0  0  0  0  0
    9.6060   -4.0530   22.7986 H   0  0  0  0  0  0  0  0  0  0  0  0
    8.8838   -5.6399   22.5045 H   0  0  0  0  0  0  0  0  0  0  0  0
    8.2865   -4.1984   21.6372 H   0  0  0  0  0  0  0  0  0  0  0  0
    5.8719   -4.2822   22.4807 H   0  0  0  0  0  0  0  0  0  0  0  0
    5.5684   -4.4931   24.2771 H   0  0  0  0  0  0  0  0  0  0  0  0
    6.9491   -2.4529   24.7436 H   0  0  0  0  0  0  0  0  0  0  0  0
    6.5142   -1.6639   21.7150 N   0  0  0  0  0  0  0  0  0  0  0  0
    7.2091   -0.8058   20.9244 N   0  0  0  0  0  0  0  0  0  0  0  0
    6.5635   -0.1032   19.8624 C   0  0  0  0  0  0  0  0  0  0  0  0
    5.3789    0.6024   20.1091 C   0  0  0  0  0  0  0  0  0  0  0  0
    4.8030    1.3264   19.0629 C   0  0  0  0  0  0  0  0  0  0  0  0
    5.4227    1.3116   17.8076 C   0  0  0  0  0  0  0  0  0  0  0  0
    6.5522    0.6297   17.5582 N   0  0  0  0  0  0  0  0  0  0  0  0
    7.1017   -0.0604   18.5639 C   0  0  0  0  0  0  0  0  0  0  0  0
    8.0294   -0.5878   18.3368 H   0  0  0  0  0  0  0  0  0  0  0  0
    4.9914    1.8567   16.9707 H   0  0  0  0  0  0  0  0  0  0  0  0
    3.8898    1.8981   19.2097 H   0  0  0  0  0  0  0  0  0  0  0  0
    4.9509    0.5827   21.1112 H   0  0  0  0  0  0  0  0  0  0  0  0
   10.1549   -0.6065   20.2381 H   0  0  0  0  0  0  0  0  0  0  0  0
    9.1585    0.8663   20.0853 H   0  0  0  0  0  0  0  0  0  0  0  0
   11.4771    2.6204   24.1623 H   0  0  0  0  0  0  0  0  0  0  0  0
    8.8689    3.1723   21.5721 H   0  0  0  0  0  0  0  0  0  0  0  0
    8.9919    3.3781   23.3228 H   0  0  0  0  0  0  0  0  0  0  0  0
    8.0733    2.0229   22.6523 H   0  0  0  0  0  0  0  0  0  0  0  0
  1  2  1  0
  2  3  2  0
  3  4  1  0
  4  5  1  0
  5  6  1  0
  5  7  1  0
  5  8  1  0
  4  9  2  0
  9 10  1  0
 10 11  1  0
 11 12  1  0
 12 13  2  0
 13 14  1  0
 14 15  1  0
 15 16  1  0
 16 17  1  0
 17 18  1  0
 18 19  1  0
 18 20  1  0
 18 21  1  0
 17 22  1  0
 22 23  1  0
 22 24  1  0
 22 25  1  0
 16 26  1  0
 16 27  1  0
 15 28  1  0
 14 29  2  0
 29 30  1  0
 30 31  1  0
 31 32  2  0
 32 33  1  0
 33 34  2  0
 34 35  1  0
 35 36  2  0
 36 37  1  0
 34 38  1  0
 33 39  1  0
 32 40  1  0
 11 41  1  0
 11 42  1  0
  3 43  1  0
  1 44  1  0
  1 45  1  0
  1 46  1  0
 10  2  1  0
 30 12  1  0
 36 31  1  0
 17 15  1  0
M  END
>  <cnnaffinity>  (1) 
-6.63383

>  <filename>  (1) 
Cc1cc(C(F)(F)F)nn1Cc1nc(C2CC2(C)C)nn1-c1cccnc1

$$$$
