
     RDKit          3D

 53 56  0  0  0  0  0  0  0  0999 V2000
    2.0953    0.7633   30.9232 C   0  0  0  0  0  0  0  0  0  0  0  0
    3.1916    0.5304   29.8762 C   0  0  0  0  0  0  0  0  0  0  0  0
    2.6082   -0.0932   28.5970 C   0  0  0  0  0  0  0  0  0  0  0  0
    3.6610   -0.3067   27.5001 C   0  0  0  0  0  0  0  0  0  0  0  0
    4.4681    0.9749   27.1479 C   0  0  0  0  0  0  0  0  0  0  0  0
    5.5690    0.6723   26.1526 C   0  0  0  0  0  0  0  0  0  0  0  0
    6.5707   -0.1400   26.4452 N   0  0  0  0  0  0  0  0  0  0  0  0
    7.2984   -0.1479   25.2982 N   0  0  0  0  0  0  0  0  0  0  0  0
    8.4414   -0.9726   25.1087 C   0  0  0  0  0  0  0  0  0  0  0  0
    8.3921   -2.2995   25.4046 C   0  0  0  0  0  0  0  0  0  0  0  0
    9.4579   -3.1716   24.9700 C   0  0  0  0  0  0  0  0  0  0  0  0
    9.5576   -4.3720   25.1577 O   0  0  0  0  0  0  0  0  0  0  0  0
   10.4914   -2.5439   24.2680 N   0  0  0  0  0  0  0  0  0  0  0  0
   10.5973   -1.1999   24.0520 C   0  0  0  0  0  0  0  0  0  0  0  0
    9.6046   -0.3885   24.4973 C   0  0  0  0  0  0  0  0  0  0  0  0
    9.6708    0.6853   24.3939 H   0  0  0  0  0  0  0  0  0  0  0  0
   11.4762   -0.8251   23.5274 H   0  0  0  0  0  0  0  0  0  0  0  0
   11.2083   -3.2357   24.0804 H   0  0  0  0  0  0  0  0  0  0  0  0
    7.5707   -2.7536   25.9333 H   0  0  0  0  0  0  0  0  0  0  0  0
    6.6717    0.6080   24.3605 C   0  0  0  0  0  0  0  0  0  0  0  0
    7.1235    0.7024   22.9380 C   0  0  0  0  0  0  0  0  0  0  0  0
    7.0617   -0.6409   22.1812 C   0  0  0  0  0  0  0  0  0  0  0  0
    7.5353   -0.5191   20.8427 O   0  0  0  0  0  0  0  0  0  0  0  0
    6.7528    0.0460   19.8845 C   0  0  0  0  0  0  0  0  0  0  0  0
    5.5059    0.6460   20.1028 C   0  0  0  0  0  0  0  0  0  0  0  0
    4.8666    1.2688   19.0235 C   0  0  0  0  0  0  0  0  0  0  0  0
    5.4615    1.2361   17.7622 C   0  0  0  0  0  0  0  0  0  0  0  0
    6.6334    0.6162   17.5243 N   0  0  0  0  0  0  0  0  0  0  0  0
    7.2556    0.0430   18.5608 C   0  0  0  0  0  0  0  0  0  0  0  0
    8.2089   -0.4495   18.3668 H   0  0  0  0  0  0  0  0  0  0  0  0
    4.9874    1.7209   16.9120 H   0  0  0  0  0  0  0  0  0  0  0  0
    3.9325    1.8009   19.1684 H   0  0  0  0  0  0  0  0  0  0  0  0
    5.0592    0.6436   21.0943 H   0  0  0  0  0  0  0  0  0  0  0  0
    7.7301   -1.3769   22.6320 H   0  0  0  0  0  0  0  0  0  0  0  0
    6.0504   -1.0675   22.1809 H   0  0  0  0  0  0  0  0  0  0  0  0
    6.4915    1.4462   22.4504 H   0  0  0  0  0  0  0  0  0  0  0  0
    8.1476    1.0821   22.8721 H   0  0  0  0  0  0  0  0  0  0  0  0
    5.5919    1.1590   24.8807 N   0  0  0  0  0  0  0  0  0  0  0  0
    5.0251    1.6182   28.4469 C   0  0  0  0  0  0  0  0  0  0  0  0
    3.9613    1.8202   29.5398 C   0  0  0  0  0  0  0  0  0  0  0  0
    3.2458    2.6003   29.2342 H   0  0  0  0  0  0  0  0  0  0  0  0
    4.4545    2.1943   30.4474 H   0  0  0  0  0  0  0  0  0  0  0  0
    5.8146    0.9550   28.8290 H   0  0  0  0  0  0  0  0  0  0  0  0
    5.5024    2.5795   28.2167 H   0  0  0  0  0  0  0  0  0  0  0  0
    3.8167    1.6907   26.6337 H   0  0  0  0  0  0  0  0  0  0  0  0
    4.3840   -1.0594   27.8455 H   0  0  0  0  0  0  0  0  0  0  0  0
    3.1805   -0.7133   26.6007 H   0  0  0  0  0  0  0  0  0  0  0  0
    1.7879    0.5431   28.2277 H   0  0  0  0  0  0  0  0  0  0  0  0
    2.1563   -1.0632   28.8463 H   0  0  0  0  0  0  0  0  0  0  0  0
    3.9185   -0.1867   30.2939 H   0  0  0  0  0  0  0  0  0  0  0  0
    1.5779   -0.1712   31.1726 H   0  0  0  0  0  0  0  0  0  0  0  0
    2.4963    1.1787   31.8550 H   0  0  0  0  0  0  0  0  0  0  0  0
    1.3424    1.4652   30.5416 H   0  0  0  0  0  0  0  0  0  0  0  0
  1  2  1  0
  2  3  1  0
  3  4  1  0
  4  5  1  0
  5  6  1  0
  6  7  2  0
  7  8  1  0
  8  9  1  0
  9 10  2  0
 10 11  1  0
 11 12  2  0
 11 13  1  0
 13 14  1  0
 14 15  2  0
 15 16  1  0
 14 17  1  0
 13 18  1  0
 10 19  1  0
  8 20  1  0
 20 21  1  0
 21 22  1  0
 22 23  1  0
 23 24  1  0
 24 25  2  0
 25 26  1  0
 26 27  2  0
 27 28  1  0
 28 29  2  0
 29 30  1  0
 27 31  1  0
 26 32  1  0
 25 33  1  0
 22 34  1  0
 22 35  1  0
 21 36  1  0
 21 37  1  0
 20 38  2  0
  5 39  1  0
 39 40  1  0
 40 41  1  0
 40 42  1  0
 39 43  1  0
 39 44  1  0
  5 45  1  0
  4 46  1  0
  4 47  1  0
  3 48  1  0
  3 49  1  0
  2 50  1  0
  1 51  1  0
  1 52  1  0
  1 53  1  0
 40  2  1  0
 38  6  1  0
 15  9  1  0
 29 24  1  0
M  END
>  <cnnaffinity>  (1) 
-5.86836

>  <filename>  (1) 
CC1CCC(c2nc(CCOc3cccnc3)n(-c3cc[nH]c(=O)c3)n2)CC1

$$$$
