
     RDKit          3D

 55 58  0  0  0  0  0  0  0  0999 V2000
    4.0639    8.0330   20.9531 C   0  0  0  0  0  0  0  0  0  0  0  0
    4.6244    6.8367   21.7348 C   0  0  0  0  0  0  0  0  0  0  0  0
    6.1356    6.6896   21.4804 C   0  0  0  0  0  0  0  0  0  0  0  0
    6.7971    5.5600   22.2984 C   0  0  0  0  0  0  0  0  0  0  0  0
    5.8271    4.4209   22.7168 C   0  0  0  0  0  0  0  0  0  0  0  0
    6.5712    3.1316   22.9114 C   0  0  0  0  0  0  0  0  0  0  0  0
    6.3563    2.3732   23.9608 N   0  0  0  0  0  0  0  0  0  0  0  0
    7.1567    1.2958   23.7233 N   0  0  0  0  0  0  0  0  0  0  0  0
    7.3391    0.3042   24.7205 C   0  0  0  0  0  0  0  0  0  0  0  0
    6.2386   -0.2145   25.3346 C   0  0  0  0  0  0  0  0  0  0  0  0
    6.3734   -1.2296   26.3468 C   0  0  0  0  0  0  0  0  0  0  0  0
    5.4740   -1.7854   26.9543 O   0  0  0  0  0  0  0  0  0  0  0  0
    7.6928   -1.5881   26.6511 N   0  0  0  0  0  0  0  0  0  0  0  0
    8.8028   -1.0520   26.0609 C   0  0  0  0  0  0  0  0  0  0  0  0
    8.6612   -0.1146   25.0826 C   0  0  0  0  0  0  0  0  0  0  0  0
    9.5223    0.3402   24.6120 H   0  0  0  0  0  0  0  0  0  0  0  0
    9.7750   -1.3894   26.4060 H   0  0  0  0  0  0  0  0  0  0  0  0
    7.6916   -2.2877   27.3784 H   0  0  0  0  0  0  0  0  0  0  0  0
    5.2437    0.1204   25.0937 H   0  0  0  0  0  0  0  0  0  0  0  0
    7.7184    1.4138   22.4882 C   0  0  0  0  0  0  0  0  0  0  0  0
    8.4208    0.3237   21.7361 C   0  0  0  0  0  0  0  0  0  0  0  0
    7.5069   -0.6784   20.9562 C   0  0  0  0  0  0  0  0  0  0  0  0
    6.6573   -1.4928   21.9413 C   0  0  0  0  0  0  0  0  0  0  0  0
    6.0805   -0.8318   22.5913 H   0  0  0  0  0  0  0  0  0  0  0  0
    7.2972   -2.0983   22.5929 H   0  0  0  0  0  0  0  0  0  0  0  0
    5.9565   -2.1635   21.4315 H   0  0  0  0  0  0  0  0  0  0  0  0
    6.6902   -0.0138   19.8496 C   0  0  0  0  0  0  0  0  0  0  0  0
    5.4571    0.6098   20.0875 C   0  0  0  0  0  0  0  0  0  0  0  0
    4.8078    1.2618   19.0367 C   0  0  0  0  0  0  0  0  0  0  0  0
    5.4037    1.2864   17.7742 C   0  0  0  0  0  0  0  0  0  0  0  0
    6.5578    0.6605   17.5017 N   0  0  0  0  0  0  0  0  0  0  0  0
    7.1642    0.0309   18.5192 C   0  0  0  0  0  0  0  0  0  0  0  0
    8.0919   -0.4763   18.2543 H   0  0  0  0  0  0  0  0  0  0  0  0
    4.9405    1.8375   16.9564 H   0  0  0  0  0  0  0  0  0  0  0  0
    3.8628    1.7704   19.1883 H   0  0  0  0  0  0  0  0  0  0  0  0
    5.0171    0.6059   21.0872 H   0  0  0  0  0  0  0  0  0  0  0  0
    8.2013   -1.3716   20.4637 H   0  0  0  0  0  0  0  0  0  0  0  0
    9.1020    0.8194   21.0398 H   0  0  0  0  0  0  0  0  0  0  0  0
    9.0318   -0.2587   22.4290 H   0  0  0  0  0  0  0  0  0  0  0  0
    7.4166    2.5964   21.9867 N   0  0  0  0  0  0  0  0  0  0  0  0
    4.6841    4.2122   21.6969 C   0  0  0  0  0  0  0  0  0  0  0  0
    3.8563    5.5061   21.4693 C   0  0  0  0  0  0  0  0  0  0  0  0
    2.9712    5.4983   22.1216 H   0  0  0  0  0  0  0  0  0  0  0  0
    3.4459    5.4738   20.4506 H   0  0  0  0  0  0  0  0  0  0  0  0
    4.0072    3.4165   22.0436 H   0  0  0  0  0  0  0  0  0  0  0  0
    5.1626    3.8339   20.7779 H   0  0  0  0  0  0  0  0  0  0  0  0
    5.3674    4.6672   23.6851 H   0  0  0  0  0  0  0  0  0  0  0  0
    7.2421    5.9735   23.2151 H   0  0  0  0  0  0  0  0  0  0  0  0
    7.6209    5.1401   21.7053 H   0  0  0  0  0  0  0  0  0  0  0  0
    6.3000    6.5100   20.4054 H   0  0  0  0  0  0  0  0  0  0  0  0
    6.6365    7.6406   21.7110 H   0  0  0  0  0  0  0  0  0  0  0  0
    4.4931    7.0677   22.8057 H   0  0  0  0  0  0  0  0  0  0  0  0
    4.2520    7.9437   19.8735 H   0  0  0  0  0  0  0  0  0  0  0  0
    4.5444    8.9605   21.2915 H   0  0  0  0  0  0  0  0  0  0  0  0
    2.9834    8.1480   21.0969 H   0  0  0  0  0  0  0  0  0  0  0  0
  1  2  1  0
  2  3  1  0
  3  4  1  0
  4  5  1  0
  5  6  1  0
  6  7  2  0
  7  8  1  0
  8  9  1  0
  9 10  2  0
 10 11  1  0
 11 12  2  0
 11 13  1  0
 13 14  1  0
 14 15  2  0
 15 16  1  0
 14 17  1  0
 13 18  1  0
 10 19  1  0
  8 20  1  0
 20 21  1  0
 21 22  1  0
 22 23  1  0
 23 24  1  0
 23 25  1  0
 23 26  1  0
 22 27  1  0
 27 28  2  0
 28 29  1  0
 29 30  2  0
 30 31  1  0
 31 32  2  0
 32 33  1  0
 30 34  1  0
 29 35  1  0
 28 36  1  0
 22 37  1  0
 21 38  1  0
 21 39  1  0
 20 40  2  0
  5 41  1  0
 41 42  1  0
 42 43  1  0
 42 44  1  0
 41 45  1  0
 41 46  1  0
  5 47  1  0
  4 48  1  0
  4 49  1  0
  3 50  1  0
  3 51  1  0
  2 52  1  0
  1 53  1  0
  1 54  1  0
  1 55  1  0
 42  2  1  0
 40  6  1  0
 15  9  1  0
 32 27  1  0
M  END
>  <cnnaffinity>  (1) 
-5.9269

>  <filename>  (1) 
CC1CCC(c2nc(CC(C)c3cccnc3)n(-c3cc[nH]c(=O)c3)n2)CC1

$$$$
