
     RDKit          3D

 46 49  0  0  0  0  0  0  0  0999 V2000
    3.8649    0.4764   26.0700 C   0  0  0  0  0  0  0  0  0  0  0  0
    4.7405    1.0063   24.9806 C   0  0  0  0  0  0  0  0  0  0  0  0
    4.4485    2.1525   24.3760 N   0  0  0  0  0  0  0  0  0  0  0  0
    5.4577    2.3639   23.5100 N   0  0  0  0  0  0  0  0  0  0  0  0
    5.4557    3.5356   22.6598 C   0  0  0  0  0  0  0  0  0  0  0  0
    4.6396    4.1785   22.9836 H   0  0  0  0  0  0  0  0  0  0  0  0
    6.4009    4.0776   22.7610 H   0  0  0  0  0  0  0  0  0  0  0  0
    5.3092    3.2609   21.6079 H   0  0  0  0  0  0  0  0  0  0  0  0
    6.3779    1.3678   23.5319 C   0  0  0  0  0  0  0  0  0  0  0  0
    7.6033    1.3122   22.6449 C   0  0  0  0  0  0  0  0  0  0  0  0
    7.8293   -0.0734   22.1172 C   0  0  0  0  0  0  0  0  0  0  0  0
    8.4167   -1.0385   22.7980 N   0  0  0  0  0  0  0  0  0  0  0  0
    8.2431   -2.1308   22.0088 C   0  0  0  0  0  0  0  0  0  0  0  0
    8.7175   -3.4968   22.4145 C   0  0  0  0  0  0  0  0  0  0  0  0
    8.7340   -3.8104   23.9225 C   0  0  0  0  0  0  0  0  0  0  0  0
    8.6567   -5.3480   24.0496 C   0  0  0  0  0  0  0  0  0  0  0  0
    8.2865   -5.8924   22.6549 C   0  0  0  0  0  0  0  0  0  0  0  0
    7.9007   -4.6645   21.8296 C   0  0  0  0  0  0  0  0  0  0  0  0
    6.8369   -4.4425   21.9779 H   0  0  0  0  0  0  0  0  0  0  0  0
    8.0551   -4.8086   20.7597 H   0  0  0  0  0  0  0  0  0  0  0  0
    9.1454   -6.4028   22.2103 H   0  0  0  0  0  0  0  0  0  0  0  0
    7.4742   -6.6289   22.6893 H   0  0  0  0  0  0  0  0  0  0  0  0
    9.5979   -5.7848   24.3941 H   0  0  0  0  0  0  0  0  0  0  0  0
    7.9158   -5.6264   24.8018 H   0  0  0  0  0  0  0  0  0  0  0  0
    9.6130   -3.3979   24.4242 H   0  0  0  0  0  0  0  0  0  0  0  0
    7.8470   -3.3678   24.3815 H   0  0  0  0  0  0  0  0  0  0  0  0
    9.7560   -3.4952   22.0815 H   0  0  0  0  0  0  0  0  0  0  0  0
    7.6652   -1.8800   20.8436 N   0  0  0  0  0  0  0  0  0  0  0  0
    7.3580   -0.5574   20.9330 N   0  0  0  0  0  0  0  0  0  0  0  0
    6.6336    0.0775   19.8827 C   0  0  0  0  0  0  0  0  0  0  0  0
    5.4356    0.7626   20.1174 C   0  0  0  0  0  0  0  0  0  0  0  0
    4.8068    1.3927   19.0384 C   0  0  0  0  0  0  0  0  0  0  0  0
    5.4047    1.3322   17.7765 C   0  0  0  0  0  0  0  0  0  0  0  0
    6.5303    0.6353   17.5351 N   0  0  0  0  0  0  0  0  0  0  0  0
    7.1104    0.0033   18.5608 C   0  0  0  0  0  0  0  0  0  0  0  0
    7.9986   -0.5824   18.3354 H   0  0  0  0  0  0  0  0  0  0  0  0
    4.9640    1.8556   16.9294 H   0  0  0  0  0  0  0  0  0  0  0  0
    3.8689    1.9241   19.1619 H   0  0  0  0  0  0  0  0  0  0  0  0
    5.0033    0.7796   21.1180 H   0  0  0  0  0  0  0  0  0  0  0  0
    7.5275    2.0324   21.8226 H   0  0  0  0  0  0  0  0  0  0  0  0
    8.4871    1.5923   23.2294 H   0  0  0  0  0  0  0  0  0  0  0  0
    5.9346    0.4647   24.4769 C   0  0  0  0  0  0  0  0  0  0  0  0
    6.3778   -0.4946   24.7126 H   0  0  0  0  0  0  0  0  0  0  0  0
    3.7722   -0.6137   26.0290 H   0  0  0  0  0  0  0  0  0  0  0  0
    4.2800    0.7332   27.0518 H   0  0  0  0  0  0  0  0  0  0  0  0
    2.8726    0.9256   25.9917 H   0  0  0  0  0  0  0  0  0  0  0  0
  1  2  1  0
  2  3  2  0
  3  4  1  0
  4  5  1  0
  5  6  1  0
  5  7  1  0
  5  8  1  0
  4  9  1  0
  9 10  1  0
 10 11  1  0
 11 12  2  0
 12 13  1  0
 13 14  1  0
 14 15  1  0
 15 16  1  0
 16 17  1  0
 17 18  1  0
 18 19  1  0
 18 20  1  0
 17 21  1  0
 17 22  1  0
 16 23  1  0
 16 24  1  0
 15 25  1  0
 15 26  1  0
 14 27  1  0
 13 28  2  0
 28 29  1  0
 29 30  1  0
 30 31  2  0
 31 32  1  0
 32 33  2  0
 33 34  1  0
 34 35  2  0
 35 36  1  0
 33 37  1  0
 32 38  1  0
 31 39  1  0
 10 40  1  0
 10 41  1  0
  9 42  2  0
 42 43  1  0
  1 44  1  0
  1 45  1  0
  1 46  1  0
 42  2  1  0
 29 11  1  0
 35 30  1  0
 18 14  1  0
M  END
>  <cnnaffinity>  (1) 
-6.37882

>  <filename>  (1) 
Cc1cc(Cc2nc(C3CCCC3)nn2-c2cccnc2)n(C)n1

$$$$
