
     RDKit          3D

 42 45  0  0  0  0  0  0  0  0999 V2000
   14.5839    0.9040   22.7293 C   0  0  0  0  0  0  0  0  0  0  0  0
   13.5855   -0.0521   22.1531 C   0  0  0  0  0  0  0  0  0  0  0  0
   13.9597   -1.1798   21.4109 C   0  0  0  0  0  0  0  0  0  0  0  0
   12.9969   -1.9810   20.8071 C   0  0  0  0  0  0  0  0  0  0  0  0
   11.6478   -1.7362   21.0545 C   0  0  0  0  0  0  0  0  0  0  0  0
   11.2556   -0.5884   21.7458 C   0  0  0  0  0  0  0  0  0  0  0  0
    9.8359   -0.2238   21.8045 C   0  0  0  0  0  0  0  0  0  0  0  0
    8.8551   -1.0238   21.4193 N   0  0  0  0  0  0  0  0  0  0  0  0
    7.7495   -0.2789   21.6309 N   0  0  0  0  0  0  0  0  0  0  0  0
    6.4709   -0.7410   21.0993 C   0  0  0  0  0  0  0  0  0  0  0  0
    6.0143    0.0499   19.8929 C   0  0  0  0  0  0  0  0  0  0  0  0
    4.8442    0.8146   19.8940 C   0  0  0  0  0  0  0  0  0  0  0  0
    4.5208    1.5531   18.7523 C   0  0  0  0  0  0  0  0  0  0  0  0
    5.3782    1.4958   17.6506 C   0  0  0  0  0  0  0  0  0  0  0  0
    6.4958    0.7538   17.6246 N   0  0  0  0  0  0  0  0  0  0  0  0
    6.7983    0.0582   18.7266 C   0  0  0  0  0  0  0  0  0  0  0  0
    7.7115   -0.5358   18.6802 H   0  0  0  0  0  0  0  0  0  0  0  0
    5.1609    2.0674   16.7491 H   0  0  0  0  0  0  0  0  0  0  0  0
    3.6374    2.1797   18.7105 H   0  0  0  0  0  0  0  0  0  0  0  0
    4.1932    0.8335   20.7711 H   0  0  0  0  0  0  0  0  0  0  0  0
    5.7297   -0.6875   21.8971 H   0  0  0  0  0  0  0  0  0  0  0  0
    6.6243   -1.7984   20.8575 H   0  0  0  0  0  0  0  0  0  0  0  0
    8.1132    0.9281   22.1103 C   0  0  0  0  0  0  0  0  0  0  0  0
    7.1597    1.8614   22.7972 C   0  0  0  0  0  0  0  0  0  0  0  0
    6.8842    1.3384   24.1942 C   0  0  0  0  0  0  0  0  0  0  0  0
    7.8031    1.1096   25.1750 C   0  0  0  0  0  0  0  0  0  0  0  0
    7.3660    0.4591   26.3013 N   0  0  0  0  0  0  0  0  0  0  0  0
    6.1081    0.1727   26.1748 C   0  0  0  0  0  0  0  0  0  0  0  0
    5.3796    0.6869   24.6939 S   0  0  0  0  0  0  0  0  0  0  0  0
    5.5307   -0.3579   26.9244 H   0  0  0  0  0  0  0  0  0  0  0  0
    8.8563    1.3536   25.0617 H   0  0  0  0  0  0  0  0  0  0  0  0
    6.2459    1.9801   22.2065 H   0  0  0  0  0  0  0  0  0  0  0  0
    7.6542    2.8353   22.8430 H   0  0  0  0  0  0  0  0  0  0  0  0
    9.4209    1.0023   22.2155 N   0  0  0  0  0  0  0  0  0  0  0  0
   12.2309    0.2373   22.3121 C   0  0  0  0  0  0  0  0  0  0  0  0
   11.9327    1.1210   22.8769 H   0  0  0  0  0  0  0  0  0  0  0  0
   10.8515   -2.3836   20.6978 H   0  0  0  0  0  0  0  0  0  0  0  0
   13.3303   -2.7589   20.1262 H   0  0  0  0  0  0  0  0  0  0  0  0
   14.9958   -1.4638   21.3043 H   0  0  0  0  0  0  0  0  0  0  0  0
   14.7976    0.6413   23.7663 H   0  0  0  0  0  0  0  0  0  0  0  0
   14.2051    1.9302   22.7159 H   0  0  0  0  0  0  0  0  0  0  0  0
   15.5098    0.8969   22.1564 H   0  0  0  0  0  0  0  0  0  0  0  0
  1  2  1  0
  2  3  2  0
  3  4  1  0
  4  5  2  0
  5  6  1  0
  6  7  1  0
  7  8  2  0
  8  9  1  0
  9 10  1  0
 10 11  1  0
 11 12  2  0
 12 13  1  0
 13 14  2  0
 14 15  1  0
 15 16  2  0
 16 17  1  0
 14 18  1  0
 13 19  1  0
 12 20  1  0
 10 21  1  0
 10 22  1  0
  9 23  1  0
 23 24  1  0
 24 25  1  0
 25 26  2  0
 26 27  1  0
 27 28  2  0
 28 29  1  0
 28 30  1  0
 26 31  1  0
 24 32  1  0
 24 33  1  0
 23 34  2  0
  6 35  2  0
 35 36  1  0
  5 37  1  0
  4 38  1  0
  3 39  1  0
  1 40  1  0
  1 41  1  0
  1 42  1  0
 35  2  1  0
 34  7  1  0
 16 11  1  0
 29 25  1  0
M  END
>  <cnnaffinity>  (1) 
-6.34498

>  <filename>  (1) 
Cc1cccc(-c2nc(Cc3cncs3)n(Cc3cccnc3)n2)c1

$$$$
