
     RDKit          3D

 45 48  0  0  0  0  0  0  0  0999 V2000
    7.8514    4.6791   27.4294 C   0  0  0  0  0  0  0  0  0  0  0  0
    7.3148    3.5413   26.6302 C   0  0  0  0  0  0  0  0  0  0  0  0
    6.2081    2.7552   26.7609 C   0  0  0  0  0  0  0  0  0  0  0  0
    6.1988    1.8684   25.6497 C   0  0  0  0  0  0  0  0  0  0  0  0
    7.3079    2.1629   24.9035 C   0  0  0  0  0  0  0  0  0  0  0  0
    7.7744    1.5586   23.6449 C   0  0  0  0  0  0  0  0  0  0  0  0
    7.0875    0.5455   23.1161 N   0  0  0  0  0  0  0  0  0  0  0  0
    7.7968    0.2199   22.0222 N   0  0  0  0  0  0  0  0  0  0  0  0
    7.2893   -0.7209   21.0267 C   0  0  0  0  0  0  0  0  0  0  0  0
    6.6121   -0.0280   19.8650 C   0  0  0  0  0  0  0  0  0  0  0  0
    5.4215    0.6683   20.1023 C   0  0  0  0  0  0  0  0  0  0  0  0
    4.8136    1.3337   19.0388 C   0  0  0  0  0  0  0  0  0  0  0  0
    5.4307    1.2914   17.7849 C   0  0  0  0  0  0  0  0  0  0  0  0
    6.5690    0.6254   17.5352 N   0  0  0  0  0  0  0  0  0  0  0  0
    7.1364   -0.0166   18.5645 C   0  0  0  0  0  0  0  0  0  0  0  0
    8.0610   -0.5574   18.3408 H   0  0  0  0  0  0  0  0  0  0  0  0
    4.9890    1.8058   16.9363 H   0  0  0  0  0  0  0  0  0  0  0  0
    3.8875    1.8845   19.1711 H   0  0  0  0  0  0  0  0  0  0  0  0
    5.0041    0.6862   21.1120 H   0  0  0  0  0  0  0  0  0  0  0  0
    6.5909   -1.3686   21.5600 H   0  0  0  0  0  0  0  0  0  0  0  0
    8.1112   -1.3493   20.6682 H   0  0  0  0  0  0  0  0  0  0  0  0
    8.8504    1.0546   21.9068 C   0  0  0  0  0  0  0  0  0  0  0  0
    9.9165    0.7740   20.8885 C   0  0  0  0  0  0  0  0  0  0  0  0
   10.7336   -0.5048   21.2497 C   0  0  0  0  0  0  0  0  0  0  0  0
   11.4485   -0.2401   22.5438 C   0  0  0  0  0  0  0  0  0  0  0  0
   12.4582    0.7348   22.5265 C   0  0  0  0  0  0  0  0  0  0  0  0
   12.9723    1.1553   23.7325 C   0  0  0  0  0  0  0  0  0  0  0  0
   13.8461    2.1640   23.7375 F   0  0  0  0  0  0  0  0  0  0  0  0
   12.5304    0.5670   24.9167 C   0  0  0  0  0  0  0  0  0  0  0  0
   11.5250   -0.3132   24.9645 N   0  0  0  0  0  0  0  0  0  0  0  0
   10.9860   -0.6905   23.7927 C   0  0  0  0  0  0  0  0  0  0  0  0
   10.1546   -1.3902   23.8413 H   0  0  0  0  0  0  0  0  0  0  0  0
   13.0644    0.7787   25.8244 H   0  0  0  0  0  0  0  0  0  0  0  0
   12.8062    1.2204   21.6181 H   0  0  0  0  0  0  0  0  0  0  0  0
   11.4684   -0.7234   20.4672 H   0  0  0  0  0  0  0  0  0  0  0  0
   10.0845   -1.3872   21.3332 H   0  0  0  0  0  0  0  0  0  0  0  0
   10.5795    1.6438   20.8635 H   0  0  0  0  0  0  0  0  0  0  0  0
    9.4694    0.6936   19.8942 H   0  0  0  0  0  0  0  0  0  0  0  0
    8.8674    1.9164   22.9058 N   0  0  0  0  0  0  0  0  0  0  0  0
    7.9904    3.1936   25.5055 O   0  0  0  0  0  0  0  0  0  0  0  0
    5.4709    1.0977   25.4211 H   0  0  0  0  0  0  0  0  0  0  0  0
    5.4771    2.8134   27.5569 H   0  0  0  0  0  0  0  0  0  0  0  0
    7.3257    5.6127   27.1906 H   0  0  0  0  0  0  0  0  0  0  0  0
    8.9118    4.8267   27.2209 H   0  0  0  0  0  0  0  0  0  0  0  0
    7.7323    4.4955   28.5012 H   0  0  0  0  0  0  0  0  0  0  0  0
  1  2  1  0
  2  3  2  0
  3  4  1  0
  4  5  2  0
  5  6  1  0
  6  7  2  0
  7  8  1  0
  8  9  1  0
  9 10  1  0
 10 11  2  0
 11 12  1  0
 12 13  2  0
 13 14  1  0
 14 15  2  0
 15 16  1  0
 13 17  1  0
 12 18  1  0
 11 19  1  0
  9 20  1  0
  9 21  1  0
  8 22  1  0
 22 23  1  0
 23 24  1  0
 24 25  1  0
 25 26  2  0
 26 27  1  0
 27 28  1  0
 27 29  2  0
 29 30  1  0
 30 31  2  0
 31 32  1  0
 29 33  1  0
 26 34  1  0
 24 35  1  0
 24 36  1  0
 23 37  1  0
 23 38  1  0
 22 39  2  0
  5 40  1  0
  4 41  1  0
  3 42  1  0
  1 43  1  0
  1 44  1  0
  1 45  1  0
 40  2  1  0
 39  6  1  0
 15 10  1  0
 31 25  1  0
M  END
>  <cnnaffinity>  (1) 
-5.6436

>  <filename>  (1) 
Cc1ccc(-c2nc(CCc3cncc(F)c3)n(Cc3cccnc3)n2)o1

$$$$
