
     RDKit          3D

 50 53  0  0  0  0  0  0  0  0999 V2000
    8.6700    2.7167   22.1534 C   0  0  0  0  0  0  0  0  0  0  0  0
   10.0234    2.1066   22.4555 C   0  0  0  0  0  0  0  0  0  0  0  0
   10.7997    2.6671   23.4713 C   0  0  0  0  0  0  0  0  0  0  0  0
   12.0346    2.1147   23.7949 C   0  0  0  0  0  0  0  0  0  0  0  0
   12.5152    0.9944   23.1305 C   0  0  0  0  0  0  0  0  0  0  0  0
   11.7511    0.3819   22.1347 C   0  0  0  0  0  0  0  0  0  0  0  0
   12.1950   -0.9565   21.5978 C   0  0  0  0  0  0  0  0  0  0  0  0
   13.1749   -1.2483   21.9770 H   0  0  0  0  0  0  0  0  0  0  0  0
   12.2628   -1.0018   20.5127 H   0  0  0  0  0  0  0  0  0  0  0  0
   11.4874   -1.7318   21.9090 H   0  0  0  0  0  0  0  0  0  0  0  0
   10.5262    0.9841   21.7564 C   0  0  0  0  0  0  0  0  0  0  0  0
    9.6425    0.3126   20.7321 C   0  0  0  0  0  0  0  0  0  0  0  0
    8.6266   -0.5778   21.3582 C   0  0  0  0  0  0  0  0  0  0  0  0
    8.8591   -1.4346   22.3334 N   0  0  0  0  0  0  0  0  0  0  0  0
    7.6490   -2.0010   22.5391 C   0  0  0  0  0  0  0  0  0  0  0  0
    7.4099   -2.9931   23.6413 C   0  0  0  0  0  0  0  0  0  0  0  0
    6.4728   -2.4124   24.7342 C   0  0  0  0  0  0  0  0  0  0  0  0
    6.1036   -3.4837   25.7569 C   0  0  0  0  0  0  0  0  0  0  0  0
    5.5417   -4.6262   25.1337 O   0  0  0  0  0  0  0  0  0  0  0  0
    6.4447   -5.2525   24.2394 C   0  0  0  0  0  0  0  0  0  0  0  0
    6.8365   -4.3227   23.0937 C   0  0  0  0  0  0  0  0  0  0  0  0
    7.5702   -4.8194   22.4465 H   0  0  0  0  0  0  0  0  0  0  0  0
    5.9504   -4.1012   22.4841 H   0  0  0  0  0  0  0  0  0  0  0  0
    5.9383   -6.1451   23.8628 H   0  0  0  0  0  0  0  0  0  0  0  0
    7.3484   -5.5778   24.7863 H   0  0  0  0  0  0  0  0  0  0  0  0
    5.3509   -3.1120   26.4576 H   0  0  0  0  0  0  0  0  0  0  0  0
    6.9969   -3.7738   26.3389 H   0  0  0  0  0  0  0  0  0  0  0  0
    5.5564   -2.0459   24.2601 H   0  0  0  0  0  0  0  0  0  0  0  0
    6.9443   -1.5605   25.2410 H   0  0  0  0  0  0  0  0  0  0  0  0
    8.3966   -3.1789   24.0881 H   0  0  0  0  0  0  0  0  0  0  0  0
    6.6922   -1.5832   21.7264 N   0  0  0  0  0  0  0  0  0  0  0  0
    7.3355   -0.6849   20.9394 N   0  0  0  0  0  0  0  0  0  0  0  0
    6.6449   -0.0074   19.8989 C   0  0  0  0  0  0  0  0  0  0  0  0
    5.4323    0.6379   20.1616 C   0  0  0  0  0  0  0  0  0  0  0  0
    4.8069    1.3099   19.1072 C   0  0  0  0  0  0  0  0  0  0  0  0
    5.3965    1.2949   17.8375 C   0  0  0  0  0  0  0  0  0  0  0  0
    6.5522    0.6664   17.5745 N   0  0  0  0  0  0  0  0  0  0  0  0
    7.1581    0.0394   18.5886 C   0  0  0  0  0  0  0  0  0  0  0  0
    8.1083   -0.4406   18.3576 H   0  0  0  0  0  0  0  0  0  0  0  0
    4.9219    1.7954   16.9969 H   0  0  0  0  0  0  0  0  0  0  0  0
    3.8765    1.8442   19.2598 H   0  0  0  0  0  0  0  0  0  0  0  0
    5.0105    0.6069   21.1661 H   0  0  0  0  0  0  0  0  0  0  0  0
   10.2026   -0.3556   20.0772 H   0  0  0  0  0  0  0  0  0  0  0  0
    9.1421    1.0687   20.1267 H   0  0  0  0  0  0  0  0  0  0  0  0
   13.4694    0.5632   23.4216 H   0  0  0  0  0  0  0  0  0  0  0  0
   12.6002    2.5304   24.6004 H   0  0  0  0  0  0  0  0  0  0  0  0
   10.4277    3.5380   24.0120 H   0  0  0  0  0  0  0  0  0  0  0  0
    8.6646    3.1826   21.1635 H   0  0  0  0  0  0  0  0  0  0  0  0
    8.4123    3.4927   22.8818 H   0  0  0  0  0  0  0  0  0  0  0  0
    7.8683    1.9708   22.1694 H   0  0  0  0  0  0  0  0  0  0  0  0
  1  2  1  0
  2  3  2  0
  3  4  1  0
  4  5  2  0
  5  6  1  0
  6  7  1  0
  7  8  1  0
  7  9  1  0
  7 10  1  0
  6 11  2  0
 11 12  1  0
 12 13  1  0
 13 14  2  0
 14 15  1  0
 15 16  1  0
 16 17  1  0
 17 18  1  0
 18 19  1  0
 19 20  1  0
 20 21  1  0
 21 22  1  0
 21 23  1  0
 20 24  1  0
 20 25  1  0
 18 26  1  0
 18 27  1  0
 17 28  1  0
 17 29  1  0
 16 30  1  0
 15 31  2  0
 31 32  1  0
 32 33  1  0
 33 34  2  0
 34 35  1  0
 35 36  2  0
 36 37  1  0
 37 38  2  0
 38 39  1  0
 36 40  1  0
 35 41  1  0
 34 42  1  0
 12 43  1  0
 12 44  1  0
  5 45  1  0
  4 46  1  0
  3 47  1  0
  1 48  1  0
  1 49  1  0
  1 50  1  0
 11  2  1  0
 32 13  1  0
 38 33  1  0
 21 16  1  0
M  END
>  <cnnaffinity>  (1) 
-6.58175

>  <filename>  (1) 
Cc1cccc(C)c1Cc1nc(C2CCOCC2)nn1-c1cccnc1

$$$$
