
     RDKit          3D

 46 49  0  0  0  0  0  0  0  0999 V2000
   16.0157   -0.2859   19.6609 C   0  0  0  0  0  0  0  0  0  0  0  0
   14.7154   -0.7327   20.5762 C   0  0  0  0  0  0  0  0  0  0  0  0
   14.4143    0.1527   21.6823 C   0  0  0  0  0  0  0  0  0  0  0  0
   13.1361    0.2850   22.2235 C   0  0  0  0  0  0  0  0  0  0  0  0
   12.1112   -0.5445   21.7205 C   0  0  0  0  0  0  0  0  0  0  0  0
   10.6595   -0.2069   21.8149 C   0  0  0  0  0  0  0  0  0  0  0  0
    9.7259   -0.9349   21.2126 N   0  0  0  0  0  0  0  0  0  0  0  0
    8.5852   -0.2566   21.4594 N   0  0  0  0  0  0  0  0  0  0  0  0
    7.2923   -0.7641   20.9995 C   0  0  0  0  0  0  0  0  0  0  0  0
    6.6086    0.0401   19.8997 C   0  0  0  0  0  0  0  0  0  0  0  0
    5.3718    0.6762   20.0725 C   0  0  0  0  0  0  0  0  0  0  0  0
    4.7857    1.3383   18.9889 C   0  0  0  0  0  0  0  0  0  0  0  0
    5.4555    1.3422   17.7637 C   0  0  0  0  0  0  0  0  0  0  0  0
    6.6321    0.7264   17.5697 N   0  0  0  0  0  0  0  0  0  0  0  0
    7.1843    0.1028   18.6181 C   0  0  0  0  0  0  0  0  0  0  0  0
    8.1327   -0.3952   18.4207 H   0  0  0  0  0  0  0  0  0  0  0  0
    5.0289    1.8547   16.9014 H   0  0  0  0  0  0  0  0  0  0  0  0
    3.8363    1.8543   19.0816 H   0  0  0  0  0  0  0  0  0  0  0  0
    4.8558    0.6455   21.0357 H   0  0  0  0  0  0  0  0  0  0  0  0
    6.6177   -0.8561   21.8630 H   0  0  0  0  0  0  0  0  0  0  0  0
    7.5006   -1.7767   20.6451 H   0  0  0  0  0  0  0  0  0  0  0  0
    8.8712    0.8320   22.2072 C   0  0  0  0  0  0  0  0  0  0  0  0
    7.8364    1.6791   22.8771 C   0  0  0  0  0  0  0  0  0  0  0  0
    7.5464    1.1379   24.3090 C   0  0  0  0  0  0  0  0  0  0  0  0
    6.5414    1.8687   25.1450 C   0  0  0  0  0  0  0  0  0  0  0  0
    6.7660    2.8664   26.0524 C   0  0  0  0  0  0  0  0  0  0  0  0
    5.5379    3.1560   26.6044 N   0  0  0  0  0  0  0  0  0  0  0  0
    4.6380    2.3249   26.0139 C   0  0  0  0  0  0  0  0  0  0  0  0
    5.2050    1.5423   25.1382 N   0  0  0  0  0  0  0  0  0  0  0  0
    3.5873    2.3192   26.2783 H   0  0  0  0  0  0  0  0  0  0  0  0
    5.3281    3.8425   27.3096 H   0  0  0  0  0  0  0  0  0  0  0  0
    7.6827    3.3605   26.3382 H   0  0  0  0  0  0  0  0  0  0  0  0
    7.2021    0.0990   24.2213 H   0  0  0  0  0  0  0  0  0  0  0  0
    8.5015    1.1121   24.8511 H   0  0  0  0  0  0  0  0  0  0  0  0
    6.9234    1.7000   22.2709 H   0  0  0  0  0  0  0  0  0  0  0  0
    8.2276    2.6989   22.9224 H   0  0  0  0  0  0  0  0  0  0  0  0
   10.1704    0.8921   22.4438 N   0  0  0  0  0  0  0  0  0  0  0  0
   12.5204   -1.6759   20.9997 C   0  0  0  0  0  0  0  0  0  0  0  0
   13.8067   -1.7812   20.4603 C   0  0  0  0  0  0  0  0  0  0  0  0
   14.1488   -2.9298   19.8615 F   0  0  0  0  0  0  0  0  0  0  0  0
   11.7893   -2.4352   20.8467 H   0  0  0  0  0  0  0  0  0  0  0  0
   12.9234    1.0176   22.9984 H   0  0  0  0  0  0  0  0  0  0  0  0
   15.1749    0.8574   22.0297 H   0  0  0  0  0  0  0  0  0  0  0  0
   15.9299    0.1269   18.6461 H   0  0  0  0  0  0  0  0  0  0  0  0
   16.8313   -1.0079   19.6560 H   0  0  0  0  0  0  0  0  0  0  0  0
   16.3799    0.6112   20.1378 H   0  0  0  0  0  0  0  0  0  0  0  0
  1  2  1  0
  2  3  2  0
  3  4  1  0
  4  5  2  0
  5  6  1  0
  6  7  2  0
  7  8  1  0
  8  9  1  0
  9 10  1  0
 10 11  2  0
 11 12  1  0
 12 13  2  0
 13 14  1  0
 14 15  2  0
 15 16  1  0
 13 17  1  0
 12 18  1  0
 11 19  1  0
  9 20  1  0
  9 21  1  0
  8 22  1  0
 22 23  1  0
 23 24  1  0
 24 25  1  0
 25 26  2  0
 26 27  1  0
 27 28  1  0
 28 29  2  0
 28 30  1  0
 27 31  1  0
 26 32  1  0
 24 33  1  0
 24 34  1  0
 23 35  1  0
 23 36  1  0
 22 37  2  0
  5 38  1  0
 38 39  2  0
 39 40  1  0
 38 41  1  0
  4 42  1  0
  3 43  1  0
  1 44  1  0
  1 45  1  0
  1 46  1  0
 39  2  1  0
 37  6  1  0
 15 10  1  0
 29 25  1  0
M  END
>  <cnnaffinity>  (1) 
-6.58843

>  <filename>  (1) 
Cc1ccc(-c2nc(CCc3c[nH]cn3)n(Cc3cccnc3)n2)cc1F

$$$$
