
     RDKit          3D

 44 47  0  0  0  0  0  0  0  0999 V2000
    5.6104    1.2835   28.0454 C   0  0  0  0  0  0  0  0  0  0  0  0
    6.1644    1.2810   26.6484 C   0  0  0  0  0  0  0  0  0  0  0  0
    7.5351    1.1105   26.4140 C   0  0  0  0  0  0  0  0  0  0  0  0
    8.0178    1.1073   25.1108 C   0  0  0  0  0  0  0  0  0  0  0  0
    9.3306    0.9071   24.9109 F   0  0  0  0  0  0  0  0  0  0  0  0
    7.1854    1.2789   24.0005 C   0  0  0  0  0  0  0  0  0  0  0  0
    7.7204    1.1913   22.5924 C   0  0  0  0  0  0  0  0  0  0  0  0
    7.7728   -0.2208   22.1132 C   0  0  0  0  0  0  0  0  0  0  0  0
    8.3635   -1.1920   22.7747 N   0  0  0  0  0  0  0  0  0  0  0  0
    8.2992   -2.2330   21.9218 C   0  0  0  0  0  0  0  0  0  0  0  0
    8.7797   -3.6072   22.2767 C   0  0  0  0  0  0  0  0  0  0  0  0
    7.8508   -4.3927   23.2266 C   0  0  0  0  0  0  0  0  0  0  0  0
    8.5222   -4.2112   24.5924 C   0  0  0  0  0  0  0  0  0  0  0  0
   10.0057   -4.0651   24.2452 C   0  0  0  0  0  0  0  0  0  0  0  0
   10.0476   -3.5576   22.9187 O   0  0  0  0  0  0  0  0  0  0  0  0
   10.5453   -5.0222   24.2914 H   0  0  0  0  0  0  0  0  0  0  0  0
   10.5389   -3.3581   24.8943 H   0  0  0  0  0  0  0  0  0  0  0  0
    8.1567   -3.2925   25.0618 H   0  0  0  0  0  0  0  0  0  0  0  0
    8.3437   -5.0548   25.2646 H   0  0  0  0  0  0  0  0  0  0  0  0
    6.8265   -4.0105   23.1791 H   0  0  0  0  0  0  0  0  0  0  0  0
    7.8220   -5.4457   22.9250 H   0  0  0  0  0  0  0  0  0  0  0  0
    8.8211   -4.0896   21.3018 H   0  0  0  0  0  0  0  0  0  0  0  0
    7.7073   -1.9759   20.7674 N   0  0  0  0  0  0  0  0  0  0  0  0
    7.3448   -0.6772   20.9016 N   0  0  0  0  0  0  0  0  0  0  0  0
    6.6386    0.0033   19.8868 C   0  0  0  0  0  0  0  0  0  0  0  0
    5.4308    0.6536   20.1582 C   0  0  0  0  0  0  0  0  0  0  0  0
    4.8010    1.3108   19.1004 C   0  0  0  0  0  0  0  0  0  0  0  0
    5.3994    1.2952   17.8368 C   0  0  0  0  0  0  0  0  0  0  0  0
    6.5659    0.6741   17.5810 N   0  0  0  0  0  0  0  0  0  0  0  0
    7.1669    0.0380   18.5879 C   0  0  0  0  0  0  0  0  0  0  0  0
    8.1189   -0.4435   18.3760 H   0  0  0  0  0  0  0  0  0  0  0  0
    4.9249    1.7857   16.9928 H   0  0  0  0  0  0  0  0  0  0  0  0
    3.8734    1.8433   19.2552 H   0  0  0  0  0  0  0  0  0  0  0  0
    5.0045    0.6262   21.1650 H   0  0  0  0  0  0  0  0  0  0  0  0
    8.7395    1.5904   22.5463 H   0  0  0  0  0  0  0  0  0  0  0  0
    7.1031    1.7897   21.9211 H   0  0  0  0  0  0  0  0  0  0  0  0
    5.8130    1.4140   24.2275 C   0  0  0  0  0  0  0  0  0  0  0  0
    5.3294    1.4193   25.5297 C   0  0  0  0  0  0  0  0  0  0  0  0
    4.0050    1.5740   25.7200 F   0  0  0  0  0  0  0  0  0  0  0  0
    5.1081    1.5171   23.4074 H   0  0  0  0  0  0  0  0  0  0  0  0
    8.2406    0.9743   27.2285 H   0  0  0  0  0  0  0  0  0  0  0  0
    6.4126    1.4145   28.7770 H   0  0  0  0  0  0  0  0  0  0  0  0
    5.1061    0.3370   28.2617 H   0  0  0  0  0  0  0  0  0  0  0  0
    4.8790    2.0843   28.1840 H   0  0  0  0  0  0  0  0  0  0  0  0
  1  2  1  0
  2  3  2  0
  3  4  1  0
  4  5  1  0
  4  6  2  0
  6  7  1  0
  7  8  1  0
  8  9  2  0
  9 10  1  0
 10 11  1  0
 11 12  1  0
 12 13  1  0
 13 14  1  0
 14 15  1  0
 14 16  1  0
 14 17  1  0
 13 18  1  0
 13 19  1  0
 12 20  1  0
 12 21  1  0
 11 22  1  0
 10 23  2  0
 23 24  1  0
 24 25  1  0
 25 26  2  0
 26 27  1  0
 27 28  2  0
 28 29  1  0
 29 30  2  0
 30 31  1  0
 28 32  1  0
 27 33  1  0
 26 34  1  0
  7 35  1  0
  7 36  1  0
  6 37  1  0
 37 38  2  0
 38 39  1  0
 37 40  1  0
  3 41  1  0
  1 42  1  0
  1 43  1  0
  1 44  1  0
 38  2  1  0
 24  8  1  0
 30 25  1  0
 15 11  1  0
M  END
>  <cnnaffinity>  (1) 
-6.17277

>  <filename>  (1) 
Cc1cc(F)c(Cc2nc(C3CCCO3)nn2-c2cccnc2)cc1F

$$$$
