
     RDKit          3D

 45 48  0  0  0  0  0  0  0  0999 V2000
    6.7278   -5.7732   26.8442 C   0  0  0  0  0  0  0  0  0  0  0  0
    6.9836   -4.7953   25.7294 C   0  0  0  0  0  0  0  0  0  0  0  0
    5.9851   -4.5079   24.7877 C   0  0  0  0  0  0  0  0  0  0  0  0
    6.2000   -3.5845   23.7693 C   0  0  0  0  0  0  0  0  0  0  0  0
    7.4383   -2.9188   23.6682 C   0  0  0  0  0  0  0  0  0  0  0  0
    7.6667   -1.9383   22.5842 C   0  0  0  0  0  0  0  0  0  0  0  0
    6.7394   -1.5892   21.7086 N   0  0  0  0  0  0  0  0  0  0  0  0
    7.3637   -0.6679   20.9401 N   0  0  0  0  0  0  0  0  0  0  0  0
    6.6607    0.0062   19.9014 C   0  0  0  0  0  0  0  0  0  0  0  0
    5.4421    0.6439   20.1659 C   0  0  0  0  0  0  0  0  0  0  0  0
    4.8126    1.3105   19.1102 C   0  0  0  0  0  0  0  0  0  0  0  0
    5.4017    1.2953   17.8389 C   0  0  0  0  0  0  0  0  0  0  0  0
    6.5624    0.6743   17.5784 N   0  0  0  0  0  0  0  0  0  0  0  0
    7.1704    0.0543   18.5939 C   0  0  0  0  0  0  0  0  0  0  0  0
    8.1155   -0.4350   18.3722 H   0  0  0  0  0  0  0  0  0  0  0  0
    4.9156    1.7826   16.9954 H   0  0  0  0  0  0  0  0  0  0  0  0
    3.8783    1.8403   19.2641 H   0  0  0  0  0  0  0  0  0  0  0  0
    5.0113    0.6116   21.1700 H   0  0  0  0  0  0  0  0  0  0  0  0
    8.6328   -0.4867   21.4121 C   0  0  0  0  0  0  0  0  0  0  0  0
    9.5203    0.6219   20.9498 C   0  0  0  0  0  0  0  0  0  0  0  0
    9.0510    2.0167   21.4364 C   0  0  0  0  0  0  0  0  0  0  0  0
    8.9440    2.0847   22.9423 C   0  0  0  0  0  0  0  0  0  0  0  0
    7.7200    1.8325   23.5861 C   0  0  0  0  0  0  0  0  0  0  0  0
    7.7035    1.8224   24.9744 C   0  0  0  0  0  0  0  0  0  0  0  0
    6.5527    1.5969   25.6253 F   0  0  0  0  0  0  0  0  0  0  0  0
    8.8798    2.0497   25.6929 C   0  0  0  0  0  0  0  0  0  0  0  0
   10.0565    2.2691   25.0920 N   0  0  0  0  0  0  0  0  0  0  0  0
   10.0775    2.2712   23.7517 C   0  0  0  0  0  0  0  0  0  0  0  0
   11.0482    2.4400   23.2925 H   0  0  0  0  0  0  0  0  0  0  0  0
    8.8560    2.0570   26.7787 H   0  0  0  0  0  0  0  0  0  0  0  0
    6.8109    1.6226   23.0254 H   0  0  0  0  0  0  0  0  0  0  0  0
    9.7543    2.7712   21.0707 H   0  0  0  0  0  0  0  0  0  0  0  0
    8.0800    2.2466   20.9815 H   0  0  0  0  0  0  0  0  0  0  0  0
    9.5860    0.6146   19.8584 H   0  0  0  0  0  0  0  0  0  0  0  0
   10.5203    0.4078   21.3338 H   0  0  0  0  0  0  0  0  0  0  0  0
    8.8585   -1.2974   22.4217 N   0  0  0  0  0  0  0  0  0  0  0  0
    8.4449   -3.1986   24.6142 C   0  0  0  0  0  0  0  0  0  0  0  0
    8.2123   -4.1255   25.6278 C   0  0  0  0  0  0  0  0  0  0  0  0
    8.9883   -4.3344   26.3608 H   0  0  0  0  0  0  0  0  0  0  0  0
    9.4069   -2.6900   24.5634 H   0  0  0  0  0  0  0  0  0  0  0  0
    5.4101   -3.3670   23.0534 H   0  0  0  0  0  0  0  0  0  0  0  0
    5.0241   -5.0095   24.8636 H   0  0  0  0  0  0  0  0  0  0  0  0
    6.3091   -5.2619   27.7178 H   0  0  0  0  0  0  0  0  0  0  0  0
    6.0147   -6.5491   26.5489 H   0  0  0  0  0  0  0  0  0  0  0  0
    7.6465   -6.2716   27.1679 H   0  0  0  0  0  0  0  0  0  0  0  0
  1  2  1  0
  2  3  2  0
  3  4  1  0
  4  5  2  0
  5  6  1  0
  6  7  2  0
  7  8  1  0
  8  9  1  0
  9 10  2  0
 10 11  1  0
 11 12  2  0
 12 13  1  0
 13 14  2  0
 14 15  1  0
 12 16  1  0
 11 17  1  0
 10 18  1  0
  8 19  1  0
 19 20  1  0
 20 21  1  0
 21 22  1  0
 22 23  2  0
 23 24  1  0
 24 25  1  0
 24 26  2  0
 26 27  1  0
 27 28  2  0
 28 29  1  0
 26 30  1  0
 23 31  1  0
 21 32  1  0
 21 33  1  0
 20 34  1  0
 20 35  1  0
 19 36  2  0
  5 37  1  0
 37 38  2  0
 38 39  1  0
 37 40  1  0
  4 41  1  0
  3 42  1  0
  1 43  1  0
  1 44  1  0
  1 45  1  0
 38  2  1  0
 36  6  1  0
 14  9  1  0
 28 22  1  0
M  END
>  <cnnaffinity>  (1) 
-6.05885

>  <filename>  (1) 
Cc1ccc(-c2nc(CCc3cncc(F)c3)n(-c3cccnc3)n2)cc1

$$$$
