
     RDKit          3D

 49 51  0  0  0  0  0  0  0  0999 V2000
    9.5886    2.2926   21.1008 C   0  0  0  0  0  0  0  0  0  0  0  0
    9.6972    2.2473   22.5983 C   0  0  0  0  0  0  0  0  0  0  0  0
   10.8934    2.6611   23.2000 C   0  0  0  0  0  0  0  0  0  0  0  0
   11.0948    2.4928   24.5693 C   0  0  0  0  0  0  0  0  0  0  0  0
   10.0858    1.9459   25.3588 C   0  0  0  0  0  0  0  0  0  0  0  0
    8.8660    1.5889   24.7810 C   0  0  0  0  0  0  0  0  0  0  0  0
    8.6525    1.7446   23.4065 C   0  0  0  0  0  0  0  0  0  0  0  0
    7.3403    1.2581   22.7931 C   0  0  0  0  0  0  0  0  0  0  0  0
    7.4620   -0.1433   22.2500 C   0  0  0  0  0  0  0  0  0  0  0  0
    7.9602   -1.1581   22.9363 N   0  0  0  0  0  0  0  0  0  0  0  0
    8.0509   -2.1502   22.0141 C   0  0  0  0  0  0  0  0  0  0  0  0
    8.7817   -3.4537   22.1996 C   0  0  0  0  0  0  0  0  0  0  0  0
    8.0187   -4.6455   22.1685 O   0  0  0  0  0  0  0  0  0  0  0  0
    7.4704   -5.1717   23.3941 C   0  0  0  0  0  0  0  0  0  0  0  0
    8.5557   -5.9924   24.1068 C   0  0  0  0  0  0  0  0  0  0  0  0
    9.4136   -5.3609   24.3681 H   0  0  0  0  0  0  0  0  0  0  0  0
    8.1659   -6.4308   25.0338 H   0  0  0  0  0  0  0  0  0  0  0  0
    8.9212   -6.7962   23.4571 H   0  0  0  0  0  0  0  0  0  0  0  0
    6.9172   -4.0660   24.3076 C   0  0  0  0  0  0  0  0  0  0  0  0
    7.7187   -3.4199   24.6827 H   0  0  0  0  0  0  0  0  0  0  0  0
    6.2316   -3.4182   23.7484 H   0  0  0  0  0  0  0  0  0  0  0  0
    6.3855   -4.4999   25.1665 H   0  0  0  0  0  0  0  0  0  0  0  0
    6.3248   -6.0592   22.9059 C   0  0  0  0  0  0  0  0  0  0  0  0
    5.7972   -6.5388   23.7381 H   0  0  0  0  0  0  0  0  0  0  0  0
    5.6067   -5.4513   22.3444 H   0  0  0  0  0  0  0  0  0  0  0  0
    6.7022   -6.8336   22.2317 H   0  0  0  0  0  0  0  0  0  0  0  0
    9.4272   -3.3704   23.0826 H   0  0  0  0  0  0  0  0  0  0  0  0
    9.3886   -3.4811   21.2980 H   0  0  0  0  0  0  0  0  0  0  0  0
    7.6176   -1.8277   20.8112 N   0  0  0  0  0  0  0  0  0  0  0  0
    7.1975   -0.5549   20.9694 N   0  0  0  0  0  0  0  0  0  0  0  0
    6.5688    0.0932   19.8861 C   0  0  0  0  0  0  0  0  0  0  0  0
    5.3596    0.7538   20.0961 C   0  0  0  0  0  0  0  0  0  0  0  0
    4.7683    1.3782   18.9984 C   0  0  0  0  0  0  0  0  0  0  0  0
    5.4099    1.3273   17.7555 C   0  0  0  0  0  0  0  0  0  0  0  0
    6.5594    0.6590   17.5444 N   0  0  0  0  0  0  0  0  0  0  0  0
    7.1147    0.0343   18.5891 C   0  0  0  0  0  0  0  0  0  0  0  0
    8.0181   -0.5430   18.3994 H   0  0  0  0  0  0  0  0  0  0  0  0
    4.9813    1.8374   16.8972 H   0  0  0  0  0  0  0  0  0  0  0  0
    3.8210    1.8890   19.1062 H   0  0  0  0  0  0  0  0  0  0  0  0
    4.8978    0.7245   21.0850 H   0  0  0  0  0  0  0  0  0  0  0  0
    6.5471    1.2698   23.5499 H   0  0  0  0  0  0  0  0  0  0  0  0
    7.0164    1.9394   22.0025 H   0  0  0  0  0  0  0  0  0  0  0  0
    8.0782    1.1611   25.4004 H   0  0  0  0  0  0  0  0  0  0  0  0
   10.2538    1.7794   26.4145 H   0  0  0  0  0  0  0  0  0  0  0  0
   12.0449    2.7597   25.0122 H   0  0  0  0  0  0  0  0  0  0  0  0
   11.6834    3.0864   22.5799 H   0  0  0  0  0  0  0  0  0  0  0  0
   10.5367    2.5889   20.6437 H   0  0  0  0  0  0  0  0  0  0  0  0
    9.3221    1.3075   20.7035 H   0  0  0  0  0  0  0  0  0  0  0  0
    8.8222    2.9959   20.7628 H   0  0  0  0  0  0  0  0  0  0  0  0
  1  2  1  0
  2  3  2  0
  3  4  1  0
  4  5  2  0
  5  6  1  0
  6  7  2  0
  7  8  1  0
  8  9  1  0
  9 10  2  0
 10 11  1  0
 11 12  1  0
 12 13  1  0
 13 14  1  0
 14 15  1  0
 15 16  1  0
 15 17  1  0
 15 18  1  0
 14 19  1  0
 19 20  1  0
 19 21  1  0
 19 22  1  0
 14 23  1  0
 23 24  1  0
 23 25  1  0
 23 26  1  0
 12 27  1  0
 12 28  1  0
 11 29  2  0
 29 30  1  0
 30 31  1  0
 31 32  2  0
 32 33  1  0
 33 34  2  0
 34 35  1  0
 35 36  2  0
 36 37  1  0
 34 38  1  0
 33 39  1  0
 32 40  1  0
  8 41  1  0
  8 42  1  0
  6 43  1  0
  5 44  1  0
  4 45  1  0
  3 46  1  0
  1 47  1  0
  1 48  1  0
  1 49  1  0
  7  2  1  0
 30  9  1  0
 36 31  1  0
M  END
>  <cnnaffinity>  (1) 
-5.99273

>  <filename>  (1) 
Cc1ccccc1Cc1nc(COC(C)(C)C)nn1-c1cccnc1

$$$$
