
     RDKit          3D

 43 46  0  0  0  0  0  0  0  0999 V2000
    6.8463   -6.0936   26.8284 C   0  0  0  0  0  0  0  0  0  0  0  0
    7.0020   -5.0883   25.7153 C   0  0  0  0  0  0  0  0  0  0  0  0
    8.2141   -4.3984   25.5835 C   0  0  0  0  0  0  0  0  0  0  0  0
    8.3946   -3.4675   24.5736 C   0  0  0  0  0  0  0  0  0  0  0  0
    7.3655   -3.1815   23.6603 C   0  0  0  0  0  0  0  0  0  0  0  0
    7.6475   -2.1549   22.6352 C   0  0  0  0  0  0  0  0  0  0  0  0
    6.8053   -1.7463   21.7060 N   0  0  0  0  0  0  0  0  0  0  0  0
    7.4995   -0.7698   21.0567 N   0  0  0  0  0  0  0  0  0  0  0  0
    6.8470   -0.0662   19.9903 C   0  0  0  0  0  0  0  0  0  0  0  0
    5.6297    0.5820   20.2386 C   0  0  0  0  0  0  0  0  0  0  0  0
    5.0031    1.2398   19.1803 C   0  0  0  0  0  0  0  0  0  0  0  0
    5.5998    1.2252   17.9167 C   0  0  0  0  0  0  0  0  0  0  0  0
    6.7506    0.5841   17.6649 N   0  0  0  0  0  0  0  0  0  0  0  0
    7.3504   -0.0576   18.6760 C   0  0  0  0  0  0  0  0  0  0  0  0
    8.2591   -0.6030   18.4188 H   0  0  0  0  0  0  0  0  0  0  0  0
    5.1388    1.7495   17.0836 H   0  0  0  0  0  0  0  0  0  0  0  0
    4.0627    1.7535   19.3242 H   0  0  0  0  0  0  0  0  0  0  0  0
    5.1967    0.5436   21.2397 H   0  0  0  0  0  0  0  0  0  0  0  0
    8.7146   -0.6191   21.6769 C   0  0  0  0  0  0  0  0  0  0  0  0
    9.7152    0.4593   21.4502 C   0  0  0  0  0  0  0  0  0  0  0  0
    9.1356    1.7689   21.8297 C   0  0  0  0  0  0  0  0  0  0  0  0
    8.3275    2.5313   21.0552 C   0  0  0  0  0  0  0  0  0  0  0  0
    7.9081    3.5651   21.8620 N   0  0  0  0  0  0  0  0  0  0  0  0
    8.4771    3.3624   23.0846 C   0  0  0  0  0  0  0  0  0  0  0  0
    8.2067    4.2493   24.2467 C   0  0  0  0  0  0  0  0  0  0  0  0
    7.1562    4.1519   24.5409 H   0  0  0  0  0  0  0  0  0  0  0  0
    8.8320    3.9359   25.0862 H   0  0  0  0  0  0  0  0  0  0  0  0
    8.4223    5.2971   24.0134 H   0  0  0  0  0  0  0  0  0  0  0  0
    9.2119    2.2789   23.0954 N   0  0  0  0  0  0  0  0  0  0  0  0
    7.3007    4.3231   21.6016 H   0  0  0  0  0  0  0  0  0  0  0  0
    8.0055    2.3489   20.0484 H   0  0  0  0  0  0  0  0  0  0  0  0
   10.0178    0.4523   20.4083 H   0  0  0  0  0  0  0  0  0  0  0  0
   10.5898    0.2392   22.0671 H   0  0  0  0  0  0  0  0  0  0  0  0
    8.8422   -1.4969   22.6281 N   0  0  0  0  0  0  0  0  0  0  0  0
    6.1319   -3.8525   23.7903 C   0  0  0  0  0  0  0  0  0  0  0  0
    5.9643   -4.7969   24.8093 C   0  0  0  0  0  0  0  0  0  0  0  0
    5.0151   -5.3195   24.9109 H   0  0  0  0  0  0  0  0  0  0  0  0
    5.3129   -3.6264   23.1082 H   0  0  0  0  0  0  0  0  0  0  0  0
    9.3344   -2.9335   24.4770 H   0  0  0  0  0  0  0  0  0  0  0  0
    9.0301   -4.5855   26.2772 H   0  0  0  0  0  0  0  0  0  0  0  0
    6.4403   -5.6213   27.7316 H   0  0  0  0  0  0  0  0  0  0  0  0
    6.1773   -6.9140   26.5484 H   0  0  0  0  0  0  0  0  0  0  0  0
    7.8166   -6.5268   27.1007 H   0  0  0  0  0  0  0  0  0  0  0  0
  1  2  1  0
  2  3  2  0
  3  4  1  0
  4  5  2  0
  5  6  1  0
  6  7  2  0
  7  8  1  0
  8  9  1  0
  9 10  2  0
 10 11  1  0
 11 12  2  0
 12 13  1  0
 13 14  2  0
 14 15  1  0
 12 16  1  0
 11 17  1  0
 10 18  1  0
  8 19  1  0
 19 20  1  0
 20 21  1  0
 21 22  2  0
 22 23  1  0
 23 24  1  0
 24 25  1  0
 25 26  1  0
 25 27  1  0
 25 28  1  0
 24 29  2  0
 23 30  1  0
 22 31  1  0
 20 32  1  0
 20 33  1  0
 19 34  2  0
  5 35  1  0
 35 36  2  0
 36 37  1  0
 35 38  1  0
  4 39  1  0
  3 40  1  0
  1 41  1  0
  1 42  1  0
  1 43  1  0
 36  2  1  0
 34  6  1  0
 14  9  1  0
 29 21  1  0
M  END
>  <cnnaffinity>  (1) 
-5.98689

>  <filename>  (1) 
Cc1ccc(-c2nc(Cc3c[nH]c(C)n3)n(-c3cccnc3)n2)cc1

$$$$
