
     RDKit          3D

 42 45  0  0  0  0  0  0  0  0999 V2000
    8.2156   -0.4513   27.4594 C   0  0  0  0  0  0  0  0  0  0  0  0
    7.7703    0.1643   26.1768 C   0  0  0  0  0  0  0  0  0  0  0  0
    8.3714    1.0506   25.3456 C   0  0  0  0  0  0  0  0  0  0  0  0
    7.4938    1.1326   24.2337 C   0  0  0  0  0  0  0  0  0  0  0  0
    7.7849    1.8158   22.9333 C   0  0  0  0  0  0  0  0  0  0  0  0
    8.8142    0.9877   22.2317 C   0  0  0  0  0  0  0  0  0  0  0  0
   10.1170    1.0752   22.4183 N   0  0  0  0  0  0  0  0  0  0  0  0
   10.5891   -0.0704   21.8538 C   0  0  0  0  0  0  0  0  0  0  0  0
   12.0162   -0.4520   21.7474 C   0  0  0  0  0  0  0  0  0  0  0  0
   13.0525    0.3539   22.2524 C   0  0  0  0  0  0  0  0  0  0  0  0
   14.3463    0.1571   21.7702 C   0  0  0  0  0  0  0  0  0  0  0  0
   14.5941   -0.7878   20.7474 C   0  0  0  0  0  0  0  0  0  0  0  0
   16.0053   -0.4039   19.6515 Cl  0  0  0  0  0  0  0  0  0  0  0  0
   13.6529   -1.7637   20.4597 C   0  0  0  0  0  0  0  0  0  0  0  0
   12.3701   -1.5814   20.9877 C   0  0  0  0  0  0  0  0  0  0  0  0
   11.5741   -2.2742   20.7606 H   0  0  0  0  0  0  0  0  0  0  0  0
   13.8950   -2.6100   19.8309 H   0  0  0  0  0  0  0  0  0  0  0  0
   15.1210    0.8579   22.0423 H   0  0  0  0  0  0  0  0  0  0  0  0
   12.8544    1.1588   22.9571 H   0  0  0  0  0  0  0  0  0  0  0  0
    9.6439   -0.8301   21.3227 N   0  0  0  0  0  0  0  0  0  0  0  0
    8.5135   -0.1446   21.5694 N   0  0  0  0  0  0  0  0  0  0  0  0
    7.2301   -0.6868   21.1407 C   0  0  0  0  0  0  0  0  0  0  0  0
    6.5952    0.0618   19.9918 C   0  0  0  0  0  0  0  0  0  0  0  0
    5.3574    0.7000   20.1115 C   0  0  0  0  0  0  0  0  0  0  0  0
    4.8187    1.3397   18.9933 C   0  0  0  0  0  0  0  0  0  0  0  0
    5.5409    1.3195   17.7964 C   0  0  0  0  0  0  0  0  0  0  0  0
    6.7376    0.7231   17.6651 N   0  0  0  0  0  0  0  0  0  0  0  0
    7.2448    0.1232   18.7481 C   0  0  0  0  0  0  0  0  0  0  0  0
    8.2191   -0.3499   18.6236 H   0  0  0  0  0  0  0  0  0  0  0  0
    5.1405    1.7966   16.9041 H   0  0  0  0  0  0  0  0  0  0  0  0
    3.8680    1.8575   19.0429 H   0  0  0  0  0  0  0  0  0  0  0  0
    4.8296    0.6988   21.0679 H   0  0  0  0  0  0  0  0  0  0  0  0
    6.5694   -0.6954   22.0131 H   0  0  0  0  0  0  0  0  0  0  0  0
    7.4446   -1.7214   20.8573 H   0  0  0  0  0  0  0  0  0  0  0  0
    6.8766    1.9222   22.3352 H   0  0  0  0  0  0  0  0  0  0  0  0
    8.1979    2.8066   23.1172 H   0  0  0  0  0  0  0  0  0  0  0  0
    6.4398    0.3792   24.3977 N   0  0  0  0  0  0  0  0  0  0  0  0
    6.6061   -0.2288   25.6318 O   0  0  0  0  0  0  0  0  0  0  0  0
    9.3226    1.5448   25.4516 H   0  0  0  0  0  0  0  0  0  0  0  0
    7.4023   -0.9898   27.9449 H   0  0  0  0  0  0  0  0  0  0  0  0
    9.0369   -1.1501   27.2652 H   0  0  0  0  0  0  0  0  0  0  0  0
    8.6092    0.3154   28.1311 H   0  0  0  0  0  0  0  0  0  0  0  0
  1  2  1  0
  2  3  2  0
  3  4  1  0
  4  5  1  0
  5  6  1  0
  6  7  2  0
  7  8  1  0
  8  9  1  0
  9 10  2  0
 10 11  1  0
 11 12  2  0
 12 13  1  0
 12 14  1  0
 14 15  2  0
 15 16  1  0
 14 17  1  0
 11 18  1  0
 10 19  1  0
  8 20  2  0
 20 21  1  0
 21 22  1  0
 22 23  1  0
 23 24  2  0
 24 25  1  0
 25 26  2  0
 26 27  1  0
 27 28  2  0
 28 29  1  0
 26 30  1  0
 25 31  1  0
 24 32  1  0
 22 33  1  0
 22 34  1  0
  5 35  1  0
  5 36  1  0
  4 37  2  0
 37 38  1  0
  3 39  1  0
  1 40  1  0
  1 41  1  0
  1 42  1  0
 38  2  1  0
 21  6  1  0
 28 23  1  0
 15  9  1  0
M  END
>  <cnnaffinity>  (1) 
-6.53194

>  <filename>  (1) 
Cc1cc(Cc2nc(-c3ccc(Cl)cc3)nn2Cc2cccnc2)no1

$$$$
