
     RDKit          3D

 48 51  0  0  0  0  0  0  0  0999 V2000
    7.8503   -5.3213   27.3658 C   0  0  0  0  0  0  0  0  0  0  0  0
    8.1255   -4.3336   26.2268 C   0  0  0  0  0  0  0  0  0  0  0  0
    8.2284   -5.0575   24.8692 C   0  0  0  0  0  0  0  0  0  0  0  0
    8.4790   -4.0873   23.7090 C   0  0  0  0  0  0  0  0  0  0  0  0
    7.3914   -2.9923   23.6476 C   0  0  0  0  0  0  0  0  0  0  0  0
    7.6475   -2.0371   22.5250 C   0  0  0  0  0  0  0  0  0  0  0  0
    6.7205   -1.6620   21.6681 N   0  0  0  0  0  0  0  0  0  0  0  0
    7.3626   -0.7385   20.9007 N   0  0  0  0  0  0  0  0  0  0  0  0
    6.6534   -0.0725   19.8590 C   0  0  0  0  0  0  0  0  0  0  0  0
    5.4215    0.5289   20.1222 C   0  0  0  0  0  0  0  0  0  0  0  0
    4.8075    1.2364   19.0874 C   0  0  0  0  0  0  0  0  0  0  0  0
    5.4077    1.2699   17.8249 C   0  0  0  0  0  0  0  0  0  0  0  0
    6.5629    0.6472   17.5545 N   0  0  0  0  0  0  0  0  0  0  0  0
    7.1706    0.0003   18.5566 C   0  0  0  0  0  0  0  0  0  0  0  0
    8.1132   -0.4885   18.3136 H   0  0  0  0  0  0  0  0  0  0  0  0
    4.9500    1.8223   17.0055 H   0  0  0  0  0  0  0  0  0  0  0  0
    3.8936    1.7907   19.2546 H   0  0  0  0  0  0  0  0  0  0  0  0
    4.9948    0.4979   21.1267 H   0  0  0  0  0  0  0  0  0  0  0  0
    8.6305   -0.5677   21.3876 C   0  0  0  0  0  0  0  0  0  0  0  0
    9.5760    0.5380   21.0376 C   0  0  0  0  0  0  0  0  0  0  0  0
    9.4027    1.8218   21.8965 C   0  0  2  0  0  0  0  0  0  0  0  0
    9.5842    1.6154   23.3430 N   0  0  0  0  0  0  0  0  0  0  0  0
    8.4180    1.9209   24.0076 C   0  0  0  0  0  0  0  0  0  0  0  0
    8.0830    1.5765   25.1098 O   0  0  0  0  0  0  0  0  0  0  0  0
    7.6276    2.6695   23.1531 N   0  0  0  0  0  0  0  0  0  0  0  0
    7.9748    2.4142   21.8516 C   0  0  0  0  0  0  0  0  0  0  0  0
    7.2324    2.5192   20.9131 O   0  0  0  0  0  0  0  0  0  0  0  0
    6.6455    2.6609   23.3741 H   0  0  0  0  0  0  0  0  0  0  0  0
    9.9982    0.7707   23.7232 H   0  0  0  0  0  0  0  0  0  0  0  0
   10.0798    2.5949   21.5029 H   0  0  0  0  0  0  0  0  0  0  0  0
   10.5869    0.1523   21.1848 H   0  0  0  0  0  0  0  0  0  0  0  0
    9.4854    0.7833   19.9787 H   0  0  0  0  0  0  0  0  0  0  0  0
    8.8483   -1.4056   22.3780 N   0  0  0  0  0  0  0  0  0  0  0  0
    7.2863   -2.2448   25.0055 C   0  0  0  0  0  0  0  0  0  0  0  0
    7.0523   -3.2280   26.1619 C   0  0  0  0  0  0  0  0  0  0  0  0
    7.0203   -2.6818   27.1148 H   0  0  0  0  0  0  0  0  0  0  0  0
    6.0622   -3.6997   26.0358 H   0  0  0  0  0  0  0  0  0  0  0  0
    8.2175   -1.6769   25.1741 H   0  0  0  0  0  0  0  0  0  0  0  0
    6.4721   -1.5064   24.9674 H   0  0  0  0  0  0  0  0  0  0  0  0
    6.4176   -3.4602   23.4391 H   0  0  0  0  0  0  0  0  0  0  0  0
    9.4605   -3.6027   23.8312 H   0  0  0  0  0  0  0  0  0  0  0  0
    8.5097   -4.6335   22.7579 H   0  0  0  0  0  0  0  0  0  0  0  0
    7.2891   -5.6078   24.6852 H   0  0  0  0  0  0  0  0  0  0  0  0
    9.0297   -5.8086   24.9062 H   0  0  0  0  0  0  0  0  0  0  0  0
    9.0986   -3.8458   26.4211 H   0  0  0  0  0  0  0  0  0  0  0  0
    6.8917   -5.8355   27.2094 H   0  0  0  0  0  0  0  0  0  0  0  0
    7.8020   -4.8091   28.3341 H   0  0  0  0  0  0  0  0  0  0  0  0
    8.6337   -6.0866   27.4249 H   0  0  0  0  0  0  0  0  0  0  0  0
  1  2  1  0
  2  3  1  0
  3  4  1  0
  4  5  1  0
  5  6  1  0
  6  7  2  0
  7  8  1  0
  8  9  1  0
  9 10  2  0
 10 11  1  0
 11 12  2  0
 12 13  1  0
 13 14  2  0
 14 15  1  0
 12 16  1  0
 11 17  1  0
 10 18  1  0
  8 19  1  0
 19 20  1  0
 20 21  1  0
 21 22  1  0
 22 23  1  0
 23 24  2  0
 23 25  1  0
 25 26  1  0
 26 27  2  0
 25 28  1  0
 22 29  1  0
 21 30  1  6
 20 31  1  0
 20 32  1  0
 19 33  2  0
  5 34  1  0
 34 35  1  0
 35 36  1  0
 35 37  1  0
 34 38  1  0
 34 39  1  0
  5 40  1  0
  4 41  1  0
  4 42  1  0
  3 43  1  0
  3 44  1  0
  2 45  1  0
  1 46  1  0
  1 47  1  0
  1 48  1  0
 35  2  1  0
 33  6  1  0
 14  9  1  0
 26 21  1  0
M  END
>  <cnnaffinity>  (1) 
-5.89256

>  <filename>  (1) 
CC1CCC(c2nc(C[C@@H]3NC(=O)NC3=O)n(-c3cccnc3)n2)CC1

$$$$
