
     RDKit          3D

 43 46  0  0  0  0  0  0  0  0999 V2000
    8.7031    2.7038   22.0891 C   0  0  0  0  0  0  0  0  0  0  0  0
   10.0454    2.0846   22.4157 C   0  0  0  0  0  0  0  0  0  0  0  0
   10.8325    2.6528   23.4233 C   0  0  0  0  0  0  0  0  0  0  0  0
   12.0480    2.0731   23.7782 C   0  0  0  0  0  0  0  0  0  0  0  0
   12.5048    0.9228   23.1438 C   0  0  0  0  0  0  0  0  0  0  0  0
   11.7096    0.2945   22.1772 C   0  0  0  0  0  0  0  0  0  0  0  0
   12.1439   -1.0286   21.6028 C   0  0  0  0  0  0  0  0  0  0  0  0
   13.1410   -1.2846   21.9518 H   0  0  0  0  0  0  0  0  0  0  0  0
   11.4561   -1.8351   21.8834 H   0  0  0  0  0  0  0  0  0  0  0  0
   12.2083   -1.0026   20.5110 H   0  0  0  0  0  0  0  0  0  0  0  0
   10.5024    0.9101   21.7792 C   0  0  0  0  0  0  0  0  0  0  0  0
    9.6196    0.2259   20.7576 C   0  0  0  0  0  0  0  0  0  0  0  0
    8.5569   -0.6075   21.3912 C   0  0  0  0  0  0  0  0  0  0  0  0
    8.7349   -1.4300   22.4011 N   0  0  0  0  0  0  0  0  0  0  0  0
    7.5216   -2.0194   22.5403 C   0  0  0  0  0  0  0  0  0  0  0  0
    7.3397   -3.0548   23.5659 C   0  0  0  0  0  0  0  0  0  0  0  0
    6.5276   -4.3066   23.3153 C   0  0  0  0  0  0  0  0  0  0  0  0
    6.0236   -3.2732   24.2709 C   0  0  0  0  0  0  0  0  0  0  0  0
    5.1796   -2.6709   23.9431 H   0  0  0  0  0  0  0  0  0  0  0  0
    6.0664   -3.4663   25.3396 H   0  0  0  0  0  0  0  0  0  0  0  0
    6.0216   -4.3854   22.3536 H   0  0  0  0  0  0  0  0  0  0  0  0
    6.9237   -5.2400   23.7072 H   0  0  0  0  0  0  0  0  0  0  0  0
    8.2538   -3.1576   24.1462 H   0  0  0  0  0  0  0  0  0  0  0  0
    6.6043   -1.6139   21.6812 N   0  0  0  0  0  0  0  0  0  0  0  0
    7.2818   -0.7231   20.9205 N   0  0  0  0  0  0  0  0  0  0  0  0
    6.6186   -0.0350   19.8713 C   0  0  0  0  0  0  0  0  0  0  0  0
    5.4140    0.6209   20.1358 C   0  0  0  0  0  0  0  0  0  0  0  0
    4.8014    1.3117   19.0904 C   0  0  0  0  0  0  0  0  0  0  0  0
    5.3983    1.3026   17.8233 C   0  0  0  0  0  0  0  0  0  0  0  0
    6.5368    0.6456   17.5546 N   0  0  0  0  0  0  0  0  0  0  0  0
    7.1311   -0.0041   18.5620 C   0  0  0  0  0  0  0  0  0  0  0  0
    8.0619   -0.5204   18.3283 H   0  0  0  0  0  0  0  0  0  0  0  0
    4.9443    1.8386   16.9943 H   0  0  0  0  0  0  0  0  0  0  0  0
    3.8748    1.8512   19.2496 H   0  0  0  0  0  0  0  0  0  0  0  0
    4.9892    0.5716   21.1388 H   0  0  0  0  0  0  0  0  0  0  0  0
   10.1900   -0.4634   20.1288 H   0  0  0  0  0  0  0  0  0  0  0  0
    9.1675    0.9648   20.0988 H   0  0  0  0  0  0  0  0  0  0  0  0
   13.4859    0.5201   23.3934 H   0  0  0  0  0  0  0  0  0  0  0  0
   12.6184    2.4916   24.5834 H   0  0  0  0  0  0  0  0  0  0  0  0
   10.4664    3.5363   23.9457 H   0  0  0  0  0  0  0  0  0  0  0  0
    8.4486    3.4904   22.8026 H   0  0  0  0  0  0  0  0  0  0  0  0
    8.6624    3.1515   21.0907 H   0  0  0  0  0  0  0  0  0  0  0  0
    7.9068    1.9549   22.1284 H   0  0  0  0  0  0  0  0  0  0  0  0
  1  2  1  0
  2  3  2  0
  3  4  1  0
  4  5  2  0
  5  6  1  0
  6  7  1  0
  7  8  1  0
  7  9  1  0
  7 10  1  0
  6 11  2  0
 11 12  1  0
 12 13  1  0
 13 14  2  0
 14 15  1  0
 15 16  1  0
 16 17  1  0
 17 18  1  0
 18 19  1  0
 18 20  1  0
 17 21  1  0
 17 22  1  0
 16 23  1  0
 15 24  2  0
 24 25  1  0
 25 26  1  0
 26 27  2  0
 27 28  1  0
 28 29  2  0
 29 30  1  0
 30 31  2  0
 31 32  1  0
 29 33  1  0
 28 34  1  0
 27 35  1  0
 12 36  1  0
 12 37  1  0
  5 38  1  0
  4 39  1  0
  3 40  1  0
  1 41  1  0
  1 42  1  0
  1 43  1  0
 11  2  1  0
 25 13  1  0
 31 26  1  0
 18 16  1  0
M  END
>  <cnnaffinity>  (1) 
-6.26909

>  <filename>  (1) 
Cc1cccc(C)c1Cc1nc(C2CC2)nn1-c1cccnc1

$$$$
