
     RDKit          3D

 46 49  0  0  0  0  0  0  0  0999 V2000
    5.4325   -0.9617   26.4634 C   0  0  0  0  0  0  0  0  0  0  0  0
    6.2806    0.0652   25.7688 C   0  0  0  0  0  0  0  0  0  0  0  0
    6.0750    0.6613   24.5398 C   0  0  0  0  0  0  0  0  0  0  0  0
    7.1478    1.4550   24.2835 N   0  0  0  0  0  0  0  0  0  0  0  0
    7.5693    2.0348   23.0150 C   0  0  0  0  0  0  0  0  0  0  0  0
    8.5696    1.1392   22.3640 C   0  0  0  0  0  0  0  0  0  0  0  0
    9.8765    1.2193   22.5010 N   0  0  0  0  0  0  0  0  0  0  0  0
   10.3258    0.0688   21.9321 C   0  0  0  0  0  0  0  0  0  0  0  0
   11.7204   -0.4039   21.8549 C   0  0  0  0  0  0  0  0  0  0  0  0
   11.9227   -1.5953   21.1420 C   0  0  0  0  0  0  0  0  0  0  0  0
   13.1917   -1.9547   20.7341 C   0  0  0  0  0  0  0  0  0  0  0  0
   14.2792   -1.1977   21.1244 C   0  0  0  0  0  0  0  0  0  0  0  0
   14.1085   -0.1143   21.9950 C   0  0  0  0  0  0  0  0  0  0  0  0
   12.8279    0.3022   22.3946 C   0  0  0  0  0  0  0  0  0  0  0  0
   12.6710    1.4540   23.3519 C   0  0  0  0  0  0  0  0  0  0  0  0
   13.6287    1.7558   23.7885 H   0  0  0  0  0  0  0  0  0  0  0  0
   12.2238    2.3172   22.8526 H   0  0  0  0  0  0  0  0  0  0  0  0
   11.9910    1.1902   24.1678 H   0  0  0  0  0  0  0  0  0  0  0  0
   14.9673    0.4413   22.3542 H   0  0  0  0  0  0  0  0  0  0  0  0
   15.2100   -1.4785   20.6661 H   0  0  0  0  0  0  0  0  0  0  0  0
   13.3253   -2.8035   20.0760 H   0  0  0  0  0  0  0  0  0  0  0  0
   11.0604   -2.1959   20.8801 H   0  0  0  0  0  0  0  0  0  0  0  0
    9.3509   -0.6786   21.4309 N   0  0  0  0  0  0  0  0  0  0  0  0
    8.2290    0.0035   21.7222 N   0  0  0  0  0  0  0  0  0  0  0  0
    6.9302   -0.5170   21.3045 C   0  0  0  0  0  0  0  0  0  0  0  0
    6.3516    0.1807   20.0935 C   0  0  0  0  0  0  0  0  0  0  0  0
    5.1229    0.8490   20.0988 C   0  0  0  0  0  0  0  0  0  0  0  0
    4.6980    1.4789   18.9256 C   0  0  0  0  0  0  0  0  0  0  0  0
    5.5033    1.3909   17.7863 C   0  0  0  0  0  0  0  0  0  0  0  0
    6.6721    0.7315   17.7532 N   0  0  0  0  0  0  0  0  0  0  0  0
    7.0782    0.1555   18.8890 C   0  0  0  0  0  0  0  0  0  0  0  0
    8.0335   -0.3692   18.8523 H   0  0  0  0  0  0  0  0  0  0  0  0
    5.1971    1.8644   16.8563 H   0  0  0  0  0  0  0  0  0  0  0  0
    3.7707    2.0390   18.8826 H   0  0  0  0  0  0  0  0  0  0  0  0
    4.5076    0.8818   21.0028 H   0  0  0  0  0  0  0  0  0  0  0  0
    6.2390   -0.4794   22.1501 H   0  0  0  0  0  0  0  0  0  0  0  0
    7.1077   -1.5758   21.0915 H   0  0  0  0  0  0  0  0  0  0  0  0
    6.6964    2.1850   22.3716 H   0  0  0  0  0  0  0  0  0  0  0  0
    8.0538    2.9864   23.2382 H   0  0  0  0  0  0  0  0  0  0  0  0
    8.0280    1.4396   25.2896 N   0  0  0  0  0  0  0  0  0  0  0  0
    7.5193    0.6117   26.1873 C   0  0  0  0  0  0  0  0  0  0  0  0
    8.0686    0.4191   27.1045 H   0  0  0  0  0  0  0  0  0  0  0  0
    5.2381    0.6182   23.8484 H   0  0  0  0  0  0  0  0  0  0  0  0
    5.6546   -1.0000   27.5352 H   0  0  0  0  0  0  0  0  0  0  0  0
    5.6138   -1.9693   26.0648 H   0  0  0  0  0  0  0  0  0  0  0  0
    4.3634   -0.7497   26.3485 H   0  0  0  0  0  0  0  0  0  0  0  0
  1  2  1  0
  2  3  2  0
  3  4  1  0
  4  5  1  0
  5  6  1  0
  6  7  2  0
  7  8  1  0
  8  9  1  0
  9 10  2  0
 10 11  1  0
 11 12  2  0
 12 13  1  0
 13 14  2  0
 14 15  1  0
 15 16  1  0
 15 17  1  0
 15 18  1  0
 13 19  1  0
 12 20  1  0
 11 21  1  0
 10 22  1  0
  8 23  2  0
 23 24  1  0
 24 25  1  0
 25 26  1  0
 26 27  2  0
 27 28  1  0
 28 29  2  0
 29 30  1  0
 30 31  2  0
 31 32  1  0
 29 33  1  0
 28 34  1  0
 27 35  1  0
 25 36  1  0
 25 37  1  0
  5 38  1  0
  5 39  1  0
  4 40  1  0
 40 41  2  0
 41 42  1  0
  3 43  1  0
  1 44  1  0
  1 45  1  0
  1 46  1  0
 41  2  1  0
 24  6  1  0
 31 26  1  0
 14  9  1  0
M  END
>  <cnnaffinity>  (1) 
-6.50151

>  <filename>  (1) 
Cc1cnn(Cc2nc(-c3ccccc3C)nn2Cc2cccnc2)c1

$$$$
