
     RDKit          3D

 44 47  0  0  0  0  0  0  0  0999 V2000
    8.5280    6.5801   23.3053 C   0  0  0  0  0  0  0  0  0  0  0  0
    8.0714    5.3649   24.0766 C   0  0  0  0  0  0  0  0  0  0  0  0
    7.2665    5.4779   25.2216 C   0  0  0  0  0  0  0  0  0  0  0  0
    6.8342    4.3416   25.9127 C   0  0  0  0  0  0  0  0  0  0  0  0
    7.2081    3.0739   25.4692 C   0  0  0  0  0  0  0  0  0  0  0  0
    8.0190    2.9346   24.3344 C   0  0  0  0  0  0  0  0  0  0  0  0
    8.3474    1.5790   23.7805 C   0  0  0  0  0  0  0  0  0  0  0  0
    7.2590    1.1329   22.7855 C   0  0  0  0  0  0  0  0  0  0  0  0
    7.5139   -0.2134   22.2184 C   0  0  0  0  0  0  0  0  0  0  0  0
    8.0590   -1.1819   22.9219 N   0  0  0  0  0  0  0  0  0  0  0  0
    8.2514   -2.1494   22.0061 C   0  0  0  0  0  0  0  0  0  0  0  0
    9.0090   -3.3644   22.3621 C   0  0  0  0  0  0  0  0  0  0  0  0
   10.3807   -3.0272   23.0105 C   0  0  0  0  0  0  0  0  0  0  0  0
   10.0677   -4.1491   24.4093 S   0  0  0  0  0  0  0  0  0  0  0  0
    8.4718   -4.2253   23.5284 C   0  0  0  0  0  0  0  0  0  0  0  0
    7.6494   -3.7524   24.0721 H   0  0  0  0  0  0  0  0  0  0  0  0
    8.2067   -5.2496   23.2490 H   0  0  0  0  0  0  0  0  0  0  0  0
   10.4135   -1.9884   23.3581 H   0  0  0  0  0  0  0  0  0  0  0  0
   11.2699   -3.2414   22.4183 H   0  0  0  0  0  0  0  0  0  0  0  0
    9.0324   -3.9219   21.4371 H   0  0  0  0  0  0  0  0  0  0  0  0
    7.8239   -1.8832   20.7910 N   0  0  0  0  0  0  0  0  0  0  0  0
    7.3088   -0.6333   20.9363 N   0  0  0  0  0  0  0  0  0  0  0  0
    6.6182    0.0123   19.8797 C   0  0  0  0  0  0  0  0  0  0  0  0
    5.4039    0.6621   20.1140 C   0  0  0  0  0  0  0  0  0  0  0  0
    4.7961    1.3154   19.0436 C   0  0  0  0  0  0  0  0  0  0  0  0
    5.4212    1.2934   17.7918 C   0  0  0  0  0  0  0  0  0  0  0  0
    6.5703    0.6329   17.5551 N   0  0  0  0  0  0  0  0  0  0  0  0
    7.1474   -0.0051   18.5780 C   0  0  0  0  0  0  0  0  0  0  0  0
    8.0710   -0.5448   18.3770 H   0  0  0  0  0  0  0  0  0  0  0  0
    4.9848    1.8258   16.9502 H   0  0  0  0  0  0  0  0  0  0  0  0
    3.8669    1.8576   19.1799 H   0  0  0  0  0  0  0  0  0  0  0  0
    4.9490    0.6476   21.1081 H   0  0  0  0  0  0  0  0  0  0  0  0
    7.1537    1.8828   21.9944 H   0  0  0  0  0  0  0  0  0  0  0  0
    6.2966    1.0910   23.3100 H   0  0  0  0  0  0  0  0  0  0  0  0
    9.3258    1.6103   23.2818 H   0  0  0  0  0  0  0  0  0  0  0  0
    8.4314    0.8394   24.5857 H   0  0  0  0  0  0  0  0  0  0  0  0
    8.4402    4.0824   23.6501 C   0  0  0  0  0  0  0  0  0  0  0  0
    9.0667    3.9692   22.7644 H   0  0  0  0  0  0  0  0  0  0  0  0
    6.8632    2.1869   25.9985 H   0  0  0  0  0  0  0  0  0  0  0  0
    6.2063    4.4407   26.7936 H   0  0  0  0  0  0  0  0  0  0  0  0
    6.9812    6.4624   25.5825 H   0  0  0  0  0  0  0  0  0  0  0  0
    8.6462    7.4483   23.9606 H   0  0  0  0  0  0  0  0  0  0  0  0
    9.4906    6.3968   22.8157 H   0  0  0  0  0  0  0  0  0  0  0  0
    7.8073    6.8505   22.5235 H   0  0  0  0  0  0  0  0  0  0  0  0
  1  2  1  0
  2  3  2  0
  3  4  1  0
  4  5  2  0
  5  6  1  0
  6  7  1  0
  7  8  1  0
  8  9  1  0
  9 10  2  0
 10 11  1  0
 11 12  1  0
 12 13  1  0
 13 14  1  0
 14 15  1  0
 15 16  1  0
 15 17  1  0
 13 18  1  0
 13 19  1  0
 12 20  1  0
 11 21  2  0
 21 22  1  0
 22 23  1  0
 23 24  2  0
 24 25  1  0
 25 26  2  0
 26 27  1  0
 27 28  2  0
 28 29  1  0
 26 30  1  0
 25 31  1  0
 24 32  1  0
  8 33  1  0
  8 34  1  0
  7 35  1  0
  7 36  1  0
  6 37  2  0
 37 38  1  0
  5 39  1  0
  4 40  1  0
  3 41  1  0
  1 42  1  0
  1 43  1  0
  1 44  1  0
 37  2  1  0
 22  9  1  0
 28 23  1  0
 15 12  1  0
M  END
>  <cnnaffinity>  (1) 
-5.93435

>  <filename>  (1) 
Cc1cccc(CCc2nc(C3CSC3)nn2-c2cccnc2)c1

$$$$
