
     RDKit          3D

 48 51  0  0  0  0  0  0  0  0999 V2000
    9.3962   -1.2848   27.3676 C   0  0  0  0  0  0  0  0  0  0  0  0
    8.2999   -1.6806   26.4101 C   0  0  0  0  0  0  0  0  0  0  0  0
    7.3610   -2.6711   26.7413 C   0  0  0  0  0  0  0  0  0  0  0  0
    6.3229   -3.0007   25.8615 C   0  0  0  0  0  0  0  0  0  0  0  0
    6.2640   -2.4253   24.5892 C   0  0  0  0  0  0  0  0  0  0  0  0
    7.2990   -1.5684   24.1933 C   0  0  0  0  0  0  0  0  0  0  0  0
    7.5034   -1.2642   22.8016 N   0  0  0  0  0  0  0  0  0  0  0  0
    6.5738   -0.6621   22.0286 N   0  0  0  0  0  0  0  0  0  0  0  0
    7.1910   -0.5391   20.8670 C   0  0  0  0  0  0  0  0  0  0  0  0
    6.5662    0.1206   19.7266 C   0  0  0  0  0  0  0  0  0  0  0  0
    5.3448    0.8031   19.8569 C   0  0  0  0  0  0  0  0  0  0  0  0
    4.8166    1.4182   18.7301 C   0  0  0  0  0  0  0  0  0  0  0  0
    5.5163    1.3274   17.5228 C   0  0  0  0  0  0  0  0  0  0  0  0
    6.6776    0.6690   17.3875 N   0  0  0  0  0  0  0  0  0  0  0  0
    7.1937    0.0869   18.4757 C   0  0  0  0  0  0  0  0  0  0  0  0
    8.1447   -0.4275   18.3386 H   0  0  0  0  0  0  0  0  0  0  0  0
    5.1303    1.8030   16.6242 H   0  0  0  0  0  0  0  0  0  0  0  0
    3.8890    1.9793   18.7754 H   0  0  0  0  0  0  0  0  0  0  0  0
    4.8425    0.8443   20.8263 H   0  0  0  0  0  0  0  0  0  0  0  0
    8.4427   -1.0668   20.8292 N   0  0  0  0  0  0  0  0  0  0  0  0
    8.6008   -1.5382   22.0475 C   0  0  0  0  0  0  0  0  0  0  0  0
    9.7853   -2.3171   22.5435 C   0  0  0  0  0  0  0  0  0  0  0  0
    9.4526   -3.5763   23.3440 C   0  0  0  0  0  0  0  0  0  0  0  0
   10.1667   -3.8633   24.5153 C   0  0  0  0  0  0  0  0  0  0  0  0
    9.7465   -4.8572   25.3954 C   0  0  0  0  0  0  0  0  0  0  0  0
    8.5825   -5.5773   25.1078 C   0  0  0  0  0  0  0  0  0  0  0  0
    7.9132   -5.3840   23.9018 C   0  0  0  0  0  0  0  0  0  0  0  0
    8.4116   -4.4501   22.9788 C   0  0  0  0  0  0  0  0  0  0  0  0
    7.9139   -4.4580   21.2335 S   0  0  0  0  0  0  0  0  0  0  0  0
    8.3512   -5.7556   20.6349 O   0  0  0  0  0  0  0  0  0  0  0  0
    6.1298   -4.5365   21.4104 C   0  0  0  0  0  0  0  0  0  0  0  0
    5.8060   -3.6343   21.9355 H   0  0  0  0  0  0  0  0  0  0  0  0
    5.7388   -4.5440   20.3858 H   0  0  0  0  0  0  0  0  0  0  0  0
    5.7991   -5.4575   21.9024 H   0  0  0  0  0  0  0  0  0  0  0  0
    7.0092   -5.9604   23.7125 H   0  0  0  0  0  0  0  0  0  0  0  0
    8.2035   -6.3001   25.8253 H   0  0  0  0  0  0  0  0  0  0  0  0
   10.2955   -5.0427   26.3189 H   0  0  0  0  0  0  0  0  0  0  0  0
   11.0440   -3.2694   24.7568 H   0  0  0  0  0  0  0  0  0  0  0  0
   10.3896   -1.6463   23.1630 H   0  0  0  0  0  0  0  0  0  0  0  0
   10.3848   -2.5531   21.6612 H   0  0  0  0  0  0  0  0  0  0  0  0
    8.2430   -1.1191   25.1282 C   0  0  0  0  0  0  0  0  0  0  0  0
    8.9574   -0.3435   24.8616 H   0  0  0  0  0  0  0  0  0  0  0  0
    5.4452   -2.6678   23.9148 H   0  0  0  0  0  0  0  0  0  0  0  0
    5.5625   -3.7152   26.1700 H   0  0  0  0  0  0  0  0  0  0  0  0
    7.4627   -3.2113   27.6772 H   0  0  0  0  0  0  0  0  0  0  0  0
   10.0121   -2.1582   27.5957 H   0  0  0  0  0  0  0  0  0  0  0  0
    9.0134   -0.8860   28.3144 H   0  0  0  0  0  0  0  0  0  0  0  0
   10.0568   -0.5320   26.9275 H   0  0  0  0  0  0  0  0  0  0  0  0
  1  2  1  0
  2  3  2  0
  3  4  1  0
  4  5  2  0
  5  6  1  0
  6  7  1  0
  7  8  1  0
  8  9  2  0
  9 10  1  0
 10 11  2  0
 11 12  1  0
 12 13  2  0
 13 14  1  0
 14 15  2  0
 15 16  1  0
 13 17  1  0
 12 18  1  0
 11 19  1  0
  9 20  1  0
 20 21  2  0
 21 22  1  0
 22 23  1  0
 23 24  2  0
 24 25  1  0
 25 26  2  0
 26 27  1  0
 27 28  2  0
 28 29  1  0
 29 30  2  0
 29 31  1  0
 31 32  1  0
 31 33  1  0
 31 34  1  0
 27 35  1  0
 26 36  1  0
 25 37  1  0
 24 38  1  0
 22 39  1  0
 22 40  1  0
  6 41  2  0
 41 42  1  0
  5 43  1  0
  4 44  1  0
  3 45  1  0
  1 46  1  0
  1 47  1  0
  1 48  1  0
 41  2  1  0
 21  7  1  0
 28 23  1  0
 15 10  1  0
M  END
>  <cnnaffinity>  (1) 
-6.70482

>  <filename>  (1) 
Cc1cccc(-n2nc(-c3cccnc3)nc2Cc2ccccc2S(C)=O)c1

$$$$
