
     RDKit          3D

 38 40  0  0  0  0  0  0  0  0999 V2000
    4.8994    1.7841   16.9842 H   0  0  0  0  0  0  0  0  0  0  0  0
    5.4117    1.2655   17.7907 C   0  0  0  0  0  0  0  0  0  0  0  0
    6.5804    0.6823   17.4783 N   0  0  0  0  0  0  0  0  0  0  0  0
    7.2588    0.0736   18.4613 C   0  0  0  0  0  0  0  0  0  0  0  0
    8.2064   -0.3872   18.1922 H   0  0  0  0  0  0  0  0  0  0  0  0
    6.7910   -0.0038   19.7937 C   0  0  0  0  0  0  0  0  0  0  0  0
    7.5302   -0.6100   20.8670 N   0  0  0  0  0  0  0  0  0  0  0  0
    8.8621   -0.3279   21.1609 C   0  0  0  0  0  0  0  0  0  0  0  0
    9.6270    0.2750   20.4537 O   0  0  0  0  0  0  0  0  0  0  0  0
    9.1165   -0.8848   22.4403 N   0  0  0  0  0  0  0  0  0  0  0  0
   10.0622   -0.5601   23.4543 N   0  0  0  0  0  0  0  0  0  0  0  0
   10.9670   -0.2491   23.1223 H   0  0  0  0  0  0  0  0  0  0  0  0
    9.9057    0.6367   24.6746 S   0  0  0  0  0  0  0  0  0  0  0  0
   11.2399    1.2051   24.6256 O   0  0  0  0  0  0  0  0  0  0  0  0
    9.3239    0.0458   25.8502 O   0  0  0  0  0  0  0  0  0  0  0  0
    8.7500    1.7601   23.9408 C   0  0  0  0  0  0  0  0  0  0  0  0
    9.1770    2.5496   22.8664 C   0  0  0  0  0  0  0  0  0  0  0  0
   10.2234    2.6138   22.5654 H   0  0  0  0  0  0  0  0  0  0  0  0
    8.2300    3.2691   22.1474 C   0  0  0  0  0  0  0  0  0  0  0  0
    8.5491    3.9020   21.3287 H   0  0  0  0  0  0  0  0  0  0  0  0
    6.8657    3.2355   22.4568 C   0  0  0  0  0  0  0  0  0  0  0  0
    5.8828    3.9930   21.6054 C   0  0  0  0  0  0  0  0  0  0  0  0
    5.0066    4.2998   22.1801 H   0  0  0  0  0  0  0  0  0  0  0  0
    6.3452    4.8873   21.1783 H   0  0  0  0  0  0  0  0  0  0  0  0
    5.5321    3.3825   20.7661 H   0  0  0  0  0  0  0  0  0  0  0  0
    6.4711    2.4636   23.5610 C   0  0  0  0  0  0  0  0  0  0  0  0
    5.4231    2.4269   23.8424 H   0  0  0  0  0  0  0  0  0  0  0  0
    7.3993    1.7408   24.3140 C   0  0  0  0  0  0  0  0  0  0  0  0
    7.0623    1.1853   25.1908 H   0  0  0  0  0  0  0  0  0  0  0  0
    7.9625   -1.5847   22.9560 C   0  0  0  0  0  0  0  0  0  0  0  0
    8.1627   -2.6330   23.1865 H   0  0  0  0  0  0  0  0  0  0  0  0
    7.5667   -1.0874   23.8511 H   0  0  0  0  0  0  0  0  0  0  0  0
    6.9916   -1.4678   21.8222 C   0  0  0  0  0  0  0  0  0  0  0  0
    5.9467   -2.0589   21.7126 O   0  0  0  0  0  0  0  0  0  0  0  0
    5.5489    0.5603   20.0860 C   0  0  0  0  0  0  0  0  0  0  0  0
    5.1529    0.4733   21.0959 H   0  0  0  0  0  0  0  0  0  0  0  0
    4.8546    1.2243   19.0725 C   0  0  0  0  0  0  0  0  0  0  0  0
    3.9191    1.7407   19.2706 H   0  0  0  0  0  0  0  0  0  0  0  0
  1  2  1  0
  2  3  2  0
  3  4  1  0
  4  5  1  0
  4  6  2  0
  6  7  1  0
  7  8  1  0
  8  9  2  0
  8 10  1  0
 10 11  1  0
 11 12  1  0
 11 13  1  0
 13 14  2  0
 13 15  2  0
 13 16  1  0
 16 17  2  0
 17 18  1  0
 17 19  1  0
 19 20  1  0
 19 21  2  0
 21 22  1  0
 22 23  1  0
 22 24  1  0
 22 25  1  0
 21 26  1  0
 26 27  1  0
 26 28  2  0
 28 29  1  0
 10 30  1  0
 30 31  1  0
 30 32  1  0
 30 33  1  0
 33 34  2  0
  6 35  1  0
 35 36  1  0
 35 37  2  0
 37 38  1  0
 37  2  1  0
 33  7  1  0
 28 16  1  0
M  END
>  <cnnaffinity>  (1) 
-5.28734

>  <filename>  (1) 
Cc1ccc(S(=O)(=O)NN2CC(=O)N(c3cccnc3)C2=O)cc1

$$$$
