
     RDKit          3D

 45 48  0  0  0  0  0  0  0  0999 V2000
    8.7080    2.7091   22.1180 C   0  0  0  0  0  0  0  0  0  0  0  0
   10.0592    2.0779   22.4235 C   0  0  0  0  0  0  0  0  0  0  0  0
   10.8520    2.6316   23.4382 C   0  0  0  0  0  0  0  0  0  0  0  0
   12.0761    2.0492   23.7781 C   0  0  0  0  0  0  0  0  0  0  0  0
   12.5225    0.9099   23.1109 C   0  0  0  0  0  0  0  0  0  0  0  0
   11.7367    0.2948   22.1351 C   0  0  0  0  0  0  0  0  0  0  0  0
   12.1506   -1.0499   21.5877 C   0  0  0  0  0  0  0  0  0  0  0  0
   11.4195   -1.8038   21.9099 H   0  0  0  0  0  0  0  0  0  0  0  0
   13.1439   -1.3347   21.9497 H   0  0  0  0  0  0  0  0  0  0  0  0
   12.1659   -1.0575   20.4928 H   0  0  0  0  0  0  0  0  0  0  0  0
   10.5227    0.9190   21.7577 C   0  0  0  0  0  0  0  0  0  0  0  0
    9.6213    0.2503   20.7435 C   0  0  0  0  0  0  0  0  0  0  0  0
    8.5818   -0.6040   21.3839 C   0  0  0  0  0  0  0  0  0  0  0  0
    8.7743   -1.4375   22.3800 N   0  0  0  0  0  0  0  0  0  0  0  0
    7.5514   -2.0244   22.5561 C   0  0  0  0  0  0  0  0  0  0  0  0
    7.3312   -3.0589   23.6288 C   0  0  0  0  0  0  0  0  0  0  0  0
    8.4074   -3.4472   24.4592 C   0  0  0  0  0  0  0  0  0  0  0  0
    8.1797   -4.3828   25.4676 C   0  0  0  0  0  0  0  0  0  0  0  0
    6.8916   -4.9023   25.6210 C   0  0  0  0  0  0  0  0  0  0  0  0
    5.8892   -4.4676   24.7513 C   0  0  0  0  0  0  0  0  0  0  0  0
    6.0952   -3.5854   23.7734 N   0  0  0  0  0  0  0  0  0  0  0  0
    4.8677   -4.8360   24.8385 H   0  0  0  0  0  0  0  0  0  0  0  0
    6.6551   -5.6275   26.3900 H   0  0  0  0  0  0  0  0  0  0  0  0
    8.9892   -4.6956   26.1251 H   0  0  0  0  0  0  0  0  0  0  0  0
    9.3889   -3.0037   24.3132 H   0  0  0  0  0  0  0  0  0  0  0  0
    6.6288   -1.5953   21.7060 N   0  0  0  0  0  0  0  0  0  0  0  0
    7.2951   -0.7062   20.9395 N   0  0  0  0  0  0  0  0  0  0  0  0
    6.6295   -0.0207   19.8816 C   0  0  0  0  0  0  0  0  0  0  0  0
    5.4188    0.6298   20.1380 C   0  0  0  0  0  0  0  0  0  0  0  0
    4.7996    1.3154   19.0906 C   0  0  0  0  0  0  0  0  0  0  0  0
    5.3969    1.3038   17.8250 C   0  0  0  0  0  0  0  0  0  0  0  0
    6.5423    0.6565   17.5611 N   0  0  0  0  0  0  0  0  0  0  0  0
    7.1432    0.0155   18.5718 C   0  0  0  0  0  0  0  0  0  0  0  0
    8.0818   -0.4834   18.3296 H   0  0  0  0  0  0  0  0  0  0  0  0
    4.9365    1.8310   16.9923 H   0  0  0  0  0  0  0  0  0  0  0  0
    3.8704    1.8533   19.2460 H   0  0  0  0  0  0  0  0  0  0  0  0
    4.9942    0.5737   21.1393 H   0  0  0  0  0  0  0  0  0  0  0  0
   10.1850   -0.4251   20.0968 H   0  0  0  0  0  0  0  0  0  0  0  0
    9.1372    0.9952   20.1106 H   0  0  0  0  0  0  0  0  0  0  0  0
   13.4818    0.4685   23.3697 H   0  0  0  0  0  0  0  0  0  0  0  0
   12.6451    2.4334   24.6051 H   0  0  0  0  0  0  0  0  0  0  0  0
   10.4837    3.5004   23.9825 H   0  0  0  0  0  0  0  0  0  0  0  0
    8.4629    3.4870   22.8491 H   0  0  0  0  0  0  0  0  0  0  0  0
    7.9033    1.9646   22.1544 H   0  0  0  0  0  0  0  0  0  0  0  0
    8.6728    3.1756   21.1247 H   0  0  0  0  0  0  0  0  0  0  0  0
  1  2  1  0
  2  3  2  0
  3  4  1  0
  4  5  2  0
  5  6  1  0
  6  7  1  0
  7  8  1  0
  7  9  1  0
  7 10  1  0
  6 11  2  0
 11 12  1  0
 12 13  1  0
 13 14  2  0
 14 15  1  0
 15 16  1  0
 16 17  2  0
 17 18  1  0
 18 19  2  0
 19 20  1  0
 20 21  2  0
 20 22  1  0
 19 23  1  0
 18 24  1  0
 17 25  1  0
 15 26  2  0
 26 27  1  0
 27 28  1  0
 28 29  2  0
 29 30  1  0
 30 31  2  0
 31 32  1  0
 32 33  2  0
 33 34  1  0
 31 35  1  0
 30 36  1  0
 29 37  1  0
 12 38  1  0
 12 39  1  0
  5 40  1  0
  4 41  1  0
  3 42  1  0
  1 43  1  0
  1 44  1  0
  1 45  1  0
 11  2  1  0
 27 13  1  0
 33 28  1  0
 21 16  1  0
M  END
>  <cnnaffinity>  (1) 
-6.54483

>  <filename>  (1) 
Cc1cccc(C)c1Cc1nc(-c2ccccn2)nn1-c1cccnc1

$$$$
