
     RDKit          3D

 43 47  0  0  0  0  0  0  0  0999 V2000
   12.2131   -1.3334   21.1764 C   0  0  0  0  0  0  0  0  0  0  0  0
   11.9251   -0.0389   21.8837 C   0  0  0  0  0  0  0  0  0  0  0  0
   12.8204    0.4455   22.8456 C   0  0  0  0  0  0  0  0  0  0  0  0
   12.5095    1.6045   23.5526 C   0  0  0  0  0  0  0  0  0  0  0  0
   11.3923    2.3092   23.3568 N   0  0  0  0  0  0  0  0  0  0  0  0
   10.5488    1.8591   22.4175 C   0  0  0  0  0  0  0  0  0  0  0  0
   10.7505    0.7095   21.6448 C   0  0  0  0  0  0  0  0  0  0  0  0
    9.6613    0.2305   20.6970 C   0  0  0  0  0  0  0  0  0  0  0  0
    8.6126   -0.6196   21.3417 C   0  0  0  0  0  0  0  0  0  0  0  0
    8.8235   -1.4704   22.3163 N   0  0  0  0  0  0  0  0  0  0  0  0
    7.5925   -1.9979   22.5463 C   0  0  0  0  0  0  0  0  0  0  0  0
    7.4825   -2.9110   23.7106 C   0  0  0  0  0  0  0  0  0  0  0  0
    8.2753   -4.1767   23.6474 C   0  0  0  0  0  0  0  0  0  0  0  0
    6.7288   -4.2524   23.7951 C   0  0  0  0  0  0  0  0  0  0  0  0
    5.2924   -4.2591   24.2987 C   0  0  0  0  0  0  0  0  0  0  0  0
    6.0313   -5.5548   24.1672 C   0  0  0  0  0  0  0  0  0  0  0  0
    6.3808   -6.0535   25.0733 H   0  0  0  0  0  0  0  0  0  0  0  0
    5.7256   -6.2087   23.3511 H   0  0  0  0  0  0  0  0  0  0  0  0
    4.5113   -4.0685   23.5588 H   0  0  0  0  0  0  0  0  0  0  0  0
    5.1065   -3.8341   25.2885 H   0  0  0  0  0  0  0  0  0  0  0  0
    8.7046   -4.4149   22.6715 H   0  0  0  0  0  0  0  0  0  0  0  0
    8.8882   -4.5017   24.4951 H   0  0  0  0  0  0  0  0  0  0  0  0
    7.5153   -2.3457   24.6449 H   0  0  0  0  0  0  0  0  0  0  0  0
    6.6407   -1.5544   21.7488 N   0  0  0  0  0  0  0  0  0  0  0  0
    7.3074   -0.6830   20.9391 N   0  0  0  0  0  0  0  0  0  0  0  0
    6.6313   -0.0037   19.8845 C   0  0  0  0  0  0  0  0  0  0  0  0
    5.4187    0.6437   20.1352 C   0  0  0  0  0  0  0  0  0  0  0  0
    4.7987    1.3215   19.0825 C   0  0  0  0  0  0  0  0  0  0  0  0
    5.3957    1.3088   17.8167 C   0  0  0  0  0  0  0  0  0  0  0  0
    6.5447    0.6670   17.5616 N   0  0  0  0  0  0  0  0  0  0  0  0
    7.1467    0.0310   18.5748 C   0  0  0  0  0  0  0  0  0  0  0  0
    8.0831   -0.4669   18.3303 H   0  0  0  0  0  0  0  0  0  0  0  0
    4.9363    1.8300   16.9794 H   0  0  0  0  0  0  0  0  0  0  0  0
    3.8696    1.8560   19.2341 H   0  0  0  0  0  0  0  0  0  0  0  0
    4.9921    0.6014   21.1371 H   0  0  0  0  0  0  0  0  0  0  0  0
   10.0683   -0.4013   19.9005 H   0  0  0  0  0  0  0  0  0  0  0  0
    9.1790    1.0844   20.2178 H   0  0  0  0  0  0  0  0  0  0  0  0
    9.6334    2.4388   22.2882 H   0  0  0  0  0  0  0  0  0  0  0  0
   13.1793    1.9710   24.3285 H   0  0  0  0  0  0  0  0  0  0  0  0
   13.7393   -0.0898   23.0575 H   0  0  0  0  0  0  0  0  0  0  0  0
   13.0801   -1.8446   21.6045 H   0  0  0  0  0  0  0  0  0  0  0  0
   12.4413   -1.1762   20.1192 H   0  0  0  0  0  0  0  0  0  0  0  0
   11.3467   -1.9995   21.2488 H   0  0  0  0  0  0  0  0  0  0  0  0
  1  2  1  0
  2  3  2  0
  3  4  1  0
  4  5  2  0
  5  6  1  0
  6  7  2  0
  7  8  1  0
  8  9  1  0
  9 10  2  0
 10 11  1  0
 11 12  1  0
 12 13  1  0
 13 14  1  0
 14 15  1  0
 15 16  1  0
 16 17  1  0
 16 18  1  0
 15 19  1  0
 15 20  1  0
 13 21  1  0
 13 22  1  0
 12 23  1  0
 11 24  2  0
 24 25  1  0
 25 26  1  0
 26 27  2  0
 27 28  1  0
 28 29  2  0
 29 30  1  0
 30 31  2  0
 31 32  1  0
 29 33  1  0
 28 34  1  0
 27 35  1  0
  8 36  1  0
  8 37  1  0
  6 38  1  0
  4 39  1  0
  3 40  1  0
  1 41  1  0
  1 42  1  0
  1 43  1  0
  7  2  1  0
 25  9  1  0
 31 26  1  0
 14 12  1  0
 16 14  1  0
M  END
>  <cnnaffinity>  (1) 
-6.71301

>  <filename>  (1) 
Cc1ccncc1Cc1nc(C2CC23CC3)nn1-c1cccnc1

$$$$
