
     RDKit          3D

 45 48  0  0  0  0  0  0  0  0999 V2000
    8.5413    6.6184   23.4191 C   0  0  0  0  0  0  0  0  0  0  0  0
    8.0746    5.3787   24.1388 C   0  0  0  0  0  0  0  0  0  0  0  0
    7.2521    5.4280   25.2766 C   0  0  0  0  0  0  0  0  0  0  0  0
    6.8426    4.3504   25.9576 N   0  0  0  0  0  0  0  0  0  0  0  0
    7.2249    3.1500   25.5057 C   0  0  0  0  0  0  0  0  0  0  0  0
    8.0270    2.9636   24.3695 C   0  0  0  0  0  0  0  0  0  0  0  0
    8.3070    1.6039   23.8018 C   0  0  0  0  0  0  0  0  0  0  0  0
    7.1909    1.2058   22.8067 C   0  0  0  0  0  0  0  0  0  0  0  0
    7.3896   -0.1591   22.2453 C   0  0  0  0  0  0  0  0  0  0  0  0
    7.9038   -1.1309   22.9701 N   0  0  0  0  0  0  0  0  0  0  0  0
    8.1546   -2.1016   22.0633 C   0  0  0  0  0  0  0  0  0  0  0  0
    8.9695   -3.2975   22.4149 C   0  0  0  0  0  0  0  0  0  0  0  0
    8.5474   -4.1969   23.6182 C   0  0  0  0  0  0  0  0  0  0  0  0
    9.9364   -3.9864   24.2689 C   0  0  0  0  0  0  0  0  0  0  0  0
   10.3141   -2.9781   23.1595 C   0  0  0  0  0  0  0  0  0  0  0  0
   10.3510   -1.9457   23.5293 H   0  0  0  0  0  0  0  0  0  0  0  0
   11.2444   -3.1402   22.6068 H   0  0  0  0  0  0  0  0  0  0  0  0
   10.5682   -4.8828   24.2958 H   0  0  0  0  0  0  0  0  0  0  0  0
    9.9015   -3.5649   25.2812 H   0  0  0  0  0  0  0  0  0  0  0  0
    7.7169   -3.7779   24.2015 H   0  0  0  0  0  0  0  0  0  0  0  0
    8.3122   -5.2335   23.3533 H   0  0  0  0  0  0  0  0  0  0  0  0
    9.0437   -3.8495   21.4764 H   0  0  0  0  0  0  0  0  0  0  0  0
    7.7713   -1.8262   20.8332 N   0  0  0  0  0  0  0  0  0  0  0  0
    7.2309   -0.5830   20.9534 N   0  0  0  0  0  0  0  0  0  0  0  0
    6.5725    0.0440   19.8640 C   0  0  0  0  0  0  0  0  0  0  0  0
    5.3614    0.7185   20.0652 C   0  0  0  0  0  0  0  0  0  0  0  0
    4.7803    1.3669   18.9738 C   0  0  0  0  0  0  0  0  0  0  0  0
    5.4251    1.3209   17.7355 C   0  0  0  0  0  0  0  0  0  0  0  0
    6.5635    0.6365   17.5266 N   0  0  0  0  0  0  0  0  0  0  0  0
    7.1123   -0.0044   18.5641 C   0  0  0  0  0  0  0  0  0  0  0  0
    8.0146   -0.5771   18.3622 H   0  0  0  0  0  0  0  0  0  0  0  0
    5.0053    1.8406   16.8764 H   0  0  0  0  0  0  0  0  0  0  0  0
    3.8457    1.9041   19.0783 H   0  0  0  0  0  0  0  0  0  0  0  0
    4.8809    0.7158   21.0426 H   0  0  0  0  0  0  0  0  0  0  0  0
    7.1168    1.9518   22.0070 H   0  0  0  0  0  0  0  0  0  0  0  0
    6.2318    1.2103   23.3391 H   0  0  0  0  0  0  0  0  0  0  0  0
    8.3765    0.8506   24.5983 H   0  0  0  0  0  0  0  0  0  0  0  0
    9.2838    1.6153   23.2964 H   0  0  0  0  0  0  0  0  0  0  0  0
    8.4535    4.1104   23.6918 C   0  0  0  0  0  0  0  0  0  0  0  0
    9.0663    4.0108   22.7918 H   0  0  0  0  0  0  0  0  0  0  0  0
    6.8668    2.2879   26.0718 H   0  0  0  0  0  0  0  0  0  0  0  0
    6.9071    6.3925   25.6512 H   0  0  0  0  0  0  0  0  0  0  0  0
    7.8373    7.4479   23.5438 H   0  0  0  0  0  0  0  0  0  0  0  0
    9.5179    6.9438   23.7962 H   0  0  0  0  0  0  0  0  0  0  0  0
    8.6475    6.4186   22.3472 H   0  0  0  0  0  0  0  0  0  0  0  0
  1  2  1  0
  2  3  2  0
  3  4  1  0
  4  5  2  0
  5  6  1  0
  6  7  1  0
  7  8  1  0
  8  9  1  0
  9 10  2  0
 10 11  1  0
 11 12  1  0
 12 13  1  0
 13 14  1  0
 14 15  1  0
 15 16  1  0
 15 17  1  0
 14 18  1  0
 14 19  1  0
 13 20  1  0
 13 21  1  0
 12 22  1  0
 11 23  2  0
 23 24  1  0
 24 25  1  0
 25 26  2  0
 26 27  1  0
 27 28  2  0
 28 29  1  0
 29 30  2  0
 30 31  1  0
 28 32  1  0
 27 33  1  0
 26 34  1  0
  8 35  1  0
  8 36  1  0
  7 37  1  0
  7 38  1  0
  6 39  2  0
 39 40  1  0
  5 41  1  0
  3 42  1  0
  1 43  1  0
  1 44  1  0
  1 45  1  0
 39  2  1  0
 24  9  1  0
 30 25  1  0
 15 12  1  0
M  END
>  <cnnaffinity>  (1) 
-6.1788

>  <filename>  (1) 
Cc1cncc(CCc2nc(C3CCC3)nn2-c2cccnc2)c1

$$$$
