
     RDKit          3D

 43 46  0  0  0  0  0  0  0  0999 V2000
    7.3596   -0.1848   27.3035 C   0  0  0  0  0  0  0  0  0  0  0  0
    6.6869    0.3761   26.0812 C   0  0  0  0  0  0  0  0  0  0  0  0
    7.1556    1.3733   25.2570 C   0  0  0  0  0  0  0  0  0  0  0  0
    6.3761    1.3992   24.1478 N   0  0  0  0  0  0  0  0  0  0  0  0
    6.7761    1.9122   22.8416 C   0  0  0  0  0  0  0  0  0  0  0  0
    7.8975    1.0809   22.3050 C   0  0  0  0  0  0  0  0  0  0  0  0
    9.1552    1.3720   22.5412 N   0  0  0  0  0  0  0  0  0  0  0  0
    9.8228    0.2680   22.1135 C   0  0  0  0  0  0  0  0  0  0  0  0
   11.2858    0.1683   22.2765 C   0  0  0  0  0  0  0  0  0  0  0  0
   12.0389   -0.8274   21.6271 C   0  0  0  0  0  0  0  0  0  0  0  0
   13.4178   -0.8625   21.8212 C   0  0  0  0  0  0  0  0  0  0  0  0
   14.3439   -2.1087   21.0496 Cl  0  0  0  0  0  0  0  0  0  0  0  0
   14.0602    0.0962   22.6065 C   0  0  0  0  0  0  0  0  0  0  0  0
   13.3066    1.0671   23.2698 C   0  0  0  0  0  0  0  0  0  0  0  0
   11.9248    1.1004   23.1169 C   0  0  0  0  0  0  0  0  0  0  0  0
   11.3185    1.8375   23.6384 H   0  0  0  0  0  0  0  0  0  0  0  0
   13.8048    1.7979   23.8983 H   0  0  0  0  0  0  0  0  0  0  0  0
   15.1334    0.0894   22.6648 H   0  0  0  0  0  0  0  0  0  0  0  0
   11.5674   -1.5474   20.9676 H   0  0  0  0  0  0  0  0  0  0  0  0
    9.0382   -0.6777   21.6238 N   0  0  0  0  0  0  0  0  0  0  0  0
    7.7990   -0.1495   21.7621 N   0  0  0  0  0  0  0  0  0  0  0  0
    6.6243   -0.8077   21.1925 C   0  0  0  0  0  0  0  0  0  0  0  0
    6.1116   -0.0784   19.9665 C   0  0  0  0  0  0  0  0  0  0  0  0
    4.9187    0.6543   19.9706 C   0  0  0  0  0  0  0  0  0  0  0  0
    4.6209    1.4561   18.8659 C   0  0  0  0  0  0  0  0  0  0  0  0
    5.5040    1.4557   17.7825 C   0  0  0  0  0  0  0  0  0  0  0  0
    6.6271    0.7217   17.7333 N   0  0  0  0  0  0  0  0  0  0  0  0
    6.9145   -0.0137   18.8134 C   0  0  0  0  0  0  0  0  0  0  0  0
    7.8356   -0.5964   18.7681 H   0  0  0  0  0  0  0  0  0  0  0  0
    5.3023    2.0798   16.9176 H   0  0  0  0  0  0  0  0  0  0  0  0
    3.7484    2.1010   18.8551 H   0  0  0  0  0  0  0  0  0  0  0  0
    4.2480    0.6183   20.8345 H   0  0  0  0  0  0  0  0  0  0  0  0
    5.8606   -0.8444   21.9752 H   0  0  0  0  0  0  0  0  0  0  0  0
    6.9388   -1.8332   20.9723 H   0  0  0  0  0  0  0  0  0  0  0  0
    7.1410    2.9355   22.9598 H   0  0  0  0  0  0  0  0  0  0  0  0
    5.9019    1.8900   22.1932 H   0  0  0  0  0  0  0  0  0  0  0  0
    5.4045    0.4880   24.2116 N   0  0  0  0  0  0  0  0  0  0  0  0
    5.5570   -0.1171   25.3860 C   0  0  0  0  0  0  0  0  0  0  0  0
    4.8938   -0.9268   25.6753 H   0  0  0  0  0  0  0  0  0  0  0  0
    8.0009    2.0497   25.3262 H   0  0  0  0  0  0  0  0  0  0  0  0
    6.8445   -1.0820   27.6611 H   0  0  0  0  0  0  0  0  0  0  0  0
    8.3960   -0.4781   27.0829 H   0  0  0  0  0  0  0  0  0  0  0  0
    7.3899    0.5361   28.1271 H   0  0  0  0  0  0  0  0  0  0  0  0
  1  2  1  0
  2  3  2  0
  3  4  1  0
  4  5  1  0
  5  6  1  0
  6  7  2  0
  7  8  1  0
  8  9  1  0
  9 10  2  0
 10 11  1  0
 11 12  1  0
 11 13  2  0
 13 14  1  0
 14 15  2  0
 15 16  1  0
 14 17  1  0
 13 18  1  0
 10 19  1  0
  8 20  2  0
 20 21  1  0
 21 22  1  0
 22 23  1  0
 23 24  2  0
 24 25  1  0
 25 26  2  0
 26 27  1  0
 27 28  2  0
 28 29  1  0
 26 30  1  0
 25 31  1  0
 24 32  1  0
 22 33  1  0
 22 34  1  0
  5 35  1  0
  5 36  1  0
  4 37  1  0
 37 38  2  0
 38 39  1  0
  3 40  1  0
  1 41  1  0
  1 42  1  0
  1 43  1  0
 38  2  1  0
 21  6  1  0
 28 23  1  0
 15  9  1  0
M  END
>  <cnnaffinity>  (1) 
-6.2331

>  <filename>  (1) 
Cc1cnn(Cc2nc(-c3cccc(Cl)c3)nn2Cc2cccnc2)c1

$$$$
