
     RDKit          3D

 43 46  0  0  0  0  0  0  0  0999 V2000
    9.3376   -4.7868   26.3986 C   0  0  0  0  0  0  0  0  0  0  0  0
    8.2312   -4.3964   25.4434 C   0  0  0  0  0  0  0  0  0  0  0  0
    6.9575   -4.9726   25.5575 C   0  0  0  0  0  0  0  0  0  0  0  0
    5.9225   -4.5967   24.6946 C   0  0  0  0  0  0  0  0  0  0  0  0
    6.1438   -3.6413   23.7052 C   0  0  0  0  0  0  0  0  0  0  0  0
    7.4175   -3.0510   23.5698 C   0  0  0  0  0  0  0  0  0  0  0  0
    7.6574   -2.0289   22.5245 C   0  0  0  0  0  0  0  0  0  0  0  0
    6.7139   -1.6059   21.6965 N   0  0  0  0  0  0  0  0  0  0  0  0
    7.3489   -0.6870   20.9334 N   0  0  0  0  0  0  0  0  0  0  0  0
    6.6529   -0.0005   19.8997 C   0  0  0  0  0  0  0  0  0  0  0  0
    5.4383    0.6412   20.1663 C   0  0  0  0  0  0  0  0  0  0  0  0
    4.8125    1.3112   19.1089 C   0  0  0  0  0  0  0  0  0  0  0  0
    5.3991    1.2966   17.8365 C   0  0  0  0  0  0  0  0  0  0  0  0
    6.5551    0.6696   17.5728 N   0  0  0  0  0  0  0  0  0  0  0  0
    7.1646    0.0475   18.5897 C   0  0  0  0  0  0  0  0  0  0  0  0
    8.1114   -0.4350   18.3626 H   0  0  0  0  0  0  0  0  0  0  0  0
    4.9223    1.7889   16.9921 H   0  0  0  0  0  0  0  0  0  0  0  0
    3.8804    1.8399   19.2585 H   0  0  0  0  0  0  0  0  0  0  0  0
    5.0139    0.6041   21.1748 H   0  0  0  0  0  0  0  0  0  0  0  0
    8.6273   -0.5512   21.3979 C   0  0  0  0  0  0  0  0  0  0  0  0
    9.6159    0.4409   20.9069 C   0  0  0  0  0  0  0  0  0  0  0  0
   10.0136    1.3694   21.9455 N   0  0  0  0  0  0  0  0  0  0  0  0
   11.1722    1.1861   22.5983 N   0  0  0  0  0  0  0  0  0  0  0  0
   11.1686    2.0735   23.5785 C   0  0  0  0  0  0  0  0  0  0  0  0
    9.9773    2.8217   23.5584 C   0  0  0  0  0  0  0  0  0  0  0  0
    9.4994    4.0865   24.6228 Cl  0  0  0  0  0  0  0  0  0  0  0  0
    9.2379    2.3395   22.5017 C   0  0  0  0  0  0  0  0  0  0  0  0
    7.8565    2.7031   22.0572 C   0  0  0  0  0  0  0  0  0  0  0  0
    7.1110    1.9893   22.4308 H   0  0  0  0  0  0  0  0  0  0  0  0
    7.5982    3.6885   22.4503 H   0  0  0  0  0  0  0  0  0  0  0  0
    7.7601    2.7146   20.9688 H   0  0  0  0  0  0  0  0  0  0  0  0
   11.9921    2.1567   24.2754 H   0  0  0  0  0  0  0  0  0  0  0  0
    9.2163    1.0053   20.0688 H   0  0  0  0  0  0  0  0  0  0  0  0
   10.5052   -0.1020   20.6069 H   0  0  0  0  0  0  0  0  0  0  0  0
    8.8608   -1.4157   22.3522 N   0  0  0  0  0  0  0  0  0  0  0  0
    8.4494   -3.4352   24.4487 C   0  0  0  0  0  0  0  0  0  0  0  0
    9.4336   -2.9732   24.3608 H   0  0  0  0  0  0  0  0  0  0  0  0
    5.3412   -3.3367   23.0355 H   0  0  0  0  0  0  0  0  0  0  0  0
    4.9398   -5.0472   24.8003 H   0  0  0  0  0  0  0  0  0  0  0  0
    6.7844   -5.7156   26.3347 H   0  0  0  0  0  0  0  0  0  0  0  0
    9.3474   -4.1356   27.2791 H   0  0  0  0  0  0  0  0  0  0  0  0
   10.3254   -4.7147   25.9333 H   0  0  0  0  0  0  0  0  0  0  0  0
    9.2180   -5.8116   26.7628 H   0  0  0  0  0  0  0  0  0  0  0  0
  1  2  1  0
  2  3  2  0
  3  4  1  0
  4  5  2  0
  5  6  1  0
  6  7  1  0
  7  8  2  0
  8  9  1  0
  9 10  1  0
 10 11  2  0
 11 12  1  0
 12 13  2  0
 13 14  1  0
 14 15  2  0
 15 16  1  0
 13 17  1  0
 12 18  1  0
 11 19  1  0
  9 20  1  0
 20 21  1  0
 21 22  1  0
 22 23  1  0
 23 24  2  0
 24 25  1  0
 25 26  1  0
 25 27  2  0
 27 28  1  0
 28 29  1  0
 28 30  1  0
 28 31  1  0
 24 32  1  0
 21 33  1  0
 21 34  1  0
 20 35  2  0
  6 36  2  0
 36 37  1  0
  5 38  1  0
  4 39  1  0
  3 40  1  0
  1 41  1  0
  1 42  1  0
  1 43  1  0
 36  2  1  0
 35  7  1  0
 15 10  1  0
 27 22  1  0
M  END
>  <cnnaffinity>  (1) 
-6.24876

>  <filename>  (1) 
Cc1cccc(-c2nc(Cn3ncc(Cl)c3C)n(-c3cccnc3)n2)c1

$$$$
