
     RDKit          3D

 49 52  0  0  0  0  0  0  0  0999 V2000
   10.5604   -5.3702   26.0176 C   0  0  0  0  0  0  0  0  0  0  0  0
    9.5909   -4.4974   25.2170 C   0  0  0  0  0  0  0  0  0  0  0  0
    8.5993   -5.3197   24.3853 C   0  0  0  0  0  0  0  0  0  0  0  0
    7.5752   -4.3914   23.7317 C   0  0  0  0  0  0  0  0  0  0  0  0
    8.2236   -3.4137   22.7318 C   0  0  0  0  0  0  0  0  0  0  0  0
    7.3617   -2.2060   22.5083 C   0  0  0  0  0  0  0  0  0  0  0  0
    7.0810   -1.7786   21.3002 N   0  0  0  0  0  0  0  0  0  0  0  0
    6.5958   -0.5241   21.5255 N   0  0  0  0  0  0  0  0  0  0  0  0
    6.2771    0.2917   20.4138 C   0  0  0  0  0  0  0  0  0  0  0  0
    5.2004    1.1866   20.4068 C   0  0  0  0  0  0  0  0  0  0  0  0
    4.9570    1.8929   19.2233 C   0  0  0  0  0  0  0  0  0  0  0  0
    5.7722    1.6740   18.1109 C   0  0  0  0  0  0  0  0  0  0  0  0
    6.8142    0.8221   18.1166 N   0  0  0  0  0  0  0  0  0  0  0  0
    7.0566    0.1577   19.2472 C   0  0  0  0  0  0  0  0  0  0  0  0
    7.9034   -0.5280   19.2507 H   0  0  0  0  0  0  0  0  0  0  0  0
    5.6038    2.2188   17.1855 H   0  0  0  0  0  0  0  0  0  0  0  0
    4.1469    2.6129   19.1607 H   0  0  0  0  0  0  0  0  0  0  0  0
    4.5560    1.3063   21.2795 H   0  0  0  0  0  0  0  0  0  0  0  0
    6.6940   -0.2414   22.8581 C   0  0  0  0  0  0  0  0  0  0  0  0
    6.8496    1.1711   23.3747 C   0  0  0  0  0  0  0  0  0  0  0  0
    8.2444    1.6535   22.9894 C   0  0  0  0  0  0  0  0  0  0  0  0
    8.3715    2.6034   21.8916 C   0  0  0  0  0  0  0  0  0  0  0  0
    9.2509    2.4439   20.9882 N   0  0  0  0  0  0  0  0  0  0  0  0
   11.2669    2.3386   22.8395 C   0  0  0  0  0  0  0  0  0  0  0  0
   11.6782    3.1653   22.1340 O   0  0  0  0  0  0  0  0  0  0  0  0
   10.7109    1.3317   23.5176 C   0  0  0  0  0  0  0  0  0  0  0  0
    9.3108    1.0260   23.5932 C   0  0  0  0  0  0  0  0  0  0  0  0
    9.0590    0.1697   24.2147 H   0  0  0  0  0  0  0  0  0  0  0  0
   11.4063    0.7075   24.0582 H   0  0  0  0  0  0  0  0  0  0  0  0
    9.6987    3.3108   20.6768 H   0  0  0  0  0  0  0  0  0  0  0  0
    7.5823    3.3987   21.8554 H   0  0  0  0  0  0  0  0  0  0  0  0
    6.0676    1.8317   22.9864 H   0  0  0  0  0  0  0  0  0  0  0  0
    6.7703    1.1425   24.4669 H   0  0  0  0  0  0  0  0  0  0  0  0
    7.0848   -1.3255   23.5119 N   0  0  0  0  0  0  0  0  0  0  0  0
    9.6811   -2.9244   23.0670 C   0  0  0  0  0  0  0  0  0  0  0  0
   10.3616   -3.4763   24.3482 C   0  0  0  0  0  0  0  0  0  0  0  0
   11.3233   -3.9197   24.0589 H   0  0  0  0  0  0  0  0  0  0  0  0
   10.6149   -2.6230   24.9809 H   0  0  0  0  0  0  0  0  0  0  0  0
   10.3117   -3.1577   22.2015 H   0  0  0  0  0  0  0  0  0  0  0  0
    9.7232   -1.8243   23.1193 H   0  0  0  0  0  0  0  0  0  0  0  0
    8.2627   -3.9148   21.7600 H   0  0  0  0  0  0  0  0  0  0  0  0
    6.8044   -4.9734   23.2101 H   0  0  0  0  0  0  0  0  0  0  0  0
    7.0561   -3.8238   24.5147 H   0  0  0  0  0  0  0  0  0  0  0  0
    9.1258   -5.9075   23.6216 H   0  0  0  0  0  0  0  0  0  0  0  0
    8.0951   -6.0507   25.0322 H   0  0  0  0  0  0  0  0  0  0  0  0
    8.9823   -3.9418   25.9479 H   0  0  0  0  0  0  0  0  0  0  0  0
   11.3104   -5.8189   25.3596 H   0  0  0  0  0  0  0  0  0  0  0  0
   11.0963   -4.7833   26.7690 H   0  0  0  0  0  0  0  0  0  0  0  0
   10.0317   -6.1753   26.5370 H   0  0  0  0  0  0  0  0  0  0  0  0
  1  2  1  0
  2  3  1  0
  3  4  1  0
  4  5  1  0
  5  6  1  0
  6  7  2  0
  7  8  1  0
  8  9  1  0
  9 10  2  0
 10 11  1  0
 11 12  2  0
 12 13  1  0
 13 14  2  0
 14 15  1  0
 12 16  1  0
 11 17  1  0
 10 18  1  0
  8 19  1  0
 19 20  1  0
 20 21  1  0
 21 22  2  0
 22 23  1  0
 23 24  1  0
 24 25  2  0
 24 26  1  0
 26 27  2  0
 27 28  1  0
 26 29  1  0
 23 30  1  0
 22 31  1  0
 20 32  1  0
 20 33  1  0
 19 34  2  0
  5 35  1  0
 35 36  1  0
 36 37  1  0
 36 38  1  0
 35 39  1  0
 35 40  1  0
  5 41  1  0
  4 42  1  0
  4 43  1  0
  3 44  1  0
  3 45  1  0
  2 46  1  0
  1 47  1  0
  1 48  1  0
  1 49  1  0
 36  2  1  0
 34  6  1  0
 14  9  1  0
 27 21  1  0
M  END
>  <cnnaffinity>  (1) 
-6.45776

>  <filename>  (1) 
CC1CCC(c2nc(Cc3ccc(=O)[nH]c3)n(-c3cccnc3)n2)CC1

$$$$
