
     RDKit          3D

 47 50  0  0  0  0  0  0  0  0999 V2000
    8.0794   -5.4162   27.2724 C   0  0  0  0  0  0  0  0  0  0  0  0
    8.3061   -4.3898   26.1598 C   0  0  0  0  0  0  0  0  0  0  0  0
    7.2207   -3.2982   26.1643 C   0  0  0  0  0  0  0  0  0  0  0  0
    7.4010   -2.2809   25.0324 C   0  0  0  0  0  0  0  0  0  0  0  0
    7.4599   -2.9888   23.6516 C   0  0  0  0  0  0  0  0  0  0  0  0
    7.6694   -2.0076   22.5436 C   0  0  0  0  0  0  0  0  0  0  0  0
    6.7410   -1.5937   21.7093 N   0  0  0  0  0  0  0  0  0  0  0  0
    7.3878   -0.6380   20.9778 N   0  0  0  0  0  0  0  0  0  0  0  0
    6.7030    0.0311   19.9122 C   0  0  0  0  0  0  0  0  0  0  0  0
    5.4715    0.6505   20.1619 C   0  0  0  0  0  0  0  0  0  0  0  0
    4.8298    1.3089   19.1093 C   0  0  0  0  0  0  0  0  0  0  0  0
    5.4239    1.3062   17.8425 C   0  0  0  0  0  0  0  0  0  0  0  0
    6.5854    0.6856   17.5822 N   0  0  0  0  0  0  0  0  0  0  0  0
    7.2062    0.0670   18.5969 C   0  0  0  0  0  0  0  0  0  0  0  0
    8.1347   -0.4477   18.3449 H   0  0  0  0  0  0  0  0  0  0  0  0
    4.9462    1.8129   17.0065 H   0  0  0  0  0  0  0  0  0  0  0  0
    3.8852    1.8208   19.2610 H   0  0  0  0  0  0  0  0  0  0  0  0
    5.0402    0.5947   21.1623 H   0  0  0  0  0  0  0  0  0  0  0  0
    8.6611   -0.5221   21.4528 C   0  0  0  0  0  0  0  0  0  0  0  0
    9.5918    0.6006   21.1330 C   0  0  0  0  0  0  0  0  0  0  0  0
    9.1432    1.8566   21.8260 C   0  0  0  0  0  0  0  0  0  0  0  0
    9.0765    2.2738   23.1385 C   0  0  0  0  0  0  0  0  0  0  0  0
    8.3838    3.5168   23.1519 C   0  0  0  0  0  0  0  0  0  0  0  0
    8.0363    3.8099   21.8621 C   0  0  0  0  0  0  0  0  0  0  0  0
    8.4928    2.7838   21.0791 N   0  0  0  0  0  0  0  0  0  0  0  0
    8.2747    2.6636   20.1029 H   0  0  0  0  0  0  0  0  0  0  0  0
    7.5355    4.6566   21.4114 H   0  0  0  0  0  0  0  0  0  0  0  0
    8.1746    4.1182   24.0241 H   0  0  0  0  0  0  0  0  0  0  0  0
    9.4382    1.7456   24.0113 H   0  0  0  0  0  0  0  0  0  0  0  0
    9.5894    0.7773   20.0533 H   0  0  0  0  0  0  0  0  0  0  0  0
   10.5901    0.2904   21.4494 H   0  0  0  0  0  0  0  0  0  0  0  0
    8.8784   -1.3973   22.4032 N   0  0  0  0  0  0  0  0  0  0  0  0
    8.5728   -4.0597   23.6446 C   0  0  0  0  0  0  0  0  0  0  0  0
    8.3826   -5.0667   24.7791 C   0  0  0  0  0  0  0  0  0  0  0  0
    7.4503   -5.6258   24.6045 H   0  0  0  0  0  0  0  0  0  0  0  0
    9.1948   -5.8052   24.7684 H   0  0  0  0  0  0  0  0  0  0  0  0
    8.5934   -4.5683   22.6736 H   0  0  0  0  0  0  0  0  0  0  0  0
    9.5426   -3.5522   23.7505 H   0  0  0  0  0  0  0  0  0  0  0  0
    6.4894   -3.4617   23.4640 H   0  0  0  0  0  0  0  0  0  0  0  0
    8.3349   -1.7175   25.1799 H   0  0  0  0  0  0  0  0  0  0  0  0
    6.5871   -1.5446   25.0515 H   0  0  0  0  0  0  0  0  0  0  0  0
    7.2080   -2.7885   27.1367 H   0  0  0  0  0  0  0  0  0  0  0  0
    6.2354   -3.7779   26.0555 H   0  0  0  0  0  0  0  0  0  0  0  0
    9.2745   -3.8945   26.3414 H   0  0  0  0  0  0  0  0  0  0  0  0
    7.1237   -5.9362   27.1280 H   0  0  0  0  0  0  0  0  0  0  0  0
    8.8693   -6.1752   27.2822 H   0  0  0  0  0  0  0  0  0  0  0  0
    8.0543   -4.9427   28.2603 H   0  0  0  0  0  0  0  0  0  0  0  0
  1  2  1  0
  2  3  1  0
  3  4  1  0
  4  5  1  0
  5  6  1  0
  6  7  2  0
  7  8  1  0
  8  9  1  0
  9 10  2  0
 10 11  1  0
 11 12  2  0
 12 13  1  0
 13 14  2  0
 14 15  1  0
 12 16  1  0
 11 17  1  0
 10 18  1  0
  8 19  1  0
 19 20  1  0
 20 21  1  0
 21 22  2  0
 22 23  1  0
 23 24  2  0
 24 25  1  0
 25 26  1  0
 24 27  1  0
 23 28  1  0
 22 29  1  0
 20 30  1  0
 20 31  1  0
 19 32  2  0
  5 33  1  0
 33 34  1  0
 34 35  1  0
 34 36  1  0
 33 37  1  0
 33 38  1  0
  5 39  1  0
  4 40  1  0
  4 41  1  0
  3 42  1  0
  3 43  1  0
  2 44  1  0
  1 45  1  0
  1 46  1  0
  1 47  1  0
 34  2  1  0
 32  6  1  0
 14  9  1  0
 25 21  1  0
M  END
>  <cnnaffinity>  (1) 
-6.30854

>  <filename>  (1) 
CC1CCC(c2nc(Cc3ccc[nH]3)n(-c3cccnc3)n2)CC1

$$$$
