
     RDKit          3D

 43 46  0  0  0  0  0  0  0  0999 V2000
   13.6436    0.7253   23.7623 C   0  0  0  0  0  0  0  0  0  0  0  0
   12.4325    0.8170   22.9088 C   0  0  0  0  0  0  0  0  0  0  0  0
   11.9009    0.0303   21.9400 C   0  0  0  0  0  0  0  0  0  0  0  0
   10.6679    0.6562   21.6319 C   0  0  0  0  0  0  0  0  0  0  0  0
    9.6182    0.1872   20.6863 C   0  0  0  0  0  0  0  0  0  0  0  0
    8.5667   -0.6112   21.3586 C   0  0  0  0  0  0  0  0  0  0  0  0
    8.7735   -1.4186   22.3719 N   0  0  0  0  0  0  0  0  0  0  0  0
    7.5668   -2.0016   22.5480 C   0  0  0  0  0  0  0  0  0  0  0  0
    7.3521   -3.0204   23.6189 C   0  0  0  0  0  0  0  0  0  0  0  0
    6.9871   -4.4020   23.0202 C   0  0  0  0  0  0  0  0  0  0  0  0
    6.4510   -5.3521   24.0534 C   0  0  0  0  0  0  0  0  0  0  0  0
    6.0880   -4.9876   25.2841 C   0  0  0  0  0  0  0  0  0  0  0  0
    6.1228   -3.5645   25.7861 C   0  0  0  0  0  0  0  0  0  0  0  0
    6.2893   -2.5573   24.6420 C   0  0  0  0  0  0  0  0  0  0  0  0
    6.5339   -1.5631   25.0345 H   0  0  0  0  0  0  0  0  0  0  0  0
    5.3375   -2.4661   24.1117 H   0  0  0  0  0  0  0  0  0  0  0  0
    5.2016   -3.3481   26.3443 H   0  0  0  0  0  0  0  0  0  0  0  0
    6.9374   -3.4578   26.5156 H   0  0  0  0  0  0  0  0  0  0  0  0
    5.7298   -5.7421   25.9803 H   0  0  0  0  0  0  0  0  0  0  0  0
    6.3618   -6.3904   23.7440 H   0  0  0  0  0  0  0  0  0  0  0  0
    7.8586   -4.8516   22.5244 H   0  0  0  0  0  0  0  0  0  0  0  0
    6.2320   -4.2705   22.2349 H   0  0  0  0  0  0  0  0  0  0  0  0
    8.3205   -3.1027   24.1236 H   0  0  0  0  0  0  0  0  0  0  0  0
    6.6256   -1.6133   21.7022 N   0  0  0  0  0  0  0  0  0  0  0  0
    7.2800   -0.7134   20.9234 N   0  0  0  0  0  0  0  0  0  0  0  0
    6.6139   -0.0322   19.8734 C   0  0  0  0  0  0  0  0  0  0  0  0
    5.4085    0.6252   20.1352 C   0  0  0  0  0  0  0  0  0  0  0  0
    4.7912    1.3117   19.0898 C   0  0  0  0  0  0  0  0  0  0  0  0
    5.3963    1.3006   17.8270 C   0  0  0  0  0  0  0  0  0  0  0  0
    6.5410    0.6508   17.5603 N   0  0  0  0  0  0  0  0  0  0  0  0
    7.1397    0.0079   18.5689 C   0  0  0  0  0  0  0  0  0  0  0  0
    8.0857   -0.4862   18.3347 H   0  0  0  0  0  0  0  0  0  0  0  0
    4.9429    1.8382   17.0003 H   0  0  0  0  0  0  0  0  0  0  0  0
    3.8675    1.8586   19.2506 H   0  0  0  0  0  0  0  0  0  0  0  0
    4.9969    0.5889   21.1434 H   0  0  0  0  0  0  0  0  0  0  0  0
    9.1594    1.0412   20.1897 H   0  0  0  0  0  0  0  0  0  0  0  0
   10.0752   -0.4650   19.9363 H   0  0  0  0  0  0  0  0  0  0  0  0
   10.4932    1.7440   22.3311 N   0  0  0  0  0  0  0  0  0  0  0  0
   11.6071    1.8526   23.1380 O   0  0  0  0  0  0  0  0  0  0  0  0
   12.3128   -0.8656   21.5059 H   0  0  0  0  0  0  0  0  0  0  0  0
   13.8839    1.7157   24.1407 H   0  0  0  0  0  0  0  0  0  0  0  0
   14.4911    0.3288   23.2008 H   0  0  0  0  0  0  0  0  0  0  0  0
   13.4622    0.0594   24.6129 H   0  0  0  0  0  0  0  0  0  0  0  0
  1  2  1  0
  2  3  2  0
  3  4  1  0
  4  5  1  0
  5  6  1  0
  6  7  2  0
  7  8  1  0
  8  9  1  0
  9 10  1  0
 10 11  1  0
 11 12  2  0
 12 13  1  0
 13 14  1  0
 14 15  1  0
 14 16  1  0
 13 17  1  0
 13 18  1  0
 12 19  1  0
 11 20  1  0
 10 21  1  0
 10 22  1  0
  9 23  1  0
  8 24  2  0
 24 25  1  0
 25 26  1  0
 26 27  2  0
 27 28  1  0
 28 29  2  0
 29 30  1  0
 30 31  2  0
 31 32  1  0
 29 33  1  0
 28 34  1  0
 27 35  1  0
  5 36  1  0
  5 37  1  0
  4 38  2  0
 38 39  1  0
  3 40  1  0
  1 41  1  0
  1 42  1  0
  1 43  1  0
 39  2  1  0
 25  6  1  0
 31 26  1  0
 14  9  1  0
M  END
>  <cnnaffinity>  (1) 
-6.25575

>  <filename>  (1) 
Cc1cc(Cc2nc(C3CC=CCC3)nn2-c2cccnc2)no1

$$$$
