
     RDKit          3D

 44 47  0  0  0  0  0  0  0  0999 V2000
   12.7270    1.0900   23.2731 C   0  0  0  0  0  0  0  0  0  0  0  0
   11.4014    1.8182   23.3630 C   0  0  0  0  0  0  0  0  0  0  0  0
   11.1565    2.7327   24.3864 C   0  0  0  0  0  0  0  0  0  0  0  0
    9.9039    3.3284   24.5839 C   0  0  0  0  0  0  0  0  0  0  0  0
    8.8696    3.0233   23.7043 C   0  0  0  0  0  0  0  0  0  0  0  0
    9.0859    2.1477   22.6335 C   0  0  0  0  0  0  0  0  0  0  0  0
   10.3422    1.5469   22.4622 C   0  0  0  0  0  0  0  0  0  0  0  0
   10.6333    0.6604   21.4524 O   0  0  0  0  0  0  0  0  0  0  0  0
    9.6082    0.1153   20.6448 C   0  0  0  0  0  0  0  0  0  0  0  0
    8.5626   -0.7057   21.3538 C   0  0  0  0  0  0  0  0  0  0  0  0
    8.7351   -1.4804   22.4020 N   0  0  0  0  0  0  0  0  0  0  0  0
    7.4977   -2.0083   22.6109 C   0  0  0  0  0  0  0  0  0  0  0  0
    7.2152   -2.9305   23.7462 C   0  0  2  0  0  0  0  0  0  0  0  0
    6.2405   -2.5325   24.8308 C   0  0  0  0  0  0  0  0  0  0  0  0
    7.7137   -2.5643   25.1237 C   0  0  1  0  0  0  0  0  0  0  0  0
    8.3391   -3.5848   26.0506 C   0  0  0  0  0  0  0  0  0  0  0  0
    9.4104   -3.6920   25.8378 H   0  0  0  0  0  0  0  0  0  0  0  0
    8.2230   -3.2674   27.0945 H   0  0  0  0  0  0  0  0  0  0  0  0
    7.8820   -4.5788   25.9683 H   0  0  0  0  0  0  0  0  0  0  0  0
    8.2010   -1.5863   25.1537 H   0  0  0  0  0  0  0  0  0  0  0  0
    5.7713   -1.5550   24.7228 H   0  0  0  0  0  0  0  0  0  0  0  0
    5.6010   -3.3073   25.2565 H   0  0  0  0  0  0  0  0  0  0  0  0
    7.2632   -3.9838   23.4584 H   0  0  0  0  0  0  0  0  0  0  0  0
    6.5841   -1.6220   21.7382 N   0  0  0  0  0  0  0  0  0  0  0  0
    7.2735   -0.8001   20.9034 N   0  0  0  0  0  0  0  0  0  0  0  0
    6.6050   -0.1032   19.8522 C   0  0  0  0  0  0  0  0  0  0  0  0
    5.4159    0.5863   20.1195 C   0  0  0  0  0  0  0  0  0  0  0  0
    4.8223    1.3067   19.0798 C   0  0  0  0  0  0  0  0  0  0  0  0
    5.4178    1.3141   17.8133 C   0  0  0  0  0  0  0  0  0  0  0  0
    6.5377    0.6317   17.5382 N   0  0  0  0  0  0  0  0  0  0  0  0
    7.1063   -0.0590   18.5351 C   0  0  0  0  0  0  0  0  0  0  0  0
    8.0143   -0.5956   18.2764 H   0  0  0  0  0  0  0  0  0  0  0  0
    4.9742    1.8726   16.9888 H   0  0  0  0  0  0  0  0  0  0  0  0
    3.9051    1.8587   19.2400 H   0  0  0  0  0  0  0  0  0  0  0  0
    4.9869    0.5518   21.1221 H   0  0  0  0  0  0  0  0  0  0  0  0
    9.1410    0.9006   20.0396 H   0  0  0  0  0  0  0  0  0  0  0  0
   10.1176   -0.5675   19.9633 H   0  0  0  0  0  0  0  0  0  0  0  0
    8.2741    1.9314   21.9460 H   0  0  0  0  0  0  0  0  0  0  0  0
    7.8864    3.4585   23.8524 H   0  0  0  0  0  0  0  0  0  0  0  0
    9.7287    3.9961   25.4233 H   0  0  0  0  0  0  0  0  0  0  0  0
   11.9799    2.9631   25.0500 H   0  0  0  0  0  0  0  0  0  0  0  0
   13.4173    1.4173   24.0572 H   0  0  0  0  0  0  0  0  0  0  0  0
   13.2206    1.2489   22.3082 H   0  0  0  0  0  0  0  0  0  0  0  0
   12.5849    0.0088   23.3956 H   0  0  0  0  0  0  0  0  0  0  0  0
  1  2  1  0
  2  3  2  0
  3  4  1  0
  4  5  2  0
  5  6  1  0
  6  7  2  0
  7  8  1  0
  8  9  1  0
  9 10  1  0
 10 11  2  0
 11 12  1  0
 12 13  1  0
 13 14  1  0
 14 15  1  0
 15 16  1  0
 16 17  1  0
 16 18  1  0
 16 19  1  0
 15 20  1  6
 14 21  1  0
 14 22  1  0
 13 23  1  6
 12 24  2  0
 24 25  1  0
 25 26  1  0
 26 27  2  0
 27 28  1  0
 28 29  2  0
 29 30  1  0
 30 31  2  0
 31 32  1  0
 29 33  1  0
 28 34  1  0
 27 35  1  0
  9 36  1  0
  9 37  1  0
  6 38  1  0
  5 39  1  0
  4 40  1  0
  3 41  1  0
  1 42  1  0
  1 43  1  0
  1 44  1  0
  7  2  1  0
 25 10  1  0
 31 26  1  0
 15 13  1  0
M  END
>  <cnnaffinity>  (1) 
-6.09727

>  <filename>  (1) 
Cc1ccccc1OCc1nc([C@@H]2C[C@H]2C)nn1-c1cccnc1

$$$$
