
     RDKit          3D

 48 50  0  0  0  0  0  0  0  0999 V2000
    6.5904    4.6818   21.6444 C   0  0  0  0  0  0  0  0  0  0  0  0
    7.6085    3.6657   22.0723 C   0  0  0  0  0  0  0  0  0  0  0  0
    7.9132    2.6448   21.2824 N   0  0  0  0  0  0  0  0  0  0  0  0
    8.8903    1.9775   21.9008 N   0  0  0  0  0  0  0  0  0  0  0  0
    9.4231    0.8250   21.1982 C   0  0  0  0  0  0  0  0  0  0  0  0
    8.5806   -0.3571   21.5155 C   0  0  0  0  0  0  0  0  0  0  0  0
    8.8015   -1.1405   22.5482 N   0  0  0  0  0  0  0  0  0  0  0  0
    7.6485   -1.8549   22.6410 C   0  0  0  0  0  0  0  0  0  0  0  0
    7.3954   -2.7780   23.7865 C   0  0  0  0  0  0  0  0  0  0  0  0
    6.5155   -2.1625   24.8970 C   0  0  0  0  0  0  0  0  0  0  0  0
    7.0647   -0.8585   25.5301 C   0  0  0  0  0  0  0  0  0  0  0  0
    6.7052   -0.7909   27.0202 C   0  0  0  0  0  0  0  0  0  0  0  0
    7.0925   -1.6642   27.5574 H   0  0  0  0  0  0  0  0  0  0  0  0
    7.1235    0.1069   27.4894 H   0  0  0  0  0  0  0  0  0  0  0  0
    5.6159   -0.7661   27.1593 H   0  0  0  0  0  0  0  0  0  0  0  0
    6.5859    0.4107   24.8130 C   0  0  0  0  0  0  0  0  0  0  0  0
    7.0541    1.3006   25.2516 H   0  0  0  0  0  0  0  0  0  0  0  0
    6.8244    0.3959   23.7453 H   0  0  0  0  0  0  0  0  0  0  0  0
    5.4989    0.5341   24.9029 H   0  0  0  0  0  0  0  0  0  0  0  0
    8.1667   -0.8753   25.4589 H   0  0  0  0  0  0  0  0  0  0  0  0
    6.4047   -2.9312   25.6747 H   0  0  0  0  0  0  0  0  0  0  0  0
    5.5052   -1.9857   24.5012 H   0  0  0  0  0  0  0  0  0  0  0  0
    6.9318   -3.6879   23.3991 H   0  0  0  0  0  0  0  0  0  0  0  0
    8.3722   -3.0460   24.2015 H   0  0  0  0  0  0  0  0  0  0  0  0
    6.7523   -1.5842   21.7149 N   0  0  0  0  0  0  0  0  0  0  0  0
    7.3623   -0.6295   20.9613 N   0  0  0  0  0  0  0  0  0  0  0  0
    6.6464   -0.0162   19.8869 C   0  0  0  0  0  0  0  0  0  0  0  0
    5.4044    0.5913   20.1224 C   0  0  0  0  0  0  0  0  0  0  0  0
    4.7893    1.2714   19.0667 C   0  0  0  0  0  0  0  0  0  0  0  0
    5.4102    1.2854   17.8131 C   0  0  0  0  0  0  0  0  0  0  0  0
    6.5688    0.6544   17.5629 N   0  0  0  0  0  0  0  0  0  0  0  0
    7.1641    0.0205   18.5818 C   0  0  0  0  0  0  0  0  0  0  0  0
    8.0975   -0.4934   18.3536 H   0  0  0  0  0  0  0  0  0  0  0  0
    4.9540    1.8024   16.9715 H   0  0  0  0  0  0  0  0  0  0  0  0
    3.8457    1.7899   19.2067 H   0  0  0  0  0  0  0  0  0  0  0  0
    4.9579    0.5419   21.1173 H   0  0  0  0  0  0  0  0  0  0  0  0
    9.3572    1.0632   20.1394 H   0  0  0  0  0  0  0  0  0  0  0  0
   10.4628    0.6436   21.4802 H   0  0  0  0  0  0  0  0  0  0  0  0
    9.1649    2.4927   23.1321 C   0  0  0  0  0  0  0  0  0  0  0  0
   10.1103    1.8653   24.1042 C   0  0  0  0  0  0  0  0  0  0  0  0
   11.1538    1.9706   23.7859 H   0  0  0  0  0  0  0  0  0  0  0  0
    9.8939    0.7967   24.2388 H   0  0  0  0  0  0  0  0  0  0  0  0
   10.0096    2.3597   25.0733 H   0  0  0  0  0  0  0  0  0  0  0  0
    8.3842    3.6251   23.2453 C   0  0  0  0  0  0  0  0  0  0  0  0
    8.4071    4.3565   24.0471 H   0  0  0  0  0  0  0  0  0  0  0  0
    5.8217    4.1866   21.0400 H   0  0  0  0  0  0  0  0  0  0  0  0
    6.1043    5.1454   22.5043 H   0  0  0  0  0  0  0  0  0  0  0  0
    7.0682    5.4803   21.0581 H   0  0  0  0  0  0  0  0  0  0  0  0
  1  2  1  0
  2  3  2  0
  3  4  1  0
  4  5  1  0
  5  6  1  0
  6  7  2  0
  7  8  1  0
  8  9  1  0
  9 10  1  0
 10 11  1  0
 11 12  1  0
 12 13  1  0
 12 14  1  0
 12 15  1  0
 11 16  1  0
 16 17  1  0
 16 18  1  0
 16 19  1  0
 11 20  1  0
 10 21  1  0
 10 22  1  0
  9 23  1  0
  9 24  1  0
  8 25  2  0
 25 26  1  0
 26 27  1  0
 27 28  2  0
 28 29  1  0
 29 30  2  0
 30 31  1  0
 31 32  2  0
 32 33  1  0
 30 34  1  0
 29 35  1  0
 28 36  1  0
  5 37  1  0
  5 38  1  0
  4 39  1  0
 39 40  1  0
 40 41  1  0
 40 42  1  0
 40 43  1  0
 39 44  2  0
 44 45  1  0
  1 46  1  0
  1 47  1  0
  1 48  1  0
 44  2  1  0
 26  6  1  0
 32 27  1  0
M  END
>  <cnnaffinity>  (1) 
-5.85147

>  <filename>  (1) 
Cc1cc(C)n(Cc2nc(CCC(C)C)nn2-c2cccnc2)n1

$$$$
