
     RDKit          3D

 46 49  0  0  0  0  0  0  0  0999 V2000
   16.0063   -0.3128   19.6582 C   0  0  0  0  0  0  0  0  0  0  0  0
   14.7095   -0.7950   20.5426 C   0  0  0  0  0  0  0  0  0  0  0  0
   14.4312    0.0948   21.6469 C   0  0  0  0  0  0  0  0  0  0  0  0
   13.1522    0.2861   22.1517 C   0  0  0  0  0  0  0  0  0  0  0  0
   12.1131   -0.5241   21.6563 C   0  0  0  0  0  0  0  0  0  0  0  0
   10.6856   -0.1367   21.7858 C   0  0  0  0  0  0  0  0  0  0  0  0
    9.7170   -0.8585   21.2406 N   0  0  0  0  0  0  0  0  0  0  0  0
    8.5986   -0.1641   21.5300 N   0  0  0  0  0  0  0  0  0  0  0  0
    7.2917   -0.6738   21.1356 C   0  0  0  0  0  0  0  0  0  0  0  0
    6.6380    0.0793   19.9959 C   0  0  0  0  0  0  0  0  0  0  0  0
    5.4006    0.7164   20.1363 C   0  0  0  0  0  0  0  0  0  0  0  0
    4.8310    1.3386   19.0225 C   0  0  0  0  0  0  0  0  0  0  0  0
    5.5255    1.3033   17.8095 C   0  0  0  0  0  0  0  0  0  0  0  0
    6.7171    0.7054   17.6557 N   0  0  0  0  0  0  0  0  0  0  0  0
    7.2567    0.1224   18.7338 C   0  0  0  0  0  0  0  0  0  0  0  0
    8.2283   -0.3490   18.5880 H   0  0  0  0  0  0  0  0  0  0  0  0
    5.1033    1.7716   16.9215 H   0  0  0  0  0  0  0  0  0  0  0  0
    3.8800    1.8552   19.0872 H   0  0  0  0  0  0  0  0  0  0  0  0
    4.8924    0.7251   21.1053 H   0  0  0  0  0  0  0  0  0  0  0  0
    6.6488   -0.6611   22.0250 H   0  0  0  0  0  0  0  0  0  0  0  0
    7.4704   -1.7177   20.8618 H   0  0  0  0  0  0  0  0  0  0  0  0
    8.9335    0.9417   22.2246 C   0  0  0  0  0  0  0  0  0  0  0  0
    7.9355    1.7985   22.9302 C   0  0  0  0  0  0  0  0  0  0  0  0
    7.6366    1.1549   24.2497 C   0  0  0  0  0  0  0  0  0  0  0  0
    6.5804    0.3825   24.4109 N   0  0  0  0  0  0  0  0  0  0  0  0
    6.7041   -0.1490   25.6561 N   0  0  0  0  0  0  0  0  0  0  0  0
    5.7758   -1.1068   26.1994 C   0  0  0  0  0  0  0  0  0  0  0  0
    4.5110   -0.7983   25.8561 F   0  0  0  0  0  0  0  0  0  0  0  0
    6.0578   -2.3581   25.7475 F   0  0  0  0  0  0  0  0  0  0  0  0
    5.8635   -1.1035   27.2883 H   0  0  0  0  0  0  0  0  0  0  0  0
    7.8593    0.2666   26.2519 C   0  0  0  0  0  0  0  0  0  0  0  0
    8.4809    1.1150   25.3806 C   0  0  0  0  0  0  0  0  0  0  0  0
    9.4335    1.6149   25.4736 H   0  0  0  0  0  0  0  0  0  0  0  0
    8.1584   -0.0895   27.2311 H   0  0  0  0  0  0  0  0  0  0  0  0
    8.3696    2.7898   23.0705 H   0  0  0  0  0  0  0  0  0  0  0  0
    7.0230    1.9014   22.3388 H   0  0  0  0  0  0  0  0  0  0  0  0
   10.2380    0.9985   22.3926 N   0  0  0  0  0  0  0  0  0  0  0  0
   12.4791   -1.6471   20.8940 C   0  0  0  0  0  0  0  0  0  0  0  0
   13.7638   -1.8115   20.3486 C   0  0  0  0  0  0  0  0  0  0  0  0
   13.9969   -2.7382   19.8240 H   0  0  0  0  0  0  0  0  0  0  0  0
   11.6763   -2.3341   20.6878 H   0  0  0  0  0  0  0  0  0  0  0  0
   12.9377    1.1028   22.8382 H   0  0  0  0  0  0  0  0  0  0  0  0
   15.2056    0.7712   22.0025 H   0  0  0  0  0  0  0  0  0  0  0  0
   16.3732    0.5769   20.1485 H   0  0  0  0  0  0  0  0  0  0  0  0
   15.9254    0.1190   18.6500 H   0  0  0  0  0  0  0  0  0  0  0  0
   16.8286   -1.0226   19.6646 H   0  0  0  0  0  0  0  0  0  0  0  0
  1  2  1  0
  2  3  2  0
  3  4  1  0
  4  5  2  0
  5  6  1  0
  6  7  2  0
  7  8  1  0
  8  9  1  0
  9 10  1  0
 10 11  2  0
 11 12  1  0
 12 13  2  0
 13 14  1  0
 14 15  2  0
 15 16  1  0
 13 17  1  0
 12 18  1  0
 11 19  1  0
  9 20  1  0
  9 21  1  0
  8 22  1  0
 22 23  1  0
 23 24  1  0
 24 25  2  0
 25 26  1  0
 26 27  1  0
 27 28  1  0
 27 29  1  0
 27 30  1  0
 26 31  1  0
 31 32  2  0
 32 33  1  0
 31 34  1  0
 23 35  1  0
 23 36  1  0
 22 37  2  0
  5 38  1  0
 38 39  2  0
 39 40  1  0
 38 41  1  0
  4 42  1  0
  3 43  1  0
  1 44  1  0
  1 45  1  0
  1 46  1  0
 39  2  1  0
 37  6  1  0
 15 10  1  0
 32 24  1  0
M  END
>  <cnnaffinity>  (1) 
-6.56732

>  <filename>  (1) 
Cc1ccc(-c2nc(Cc3ccn(C(F)F)n3)n(Cc3cccnc3)n2)cc1

$$$$
