
     RDKit          3D

 45 48  0  0  0  0  0  0  0  0999 V2000
    5.0725   -3.7802   26.3239 C   0  0  0  0  0  0  0  0  0  0  0  0
    6.1870   -2.8542   25.8819 C   0  0  0  0  0  0  0  0  0  0  0  0
    7.2096   -2.4699   26.7614 C   0  0  0  0  0  0  0  0  0  0  0  0
    8.1872   -1.5287   26.3961 C   0  0  0  0  0  0  0  0  0  0  0  0
    9.2540   -1.0819   27.3730 C   0  0  0  0  0  0  0  0  0  0  0  0
    9.9262   -0.3423   26.9223 H   0  0  0  0  0  0  0  0  0  0  0  0
    9.8612   -1.9387   27.6821 H   0  0  0  0  0  0  0  0  0  0  0  0
    8.8378   -0.6331   28.2826 H   0  0  0  0  0  0  0  0  0  0  0  0
    8.1814   -1.0416   25.0825 C   0  0  0  0  0  0  0  0  0  0  0  0
    7.2630   -1.5413   24.1460 C   0  0  0  0  0  0  0  0  0  0  0  0
    7.4564   -1.2808   22.7475 N   0  0  0  0  0  0  0  0  0  0  0  0
    6.5383   -0.6528   21.9742 N   0  0  0  0  0  0  0  0  0  0  0  0
    7.1052   -0.6512   20.7828 C   0  0  0  0  0  0  0  0  0  0  0  0
    6.5072    0.0301   19.6390 C   0  0  0  0  0  0  0  0  0  0  0  0
    5.3209    0.7790   19.7506 C   0  0  0  0  0  0  0  0  0  0  0  0
    4.8559    1.4376   18.6185 C   0  0  0  0  0  0  0  0  0  0  0  0
    5.5817    1.3245   17.4266 C   0  0  0  0  0  0  0  0  0  0  0  0
    6.7132    0.6138   17.3115 N   0  0  0  0  0  0  0  0  0  0  0  0
    7.1655   -0.0112   18.4031 C   0  0  0  0  0  0  0  0  0  0  0  0
    8.0959   -0.5643   18.2892 H   0  0  0  0  0  0  0  0  0  0  0  0
    5.2413    1.8268   16.5258 H   0  0  0  0  0  0  0  0  0  0  0  0
    3.9640    2.0555   18.6498 H   0  0  0  0  0  0  0  0  0  0  0  0
    4.8019    0.8446   20.7099 H   0  0  0  0  0  0  0  0  0  0  0  0
    8.3061   -1.2932   20.7269 N   0  0  0  0  0  0  0  0  0  0  0  0
    8.4936   -1.6854   21.9634 C   0  0  0  0  0  0  0  0  0  0  0  0
    9.6429   -2.4880   22.4716 C   0  0  0  0  0  0  0  0  0  0  0  0
    9.2244   -3.7685   23.1452 C   0  0  0  0  0  0  0  0  0  0  0  0
    9.6854   -4.0402   24.3348 N   0  0  0  0  0  0  0  0  0  0  0  0
    9.1449   -5.2529   24.7009 O   0  0  0  0  0  0  0  0  0  0  0  0
    8.3688   -5.6785   23.7014 C   0  0  0  0  0  0  0  0  0  0  0  0
    8.3415   -4.8002   22.6654 C   0  0  0  0  0  0  0  0  0  0  0  0
    7.6010   -4.9562   21.3668 C   0  0  0  0  0  0  0  0  0  0  0  0
    6.9493   -5.8340   21.4019 H   0  0  0  0  0  0  0  0  0  0  0  0
    6.9656   -4.0960   21.1352 H   0  0  0  0  0  0  0  0  0  0  0  0
    8.2751   -5.0976   20.5172 H   0  0  0  0  0  0  0  0  0  0  0  0
    7.8865   -6.6317   23.8405 H   0  0  0  0  0  0  0  0  0  0  0  0
   10.2923   -2.7060   21.6231 H   0  0  0  0  0  0  0  0  0  0  0  0
   10.2154   -1.8898   23.1893 H   0  0  0  0  0  0  0  0  0  0  0  0
    6.2365   -2.3970   24.5566 C   0  0  0  0  0  0  0  0  0  0  0  0
    5.4872   -2.7253   23.8380 H   0  0  0  0  0  0  0  0  0  0  0  0
    8.9202   -0.2988   24.7865 H   0  0  0  0  0  0  0  0  0  0  0  0
    7.2732   -2.9641   27.7262 H   0  0  0  0  0  0  0  0  0  0  0  0
    5.2920   -4.8211   26.0519 H   0  0  0  0  0  0  0  0  0  0  0  0
    4.1224   -3.5073   25.8498 H   0  0  0  0  0  0  0  0  0  0  0  0
    4.9113   -3.7561   27.4069 H   0  0  0  0  0  0  0  0  0  0  0  0
  1  2  1  0
  2  3  2  0
  3  4  1  0
  4  5  1  0
  5  6  1  0
  5  7  1  0
  5  8  1  0
  4  9  2  0
  9 10  1  0
 10 11  1  0
 11 12  1  0
 12 13  2  0
 13 14  1  0
 14 15  2  0
 15 16  1  0
 16 17  2  0
 17 18  1  0
 18 19  2  0
 19 20  1  0
 17 21  1  0
 16 22  1  0
 15 23  1  0
 13 24  1  0
 24 25  2  0
 25 26  1  0
 26 27  1  0
 27 28  2  0
 28 29  1  0
 29 30  1  0
 30 31  2  0
 31 32  1  0
 32 33  1  0
 32 34  1  0
 32 35  1  0
 30 36  1  0
 26 37  1  0
 26 38  1  0
 10 39  2  0
 39 40  1  0
  9 41  1  0
  3 42  1  0
  1 43  1  0
  1 44  1  0
  1 45  1  0
 39  2  1  0
 25 11  1  0
 31 27  1  0
 19 14  1  0
M  END
>  <cnnaffinity>  (1) 
-6.16859

>  <filename>  (1) 
Cc1cc(C)cc(-n2nc(-c3cccnc3)nc2Cc2nocc2C)c1

$$$$
