
     RDKit          3D

 43 46  0  0  0  0  0  0  0  0999 V2000
    4.6803   -0.5165   26.0111 C   0  0  0  0  0  0  0  0  0  0  0  0
    6.0559   -0.0111   25.6493 C   0  0  0  0  0  0  0  0  0  0  0  0
    7.1306   -0.2097   26.5250 C   0  0  0  0  0  0  0  0  0  0  0  0
    8.3877    0.2823   26.1913 C   0  0  0  0  0  0  0  0  0  0  0  0
    9.4161    0.0461   27.0216 F   0  0  0  0  0  0  0  0  0  0  0  0
    8.6183    0.9742   25.0128 C   0  0  0  0  0  0  0  0  0  0  0  0
    7.5594    1.1515   24.1071 C   0  0  0  0  0  0  0  0  0  0  0  0
    7.8737    1.7800   22.7505 C   0  0  0  0  0  0  0  0  0  0  0  0
    8.8674    0.9353   22.0038 C   0  0  0  0  0  0  0  0  0  0  0  0
   10.1750    1.0736   22.0470 N   0  0  0  0  0  0  0  0  0  0  0  0
   10.6520   -0.1180   21.5486 C   0  0  0  0  0  0  0  0  0  0  0  0
   12.0901   -0.4112   21.5730 C   0  0  0  0  0  0  0  0  0  0  0  0
   12.5320   -1.5133   20.8693 N   0  0  0  0  0  0  0  0  0  0  0  0
   13.7428   -1.7785   20.8384 N   0  0  0  0  0  0  0  0  0  0  0  0
   14.3319    0.3540   22.3394 C   0  0  0  0  0  0  0  0  0  0  0  0
   13.0216    0.4901   22.2318 C   0  0  0  0  0  0  0  0  0  0  0  0
   12.5455    1.3844   22.6511 H   0  0  0  0  0  0  0  0  0  0  0  0
   15.0348    1.0347   22.8065 H   0  0  0  0  0  0  0  0  0  0  0  0
   14.2949   -1.0352   21.4389 H   0  0  0  0  0  0  0  0  0  0  0  0
    9.6803   -0.9285   21.1386 N   0  0  0  0  0  0  0  0  0  0  0  0
    8.5561   -0.2504   21.4388 N   0  0  0  0  0  0  0  0  0  0  0  0
    7.2518   -0.7742   21.0410 C   0  0  0  0  0  0  0  0  0  0  0  0
    6.5962   -0.0006   19.9140 C   0  0  0  0  0  0  0  0  0  0  0  0
    5.3596    0.6412   20.0443 C   0  0  0  0  0  0  0  0  0  0  0  0
    4.8292    1.3234   18.9463 C   0  0  0  0  0  0  0  0  0  0  0  0
    5.5558    1.3358   17.7522 C   0  0  0  0  0  0  0  0  0  0  0  0
    6.7411    0.7241   17.6044 N   0  0  0  0  0  0  0  0  0  0  0  0
    7.2430    0.0875   18.6690 C   0  0  0  0  0  0  0  0  0  0  0  0
    8.2153   -0.3855   18.5314 H   0  0  0  0  0  0  0  0  0  0  0  0
    5.1711    1.8574   16.8766 H   0  0  0  0  0  0  0  0  0  0  0  0
    3.8837    1.8516   19.0021 H   0  0  0  0  0  0  0  0  0  0  0  0
    4.8167    0.6189   20.9928 H   0  0  0  0  0  0  0  0  0  0  0  0
    7.4401   -1.8117   20.7498 H   0  0  0  0  0  0  0  0  0  0  0  0
    6.6014   -0.7973   21.9215 H   0  0  0  0  0  0  0  0  0  0  0  0
    6.9693    1.9224   22.1521 H   0  0  0  0  0  0  0  0  0  0  0  0
    8.3289    2.7660   22.8824 H   0  0  0  0  0  0  0  0  0  0  0  0
    6.2914    0.6664   24.4373 C   0  0  0  0  0  0  0  0  0  0  0  0
    5.4662    0.7934   23.7388 H   0  0  0  0  0  0  0  0  0  0  0  0
    9.6197    1.3210   24.7743 H   0  0  0  0  0  0  0  0  0  0  0  0
    7.0138   -0.7462   27.4615 H   0  0  0  0  0  0  0  0  0  0  0  0
    4.0438    0.2965   26.3789 H   0  0  0  0  0  0  0  0  0  0  0  0
    4.1774   -0.9650   25.1499 H   0  0  0  0  0  0  0  0  0  0  0  0
    4.7298   -1.2784   26.7950 H   0  0  0  0  0  0  0  0  0  0  0  0
  1  2  1  0
  2  3  2  0
  3  4  1  0
  4  5  1  0
  4  6  2  0
  6  7  1  0
  7  8  1  0
  8  9  1  0
  9 10  2  0
 10 11  1  0
 11 12  1  0
 12 13  2  0
 13 14  1  0
 14 15  1  0
 15 16  2  0
 16 17  1  0
 15 18  1  0
 14 19  1  0
 11 20  2  0
 20 21  1  0
 21 22  1  0
 22 23  1  0
 23 24  2  0
 24 25  1  0
 25 26  2  0
 26 27  1  0
 27 28  2  0
 28 29  1  0
 26 30  1  0
 25 31  1  0
 24 32  1  0
 22 33  1  0
 22 34  1  0
  8 35  1  0
  8 36  1  0
  7 37  2  0
 37 38  1  0
  6 39  1  0
  3 40  1  0
  1 41  1  0
  1 42  1  0
  1 43  1  0
 37  2  1  0
 21  9  1  0
 28 23  1  0
 16 12  1  0
M  END
>  <cnnaffinity>  (1) 
-6.57438

>  <filename>  (1) 
Cc1cc(F)cc(Cc2nc(-c3cc[nH]n3)nn2Cc2cccnc2)c1

$$$$
