
     RDKit          3D

 45 48  0  0  0  0  0  0  0  0999 V2000
    4.9479    4.3497   27.7728 C   0  0  0  0  0  0  0  0  0  0  0  0
    5.2058    3.3124   26.7265 C   0  0  0  0  0  0  0  0  0  0  0  0
    4.2443    2.5810   26.2197 N   0  0  0  0  0  0  0  0  0  0  0  0
    4.8458    1.7595   25.2819 O   0  0  0  0  0  0  0  0  0  0  0  0
    6.1623    2.0042   25.2538 C   0  0  0  0  0  0  0  0  0  0  0  0
    7.0150    1.1842   24.3502 C   0  0  0  0  0  0  0  0  0  0  0  0
    6.9813    1.5406   22.8332 C   0  0  0  0  0  0  0  0  0  0  0  0
    8.0539    0.7795   22.1152 C   0  0  0  0  0  0  0  0  0  0  0  0
    9.3198    1.0630   22.3157 N   0  0  0  0  0  0  0  0  0  0  0  0
    9.9796   -0.0594   21.9163 C   0  0  0  0  0  0  0  0  0  0  0  0
   11.4512   -0.1126   22.1643 C   0  0  0  0  0  0  0  0  0  0  0  0
   12.3278   -1.0654   21.6040 C   0  0  0  0  0  0  0  0  0  0  0  0
   13.7007   -0.8893   21.7839 C   0  0  0  0  0  0  0  0  0  0  0  0
   14.5324   -1.7576   21.1853 F   0  0  0  0  0  0  0  0  0  0  0  0
   14.2365    0.1839   22.4950 C   0  0  0  0  0  0  0  0  0  0  0  0
   13.3653    1.0700   23.1336 C   0  0  0  0  0  0  0  0  0  0  0  0
   11.9909    0.9126   22.9806 C   0  0  0  0  0  0  0  0  0  0  0  0
   11.3208    1.6176   23.4630 H   0  0  0  0  0  0  0  0  0  0  0  0
   13.7609    1.8895   23.7316 H   0  0  0  0  0  0  0  0  0  0  0  0
   15.2970    0.3666   22.4773 H   0  0  0  0  0  0  0  0  0  0  0  0
   11.9842   -1.8977   20.9953 H   0  0  0  0  0  0  0  0  0  0  0  0
    9.1903   -0.9842   21.3916 N   0  0  0  0  0  0  0  0  0  0  0  0
    7.9527   -0.4193   21.4963 N   0  0  0  0  0  0  0  0  0  0  0  0
    6.7516   -0.9769   20.8797 C   0  0  0  0  0  0  0  0  0  0  0  0
    6.2052   -0.1113   19.7549 C   0  0  0  0  0  0  0  0  0  0  0  0
    5.0086    0.6134   19.8287 C   0  0  0  0  0  0  0  0  0  0  0  0
    4.6283    1.4039   18.7391 C   0  0  0  0  0  0  0  0  0  0  0  0
    5.4597    1.4479   17.6187 C   0  0  0  0  0  0  0  0  0  0  0  0
    6.6144    0.7727   17.5313 N   0  0  0  0  0  0  0  0  0  0  0  0
    6.9687    0.0291   18.5851 C   0  0  0  0  0  0  0  0  0  0  0  0
    7.9178   -0.4961   18.4996 H   0  0  0  0  0  0  0  0  0  0  0  0
    5.1965    2.0584   16.7570 H   0  0  0  0  0  0  0  0  0  0  0  0
    3.7153    1.9872   18.7468 H   0  0  0  0  0  0  0  0  0  0  0  0
    4.3860    0.5866   20.7246 H   0  0  0  0  0  0  0  0  0  0  0  0
    7.0162   -1.9734   20.5135 H   0  0  0  0  0  0  0  0  0  0  0  0
    5.9949   -1.1088   21.6617 H   0  0  0  0  0  0  0  0  0  0  0  0
    5.9961    1.3868   22.3816 H   0  0  0  0  0  0  0  0  0  0  0  0
    7.2454    2.5933   22.6963 H   0  0  0  0  0  0  0  0  0  0  0  0
    8.0497    1.3065   24.6941 H   0  0  0  0  0  0  0  0  0  0  0  0
    6.7639    0.1258   24.4840 H   0  0  0  0  0  0  0  0  0  0  0  0
    6.4589    2.9876   26.1385 C   0  0  0  0  0  0  0  0  0  0  0  0
    7.4238    3.4188   26.3511 H   0  0  0  0  0  0  0  0  0  0  0  0
    4.8938    5.3425   27.3153 H   0  0  0  0  0  0  0  0  0  0  0  0
    4.0113    4.1637   28.3027 H   0  0  0  0  0  0  0  0  0  0  0  0
    5.7623    4.3712   28.5021 H   0  0  0  0  0  0  0  0  0  0  0  0
  1  2  1  0
  2  3  2  0
  3  4  1  0
  4  5  1  0
  5  6  1  0
  6  7  1  0
  7  8  1  0
  8  9  2  0
  9 10  1  0
 10 11  1  0
 11 12  2  0
 12 13  1  0
 13 14  1  0
 13 15  2  0
 15 16  1  0
 16 17  2  0
 17 18  1  0
 16 19  1  0
 15 20  1  0
 12 21  1  0
 10 22  2  0
 22 23  1  0
 23 24  1  0
 24 25  1  0
 25 26  2  0
 26 27  1  0
 27 28  2  0
 28 29  1  0
 29 30  2  0
 30 31  1  0
 28 32  1  0
 27 33  1  0
 26 34  1  0
 24 35  1  0
 24 36  1  0
  7 37  1  0
  7 38  1  0
  6 39  1  0
  6 40  1  0
  5 41  2  0
 41 42  1  0
  1 43  1  0
  1 44  1  0
  1 45  1  0
 41  2  1  0
 23  8  1  0
 30 25  1  0
 17 11  1  0
M  END
>  <cnnaffinity>  (1) 
-6.42348

>  <filename>  (1) 
Cc1cc(CCc2nc(-c3cccc(F)c3)nn2Cc2cccnc2)on1

$$$$
