
     RDKit          3D

 45 48  0  0  0  0  0  0  0  0999 V2000
    9.6765    2.2305   21.1743 C   0  0  0  0  0  0  0  0  0  0  0  0
    9.7585    2.2092   22.6739 C   0  0  0  0  0  0  0  0  0  0  0  0
   10.9367    2.5993   23.3281 C   0  0  0  0  0  0  0  0  0  0  0  0
   11.1656    2.4555   24.6367 N   0  0  0  0  0  0  0  0  0  0  0  0
   10.1741    1.9369   25.3712 C   0  0  0  0  0  0  0  0  0  0  0  0
    8.9266    1.6051   24.8464 C   0  0  0  0  0  0  0  0  0  0  0  0
    8.6970    1.7589   23.4760 C   0  0  0  0  0  0  0  0  0  0  0  0
    7.3857    1.2983   22.8596 C   0  0  0  0  0  0  0  0  0  0  0  0
    7.5246   -0.0871   22.3045 C   0  0  0  0  0  0  0  0  0  0  0  0
    7.9990   -1.0808   23.0342 N   0  0  0  0  0  0  0  0  0  0  0  0
    8.0939   -2.1007   22.1570 C   0  0  0  0  0  0  0  0  0  0  0  0
    8.5873   -3.4551   22.5141 C   0  0  0  0  0  0  0  0  0  0  0  0
    8.2473   -4.1908   23.7925 C   0  0  0  0  0  0  0  0  0  0  0  0
    7.6146   -4.6131   22.4948 C   0  0  0  0  0  0  0  0  0  0  0  0
    6.1569   -4.2485   22.2652 C   0  0  0  0  0  0  0  0  0  0  0  0
    5.9698   -4.1208   21.1931 H   0  0  0  0  0  0  0  0  0  0  0  0
    5.9017   -3.3020   22.7588 H   0  0  0  0  0  0  0  0  0  0  0  0
    5.4841   -5.0207   22.6453 H   0  0  0  0  0  0  0  0  0  0  0  0
    8.0720   -5.8937   21.8220 C   0  0  0  0  0  0  0  0  0  0  0  0
    9.0585   -6.2206   22.1684 H   0  0  0  0  0  0  0  0  0  0  0  0
    8.1470   -5.7612   20.7336 H   0  0  0  0  0  0  0  0  0  0  0  0
    7.3677   -6.7081   22.0309 H   0  0  0  0  0  0  0  0  0  0  0  0
    9.0324   -4.8369   24.1845 H   0  0  0  0  0  0  0  0  0  0  0  0
    7.6660   -3.6907   24.5690 H   0  0  0  0  0  0  0  0  0  0  0  0
    9.6052   -3.5809   22.1616 H   0  0  0  0  0  0  0  0  0  0  0  0
    7.7134   -1.8153   20.9220 N   0  0  0  0  0  0  0  0  0  0  0  0
    7.2770   -0.5307   21.0314 N   0  0  0  0  0  0  0  0  0  0  0  0
    6.5933    0.0564   19.9293 C   0  0  0  0  0  0  0  0  0  0  0  0
    5.3813    0.7362   20.0944 C   0  0  0  0  0  0  0  0  0  0  0  0
    4.8202    1.3605   18.9744 C   0  0  0  0  0  0  0  0  0  0  0  0
    5.4842    1.2714   17.7463 C   0  0  0  0  0  0  0  0  0  0  0  0
    6.6040    0.5482   17.5677 N   0  0  0  0  0  0  0  0  0  0  0  0
    7.1261   -0.0701   18.6336 C   0  0  0  0  0  0  0  0  0  0  0  0
    7.9971   -0.6980   18.4604 H   0  0  0  0  0  0  0  0  0  0  0  0
    5.1039    1.7937   16.8698 H   0  0  0  0  0  0  0  0  0  0  0  0
    3.8957    1.9238   19.0508 H   0  0  0  0  0  0  0  0  0  0  0  0
    4.8850    0.7460   21.0666 H   0  0  0  0  0  0  0  0  0  0  0  0
    7.0322    1.9846   22.0851 H   0  0  0  0  0  0  0  0  0  0  0  0
    6.6308    1.2555   23.6488 H   0  0  0  0  0  0  0  0  0  0  0  0
    8.1572    1.2047   25.4986 H   0  0  0  0  0  0  0  0  0  0  0  0
   10.3992    1.7807   26.4211 H   0  0  0  0  0  0  0  0  0  0  0  0
   11.7485    3.0377   22.7466 H   0  0  0  0  0  0  0  0  0  0  0  0
   10.6436    2.4818   20.7324 H   0  0  0  0  0  0  0  0  0  0  0  0
    8.9411    2.9583   20.8181 H   0  0  0  0  0  0  0  0  0  0  0  0
    9.3768    1.2509   20.7853 H   0  0  0  0  0  0  0  0  0  0  0  0
  1  2  1  0
  2  3  2  0
  3  4  1  0
  4  5  2  0
  5  6  1  0
  6  7  2  0
  7  8  1  0
  8  9  1  0
  9 10  2  0
 10 11  1  0
 11 12  1  0
 12 13  1  0
 13 14  1  0
 14 15  1  0
 15 16  1  0
 15 17  1  0
 15 18  1  0
 14 19  1  0
 19 20  1  0
 19 21  1  0
 19 22  1  0
 13 23  1  0
 13 24  1  0
 12 25  1  0
 11 26  2  0
 26 27  1  0
 27 28  1  0
 28 29  2  0
 29 30  1  0
 30 31  2  0
 31 32  1  0
 32 33  2  0
 33 34  1  0
 31 35  1  0
 30 36  1  0
 29 37  1  0
  8 38  1  0
  8 39  1  0
  6 40  1  0
  5 41  1  0
  3 42  1  0
  1 43  1  0
  1 44  1  0
  1 45  1  0
  7  2  1  0
 27  9  1  0
 33 28  1  0
 14 12  1  0
M  END
>  <cnnaffinity>  (1) 
-6.09446

>  <filename>  (1) 
Cc1cnccc1Cc1nc(C2CC2(C)C)nn1-c1cccnc1

$$$$
