
     RDKit          3D

 43 46  0  0  0  0  0  0  0  0999 V2000
    4.3658    1.8744   27.6569 C   0  0  0  0  0  0  0  0  0  0  0  0
    5.6704    2.2623   27.0013 C   0  0  0  0  0  0  0  0  0  0  0  0
    6.0819    1.6810   25.7937 C   0  0  0  0  0  0  0  0  0  0  0  0
    7.2749    2.0675   25.1471 C   0  0  0  0  0  0  0  0  0  0  0  0
    7.7092    1.4804   23.8575 C   0  0  0  0  0  0  0  0  0  0  0  0
    7.0888    0.5097   23.2030 N   0  0  0  0  0  0  0  0  0  0  0  0
    7.8563    0.3172   22.1041 N   0  0  0  0  0  0  0  0  0  0  0  0
    7.4383   -0.6276   21.0653 C   0  0  0  0  0  0  0  0  0  0  0  0
    6.7170    0.0344   19.9082 C   0  0  0  0  0  0  0  0  0  0  0  0
    5.5029    0.7011   20.1212 C   0  0  0  0  0  0  0  0  0  0  0  0
    4.8858    1.3294   19.0367 C   0  0  0  0  0  0  0  0  0  0  0  0
    5.5025    1.2704   17.7834 C   0  0  0  0  0  0  0  0  0  0  0  0
    6.6522    0.6187   17.5572 N   0  0  0  0  0  0  0  0  0  0  0  0
    7.2326    0.0175   18.6037 C   0  0  0  0  0  0  0  0  0  0  0  0
    8.1585   -0.5195   18.3831 H   0  0  0  0  0  0  0  0  0  0  0  0
    5.0464    1.7557   16.9206 H   0  0  0  0  0  0  0  0  0  0  0  0
    3.9495    1.8650   19.1454 H   0  0  0  0  0  0  0  0  0  0  0  0
    5.0561    0.7263   21.1184 H   0  0  0  0  0  0  0  0  0  0  0  0
    6.7868   -1.3545   21.5621 H   0  0  0  0  0  0  0  0  0  0  0  0
    8.3175   -1.1780   20.7100 H   0  0  0  0  0  0  0  0  0  0  0  0
    8.8777    1.1988   22.1363 C   0  0  0  0  0  0  0  0  0  0  0  0
    9.9580    1.3248   21.1339 C   0  0  0  0  0  0  0  0  0  0  0  0
   11.0592    0.4489   21.4689 N   0  0  0  0  0  0  0  0  0  0  0  0
   12.0302    0.6551   22.3790 C   0  0  0  0  0  0  0  0  0  0  0  0
   12.8810   -0.4304   22.3052 C   0  0  0  0  0  0  0  0  0  0  0  0
   12.2946   -1.2631   21.3311 C   0  0  0  0  0  0  0  0  0  0  0  0
   11.1781   -0.7244   20.8510 N   0  0  0  0  0  0  0  0  0  0  0  0
   12.6453   -2.1999   20.9097 H   0  0  0  0  0  0  0  0  0  0  0  0
   13.8175   -0.6135   22.8159 H   0  0  0  0  0  0  0  0  0  0  0  0
   12.0055    1.5517   22.9833 H   0  0  0  0  0  0  0  0  0  0  0  0
    9.6224    1.0339   20.1412 H   0  0  0  0  0  0  0  0  0  0  0  0
   10.2950    2.3684   21.1309 H   0  0  0  0  0  0  0  0  0  0  0  0
    8.8293    1.9279   23.2229 N   0  0  0  0  0  0  0  0  0  0  0  0
    8.0849    3.0473   25.7572 C   0  0  0  0  0  0  0  0  0  0  0  0
    7.7026    3.6358   26.9590 C   0  0  0  0  0  0  0  0  0  0  0  0
    6.5087    3.2442   27.5561 C   0  0  0  0  0  0  0  0  0  0  0  0
    6.1594    3.8414   28.7130 F   0  0  0  0  0  0  0  0  0  0  0  0
    8.3067    4.3922   27.4467 H   0  0  0  0  0  0  0  0  0  0  0  0
    9.0195    3.3416   25.2836 H   0  0  0  0  0  0  0  0  0  0  0  0
    5.4657    0.8955   25.3519 H   0  0  0  0  0  0  0  0  0  0  0  0
    3.9351    0.9832   27.1892 H   0  0  0  0  0  0  0  0  0  0  0  0
    3.6372    2.6870   27.5676 H   0  0  0  0  0  0  0  0  0  0  0  0
    4.4942    1.6620   28.7226 H   0  0  0  0  0  0  0  0  0  0  0  0
  1  2  1  0
  2  3  2  0
  3  4  1  0
  4  5  1  0
  5  6  2  0
  6  7  1  0
  7  8  1  0
  8  9  1  0
  9 10  2  0
 10 11  1  0
 11 12  2  0
 12 13  1  0
 13 14  2  0
 14 15  1  0
 12 16  1  0
 11 17  1  0
 10 18  1  0
  8 19  1  0
  8 20  1  0
  7 21  1  0
 21 22  1  0
 22 23  1  0
 23 24  1  0
 24 25  2  0
 25 26  1  0
 26 27  2  0
 26 28  1  0
 25 29  1  0
 24 30  1  0
 22 31  1  0
 22 32  1  0
 21 33  2  0
  4 34  2  0
 34 35  1  0
 35 36  2  0
 36 37  1  0
 35 38  1  0
 34 39  1  0
  3 40  1  0
  1 41  1  0
  1 42  1  0
  1 43  1  0
 36  2  1  0
 33  5  1  0
 14  9  1  0
 27 23  1  0
M  END
>  <cnnaffinity>  (1) 
-6.14407

>  <filename>  (1) 
Cc1cc(-c2nc(Cn3cccn3)n(Cc3cccnc3)n2)ccc1F

$$$$
