
     RDKit          3D

 52 55  0  0  0  0  0  0  0  0999 V2000
    7.4435   -5.0670   27.4870 C   0  0  0  0  0  0  0  0  0  0  0  0
    7.3172   -4.3810   26.1314 C   0  0  0  0  0  0  0  0  0  0  0  0
    8.5984   -4.5242   25.2977 C   0  0  0  0  0  0  0  0  0  0  0  0
    8.4566   -3.9517   23.8704 C   0  0  0  0  0  0  0  0  0  0  0  0
    7.4040   -2.8136   23.7697 C   0  0  0  0  0  0  0  0  0  0  0  0
    7.6503   -1.9065   22.6034 C   0  0  0  0  0  0  0  0  0  0  0  0
    6.7234   -1.5742   21.7306 N   0  0  0  0  0  0  0  0  0  0  0  0
    7.3591   -0.6661   20.9406 N   0  0  0  0  0  0  0  0  0  0  0  0
    6.6584    0.0045   19.9013 C   0  0  0  0  0  0  0  0  0  0  0  0
    5.4421    0.6457   20.1641 C   0  0  0  0  0  0  0  0  0  0  0  0
    4.8109    1.3116   19.1093 C   0  0  0  0  0  0  0  0  0  0  0  0
    5.4021    1.2954   17.8383 C   0  0  0  0  0  0  0  0  0  0  0  0
    6.5639    0.6747   17.5759 N   0  0  0  0  0  0  0  0  0  0  0  0
    7.1711    0.0541   18.5942 C   0  0  0  0  0  0  0  0  0  0  0  0
    8.1173   -0.4346   18.3738 H   0  0  0  0  0  0  0  0  0  0  0  0
    4.9137    1.7811   16.9956 H   0  0  0  0  0  0  0  0  0  0  0  0
    3.8757    1.8419   19.2647 H   0  0  0  0  0  0  0  0  0  0  0  0
    5.0103    0.6121   21.1681 H   0  0  0  0  0  0  0  0  0  0  0  0
    8.6295   -0.4846   21.4052 C   0  0  0  0  0  0  0  0  0  0  0  0
    9.5094    0.6404   20.9565 C   0  0  0  0  0  0  0  0  0  0  0  0
    9.0364    2.0073   21.5092 C   0  0  0  0  0  0  0  0  0  0  0  0
    8.9110    1.9902   23.0095 C   0  0  0  0  0  0  0  0  0  0  0  0
    7.7097    1.7638   23.6156 C   0  0  0  0  0  0  0  0  0  0  0  0
    7.6365    1.6499   24.9783 N   0  0  0  0  0  0  0  0  0  0  0  0
    8.7211    1.7414   25.8497 C   0  0  0  0  0  0  0  0  0  0  0  0
    8.5071    1.6479   27.0477 O   0  0  0  0  0  0  0  0  0  0  0  0
   10.0008    1.9536   25.1886 C   0  0  0  0  0  0  0  0  0  0  0  0
   10.0874    2.0614   23.8287 C   0  0  0  0  0  0  0  0  0  0  0  0
   11.0627    2.2053   23.3494 H   0  0  0  0  0  0  0  0  0  0  0  0
   10.8501    1.9915   25.8472 H   0  0  0  0  0  0  0  0  0  0  0  0
    6.7797    1.5148   25.4897 H   0  0  0  0  0  0  0  0  0  0  0  0
    6.7836    1.6524   23.0505 H   0  0  0  0  0  0  0  0  0  0  0  0
    9.7552    2.7754   21.2145 H   0  0  0  0  0  0  0  0  0  0  0  0
    8.0763    2.2726   21.0519 H   0  0  0  0  0  0  0  0  0  0  0  0
    9.5531    0.6820   19.8664 H   0  0  0  0  0  0  0  0  0  0  0  0
   10.5190    0.4166   21.3103 H   0  0  0  0  0  0  0  0  0  0  0  0
    8.8492   -1.2819   22.4305 N   0  0  0  0  0  0  0  0  0  0  0  0
    7.3240   -2.0055   25.0851 C   0  0  0  0  0  0  0  0  0  0  0  0
    6.9232   -2.8918   26.2840 C   0  0  0  0  0  0  0  0  0  0  0  0
    5.8396   -2.8331   26.4502 H   0  0  0  0  0  0  0  0  0  0  0  0
    7.3849   -2.4744   27.1892 H   0  0  0  0  0  0  0  0  0  0  0  0
    6.6110   -1.1793   24.9793 H   0  0  0  0  0  0  0  0  0  0  0  0
    8.3032   -1.5410   25.2669 H   0  0  0  0  0  0  0  0  0  0  0  0
    6.4210   -3.2625   23.5960 H   0  0  0  0  0  0  0  0  0  0  0  0
    8.1649   -4.7533   23.1800 H   0  0  0  0  0  0  0  0  0  0  0  0
    9.4351   -3.5895   23.5342 H   0  0  0  0  0  0  0  0  0  0  0  0
    8.8999   -5.5775   25.2464 H   0  0  0  0  0  0  0  0  0  0  0  0
    9.4135   -4.0073   25.8248 H   0  0  0  0  0  0  0  0  0  0  0  0
    6.5107   -4.8827   25.5783 H   0  0  0  0  0  0  0  0  0  0  0  0
    7.6571   -6.1347   27.3735 H   0  0  0  0  0  0  0  0  0  0  0  0
    6.5253   -4.9645   28.0738 H   0  0  0  0  0  0  0  0  0  0  0  0
    8.2617   -4.6256   28.0670 H   0  0  0  0  0  0  0  0  0  0  0  0
  1  2  1  0
  2  3  1  0
  3  4  1  0
  4  5  1  0
  5  6  1  0
  6  7  2  0
  7  8  1  0
  8  9  1  0
  9 10  2  0
 10 11  1  0
 11 12  2  0
 12 13  1  0
 13 14  2  0
 14 15  1  0
 12 16  1  0
 11 17  1  0
 10 18  1  0
  8 19  1  0
 19 20  1  0
 20 21  1  0
 21 22  1  0
 22 23  2  0
 23 24  1  0
 24 25  1  0
 25 26  2  0
 25 27  1  0
 27 28  2  0
 28 29  1  0
 27 30  1  0
 24 31  1  0
 23 32  1  0
 21 33  1  0
 21 34  1  0
 20 35  1  0
 20 36  1  0
 19 37  2  0
  5 38  1  0
 38 39  1  0
 39 40  1  0
 39 41  1  0
 38 42  1  0
 38 43  1  0
  5 44  1  0
  4 45  1  0
  4 46  1  0
  3 47  1  0
  3 48  1  0
  2 49  1  0
  1 50  1  0
  1 51  1  0
  1 52  1  0
 39  2  1  0
 37  6  1  0
 14  9  1  0
 28 22  1  0
M  END
>  <cnnaffinity>  (1) 
-6.48002

>  <filename>  (1) 
CC1CCC(c2nc(CCc3ccc(=O)[nH]c3)n(-c3cccnc3)n2)CC1

$$$$
