
     RDKit          3D

 45 48  0  0  0  0  0  0  0  0999 V2000
    4.8101    1.3886   24.7412 C   0  0  0  0  0  0  0  0  0  0  0  0
    5.9534    1.9939   25.5260 C   0  0  0  0  0  0  0  0  0  0  0  0
    5.7039    2.5848   26.7747 C   0  0  0  0  0  0  0  0  0  0  0  0
    6.6907    3.2985   27.4611 C   0  0  0  0  0  0  0  0  0  0  0  0
    7.9601    3.4434   26.9007 C   0  0  0  0  0  0  0  0  0  0  0  0
    8.2674    2.7849   25.7189 C   0  0  0  0  0  0  0  0  0  0  0  0
    7.2869    2.0395   25.0329 C   0  0  0  0  0  0  0  0  0  0  0  0
    7.7048    1.3873   23.7707 C   0  0  0  0  0  0  0  0  0  0  0  0
    7.1020    0.3808   23.1523 N   0  0  0  0  0  0  0  0  0  0  0  0
    7.8411    0.2059   22.0322 N   0  0  0  0  0  0  0  0  0  0  0  0
    7.3682   -0.7094   20.9987 C   0  0  0  0  0  0  0  0  0  0  0  0
    6.6480   -0.0160   19.8598 C   0  0  0  0  0  0  0  0  0  0  0  0
    5.4356    0.6395   20.1026 C   0  0  0  0  0  0  0  0  0  0  0  0
    4.8094    1.3072   19.0489 C   0  0  0  0  0  0  0  0  0  0  0  0
    5.4179    1.3020   17.7900 C   0  0  0  0  0  0  0  0  0  0  0  0
    6.5676    0.6615   17.5306 N   0  0  0  0  0  0  0  0  0  0  0  0
    7.1561    0.0265   18.5536 C   0  0  0  0  0  0  0  0  0  0  0  0
    8.0858   -0.4907   18.3085 H   0  0  0  0  0  0  0  0  0  0  0  0
    4.9582    1.8310   16.9543 H   0  0  0  0  0  0  0  0  0  0  0  0
    3.8776    1.8423   19.1925 H   0  0  0  0  0  0  0  0  0  0  0  0
    4.9906    0.6291   21.1023 H   0  0  0  0  0  0  0  0  0  0  0  0
    6.6820   -1.3902   21.5109 H   0  0  0  0  0  0  0  0  0  0  0  0
    8.2133   -1.3029   20.6388 H   0  0  0  0  0  0  0  0  0  0  0  0
    8.8592    1.0954   22.0304 C   0  0  0  0  0  0  0  0  0  0  0  0
    9.9558    1.2568   21.0202 C   0  0  0  0  0  0  0  0  0  0  0  0
   11.3150    0.8316   21.5425 C   0  0  0  0  0  0  0  0  0  0  0  0
   12.3359    1.6390   21.9231 C   0  0  0  0  0  0  0  0  0  0  0  0
   13.3452    0.9281   22.4346 O   0  0  0  0  0  0  0  0  0  0  0  0
   13.0005   -0.4018   22.4252 N   0  0  0  0  0  0  0  0  0  0  0  0
   11.7946   -0.4699   21.9104 C   0  0  0  0  0  0  0  0  0  0  0  0
   11.1029   -1.7902   21.8319 C   0  0  0  0  0  0  0  0  0  0  0  0
   11.8356   -2.5848   21.9895 H   0  0  0  0  0  0  0  0  0  0  0  0
   10.3344   -1.8629   22.6115 H   0  0  0  0  0  0  0  0  0  0  0  0
   10.5983   -1.9283   20.8690 H   0  0  0  0  0  0  0  0  0  0  0  0
   12.5027    2.7100   21.8982 H   0  0  0  0  0  0  0  0  0  0  0  0
    9.9809    2.3294   20.7887 H   0  0  0  0  0  0  0  0  0  0  0  0
    9.6755    0.7220   20.1087 H   0  0  0  0  0  0  0  0  0  0  0  0
    8.8031    1.8389   23.1084 N   0  0  0  0  0  0  0  0  0  0  0  0
    9.2743    2.8381   25.3012 H   0  0  0  0  0  0  0  0  0  0  0  0
    8.6983    4.0913   27.3594 H   0  0  0  0  0  0  0  0  0  0  0  0
    6.4703    3.7437   28.4249 H   0  0  0  0  0  0  0  0  0  0  0  0
    4.7108    2.4954   27.2129 H   0  0  0  0  0  0  0  0  0  0  0  0
    4.9238    0.3058   24.6315 H   0  0  0  0  0  0  0  0  0  0  0  0
    3.8437    1.6022   25.2111 H   0  0  0  0  0  0  0  0  0  0  0  0
    4.7915    1.7936   23.7223 H   0  0  0  0  0  0  0  0  0  0  0  0
  1  2  1  0
  2  3  2  0
  3  4  1  0
  4  5  2  0
  5  6  1  0
  6  7  2  0
  7  8  1  0
  8  9  2  0
  9 10  1  0
 10 11  1  0
 11 12  1  0
 12 13  2  0
 13 14  1  0
 14 15  2  0
 15 16  1  0
 16 17  2  0
 17 18  1  0
 15 19  1  0
 14 20  1  0
 13 21  1  0
 11 22  1  0
 11 23  1  0
 10 24  1  0
 24 25  1  0
 25 26  1  0
 26 27  2  0
 27 28  1  0
 28 29  1  0
 29 30  2  0
 30 31  1  0
 31 32  1  0
 31 33  1  0
 31 34  1  0
 27 35  1  0
 25 36  1  0
 25 37  1  0
 24 38  2  0
  6 39  1  0
  5 40  1  0
  4 41  1  0
  3 42  1  0
  1 43  1  0
  1 44  1  0
  1 45  1  0
  7  2  1  0
 38  8  1  0
 17 12  1  0
 30 26  1  0
M  END
>  <cnnaffinity>  (1) 
-5.87308

>  <filename>  (1) 
Cc1ccccc1-c1nc(Cc2conc2C)n(Cc2cccnc2)n1

$$$$
