
     RDKit          3D

 45 48  0  0  0  0  0  0  0  0999 V2000
    4.8652    4.4780   27.5496 C   0  0  0  0  0  0  0  0  0  0  0  0
    5.1259    3.4033   26.5483 C   0  0  0  0  0  0  0  0  0  0  0  0
    4.1869    2.5427   26.1787 N   0  0  0  0  0  0  0  0  0  0  0  0
    4.7997    1.7305   25.2973 N   0  0  0  0  0  0  0  0  0  0  0  0
    6.1052    2.0286   25.1045 C   0  0  0  0  0  0  0  0  0  0  0  0
    7.0198    1.2464   24.2304 C   0  0  0  0  0  0  0  0  0  0  0  0
    6.9962    1.5905   22.7202 C   0  0  0  0  0  0  0  0  0  0  0  0
    8.1431    0.9076   22.0468 C   0  0  0  0  0  0  0  0  0  0  0  0
    9.3995    1.2526   22.2747 N   0  0  0  0  0  0  0  0  0  0  0  0
   10.1047    0.2010   21.7954 C   0  0  0  0  0  0  0  0  0  0  0  0
   11.5471    0.0984   21.9955 C   0  0  0  0  0  0  0  0  0  0  0  0
   12.3069   -0.9465   21.4330 C   0  0  0  0  0  0  0  0  0  0  0  0
   13.6674   -0.9326   21.6811 C   0  0  0  0  0  0  0  0  0  0  0  0
   14.4636   -1.8573   21.1332 F   0  0  0  0  0  0  0  0  0  0  0  0
   14.2184    0.0674   22.4853 C   0  0  0  0  0  0  0  0  0  0  0  0
   13.4856    1.0200   23.0724 N   0  0  0  0  0  0  0  0  0  0  0  0
   12.1713    1.0356   22.8357 C   0  0  0  0  0  0  0  0  0  0  0  0
   11.6021    1.7984   23.3658 H   0  0  0  0  0  0  0  0  0  0  0  0
   15.2819    0.0959   22.6354 H   0  0  0  0  0  0  0  0  0  0  0  0
   11.8615   -1.7177   20.8081 H   0  0  0  0  0  0  0  0  0  0  0  0
    9.3670   -0.7454   21.2413 N   0  0  0  0  0  0  0  0  0  0  0  0
    8.1048   -0.2880   21.4214 N   0  0  0  0  0  0  0  0  0  0  0  0
    6.9571   -0.9763   20.8409 C   0  0  0  0  0  0  0  0  0  0  0  0
    6.3390   -0.1769   19.7129 C   0  0  0  0  0  0  0  0  0  0  0  0
    5.1132    0.4912   19.8199 C   0  0  0  0  0  0  0  0  0  0  0  0
    4.7099    1.3156   18.7661 C   0  0  0  0  0  0  0  0  0  0  0  0
    5.5386    1.4279   17.6458 C   0  0  0  0  0  0  0  0  0  0  0  0
    6.7022    0.7722   17.5097 N   0  0  0  0  0  0  0  0  0  0  0  0
    7.0850    0.0035   18.5345 C   0  0  0  0  0  0  0  0  0  0  0  0
    8.0507   -0.4937   18.4284 H   0  0  0  0  0  0  0  0  0  0  0  0
    5.2591    2.0772   16.8210 H   0  0  0  0  0  0  0  0  0  0  0  0
    3.7905    1.8886   18.8188 H   0  0  0  0  0  0  0  0  0  0  0  0
    4.4951    0.3937   20.7179 H   0  0  0  0  0  0  0  0  0  0  0  0
    6.2244   -1.1958   21.6280 H   0  0  0  0  0  0  0  0  0  0  0  0
    7.3433   -1.9376   20.4959 H   0  0  0  0  0  0  0  0  0  0  0  0
    7.1286    2.6654   22.5685 H   0  0  0  0  0  0  0  0  0  0  0  0
    6.0393    1.3223   22.2697 H   0  0  0  0  0  0  0  0  0  0  0  0
    8.0379    1.4339   24.5895 H   0  0  0  0  0  0  0  0  0  0  0  0
    6.8317    0.1715   24.3658 H   0  0  0  0  0  0  0  0  0  0  0  0
    6.3470    3.1310   25.8957 C   0  0  0  0  0  0  0  0  0  0  0  0
    7.2756    3.6734   26.0004 H   0  0  0  0  0  0  0  0  0  0  0  0
    4.2973    0.9366   24.9229 H   0  0  0  0  0  0  0  0  0  0  0  0
    4.9096    5.4622   27.0749 H   0  0  0  0  0  0  0  0  0  0  0  0
    3.8841    4.3492   28.0105 H   0  0  0  0  0  0  0  0  0  0  0  0
    5.6281    4.4583   28.3333 H   0  0  0  0  0  0  0  0  0  0  0  0
  1  2  1  0
  2  3  2  0
  3  4  1  0
  4  5  1  0
  5  6  1  0
  6  7  1  0
  7  8  1  0
  8  9  2  0
  9 10  1  0
 10 11  1  0
 11 12  2  0
 12 13  1  0
 13 14  1  0
 13 15  2  0
 15 16  1  0
 16 17  2  0
 17 18  1  0
 15 19  1  0
 12 20  1  0
 10 21  2  0
 21 22  1  0
 22 23  1  0
 23 24  1  0
 24 25  2  0
 25 26  1  0
 26 27  2  0
 27 28  1  0
 28 29  2  0
 29 30  1  0
 27 31  1  0
 26 32  1  0
 25 33  1  0
 23 34  1  0
 23 35  1  0
  7 36  1  0
  7 37  1  0
  6 38  1  0
  6 39  1  0
  5 40  2  0
 40 41  1  0
  4 42  1  0
  1 43  1  0
  1 44  1  0
  1 45  1  0
 40  2  1  0
 22  8  1  0
 29 24  1  0
 17 11  1  0
M  END
>  <cnnaffinity>  (1) 
-6.44673

>  <filename>  (1) 
Cc1cc(CCc2nc(-c3cncc(F)c3)nn2Cc2cccnc2)[nH]n1

$$$$
