
     RDKit          3D

 43 46  0  0  0  0  0  0  0  0999 V2000
    8.0912   -0.2429   27.6682 C   0  0  0  0  0  0  0  0  0  0  0  0
    7.5217    0.2985   26.3951 C   0  0  0  0  0  0  0  0  0  0  0  0
    7.9861    1.2436   25.5101 C   0  0  0  0  0  0  0  0  0  0  0  0
    7.0727    1.2426   24.4369 C   0  0  0  0  0  0  0  0  0  0  0  0
    7.2539    1.9047   23.1083 C   0  0  0  0  0  0  0  0  0  0  0  0
    8.2157    1.0501   22.3599 C   0  0  0  0  0  0  0  0  0  0  0  0
    9.5255    1.1625   22.4554 N   0  0  0  0  0  0  0  0  0  0  0  0
    9.9750   -0.0009   21.9234 C   0  0  0  0  0  0  0  0  0  0  0  0
   11.4001   -0.3774   21.8108 C   0  0  0  0  0  0  0  0  0  0  0  0
   12.4595    0.3991   22.3300 C   0  0  0  0  0  0  0  0  0  0  0  0
   13.7806   -0.0296   22.1595 C   0  0  0  0  0  0  0  0  0  0  0  0
   14.0490   -1.1792   21.4081 C   0  0  0  0  0  0  0  0  0  0  0  0
   13.0097   -1.9021   20.8370 C   0  0  0  0  0  0  0  0  0  0  0  0
   11.6934   -1.5583   21.1120 C   0  0  0  0  0  0  0  0  0  0  0  0
   10.8653   -2.1798   20.7806 H   0  0  0  0  0  0  0  0  0  0  0  0
   13.2497   -2.7184   20.1659 H   0  0  0  0  0  0  0  0  0  0  0  0
   15.0461   -1.5325   21.2292 H   0  0  0  0  0  0  0  0  0  0  0  0
   14.6001    0.5594   22.5609 H   0  0  0  0  0  0  0  0  0  0  0  0
   12.2512    1.3120   22.8837 H   0  0  0  0  0  0  0  0  0  0  0  0
    9.0069   -0.7954   21.4769 N   0  0  0  0  0  0  0  0  0  0  0  0
    7.8795   -0.1225   21.7838 N   0  0  0  0  0  0  0  0  0  0  0  0
    6.5746   -0.5912   21.3129 C   0  0  0  0  0  0  0  0  0  0  0  0
    6.1214    0.1150   20.0492 C   0  0  0  0  0  0  0  0  0  0  0  0
    4.9209    0.8227   19.9420 C   0  0  0  0  0  0  0  0  0  0  0  0
    4.6398    1.4923   18.7457 C   0  0  0  0  0  0  0  0  0  0  0  0
    5.5630    1.4165   17.6998 C   0  0  0  0  0  0  0  0  0  0  0  0
    6.7076    0.7215   17.7716 N   0  0  0  0  0  0  0  0  0  0  0  0
    6.9691    0.1006   18.9262 C   0  0  0  0  0  0  0  0  0  0  0  0
    7.9079   -0.4469   18.9819 H   0  0  0  0  0  0  0  0  0  0  0  0
    5.3829    1.9386   16.7629 H   0  0  0  0  0  0  0  0  0  0  0  0
    3.7382    2.0801   18.6184 H   0  0  0  0  0  0  0  0  0  0  0  0
    4.2124    0.8592   20.7726 H   0  0  0  0  0  0  0  0  0  0  0  0
    6.6849   -1.6709   21.1522 H   0  0  0  0  0  0  0  0  0  0  0  0
    5.8719   -0.4322   22.1348 H   0  0  0  0  0  0  0  0  0  0  0  0
    7.7041    2.8901   23.2227 H   0  0  0  0  0  0  0  0  0  0  0  0
    6.2949    1.9967   22.5944 H   0  0  0  0  0  0  0  0  0  0  0  0
    6.0975    0.3740   24.6336 N   0  0  0  0  0  0  0  0  0  0  0  0
    6.3741   -0.1648   25.8398 N   0  0  0  0  0  0  0  0  0  0  0  0
    5.7578   -0.8604   26.2264 H   0  0  0  0  0  0  0  0  0  0  0  0
    8.8963    1.8190   25.5572 H   0  0  0  0  0  0  0  0  0  0  0  0
    9.1848   -0.2197   27.6347 H   0  0  0  0  0  0  0  0  0  0  0  0
    7.7784   -1.2809   27.8204 H   0  0  0  0  0  0  0  0  0  0  0  0
    7.7699    0.3396   28.5369 H   0  0  0  0  0  0  0  0  0  0  0  0
  1  2  1  0
  2  3  2  0
  3  4  1  0
  4  5  1  0
  5  6  1  0
  6  7  2  0
  7  8  1  0
  8  9  1  0
  9 10  2  0
 10 11  1  0
 11 12  2  0
 12 13  1  0
 13 14  2  0
 14 15  1  0
 13 16  1  0
 12 17  1  0
 11 18  1  0
 10 19  1  0
  8 20  2  0
 20 21  1  0
 21 22  1  0
 22 23  1  0
 23 24  2  0
 24 25  1  0
 25 26  2  0
 26 27  1  0
 27 28  2  0
 28 29  1  0
 26 30  1  0
 25 31  1  0
 24 32  1  0
 22 33  1  0
 22 34  1  0
  5 35  1  0
  5 36  1  0
  4 37  2  0
 37 38  1  0
 38 39  1  0
  3 40  1  0
  1 41  1  0
  1 42  1  0
  1 43  1  0
 38  2  1  0
 21  6  1  0
 28 23  1  0
 14  9  1  0
M  END
>  <cnnaffinity>  (1) 
-6.35772

>  <filename>  (1) 
Cc1cc(Cc2nc(-c3ccccc3)nn2Cc2cccnc2)n[nH]1

$$$$
