
     RDKit          3D

 44 47  0  0  0  0  0  0  0  0999 V2000
    6.7881   -0.8135   27.7421 C   0  0  0  0  0  0  0  0  0  0  0  0
    6.8814   -0.0221   26.4710 C   0  0  0  0  0  0  0  0  0  0  0  0
    8.0770    0.6440   26.1479 C   0  0  0  0  0  0  0  0  0  0  0  0
    8.1709    1.3155   24.9385 C   0  0  0  0  0  0  0  0  0  0  0  0
    7.0696    1.3102   24.0629 C   0  0  0  0  0  0  0  0  0  0  0  0
    7.2504    1.8551   22.6479 C   0  0  0  0  0  0  0  0  0  0  0  0
    8.3244    1.0662   21.9480 C   0  0  0  0  0  0  0  0  0  0  0  0
    9.6079    1.3160   22.1033 N   0  0  0  0  0  0  0  0  0  0  0  0
   10.1919    0.1236   21.8153 C   0  0  0  0  0  0  0  0  0  0  0  0
   11.6180   -0.0350   22.0659 C   0  0  0  0  0  0  0  0  0  0  0  0
   12.4172   -1.0444   21.5142 C   0  0  0  0  0  0  0  0  0  0  0  0
   13.7838   -0.9083   21.7271 C   0  0  0  0  0  0  0  0  0  0  0  0
   14.6211   -1.7606   21.1342 F   0  0  0  0  0  0  0  0  0  0  0  0
   14.2919    0.1498   22.4970 C   0  0  0  0  0  0  0  0  0  0  0  0
   13.5071    1.0393   23.1093 N   0  0  0  0  0  0  0  0  0  0  0  0
   12.1975    0.9526   22.8794 C   0  0  0  0  0  0  0  0  0  0  0  0
   11.5692    1.7211   23.3109 H   0  0  0  0  0  0  0  0  0  0  0  0
   15.3532    0.3315   22.5518 H   0  0  0  0  0  0  0  0  0  0  0  0
   12.0009   -1.8370   20.8873 H   0  0  0  0  0  0  0  0  0  0  0  0
    9.3620   -0.8119   21.4005 N   0  0  0  0  0  0  0  0  0  0  0  0
    8.1578   -0.1900   21.4844 N   0  0  0  0  0  0  0  0  0  0  0  0
    6.9240   -0.8198   21.0309 C   0  0  0  0  0  0  0  0  0  0  0  0
    6.2976   -0.0713   19.8747 C   0  0  0  0  0  0  0  0  0  0  0  0
    5.0841    0.6164   19.9576 C   0  0  0  0  0  0  0  0  0  0  0  0
    4.6635    1.3738   18.8591 C   0  0  0  0  0  0  0  0  0  0  0  0
    5.4657    1.3997   17.7151 C   0  0  0  0  0  0  0  0  0  0  0  0
    6.6172    0.7180   17.6045 N   0  0  0  0  0  0  0  0  0  0  0  0
    7.0120    0.0096   18.6680 C   0  0  0  0  0  0  0  0  0  0  0  0
    7.9573   -0.5262   18.5711 H   0  0  0  0  0  0  0  0  0  0  0  0
    5.1646    1.9779   16.8424 H   0  0  0  0  0  0  0  0  0  0  0  0
    3.7489    1.9542   18.8879 H   0  0  0  0  0  0  0  0  0  0  0  0
    4.4904    0.5866   20.8741 H   0  0  0  0  0  0  0  0  0  0  0  0
    6.2384   -0.8764   21.8849 H   0  0  0  0  0  0  0  0  0  0  0  0
    7.1886   -1.8407   20.7413 H   0  0  0  0  0  0  0  0  0  0  0  0
    6.3199    1.8521   22.0759 H   0  0  0  0  0  0  0  0  0  0  0  0
    7.6013    2.8895   22.6781 H   0  0  0  0  0  0  0  0  0  0  0  0
    5.9107    0.6693   24.5078 C   0  0  0  0  0  0  0  0  0  0  0  0
    5.8061    0.0167   25.6767 N   0  0  0  0  0  0  0  0  0  0  0  0
    5.0122    0.6700   23.8917 H   0  0  0  0  0  0  0  0  0  0  0  0
    9.0975    1.8069   24.6380 H   0  0  0  0  0  0  0  0  0  0  0  0
    8.9156    0.6009   26.8350 H   0  0  0  0  0  0  0  0  0  0  0  0
    6.9527   -0.1615   28.6065 H   0  0  0  0  0  0  0  0  0  0  0  0
    5.8137   -1.2948   27.8402 H   0  0  0  0  0  0  0  0  0  0  0  0
    7.5643   -1.5865   27.7529 H   0  0  0  0  0  0  0  0  0  0  0  0
  1  2  1  0
  2  3  2  0
  3  4  1  0
  4  5  2  0
  5  6  1  0
  6  7  1  0
  7  8  2  0
  8  9  1  0
  9 10  1  0
 10 11  2  0
 11 12  1  0
 12 13  1  0
 12 14  2  0
 14 15  1  0
 15 16  2  0
 16 17  1  0
 14 18  1  0
 11 19  1  0
  9 20  2  0
 20 21  1  0
 21 22  1  0
 22 23  1  0
 23 24  2  0
 24 25  1  0
 25 26  2  0
 26 27  1  0
 27 28  2  0
 28 29  1  0
 26 30  1  0
 25 31  1  0
 24 32  1  0
 22 33  1  0
 22 34  1  0
  6 35  1  0
  6 36  1  0
  5 37  1  0
 37 38  2  0
 37 39  1  0
  4 40  1  0
  3 41  1  0
  1 42  1  0
  1 43  1  0
  1 44  1  0
 38  2  1  0
 21  7  1  0
 28 23  1  0
 16 10  1  0
M  END
>  <cnnaffinity>  (1) 
-6.73308

>  <filename>  (1) 
Cc1ccc(Cc2nc(-c3cncc(F)c3)nn2Cc2cccnc2)cn1

$$$$
