
     RDKit          3D

 42 45  0  0  0  0  0  0  0  0999 V2000
   10.8368    0.2279   24.3647 C   0  0  0  0  0  0  0  0  0  0  0  0
   11.7083   -0.3953   23.3082 C   0  0  0  0  0  0  0  0  0  0  0  0
   13.0186    0.0551   23.1496 C   0  0  0  0  0  0  0  0  0  0  0  0
   13.8341   -0.5098   22.1665 C   0  0  0  0  0  0  0  0  0  0  0  0
   13.2998   -1.5122   21.3564 C   0  0  0  0  0  0  0  0  0  0  0  0
   12.0456   -1.9645   21.4950 N   0  0  0  0  0  0  0  0  0  0  0  0
   11.2883   -1.4596   22.4708 C   0  0  0  0  0  0  0  0  0  0  0  0
    9.9831   -2.1619   22.7130 C   0  0  0  0  0  0  0  0  0  0  0  0
    8.7740   -1.4152   22.2574 C   0  0  0  0  0  0  0  0  0  0  0  0
    8.5663   -0.9096   21.0621 N   0  0  0  0  0  0  0  0  0  0  0  0
    7.2814   -0.4458   21.1294 C   0  0  0  0  0  0  0  0  0  0  0  0
    6.5953    0.1642   19.9832 C   0  0  0  0  0  0  0  0  0  0  0  0
    5.3432    0.8092   20.0543 C   0  0  0  0  0  0  0  0  0  0  0  0
    4.8282    1.3564   18.8800 C   0  0  0  0  0  0  0  0  0  0  0  0
    5.5597    1.2334   17.6921 C   0  0  0  0  0  0  0  0  0  0  0  0
    6.7367    0.5969   17.6105 N   0  0  0  0  0  0  0  0  0  0  0  0
    7.2345    0.0802   18.7389 C   0  0  0  0  0  0  0  0  0  0  0  0
    8.1895   -0.4358   18.6602 H   0  0  0  0  0  0  0  0  0  0  0  0
    5.1817    1.6587   16.7647 H   0  0  0  0  0  0  0  0  0  0  0  0
    3.8842    1.8904   18.8658 H   0  0  0  0  0  0  0  0  0  0  0  0
    4.7972    0.8817   20.9990 H   0  0  0  0  0  0  0  0  0  0  0  0
    6.7006   -0.6210   22.2993 N   0  0  0  0  0  0  0  0  0  0  0  0
    7.6432   -1.2852   23.0124 N   0  0  0  0  0  0  0  0  0  0  0  0
    7.4544   -1.6703   24.3795 C   0  0  0  0  0  0  0  0  0  0  0  0
    7.6730   -2.9916   24.7868 C   0  0  0  0  0  0  0  0  0  0  0  0
    7.7235   -3.3323   26.2407 C   0  0  0  0  0  0  0  0  0  0  0  0
    7.4959   -2.2935   27.1172 C   0  0  0  0  0  0  0  0  0  0  0  0
    7.5642   -2.5885   27.2354 F   0  0  0  0  0  0  0  0  0  0  0  0
    7.1703   -0.8777   26.6777 C   0  0  0  0  0  0  0  0  0  0  0  0
    6.9439    0.1589   27.5135 F   0  0  0  0  0  0  0  0  0  0  0  0
    7.1414   -0.6404   25.3223 C   0  0  0  0  0  0  0  0  0  0  0  0
    6.8835    0.3540   24.9570 H   0  0  0  0  0  0  0  0  0  0  0  0
    7.9623   -4.4623   26.3485 H   0  0  0  0  0  0  0  0  0  0  0  0
    7.8185   -3.7879   24.0596 H   0  0  0  0  0  0  0  0  0  0  0  0
    9.8978   -2.3864   23.7805 H   0  0  0  0  0  0  0  0  0  0  0  0
   10.0072   -3.1074   22.1699 H   0  0  0  0  0  0  0  0  0  0  0  0
   13.8858   -1.9630   20.5554 H   0  0  0  0  0  0  0  0  0  0  0  0
   14.8323   -0.1262   22.0127 H   0  0  0  0  0  0  0  0  0  0  0  0
   13.4035    0.8268   23.8144 H   0  0  0  0  0  0  0  0  0  0  0  0
   11.3204    1.1141   24.7854 H   0  0  0  0  0  0  0  0  0  0  0  0
    9.8739    0.5329   23.9472 H   0  0  0  0  0  0  0  0  0  0  0  0
   10.6370   -0.4774   25.1780 H   0  0  0  0  0  0  0  0  0  0  0  0
  1  2  1  0
  2  3  2  0
  3  4  1  0
  4  5  2  0
  5  6  1  0
  6  7  2  0
  7  8  1  0
  8  9  1  0
  9 10  2  0
 10 11  1  0
 11 12  1  0
 12 13  2  0
 13 14  1  0
 14 15  2  0
 15 16  1  0
 16 17  2  0
 17 18  1  0
 15 19  1  0
 14 20  1  0
 13 21  1  0
 11 22  2  0
 22 23  1  0
 23 24  1  0
 24 25  2  0
 25 26  1  0
 26 27  2  0
 27 28  1  0
 27 29  1  0
 29 30  1  0
 29 31  2  0
 31 32  1  0
 26 33  1  0
 25 34  1  0
  8 35  1  0
  8 36  1  0
  5 37  1  0
  4 38  1  0
  3 39  1  0
  1 40  1  0
  1 41  1  0
  1 42  1  0
  7  2  1  0
 23  9  1  0
 31 24  1  0
 17 12  1  0
M  END
>  <cnnaffinity>  (1) 
-6.98256

>  <filename>  (1) 
Cc1cccnc1Cc1nc(-c2cccnc2)nn1-c1ccc(F)c(F)c1

$$$$
