
     RDKit          3D

 50 54  0  0  0  0  0  0  0  0999 V2000
   14.4067    1.0945   22.7137 C   0  0  0  0  0  0  0  0  0  0  0  0
   13.4376    0.0709   22.2037 C   0  0  0  0  0  0  0  0  0  0  0  0
   13.8559   -1.0682   21.5087 C   0  0  0  0  0  0  0  0  0  0  0  0
   12.9400   -1.9579   20.9553 C   0  0  0  0  0  0  0  0  0  0  0  0
   11.5801   -1.7666   21.1864 C   0  0  0  0  0  0  0  0  0  0  0  0
   11.1389   -0.6061   21.8317 C   0  0  0  0  0  0  0  0  0  0  0  0
    9.7147   -0.2527   21.8598 C   0  0  0  0  0  0  0  0  0  0  0  0
    8.7403   -1.0497   21.4521 N   0  0  0  0  0  0  0  0  0  0  0  0
    7.6262   -0.3357   21.7189 N   0  0  0  0  0  0  0  0  0  0  0  0
    6.3278   -0.7579   21.2142 C   0  0  0  0  0  0  0  0  0  0  0  0
    5.9280    0.0046   19.9701 C   0  0  0  0  0  0  0  0  0  0  0  0
    4.7863    0.8074   19.9143 C   0  0  0  0  0  0  0  0  0  0  0  0
    4.5349    1.5322   18.7467 C   0  0  0  0  0  0  0  0  0  0  0  0
    5.4365    1.4312   17.6843 C   0  0  0  0  0  0  0  0  0  0  0  0
    6.5317    0.6574   17.7144 N   0  0  0  0  0  0  0  0  0  0  0  0
    6.7653   -0.0285   18.8383 C   0  0  0  0  0  0  0  0  0  0  0  0
    7.6744   -0.6326   18.8539 H   0  0  0  0  0  0  0  0  0  0  0  0
    5.2714    1.9888   16.7641 H   0  0  0  0  0  0  0  0  0  0  0  0
    3.6667    2.1732   18.6539 H   0  0  0  0  0  0  0  0  0  0  0  0
    4.1055    0.8692   20.7687 H   0  0  0  0  0  0  0  0  0  0  0  0
    5.6197   -0.5858   22.0232 H   0  0  0  0  0  0  0  0  0  0  0  0
    6.3987   -1.8376   21.0406 H   0  0  0  0  0  0  0  0  0  0  0  0
    7.9781    0.8632   22.2290 C   0  0  0  0  0  0  0  0  0  0  0  0
    7.0454    1.7769   22.9591 C   0  0  0  0  0  0  0  0  0  0  0  0
    6.9404    1.3042   24.3395 N   0  0  0  0  0  0  0  0  0  0  0  0
    7.8835    1.4477   25.3050 C   0  0  0  0  0  0  0  0  0  0  0  0
    7.5951    0.5333   26.2901 C   0  0  0  0  0  0  0  0  0  0  0  0
    6.4514   -0.1556   25.8130 C   0  0  0  0  0  0  0  0  0  0  0  0
    5.7056   -1.2866   26.4018 C   0  0  0  0  0  0  0  0  0  0  0  0
    6.3962   -2.4225   27.1316 C   0  0  0  0  0  0  0  0  0  0  0  0
    5.5626   -1.4436   27.8973 C   0  0  0  0  0  0  0  0  0  0  0  0
    4.5937   -1.7542   28.2761 H   0  0  0  0  0  0  0  0  0  0  0  0
    6.0813   -0.7199   28.5245 H   0  0  0  0  0  0  0  0  0  0  0  0
    7.4786   -2.3806   27.2482 H   0  0  0  0  0  0  0  0  0  0  0  0
    6.0112   -3.4268   26.9771 H   0  0  0  0  0  0  0  0  0  0  0  0
    4.8499   -1.5573   25.7843 H   0  0  0  0  0  0  0  0  0  0  0  0
    6.0887    0.3135   24.6215 N   0  0  0  0  0  0  0  0  0  0  0  0
    8.1428    0.3355   27.2039 H   0  0  0  0  0  0  0  0  0  0  0  0
    8.7076    2.1337   25.1395 H   0  0  0  0  0  0  0  0  0  0  0  0
    6.0432    1.7922   22.5242 H   0  0  0  0  0  0  0  0  0  0  0  0
    7.4697    2.7820   22.9728 H   0  0  0  0  0  0  0  0  0  0  0  0
    9.2862    0.9574   22.3109 N   0  0  0  0  0  0  0  0  0  0  0  0
   12.0736    0.2828   22.3722 C   0  0  0  0  0  0  0  0  0  0  0  0
   11.7211    1.1720   22.8865 H   0  0  0  0  0  0  0  0  0  0  0  0
   10.8039   -2.4440   20.8535 H   0  0  0  0  0  0  0  0  0  0  0  0
   13.3349   -2.7240   20.2928 H   0  0  0  0  0  0  0  0  0  0  0  0
   14.8975   -1.2758   21.3619 H   0  0  0  0  0  0  0  0  0  0  0  0
   14.5158    1.0129   23.7946 H   0  0  0  0  0  0  0  0  0  0  0  0
   14.0475    2.1096   22.5002 H   0  0  0  0  0  0  0  0  0  0  0  0
   15.3851    0.9574   22.2518 H   0  0  0  0  0  0  0  0  0  0  0  0
  1  2  1  0
  2  3  2  0
  3  4  1  0
  4  5  2  0
  5  6  1  0
  6  7  1  0
  7  8  2  0
  8  9  1  0
  9 10  1  0
 10 11  1  0
 11 12  2  0
 12 13  1  0
 13 14  2  0
 14 15  1  0
 15 16  2  0
 16 17  1  0
 14 18  1  0
 13 19  1  0
 12 20  1  0
 10 21  1  0
 10 22  1  0
  9 23  1  0
 23 24  1  0
 24 25  1  0
 25 26  1  0
 26 27  2  0
 27 28  1  0
 28 29  1  0
 29 30  1  0
 30 31  1  0
 31 32  1  0
 31 33  1  0
 30 34  1  0
 30 35  1  0
 29 36  1  0
 28 37  2  0
 27 38  1  0
 26 39  1  0
 24 40  1  0
 24 41  1  0
 23 42  2  0
  6 43  2  0
 43 44  1  0
  5 45  1  0
  4 46  1  0
  3 47  1  0
  1 48  1  0
  1 49  1  0
  1 50  1  0
 43  2  1  0
 42  7  1  0
 16 11  1  0
 37 25  1  0
 31 29  1  0
M  END
>  <cnnaffinity>  (1) 
-6.70995

>  <filename>  (1) 
Cc1cccc(-c2nc(Cn3ccc(C4CC4)n3)n(Cc3cccnc3)n2)c1

$$$$
