
     RDKit          3D

 47 50  0  0  0  0  0  0  0  0999 V2000
    5.7995    7.1028   23.8427 C   0  0  0  0  0  0  0  0  0  0  0  0
    6.4272    5.8591   23.2432 C   0  0  0  0  0  0  0  0  0  0  0  0
    5.7555    5.1300   22.2557 C   0  0  0  0  0  0  0  0  0  0  0  0
    6.3035    3.9793   21.6810 C   0  0  0  0  0  0  0  0  0  0  0  0
    7.5655    3.5248   22.0917 C   0  0  0  0  0  0  0  0  0  0  0  0
    8.0290    2.3848   21.4888 O   0  0  0  0  0  0  0  0  0  0  0  0
    9.3176    1.8668   21.8045 C   0  0  0  0  0  0  0  0  0  0  0  0
    9.5203    0.5864   20.9916 C   0  0  0  0  0  0  0  0  0  0  0  0
    8.5992   -0.4988   21.4181 C   0  0  0  0  0  0  0  0  0  0  0  0
    8.8271   -1.3202   22.4218 N   0  0  0  0  0  0  0  0  0  0  0  0
    7.6476   -1.9864   22.5415 C   0  0  0  0  0  0  0  0  0  0  0  0
    7.4339   -3.0618   23.5430 C   0  0  0  0  0  0  0  0  0  0  0  0
    6.9828   -4.4253   23.0848 C   0  0  0  0  0  0  0  0  0  0  0  0
    8.3814   -4.2338   23.5991 C   0  0  0  0  0  0  0  0  0  0  0  0
    9.2041   -4.2287   22.8872 H   0  0  0  0  0  0  0  0  0  0  0  0
    8.6477   -4.6485   24.5690 H   0  0  0  0  0  0  0  0  0  0  0  0
    6.2650   -4.9713   23.6932 H   0  0  0  0  0  0  0  0  0  0  0  0
    6.8346   -4.5470   22.0135 H   0  0  0  0  0  0  0  0  0  0  0  0
    7.0448   -2.6873   24.4870 H   0  0  0  0  0  0  0  0  0  0  0  0
    6.7105   -1.6186   21.6868 N   0  0  0  0  0  0  0  0  0  0  0  0
    7.3406   -0.6822   20.9322 N   0  0  0  0  0  0  0  0  0  0  0  0
    6.6543    0.0046   19.8982 C   0  0  0  0  0  0  0  0  0  0  0  0
    5.4375    0.6400   20.1636 C   0  0  0  0  0  0  0  0  0  0  0  0
    4.8094    1.3062   19.1080 C   0  0  0  0  0  0  0  0  0  0  0  0
    5.3984    1.2941   17.8381 C   0  0  0  0  0  0  0  0  0  0  0  0
    6.5565    0.6700   17.5743 N   0  0  0  0  0  0  0  0  0  0  0  0
    7.1673    0.0523   18.5922 C   0  0  0  0  0  0  0  0  0  0  0  0
    8.1134   -0.4329   18.3629 H   0  0  0  0  0  0  0  0  0  0  0  0
    4.9200    1.7863   16.9960 H   0  0  0  0  0  0  0  0  0  0  0  0
    3.8793    1.8420   19.2570 H   0  0  0  0  0  0  0  0  0  0  0  0
    5.0209    0.6124   21.1746 H   0  0  0  0  0  0  0  0  0  0  0  0
    9.4047    0.8015   19.9306 H   0  0  0  0  0  0  0  0  0  0  0  0
   10.5377    0.2222   21.1421 H   0  0  0  0  0  0  0  0  0  0  0  0
    9.3790    1.6212   22.8739 H   0  0  0  0  0  0  0  0  0  0  0  0
   10.1036    2.5968   21.5638 H   0  0  0  0  0  0  0  0  0  0  0  0
    8.2543    4.2496   23.0764 C   0  0  0  0  0  0  0  0  0  0  0  0
    7.7017    5.4065   23.6514 C   0  0  0  0  0  0  0  0  0  0  0  0
    8.4722    6.1572   24.7128 C   0  0  0  0  0  0  0  0  0  0  0  0
    9.4702    5.7397   24.8574 H   0  0  0  0  0  0  0  0  0  0  0  0
    7.9631    6.1284   25.6836 H   0  0  0  0  0  0  0  0  0  0  0  0
    8.5921    7.2179   24.4633 H   0  0  0  0  0  0  0  0  0  0  0  0
    9.2359    3.9220   23.4039 H   0  0  0  0  0  0  0  0  0  0  0  0
    5.7702    3.4387   20.9080 H   0  0  0  0  0  0  0  0  0  0  0  0
    4.7791    5.4858   21.9295 H   0  0  0  0  0  0  0  0  0  0  0  0
    4.7800    7.2642   23.4809 H   0  0  0  0  0  0  0  0  0  0  0  0
    6.3707    8.0086   23.6030 H   0  0  0  0  0  0  0  0  0  0  0  0
    5.7502    7.0544   24.9373 H   0  0  0  0  0  0  0  0  0  0  0  0
  1  2  1  0
  2  3  2  0
  3  4  1  0
  4  5  2  0
  5  6  1  0
  6  7  1  0
  7  8  1  0
  8  9  1  0
  9 10  2  0
 10 11  1  0
 11 12  1  0
 12 13  1  0
 13 14  1  0
 14 15  1  0
 14 16  1  0
 13 17  1  0
 13 18  1  0
 12 19  1  0
 11 20  2  0
 20 21  1  0
 21 22  1  0
 22 23  2  0
 23 24  1  0
 24 25  2  0
 25 26  1  0
 26 27  2  0
 27 28  1  0
 25 29  1  0
 24 30  1  0
 23 31  1  0
  8 32  1  0
  8 33  1  0
  7 34  1  0
  7 35  1  0
  5 36  1  0
 36 37  2  0
 37 38  1  0
 38 39  1  0
 38 40  1  0
 38 41  1  0
 36 42  1  0
  4 43  1  0
  3 44  1  0
  1 45  1  0
  1 46  1  0
  1 47  1  0
 37  2  1  0
 21  9  1  0
 27 22  1  0
 14 12  1  0
M  END
>  <cnnaffinity>  (1) 
-5.84445

>  <filename>  (1) 
Cc1ccc(OCCc2nc(C3CC3)nn2-c2cccnc2)cc1C

$$$$
