
     RDKit          3D

 50 53  0  0  0  0  0  0  0  0999 V2000
    5.3066   -1.7763   27.1008 C   0  0  0  0  0  0  0  0  0  0  0  0
    6.4750   -1.1566   26.3636 C   0  0  0  0  0  0  0  0  0  0  0  0
    7.8082   -1.5173   26.6426 C   0  0  0  0  0  0  0  0  0  0  0  0
    8.8796   -0.9730   26.0492 N   0  0  0  0  0  0  0  0  0  0  0  0
    8.6673   -0.0377   25.1170 C   0  0  0  0  0  0  0  0  0  0  0  0
    7.3838    0.3662   24.7211 C   0  0  0  0  0  0  0  0  0  0  0  0
    7.1732    1.3403   23.7058 N   0  0  0  0  0  0  0  0  0  0  0  0
    6.4169    2.4276   23.9909 N   0  0  0  0  0  0  0  0  0  0  0  0
    6.5452    3.1782   22.9128 C   0  0  0  0  0  0  0  0  0  0  0  0
    5.8387    4.4614   22.7475 C   0  0  0  0  0  0  0  0  0  0  0  0
    5.0406    5.0370   23.7656 C   0  0  0  0  0  0  0  0  0  0  0  0
    4.3511    6.2239   23.5360 C   0  0  0  0  0  0  0  0  0  0  0  0
    4.4273    6.8542   22.2823 C   0  0  0  0  0  0  0  0  0  0  0  0
    3.7124    7.9775   22.0015 N   0  0  0  0  0  0  0  0  0  0  0  0
    3.7751    8.3671   21.0802 H   0  0  0  0  0  0  0  0  0  0  0  0
    3.1641    8.4513   22.6872 H   0  0  0  0  0  0  0  0  0  0  0  0
    5.2413    6.3078   21.2835 C   0  0  0  0  0  0  0  0  0  0  0  0
    5.9231    5.1270   21.5137 C   0  0  0  0  0  0  0  0  0  0  0  0
    6.4979    4.7008   20.7026 H   0  0  0  0  0  0  0  0  0  0  0  0
    5.3089    6.8027   20.3196 H   0  0  0  0  0  0  0  0  0  0  0  0
    3.7122    6.6764   24.2873 H   0  0  0  0  0  0  0  0  0  0  0  0
    4.9283    4.5388   24.7262 H   0  0  0  0  0  0  0  0  0  0  0  0
    7.3394    2.6288   21.9462 N   0  0  0  0  0  0  0  0  0  0  0  0
    7.6655    1.4498   22.4333 C   0  0  0  0  0  0  0  0  0  0  0  0
    8.3838    0.3509   21.6981 C   0  0  0  0  0  0  0  0  0  0  0  0
    7.4921   -0.6960   20.9432 C   0  0  0  0  0  0  0  0  0  0  0  0
    6.6491   -1.5060   21.9370 C   0  0  0  0  0  0  0  0  0  0  0  0
    7.2703   -2.1113   22.6082 H   0  0  0  0  0  0  0  0  0  0  0  0
    5.9467   -2.1826   21.4375 H   0  0  0  0  0  0  0  0  0  0  0  0
    6.0704   -0.8229   22.5601 H   0  0  0  0  0  0  0  0  0  0  0  0
    6.6609   -0.0516   19.8365 C   0  0  0  0  0  0  0  0  0  0  0  0
    5.4247    0.5702   20.0749 C   0  0  0  0  0  0  0  0  0  0  0  0
    4.7936    1.2679   19.0448 C   0  0  0  0  0  0  0  0  0  0  0  0
    5.4010    1.2983   17.7887 C   0  0  0  0  0  0  0  0  0  0  0  0
    6.5531    0.6695   17.5096 N   0  0  0  0  0  0  0  0  0  0  0  0
    7.1572    0.0260   18.5185 C   0  0  0  0  0  0  0  0  0  0  0  0
    8.1027   -0.4536   18.2538 H   0  0  0  0  0  0  0  0  0  0  0  0
    4.9426    1.8574   16.9765 H   0  0  0  0  0  0  0  0  0  0  0  0
    3.8695    1.8102   19.2178 H   0  0  0  0  0  0  0  0  0  0  0  0
    4.9887    0.5694   21.0754 H   0  0  0  0  0  0  0  0  0  0  0  0
    8.1947   -1.3841   20.4526 H   0  0  0  0  0  0  0  0  0  0  0  0
    9.0548    0.8291   20.9812 H   0  0  0  0  0  0  0  0  0  0  0  0
    9.0215   -0.1972   22.3979 H   0  0  0  0  0  0  0  0  0  0  0  0
    6.2811   -0.1872   25.3717 C   0  0  0  0  0  0  0  0  0  0  0  0
    5.2868    0.1480   25.0820 H   0  0  0  0  0  0  0  0  0  0  0  0
    9.5438    0.4117   24.6580 H   0  0  0  0  0  0  0  0  0  0  0  0
    8.0084   -2.2932   27.3759 H   0  0  0  0  0  0  0  0  0  0  0  0
    5.0357   -1.1989   27.9936 H   0  0  0  0  0  0  0  0  0  0  0  0
    4.4098   -1.8391   26.4729 H   0  0  0  0  0  0  0  0  0  0  0  0
    5.5428   -2.7924   27.4298 H   0  0  0  0  0  0  0  0  0  0  0  0
  1  2  1  0
  2  3  2  0
  3  4  1  0
  4  5  2  0
  5  6  1  0
  6  7  1  0
  7  8  1  0
  8  9  2  0
  9 10  1  0
 10 11  2  0
 11 12  1  0
 12 13  2  0
 13 14  1  0
 14 15  1  0
 14 16  1  0
 13 17  1  0
 17 18  2  0
 18 19  1  0
 17 20  1  0
 12 21  1  0
 11 22  1  0
  9 23  1  0
 23 24  2  0
 24 25  1  0
 25 26  1  0
 26 27  1  0
 27 28  1  0
 27 29  1  0
 27 30  1  0
 26 31  1  0
 31 32  2  0
 32 33  1  0
 33 34  2  0
 34 35  1  0
 35 36  2  0
 36 37  1  0
 34 38  1  0
 33 39  1  0
 32 40  1  0
 26 41  1  0
 25 42  1  0
 25 43  1  0
  6 44  2  0
 44 45  1  0
  5 46  1  0
  3 47  1  0
  1 48  1  0
  1 49  1  0
  1 50  1  0
 44  2  1  0
 24  7  1  0
 36 31  1  0
 18 10  1  0
M  END
>  <cnnaffinity>  (1) 
-5.98623

>  <filename>  (1) 
Cc1cncc(-n2nc(-c3ccc(N)cc3)nc2CC(C)c2cccnc2)c1

$$$$
