
     RDKit          3D

 39 42  0  0  0  0  0  0  0  0999 V2000
    8.1474    2.6837   22.0977 C   0  0  0  0  0  0  0  0  0  0  0  0
    9.5306    2.2824   22.5463 C   0  0  0  0  0  0  0  0  0  0  0  0
   10.1435    2.9695   23.5949 C   0  0  0  0  0  0  0  0  0  0  0  0
   11.4165    2.5781   24.0127 C   0  0  0  0  0  0  0  0  0  0  0  0
   12.0342    1.5143   23.3613 C   0  0  0  0  0  0  0  0  0  0  0  0
   11.4735    0.8414   22.3461 N   0  0  0  0  0  0  0  0  0  0  0  0
   10.2552    1.2157   21.9498 C   0  0  0  0  0  0  0  0  0  0  0  0
    9.6374    0.3992   20.8457 C   0  0  0  0  0  0  0  0  0  0  0  0
    8.6308   -0.5453   21.3855 C   0  0  0  0  0  0  0  0  0  0  0  0
    8.8472   -1.4045   22.3491 N   0  0  0  0  0  0  0  0  0  0  0  0
    7.6328   -2.0171   22.5127 C   0  0  0  0  0  0  0  0  0  0  0  0
    7.4096   -3.0446   23.5584 C   0  0  0  0  0  0  0  0  0  0  0  0
    6.2344   -3.6533   23.7591 N   0  0  0  0  0  0  0  0  0  0  0  0
    6.4522   -4.4825   24.7749 N   0  0  0  0  0  0  0  0  0  0  0  0
    7.7208   -4.4505   25.2507 C   0  0  0  0  0  0  0  0  0  0  0  0
    8.3777   -3.5256   24.4844 C   0  0  0  0  0  0  0  0  0  0  0  0
    9.4080   -3.2207   24.5623 H   0  0  0  0  0  0  0  0  0  0  0  0
    8.0347   -5.0795   26.0779 H   0  0  0  0  0  0  0  0  0  0  0  0
    5.6732   -5.0389   25.0908 H   0  0  0  0  0  0  0  0  0  0  0  0
    6.6991   -1.5837   21.6787 N   0  0  0  0  0  0  0  0  0  0  0  0
    7.3484   -0.6728   20.9229 N   0  0  0  0  0  0  0  0  0  0  0  0
    6.6540    0.0102   19.8915 C   0  0  0  0  0  0  0  0  0  0  0  0
    5.4387    0.6466   20.1642 C   0  0  0  0  0  0  0  0  0  0  0  0
    4.8109    1.3129   19.1086 C   0  0  0  0  0  0  0  0  0  0  0  0
    5.3989    1.2970   17.8369 C   0  0  0  0  0  0  0  0  0  0  0  0
    6.5562    0.6733   17.5699 N   0  0  0  0  0  0  0  0  0  0  0  0
    7.1648    0.0500   18.5839 C   0  0  0  0  0  0  0  0  0  0  0  0
    8.1136   -0.4344   18.3655 H   0  0  0  0  0  0  0  0  0  0  0  0
    4.9172    1.7853   16.9943 H   0  0  0  0  0  0  0  0  0  0  0  0
    3.8789    1.8410   19.2611 H   0  0  0  0  0  0  0  0  0  0  0  0
    5.0188    0.6054   21.1742 H   0  0  0  0  0  0  0  0  0  0  0  0
   10.4019   -0.2298   20.3991 H   0  0  0  0  0  0  0  0  0  0  0  0
    9.1836    1.0437   20.0921 H   0  0  0  0  0  0  0  0  0  0  0  0
   13.0224    1.1811   23.6688 H   0  0  0  0  0  0  0  0  0  0  0  0
   11.9157    3.0894   24.8203 H   0  0  0  0  0  0  0  0  0  0  0  0
    9.6199    3.7994   24.0751 H   0  0  0  0  0  0  0  0  0  0  0  0
    7.7950    3.5651   22.6382 H   0  0  0  0  0  0  0  0  0  0  0  0
    7.4168    1.8822   22.2509 H   0  0  0  0  0  0  0  0  0  0  0  0
    8.1253    2.9203   21.0337 H   0  0  0  0  0  0  0  0  0  0  0  0
  1  2  1  0
  2  3  2  0
  3  4  1  0
  4  5  2  0
  5  6  1  0
  6  7  2  0
  7  8  1  0
  8  9  1  0
  9 10  2  0
 10 11  1  0
 11 12  1  0
 12 13  2  0
 13 14  1  0
 14 15  1  0
 15 16  2  0
 16 17  1  0
 15 18  1  0
 14 19  1  0
 11 20  2  0
 20 21  1  0
 21 22  1  0
 22 23  2  0
 23 24  1  0
 24 25  2  0
 25 26  1  0
 26 27  2  0
 27 28  1  0
 25 29  1  0
 24 30  1  0
 23 31  1  0
  8 32  1  0
  8 33  1  0
  5 34  1  0
  4 35  1  0
  3 36  1  0
  1 37  1  0
  1 38  1  0
  1 39  1  0
  7  2  1  0
 21  9  1  0
 27 22  1  0
 16 12  1  0
M  END
>  <cnnaffinity>  (1) 
-5.77342

>  <filename>  (1) 
Cc1cccnc1Cc1nc(-c2cc[nH]n2)nn1-c1cccnc1

$$$$
