
     RDKit          3D

 46 49  0  0  0  0  0  0  0  0999 V2000
   14.5982    0.8797   22.7569 C   0  0  0  0  0  0  0  0  0  0  0  0
   13.5877   -0.0587   22.1749 C   0  0  0  0  0  0  0  0  0  0  0  0
   13.9495   -1.1729   21.4024 C   0  0  0  0  0  0  0  0  0  0  0  0
   12.9828   -1.9953   20.8323 C   0  0  0  0  0  0  0  0  0  0  0  0
   11.6400   -1.7721   21.1106 C   0  0  0  0  0  0  0  0  0  0  0  0
   11.2537   -0.6297   21.8216 C   0  0  0  0  0  0  0  0  0  0  0  0
    9.8309   -0.2670   21.9006 C   0  0  0  0  0  0  0  0  0  0  0  0
    8.8521   -1.0632   21.5013 N   0  0  0  0  0  0  0  0  0  0  0  0
    7.7453   -0.3080   21.6661 N   0  0  0  0  0  0  0  0  0  0  0  0
    6.4631   -0.7594   21.1367 C   0  0  0  0  0  0  0  0  0  0  0  0
    6.0025    0.0335   19.9334 C   0  0  0  0  0  0  0  0  0  0  0  0
    4.8687    0.8527   19.9717 C   0  0  0  0  0  0  0  0  0  0  0  0
    4.5439    1.6026   18.8392 C   0  0  0  0  0  0  0  0  0  0  0  0
    5.3600    1.4960   17.7096 C   0  0  0  0  0  0  0  0  0  0  0  0
    6.4464    0.7107   17.6480 N   0  0  0  0  0  0  0  0  0  0  0  0
    6.7509    0.0068   18.7441 C   0  0  0  0  0  0  0  0  0  0  0  0
    7.6359   -0.6262   18.6768 H   0  0  0  0  0  0  0  0  0  0  0  0
    5.1356    2.0660   16.8120 H   0  0  0  0  0  0  0  0  0  0  0  0
    3.6882    2.2687   18.8263 H   0  0  0  0  0  0  0  0  0  0  0  0
    4.2539    0.9062   20.8747 H   0  0  0  0  0  0  0  0  0  0  0  0
    5.7356   -0.6771   21.9442 H   0  0  0  0  0  0  0  0  0  0  0  0
    6.6033   -1.8202   20.9043 H   0  0  0  0  0  0  0  0  0  0  0  0
    8.1078    0.8994   22.1458 C   0  0  0  0  0  0  0  0  0  0  0  0
    7.1851    1.9120   22.7374 C   0  0  0  0  0  0  0  0  0  0  0  0
    6.7988    1.4395   24.0617 N   0  0  0  0  0  0  0  0  0  0  0  0
    7.6441    1.2293   25.1085 C   0  0  0  0  0  0  0  0  0  0  0  0
    7.0410    0.3271   25.9534 C   0  0  0  0  0  0  0  0  0  0  0  0
    7.6262   -0.2784   27.1966 C   0  0  0  0  0  0  0  0  0  0  0  0
    7.0872   -1.1826   27.4957 H   0  0  0  0  0  0  0  0  0  0  0  0
    7.5951    0.4169   28.0427 H   0  0  0  0  0  0  0  0  0  0  0  0
    8.6745   -0.5632   27.0459 H   0  0  0  0  0  0  0  0  0  0  0  0
    5.8092    0.0503   25.3161 C   0  0  0  0  0  0  0  0  0  0  0  0
    5.6956    0.6946   24.1602 N   0  0  0  0  0  0  0  0  0  0  0  0
    5.0226   -0.6262   25.6301 H   0  0  0  0  0  0  0  0  0  0  0  0
    8.6335    1.6772   25.1154 H   0  0  0  0  0  0  0  0  0  0  0  0
    6.2794    2.0308   22.1427 H   0  0  0  0  0  0  0  0  0  0  0  0
    7.7150    2.8622   22.8286 H   0  0  0  0  0  0  0  0  0  0  0  0
    9.4107    0.9575   22.3080 N   0  0  0  0  0  0  0  0  0  0  0  0
   12.2330    0.2101   22.3613 C   0  0  0  0  0  0  0  0  0  0  0  0
   11.9456    1.0931   22.9260 H   0  0  0  0  0  0  0  0  0  0  0  0
   10.8407   -2.4148   20.7558 H   0  0  0  0  0  0  0  0  0  0  0  0
   13.2965   -2.7758   20.1422 H   0  0  0  0  0  0  0  0  0  0  0  0
   14.9796   -1.4399   21.2585 H   0  0  0  0  0  0  0  0  0  0  0  0
   15.5137    0.8707   22.1611 H   0  0  0  0  0  0  0  0  0  0  0  0
   14.7985    0.6119   23.8005 H   0  0  0  0  0  0  0  0  0  0  0  0
   14.2321    1.9095   22.7431 H   0  0  0  0  0  0  0  0  0  0  0  0
  1  2  1  0
  2  3  2  0
  3  4  1  0
  4  5  2  0
  5  6  1  0
  6  7  1  0
  7  8  2  0
  8  9  1  0
  9 10  1  0
 10 11  1  0
 11 12  2  0
 12 13  1  0
 13 14  2  0
 14 15  1  0
 15 16  2  0
 16 17  1  0
 14 18  1  0
 13 19  1  0
 12 20  1  0
 10 21  1  0
 10 22  1  0
  9 23  1  0
 23 24  1  0
 24 25  1  0
 25 26  1  0
 26 27  2  0
 27 28  1  0
 28 29  1  0
 28 30  1  0
 28 31  1  0
 27 32  1  0
 32 33  2  0
 32 34  1  0
 26 35  1  0
 24 36  1  0
 24 37  1  0
 23 38  2  0
  6 39  2  0
 39 40  1  0
  5 41  1  0
  4 42  1  0
  3 43  1  0
  1 44  1  0
  1 45  1  0
  1 46  1  0
 39  2  1  0
 38  7  1  0
 16 11  1  0
 33 25  1  0
M  END
>  <cnnaffinity>  (1) 
-6.31222

>  <filename>  (1) 
Cc1cccc(-c2nc(Cn3cc(C)cn3)n(Cc3cccnc3)n2)c1

$$$$
