
     RDKit          3D

 42 45  0  0  0  0  0  0  0  0999 V2000
    8.2672   -0.5229   27.3502 C   0  0  0  0  0  0  0  0  0  0  0  0
    7.7092    0.0762   26.1025 C   0  0  0  0  0  0  0  0  0  0  0  0
    8.1767    1.0703   25.2771 C   0  0  0  0  0  0  0  0  0  0  0  0
    7.2697    1.1308   24.2010 C   0  0  0  0  0  0  0  0  0  0  0  0
    7.4370    1.9003   22.9273 C   0  0  0  0  0  0  0  0  0  0  0  0
    8.5224    1.2045   22.1680 C   0  0  0  0  0  0  0  0  0  0  0  0
    9.8030    1.4540   22.3394 N   0  0  0  0  0  0  0  0  0  0  0  0
   10.4160    0.3702   21.7897 C   0  0  0  0  0  0  0  0  0  0  0  0
   11.8965    0.1462   21.8469 C   0  0  0  0  0  0  0  0  0  0  0  0
   12.6696    1.0711   22.3092 C   0  0  0  0  0  0  0  0  0  0  0  0
   14.3537    0.1476   23.7523 C   0  0  0  0  0  0  0  0  0  0  0  0
   14.5845    0.5054   22.6695 N   0  0  0  0  0  0  0  0  0  0  0  0
   13.7471   -1.4467   21.1500 C   0  0  0  0  0  0  0  0  0  0  0  0
   14.3436   -2.7470   20.2195 Cl  0  0  0  0  0  0  0  0  0  0  0  0
   12.4772   -1.1676   21.3309 C   0  0  0  0  0  0  0  0  0  0  0  0
   11.6794   -1.9078   21.0112 H   0  0  0  0  0  0  0  0  0  0  0  0
   14.7613    1.5072   22.4126 H   0  0  0  0  0  0  0  0  0  0  0  0
   12.5181    1.8914   23.0013 H   0  0  0  0  0  0  0  0  0  0  0  0
    9.5736   -0.5044   21.2653 N   0  0  0  0  0  0  0  0  0  0  0  0
    8.3602    0.0332   21.5179 N   0  0  0  0  0  0  0  0  0  0  0  0
    7.1386   -0.6388   21.0775 C   0  0  0  0  0  0  0  0  0  0  0  0
    6.4707    0.0579   19.9141 C   0  0  0  0  0  0  0  0  0  0  0  0
    5.2351    0.7052   20.0226 C   0  0  0  0  0  0  0  0  0  0  0  0
    4.7174    1.3602   18.9019 C   0  0  0  0  0  0  0  0  0  0  0  0
    5.4511    1.3327   17.7117 C   0  0  0  0  0  0  0  0  0  0  0  0
    6.6335    0.7104   17.5850 N   0  0  0  0  0  0  0  0  0  0  0  0
    7.1224    0.1002   18.6706 C   0  0  0  0  0  0  0  0  0  0  0  0
    8.0859   -0.3944   18.5508 H   0  0  0  0  0  0  0  0  0  0  0  0
    5.0753    1.8328   16.8205 H   0  0  0  0  0  0  0  0  0  0  0  0
    3.7777    1.9006   18.9432 H   0  0  0  0  0  0  0  0  0  0  0  0
    4.6881    0.7015   20.9699 H   0  0  0  0  0  0  0  0  0  0  0  0
    7.4469   -1.6555   20.8106 H   0  0  0  0  0  0  0  0  0  0  0  0
    6.4551   -0.6997   21.9333 H   0  0  0  0  0  0  0  0  0  0  0  0
    7.7564    2.9229   23.1368 H   0  0  0  0  0  0  0  0  0  0  0  0
    6.5020    1.9174   22.3644 H   0  0  0  0  0  0  0  0  0  0  0  0
    6.3041    0.2379   24.3363 N   0  0  0  0  0  0  0  0  0  0  0  0
    6.5799   -0.3757   25.5047 N   0  0  0  0  0  0  0  0  0  0  0  0
    5.9724   -1.1115   25.8315 H   0  0  0  0  0  0  0  0  0  0  0  0
    9.1010    1.6214   25.3432 H   0  0  0  0  0  0  0  0  0  0  0  0
    8.9230    0.1922   27.8482 H   0  0  0  0  0  0  0  0  0  0  0  0
    7.4674   -0.7982   28.0411 H   0  0  0  0  0  0  0  0  0  0  0  0
    8.8620   -1.4169   27.1327 H   0  0  0  0  0  0  0  0  0  0  0  0
  1  2  1  0
  2  3  2  0
  3  4  1  0
  4  5  1  0
  5  6  1  0
  6  7  2  0
  7  8  1  0
  8  9  1  0
  9 10  2  0
 10 11  1  0
 11 12  2  0
 12 13  1  0
 13 14  1  0
 13 15  2  0
 15 16  1  0
 11 17  1  0
 10 18  1  0
  8 19  2  0
 19 20  1  0
 20 21  1  0
 21 22  1  0
 22 23  2  0
 23 24  1  0
 24 25  2  0
 25 26  1  0
 26 27  2  0
 27 28  1  0
 25 29  1  0
 24 30  1  0
 23 31  1  0
 21 32  1  0
 21 33  1  0
  5 34  1  0
  5 35  1  0
  4 36  2  0
 36 37  1  0
 37 38  1  0
  3 39  1  0
  1 40  1  0
  1 41  1  0
  1 42  1  0
 37  2  1  0
 20  6  1  0
 27 22  1  0
 15  9  1  0
M  END
>  <cnnaffinity>  (1) 
-6.64206

>  <filename>  (1) 
Cc1cc(Cc2nc(-c3ccnc(Cl)c3)nn2Cc2cccnc2)n[nH]1

$$$$
