
     RDKit          3D

 45 48  0  0  0  0  0  0  0  0999 V2000
    6.9242    1.8043   23.7689 C   0  0  0  0  0  0  0  0  0  0  0  0
    8.3810    1.7435   24.1692 C   0  0  0  0  0  0  0  0  0  0  0  0
    8.7498    1.4901   25.4934 C   0  0  0  0  0  0  0  0  0  0  0  0
   10.0989    1.3183   25.8217 C   0  0  0  0  0  0  0  0  0  0  0  0
   11.0489    1.5248   24.8307 C   0  0  0  0  0  0  0  0  0  0  0  0
   10.7301    1.7979   23.5645 N   0  0  0  0  0  0  0  0  0  0  0  0
    9.4350    1.8605   23.2251 C   0  0  0  0  0  0  0  0  0  0  0  0
    9.1924    1.9719   21.7339 C   0  0  0  0  0  0  0  0  0  0  0  0
    9.5003    0.6344   20.9913 C   0  0  0  0  0  0  0  0  0  0  0  0
    8.6107   -0.4982   21.3954 C   0  0  0  0  0  0  0  0  0  0  0  0
    8.8523   -1.3360   22.3831 N   0  0  0  0  0  0  0  0  0  0  0  0
    7.6634   -1.9794   22.5487 C   0  0  0  0  0  0  0  0  0  0  0  0
    7.3875   -2.9013   23.6908 C   0  0  0  0  0  0  0  0  0  0  0  0
    8.6187   -3.6568   24.2799 C   0  0  0  0  0  0  0  0  0  0  0  0
    8.4394   -2.9130   25.6297 C   0  0  0  0  0  0  0  0  0  0  0  0
    7.1818   -2.1878   25.0809 C   0  0  0  0  0  0  0  0  0  0  0  0
    6.2377   -2.4327   25.5804 H   0  0  0  0  0  0  0  0  0  0  0  0
    7.2506   -1.0881   25.0414 H   0  0  0  0  0  0  0  0  0  0  0  0
    9.2691   -2.2384   25.8787 H   0  0  0  0  0  0  0  0  0  0  0  0
    8.2708   -3.5545   26.5031 H   0  0  0  0  0  0  0  0  0  0  0  0
    8.4992   -4.7451   24.3225 H   0  0  0  0  0  0  0  0  0  0  0  0
    9.5597   -3.4496   23.7547 H   0  0  0  0  0  0  0  0  0  0  0  0
    6.5452   -3.5345   23.3796 H   0  0  0  0  0  0  0  0  0  0  0  0
    6.7217   -1.6247   21.6940 N   0  0  0  0  0  0  0  0  0  0  0  0
    7.3420   -0.6838   20.9304 N   0  0  0  0  0  0  0  0  0  0  0  0
    6.6454   -0.0075   19.8884 C   0  0  0  0  0  0  0  0  0  0  0  0
    5.4347    0.6386   20.1481 C   0  0  0  0  0  0  0  0  0  0  0  0
    4.8049    1.3140   19.0993 C   0  0  0  0  0  0  0  0  0  0  0  0
    5.3951    1.2977   17.8304 C   0  0  0  0  0  0  0  0  0  0  0  0
    6.5475    0.6624   17.5681 N   0  0  0  0  0  0  0  0  0  0  0  0
    7.1566    0.0344   18.5793 C   0  0  0  0  0  0  0  0  0  0  0  0
    8.1024   -0.4557   18.3458 H   0  0  0  0  0  0  0  0  0  0  0  0
    4.9287    1.8064   16.9900 H   0  0  0  0  0  0  0  0  0  0  0  0
    3.8732    1.8476   19.2543 H   0  0  0  0  0  0  0  0  0  0  0  0
    5.0053    0.5959   21.1496 H   0  0  0  0  0  0  0  0  0  0  0  0
    9.4097    0.7825   19.9154 H   0  0  0  0  0  0  0  0  0  0  0  0
   10.5323    0.3224   21.1933 H   0  0  0  0  0  0  0  0  0  0  0  0
    8.1590    2.2917   21.5348 H   0  0  0  0  0  0  0  0  0  0  0  0
    9.8664    2.7515   21.3666 H   0  0  0  0  0  0  0  0  0  0  0  0
   12.1101    1.4560   25.0501 H   0  0  0  0  0  0  0  0  0  0  0  0
   10.4509    0.9397   26.7632 H   0  0  0  0  0  0  0  0  0  0  0  0
    7.9669    1.4067   26.2456 H   0  0  0  0  0  0  0  0  0  0  0  0
    6.6702    1.0252   23.0353 H   0  0  0  0  0  0  0  0  0  0  0  0
    6.6491    2.7710   23.3279 H   0  0  0  0  0  0  0  0  0  0  0  0
    6.2938    1.6431   24.6468 H   0  0  0  0  0  0  0  0  0  0  0  0
  1  2  1  0
  2  3  2  0
  3  4  1  0
  4  5  2  0
  5  6  1  0
  6  7  2  0
  7  8  1  0
  8  9  1  0
  9 10  1  0
 10 11  2  0
 11 12  1  0
 12 13  1  0
 13 14  1  0
 14 15  1  0
 15 16  1  0
 16 17  1  0
 16 18  1  0
 15 19  1  0
 15 20  1  0
 14 21  1  0
 14 22  1  0
 13 23  1  0
 12 24  2  0
 24 25  1  0
 25 26  1  0
 26 27  2  0
 27 28  1  0
 28 29  2  0
 29 30  1  0
 30 31  2  0
 31 32  1  0
 29 33  1  0
 28 34  1  0
 27 35  1  0
  9 36  1  0
  9 37  1  0
  8 38  1  0
  8 39  1  0
  5 40  1  0
  4 41  1  0
  3 42  1  0
  1 43  1  0
  1 44  1  0
  1 45  1  0
  7  2  1  0
 25 10  1  0
 31 26  1  0
 16 13  1  0
M  END
>  <cnnaffinity>  (1) 
-6.21064

>  <filename>  (1) 
Cc1cccnc1CCc1nc(C2CCC2)nn1-c1cccnc1

$$$$
