
     RDKit          3D

 48 51  0  0  0  0  0  0  0  0999 V2000
    5.1028    5.3371   27.1557 C   0  0  0  0  0  0  0  0  0  0  0  0
    5.4075    4.2323   26.1738 C   0  0  0  0  0  0  0  0  0  0  0  0
    6.2506    3.1670   26.5219 C   0  0  0  0  0  0  0  0  0  0  0  0
    6.5333    2.1176   25.6338 C   0  0  0  0  0  0  0  0  0  0  0  0
    7.4498    0.9825   26.0561 C   0  0  0  0  0  0  0  0  0  0  0  0
    7.1576    0.0421   25.5764 H   0  0  0  0  0  0  0  0  0  0  0  0
    8.5045    1.1606   25.7971 H   0  0  0  0  0  0  0  0  0  0  0  0
    7.4159    0.8386   27.1421 H   0  0  0  0  0  0  0  0  0  0  0  0
    5.9258    2.1693   24.3611 C   0  0  0  0  0  0  0  0  0  0  0  0
    6.1180    1.1394   23.4624 O   0  0  0  0  0  0  0  0  0  0  0  0
    7.3485    1.2063   22.7414 C   0  0  0  0  0  0  0  0  0  0  0  0
    7.6132   -0.1483   22.2158 C   0  0  0  0  0  0  0  0  0  0  0  0
    8.2069   -1.0823   22.9309 N   0  0  0  0  0  0  0  0  0  0  0  0
    8.3246   -2.0992   22.0478 C   0  0  0  0  0  0  0  0  0  0  0  0
    9.0090   -3.3535   22.4079 C   0  0  0  0  0  0  0  0  0  0  0  0
    8.4340   -4.1368   23.6202 C   0  0  0  0  0  0  0  0  0  0  0  0
   10.0670   -4.1541   24.4361 S   0  0  0  0  0  0  0  0  0  0  0  0
   10.4258   -3.0912   22.9980 C   0  0  0  0  0  0  0  0  0  0  0  0
   11.2928   -3.3729   22.3968 H   0  0  0  0  0  0  0  0  0  0  0  0
   10.5614   -2.0439   23.2903 H   0  0  0  0  0  0  0  0  0  0  0  0
    8.0860   -5.1455   23.3861 H   0  0  0  0  0  0  0  0  0  0  0  0
    7.6355   -3.6340   24.1819 H   0  0  0  0  0  0  0  0  0  0  0  0
    8.9592   -3.9528   21.5042 H   0  0  0  0  0  0  0  0  0  0  0  0
    7.8376   -1.8706   20.8491 N   0  0  0  0  0  0  0  0  0  0  0  0
    7.3481   -0.6077   20.9637 N   0  0  0  0  0  0  0  0  0  0  0  0
    6.6397    0.0208   19.9106 C   0  0  0  0  0  0  0  0  0  0  0  0
    5.4394    0.6901   20.1670 C   0  0  0  0  0  0  0  0  0  0  0  0
    4.8080    1.3307   19.0977 C   0  0  0  0  0  0  0  0  0  0  0  0
    5.4110    1.2909   17.8356 C   0  0  0  0  0  0  0  0  0  0  0  0
    6.5558    0.6298   17.5837 N   0  0  0  0  0  0  0  0  0  0  0  0
    7.1477   -0.0042   18.6011 C   0  0  0  0  0  0  0  0  0  0  0  0
    8.0735   -0.5356   18.3916 H   0  0  0  0  0  0  0  0  0  0  0  0
    4.9578    1.8066   16.9923 H   0  0  0  0  0  0  0  0  0  0  0  0
    3.8761    1.8700   19.2318 H   0  0  0  0  0  0  0  0  0  0  0  0
    5.0375    0.7109   21.1831 H   0  0  0  0  0  0  0  0  0  0  0  0
    7.3036    1.9569   21.9417 H   0  0  0  0  0  0  0  0  0  0  0  0
    8.1835    1.4437   23.4120 H   0  0  0  0  0  0  0  0  0  0  0  0
    5.0814    3.2207   23.9629 C   0  0  0  0  0  0  0  0  0  0  0  0
    4.4424    3.2312   22.5904 C   0  0  0  0  0  0  0  0  0  0  0  0
    3.8210    4.1183   22.4433 H   0  0  0  0  0  0  0  0  0  0  0  0
    5.1916    3.2164   21.7865 H   0  0  0  0  0  0  0  0  0  0  0  0
    3.8077    2.3489   22.4454 H   0  0  0  0  0  0  0  0  0  0  0  0
    4.8392    4.2391   24.8917 C   0  0  0  0  0  0  0  0  0  0  0  0
    4.1841    5.0573   24.5975 H   0  0  0  0  0  0  0  0  0  0  0  0
    6.6958    3.1380   27.5160 H   0  0  0  0  0  0  0  0  0  0  0  0
    4.9022    6.2826   26.6409 H   0  0  0  0  0  0  0  0  0  0  0  0
    5.9376    5.5055   27.8439 H   0  0  0  0  0  0  0  0  0  0  0  0
    4.2195    5.1047   27.7641 H   0  0  0  0  0  0  0  0  0  0  0  0
  1  2  1  0
  2  3  2  0
  3  4  1  0
  4  5  1  0
  5  6  1  0
  5  7  1  0
  5  8  1  0
  4  9  2  0
  9 10  1  0
 10 11  1  0
 11 12  1  0
 12 13  2  0
 13 14  1  0
 14 15  1  0
 15 16  1  0
 16 17  1  0
 17 18  1  0
 18 19  1  0
 18 20  1  0
 16 21  1  0
 16 22  1  0
 15 23  1  0
 14 24  2  0
 24 25  1  0
 25 26  1  0
 26 27  2  0
 27 28  1  0
 28 29  2  0
 29 30  1  0
 30 31  2  0
 31 32  1  0
 29 33  1  0
 28 34  1  0
 27 35  1  0
 11 36  1  0
 11 37  1  0
  9 38  1  0
 38 39  1  0
 39 40  1  0
 39 41  1  0
 39 42  1  0
 38 43  2  0
 43 44  1  0
  3 45  1  0
  1 46  1  0
  1 47  1  0
  1 48  1  0
 43  2  1  0
 25 12  1  0
 31 26  1  0
 18 15  1  0
M  END
>  <cnnaffinity>  (1) 
-5.92623

>  <filename>  (1) 
Cc1cc(C)c(OCc2nc(C3CSC3)nn2-c2cccnc2)c(C)c1

$$$$
