
     RDKit          3D

 42 45  0  0  0  0  0  0  0  0999 V2000
    3.4861    5.3367   26.1122 C   0  0  0  0  0  0  0  0  0  0  0  0
    4.2011    4.2067   25.4237 C   0  0  0  0  0  0  0  0  0  0  0  0
    3.6517    2.9115   25.4065 C   0  0  0  0  0  0  0  0  0  0  0  0
    4.2797    1.8712   24.7299 C   0  0  0  0  0  0  0  0  0  0  0  0
    5.4703    2.1297   24.0417 C   0  0  0  0  0  0  0  0  0  0  0  0
    5.9480    1.0922   23.3115 O   0  0  0  0  0  0  0  0  0  0  0  0
    7.2486    1.2081   22.7526 C   0  0  0  0  0  0  0  0  0  0  0  0
    7.5816   -0.1288   22.2291 C   0  0  0  0  0  0  0  0  0  0  0  0
    8.1918   -1.0489   22.9396 N   0  0  0  0  0  0  0  0  0  0  0  0
    8.3284   -2.0600   22.0528 C   0  0  0  0  0  0  0  0  0  0  0  0
    9.0647   -3.2873   22.3900 C   0  0  0  0  0  0  0  0  0  0  0  0
   10.4605   -2.9812   22.9938 C   0  0  0  0  0  0  0  0  0  0  0  0
   10.1590   -4.0800   24.4097 S   0  0  0  0  0  0  0  0  0  0  0  0
    8.5391   -4.1398   23.5705 C   0  0  0  0  0  0  0  0  0  0  0  0
    7.7093   -3.6985   24.1304 H   0  0  0  0  0  0  0  0  0  0  0  0
    8.2399   -5.1490   23.2851 H   0  0  0  0  0  0  0  0  0  0  0  0
   10.5595   -1.9406   23.3185 H   0  0  0  0  0  0  0  0  0  0  0  0
   11.3236   -3.2435   22.3853 H   0  0  0  0  0  0  0  0  0  0  0  0
    9.0467   -3.8460   21.4597 H   0  0  0  0  0  0  0  0  0  0  0  0
    7.8487   -1.8291   20.8501 N   0  0  0  0  0  0  0  0  0  0  0  0
    7.3232   -0.5827   20.9755 N   0  0  0  0  0  0  0  0  0  0  0  0
    6.6190    0.0367   19.9167 C   0  0  0  0  0  0  0  0  0  0  0  0
    5.4101    0.6982   20.1543 C   0  0  0  0  0  0  0  0  0  0  0  0
    4.7998    1.3317   19.0690 C   0  0  0  0  0  0  0  0  0  0  0  0
    5.4171    1.2878   17.8153 C   0  0  0  0  0  0  0  0  0  0  0  0
    6.5600    0.6165   17.5839 N   0  0  0  0  0  0  0  0  0  0  0  0
    7.1364   -0.0101   18.6129 C   0  0  0  0  0  0  0  0  0  0  0  0
    8.0530   -0.5635   18.4163 H   0  0  0  0  0  0  0  0  0  0  0  0
    4.9816    1.8078   16.9632 H   0  0  0  0  0  0  0  0  0  0  0  0
    3.8672    1.8688   19.1906 H   0  0  0  0  0  0  0  0  0  0  0  0
    4.9747    0.7055   21.1520 H   0  0  0  0  0  0  0  0  0  0  0  0
    7.2682    1.9824   21.9759 H   0  0  0  0  0  0  0  0  0  0  0  0
    7.9850    1.4517   23.5284 H   0  0  0  0  0  0  0  0  0  0  0  0
    6.0706    3.3886   24.0966 C   0  0  0  0  0  0  0  0  0  0  0  0
    5.4252    4.4217   24.7784 C   0  0  0  0  0  0  0  0  0  0  0  0
    5.8901    5.4057   24.8003 H   0  0  0  0  0  0  0  0  0  0  0  0
    7.0282    3.5521   23.6137 H   0  0  0  0  0  0  0  0  0  0  0  0
    3.8938    0.8553   24.7159 H   0  0  0  0  0  0  0  0  0  0  0  0
    2.7163    2.7195   25.9312 H   0  0  0  0  0  0  0  0  0  0  0  0
    2.8908    4.9697   26.9530 H   0  0  0  0  0  0  0  0  0  0  0  0
    2.8072    5.8514   25.4226 H   0  0  0  0  0  0  0  0  0  0  0  0
    4.1940    6.0783   26.4934 H   0  0  0  0  0  0  0  0  0  0  0  0
  1  2  1  0
  2  3  2  0
  3  4  1  0
  4  5  2  0
  5  6  1  0
  6  7  1  0
  7  8  1  0
  8  9  2  0
  9 10  1  0
 10 11  1  0
 11 12  1  0
 12 13  1  0
 13 14  1  0
 14 15  1  0
 14 16  1  0
 12 17  1  0
 12 18  1  0
 11 19  1  0
 10 20  2  0
 20 21  1  0
 21 22  1  0
 22 23  2  0
 23 24  1  0
 24 25  2  0
 25 26  1  0
 26 27  2  0
 27 28  1  0
 25 29  1  0
 24 30  1  0
 23 31  1  0
  7 32  1  0
  7 33  1  0
  5 34  1  0
 34 35  2  0
 35 36  1  0
 34 37  1  0
  4 38  1  0
  3 39  1  0
  1 40  1  0
  1 41  1  0
  1 42  1  0
 35  2  1  0
 21  8  1  0
 27 22  1  0
 14 11  1  0
M  END
>  <cnnaffinity>  (1) 
-5.6665

>  <filename>  (1) 
Cc1ccc(OCc2nc(C3CSC3)nn2-c2cccnc2)cc1

$$$$
