
     RDKit          3D

 48 50  0  0  0  0  0  0  0  0999 V2000
   10.8383    1.2920   23.7197 C   0  0  0  0  0  0  0  0  0  0  0  0
    9.8149    2.1710   23.0579 C   0  0  0  0  0  0  0  0  0  0  0  0
    9.4263    3.3682   23.6706 C   0  0  0  0  0  0  0  0  0  0  0  0
    8.4064    4.1307   23.0982 C   0  0  0  0  0  0  0  0  0  0  0  0
    7.7690    3.7784   21.9799 N   0  0  0  0  0  0  0  0  0  0  0  0
    8.1770    2.6572   21.3722 C   0  0  0  0  0  0  0  0  0  0  0  0
    9.2095    1.8332   21.8327 C   0  0  0  0  0  0  0  0  0  0  0  0
    9.5647    0.5623   21.0679 C   0  0  0  0  0  0  0  0  0  0  0  0
    8.6487   -0.5662   21.4290 C   0  0  0  0  0  0  0  0  0  0  0  0
    8.8573   -1.4184   22.4136 N   0  0  0  0  0  0  0  0  0  0  0  0
    7.6245   -1.9416   22.6427 C   0  0  0  0  0  0  0  0  0  0  0  0
    7.3911   -2.9339   23.7287 C   0  0  0  0  0  0  0  0  0  0  0  0
    7.0585   -2.3825   25.1490 C   0  0  0  0  0  0  0  0  0  0  0  0
    6.8828   -3.6037   26.0707 C   0  0  0  0  0  0  0  0  0  0  0  0
    6.0840   -4.2550   25.6941 H   0  0  0  0  0  0  0  0  0  0  0  0
    7.8040   -4.1961   26.1217 H   0  0  0  0  0  0  0  0  0  0  0  0
    6.6105   -3.3088   27.0929 H   0  0  0  0  0  0  0  0  0  0  0  0
    8.1989   -1.4849   25.6620 C   0  0  0  0  0  0  0  0  0  0  0  0
    8.3440   -0.6163   25.0102 H   0  0  0  0  0  0  0  0  0  0  0  0
    8.0010   -1.1066   26.6728 H   0  0  0  0  0  0  0  0  0  0  0  0
    9.1419   -2.0436   25.6886 H   0  0  0  0  0  0  0  0  0  0  0  0
    5.7065   -1.6342   25.1468 C   0  0  0  0  0  0  0  0  0  0  0  0
    5.7210   -0.3663   24.5335 O   0  0  0  0  0  0  0  0  0  0  0  0
    5.6526   -0.5470   23.5774 H   0  0  0  0  0  0  0  0  0  0  0  0
    5.3763   -1.4783   26.1782 H   0  0  0  0  0  0  0  0  0  0  0  0
    4.9615   -2.3002   24.6706 H   0  0  0  0  0  0  0  0  0  0  0  0
    8.2987   -3.5365   23.7961 H   0  0  0  0  0  0  0  0  0  0  0  0
    6.5779   -3.5843   23.3982 H   0  0  0  0  0  0  0  0  0  0  0  0
    6.6766   -1.4980   21.8360 N   0  0  0  0  0  0  0  0  0  0  0  0
    7.3583   -0.6665   20.9903 N   0  0  0  0  0  0  0  0  0  0  0  0
    6.6747   -0.0558   19.9020 C   0  0  0  0  0  0  0  0  0  0  0  0
    5.4460    0.5746   20.1292 C   0  0  0  0  0  0  0  0  0  0  0  0
    4.8423    1.2665   19.0787 C   0  0  0  0  0  0  0  0  0  0  0  0
    5.4622    1.2580   17.8213 C   0  0  0  0  0  0  0  0  0  0  0  0
    6.5999    0.5867   17.5734 N   0  0  0  0  0  0  0  0  0  0  0  0
    7.1873   -0.0574   18.5896 C   0  0  0  0  0  0  0  0  0  0  0  0
    8.1013   -0.6021   18.3447 H   0  0  0  0  0  0  0  0  0  0  0  0
    5.0244    1.7950   16.9818 H   0  0  0  0  0  0  0  0  0  0  0  0
    3.9173    1.8193   19.2258 H   0  0  0  0  0  0  0  0  0  0  0  0
    4.9928    0.5400   21.1209 H   0  0  0  0  0  0  0  0  0  0  0  0
    9.5050    0.7363   19.9934 H   0  0  0  0  0  0  0  0  0  0  0  0
   10.5859    0.2361   21.2881 H   0  0  0  0  0  0  0  0  0  0  0  0
    7.6421    2.3759   20.4642 H   0  0  0  0  0  0  0  0  0  0  0  0
    8.0688    5.0528   23.5670 H   0  0  0  0  0  0  0  0  0  0  0  0
    9.9076    3.7002   24.5862 H   0  0  0  0  0  0  0  0  0  0  0  0
   11.7680    1.2584   23.1434 H   0  0  0  0  0  0  0  0  0  0  0  0
   10.4697    0.2648   23.8152 H   0  0  0  0  0  0  0  0  0  0  0  0
   11.0706    1.6627   24.7200 H   0  0  0  0  0  0  0  0  0  0  0  0
  1  2  1  0
  2  3  2  0
  3  4  1  0
  4  5  2  0
  5  6  1  0
  6  7  2  0
  7  8  1  0
  8  9  1  0
  9 10  2  0
 10 11  1  0
 11 12  1  0
 12 13  1  0
 13 14  1  0
 14 15  1  0
 14 16  1  0
 14 17  1  0
 13 18  1  0
 18 19  1  0
 18 20  1  0
 18 21  1  0
 13 22  1  0
 22 23  1  0
 23 24  1  0
 22 25  1  0
 22 26  1  0
 12 27  1  0
 12 28  1  0
 11 29  2  0
 29 30  1  0
 30 31  1  0
 31 32  2  0
 32 33  1  0
 33 34  2  0
 34 35  1  0
 35 36  2  0
 36 37  1  0
 34 38  1  0
 33 39  1  0
 32 40  1  0
  8 41  1  0
  8 42  1  0
  6 43  1  0
  4 44  1  0
  3 45  1  0
  1 46  1  0
  1 47  1  0
  1 48  1  0
  7  2  1  0
 30  9  1  0
 36 31  1  0
M  END
>  <cnnaffinity>  (1) 
-6.01354

>  <filename>  (1) 
Cc1ccncc1Cc1nc(CC(C)(C)CO)nn1-c1cccnc1

$$$$
