
     RDKit          3D

 42 45  0  0  0  0  0  0  0  0999 V2000
    8.5102   -0.2665   27.0619 C   0  0  0  0  0  0  0  0  0  0  0  0
    7.5800    0.1947   25.9932 C   0  0  0  0  0  0  0  0  0  0  0  0
    6.2675   -0.0189   25.7134 C   0  0  0  0  0  0  0  0  0  0  0  0
    6.0031    0.6621   24.4760 C   0  0  0  0  0  0  0  0  0  0  0  0
    7.1765    1.2296   24.0903 C   0  0  0  0  0  0  0  0  0  0  0  0
    7.6731    1.9097   22.8577 C   0  0  0  0  0  0  0  0  0  0  0  0
    8.6579    1.0116   22.1932 C   0  0  0  0  0  0  0  0  0  0  0  0
    9.9634    1.0654   22.3321 N   0  0  0  0  0  0  0  0  0  0  0  0
   10.3819   -0.1072   21.7703 C   0  0  0  0  0  0  0  0  0  0  0  0
   11.8062   -0.5576   21.6696 C   0  0  0  0  0  0  0  0  0  0  0  0
   12.8832    0.1898   22.2021 C   0  0  0  0  0  0  0  0  0  0  0  0
   14.1800   -0.1636   21.8259 C   0  0  0  0  0  0  0  0  0  0  0  0
   14.3464   -1.2446   20.9509 C   0  0  0  0  0  0  0  0  0  0  0  0
   13.2410   -2.0061   20.5988 C   0  0  0  0  0  0  0  0  0  0  0  0
   12.0095   -1.6915   20.9775 N   0  0  0  0  0  0  0  0  0  0  0  0
   13.3394   -2.8642   19.9321 H   0  0  0  0  0  0  0  0  0  0  0  0
   15.2679   -1.4950   20.4613 H   0  0  0  0  0  0  0  0  0  0  0  0
   15.0218    0.4441   22.1510 H   0  0  0  0  0  0  0  0  0  0  0  0
   12.7071    1.0732   22.8071 H   0  0  0  0  0  0  0  0  0  0  0  0
    9.3926   -0.8475   21.2923 N   0  0  0  0  0  0  0  0  0  0  0  0
    8.2970   -0.1262   21.5567 N   0  0  0  0  0  0  0  0  0  0  0  0
    7.0040   -0.6472   21.1245 C   0  0  0  0  0  0  0  0  0  0  0  0
    6.3866    0.0918   19.9574 C   0  0  0  0  0  0  0  0  0  0  0  0
    5.1635    0.7613   20.0494 C   0  0  0  0  0  0  0  0  0  0  0  0
    4.6623    1.4178   18.9222 C   0  0  0  0  0  0  0  0  0  0  0  0
    5.4021    1.3692   17.7366 C   0  0  0  0  0  0  0  0  0  0  0  0
    6.5664    0.7105   17.6183 N   0  0  0  0  0  0  0  0  0  0  0  0
    7.0394    0.0987   18.7111 C   0  0  0  0  0  0  0  0  0  0  0  0
    7.9864   -0.4286   18.5926 H   0  0  0  0  0  0  0  0  0  0  0  0
    5.0445    1.8790   16.8430 H   0  0  0  0  0  0  0  0  0  0  0  0
    3.7306    1.9726   18.9528 H   0  0  0  0  0  0  0  0  0  0  0  0
    4.6074    0.7666   20.9899 H   0  0  0  0  0  0  0  0  0  0  0  0
    7.2079   -1.6862   20.8438 H   0  0  0  0  0  0  0  0  0  0  0  0
    6.3288   -0.6648   21.9847 H   0  0  0  0  0  0  0  0  0  0  0  0
    6.8411    2.1188   22.1834 H   0  0  0  0  0  0  0  0  0  0  0  0
    8.1863    2.8362   23.1209 H   0  0  0  0  0  0  0  0  0  0  0  0
    8.1286    0.9571   25.0113 O   0  0  0  0  0  0  0  0  0  0  0  0
    5.0673    0.7034   23.9410 H   0  0  0  0  0  0  0  0  0  0  0  0
    5.5846   -0.6157   26.3066 H   0  0  0  0  0  0  0  0  0  0  0  0
    9.4976    0.1795   26.9269 H   0  0  0  0  0  0  0  0  0  0  0  0
    8.6124   -1.3567   27.0325 H   0  0  0  0  0  0  0  0  0  0  0  0
    8.1299   -0.0093   28.0547 H   0  0  0  0  0  0  0  0  0  0  0  0
  1  2  1  0
  2  3  2  0
  3  4  1  0
  4  5  2  0
  5  6  1  0
  6  7  1  0
  7  8  2  0
  8  9  1  0
  9 10  1  0
 10 11  2  0
 11 12  1  0
 12 13  2  0
 13 14  1  0
 14 15  2  0
 14 16  1  0
 13 17  1  0
 12 18  1  0
 11 19  1  0
  9 20  2  0
 20 21  1  0
 21 22  1  0
 22 23  1  0
 23 24  2  0
 24 25  1  0
 25 26  2  0
 26 27  1  0
 27 28  2  0
 28 29  1  0
 26 30  1  0
 25 31  1  0
 24 32  1  0
 22 33  1  0
 22 34  1  0
  6 35  1  0
  6 36  1  0
  5 37  1  0
  4 38  1  0
  3 39  1  0
  1 40  1  0
  1 41  1  0
  1 42  1  0
 37  2  1  0
 21  7  1  0
 28 23  1  0
 15 10  1  0
M  END
>  <cnnaffinity>  (1) 
-6.40279

>  <filename>  (1) 
Cc1ccc(Cc2nc(-c3ccccn3)nn2Cc2cccnc2)o1

$$$$
