
     RDKit          3D

 43 46  0  0  0  0  0  0  0  0999 V2000
    6.8866    1.8166   23.6833 C   0  0  0  0  0  0  0  0  0  0  0  0
    8.3482    1.7925   24.0923 C   0  0  0  0  0  0  0  0  0  0  0  0
    8.7147    1.5296   25.4178 C   0  0  0  0  0  0  0  0  0  0  0  0
   10.0707    1.3781   25.7365 C   0  0  0  0  0  0  0  0  0  0  0  0
   11.0278    1.6365   24.7536 C   0  0  0  0  0  0  0  0  0  0  0  0
   10.7066    1.9287   23.4914 N   0  0  0  0  0  0  0  0  0  0  0  0
    9.4069    1.9367   23.1464 C   0  0  0  0  0  0  0  0  0  0  0  0
    9.1781    1.9698   21.6472 C   0  0  0  0  0  0  0  0  0  0  0  0
    9.5083    0.6032   20.9703 C   0  0  0  0  0  0  0  0  0  0  0  0
    8.6208   -0.5241   21.3902 C   0  0  0  0  0  0  0  0  0  0  0  0
    8.8389   -1.3796   22.3746 N   0  0  0  0  0  0  0  0  0  0  0  0
    7.6275   -1.9649   22.5439 C   0  0  0  0  0  0  0  0  0  0  0  0
    7.3647   -2.8772   23.6949 C   0  0  0  0  0  0  0  0  0  0  0  0
    6.4725   -4.1035   23.3778 C   0  0  0  0  0  0  0  0  0  0  0  0
    5.1902   -3.5631   24.5571 S   0  0  0  0  0  0  0  0  0  0  0  0
    6.4459   -2.2638   24.7982 C   0  0  0  0  0  0  0  0  0  0  0  0
    6.0665   -1.2556   24.5910 H   0  0  0  0  0  0  0  0  0  0  0  0
    6.8755   -2.2814   25.8042 H   0  0  0  0  0  0  0  0  0  0  0  0
    6.9151   -5.0675   23.6463 H   0  0  0  0  0  0  0  0  0  0  0  0
    6.0998   -4.1407   22.3495 H   0  0  0  0  0  0  0  0  0  0  0  0
    8.3445   -3.1496   24.0892 H   0  0  0  0  0  0  0  0  0  0  0  0
    6.6933   -1.5742   21.6992 N   0  0  0  0  0  0  0  0  0  0  0  0
    7.3438   -0.6627   20.9293 N   0  0  0  0  0  0  0  0  0  0  0  0
    6.6547   -0.0003   19.8794 C   0  0  0  0  0  0  0  0  0  0  0  0
    5.4377    0.6329   20.1443 C   0  0  0  0  0  0  0  0  0  0  0  0
    4.8096    1.3084   19.0972 C   0  0  0  0  0  0  0  0  0  0  0  0
    5.4021    1.2975   17.8284 C   0  0  0  0  0  0  0  0  0  0  0  0
    6.5484    0.6538   17.5566 N   0  0  0  0  0  0  0  0  0  0  0  0
    7.1592    0.0224   18.5651 C   0  0  0  0  0  0  0  0  0  0  0  0
    8.0918   -0.4923   18.3295 H   0  0  0  0  0  0  0  0  0  0  0  0
    4.9348    1.8197   16.9990 H   0  0  0  0  0  0  0  0  0  0  0  0
    3.8795    1.8407   19.2606 H   0  0  0  0  0  0  0  0  0  0  0  0
    5.0057    0.5734   21.1454 H   0  0  0  0  0  0  0  0  0  0  0  0
    9.4611    0.7059   19.8860 H   0  0  0  0  0  0  0  0  0  0  0  0
   10.5361    0.3253   21.2163 H   0  0  0  0  0  0  0  0  0  0  0  0
    8.1613    2.2861   21.3889 H   0  0  0  0  0  0  0  0  0  0  0  0
    9.8539    2.7284   21.2518 H   0  0  0  0  0  0  0  0  0  0  0  0
   12.0954    1.5782   24.9690 H   0  0  0  0  0  0  0  0  0  0  0  0
   10.3966    1.0012   26.6912 H   0  0  0  0  0  0  0  0  0  0  0  0
    7.9294    1.4481   26.1793 H   0  0  0  0  0  0  0  0  0  0  0  0
    6.2352    1.6547   24.5489 H   0  0  0  0  0  0  0  0  0  0  0  0
    6.6682    1.0215   22.9564 H   0  0  0  0  0  0  0  0  0  0  0  0
    6.5843    2.7640   23.2190 H   0  0  0  0  0  0  0  0  0  0  0  0
  1  2  1  0
  2  3  2  0
  3  4  1  0
  4  5  2  0
  5  6  1  0
  6  7  2  0
  7  8  1  0
  8  9  1  0
  9 10  1  0
 10 11  2  0
 11 12  1  0
 12 13  1  0
 13 14  1  0
 14 15  1  0
 15 16  1  0
 16 17  1  0
 16 18  1  0
 14 19  1  0
 14 20  1  0
 13 21  1  0
 12 22  2  0
 22 23  1  0
 23 24  1  0
 24 25  2  0
 25 26  1  0
 26 27  2  0
 27 28  1  0
 28 29  2  0
 29 30  1  0
 27 31  1  0
 26 32  1  0
 25 33  1  0
  9 34  1  0
  9 35  1  0
  8 36  1  0
  8 37  1  0
  5 38  1  0
  4 39  1  0
  3 40  1  0
  1 41  1  0
  1 42  1  0
  1 43  1  0
  7  2  1  0
 23 10  1  0
 29 24  1  0
 16 13  1  0
M  END
>  <cnnaffinity>  (1) 
-6.02358

>  <filename>  (1) 
Cc1cccnc1CCc1nc(C2CSC2)nn1-c1cccnc1

$$$$
