
     RDKit          3D

 44 47  0  0  0  0  0  0  0  0999 V2000
    4.2829    1.5626   27.8259 C   0  0  0  0  0  0  0  0  0  0  0  0
    5.5373    2.0477   27.1343 C   0  0  0  0  0  0  0  0  0  0  0  0
    5.9601    1.5641   25.8905 C   0  0  0  0  0  0  0  0  0  0  0  0
    7.1258    2.0605   25.2638 C   0  0  0  0  0  0  0  0  0  0  0  0
    7.5725    1.5318   23.9582 C   0  0  0  0  0  0  0  0  0  0  0  0
    6.9068    0.6221   23.2634 N   0  0  0  0  0  0  0  0  0  0  0  0
    7.6953    0.4084   22.1875 N   0  0  0  0  0  0  0  0  0  0  0  0
    7.3073   -0.5343   21.1467 C   0  0  0  0  0  0  0  0  0  0  0  0
    6.6438    0.1123   19.9436 C   0  0  0  0  0  0  0  0  0  0  0  0
    5.4320    0.7976   20.1041 C   0  0  0  0  0  0  0  0  0  0  0  0
    4.8478    1.3923   18.9837 C   0  0  0  0  0  0  0  0  0  0  0  0
    5.4891    1.2843   17.7474 C   0  0  0  0  0  0  0  0  0  0  0  0
    6.6446    0.6271   17.5697 N   0  0  0  0  0  0  0  0  0  0  0  0
    7.2002    0.0680   18.6547 C   0  0  0  0  0  0  0  0  0  0  0  0
    8.1479   -0.4433   18.4770 H   0  0  0  0  0  0  0  0  0  0  0  0
    5.0541    1.7412   16.8592 H   0  0  0  0  0  0  0  0  0  0  0  0
    3.9216    1.9525   19.0558 H   0  0  0  0  0  0  0  0  0  0  0  0
    4.9658    0.8768   21.0889 H   0  0  0  0  0  0  0  0  0  0  0  0
    8.1892   -1.1078   20.8409 H   0  0  0  0  0  0  0  0  0  0  0  0
    6.6290   -1.2427   21.6319 H   0  0  0  0  0  0  0  0  0  0  0  0
    8.7856    1.2029   22.2694 C   0  0  0  0  0  0  0  0  0  0  0  0
    9.9267    1.2076   21.2835 C   0  0  0  0  0  0  0  0  0  0  0  0
   11.0943    0.2593   21.5929 C   0  0  0  0  0  0  0  0  0  0  0  0
   11.1521   -1.0864   21.2250 C   0  0  0  0  0  0  0  0  0  0  0  0
   12.1907   -1.8796   21.4974 N   0  0  0  0  0  0  0  0  0  0  0  0
   13.1893   -1.3382   22.1861 C   0  0  0  0  0  0  0  0  0  0  0  0
   13.2461   -0.0834   22.6284 N   0  0  0  0  0  0  0  0  0  0  0  0
   12.2039    0.6914   22.3294 C   0  0  0  0  0  0  0  0  0  0  0  0
   12.2582    1.7108   22.7139 H   0  0  0  0  0  0  0  0  0  0  0  0
   14.0478   -1.9720   22.4053 H   0  0  0  0  0  0  0  0  0  0  0  0
   10.3336   -1.5335   20.6511 H   0  0  0  0  0  0  0  0  0  0  0  0
   10.2937    2.2379   21.2610 H   0  0  0  0  0  0  0  0  0  0  0  0
    9.5212    1.0073   20.2864 H   0  0  0  0  0  0  0  0  0  0  0  0
    8.7380    1.9217   23.3689 N   0  0  0  0  0  0  0  0  0  0  0  0
    7.8857    3.0500   25.9104 C   0  0  0  0  0  0  0  0  0  0  0  0
    7.4975    3.5338   27.1573 C   0  0  0  0  0  0  0  0  0  0  0  0
    6.3366    3.0300   27.7378 C   0  0  0  0  0  0  0  0  0  0  0  0
    5.9701    3.5116   28.9408 F   0  0  0  0  0  0  0  0  0  0  0  0
    8.0733    4.2787   27.6938 H   0  0  0  0  0  0  0  0  0  0  0  0
    8.7883    3.4253   25.4308 H   0  0  0  0  0  0  0  0  0  0  0  0
    5.3952    0.7740   25.3957 H   0  0  0  0  0  0  0  0  0  0  0  0
    3.8727    0.6620   27.3589 H   0  0  0  0  0  0  0  0  0  0  0  0
    4.4903    1.3385   28.8773 H   0  0  0  0  0  0  0  0  0  0  0  0
    3.5076    2.3368   27.8078 H   0  0  0  0  0  0  0  0  0  0  0  0
  1  2  1  0
  2  3  2  0
  3  4  1  0
  4  5  1  0
  5  6  2  0
  6  7  1  0
  7  8  1  0
  8  9  1  0
  9 10  2  0
 10 11  1  0
 11 12  2  0
 12 13  1  0
 13 14  2  0
 14 15  1  0
 12 16  1  0
 11 17  1  0
 10 18  1  0
  8 19  1  0
  8 20  1  0
  7 21  1  0
 21 22  1  0
 22 23  1  0
 23 24  2  0
 24 25  1  0
 25 26  2  0
 26 27  1  0
 27 28  2  0
 28 29  1  0
 26 30  1  0
 24 31  1  0
 22 32  1  0
 22 33  1  0
 21 34  2  0
  4 35  2  0
 35 36  1  0
 36 37  2  0
 37 38  1  0
 36 39  1  0
 35 40  1  0
  3 41  1  0
  1 42  1  0
  1 43  1  0
  1 44  1  0
 37  2  1  0
 34  5  1  0
 14  9  1  0
 28 23  1  0
M  END
>  <cnnaffinity>  (1) 
-6.30259

>  <filename>  (1) 
Cc1cc(-c2nc(Cc3cncnc3)n(Cc3cccnc3)n2)ccc1F

$$$$
