
     RDKit          3D

 39 42  0  0  0  0  0  0  0  0999 V2000
   10.8064    0.0009   24.5731 C   0  0  0  0  0  0  0  0  0  0  0  0
   11.5668   -0.4334   23.3533 C   0  0  0  0  0  0  0  0  0  0  0  0
   12.7671   -0.0014   22.8838 C   0  0  0  0  0  0  0  0  0  0  0  0
   13.1704   -0.7349   21.8407 O   0  0  0  0  0  0  0  0  0  0  0  0
   12.2129   -1.6812   21.5719 N   0  0  0  0  0  0  0  0  0  0  0  0
   11.2633   -1.5037   22.4503 C   0  0  0  0  0  0  0  0  0  0  0  0
   10.0453   -2.3680   22.3889 C   0  0  0  0  0  0  0  0  0  0  0  0
    8.8001   -1.6082   22.1008 C   0  0  0  0  0  0  0  0  0  0  0  0
    8.5461   -1.0896   20.9196 N   0  0  0  0  0  0  0  0  0  0  0  0
    7.2927   -0.5804   21.0596 C   0  0  0  0  0  0  0  0  0  0  0  0
    6.5707    0.0683   19.9689 C   0  0  0  0  0  0  0  0  0  0  0  0
    5.3344    0.7213   20.1280 C   0  0  0  0  0  0  0  0  0  0  0  0
    4.7843    1.3419   19.0096 C   0  0  0  0  0  0  0  0  0  0  0  0
    5.4700    1.2741   17.7900 C   0  0  0  0  0  0  0  0  0  0  0  0
    6.6276    0.6170   17.6249 N   0  0  0  0  0  0  0  0  0  0  0  0
    7.1582    0.0292   18.7005 C   0  0  0  0  0  0  0  0  0  0  0  0
    8.0941   -0.5094   18.5640 H   0  0  0  0  0  0  0  0  0  0  0  0
    5.0679    1.7638   16.9066 H   0  0  0  0  0  0  0  0  0  0  0  0
    3.8495    1.8889   19.0676 H   0  0  0  0  0  0  0  0  0  0  0  0
    4.8311    0.7396   21.0990 H   0  0  0  0  0  0  0  0  0  0  0  0
    6.7758   -0.7302   22.2597 N   0  0  0  0  0  0  0  0  0  0  0  0
    7.7358   -1.4215   22.9244 N   0  0  0  0  0  0  0  0  0  0  0  0
    7.6046   -1.7204   24.3123 C   0  0  0  0  0  0  0  0  0  0  0  0
    7.3413   -0.7087   25.2124 C   0  0  0  0  0  0  0  0  0  0  0  0
    7.3021   -1.0772   26.6671 C   0  0  0  0  0  0  0  0  0  0  0  0
    7.0773    0.1429   27.3386 F   0  0  0  0  0  0  0  0  0  0  0  0
    7.4760   -2.3211   27.0888 C   0  0  0  0  0  0  0  0  0  0  0  0
    7.4234   -2.1025   27.2774 F   0  0  0  0  0  0  0  0  0  0  0  0
    7.7368   -3.4567   26.0574 C   0  0  0  0  0  0  0  0  0  0  0  0
    7.9561   -4.7637   26.3500 F   0  0  0  0  0  0  0  0  0  0  0  0
    7.7906   -3.0831   24.7340 C   0  0  0  0  0  0  0  0  0  0  0  0
    7.9669   -3.8429   23.9797 H   0  0  0  0  0  0  0  0  0  0  0  0
    7.1446    0.3091   24.9042 H   0  0  0  0  0  0  0  0  0  0  0  0
   10.1762   -3.0142   21.5323 H   0  0  0  0  0  0  0  0  0  0  0  0
    9.9604   -2.9839   23.2858 H   0  0  0  0  0  0  0  0  0  0  0  0
   13.4288    0.8083   23.1666 H   0  0  0  0  0  0  0  0  0  0  0  0
    9.8910    0.5434   24.3046 H   0  0  0  0  0  0  0  0  0  0  0  0
   10.4983   -0.8739   25.1571 H   0  0  0  0  0  0  0  0  0  0  0  0
   11.4106    0.6451   25.2223 H   0  0  0  0  0  0  0  0  0  0  0  0
  1  2  1  0
  2  3  2  0
  3  4  1  0
  4  5  1  0
  5  6  2  0
  6  7  1  0
  7  8  1  0
  8  9  2  0
  9 10  1  0
 10 11  1  0
 11 12  2  0
 12 13  1  0
 13 14  2  0
 14 15  1  0
 15 16  2  0
 16 17  1  0
 14 18  1  0
 13 19  1  0
 12 20  1  0
 10 21  2  0
 21 22  1  0
 22 23  1  0
 23 24  2  0
 24 25  1  0
 25 26  1  0
 25 27  2  0
 27 28  1  0
 27 29  1  0
 29 30  1  0
 29 31  2  0
 31 32  1  0
 24 33  1  0
  7 34  1  0
  7 35  1  0
  3 36  1  0
  1 37  1  0
  1 38  1  0
  1 39  1  0
  6  2  1  0
 22  8  1  0
 31 23  1  0
 16 11  1  0
M  END
>  <cnnaffinity>  (1) 
-6.85623

>  <filename>  (1) 
Cc1conc1Cc1nc(-c2cccnc2)nn1-c1cc(F)c(F)c(F)c1

$$$$
