
     RDKit          3D

 32 34  0  0  0  0  0  0  0  0999 V2000
    4.9327    1.7977   16.9958 H   0  0  0  0  0  0  0  0  0  0  0  0
    5.3974    1.2896   17.8344 C   0  0  0  0  0  0  0  0  0  0  0  0
    6.5520    0.6594   17.5674 N   0  0  0  0  0  0  0  0  0  0  0  0
    7.1721    0.0433   18.5802 C   0  0  0  0  0  0  0  0  0  0  0  0
    8.1248   -0.4339   18.3572 H   0  0  0  0  0  0  0  0  0  0  0  0
    6.6524    0.0016   19.8900 C   0  0  0  0  0  0  0  0  0  0  0  0
    7.3322   -0.6785   20.9479 N   0  0  0  0  0  0  0  0  0  0  0  0
    6.7358   -1.6070   21.7898 C   0  0  0  0  0  0  0  0  0  0  0  0
    5.6783   -1.8107   21.7153 H   0  0  0  0  0  0  0  0  0  0  0  0
    7.6725   -2.0634   22.6569 C   0  0  0  0  0  0  0  0  0  0  0  0
    7.5528   -3.0229   23.7617 C   0  0  0  0  0  0  0  0  0  0  0  0
    6.4581   -3.9033   23.7647 C   0  0  0  0  0  0  0  0  0  0  0  0
    5.7493   -3.8563   22.9442 H   0  0  0  0  0  0  0  0  0  0  0  0
    6.2843   -4.8232   24.7979 C   0  0  0  0  0  0  0  0  0  0  0  0
    5.4291   -5.4954   24.7868 H   0  0  0  0  0  0  0  0  0  0  0  0
    7.2085   -4.8728   25.8490 C   0  0  0  0  0  0  0  0  0  0  0  0
    7.0821   -5.5864   26.6627 H   0  0  0  0  0  0  0  0  0  0  0  0
    8.3119   -4.0027   25.8749 C   0  0  0  0  0  0  0  0  0  0  0  0
    9.3271   -4.0654   26.9969 C   0  0  0  0  0  0  0  0  0  0  0  0
    8.8811   -4.4325   27.9279 H   0  0  0  0  0  0  0  0  0  0  0  0
   10.1610   -4.7350   26.7490 H   0  0  0  0  0  0  0  0  0  0  0  0
    9.7526   -3.0771   27.1992 H   0  0  0  0  0  0  0  0  0  0  0  0
    8.4641   -3.0817   24.8304 C   0  0  0  0  0  0  0  0  0  0  0  0
    9.3031   -2.3900   24.8695 H   0  0  0  0  0  0  0  0  0  0  0  0
    8.8375   -1.3864   22.3237 N   0  0  0  0  0  0  0  0  0  0  0  0
    9.7651   -1.4506   22.7033 H   0  0  0  0  0  0  0  0  0  0  0  0
    8.6503   -0.5058   21.3138 C   0  0  0  0  0  0  0  0  0  0  0  0
    9.8134    0.5420   20.7745 S   0  0  0  0  0  0  0  0  0  0  0  0
    5.4412    0.6478   20.1544 C   0  0  0  0  0  0  0  0  0  0  0  0
    5.0387    0.6335   21.1708 H   0  0  0  0  0  0  0  0  0  0  0  0
    4.8047    1.3118   19.1028 C   0  0  0  0  0  0  0  0  0  0  0  0
    3.8733    1.8466   19.2570 H   0  0  0  0  0  0  0  0  0  0  0  0
  1  2  1  0
  2  3  2  0
  3  4  1  0
  4  5  1  0
  4  6  2  0
  6  7  1  0
  7  8  1  0
  8  9  1  0
  8 10  2  0
 10 11  1  0
 11 12  2  0
 12 13  1  0
 12 14  1  0
 14 15  1  0
 14 16  2  0
 16 17  1  0
 16 18  1  0
 18 19  1  0
 19 20  1  0
 19 21  1  0
 19 22  1  0
 18 23  2  0
 23 24  1  0
 10 25  1  0
 25 26  1  0
 25 27  1  0
 27 28  2  0
  6 29  1  0
 29 30  1  0
 29 31  2  0
 31 32  1  0
 31  2  1  0
 27  7  1  0
 23 11  1  0
M  END
>  <cnnaffinity>  (1) 
-5.3902

>  <filename>  (1) 
Cc1cccc(-c2cn(-c3cccnc3)c(=S)[nH]2)c1

$$$$
