
     RDKit          3D

 42 45  0  0  0  0  0  0  0  0999 V2000
    5.0743   -3.6453   26.3780 C   0  0  0  0  0  0  0  0  0  0  0  0
    6.3472   -2.9622   25.9303 C   0  0  0  0  0  0  0  0  0  0  0  0
    7.4573   -2.8570   26.7821 C   0  0  0  0  0  0  0  0  0  0  0  0
    8.5695   -2.0852   26.4315 C   0  0  0  0  0  0  0  0  0  0  0  0
    8.6244   -1.4691   25.1792 C   0  0  0  0  0  0  0  0  0  0  0  0
    7.5854   -1.7026   24.2688 C   0  0  0  0  0  0  0  0  0  0  0  0
    7.7423   -1.3451   22.8996 N   0  0  0  0  0  0  0  0  0  0  0  0
    6.8154   -0.6558   22.2023 N   0  0  0  0  0  0  0  0  0  0  0  0
    7.3051   -0.6583   20.9790 C   0  0  0  0  0  0  0  0  0  0  0  0
    6.6097    0.0218   19.8940 C   0  0  0  0  0  0  0  0  0  0  0  0
    5.3880    0.6931   20.0975 C   0  0  0  0  0  0  0  0  0  0  0  0
    4.8125    1.3312   19.0059 C   0  0  0  0  0  0  0  0  0  0  0  0
    5.4714    1.2795   17.7705 C   0  0  0  0  0  0  0  0  0  0  0  0
    6.6258    0.6267   17.5668 N   0  0  0  0  0  0  0  0  0  0  0  0
    7.1792    0.0123   18.6165 C   0  0  0  0  0  0  0  0  0  0  0  0
    8.1149   -0.5127   18.4324 H   0  0  0  0  0  0  0  0  0  0  0  0
    5.0537    1.7838   16.9055 H   0  0  0  0  0  0  0  0  0  0  0  0
    3.8801    1.8798   19.0995 H   0  0  0  0  0  0  0  0  0  0  0  0
    4.9225    0.7054   21.0869 H   0  0  0  0  0  0  0  0  0  0  0  0
    8.4698   -1.3577   20.8351 N   0  0  0  0  0  0  0  0  0  0  0  0
    8.7038   -1.7935   22.0531 C   0  0  0  0  0  0  0  0  0  0  0  0
    9.7938   -2.7012   22.5207 C   0  0  0  0  0  0  0  0  0  0  0  0
    9.2910   -4.0252   23.0658 C   0  0  0  0  0  0  0  0  0  0  0  0
    9.7027   -4.4436   24.2352 N   0  0  0  0  0  0  0  0  0  0  0  0
    9.0729   -5.6466   24.4704 O   0  0  0  0  0  0  0  0  0  0  0  0
    8.3278   -5.9473   23.3998 C   0  0  0  0  0  0  0  0  0  0  0  0
    8.3911   -4.9716   22.4580 C   0  0  0  0  0  0  0  0  0  0  0  0
    7.7456   -4.9523   21.1016 C   0  0  0  0  0  0  0  0  0  0  0  0
    7.0058   -4.1490   21.0179 H   0  0  0  0  0  0  0  0  0  0  0  0
    8.4905   -4.7734   20.3305 H   0  0  0  0  0  0  0  0  0  0  0  0
    7.2605   -5.9059   20.8561 H   0  0  0  0  0  0  0  0  0  0  0  0
    7.8091   -6.8935   23.4131 H   0  0  0  0  0  0  0  0  0  0  0  0
   10.3685   -2.2150   23.3113 H   0  0  0  0  0  0  0  0  0  0  0  0
   10.4762   -2.8342   21.6827 H   0  0  0  0  0  0  0  0  0  0  0  0
    6.4366   -2.3967   24.6550 C   0  0  0  0  0  0  0  0  0  0  0  0
    5.6108   -2.4978   23.9570 H   0  0  0  0  0  0  0  0  0  0  0  0
    9.4788   -0.8619   24.8910 H   0  0  0  0  0  0  0  0  0  0  0  0
    9.4045   -1.9923   27.1198 H   0  0  0  0  0  0  0  0  0  0  0  0
    7.4420   -3.4078   27.7151 H   0  0  0  0  0  0  0  0  0  0  0  0
    4.8727   -3.4468   27.4369 H   0  0  0  0  0  0  0  0  0  0  0  0
    4.2153   -3.2775   25.8051 H   0  0  0  0  0  0  0  0  0  0  0  0
    5.1230   -4.7333   26.2524 H   0  0  0  0  0  0  0  0  0  0  0  0
  1  2  1  0
  2  3  2  0
  3  4  1  0
  4  5  2  0
  5  6  1  0
  6  7  1  0
  7  8  1  0
  8  9  2  0
  9 10  1  0
 10 11  2  0
 11 12  1  0
 12 13  2  0
 13 14  1  0
 14 15  2  0
 15 16  1  0
 13 17  1  0
 12 18  1  0
 11 19  1  0
  9 20  1  0
 20 21  2  0
 21 22  1  0
 22 23  1  0
 23 24  2  0
 24 25  1  0
 25 26  1  0
 26 27  2  0
 27 28  1  0
 28 29  1  0
 28 30  1  0
 28 31  1  0
 26 32  1  0
 22 33  1  0
 22 34  1  0
  6 35  2  0
 35 36  1  0
  5 37  1  0
  4 38  1  0
  3 39  1  0
  1 40  1  0
  1 41  1  0
  1 42  1  0
 35  2  1  0
 21  7  1  0
 27 23  1  0
 15 10  1  0
M  END
>  <cnnaffinity>  (1) 
-5.96665

>  <filename>  (1) 
Cc1cccc(-n2nc(-c3cccnc3)nc2Cc2nocc2C)c1

$$$$
