
     RDKit          3D

 40 43  0  0  0  0  0  0  0  0999 V2000
    7.8559    2.7133   22.0636 C   0  0  0  0  0  0  0  0  0  0  0  0
    9.2272    2.3283   22.4951 C   0  0  0  0  0  0  0  0  0  0  0  0
    9.9353    2.8503   23.5292 C   0  0  0  0  0  0  0  0  0  0  0  0
    9.4280    4.2343   24.7536 Br  0  0  0  0  0  0  0  0  0  0  0  0
   11.1579    2.0792   23.5765 C   0  0  0  0  0  0  0  0  0  0  0  0
   11.1842    1.1673   22.6270 N   0  0  0  0  0  0  0  0  0  0  0  0
   10.0157    1.3228   21.9510 N   0  0  0  0  0  0  0  0  0  0  0  0
    9.6143    0.4406   20.8492 C   0  0  0  0  0  0  0  0  0  0  0  0
    8.6272   -0.5472   21.3582 C   0  0  0  0  0  0  0  0  0  0  0  0
    8.8748   -1.3802   22.3285 N   0  0  0  0  0  0  0  0  0  0  0  0
    7.6550   -2.0167   22.5262 C   0  0  0  0  0  0  0  0  0  0  0  0
    7.4300   -3.0389   23.5701 C   0  0  0  0  0  0  0  0  0  0  0  0
    6.1657   -3.6437   23.7137 C   0  0  0  0  0  0  0  0  0  0  0  0
    5.9383   -4.6103   24.6979 C   0  0  0  0  0  0  0  0  0  0  0  0
    6.9696   -4.9905   25.5587 C   0  0  0  0  0  0  0  0  0  0  0  0
    8.2314   -4.4027   25.4348 C   0  0  0  0  0  0  0  0  0  0  0  0
    8.4615   -3.4345   24.4488 C   0  0  0  0  0  0  0  0  0  0  0  0
    9.4523   -2.9928   24.3763 H   0  0  0  0  0  0  0  0  0  0  0  0
    9.0323   -4.6994   26.1063 H   0  0  0  0  0  0  0  0  0  0  0  0
    6.7908   -5.7411   26.3239 H   0  0  0  0  0  0  0  0  0  0  0  0
    4.9566   -5.0641   24.7937 H   0  0  0  0  0  0  0  0  0  0  0  0
    5.3482   -3.3589   23.0568 H   0  0  0  0  0  0  0  0  0  0  0  0
    6.7076   -1.6228   21.7010 N   0  0  0  0  0  0  0  0  0  0  0  0
    7.3185   -0.6986   20.9311 N   0  0  0  0  0  0  0  0  0  0  0  0
    6.6675    0.0069   19.9104 C   0  0  0  0  0  0  0  0  0  0  0  0
    5.4479    0.6431   20.1606 C   0  0  0  0  0  0  0  0  0  0  0  0
    4.8157    1.3080   19.1085 C   0  0  0  0  0  0  0  0  0  0  0  0
    5.3998    1.2953   17.8346 C   0  0  0  0  0  0  0  0  0  0  0  0
    6.5730    0.6802   17.5852 N   0  0  0  0  0  0  0  0  0  0  0  0
    7.1917    0.0600   18.6062 C   0  0  0  0  0  0  0  0  0  0  0  0
    8.1322   -0.4418   18.3962 H   0  0  0  0  0  0  0  0  0  0  0  0
    4.8910    1.7850   17.0129 H   0  0  0  0  0  0  0  0  0  0  0  0
    3.8785    1.8373   19.2644 H   0  0  0  0  0  0  0  0  0  0  0  0
    5.0082    0.6269   21.1592 H   0  0  0  0  0  0  0  0  0  0  0  0
    9.1914    1.0148   20.0227 H   0  0  0  0  0  0  0  0  0  0  0  0
   10.4804   -0.1168   20.5015 H   0  0  0  0  0  0  0  0  0  0  0  0
   11.9382    2.2272   24.3142 H   0  0  0  0  0  0  0  0  0  0  0  0
    7.1466    1.9800   22.4533 H   0  0  0  0  0  0  0  0  0  0  0  0
    7.7938    2.7166   20.9751 H   0  0  0  0  0  0  0  0  0  0  0  0
    7.6015    3.7056   22.4460 H   0  0  0  0  0  0  0  0  0  0  0  0
  1  2  1  0
  2  3  2  0
  3  4  1  0
  3  5  1  0
  5  6  2  0
  6  7  1  0
  7  8  1  0
  8  9  1  0
  9 10  2  0
 10 11  1  0
 11 12  1  0
 12 13  2  0
 13 14  1  0
 14 15  2  0
 15 16  1  0
 16 17  2  0
 17 18  1  0
 16 19  1  0
 15 20  1  0
 14 21  1  0
 13 22  1  0
 11 23  2  0
 23 24  1  0
 24 25  1  0
 25 26  2  0
 26 27  1  0
 27 28  2  0
 28 29  1  0
 29 30  2  0
 30 31  1  0
 28 32  1  0
 27 33  1  0
 26 34  1  0
  8 35  1  0
  8 36  1  0
  5 37  1  0
  1 38  1  0
  1 39  1  0
  1 40  1  0
  7  2  1  0
 24  9  1  0
 30 25  1  0
 17 12  1  0
M  END
>  <cnnaffinity>  (1) 
-5.9764

>  <filename>  (1) 
Cc1c(Br)cnn1Cc1nc(-c2ccccc2)nn1-c1cccnc1

$$$$
