
     RDKit          3D

 43 46  0  0  0  0  0  0  0  0999 V2000
    6.1791    3.9112   28.9153 C   0  0  0  0  0  0  0  0  0  0  0  0
    6.5376    3.2823   27.5920 C   0  0  0  0  0  0  0  0  0  0  0  0
    5.7156    2.3116   26.9925 C   0  0  0  0  0  0  0  0  0  0  0  0
    6.0621    1.7064   25.7819 C   0  0  0  0  0  0  0  0  0  0  0  0
    7.2548    2.0741   25.1251 C   0  0  0  0  0  0  0  0  0  0  0  0
    7.6880    1.4760   23.8389 C   0  0  0  0  0  0  0  0  0  0  0  0
    7.0723    0.5001   23.1912 N   0  0  0  0  0  0  0  0  0  0  0  0
    7.8462    0.3021   22.0956 N   0  0  0  0  0  0  0  0  0  0  0  0
    7.4323   -0.6357   21.0518 C   0  0  0  0  0  0  0  0  0  0  0  0
    6.7101    0.0314   19.8974 C   0  0  0  0  0  0  0  0  0  0  0  0
    5.4932    0.6924   20.1176 C   0  0  0  0  0  0  0  0  0  0  0  0
    4.8714    1.3264   19.0396 C   0  0  0  0  0  0  0  0  0  0  0  0
    5.4867    1.2761   17.7846 C   0  0  0  0  0  0  0  0  0  0  0  0
    6.6377    0.6287   17.5500 N   0  0  0  0  0  0  0  0  0  0  0  0
    7.2225    0.0230   18.5915 C   0  0  0  0  0  0  0  0  0  0  0  0
    8.1486   -0.5136   18.3682 H   0  0  0  0  0  0  0  0  0  0  0  0
    5.0292    1.7642   16.9250 H   0  0  0  0  0  0  0  0  0  0  0  0
    3.9323    1.8582   19.1536 H   0  0  0  0  0  0  0  0  0  0  0  0
    5.0486    0.7074   21.1162 H   0  0  0  0  0  0  0  0  0  0  0  0
    8.3114   -1.1874   20.6968 H   0  0  0  0  0  0  0  0  0  0  0  0
    6.7795   -1.3614   21.5464 H   0  0  0  0  0  0  0  0  0  0  0  0
    8.8698    1.1829   22.1244 C   0  0  0  0  0  0  0  0  0  0  0  0
    9.9656    1.2892   21.1338 C   0  0  0  0  0  0  0  0  0  0  0  0
   11.0484    0.3907   21.4686 N   0  0  0  0  0  0  0  0  0  0  0  0
   12.0238    0.5674   22.3849 C   0  0  0  0  0  0  0  0  0  0  0  0
   12.8622   -0.5244   22.2814 C   0  0  0  0  0  0  0  0  0  0  0  0
   12.2664   -1.3393   21.2976 C   0  0  0  0  0  0  0  0  0  0  0  0
   11.1569   -0.7740   20.8310 N   0  0  0  0  0  0  0  0  0  0  0  0
   12.6163   -2.2654   20.8521 H   0  0  0  0  0  0  0  0  0  0  0  0
   13.7914   -0.7323   22.7900 H   0  0  0  0  0  0  0  0  0  0  0  0
   11.9961    1.4403   23.0229 H   0  0  0  0  0  0  0  0  0  0  0  0
   10.3214    2.3274   21.1402 H   0  0  0  0  0  0  0  0  0  0  0  0
    9.6243    1.0167   20.1348 H   0  0  0  0  0  0  0  0  0  0  0  0
    8.8108    1.9214   23.2052 N   0  0  0  0  0  0  0  0  0  0  0  0
    8.0815    3.0446   25.7284 C   0  0  0  0  0  0  0  0  0  0  0  0
    7.7254    3.6374   26.9339 C   0  0  0  0  0  0  0  0  0  0  0  0
    8.3845    4.3829   27.3732 H   0  0  0  0  0  0  0  0  0  0  0  0
    9.0154    3.3129   25.2398 H   0  0  0  0  0  0  0  0  0  0  0  0
    5.4243    0.9343   25.3549 H   0  0  0  0  0  0  0  0  0  0  0  0
    4.7925    2.0195   27.4895 H   0  0  0  0  0  0  0  0  0  0  0  0
    6.5710    3.3262   29.7568 H   0  0  0  0  0  0  0  0  0  0  0  0
    6.5937    4.9210   28.9978 H   0  0  0  0  0  0  0  0  0  0  0  0
    5.0949    3.9881   29.0422 H   0  0  0  0  0  0  0  0  0  0  0  0
  1  2  1  0
  2  3  2  0
  3  4  1  0
  4  5  2  0
  5  6  1  0
  6  7  2  0
  7  8  1  0
  8  9  1  0
  9 10  1  0
 10 11  2  0
 11 12  1  0
 12 13  2  0
 13 14  1  0
 14 15  2  0
 15 16  1  0
 13 17  1  0
 12 18  1  0
 11 19  1  0
  9 20  1  0
  9 21  1  0
  8 22  1  0
 22 23  1  0
 23 24  1  0
 24 25  1  0
 25 26  2  0
 26 27  1  0
 27 28  2  0
 27 29  1  0
 26 30  1  0
 25 31  1  0
 23 32  1  0
 23 33  1  0
 22 34  2  0
  5 35  1  0
 35 36  2  0
 36 37  1  0
 35 38  1  0
  4 39  1  0
  3 40  1  0
  1 41  1  0
  1 42  1  0
  1 43  1  0
 36  2  1  0
 34  6  1  0
 15 10  1  0
 28 24  1  0
M  END
>  <cnnaffinity>  (1) 
-5.99178

>  <filename>  (1) 
Cc1ccc(-c2nc(Cn3cccn3)n(Cc3cccnc3)n2)cc1

$$$$
