
     RDKit          3D

 43 46  0  0  0  0  0  0  0  0999 V2000
   12.1058    2.2076   24.5293 C   0  0  0  0  0  0  0  0  0  0  0  0
   11.0504    2.0962   23.4938 C   0  0  0  0  0  0  0  0  0  0  0  0
   11.0831    1.2059   22.5207 N   0  0  0  0  0  0  0  0  0  0  0  0
    9.9086    1.3379   21.8730 N   0  0  0  0  0  0  0  0  0  0  0  0
    9.6051    0.3367   20.8602 C   0  0  0  0  0  0  0  0  0  0  0  0
    8.5887   -0.6187   21.3656 C   0  0  0  0  0  0  0  0  0  0  0  0
    8.8005   -1.4448   22.3568 N   0  0  0  0  0  0  0  0  0  0  0  0
    7.5978   -2.0567   22.5190 C   0  0  0  0  0  0  0  0  0  0  0  0
    7.3793   -3.0817   23.5635 C   0  0  0  0  0  0  0  0  0  0  0  0
    6.1147   -3.6819   23.7181 C   0  0  0  0  0  0  0  0  0  0  0  0
    5.9474   -4.6384   24.7111 C   0  0  0  0  0  0  0  0  0  0  0  0
    4.7433   -5.2122   24.8588 F   0  0  0  0  0  0  0  0  0  0  0  0
    6.9829   -5.0160   25.5652 C   0  0  0  0  0  0  0  0  0  0  0  0
    8.2343   -4.4085   25.4117 C   0  0  0  0  0  0  0  0  0  0  0  0
    8.4407   -3.4487   24.4188 C   0  0  0  0  0  0  0  0  0  0  0  0
    9.4094   -2.9646   24.3035 H   0  0  0  0  0  0  0  0  0  0  0  0
    9.0531   -4.6762   26.0772 H   0  0  0  0  0  0  0  0  0  0  0  0
    6.7866   -5.7617   26.3282 H   0  0  0  0  0  0  0  0  0  0  0  0
    5.2729   -3.3911   23.0926 H   0  0  0  0  0  0  0  0  0  0  0  0
    6.6612   -1.6498   21.6758 N   0  0  0  0  0  0  0  0  0  0  0  0
    7.3095   -0.7415   20.9086 N   0  0  0  0  0  0  0  0  0  0  0  0
    6.6253   -0.0544   19.8706 C   0  0  0  0  0  0  0  0  0  0  0  0
    5.4183    0.6010   20.1352 C   0  0  0  0  0  0  0  0  0  0  0  0
    4.8083    1.3031   19.0918 C   0  0  0  0  0  0  0  0  0  0  0  0
    5.4070    1.3009   17.8279 C   0  0  0  0  0  0  0  0  0  0  0  0
    6.5412    0.6372   17.5559 N   0  0  0  0  0  0  0  0  0  0  0  0
    7.1332   -0.0228   18.5598 C   0  0  0  0  0  0  0  0  0  0  0  0
    8.0575   -0.5484   18.3173 H   0  0  0  0  0  0  0  0  0  0  0  0
    4.9631    1.8528   17.0032 H   0  0  0  0  0  0  0  0  0  0  0  0
    3.8850    1.8486   19.2455 H   0  0  0  0  0  0  0  0  0  0  0  0
    4.9830    0.5513   21.1344 H   0  0  0  0  0  0  0  0  0  0  0  0
   10.5347   -0.2068   20.6888 H   0  0  0  0  0  0  0  0  0  0  0  0
    9.3091    0.8020   19.9231 H   0  0  0  0  0  0  0  0  0  0  0  0
    9.1135    2.2995   22.4398 C   0  0  0  0  0  0  0  0  0  0  0  0
    7.7351    2.6770   21.9742 C   0  0  0  0  0  0  0  0  0  0  0  0
    6.9551    2.0158   22.3714 H   0  0  0  0  0  0  0  0  0  0  0  0
    7.5007    3.6899   22.3096 H   0  0  0  0  0  0  0  0  0  0  0  0
    7.6565    2.6450   20.8872 H   0  0  0  0  0  0  0  0  0  0  0  0
    9.8440    2.8182   23.4872 C   0  0  0  0  0  0  0  0  0  0  0  0
    9.5888    3.6171   24.1787 H   0  0  0  0  0  0  0  0  0  0  0  0
   11.8764    1.5176   25.3471 H   0  0  0  0  0  0  0  0  0  0  0  0
   12.0452    3.2263   24.9133 H   0  0  0  0  0  0  0  0  0  0  0  0
   13.1064    1.9750   24.1528 H   0  0  0  0  0  0  0  0  0  0  0  0
  1  2  1  0
  2  3  2  0
  3  4  1  0
  4  5  1  0
  5  6  1  0
  6  7  2  0
  7  8  1  0
  8  9  1  0
  9 10  2  0
 10 11  1  0
 11 12  1  0
 11 13  2  0
 13 14  1  0
 14 15  2  0
 15 16  1  0
 14 17  1  0
 13 18  1  0
 10 19  1  0
  8 20  2  0
 20 21  1  0
 21 22  1  0
 22 23  2  0
 23 24  1  0
 24 25  2  0
 25 26  1  0
 26 27  2  0
 27 28  1  0
 25 29  1  0
 24 30  1  0
 23 31  1  0
  5 32  1  0
  5 33  1  0
  4 34  1  0
 34 35  1  0
 35 36  1  0
 35 37  1  0
 35 38  1  0
 34 39  2  0
 39 40  1  0
  1 41  1  0
  1 42  1  0
  1 43  1  0
 39  2  1  0
 21  6  1  0
 27 22  1  0
 15  9  1  0
M  END
>  <cnnaffinity>  (1) 
-5.96663

>  <filename>  (1) 
Cc1cc(C)n(Cc2nc(-c3cccc(F)c3)nn2-c2cccnc2)n1

$$$$
