
     RDKit          3D

 46 49  0  0  0  0  0  0  0  0999 V2000
    6.0910    3.5171   29.1431 C   0  0  0  0  0  0  0  0  0  0  0  0
    6.4713    2.9303   27.8049 C   0  0  0  0  0  0  0  0  0  0  0  0
    5.7142    1.9111   27.2010 C   0  0  0  0  0  0  0  0  0  0  0  0
    6.0664    1.3777   25.9579 C   0  0  0  0  0  0  0  0  0  0  0  0
    7.2062    1.8612   25.2820 C   0  0  0  0  0  0  0  0  0  0  0  0
    7.6479    1.3507   23.9669 C   0  0  0  0  0  0  0  0  0  0  0  0
    7.0082    0.4499   23.2392 N   0  0  0  0  0  0  0  0  0  0  0  0
    7.7957    0.3130   22.1441 N   0  0  0  0  0  0  0  0  0  0  0  0
    7.4404   -0.6034   21.0636 C   0  0  0  0  0  0  0  0  0  0  0  0
    6.7159    0.0458   19.8915 C   0  0  0  0  0  0  0  0  0  0  0  0
    5.4949    0.7025   20.0966 C   0  0  0  0  0  0  0  0  0  0  0  0
    4.8783    1.3225   19.0079 C   0  0  0  0  0  0  0  0  0  0  0  0
    5.4910    1.2545   17.7539 C   0  0  0  0  0  0  0  0  0  0  0  0
    6.6394    0.5997   17.5253 N   0  0  0  0  0  0  0  0  0  0  0  0
    7.2234    0.0156   18.5803 C   0  0  0  0  0  0  0  0  0  0  0  0
    8.1549   -0.5108   18.3630 H   0  0  0  0  0  0  0  0  0  0  0  0
    5.0416    1.7461   16.8943 H   0  0  0  0  0  0  0  0  0  0  0  0
    3.9473    1.8673   19.1190 H   0  0  0  0  0  0  0  0  0  0  0  0
    5.0479    0.7329   21.0926 H   0  0  0  0  0  0  0  0  0  0  0  0
    6.8159   -1.3656   21.5402 H   0  0  0  0  0  0  0  0  0  0  0  0
    8.3690   -1.0825   20.7313 H   0  0  0  0  0  0  0  0  0  0  0  0
    8.8472    1.1482   22.2512 C   0  0  0  0  0  0  0  0  0  0  0  0
    9.9862    1.2776   21.3169 C   0  0  0  0  0  0  0  0  0  0  0  0
   11.0693    0.3439   21.7324 C   0  0  0  0  0  0  0  0  0  0  0  0
   11.9219    0.3764   22.8092 C   0  0  0  0  0  0  0  0  0  0  0  0
   12.0463    1.2416   24.0244 C   0  0  0  0  0  0  0  0  0  0  0  0
   11.2342    1.0244   24.7277 H   0  0  0  0  0  0  0  0  0  0  0  0
   12.9996    1.0906   24.5459 H   0  0  0  0  0  0  0  0  0  0  0  0
   11.9580    2.3008   23.7731 H   0  0  0  0  0  0  0  0  0  0  0  0
   12.6887   -0.7598   22.6642 N   0  0  0  0  0  0  0  0  0  0  0  0
   12.2535   -1.4245   21.5643 C   0  0  0  0  0  0  0  0  0  0  0  0
   11.2635   -0.7897   20.9933 N   0  0  0  0  0  0  0  0  0  0  0  0
   12.6959   -2.3421   21.2091 H   0  0  0  0  0  0  0  0  0  0  0  0
   13.4362   -1.0357   23.2806 H   0  0  0  0  0  0  0  0  0  0  0  0
    9.6853    1.0340   20.2967 H   0  0  0  0  0  0  0  0  0  0  0  0
   10.3165    2.3200   21.3698 H   0  0  0  0  0  0  0  0  0  0  0  0
    8.8043    1.7917   23.3907 N   0  0  0  0  0  0  0  0  0  0  0  0
    7.9697    2.8754   25.8909 C   0  0  0  0  0  0  0  0  0  0  0  0
    7.6005    3.4037   27.1215 C   0  0  0  0  0  0  0  0  0  0  0  0
    8.1984    4.1977   27.5586 H   0  0  0  0  0  0  0  0  0  0  0  0
    8.8585    3.2391   25.3820 H   0  0  0  0  0  0  0  0  0  0  0  0
    5.4612    0.5858   25.5177 H   0  0  0  0  0  0  0  0  0  0  0  0
    4.8389    1.5323   27.7240 H   0  0  0  0  0  0  0  0  0  0  0  0
    6.9737    3.8406   29.7049 H   0  0  0  0  0  0  0  0  0  0  0  0
    5.5495    2.8018   29.7697 H   0  0  0  0  0  0  0  0  0  0  0  0
    5.4493    4.3979   29.0271 H   0  0  0  0  0  0  0  0  0  0  0  0
  1  2  1  0
  2  3  2  0
  3  4  1  0
  4  5  2  0
  5  6  1  0
  6  7  2  0
  7  8  1  0
  8  9  1  0
  9 10  1  0
 10 11  2  0
 11 12  1  0
 12 13  2  0
 13 14  1  0
 14 15  2  0
 15 16  1  0
 13 17  1  0
 12 18  1  0
 11 19  1  0
  9 20  1  0
  9 21  1  0
  8 22  1  0
 22 23  1  0
 23 24  1  0
 24 25  2  0
 25 26  1  0
 26 27  1  0
 26 28  1  0
 26 29  1  0
 25 30  1  0
 30 31  1  0
 31 32  2  0
 31 33  1  0
 30 34  1  0
 23 35  1  0
 23 36  1  0
 22 37  2  0
  5 38  1  0
 38 39  2  0
 39 40  1  0
 38 41  1  0
  4 42  1  0
  3 43  1  0
  1 44  1  0
  1 45  1  0
  1 46  1  0
 39  2  1  0
 37  6  1  0
 15 10  1  0
 32 24  1  0
M  END
>  <cnnaffinity>  (1) 
-5.79996

>  <filename>  (1) 
Cc1ccc(-c2nc(Cc3nc[nH]c3C)n(Cc3cccnc3)n2)cc1

$$$$
