
     RDKit          3D

 36 38  0  0  0  0  0  0  0  0999 V2000
    4.1157    2.4220   28.1405 C   0  0  0  0  0  0  0  0  0  0  0  0
    5.2788    1.8547   27.3651 C   0  0  0  0  0  0  0  0  0  0  0  0
    6.4879    1.6117   28.0277 C   0  0  0  0  0  0  0  0  0  0  0  0
    7.5795    1.0905   27.3366 C   0  0  0  0  0  0  0  0  0  0  0  0
    7.4682    0.8133   25.9705 C   0  0  0  0  0  0  0  0  0  0  0  0
    6.2710    1.0439   25.2849 C   0  0  0  0  0  0  0  0  0  0  0  0
    6.1764    0.7332   23.9227 N   0  0  0  0  0  0  0  0  0  0  0  0
    7.2477    0.9641   22.9418 C   0  0  0  0  0  0  0  0  0  0  0  0
    7.6132   -0.3394   22.2948 C   0  0  0  0  0  0  0  0  0  0  0  0
    8.3434   -1.3434   22.8573 C   0  0  0  0  0  0  0  0  0  0  0  0
    8.5101   -2.2745   21.8466 N   0  0  0  0  0  0  0  0  0  0  0  0
    7.9432   -1.8915   20.6692 N   0  0  0  0  0  0  0  0  0  0  0  0
    7.3723   -0.7376   20.9165 C   0  0  0  0  0  0  0  0  0  0  0  0
    6.6552    0.0081   19.8986 C   0  0  0  0  0  0  0  0  0  0  0  0
    5.4504    0.6607   20.1719 C   0  0  0  0  0  0  0  0  0  0  0  0
    4.8264    1.3105   19.1091 C   0  0  0  0  0  0  0  0  0  0  0  0
    5.4060    1.2936   17.8344 C   0  0  0  0  0  0  0  0  0  0  0  0
    6.5703    0.6687   17.5832 N   0  0  0  0  0  0  0  0  0  0  0  0
    7.1786    0.0397   18.6011 C   0  0  0  0  0  0  0  0  0  0  0  0
    8.1269   -0.4502   18.4009 H   0  0  0  0  0  0  0  0  0  0  0  0
    4.8932    1.7937   17.0187 H   0  0  0  0  0  0  0  0  0  0  0  0
    3.8872    1.8298   19.2595 H   0  0  0  0  0  0  0  0  0  0  0  0
    5.0029    0.6430   21.1682 H   0  0  0  0  0  0  0  0  0  0  0  0
    9.0277   -3.1434   21.9650 H   0  0  0  0  0  0  0  0  0  0  0  0
    8.7277   -1.3886   23.8742 H   0  0  0  0  0  0  0  0  0  0  0  0
    6.9237    1.6971   22.1912 H   0  0  0  0  0  0  0  0  0  0  0  0
    8.1283    1.3838   23.4407 H   0  0  0  0  0  0  0  0  0  0  0  0
    5.2708    0.4361   23.5680 H   0  0  0  0  0  0  0  0  0  0  0  0
    5.1658    1.5657   25.9880 C   0  0  0  0  0  0  0  0  0  0  0  0
    3.5147    1.9377   25.0749 Br  0  0  0  0  0  0  0  0  0  0  0  0
    8.3084    0.3943   25.4332 H   0  0  0  0  0  0  0  0  0  0  0  0
    8.5065    0.8939   27.8650 H   0  0  0  0  0  0  0  0  0  0  0  0
    6.5770    1.8251   29.0894 H   0  0  0  0  0  0  0  0  0  0  0  0
    4.3707    2.5536   29.1976 H   0  0  0  0  0  0  0  0  0  0  0  0
    3.8273    3.3952   27.7342 H   0  0  0  0  0  0  0  0  0  0  0  0
    3.2550    1.7505   28.0778 H   0  0  0  0  0  0  0  0  0  0  0  0
  1  2  1  0
  2  3  2  0
  3  4  1  0
  4  5  2  0
  5  6  1  0
  6  7  1  0
  7  8  1  0
  8  9  1  0
  9 10  2  0
 10 11  1  0
 11 12  1  0
 12 13  2  0
 13 14  1  0
 14 15  2  0
 15 16  1  0
 16 17  2  0
 17 18  1  0
 18 19  2  0
 19 20  1  0
 17 21  1  0
 16 22  1  0
 15 23  1  0
 11 24  1  0
 10 25  1  0
  8 26  1  0
  8 27  1  0
  7 28  1  0
  6 29  2  0
 29 30  1  0
  5 31  1  0
  4 32  1  0
  3 33  1  0
  1 34  1  0
  1 35  1  0
  1 36  1  0
 29  2  1  0
 13  9  1  0
 19 14  1  0
M  END
>  <cnnaffinity>  (1) 
-5.23833

>  <filename>  (1) 
Cc1cccc(NCc2c[nH]nc2-c2cccnc2)c1Br

$$$$
