
     RDKit          3D

 31 32  0  0  0  0  0  0  0  0999 V2000
    4.9325    1.7733   16.9994 H   0  0  0  0  0  0  0  0  0  0  0  0
    5.4101    1.2865   17.8483 C   0  0  0  0  0  0  0  0  0  0  0  0
    6.5747    0.6656   17.6072 N   0  0  0  0  0  0  0  0  0  0  0  0
    7.1810    0.0564   18.6321 C   0  0  0  0  0  0  0  0  0  0  0  0
    8.1187   -0.4408   18.3928 H   0  0  0  0  0  0  0  0  0  0  0  0
    6.6690    0.0448   19.9337 C   0  0  0  0  0  0  0  0  0  0  0  0
    7.4022   -0.7420   20.9715 C   0  0  0  0  0  0  0  0  0  0  0  0
    8.1126   -1.6890   20.6825 O   0  0  0  0  0  0  0  0  0  0  0  0
    7.1786   -0.3521   22.2886 N   0  0  0  0  0  0  0  0  0  0  0  0
    7.2509   -1.3525   23.3558 C   0  0  0  0  0  0  0  0  0  0  0  0
    6.3930   -1.2014   24.0287 H   0  0  0  0  0  0  0  0  0  0  0  0
    7.1540   -2.3488   22.9212 H   0  0  0  0  0  0  0  0  0  0  0  0
    8.5412   -1.2370   24.1645 C   0  0  0  0  0  0  0  0  0  0  0  0
    8.5300   -1.9585   24.9924 H   0  0  0  0  0  0  0  0  0  0  0  0
    9.3811   -1.5147   23.5158 H   0  0  0  0  0  0  0  0  0  0  0  0
    8.7422    0.1856   24.7085 C   0  0  0  0  0  0  0  0  0  0  0  0
    7.9195    0.3982   25.4113 H   0  0  0  0  0  0  0  0  0  0  0  0
   10.0615    0.3139   25.4685 C   0  0  0  0  0  0  0  0  0  0  0  0
   10.9098    0.1067   24.8050 H   0  0  0  0  0  0  0  0  0  0  0  0
   10.1936    1.3241   25.8717 H   0  0  0  0  0  0  0  0  0  0  0  0
   10.1127   -0.3940   26.3036 H   0  0  0  0  0  0  0  0  0  0  0  0
    8.6480    1.1973   23.5558 C   0  0  0  0  0  0  0  0  0  0  0  0
    9.5055    1.0656   22.8844 H   0  0  0  0  0  0  0  0  0  0  0  0
    8.7186    2.2204   23.9462 H   0  0  0  0  0  0  0  0  0  0  0  0
    7.3488    1.0316   22.7504 C   0  0  0  0  0  0  0  0  0  0  0  0
    7.3444    1.7142   21.8960 H   0  0  0  0  0  0  0  0  0  0  0  0
    6.5002    1.3099   23.3948 H   0  0  0  0  0  0  0  0  0  0  0  0
    5.4362    0.6737   20.1716 C   0  0  0  0  0  0  0  0  0  0  0  0
    4.9846    0.6475   21.1675 H   0  0  0  0  0  0  0  0  0  0  0  0
    4.8023    1.3107   19.1085 C   0  0  0  0  0  0  0  0  0  0  0  0
    3.8694    1.8437   19.2538 H   0  0  0  0  0  0  0  0  0  0  0  0
  1  2  1  0
  2  3  2  0
  3  4  1  0
  4  5  1  0
  4  6  2  0
  6  7  1  0
  7  8  2  0
  7  9  1  0
  9 10  1  0
 10 11  1  0
 10 12  1  0
 10 13  1  0
 13 14  1  0
 13 15  1  0
 13 16  1  0
 16 17  1  0
 16 18  1  0
 18 19  1  0
 18 20  1  0
 18 21  1  0
 16 22  1  0
 22 23  1  0
 22 24  1  0
 22 25  1  0
 25 26  1  0
 25 27  1  0
  6 28  1  0
 28 29  1  0
 28 30  2  0
 30 31  1  0
 30  2  1  0
 25  9  1  0
M  END
>  <cnnaffinity>  (1) 
-4.34484

>  <filename>  (1) 
CC1CCN(C(=O)c2cccnc2)CC1

$$$$
