
     RDKit          3D

 47 50  0  0  0  0  0  0  0  0999 V2000
    5.0102    0.9578   24.8151 C   0  0  0  0  0  0  0  0  0  0  0  0
    6.1019   -0.0872   24.8795 C   0  0  0  0  0  0  0  0  0  0  0  0
    5.7872   -1.4333   25.0881 C   0  0  0  0  0  0  0  0  0  0  0  0
    6.8089   -2.3861   25.1525 C   0  0  0  0  0  0  0  0  0  0  0  0
    8.1233   -1.9478   25.0281 C   0  0  0  0  0  0  0  0  0  0  0  0
    8.4524   -0.6640   24.8319 N   0  0  0  0  0  0  0  0  0  0  0  0
    7.4699    0.2437   24.7154 C   0  0  0  0  0  0  0  0  0  0  0  0
    7.9098    1.6536   24.3581 C   0  0  0  0  0  0  0  0  0  0  0  0
    8.0243    1.9489   22.8265 C   0  0  0  0  0  0  0  0  0  0  0  0
    9.1651    1.2021   22.1184 C   0  0  0  0  0  0  0  0  0  0  0  0
   10.3351    1.6563   22.1197 N   0  0  0  0  0  0  0  0  0  0  0  0
   11.3281   -0.0490   21.2581 C   0  0  0  0  0  0  0  0  0  0  0  0
   11.3277   -0.0496   21.2476 C   0  0  0  0  0  0  0  0  0  0  0  0
   12.5880    0.4425   22.7868 C   0  0  0  0  0  0  0  0  0  0  0  0
   13.8412    0.0853   22.4104 C   0  0  0  0  0  0  0  0  0  0  0  0
   14.9185    0.8755   22.6351 F   0  0  0  0  0  0  0  0  0  0  0  0
   14.0520   -1.0894   21.6364 C   0  0  0  0  0  0  0  0  0  0  0  0
   13.1772   -2.1206   21.6705 N   0  0  0  0  0  0  0  0  0  0  0  0
   11.9441   -2.0303   21.8997 C   0  0  0  0  0  0  0  0  0  0  0  0
   11.2152   -2.8138   21.9474 H   0  0  0  0  0  0  0  0  0  0  0  0
   14.8934   -1.2035   20.9642 H   0  0  0  0  0  0  0  0  0  0  0  0
   12.3996    1.1688   23.5861 H   0  0  0  0  0  0  0  0  0  0  0  0
    9.9939   -0.6657   20.9149 N   0  0  0  0  0  0  0  0  0  0  0  0
    8.9070   -0.0487   21.5579 N   0  0  0  0  0  0  0  0  0  0  0  0
    7.5770   -0.6136   21.2618 C   0  0  0  0  0  0  0  0  0  0  0  0
    6.8556    0.0377   20.0949 C   0  0  0  0  0  0  0  0  0  0  0  0
    5.5929    0.6288   20.2083 C   0  0  0  0  0  0  0  0  0  0  0  0
    5.0117    1.2178   19.0796 C   0  0  0  0  0  0  0  0  0  0  0  0
    5.7169    1.1870   17.8723 C   0  0  0  0  0  0  0  0  0  0  0  0
    6.9224    0.6145   17.7331 N   0  0  0  0  0  0  0  0  0  0  0  0
    7.4679    0.0648   18.8263 C   0  0  0  0  0  0  0  0  0  0  0  0
    8.4559   -0.3860   18.7114 H   0  0  0  0  0  0  0  0  0  0  0  0
    5.2941    1.6415   16.9772 H   0  0  0  0  0  0  0  0  0  0  0  0
    4.0425    1.7055   19.1268 H   0  0  0  0  0  0  0  0  0  0  0  0
    5.0675    0.6317   21.1678 H   0  0  0  0  0  0  0  0  0  0  0  0
    7.7521   -1.6811   21.0602 H   0  0  0  0  0  0  0  0  0  0  0  0
    6.9760   -0.5500   22.1748 H   0  0  0  0  0  0  0  0  0  0  0  0
    8.2128    3.0263   22.6986 H   0  0  0  0  0  0  0  0  0  0  0  0
    7.0693    1.7640   22.3180 H   0  0  0  0  0  0  0  0  0  0  0  0
    7.2175    2.3846   24.7868 H   0  0  0  0  0  0  0  0  0  0  0  0
    8.8814    1.8292   24.8321 H   0  0  0  0  0  0  0  0  0  0  0  0
    8.9547   -2.6503   25.0738 H   0  0  0  0  0  0  0  0  0  0  0  0
    6.5986   -3.4404   25.2986 H   0  0  0  0  0  0  0  0  0  0  0  0
    4.7410   -1.7279   25.1875 H   0  0  0  0  0  0  0  0  0  0  0  0
    5.1462    1.7295   25.5814 H   0  0  0  0  0  0  0  0  0  0  0  0
    5.0066    1.4625   23.8416 H   0  0  0  0  0  0  0  0  0  0  0  0
    4.0243    0.5088   24.9590 H   0  0  0  0  0  0  0  0  0  0  0  0
  1  2  1  0
  2  3  2  0
  3  4  1  0
  4  5  2  0
  5  6  1  0
  6  7  2  0
  7  8  1  0
  8  9  1  0
  9 10  1  0
 10 11  2  0
 11 12  1  0
 12 13  1  0
 13 14  2  0
 14 15  1  0
 15 16  1  0
 15 17  2  0
 17 18  1  0
 18 19  2  0
 19 20  1  0
 17 21  1  0
 14 22  1  0
 12 23  2  0
 23 24  1  0
 24 25  1  0
 25 26  1  0
 26 27  2  0
 27 28  1  0
 28 29  2  0
 29 30  1  0
 30 31  2  0
 31 32  1  0
 29 33  1  0
 28 34  1  0
 27 35  1  0
 25 36  1  0
 25 37  1  0
  9 38  1  0
  9 39  1  0
  8 40  1  0
  8 41  1  0
  5 42  1  0
  4 43  1  0
  3 44  1  0
  1 45  1  0
  1 46  1  0
  1 47  1  0
  7  2  1  0
 24 10  1  0
 31 26  1  0
 19 13  1  0
M  END
>  <cnnaffinity>  (1) 
-6.83737

>  <filename>  (1) 
Cc1cccnc1CCc1nc(-c2cncc(F)c2)nn1Cc1cccnc1

$$$$
