
     RDKit          3D

 46 49  0  0  0  0  0  0  0  0999 V2000
   12.2191   -1.3494   21.7931 C   0  0  0  0  0  0  0  0  0  0  0  0
   11.7750    0.0500   22.0838 C   0  0  0  0  0  0  0  0  0  0  0  0
   10.6770    0.7406   21.6006 C   0  0  0  0  0  0  0  0  0  0  0  0
    9.6087    0.1857   20.6851 C   0  0  0  0  0  0  0  0  0  0  0  0
    8.5686   -0.6738   21.3406 C   0  0  0  0  0  0  0  0  0  0  0  0
    8.7647   -1.5145   22.3316 N   0  0  0  0  0  0  0  0  0  0  0  0
    7.5269   -2.0393   22.5559 C   0  0  0  0  0  0  0  0  0  0  0  0
    7.3355   -3.0230   23.6666 C   0  0  0  0  0  0  0  0  0  0  0  0
    7.7281   -2.4552   25.0490 C   0  0  0  0  0  0  0  0  0  0  0  0
    8.0152   -3.6787   25.9349 C   0  0  0  0  0  0  0  0  0  0  0  0
    8.3378   -4.8458   24.9713 C   0  0  0  0  0  0  0  0  0  0  0  0
    8.2415   -4.2687   23.5485 C   0  0  0  0  0  0  0  0  0  0  0  0
    9.2344   -3.9408   23.2155 H   0  0  0  0  0  0  0  0  0  0  0  0
    7.8661   -4.9938   22.8190 H   0  0  0  0  0  0  0  0  0  0  0  0
    7.6242   -5.6639   25.1175 H   0  0  0  0  0  0  0  0  0  0  0  0
    9.3303   -5.2694   25.1553 H   0  0  0  0  0  0  0  0  0  0  0  0
    8.8390   -3.4743   26.6261 H   0  0  0  0  0  0  0  0  0  0  0  0
    7.1478   -3.9283   26.5553 H   0  0  0  0  0  0  0  0  0  0  0  0
    6.9553   -1.7989   25.4624 H   0  0  0  0  0  0  0  0  0  0  0  0
    8.6411   -1.8591   24.9284 H   0  0  0  0  0  0  0  0  0  0  0  0
    6.2814   -3.3170   23.6632 H   0  0  0  0  0  0  0  0  0  0  0  0
    6.5906   -1.6002   21.7414 N   0  0  0  0  0  0  0  0  0  0  0  0
    7.2671   -0.7445   20.9265 N   0  0  0  0  0  0  0  0  0  0  0  0
    6.5997   -0.0503   19.8817 C   0  0  0  0  0  0  0  0  0  0  0  0
    5.3973    0.6182   20.1364 C   0  0  0  0  0  0  0  0  0  0  0  0
    4.7992    1.3146   19.0834 C   0  0  0  0  0  0  0  0  0  0  0  0
    5.4021    1.3080   17.8192 C   0  0  0  0  0  0  0  0  0  0  0  0
    6.5404    0.6508   17.5597 N   0  0  0  0  0  0  0  0  0  0  0  0
    7.1205   -0.0041   18.5712 C   0  0  0  0  0  0  0  0  0  0  0  0
    8.0582   -0.5022   18.3360 H   0  0  0  0  0  0  0  0  0  0  0  0
    4.9527    1.8431   16.9836 H   0  0  0  0  0  0  0  0  0  0  0  0
    3.8797    1.8645   19.2332 H   0  0  0  0  0  0  0  0  0  0  0  0
    4.9689    0.5909   21.1406 H   0  0  0  0  0  0  0  0  0  0  0  0
    9.1127    0.9979   20.1489 H   0  0  0  0  0  0  0  0  0  0  0  0
   10.0624   -0.4586   19.9225 H   0  0  0  0  0  0  0  0  0  0  0  0
   10.7167    1.9753   22.2848 C   0  0  0  0  0  0  0  0  0  0  0  0
   11.7293    2.0402   23.1325 N   0  0  0  0  0  0  0  0  0  0  0  0
   12.3773    0.8695   22.9946 N   0  0  0  0  0  0  0  0  0  0  0  0
   13.4434    0.5835   23.9398 C   0  0  0  0  0  0  0  0  0  0  0  0
   14.3344    0.1926   23.4378 H   0  0  0  0  0  0  0  0  0  0  0  0
   13.1045   -0.0947   24.7289 H   0  0  0  0  0  0  0  0  0  0  0  0
   13.6756    1.5401   24.4057 H   0  0  0  0  0  0  0  0  0  0  0  0
    9.9958    2.7837   22.2509 H   0  0  0  0  0  0  0  0  0  0  0  0
   13.3023   -1.4748   21.8801 H   0  0  0  0  0  0  0  0  0  0  0  0
   11.9386   -1.6650   20.7849 H   0  0  0  0  0  0  0  0  0  0  0  0
   11.7261   -2.0439   22.4828 H   0  0  0  0  0  0  0  0  0  0  0  0
  1  2  1  0
  2  3  2  0
  3  4  1  0
  4  5  1  0
  5  6  2  0
  6  7  1  0
  7  8  1  0
  8  9  1  0
  9 10  1  0
 10 11  1  0
 11 12  1  0
 12 13  1  0
 12 14  1  0
 11 15  1  0
 11 16  1  0
 10 17  1  0
 10 18  1  0
  9 19  1  0
  9 20  1  0
  8 21  1  0
  7 22  2  0
 22 23  1  0
 23 24  1  0
 24 25  2  0
 25 26  1  0
 26 27  2  0
 27 28  1  0
 28 29  2  0
 29 30  1  0
 27 31  1  0
 26 32  1  0
 25 33  1  0
  4 34  1  0
  4 35  1  0
  3 36  1  0
 36 37  2  0
 37 38  1  0
 38 39  1  0
 39 40  1  0
 39 41  1  0
 39 42  1  0
 36 43  1  0
  1 44  1  0
  1 45  1  0
  1 46  1  0
 38  2  1  0
 23  5  1  0
 29 24  1  0
 12  8  1  0
M  END
>  <cnnaffinity>  (1) 
-6.50129

>  <filename>  (1) 
Cc1c(Cc2nc(C3CCCC3)nn2-c2cccnc2)cnn1C

$$$$
