
     RDKit          3D

 52 55  0  0  0  0  0  0  0  0999 V2000
    7.8208   -4.9095   27.6125 C   0  0  0  0  0  0  0  0  0  0  0  0
    8.0928   -3.9890   26.4233 C   0  0  0  0  0  0  0  0  0  0  0  0
    6.9981   -2.9205   26.2713 C   0  0  0  0  0  0  0  0  0  0  0  0
    7.2418   -2.0076   25.0678 C   0  0  0  0  0  0  0  0  0  0  0  0
    7.4069   -2.8225   23.7605 C   0  0  0  0  0  0  0  0  0  0  0  0
    7.6548   -1.9128   22.5955 C   0  0  0  0  0  0  0  0  0  0  0  0
    6.7246   -1.5713   21.7304 N   0  0  0  0  0  0  0  0  0  0  0  0
    7.3599   -0.6655   20.9365 N   0  0  0  0  0  0  0  0  0  0  0  0
    6.6587    0.0081   19.9004 C   0  0  0  0  0  0  0  0  0  0  0  0
    5.4408    0.6458   20.1636 C   0  0  0  0  0  0  0  0  0  0  0  0
    4.8129    1.3114   19.1079 C   0  0  0  0  0  0  0  0  0  0  0  0
    5.4005    1.2964   17.8365 C   0  0  0  0  0  0  0  0  0  0  0  0
    6.5596    0.6729   17.5753 N   0  0  0  0  0  0  0  0  0  0  0  0
    7.1688    0.0534   18.5922 C   0  0  0  0  0  0  0  0  0  0  0  0
    8.1136   -0.4347   18.3685 H   0  0  0  0  0  0  0  0  0  0  0  0
    4.9202    1.7863   16.9923 H   0  0  0  0  0  0  0  0  0  0  0  0
    3.8804    1.8389   19.2614 H   0  0  0  0  0  0  0  0  0  0  0  0
    5.0144    0.6071   21.1699 H   0  0  0  0  0  0  0  0  0  0  0  0
    8.6326   -0.4918   21.3999 C   0  0  0  0  0  0  0  0  0  0  0  0
    9.5193    0.6249   20.9435 C   0  0  0  0  0  0  0  0  0  0  0  0
    9.0518    2.0164   21.4547 C   0  0  0  0  0  0  0  0  0  0  0  0
    8.8297    2.0380   22.9340 C   0  0  0  0  0  0  0  0  0  0  0  0
    7.6676    1.8465   23.6409 C   0  0  0  0  0  0  0  0  0  0  0  0
    7.9018    1.7650   24.9839 N   0  0  0  0  0  0  0  0  0  0  0  0
    9.2021    1.8811   25.1037 C   0  0  0  0  0  0  0  0  0  0  0  0
    9.8252    2.0578   23.8931 N   0  0  0  0  0  0  0  0  0  0  0  0
   11.2570    2.1057   23.6650 C   0  0  0  0  0  0  0  0  0  0  0  0
   11.6851    1.1198   23.4433 H   0  0  0  0  0  0  0  0  0  0  0  0
   11.4902    2.7793   22.8362 H   0  0  0  0  0  0  0  0  0  0  0  0
   11.7521    2.4977   24.5532 H   0  0  0  0  0  0  0  0  0  0  0  0
    9.7545    1.8571   26.0339 H   0  0  0  0  0  0  0  0  0  0  0  0
    6.6785    1.7117   23.2232 H   0  0  0  0  0  0  0  0  0  0  0  0
    8.1028    2.2711   20.9702 H   0  0  0  0  0  0  0  0  0  0  0  0
    9.7700    2.7880   21.1470 H   0  0  0  0  0  0  0  0  0  0  0  0
    9.5774    0.6395   19.8538 H   0  0  0  0  0  0  0  0  0  0  0  0
   10.5219    0.4148   21.3224 H   0  0  0  0  0  0  0  0  0  0  0  0
    8.8587   -1.2999   22.4138 N   0  0  0  0  0  0  0  0  0  0  0  0
    8.5137   -3.8878   23.9097 C   0  0  0  0  0  0  0  0  0  0  0  0
    8.2563   -4.7893   25.1206 C   0  0  0  0  0  0  0  0  0  0  0  0
    7.3438   -5.3812   24.9523 H   0  0  0  0  0  0  0  0  0  0  0  0
    9.0703   -5.5169   25.2301 H   0  0  0  0  0  0  0  0  0  0  0  0
    8.5867   -4.4895   22.9965 H   0  0  0  0  0  0  0  0  0  0  0  0
    9.4829   -3.3829   24.0239 H   0  0  0  0  0  0  0  0  0  0  0  0
    6.4572   -3.3247   23.5501 H   0  0  0  0  0  0  0  0  0  0  0  0
    6.4191   -1.2886   24.9657 H   0  0  0  0  0  0  0  0  0  0  0  0
    8.1621   -1.4308   25.2319 H   0  0  0  0  0  0  0  0  0  0  0  0
    6.9267   -2.3196   27.1873 H   0  0  0  0  0  0  0  0  0  0  0  0
    6.0241   -3.4191   26.1591 H   0  0  0  0  0  0  0  0  0  0  0  0
    9.0416   -3.4609   26.6051 H   0  0  0  0  0  0  0  0  0  0  0  0
    8.6178   -5.6501   27.7429 H   0  0  0  0  0  0  0  0  0  0  0  0
    6.8777   -5.4520   27.4730 H   0  0  0  0  0  0  0  0  0  0  0  0
    7.7343   -4.3466   28.5446 H   0  0  0  0  0  0  0  0  0  0  0  0
  1  2  1  0
  2  3  1  0
  3  4  1  0
  4  5  1  0
  5  6  1  0
  6  7  2  0
  7  8  1  0
  8  9  1  0
  9 10  2  0
 10 11  1  0
 11 12  2  0
 12 13  1  0
 13 14  2  0
 14 15  1  0
 12 16  1  0
 11 17  1  0
 10 18  1  0
  8 19  1  0
 19 20  1  0
 20 21  1  0
 21 22  1  0
 22 23  2  0
 23 24  1  0
 24 25  2  0
 25 26  1  0
 26 27  1  0
 27 28  1  0
 27 29  1  0
 27 30  1  0
 25 31  1  0
 23 32  1  0
 21 33  1  0
 21 34  1  0
 20 35  1  0
 20 36  1  0
 19 37  2  0
  5 38  1  0
 38 39  1  0
 39 40  1  0
 39 41  1  0
 38 42  1  0
 38 43  1  0
  5 44  1  0
  4 45  1  0
  4 46  1  0
  3 47  1  0
  3 48  1  0
  2 49  1  0
  1 50  1  0
  1 51  1  0
  1 52  1  0
 39  2  1  0
 37  6  1  0
 14  9  1  0
 26 22  1  0
M  END
>  <cnnaffinity>  (1) 
-6.36338

>  <filename>  (1) 
CC1CCC(c2nc(CCc3cncn3C)n(-c3cccnc3)n2)CC1

$$$$
