
     RDKit          3D

 45 48  0  0  0  0  0  0  0  0999 V2000
   10.6035    3.3164   23.8125 C   0  0  0  0  0  0  0  0  0  0  0  0
    9.5253    4.2082   23.2403 C   0  0  0  0  0  0  0  0  0  0  0  0
    9.4416    5.5537   23.6212 C   0  0  0  0  0  0  0  0  0  0  0  0
    8.4454    6.3643   23.0749 C   0  0  0  0  0  0  0  0  0  0  0  0
    7.5632    5.8021   22.1565 C   0  0  0  0  0  0  0  0  0  0  0  0
    7.6206    4.5166   21.7805 N   0  0  0  0  0  0  0  0  0  0  0  0
    8.5762    3.7330   22.2933 C   0  0  0  0  0  0  0  0  0  0  0  0
    8.5679    2.2877   21.7987 C   0  0  0  0  0  0  0  0  0  0  0  0
    7.6993    1.3169   22.6615 C   0  0  0  0  0  0  0  0  0  0  0  0
    7.6760   -0.1195   22.2011 C   0  0  0  0  0  0  0  0  0  0  0  0
    8.1321   -1.1677   22.8674 N   0  0  0  0  0  0  0  0  0  0  0  0
    8.0345   -2.1854   21.9704 C   0  0  0  0  0  0  0  0  0  0  0  0
    8.4999   -3.5923   22.2105 C   0  0  0  0  0  0  0  0  0  0  0  0
    7.6493   -4.4390   23.1586 C   0  0  0  0  0  0  0  0  0  0  0  0
    7.7094   -4.1738   24.6358 C   0  0  0  0  0  0  0  0  0  0  0  0
    8.3502   -5.4073   24.0713 C   0  0  0  0  0  0  0  0  0  0  0  0
    9.4350   -5.4416   24.0108 H   0  0  0  0  0  0  0  0  0  0  0  0
    7.8896   -6.3687   24.2595 H   0  0  0  0  0  0  0  0  0  0  0  0
    8.3630   -3.3669   24.9584 H   0  0  0  0  0  0  0  0  0  0  0  0
    6.7960   -4.2907   25.2144 H   0  0  0  0  0  0  0  0  0  0  0  0
    6.6798   -4.7397   22.7591 H   0  0  0  0  0  0  0  0  0  0  0  0
    9.5269   -3.5201   22.5915 H   0  0  0  0  0  0  0  0  0  0  0  0
    8.5385   -4.0685   21.2255 H   0  0  0  0  0  0  0  0  0  0  0  0
    7.5522   -1.8340   20.7998 N   0  0  0  0  0  0  0  0  0  0  0  0
    7.2734   -0.5146   20.9555 N   0  0  0  0  0  0  0  0  0  0  0  0
    6.6135    0.1695   19.8986 C   0  0  0  0  0  0  0  0  0  0  0  0
    5.4242    0.8852   20.0808 C   0  0  0  0  0  0  0  0  0  0  0  0
    4.8342    1.4609   18.9462 C   0  0  0  0  0  0  0  0  0  0  0  0
    5.4615    1.3286   17.7043 C   0  0  0  0  0  0  0  0  0  0  0  0
    6.6007    0.6368   17.5278 N   0  0  0  0  0  0  0  0  0  0  0  0
    7.1410    0.0548   18.6008 C   0  0  0  0  0  0  0  0  0  0  0  0
    8.0275   -0.5533   18.4416 H   0  0  0  0  0  0  0  0  0  0  0  0
    5.0421    1.7911   16.8133 H   0  0  0  0  0  0  0  0  0  0  0  0
    3.9015    2.0065   19.0204 H   0  0  0  0  0  0  0  0  0  0  0  0
    4.9494    0.9478   21.0598 H   0  0  0  0  0  0  0  0  0  0  0  0
    8.0577    1.3001   23.6988 H   0  0  0  0  0  0  0  0  0  0  0  0
    6.6706    1.6890   22.7001 H   0  0  0  0  0  0  0  0  0  0  0  0
    8.1768    2.2987   20.7751 H   0  0  0  0  0  0  0  0  0  0  0  0
    9.5926    1.8985   21.7459 H   0  0  0  0  0  0  0  0  0  0  0  0
    6.7648    6.3929   21.7109 H   0  0  0  0  0  0  0  0  0  0  0  0
    8.3488    7.4102   23.3456 H   0  0  0  0  0  0  0  0  0  0  0  0
   10.1504    5.9544   24.3517 H   0  0  0  0  0  0  0  0  0  0  0  0
   10.1826    2.5632   24.4878 H   0  0  0  0  0  0  0  0  0  0  0  0
   11.3445    3.8895   24.3739 H   0  0  0  0  0  0  0  0  0  0  0  0
   11.1364    2.7879   23.0167 H   0  0  0  0  0  0  0  0  0  0  0  0
  1  2  1  0
  2  3  2  0
  3  4  1  0
  4  5  2  0
  5  6  1  0
  6  7  2  0
  7  8  1  0
  8  9  1  0
  9 10  1  0
 10 11  2  0
 11 12  1  0
 12 13  1  0
 13 14  1  0
 14 15  1  0
 15 16  1  0
 16 17  1  0
 16 18  1  0
 15 19  1  0
 15 20  1  0
 14 21  1  0
 13 22  1  0
 13 23  1  0
 12 24  2  0
 24 25  1  0
 25 26  1  0
 26 27  2  0
 27 28  1  0
 28 29  2  0
 29 30  1  0
 30 31  2  0
 31 32  1  0
 29 33  1  0
 28 34  1  0
 27 35  1  0
  9 36  1  0
  9 37  1  0
  8 38  1  0
  8 39  1  0
  5 40  1  0
  4 41  1  0
  3 42  1  0
  1 43  1  0
  1 44  1  0
  1 45  1  0
  7  2  1  0
 25 10  1  0
 31 26  1  0
 16 14  1  0
M  END
>  <cnnaffinity>  (1) 
-6.098

>  <filename>  (1) 
Cc1cccnc1CCc1nc(CC2CC2)nn1-c1cccnc1

$$$$
