
     RDKit          3D

 45 48  0  0  0  0  0  0  0  0999 V2000
    4.3374    1.5624   27.7271 C   0  0  0  0  0  0  0  0  0  0  0  0
    5.6267    2.0425   27.1000 C   0  0  0  0  0  0  0  0  0  0  0  0
    6.4127    3.0289   27.7154 C   0  0  0  0  0  0  0  0  0  0  0  0
    7.5871    3.4868   27.1067 C   0  0  0  0  0  0  0  0  0  0  0  0
    7.9825    2.9785   25.8721 C   0  0  0  0  0  0  0  0  0  0  0  0
    7.1920    2.0102   25.2185 C   0  0  0  0  0  0  0  0  0  0  0  0
    7.5963    1.5112   23.8837 C   0  0  0  0  0  0  0  0  0  0  0  0
    7.0154    0.5053   23.2483 N   0  0  0  0  0  0  0  0  0  0  0  0
    7.7719    0.3520   22.1380 N   0  0  0  0  0  0  0  0  0  0  0  0
    7.3412   -0.5821   21.0984 C   0  0  0  0  0  0  0  0  0  0  0  0
    6.6571    0.0772   19.9169 C   0  0  0  0  0  0  0  0  0  0  0  0
    5.4389    0.7362   20.1199 C   0  0  0  0  0  0  0  0  0  0  0  0
    4.8199    1.3549   19.0322 C   0  0  0  0  0  0  0  0  0  0  0  0
    5.4456    1.2947   17.7817 C   0  0  0  0  0  0  0  0  0  0  0  0
    6.6028    0.6509   17.5622 N   0  0  0  0  0  0  0  0  0  0  0  0
    7.1814    0.0588   18.6156 C   0  0  0  0  0  0  0  0  0  0  0  0
    8.1071   -0.4793   18.4024 H   0  0  0  0  0  0  0  0  0  0  0  0
    4.9967    1.7740   16.9139 H   0  0  0  0  0  0  0  0  0  0  0  0
    3.8794    1.8859   19.1417 H   0  0  0  0  0  0  0  0  0  0  0  0
    5.0034    0.7550   21.1219 H   0  0  0  0  0  0  0  0  0  0  0  0
    6.6461   -1.2532   21.6107 H   0  0  0  0  0  0  0  0  0  0  0  0
    8.1914   -1.1840   20.7657 H   0  0  0  0  0  0  0  0  0  0  0  0
    8.7647    1.2675   22.1505 C   0  0  0  0  0  0  0  0  0  0  0  0
    9.9424    1.2672   21.2253 C   0  0  0  0  0  0  0  0  0  0  0  0
   11.0309    0.2789   21.6172 C   0  0  0  0  0  0  0  0  0  0  0  0
   12.0401    0.6627   22.5092 C   0  0  0  0  0  0  0  0  0  0  0  0
   13.0657   -0.2328   22.8147 C   0  0  0  0  0  0  0  0  0  0  0  0
   13.0253   -1.4956   22.2165 C   0  0  0  0  0  0  0  0  0  0  0  0
   12.0270   -1.9097   21.4363 N   0  0  0  0  0  0  0  0  0  0  0  0
   11.0508   -1.0445   21.1628 C   0  0  0  0  0  0  0  0  0  0  0  0
   10.2485   -1.4139   20.5294 H   0  0  0  0  0  0  0  0  0  0  0  0
   13.8239   -2.2216   22.3138 H   0  0  0  0  0  0  0  0  0  0  0  0
   13.8629    0.0221   23.5058 H   0  0  0  0  0  0  0  0  0  0  0  0
   12.0118    1.6653   22.9324 H   0  0  0  0  0  0  0  0  0  0  0  0
   10.3463    2.2842   21.2617 H   0  0  0  0  0  0  0  0  0  0  0  0
    9.5885    1.0678   20.2110 H   0  0  0  0  0  0  0  0  0  0  0  0
    8.6643    2.0304   23.2165 N   0  0  0  0  0  0  0  0  0  0  0  0
    6.0353    1.5305   25.8623 C   0  0  0  0  0  0  0  0  0  0  0  0
    5.4454    0.7412   25.3964 H   0  0  0  0  0  0  0  0  0  0  0  0
    8.9006    3.3238   25.4011 H   0  0  0  0  0  0  0  0  0  0  0  0
    8.1875    4.2524   27.5892 H   0  0  0  0  0  0  0  0  0  0  0  0
    6.0962    3.4391   28.6715 H   0  0  0  0  0  0  0  0  0  0  0  0
    4.1335    0.5191   27.4660 H   0  0  0  0  0  0  0  0  0  0  0  0
    4.3550    1.6327   28.8187 H   0  0  0  0  0  0  0  0  0  0  0  0
    3.4875    2.1581   27.3741 H   0  0  0  0  0  0  0  0  0  0  0  0
  1  2  1  0
  2  3  2  0
  3  4  1  0
  4  5  2  0
  5  6  1  0
  6  7  1  0
  7  8  2  0
  8  9  1  0
  9 10  1  0
 10 11  1  0
 11 12  2  0
 12 13  1  0
 13 14  2  0
 14 15  1  0
 15 16  2  0
 16 17  1  0
 14 18  1  0
 13 19  1  0
 12 20  1  0
 10 21  1  0
 10 22  1  0
  9 23  1  0
 23 24  1  0
 24 25  1  0
 25 26  2  0
 26 27  1  0
 27 28  2  0
 28 29  1  0
 29 30  2  0
 30 31  1  0
 28 32  1  0
 27 33  1  0
 26 34  1  0
 24 35  1  0
 24 36  1  0
 23 37  2  0
  6 38  2  0
 38 39  1  0
  5 40  1  0
  4 41  1  0
  3 42  1  0
  1 43  1  0
  1 44  1  0
  1 45  1  0
 38  2  1  0
 37  7  1  0
 16 11  1  0
 30 25  1  0
M  END
>  <cnnaffinity>  (1) 
-6.28657

>  <filename>  (1) 
Cc1cccc(-c2nc(Cc3cccnc3)n(Cc3cccnc3)n2)c1

$$$$
