
     RDKit          3D

 47 50  0  0  0  0  0  0  0  0999 V2000
    6.7099   -5.9510   26.7225 C   0  0  0  0  0  0  0  0  0  0  0  0
    6.9573   -4.9440   25.6281 C   0  0  0  0  0  0  0  0  0  0  0  0
    5.9121   -4.5363   24.7829 C   0  0  0  0  0  0  0  0  0  0  0  0
    6.1207   -3.5928   23.7812 C   0  0  0  0  0  0  0  0  0  0  0  0
    7.3988   -3.0402   23.5935 C   0  0  0  0  0  0  0  0  0  0  0  0
    7.6070   -2.0402   22.5347 C   0  0  0  0  0  0  0  0  0  0  0  0
    6.6563   -1.6106   21.7184 N   0  0  0  0  0  0  0  0  0  0  0  0
    7.3009   -0.7048   20.9461 N   0  0  0  0  0  0  0  0  0  0  0  0
    6.6281   -0.0247   19.8914 C   0  0  0  0  0  0  0  0  0  0  0  0
    5.4206    0.6282   20.1503 C   0  0  0  0  0  0  0  0  0  0  0  0
    4.7990    1.3108   19.1007 C   0  0  0  0  0  0  0  0  0  0  0  0
    5.3951    1.2976   17.8331 C   0  0  0  0  0  0  0  0  0  0  0  0
    6.5420    0.6531   17.5704 N   0  0  0  0  0  0  0  0  0  0  0  0
    7.1447    0.0180   18.5820 C   0  0  0  0  0  0  0  0  0  0  0  0
    8.0928   -0.4624   18.3433 H   0  0  0  0  0  0  0  0  0  0  0  0
    4.9362    1.8197   16.9961 H   0  0  0  0  0  0  0  0  0  0  0  0
    3.8718    1.8543   19.2529 H   0  0  0  0  0  0  0  0  0  0  0  0
    5.0055    0.5892   21.1578 H   0  0  0  0  0  0  0  0  0  0  0  0
    8.5926   -0.6073   21.3621 C   0  0  0  0  0  0  0  0  0  0  0  0
    9.6274    0.3049   20.7778 C   0  0  0  0  0  0  0  0  0  0  0  0
   10.4525    1.0650   21.8081 C   0  0  0  0  0  0  0  0  0  0  0  0
   11.6500    0.5519   22.3238 C   0  0  0  0  0  0  0  0  0  0  0  0
   12.1819   -0.7767   21.8633 C   0  0  0  0  0  0  0  0  0  0  0  0
   12.2027   -0.8686   20.7669 H   0  0  0  0  0  0  0  0  0  0  0  0
   13.1846   -0.9364   22.2678 H   0  0  0  0  0  0  0  0  0  0  0  0
   11.4948   -1.5553   22.2244 H   0  0  0  0  0  0  0  0  0  0  0  0
   12.3300    1.1666   23.2943 N   0  0  0  0  0  0  0  0  0  0  0  0
   11.7593    2.2417   23.8220 C   0  0  0  0  0  0  0  0  0  0  0  0
   10.5945    2.7786   23.4726 N   0  0  0  0  0  0  0  0  0  0  0  0
    9.9400    2.1845   22.4728 C   0  0  0  0  0  0  0  0  0  0  0  0
    8.5985    2.7510   22.1199 C   0  0  0  0  0  0  0  0  0  0  0  0
    8.6036    3.1513   21.1025 H   0  0  0  0  0  0  0  0  0  0  0  0
    8.3407    3.5483   22.8151 H   0  0  0  0  0  0  0  0  0  0  0  0
    7.8270    1.9762   22.1647 H   0  0  0  0  0  0  0  0  0  0  0  0
   12.2798    2.7140   24.6479 H   0  0  0  0  0  0  0  0  0  0  0  0
    9.1392    0.9992   20.0933 H   0  0  0  0  0  0  0  0  0  0  0  0
   10.2547   -0.3732   20.1922 H   0  0  0  0  0  0  0  0  0  0  0  0
    8.8171   -1.4602   22.3346 N   0  0  0  0  0  0  0  0  0  0  0  0
    8.4551   -3.4353   24.4371 C   0  0  0  0  0  0  0  0  0  0  0  0
    8.2300   -4.3793   25.4378 C   0  0  0  0  0  0  0  0  0  0  0  0
    9.0513   -4.6869   26.0821 H   0  0  0  0  0  0  0  0  0  0  0  0
    9.4429   -2.9946   24.3100 H   0  0  0  0  0  0  0  0  0  0  0  0
    5.3089   -3.2578   23.1374 H   0  0  0  0  0  0  0  0  0  0  0  0
    4.9222   -4.9643   24.9120 H   0  0  0  0  0  0  0  0  0  0  0  0
    5.9150   -6.6515   26.4483 H   0  0  0  0  0  0  0  0  0  0  0  0
    6.4045   -5.4621   27.6550 H   0  0  0  0  0  0  0  0  0  0  0  0
    7.6077   -6.5362   26.9420 H   0  0  0  0  0  0  0  0  0  0  0  0
  1  2  1  0
  2  3  2  0
  3  4  1  0
  4  5  2  0
  5  6  1  0
  6  7  2  0
  7  8  1  0
  8  9  1  0
  9 10  2  0
 10 11  1  0
 11 12  2  0
 12 13  1  0
 13 14  2  0
 14 15  1  0
 12 16  1  0
 11 17  1  0
 10 18  1  0
  8 19  1  0
 19 20  1  0
 20 21  1  0
 21 22  2  0
 22 23  1  0
 23 24  1  0
 23 25  1  0
 23 26  1  0
 22 27  1  0
 27 28  2  0
 28 29  1  0
 29 30  2  0
 30 31  1  0
 31 32  1  0
 31 33  1  0
 31 34  1  0
 28 35  1  0
 20 36  1  0
 20 37  1  0
 19 38  2  0
  5 39  1  0
 39 40  2  0
 40 41  1  0
 39 42  1  0
  4 43  1  0
  3 44  1  0
  1 45  1  0
  1 46  1  0
  1 47  1  0
 40  2  1  0
 38  6  1  0
 14  9  1  0
 30 21  1  0
M  END
>  <cnnaffinity>  (1) 
-6.33509

>  <filename>  (1) 
Cc1ccc(-c2nc(Cc3c(C)ncnc3C)n(-c3cccnc3)n2)cc1

$$$$
