
     RDKit          3D

 48 51  0  0  0  0  0  0  0  0999 V2000
    7.4798    0.5492   25.0512 C   0  0  0  0  0  0  0  0  0  0  0  0
    7.9517    1.9878   24.9822 C   0  0  0  0  0  0  0  0  0  0  0  0
    8.3338    2.6414   26.1618 C   0  0  0  0  0  0  0  0  0  0  0  0
    8.8195    3.9537   26.1482 C   0  0  0  0  0  0  0  0  0  0  0  0
    8.9720    4.6236   24.9349 C   0  0  0  0  0  0  0  0  0  0  0  0
    8.6049    3.9823   23.7490 C   0  0  0  0  0  0  0  0  0  0  0  0
    8.0518    2.6970   23.7636 C   0  0  0  0  0  0  0  0  0  0  0  0
    7.6987    2.0363   22.4449 C   0  0  0  0  0  0  0  0  0  0  0  0
    8.6478    0.9182   22.1382 C   0  0  0  0  0  0  0  0  0  0  0  0
    9.9446    0.9641   22.4025 N   0  0  0  0  0  0  0  0  0  0  0  0
   10.3860   -0.2503   22.0171 C   0  0  0  0  0  0  0  0  0  0  0  0
   11.7911   -0.6702   21.9344 C   0  0  0  0  0  0  0  0  0  0  0  0
   12.8774    0.1213   22.3489 C   0  0  0  0  0  0  0  0  0  0  0  0
   14.1439   -0.1628   21.8388 C   0  0  0  0  0  0  0  0  0  0  0  0
   14.2829   -1.1628   20.8604 C   0  0  0  0  0  0  0  0  0  0  0  0
   15.3272   -1.1466   19.9002 N   0  0  0  0  0  0  0  0  0  0  0  0
   16.2007   -1.3545   20.3699 H   0  0  0  0  0  0  0  0  0  0  0  0
   15.4566   -0.1772   19.6280 H   0  0  0  0  0  0  0  0  0  0  0  0
   13.2705   -2.0784   20.6358 C   0  0  0  0  0  0  0  0  0  0  0  0
   12.0257   -1.8388   21.1927 C   0  0  0  0  0  0  0  0  0  0  0  0
   11.1494   -2.4425   20.9926 H   0  0  0  0  0  0  0  0  0  0  0  0
   13.4773   -2.8771   19.9280 H   0  0  0  0  0  0  0  0  0  0  0  0
   14.9934    0.4822   22.0519 H   0  0  0  0  0  0  0  0  0  0  0  0
   12.7200    0.9960   22.9778 H   0  0  0  0  0  0  0  0  0  0  0  0
    9.4339   -1.0343   21.5283 N   0  0  0  0  0  0  0  0  0  0  0  0
    8.3296   -0.2803   21.5896 N   0  0  0  0  0  0  0  0  0  0  0  0
    7.0951   -0.8244   21.0334 C   0  0  0  0  0  0  0  0  0  0  0  0
    6.5307   -0.0203   19.8867 C   0  0  0  0  0  0  0  0  0  0  0  0
    5.3065    0.6372   20.0101 C   0  0  0  0  0  0  0  0  0  0  0  0
    4.8089    1.3544   18.9208 C   0  0  0  0  0  0  0  0  0  0  0  0
    5.5575    1.3747   17.7417 C   0  0  0  0  0  0  0  0  0  0  0  0
    6.7396    0.7555   17.6027 N   0  0  0  0  0  0  0  0  0  0  0  0
    7.2159    0.0904   18.6637 C   0  0  0  0  0  0  0  0  0  0  0  0
    8.1856   -0.3874   18.5214 H   0  0  0  0  0  0  0  0  0  0  0  0
    5.1877    1.9078   16.8677 H   0  0  0  0  0  0  0  0  0  0  0  0
    3.8716    1.8940   18.9830 H   0  0  0  0  0  0  0  0  0  0  0  0
    4.7597    0.5886   20.9545 H   0  0  0  0  0  0  0  0  0  0  0  0
    6.3521   -0.9242   21.8323 H   0  0  0  0  0  0  0  0  0  0  0  0
    7.3501   -1.8387   20.7090 H   0  0  0  0  0  0  0  0  0  0  0  0
    7.7600    2.7726   21.6388 H   0  0  0  0  0  0  0  0  0  0  0  0
    6.6712    1.6623   22.4418 H   0  0  0  0  0  0  0  0  0  0  0  0
    8.7714    4.4713   22.7882 H   0  0  0  0  0  0  0  0  0  0  0  0
    9.3707    5.6342   24.9102 H   0  0  0  0  0  0  0  0  0  0  0  0
    9.0748    4.4478   27.0797 H   0  0  0  0  0  0  0  0  0  0  0  0
    8.2727    2.0926   27.0989 H   0  0  0  0  0  0  0  0  0  0  0  0
    6.4356    0.4420   24.7392 H   0  0  0  0  0  0  0  0  0  0  0  0
    8.0717   -0.1149   24.4127 H   0  0  0  0  0  0  0  0  0  0  0  0
    7.5611    0.1583   26.0682 H   0  0  0  0  0  0  0  0  0  0  0  0
  1  2  1  0
  2  3  2  0
  3  4  1  0
  4  5  2  0
  5  6  1  0
  6  7  2  0
  7  8  1  0
  8  9  1  0
  9 10  2  0
 10 11  1  0
 11 12  1  0
 12 13  2  0
 13 14  1  0
 14 15  2  0
 15 16  1  0
 16 17  1  0
 16 18  1  0
 15 19  1  0
 19 20  2  0
 20 21  1  0
 19 22  1  0
 14 23  1  0
 13 24  1  0
 11 25  2  0
 25 26  1  0
 26 27  1  0
 27 28  1  0
 28 29  2  0
 29 30  1  0
 30 31  2  0
 31 32  1  0
 32 33  2  0
 33 34  1  0
 31 35  1  0
 30 36  1  0
 29 37  1  0
 27 38  1  0
 27 39  1  0
  8 40  1  0
  8 41  1  0
  6 42  1  0
  5 43  1  0
  4 44  1  0
  3 45  1  0
  1 46  1  0
  1 47  1  0
  1 48  1  0
  7  2  1  0
 26  9  1  0
 33 28  1  0
 20 12  1  0
M  END
>  <cnnaffinity>  (1) 
-6.62702

>  <filename>  (1) 
Cc1ccccc1Cc1nc(-c2ccc(N)cc2)nn1Cc1cccnc1

$$$$
