
     RDKit          3D

 46 49  0  0  0  0  0  0  0  0999 V2000
    6.0380    3.1704   29.1212 C   0  0  0  0  0  0  0  0  0  0  0  0
    6.4510    2.6874   27.7570 C   0  0  0  0  0  0  0  0  0  0  0  0
    5.7796    1.6338   27.1100 C   0  0  0  0  0  0  0  0  0  0  0  0
    6.1576    1.1835   25.8453 C   0  0  0  0  0  0  0  0  0  0  0  0
    7.2603    1.7705   25.2000 C   0  0  0  0  0  0  0  0  0  0  0  0
    7.6822    1.2875   23.8693 C   0  0  0  0  0  0  0  0  0  0  0  0
    7.0951    0.2953   23.2146 N   0  0  0  0  0  0  0  0  0  0  0  0
    7.8204    0.1954   22.0832 N   0  0  0  0  0  0  0  0  0  0  0  0
    7.3930   -0.7063   21.0178 C   0  0  0  0  0  0  0  0  0  0  0  0
    6.6634   -0.0021   19.8838 C   0  0  0  0  0  0  0  0  0  0  0  0
    5.4495    0.6516   20.1325 C   0  0  0  0  0  0  0  0  0  0  0  0
    4.8016    1.3098   19.0835 C   0  0  0  0  0  0  0  0  0  0  0  0
    5.3953    1.2986   17.8188 C   0  0  0  0  0  0  0  0  0  0  0  0
    6.5551    0.6770   17.5581 N   0  0  0  0  0  0  0  0  0  0  0  0
    7.1649    0.0532   18.5750 C   0  0  0  0  0  0  0  0  0  0  0  0
    8.1105   -0.4321   18.3203 H   0  0  0  0  0  0  0  0  0  0  0  0
    4.9264    1.8132   16.9785 H   0  0  0  0  0  0  0  0  0  0  0  0
    3.8685    1.8446   19.2313 H   0  0  0  0  0  0  0  0  0  0  0  0
    5.0285    0.6456   21.1392 H   0  0  0  0  0  0  0  0  0  0  0  0
    6.7373   -1.4268   21.5182 H   0  0  0  0  0  0  0  0  0  0  0  0
    8.2651   -1.2534   20.6381 H   0  0  0  0  0  0  0  0  0  0  0  0
    8.7928    1.1310   22.1004 C   0  0  0  0  0  0  0  0  0  0  0  0
    9.7692    1.4026   21.0168 C   0  0  0  0  0  0  0  0  0  0  0  0
   11.1293    1.2668   21.4924 N   0  0  0  0  0  0  0  0  0  0  0  0
   11.8219    2.3831   21.7609 N   0  0  0  0  0  0  0  0  0  0  0  0
   12.9626    1.9780   22.2854 C   0  0  0  0  0  0  0  0  0  0  0  0
   13.0162    0.5663   22.3526 C   0  0  0  0  0  0  0  0  0  0  0  0
   11.8055    0.1383   21.8487 C   0  0  0  0  0  0  0  0  0  0  0  0
   11.2578   -1.2451   21.6691 C   0  0  0  0  0  0  0  0  0  0  0  0
   10.4208   -1.4415   22.3486 H   0  0  0  0  0  0  0  0  0  0  0  0
   12.0394   -1.9837   21.8635 H   0  0  0  0  0  0  0  0  0  0  0  0
   10.8821   -1.3852   20.6562 H   0  0  0  0  0  0  0  0  0  0  0  0
   13.8358   -0.0652   22.6728 H   0  0  0  0  0  0  0  0  0  0  0  0
   13.6855    2.7343   22.5855 H   0  0  0  0  0  0  0  0  0  0  0  0
    9.6522    2.4488   20.7321 H   0  0  0  0  0  0  0  0  0  0  0  0
    9.5843    0.7753   20.1405 H   0  0  0  0  0  0  0  0  0  0  0  0
    8.7335    1.8325   23.2071 N   0  0  0  0  0  0  0  0  0  0  0  0
    7.9516    2.8304   25.8266 C   0  0  0  0  0  0  0  0  0  0  0  0
    7.5075    3.2947   27.0544 C   0  0  0  0  0  0  0  0  0  0  0  0
    8.0969    4.3926   27.5704 F   0  0  0  0  0  0  0  0  0  0  0  0
    8.8223    3.2998   25.3706 H   0  0  0  0  0  0  0  0  0  0  0  0
    5.6108    0.3846   25.3422 H   0  0  0  0  0  0  0  0  0  0  0  0
    4.9266    1.1671   27.5983 H   0  0  0  0  0  0  0  0  0  0  0  0
    5.5638    4.1545   29.0566 H   0  0  0  0  0  0  0  0  0  0  0  0
    6.8954    3.2686   29.7948 H   0  0  0  0  0  0  0  0  0  0  0  0
    5.3257    2.4825   29.5860 H   0  0  0  0  0  0  0  0  0  0  0  0
  1  2  1  0
  2  3  2  0
  3  4  1  0
  4  5  2  0
  5  6  1  0
  6  7  2  0
  7  8  1  0
  8  9  1  0
  9 10  1  0
 10 11  2  0
 11 12  1  0
 12 13  2  0
 13 14  1  0
 14 15  2  0
 15 16  1  0
 13 17  1  0
 12 18  1  0
 11 19  1  0
  9 20  1  0
  9 21  1  0
  8 22  1  0
 22 23  1  0
 23 24  1  0
 24 25  1  0
 25 26  2  0
 26 27  1  0
 27 28  2  0
 28 29  1  0
 29 30  1  0
 29 31  1  0
 29 32  1  0
 27 33  1  0
 26 34  1  0
 23 35  1  0
 23 36  1  0
 22 37  2  0
  5 38  1  0
 38 39  2  0
 39 40  1  0
 38 41  1  0
  4 42  1  0
  3 43  1  0
  1 44  1  0
  1 45  1  0
  1 46  1  0
 39  2  1  0
 37  6  1  0
 15 10  1  0
 28 24  1  0
M  END
>  <cnnaffinity>  (1) 
-6.3407

>  <filename>  (1) 
Cc1ccc(-c2nc(Cn3nccc3C)n(Cc3cccnc3)n2)cc1F

$$$$
