
     RDKit          3D

 52 54  0  0  0  0  0  0  0  0999 V2000
    9.0128    2.6565   22.2544 C   0  0  0  0  0  0  0  0  0  0  0  0
   10.3290    1.9355   22.4674 C   0  0  0  0  0  0  0  0  0  0  0  0
   11.2474    2.4144   23.4164 C   0  0  0  0  0  0  0  0  0  0  0  0
   12.4550    1.7510   23.6450 C   0  0  0  0  0  0  0  0  0  0  0  0
   12.7484    0.5877   22.9347 C   0  0  0  0  0  0  0  0  0  0  0  0
   11.8263    0.0510   22.0256 C   0  0  0  0  0  0  0  0  0  0  0  0
   12.1167   -1.2854   21.3847 C   0  0  0  0  0  0  0  0  0  0  0  0
   13.0569   -1.6991   21.7564 H   0  0  0  0  0  0  0  0  0  0  0  0
   12.2273   -1.1742   20.3032 H   0  0  0  0  0  0  0  0  0  0  0  0
   11.3127   -2.0060   21.5958 H   0  0  0  0  0  0  0  0  0  0  0  0
   10.6377    0.7608   21.7444 C   0  0  0  0  0  0  0  0  0  0  0  0
    9.6135    0.1955   20.7688 C   0  0  0  0  0  0  0  0  0  0  0  0
    8.5156   -0.5724   21.4504 C   0  0  0  0  0  0  0  0  0  0  0  0
    8.6303   -1.2887   22.5564 N   0  0  0  0  0  0  0  0  0  0  0  0
    7.4188   -1.8944   22.6763 C   0  0  0  0  0  0  0  0  0  0  0  0
    7.1301   -2.9469   23.7098 C   0  0  0  0  0  0  0  0  0  0  0  0
    7.4326   -4.4033   23.2362 C   0  0  0  0  0  0  0  0  0  0  0  0
    7.2243   -5.3693   24.4160 C   0  0  0  0  0  0  0  0  0  0  0  0
    6.1824   -5.4621   24.7479 H   0  0  0  0  0  0  0  0  0  0  0  0
    7.8339   -5.0370   25.2666 H   0  0  0  0  0  0  0  0  0  0  0  0
    7.6139   -6.3605   24.1616 H   0  0  0  0  0  0  0  0  0  0  0  0
    8.9088   -4.5336   22.8390 C   0  0  0  0  0  0  0  0  0  0  0  0
    9.2012   -3.7487   22.1318 H   0  0  0  0  0  0  0  0  0  0  0  0
    9.5732   -4.4706   23.7138 H   0  0  0  0  0  0  0  0  0  0  0  0
    9.0421   -5.5153   22.3703 H   0  0  0  0  0  0  0  0  0  0  0  0
    6.5470   -4.7733   22.0015 C   0  0  0  0  0  0  0  0  0  0  0  0
    6.7382   -6.0971   21.5304 O   0  0  0  0  0  0  0  0  0  0  0  0
    6.5137   -6.6940   22.2577 H   0  0  0  0  0  0  0  0  0  0  0  0
    5.4792   -4.6011   22.2252 H   0  0  0  0  0  0  0  0  0  0  0  0
    6.8012   -4.1234   21.1531 H   0  0  0  0  0  0  0  0  0  0  0  0
    7.7631   -2.7222   24.5757 H   0  0  0  0  0  0  0  0  0  0  0  0
    6.0806   -2.8709   24.0183 H   0  0  0  0  0  0  0  0  0  0  0  0
    6.5524   -1.5691   21.7360 N   0  0  0  0  0  0  0  0  0  0  0  0
    7.2620   -0.7396   20.9253 N   0  0  0  0  0  0  0  0  0  0  0  0
    6.5976   -0.0607   19.8662 C   0  0  0  0  0  0  0  0  0  0  0  0
    5.3987    0.6099   20.1213 C   0  0  0  0  0  0  0  0  0  0  0  0
    4.8006    1.3152   19.0756 C   0  0  0  0  0  0  0  0  0  0  0  0
    5.4092    1.3109   17.8132 C   0  0  0  0  0  0  0  0  0  0  0  0
    6.5446    0.6487   17.5538 N   0  0  0  0  0  0  0  0  0  0  0  0
    7.1199   -0.0225   18.5606 C   0  0  0  0  0  0  0  0  0  0  0  0
    8.0427   -0.5505   18.3332 H   0  0  0  0  0  0  0  0  0  0  0  0
    4.9586    1.8466   16.9801 H   0  0  0  0  0  0  0  0  0  0  0  0
    3.8786    1.8613   19.2294 H   0  0  0  0  0  0  0  0  0  0  0  0
    4.9646    0.5697   21.1216 H   0  0  0  0  0  0  0  0  0  0  0  0
    9.1684    1.0035   20.1805 H   0  0  0  0  0  0  0  0  0  0  0  0
   10.0748   -0.4937   20.0495 H   0  0  0  0  0  0  0  0  0  0  0  0
   13.6938    0.0707   23.0899 H   0  0  0  0  0  0  0  0  0  0  0  0
   13.1589    2.1235   24.3809 H   0  0  0  0  0  0  0  0  0  0  0  0
   10.9987    3.3052   23.9892 H   0  0  0  0  0  0  0  0  0  0  0  0
    8.8658    3.4445   22.9977 H   0  0  0  0  0  0  0  0  0  0  0  0
    8.9560    3.1211   21.2624 H   0  0  0  0  0  0  0  0  0  0  0  0
    8.1687    1.9587   22.3244 H   0  0  0  0  0  0  0  0  0  0  0  0
  1  2  1  0
  2  3  2  0
  3  4  1  0
  4  5  2  0
  5  6  1  0
  6  7  1  0
  7  8  1  0
  7  9  1  0
  7 10  1  0
  6 11  2  0
 11 12  1  0
 12 13  1  0
 13 14  2  0
 14 15  1  0
 15 16  1  0
 16 17  1  0
 17 18  1  0
 18 19  1  0
 18 20  1  0
 18 21  1  0
 17 22  1  0
 22 23  1  0
 22 24  1  0
 22 25  1  0
 17 26  1  0
 26 27  1  0
 27 28  1  0
 26 29  1  0
 26 30  1  0
 16 31  1  0
 16 32  1  0
 15 33  2  0
 33 34  1  0
 34 35  1  0
 35 36  2  0
 36 37  1  0
 37 38  2  0
 38 39  1  0
 39 40  2  0
 40 41  1  0
 38 42  1  0
 37 43  1  0
 36 44  1  0
 12 45  1  0
 12 46  1  0
  5 47  1  0
  4 48  1  0
  3 49  1  0
  1 50  1  0
  1 51  1  0
  1 52  1  0
 11  2  1  0
 34 13  1  0
 40 35  1  0
M  END
>  <cnnaffinity>  (1) 
-6.46141

>  <filename>  (1) 
Cc1cccc(C)c1Cc1nc(CC(C)(C)CO)nn1-c1cccnc1

$$$$
