
     RDKit          3D

 40 43  0  0  0  0  0  0  0  0999 V2000
    4.9444    1.8693   16.9269 H   0  0  0  0  0  0  0  0  0  0  0  0
    5.3829    1.3172   17.7554 C   0  0  0  0  0  0  0  0  0  0  0  0
    6.5283    0.6666   17.4951 N   0  0  0  0  0  0  0  0  0  0  0  0
    7.1149    0.0223   18.5085 C   0  0  0  0  0  0  0  0  0  0  0  0
    8.0450   -0.4959   18.2767 H   0  0  0  0  0  0  0  0  0  0  0  0
    6.6079    0.0140   19.8221 C   0  0  0  0  0  0  0  0  0  0  0  0
    7.3727   -0.5842   20.9193 C   0  0  0  0  0  0  0  0  0  0  0  0
    8.1783   -1.6300   20.7300 N   0  0  0  0  0  0  0  0  0  0  0  0
    8.7078   -1.8299   21.9331 N   0  0  0  0  0  0  0  0  0  0  0  0
    8.3275   -0.9787   22.8908 C   0  0  0  0  0  0  0  0  0  0  0  0
    7.4106   -0.1376   22.2885 C   0  0  0  0  0  0  0  0  0  0  0  0
    6.6915    0.9227   22.8756 N   0  0  0  0  0  0  0  0  0  0  0  0
    6.9266    1.8222   22.4803 H   0  0  0  0  0  0  0  0  0  0  0  0
    6.5389    1.0160   24.2674 C   0  0  0  0  0  0  0  0  0  0  0  0
    6.7713    2.2423   24.8949 C   0  0  0  0  0  0  0  0  0  0  0  0
    7.1651    3.0690   24.3090 H   0  0  0  0  0  0  0  0  0  0  0  0
    6.5155    2.3931   26.2591 C   0  0  0  0  0  0  0  0  0  0  0  0
    6.6631    3.3647   26.7255 H   0  0  0  0  0  0  0  0  0  0  0  0
    6.0264    1.3245   27.0281 C   0  0  0  0  0  0  0  0  0  0  0  0
    5.6884    1.4996   28.4888 C   0  0  0  0  0  0  0  0  0  0  0  0
    4.8774    0.8304   28.7967 H   0  0  0  0  0  0  0  0  0  0  0  0
    6.5506    1.2857   29.1296 H   0  0  0  0  0  0  0  0  0  0  0  0
    5.3671    2.5237   28.7019 H   0  0  0  0  0  0  0  0  0  0  0  0
    5.8371    0.0897   26.3906 C   0  0  0  0  0  0  0  0  0  0  0  0
    5.4544   -0.7540   26.9594 H   0  0  0  0  0  0  0  0  0  0  0  0
    6.0972   -0.0711   25.0275 C   0  0  0  0  0  0  0  0  0  0  0  0
    5.9929   -1.0355   24.5402 H   0  0  0  0  0  0  0  0  0  0  0  0
    9.1097   -1.2243   24.1541 C   0  0  0  0  0  0  0  0  0  0  0  0
    8.4586   -1.5966   24.9510 H   0  0  0  0  0  0  0  0  0  0  0  0
    9.5881   -0.3099   24.5198 H   0  0  0  0  0  0  0  0  0  0  0  0
   10.1606   -2.2728   23.6888 C   0  0  0  0  0  0  0  0  0  0  0  0
   10.3439   -3.0628   24.4202 H   0  0  0  0  0  0  0  0  0  0  0  0
   11.0970   -1.7522   23.5074 H   0  0  0  0  0  0  0  0  0  0  0  0
    9.6876   -2.8104   22.3125 C   0  0  0  0  0  0  0  0  0  0  0  0
    9.2289   -3.8028   22.3340 H   0  0  0  0  0  0  0  0  0  0  0  0
   10.4879   -2.8027   21.5733 H   0  0  0  0  0  0  0  0  0  0  0  0
    5.3838    0.6574   20.0648 C   0  0  0  0  0  0  0  0  0  0  0  0
    4.9519    0.6460   21.0676 H   0  0  0  0  0  0  0  0  0  0  0  0
    4.7647    1.3195   19.0103 C   0  0  0  0  0  0  0  0  0  0  0  0
    3.8398    1.8659   19.1554 H   0  0  0  0  0  0  0  0  0  0  0  0
  1  2  1  0
  2  3  2  0
  3  4  1  0
  4  5  1  0
  4  6  2  0
  6  7  1  0
  7  8  2  0
  8  9  1  0
  9 10  1  0
 10 11  2  0
 11 12  1  0
 12 13  1  0
 12 14  1  0
 14 15  2  0
 15 16  1  0
 15 17  1  0
 17 18  1  0
 17 19  2  0
 19 20  1  0
 20 21  1  0
 20 22  1  0
 20 23  1  0
 19 24  1  0
 24 25  1  0
 24 26  2  0
 26 27  1  0
 10 28  1  0
 28 29  1  0
 28 30  1  0
 28 31  1  0
 31 32  1  0
 31 33  1  0
 31 34  1  0
 34 35  1  0
 34 36  1  0
  6 37  1  0
 37 38  1  0
 37 39  2  0
 39 40  1  0
 39  2  1  0
 11  7  1  0
 26 14  1  0
 34  9  1  0
M  END
>  <cnnaffinity>  (1) 
-5.81265

>  <filename>  (1) 
Cc1ccc(Nc2c(-c3cccnc3)nn3c2CCC3)cc1

$$$$
