
     RDKit          3D

 47 50  0  0  0  0  0  0  0  0999 V2000
    8.6593   -0.5010   27.3794 C   0  0  0  0  0  0  0  0  0  0  0  0
    7.5490    0.0468   26.5074 C   0  0  0  0  0  0  0  0  0  0  0  0
    6.1852   -0.2295   26.7212 C   0  0  0  0  0  0  0  0  0  0  0  0
    5.1944    0.1809   25.9181 N   0  0  0  0  0  0  0  0  0  0  0  0
    5.5211    0.8875   24.8242 C   0  0  0  0  0  0  0  0  0  0  0  0
    6.8367    1.2324   24.4989 C   0  0  0  0  0  0  0  0  0  0  0  0
    7.2723    1.8916   23.1840 C   0  0  0  0  0  0  0  0  0  0  0  0
    8.2781    1.0062   22.4967 C   0  0  0  0  0  0  0  0  0  0  0  0
    9.5897    1.0457   22.6707 N   0  0  0  0  0  0  0  0  0  0  0  0
   10.0009   -0.1637   22.2153 C   0  0  0  0  0  0  0  0  0  0  0  0
   11.4019   -0.5854   22.0833 C   0  0  0  0  0  0  0  0  0  0  0  0
   11.6321   -1.7550   21.3371 C   0  0  0  0  0  0  0  0  0  0  0  0
   12.8752   -1.9793   20.7827 C   0  0  0  0  0  0  0  0  0  0  0  0
   13.9491   -1.1244   21.0513 C   0  0  0  0  0  0  0  0  0  0  0  0
   14.9919   -1.2492   20.1759 N   0  0  0  0  0  0  0  0  0  0  0  0
   15.7372   -0.5782   20.1554 H   0  0  0  0  0  0  0  0  0  0  0  0
   15.1874   -2.1717   19.8401 H   0  0  0  0  0  0  0  0  0  0  0  0
   13.7832   -0.0778   21.9862 C   0  0  0  0  0  0  0  0  0  0  0  0
   12.5039    0.2016   22.4803 C   0  0  0  0  0  0  0  0  0  0  0  0
   12.3519    1.0599   23.1329 H   0  0  0  0  0  0  0  0  0  0  0  0
   14.6226    0.5731   22.2188 H   0  0  0  0  0  0  0  0  0  0  0  0
   13.0340   -2.6921   19.9816 H   0  0  0  0  0  0  0  0  0  0  0  0
   10.7932   -2.4203   21.1455 H   0  0  0  0  0  0  0  0  0  0  0  0
    9.0138   -0.9194   21.7444 N   0  0  0  0  0  0  0  0  0  0  0  0
    7.9155   -0.1650   21.9319 N   0  0  0  0  0  0  0  0  0  0  0  0
    6.6360   -0.5845   21.3620 C   0  0  0  0  0  0  0  0  0  0  0  0
    6.2793    0.1399   20.0820 C   0  0  0  0  0  0  0  0  0  0  0  0
    5.0687    0.8105   19.8884 C   0  0  0  0  0  0  0  0  0  0  0  0
    4.8615    1.4754   18.6751 C   0  0  0  0  0  0  0  0  0  0  0  0
    5.8663    1.4358   17.7060 C   0  0  0  0  0  0  0  0  0  0  0  0
    7.0167    0.7609   17.8574 N   0  0  0  0  0  0  0  0  0  0  0  0
    7.2047    0.1329   19.0226 C   0  0  0  0  0  0  0  0  0  0  0  0
    8.1388   -0.4170   19.1382 H   0  0  0  0  0  0  0  0  0  0  0  0
    5.7472    1.9645   16.7615 H   0  0  0  0  0  0  0  0  0  0  0  0
    3.9509    2.0308   18.4751 H   0  0  0  0  0  0  0  0  0  0  0  0
    4.3009    0.8171   20.6659 H   0  0  0  0  0  0  0  0  0  0  0  0
    6.7265   -1.6582   21.1756 H   0  0  0  0  0  0  0  0  0  0  0  0
    5.8673   -0.4524   22.1253 H   0  0  0  0  0  0  0  0  0  0  0  0
    7.7663    2.8510   23.3634 H   0  0  0  0  0  0  0  0  0  0  0  0
    6.4175    2.0927   22.5290 H   0  0  0  0  0  0  0  0  0  0  0  0
    7.8399    0.8266   25.3936 C   0  0  0  0  0  0  0  0  0  0  0  0
    8.8730    1.0802   25.1645 H   0  0  0  0  0  0  0  0  0  0  0  0
    4.6910    1.1863   24.1802 H   0  0  0  0  0  0  0  0  0  0  0  0
    5.8874   -0.8126   27.5904 H   0  0  0  0  0  0  0  0  0  0  0  0
    8.6569   -1.5990   27.4025 H   0  0  0  0  0  0  0  0  0  0  0  0
    8.5682   -0.1413   28.4088 H   0  0  0  0  0  0  0  0  0  0  0  0
    9.6449   -0.1884   27.0142 H   0  0  0  0  0  0  0  0  0  0  0  0
  1  2  1  0
  2  3  2  0
  3  4  1  0
  4  5  2  0
  5  6  1  0
  6  7  1  0
  7  8  1  0
  8  9  2  0
  9 10  1  0
 10 11  1  0
 11 12  2  0
 12 13  1  0
 13 14  2  0
 14 15  1  0
 15 16  1  0
 15 17  1  0
 14 18  1  0
 18 19  2  0
 19 20  1  0
 18 21  1  0
 13 22  1  0
 12 23  1  0
 10 24  2  0
 24 25  1  0
 25 26  1  0
 26 27  1  0
 27 28  2  0
 28 29  1  0
 29 30  2  0
 30 31  1  0
 31 32  2  0
 32 33  1  0
 30 34  1  0
 29 35  1  0
 28 36  1  0
 26 37  1  0
 26 38  1  0
  7 39  1  0
  7 40  1  0
  6 41  2  0
 41 42  1  0
  5 43  1  0
  3 44  1  0
  1 45  1  0
  1 46  1  0
  1 47  1  0
 41  2  1  0
 25  8  1  0
 32 27  1  0
 19 11  1  0
M  END
>  <cnnaffinity>  (1) 
-6.70599

>  <filename>  (1) 
Cc1cncc(Cc2nc(-c3ccc(N)cc3)nn2Cc2cccnc2)c1

$$$$
