
     RDKit          3D

 44 47  0  0  0  0  0  0  0  0999 V2000
    4.9737    0.3781   26.2601 C   0  0  0  0  0  0  0  0  0  0  0  0
    6.0514    1.4239   26.4241 C   0  0  0  0  0  0  0  0  0  0  0  0
    6.7206    1.4931   27.6525 C   0  0  0  0  0  0  0  0  0  0  0  0
    7.7466    2.4129   27.8731 C   0  0  0  0  0  0  0  0  0  0  0  0
    8.1343    3.2791   26.8485 C   0  0  0  0  0  0  0  0  0  0  0  0
    7.4749    3.2324   25.6142 C   0  0  0  0  0  0  0  0  0  0  0  0
    6.4113    2.3354   25.3966 C   0  0  0  0  0  0  0  0  0  0  0  0
    5.6638    2.3464   24.0677 C   0  0  0  0  0  0  0  0  0  0  0  0
    5.9778    1.2588   23.1975 O   0  0  0  0  0  0  0  0  0  0  0  0
    7.3334    1.2024   22.7461 C   0  0  0  0  0  0  0  0  0  0  0  0
    7.6499   -0.1615   22.2125 C   0  0  0  0  0  0  0  0  0  0  0  0
    8.3377   -1.0827   22.8594 N   0  0  0  0  0  0  0  0  0  0  0  0
    8.3309   -2.1347   22.0034 C   0  0  0  0  0  0  0  0  0  0  0  0
    8.9453   -3.4302   22.3727 C   0  0  0  0  0  0  0  0  0  0  0  0
    8.2462   -4.7435   22.1051 C   0  0  0  0  0  0  0  0  0  0  0  0
    8.4519   -4.2889   23.5151 C   0  0  0  0  0  0  0  0  0  0  0  0
    9.2453   -4.7756   24.0807 H   0  0  0  0  0  0  0  0  0  0  0  0
    7.5846   -3.9787   24.0954 H   0  0  0  0  0  0  0  0  0  0  0  0
    8.8057   -5.6029   21.7423 H   0  0  0  0  0  0  0  0  0  0  0  0
    7.2380   -4.6561   21.6989 H   0  0  0  0  0  0  0  0  0  0  0  0
   10.0292   -3.3459   22.3255 H   0  0  0  0  0  0  0  0  0  0  0  0
    7.7447   -1.9016   20.8440 N   0  0  0  0  0  0  0  0  0  0  0  0
    7.2866   -0.6322   20.9811 N   0  0  0  0  0  0  0  0  0  0  0  0
    6.5968    0.0043   19.9116 C   0  0  0  0  0  0  0  0  0  0  0  0
    5.4042    0.7025   20.1376 C   0  0  0  0  0  0  0  0  0  0  0  0
    4.8079    1.3403   19.0457 C   0  0  0  0  0  0  0  0  0  0  0  0
    5.4333    1.2921   17.7978 C   0  0  0  0  0  0  0  0  0  0  0  0
    6.5640    0.5988   17.5731 N   0  0  0  0  0  0  0  0  0  0  0  0
    7.1151   -0.0482   18.6048 C   0  0  0  0  0  0  0  0  0  0  0  0
    8.0164   -0.6191   18.3973 H   0  0  0  0  0  0  0  0  0  0  0  0
    5.0064    1.8239   16.9483 H   0  0  0  0  0  0  0  0  0  0  0  0
    3.8712    1.8753   19.1572 H   0  0  0  0  0  0  0  0  0  0  0  0
    4.9750    0.7499   21.1345 H   0  0  0  0  0  0  0  0  0  0  0  0
    8.0326    1.3684   23.5794 H   0  0  0  0  0  0  0  0  0  0  0  0
    7.5345    1.9654   21.9747 H   0  0  0  0  0  0  0  0  0  0  0  0
    5.8124    3.3095   23.5488 H   0  0  0  0  0  0  0  0  0  0  0  0
    4.5895    2.2406   24.2479 H   0  0  0  0  0  0  0  0  0  0  0  0
    7.8054    3.9027   24.8177 H   0  0  0  0  0  0  0  0  0  0  0  0
    8.9436    3.9832   27.0079 H   0  0  0  0  0  0  0  0  0  0  0  0
    8.2288    2.4280   28.8445 H   0  0  0  0  0  0  0  0  0  0  0  0
    6.4365    0.8056   28.4484 H   0  0  0  0  0  0  0  0  0  0  0  0
    5.2147   -0.3006   25.4363 H   0  0  0  0  0  0  0  0  0  0  0  0
    4.8699   -0.2166   27.1758 H   0  0  0  0  0  0  0  0  0  0  0  0
    3.9958    0.8278   26.0576 H   0  0  0  0  0  0  0  0  0  0  0  0
  1  2  1  0
  2  3  2  0
  3  4  1  0
  4  5  2  0
  5  6  1  0
  6  7  2  0
  7  8  1  0
  8  9  1  0
  9 10  1  0
 10 11  1  0
 11 12  2  0
 12 13  1  0
 13 14  1  0
 14 15  1  0
 15 16  1  0
 16 17  1  0
 16 18  1  0
 15 19  1  0
 15 20  1  0
 14 21  1  0
 13 22  2  0
 22 23  1  0
 23 24  1  0
 24 25  2  0
 25 26  1  0
 26 27  2  0
 27 28  1  0
 28 29  2  0
 29 30  1  0
 27 31  1  0
 26 32  1  0
 25 33  1  0
 10 34  1  0
 10 35  1  0
  8 36  1  0
  8 37  1  0
  6 38  1  0
  5 39  1  0
  4 40  1  0
  3 41  1  0
  1 42  1  0
  1 43  1  0
  1 44  1  0
  7  2  1  0
 23 11  1  0
 29 24  1  0
 16 14  1  0
M  END
>  <cnnaffinity>  (1) 
-5.21235

>  <filename>  (1) 
Cc1ccccc1COCc1nc(C2CC2)nn1-c1cccnc1

$$$$
