
     RDKit          3D

 55 58  0  0  0  0  0  0  0  0999 V2000
    5.3088   -6.7652   23.6584 C   0  0  0  0  0  0  0  0  0  0  0  0
    6.2330   -5.5981   23.2539 C   0  0  0  0  0  0  0  0  0  0  0  0
    7.4338   -5.3422   24.2011 C   0  0  0  0  0  0  0  0  0  0  0  0
    7.0498   -4.6849   25.5452 C   0  0  0  0  0  0  0  0  0  0  0  0
    6.1592   -3.4256   25.4046 C   0  0  0  0  0  0  0  0  0  0  0  0
    6.9180   -2.1882   24.9801 C   0  0  0  0  0  0  0  0  0  0  0  0
    6.5546   -0.9964   25.4123 N   0  0  0  0  0  0  0  0  0  0  0  0
    7.4119   -0.1539   24.7578 N   0  0  0  0  0  0  0  0  0  0  0  0
    7.3312    1.2688   24.8861 C   0  0  0  0  0  0  0  0  0  0  0  0
    6.1214    1.8907   24.7503 C   0  0  0  0  0  0  0  0  0  0  0  0
    6.0160    3.3226   24.8725 C   0  0  0  0  0  0  0  0  0  0  0  0
    5.0114    4.0174   24.7981 O   0  0  0  0  0  0  0  0  0  0  0  0
    7.2177    3.9834   25.1233 N   0  0  0  0  0  0  0  0  0  0  0  0
    8.4348    3.3861   25.2604 C   0  0  0  0  0  0  0  0  0  0  0  0
    8.5269    2.0314   25.1433 C   0  0  0  0  0  0  0  0  0  0  0  0
    9.4854    1.5430   25.2784 H   0  0  0  0  0  0  0  0  0  0  0  0
    9.2849    4.0303   25.4581 H   0  0  0  0  0  0  0  0  0  0  0  0
    7.0167    4.9702   25.1816 H   0  0  0  0  0  0  0  0  0  0  0  0
    5.1984    1.3586   24.5881 H   0  0  0  0  0  0  0  0  0  0  0  0
    8.2074   -0.8877   23.9370 C   0  0  0  0  0  0  0  0  0  0  0  0
    9.1041   -0.3257   22.8820 C   0  0  0  0  0  0  0  0  0  0  0  0
    8.3183    0.3273   21.7292 C   0  0  0  0  0  0  0  0  0  0  0  0
    7.4079   -0.6753   20.9992 C   0  0  0  0  0  0  0  0  0  0  0  0
    6.6398   -0.0140   19.8860 C   0  0  0  0  0  0  0  0  0  0  0  0
    5.4302    0.6471   20.1369 C   0  0  0  0  0  0  0  0  0  0  0  0
    4.7946    1.3145   19.0884 C   0  0  0  0  0  0  0  0  0  0  0  0
    5.3902    1.3033   17.8234 C   0  0  0  0  0  0  0  0  0  0  0  0
    6.5526    0.6884   17.5622 N   0  0  0  0  0  0  0  0  0  0  0  0
    7.1536    0.0579   18.5805 C   0  0  0  0  0  0  0  0  0  0  0  0
    8.1068   -0.4173   18.3422 H   0  0  0  0  0  0  0  0  0  0  0  0
    4.9178    1.8031   16.9795 H   0  0  0  0  0  0  0  0  0  0  0  0
    3.8668    1.8502   19.2411 H   0  0  0  0  0  0  0  0  0  0  0  0
    5.0112    0.6463   21.1472 H   0  0  0  0  0  0  0  0  0  0  0  0
    6.7102   -1.1287   21.7195 H   0  0  0  0  0  0  0  0  0  0  0  0
    8.0170   -1.5037   20.6082 H   0  0  0  0  0  0  0  0  0  0  0  0
    9.0203    0.7653   21.0087 H   0  0  0  0  0  0  0  0  0  0  0  0
    7.7146    1.1605   22.1164 H   0  0  0  0  0  0  0  0  0  0  0  0
    9.7090   -1.1549   22.4985 H   0  0  0  0  0  0  0  0  0  0  0  0
    9.8011    0.3918   23.3234 H   0  0  0  0  0  0  0  0  0  0  0  0
    7.9313   -2.1713   24.0759 N   0  0  0  0  0  0  0  0  0  0  0  0
    4.9625   -3.7047   24.4500 C   0  0  0  0  0  0  0  0  0  0  0  0
    5.4125   -4.2931   23.0991 C   0  0  0  0  0  0  0  0  0  0  0  0
    6.0019   -3.5402   22.5532 H   0  0  0  0  0  0  0  0  0  0  0  0
    4.5311   -4.5060   22.4814 H   0  0  0  0  0  0  0  0  0  0  0  0
    4.3961   -2.7783   24.3002 H   0  0  0  0  0  0  0  0  0  0  0  0
    4.2699   -4.4018   24.9433 H   0  0  0  0  0  0  0  0  0  0  0  0
    5.7597   -3.1565   26.3891 H   0  0  0  0  0  0  0  0  0  0  0  0
    6.5090   -5.4202   26.1588 H   0  0  0  0  0  0  0  0  0  0  0  0
    7.9570   -4.4301   26.1093 H   0  0  0  0  0  0  0  0  0  0  0  0
    7.9734   -6.2777   24.4001 H   0  0  0  0  0  0  0  0  0  0  0  0
    8.1460   -4.6805   23.6931 H   0  0  0  0  0  0  0  0  0  0  0  0
    6.6500   -5.8505   22.2681 H   0  0  0  0  0  0  0  0  0  0  0  0
    4.9896   -6.6794   24.7003 H   0  0  0  0  0  0  0  0  0  0  0  0
    4.3998   -6.7672   23.0430 H   0  0  0  0  0  0  0  0  0  0  0  0
    5.7557   -7.7492   23.5157 H   0  0  0  0  0  0  0  0  0  0  0  0
  1  2  1  0
  2  3  1  0
  3  4  1  0
  4  5  1  0
  5  6  1  0
  6  7  2  0
  7  8  1  0
  8  9  1  0
  9 10  2  0
 10 11  1  0
 11 12  2  0
 11 13  1  0
 13 14  1  0
 14 15  2  0
 15 16  1  0
 14 17  1  0
 13 18  1  0
 10 19  1  0
  8 20  1  0
 20 21  1  0
 21 22  1  0
 22 23  1  0
 23 24  1  0
 24 25  2  0
 25 26  1  0
 26 27  2  0
 27 28  1  0
 28 29  2  0
 29 30  1  0
 27 31  1  0
 26 32  1  0
 25 33  1  0
 23 34  1  0
 23 35  1  0
 22 36  1  0
 22 37  1  0
 21 38  1  0
 21 39  1  0
 20 40  2  0
  5 41  1  0
 41 42  1  0
 42 43  1  0
 42 44  1  0
 41 45  1  0
 41 46  1  0
  5 47  1  0
  4 48  1  0
  4 49  1  0
  3 50  1  0
  3 51  1  0
  2 52  1  0
  1 53  1  0
  1 54  1  0
  1 55  1  0
 42  2  1  0
 40  6  1  0
 15  9  1  0
 29 24  1  0
M  END
>  <cnnaffinity>  (1) 
-6.34995

>  <filename>  (1) 
CC1CCC(c2nc(CCCc3cccnc3)n(-c3cc[nH]c(=O)c3)n2)CC1

$$$$
