
     RDKit          3D

 50 54  0  0  0  0  0  0  0  0999 V2000
   16.0163   -0.3280   19.6561 C   0  0  0  0  0  0  0  0  0  0  0  0
   14.7176   -0.7962   20.5416 C   0  0  0  0  0  0  0  0  0  0  0  0
   13.7533   -1.7945   20.3268 C   0  0  0  0  0  0  0  0  0  0  0  0
   12.4575   -1.6338   20.8515 C   0  0  0  0  0  0  0  0  0  0  0  0
   12.0729   -0.5198   21.6167 C   0  0  0  0  0  0  0  0  0  0  0  0
   10.6348   -0.1723   21.7489 C   0  0  0  0  0  0  0  0  0  0  0  0
    9.6657   -0.9240   21.2421 N   0  0  0  0  0  0  0  0  0  0  0  0
    8.5484   -0.2258   21.5177 N   0  0  0  0  0  0  0  0  0  0  0  0
    7.2394   -0.7137   21.1077 C   0  0  0  0  0  0  0  0  0  0  0  0
    6.5829    0.0609   19.9776 C   0  0  0  0  0  0  0  0  0  0  0  0
    5.3541    0.7149   20.1256 C   0  0  0  0  0  0  0  0  0  0  0  0
    4.7889    1.3589   19.0205 C   0  0  0  0  0  0  0  0  0  0  0  0
    5.4743    1.3267   17.8038 C   0  0  0  0  0  0  0  0  0  0  0  0
    6.6516    0.7049   17.6373 N   0  0  0  0  0  0  0  0  0  0  0  0
    7.1844    0.0992   18.7062 C   0  0  0  0  0  0  0  0  0  0  0  0
    8.1387   -0.3987   18.5409 H   0  0  0  0  0  0  0  0  0  0  0  0
    5.0570    1.8135   16.9233 H   0  0  0  0  0  0  0  0  0  0  0  0
    3.8434    1.8851   19.0902 H   0  0  0  0  0  0  0  0  0  0  0  0
    4.8359    0.7197   21.0879 H   0  0  0  0  0  0  0  0  0  0  0  0
    7.4145   -1.7516   20.8127 H   0  0  0  0  0  0  0  0  0  0  0  0
    6.5959   -0.7195   21.9948 H   0  0  0  0  0  0  0  0  0  0  0  0
    8.8819    0.8909   22.1887 C   0  0  0  0  0  0  0  0  0  0  0  0
    7.8787    1.7520   22.8745 C   0  0  0  0  0  0  0  0  0  0  0  0
    7.6331    1.2141   24.2092 N   0  0  0  0  0  0  0  0  0  0  0  0
    8.5052    1.2591   25.2438 C   0  0  0  0  0  0  0  0  0  0  0  0
    8.0276    0.4081   26.2071 C   0  0  0  0  0  0  0  0  0  0  0  0
    6.8337   -0.1212   25.6641 C   0  0  0  0  0  0  0  0  0  0  0  0
    5.8754   -1.0606   26.2815 C   0  0  0  0  0  0  0  0  0  0  0  0
    5.6243   -1.0635   27.7776 C   0  0  0  0  0  0  0  0  0  0  0  0
    6.3362   -2.2158   27.1454 C   0  0  0  0  0  0  0  0  0  0  0  0
    5.8111   -3.1605   27.0449 H   0  0  0  0  0  0  0  0  0  0  0  0
    7.4034   -2.3223   27.3310 H   0  0  0  0  0  0  0  0  0  0  0  0
    4.6062   -1.2060   28.1277 H   0  0  0  0  0  0  0  0  0  0  0  0
    6.2092   -0.3834   28.3954 H   0  0  0  0  0  0  0  0  0  0  0  0
    5.0153   -1.2426   25.6398 H   0  0  0  0  0  0  0  0  0  0  0  0
    6.6301    0.3574   24.4348 N   0  0  0  0  0  0  0  0  0  0  0  0
    8.4698    0.1485   27.1591 H   0  0  0  0  0  0  0  0  0  0  0  0
    9.4078    1.8551   25.1583 H   0  0  0  0  0  0  0  0  0  0  0  0
    6.9329    1.7790   22.3290 H   0  0  0  0  0  0  0  0  0  0  0  0
    8.2791    2.7632   22.9694 H   0  0  0  0  0  0  0  0  0  0  0  0
   10.1882    0.9684   22.3405 N   0  0  0  0  0  0  0  0  0  0  0  0
   13.1066    0.2719   22.1497 C   0  0  0  0  0  0  0  0  0  0  0  0
   14.3886    0.0645   21.6574 C   0  0  0  0  0  0  0  0  0  0  0  0
   15.3071    0.9002   22.1711 F   0  0  0  0  0  0  0  0  0  0  0  0
   12.9585    1.1078   22.8306 H   0  0  0  0  0  0  0  0  0  0  0  0
   11.6591   -2.3225   20.6499 H   0  0  0  0  0  0  0  0  0  0  0  0
   13.9765   -2.7081   19.7774 H   0  0  0  0  0  0  0  0  0  0  0  0
   15.9218    0.1034   18.6494 H   0  0  0  0  0  0  0  0  0  0  0  0
   16.4139    0.5534   20.1297 H   0  0  0  0  0  0  0  0  0  0  0  0
   16.8185   -1.0655   19.6495 H   0  0  0  0  0  0  0  0  0  0  0  0
  1  2  1  0
  2  3  2  0
  3  4  1  0
  4  5  2  0
  5  6  1  0
  6  7  2  0
  7  8  1  0
  8  9  1  0
  9 10  1  0
 10 11  2  0
 11 12  1  0
 12 13  2  0
 13 14  1  0
 14 15  2  0
 15 16  1  0
 13 17  1  0
 12 18  1  0
 11 19  1  0
  9 20  1  0
  9 21  1  0
  8 22  1  0
 22 23  1  0
 23 24  1  0
 24 25  1  0
 25 26  2  0
 26 27  1  0
 27 28  1  0
 28 29  1  0
 29 30  1  0
 30 31  1  0
 30 32  1  0
 29 33  1  0
 29 34  1  0
 28 35  1  0
 27 36  2  0
 26 37  1  0
 25 38  1  0
 23 39  1  0
 23 40  1  0
 22 41  2  0
  5 42  1  0
 42 43  2  0
 43 44  1  0
 42 45  1  0
  4 46  1  0
  3 47  1  0
  1 48  1  0
  1 49  1  0
  1 50  1  0
 43  2  1  0
 41  6  1  0
 15 10  1  0
 36 24  1  0
 30 28  1  0
M  END
>  <cnnaffinity>  (1) 
-6.86028

>  <filename>  (1) 
Cc1ccc(-c2nc(Cn3ccc(C4CC4)n3)n(Cc3cccnc3)n2)cc1F

$$$$
