
     RDKit          3D

 41 44  0  0  0  0  0  0  0  0999 V2000
    9.3196   -1.2795   27.2864 C   0  0  0  0  0  0  0  0  0  0  0  0
    8.2633   -1.5572   26.2506 C   0  0  0  0  0  0  0  0  0  0  0  0
    7.1858   -2.4251   26.5220 C   0  0  0  0  0  0  0  0  0  0  0  0
    6.2212   -2.7372   25.6444 N   0  0  0  0  0  0  0  0  0  0  0  0
    6.3249   -2.2446   24.4080 C   0  0  0  0  0  0  0  0  0  0  0  0
    7.3916   -1.4323   24.0135 C   0  0  0  0  0  0  0  0  0  0  0  0
    7.5407   -1.1368   22.6336 N   0  0  0  0  0  0  0  0  0  0  0  0
    6.5816   -0.4709   21.9535 N   0  0  0  0  0  0  0  0  0  0  0  0
    7.0751   -0.4271   20.7316 C   0  0  0  0  0  0  0  0  0  0  0  0
    6.4038    0.2309   19.6214 C   0  0  0  0  0  0  0  0  0  0  0  0
    5.1878    0.9189   19.7485 C   0  0  0  0  0  0  0  0  0  0  0  0
    4.6778    1.5405   18.6131 C   0  0  0  0  0  0  0  0  0  0  0  0
    5.3933    1.4561   17.4115 C   0  0  0  0  0  0  0  0  0  0  0  0
    6.5481    0.7869   17.2836 N   0  0  0  0  0  0  0  0  0  0  0  0
    7.0367    0.1938   18.3748 C   0  0  0  0  0  0  0  0  0  0  0  0
    7.9802   -0.3348   18.2642 H   0  0  0  0  0  0  0  0  0  0  0  0
    5.0224    1.9407   16.5115 H   0  0  0  0  0  0  0  0  0  0  0  0
    3.7481    2.0960   18.6430 H   0  0  0  0  0  0  0  0  0  0  0  0
    4.6792    0.9682   20.7147 H   0  0  0  0  0  0  0  0  0  0  0  0
    8.2645   -1.0698   20.5709 N   0  0  0  0  0  0  0  0  0  0  0  0
    8.5057   -1.5484   21.7656 C   0  0  0  0  0  0  0  0  0  0  0  0
    9.5937   -2.5130   22.1520 C   0  0  0  0  0  0  0  0  0  0  0  0
    9.0852   -3.7315   22.9286 C   0  0  0  0  0  0  0  0  0  0  0  0
    8.0026   -4.4665   22.4369 C   0  0  0  0  0  0  0  0  0  0  0  0
    7.3673   -5.4074   23.2523 C   0  0  0  0  0  0  0  0  0  0  0  0
    7.8492   -5.5845   24.5511 C   0  0  0  0  0  0  0  0  0  0  0  0
    8.9537   -4.9870   25.0050 N   0  0  0  0  0  0  0  0  0  0  0  0
    9.5573   -4.1371   24.1944 C   0  0  0  0  0  0  0  0  0  0  0  0
   11.0773   -3.5552   24.7726 Cl  0  0  0  0  0  0  0  0  0  0  0  0
    7.3548   -6.2353   25.2656 H   0  0  0  0  0  0  0  0  0  0  0  0
    6.5239   -5.9911   22.9030 H   0  0  0  0  0  0  0  0  0  0  0  0
    7.6452   -4.2684   21.4265 H   0  0  0  0  0  0  0  0  0  0  0  0
   10.3363   -1.9696   22.7431 H   0  0  0  0  0  0  0  0  0  0  0  0
   10.0718   -2.7862   21.2063 H   0  0  0  0  0  0  0  0  0  0  0  0
    8.3410   -1.0267   24.9580 C   0  0  0  0  0  0  0  0  0  0  0  0
    9.1399   -0.3306   24.6948 H   0  0  0  0  0  0  0  0  0  0  0  0
    5.5796   -2.5508   23.6760 H   0  0  0  0  0  0  0  0  0  0  0  0
    7.1002   -2.8920   27.4996 H   0  0  0  0  0  0  0  0  0  0  0  0
    8.8917   -0.9664   28.2422 H   0  0  0  0  0  0  0  0  0  0  0  0
    9.8986   -2.1917   27.4579 H   0  0  0  0  0  0  0  0  0  0  0  0
   10.0107   -0.4905   26.9763 H   0  0  0  0  0  0  0  0  0  0  0  0
  1  2  1  0
  2  3  2  0
  3  4  1  0
  4  5  2  0
  5  6  1  0
  6  7  1  0
  7  8  1  0
  8  9  2  0
  9 10  1  0
 10 11  2  0
 11 12  1  0
 12 13  2  0
 13 14  1  0
 14 15  2  0
 15 16  1  0
 13 17  1  0
 12 18  1  0
 11 19  1  0
  9 20  1  0
 20 21  2  0
 21 22  1  0
 22 23  1  0
 23 24  2  0
 24 25  1  0
 25 26  2  0
 26 27  1  0
 27 28  2  0
 28 29  1  0
 26 30  1  0
 25 31  1  0
 24 32  1  0
 22 33  1  0
 22 34  1  0
  6 35  2  0
 35 36  1  0
  5 37  1  0
  3 38  1  0
  1 39  1  0
  1 40  1  0
  1 41  1  0
 35  2  1  0
 21  7  1  0
 28 23  1  0
 15 10  1  0
M  END
>  <cnnaffinity>  (1) 
-6.04619

>  <filename>  (1) 
Cc1cncc(-n2nc(-c3cccnc3)nc2Cc2cccnc2Cl)c1

$$$$
