
     RDKit          3D

 42 45  0  0  0  0  0  0  0  0999 V2000
    6.9938    0.1969   27.5447 C   0  0  0  0  0  0  0  0  0  0  0  0
    7.3294   -1.2312   26.7399 C   0  0  0  0  0  0  0  0  0  0  0  0
    7.3652   -0.7853   25.2720 C   0  0  0  0  0  0  0  0  0  0  0  0
    7.6249   -1.7548   24.3223 C   0  0  0  0  0  0  0  0  0  0  0  0
    7.7655   -1.4008   22.9414 N   0  0  0  0  0  0  0  0  0  0  0  0
    6.8129   -0.7108   22.2663 N   0  0  0  0  0  0  0  0  0  0  0  0
    7.3131   -0.6245   21.0482 C   0  0  0  0  0  0  0  0  0  0  0  0
    6.5943    0.0320   19.9582 C   0  0  0  0  0  0  0  0  0  0  0  0
    5.3658    0.6885   20.1523 C   0  0  0  0  0  0  0  0  0  0  0  0
    4.7894    1.3243   19.0573 C   0  0  0  0  0  0  0  0  0  0  0  0
    5.4459    1.2755   17.8205 C   0  0  0  0  0  0  0  0  0  0  0  0
    6.6079    0.6336   17.6231 N   0  0  0  0  0  0  0  0  0  0  0  0
    7.1645    0.0288   18.6790 C   0  0  0  0  0  0  0  0  0  0  0  0
    8.1096   -0.4848   18.5084 H   0  0  0  0  0  0  0  0  0  0  0  0
    5.0185    1.7694   16.9501 H   0  0  0  0  0  0  0  0  0  0  0  0
    3.8563    1.8682   19.1498 H   0  0  0  0  0  0  0  0  0  0  0  0
    4.8979    0.6998   21.1403 H   0  0  0  0  0  0  0  0  0  0  0  0
    8.5423   -1.1832   20.9003 N   0  0  0  0  0  0  0  0  0  0  0  0
    8.8027   -1.6548   22.1001 C   0  0  0  0  0  0  0  0  0  0  0  0
   10.0552   -2.3933   22.3971 C   0  0  0  0  0  0  0  0  0  0  0  0
   11.2508   -1.5002   22.4043 C   0  0  0  0  0  0  0  0  0  0  0  0
   12.1707   -1.6436   21.4914 N   0  0  0  0  0  0  0  0  0  0  0  0
   13.1070   -0.6694   21.7348 O   0  0  0  0  0  0  0  0  0  0  0  0
   12.7114    0.0513   22.7890 C   0  0  0  0  0  0  0  0  0  0  0  0
   11.5499   -0.4294   23.3042 C   0  0  0  0  0  0  0  0  0  0  0  0
   10.8405   -0.0773   24.5778 C   0  0  0  0  0  0  0  0  0  0  0  0
   11.4830    0.5039   25.2449 H   0  0  0  0  0  0  0  0  0  0  0  0
    9.9276    0.5004   24.3963 H   0  0  0  0  0  0  0  0  0  0  0  0
   10.5428   -0.9910   25.1028 H   0  0  0  0  0  0  0  0  0  0  0  0
   13.3562    0.8755   23.0620 H   0  0  0  0  0  0  0  0  0  0  0  0
    9.9951   -2.9755   23.3183 H   0  0  0  0  0  0  0  0  0  0  0  0
   10.1692   -3.0664   21.5627 H   0  0  0  0  0  0  0  0  0  0  0  0
    7.8028   -3.1347   24.6764 C   0  0  0  0  0  0  0  0  0  0  0  0
    7.7698   -3.5888   25.9806 C   0  0  0  0  0  0  0  0  0  0  0  0
    7.5221   -2.4895   27.0332 C   0  0  0  0  0  0  0  0  0  0  0  0
    7.4705   -2.2821   27.3129 F   0  0  0  0  0  0  0  0  0  0  0  0
    7.9347   -4.6843   26.1335 H   0  0  0  0  0  0  0  0  0  0  0  0
    7.9662   -3.8287   23.8507 H   0  0  0  0  0  0  0  0  0  0  0  0
    7.1978    0.2591   25.0390 H   0  0  0  0  0  0  0  0  0  0  0  0
    5.9202    0.3664   27.8101 H   0  0  0  0  0  0  0  0  0  0  0  0
    7.5390    0.4281   28.4957 H   0  0  0  0  0  0  0  0  0  0  0  0
    7.2459    1.0220   26.8622 H   0  0  0  0  0  0  0  0  0  0  0  0
  1  2  1  0
  2  3  2  0
  3  4  1  0
  4  5  1  0
  5  6  1  0
  6  7  2  0
  7  8  1  0
  8  9  2  0
  9 10  1  0
 10 11  2  0
 11 12  1  0
 12 13  2  0
 13 14  1  0
 11 15  1  0
 10 16  1  0
  9 17  1  0
  7 18  1  0
 18 19  2  0
 19 20  1  0
 20 21  1  0
 21 22  2  0
 22 23  1  0
 23 24  1  0
 24 25  2  0
 25 26  1  0
 26 27  1  0
 26 28  1  0
 26 29  1  0
 24 30  1  0
 20 31  1  0
 20 32  1  0
  4 33  2  0
 33 34  1  0
 34 35  2  0
 35 36  1  0
 34 37  1  0
 33 38  1  0
  3 39  1  0
  1 40  1  0
  1 41  1  0
  1 42  1  0
 35  2  1  0
 19  5  1  0
 25 21  1  0
 13  8  1  0
M  END
>  <cnnaffinity>  (1) 
-6.72376

>  <filename>  (1) 
Cc1cc(-n2nc(-c3cccnc3)nc2Cc2nocc2C)ccc1F

$$$$
