
     RDKit          3D

 43 46  0  0  0  0  0  0  0  0999 V2000
    4.3804    1.5604   27.8545 C   0  0  0  0  0  0  0  0  0  0  0  0
    5.6157    2.0476   27.1312 C   0  0  0  0  0  0  0  0  0  0  0  0
    6.0050    1.5460   25.8820 C   0  0  0  0  0  0  0  0  0  0  0  0
    7.1614    2.0202   25.2226 C   0  0  0  0  0  0  0  0  0  0  0  0
    7.5924    1.4947   23.9081 C   0  0  0  0  0  0  0  0  0  0  0  0
    6.9793    0.5367   23.2332 N   0  0  0  0  0  0  0  0  0  0  0  0
    7.7596    0.3711   22.1392 N   0  0  0  0  0  0  0  0  0  0  0  0
    7.3879   -0.5891   21.1043 C   0  0  0  0  0  0  0  0  0  0  0  0
    6.6836    0.0451   19.9194 C   0  0  0  0  0  0  0  0  0  0  0  0
    5.4744    0.7230   20.1119 C   0  0  0  0  0  0  0  0  0  0  0  0
    4.8754    1.3361   19.0119 C   0  0  0  0  0  0  0  0  0  0  0  0
    5.5017    1.2538   17.7644 C   0  0  0  0  0  0  0  0  0  0  0  0
    6.6532    0.5999   17.5556 N   0  0  0  0  0  0  0  0  0  0  0  0
    7.2169    0.0166   18.6211 C   0  0  0  0  0  0  0  0  0  0  0  0
    8.1494   -0.5137   18.4272 H   0  0  0  0  0  0  0  0  0  0  0  0
    5.0615    1.7417   16.8983 H   0  0  0  0  0  0  0  0  0  0  0  0
    3.9499    1.8894   19.1097 H   0  0  0  0  0  0  0  0  0  0  0  0
    5.0258    0.7742   21.1078 H   0  0  0  0  0  0  0  0  0  0  0  0
    8.2891   -1.1230   20.7809 H   0  0  0  0  0  0  0  0  0  0  0  0
    6.7386   -1.3124   21.6092 H   0  0  0  0  0  0  0  0  0  0  0  0
    8.7985    1.2286   22.2009 C   0  0  0  0  0  0  0  0  0  0  0  0
    9.9572    1.2654   21.2486 C   0  0  0  0  0  0  0  0  0  0  0  0
   11.1162    0.3669   21.6195 C   0  0  0  0  0  0  0  0  0  0  0  0
   12.0547    0.4420   22.6198 C   0  0  0  0  0  0  0  0  0  0  0  0
   12.8875   -0.6511   22.5970 N   0  0  0  0  0  0  0  0  0  0  0  0
   12.4673   -1.3795   21.6010 C   0  0  0  0  0  0  0  0  0  0  0  0
   11.3857   -0.8241   20.9883 N   0  0  0  0  0  0  0  0  0  0  0  0
   10.9645   -1.1713   20.1407 H   0  0  0  0  0  0  0  0  0  0  0  0
   12.9042   -2.3096   21.2591 H   0  0  0  0  0  0  0  0  0  0  0  0
   12.1842    1.2289   23.3546 H   0  0  0  0  0  0  0  0  0  0  0  0
    9.5884    1.0498   20.2420 H   0  0  0  0  0  0  0  0  0  0  0  0
   10.3029    2.3004   21.2503 H   0  0  0  0  0  0  0  0  0  0  0  0
    8.7180    1.9585   23.2915 N   0  0  0  0  0  0  0  0  0  0  0  0
    7.9415    3.0111   25.8474 C   0  0  0  0  0  0  0  0  0  0  0  0
    7.5890    3.5111   27.0961 C   0  0  0  0  0  0  0  0  0  0  0  0
    6.4414    3.0230   27.7147 C   0  0  0  0  0  0  0  0  0  0  0  0
    6.1231    3.5085   28.9301 F   0  0  0  0  0  0  0  0  0  0  0  0
    8.1860    4.2556   27.6090 H   0  0  0  0  0  0  0  0  0  0  0  0
    8.8319    3.3782   25.3404 H   0  0  0  0  0  0  0  0  0  0  0  0
    5.4100    0.7647   25.4056 H   0  0  0  0  0  0  0  0  0  0  0  0
    3.7886    2.4034   28.2261 H   0  0  0  0  0  0  0  0  0  0  0  0
    3.7400    0.9536   27.2065 H   0  0  0  0  0  0  0  0  0  0  0  0
    4.6505    0.9508   28.7240 H   0  0  0  0  0  0  0  0  0  0  0  0
  1  2  1  0
  2  3  2  0
  3  4  1  0
  4  5  1  0
  5  6  2  0
  6  7  1  0
  7  8  1  0
  8  9  1  0
  9 10  2  0
 10 11  1  0
 11 12  2  0
 12 13  1  0
 13 14  2  0
 14 15  1  0
 12 16  1  0
 11 17  1  0
 10 18  1  0
  8 19  1  0
  8 20  1  0
  7 21  1  0
 21 22  1  0
 22 23  1  0
 23 24  2  0
 24 25  1  0
 25 26  2  0
 26 27  1  0
 27 28  1  0
 26 29  1  0
 24 30  1  0
 22 31  1  0
 22 32  1  0
 21 33  2  0
  4 34  2  0
 34 35  1  0
 35 36  2  0
 36 37  1  0
 35 38  1  0
 34 39  1  0
  3 40  1  0
  1 41  1  0
  1 42  1  0
  1 43  1  0
 36  2  1  0
 33  5  1  0
 14  9  1  0
 27 23  1  0
M  END
>  <cnnaffinity>  (1) 
-5.92718

>  <filename>  (1) 
Cc1cc(-c2nc(Cc3cnc[nH]3)n(Cc3cccnc3)n2)ccc1F

$$$$
