
     RDKit          3D

 43 46  0  0  0  0  0  0  0  0999 V2000
    4.8677   -0.8512   26.5960 C   0  0  0  0  0  0  0  0  0  0  0  0
    5.5700    0.2489   25.8519 C   0  0  0  0  0  0  0  0  0  0  0  0
    5.2904    0.6706   24.5728 C   0  0  0  0  0  0  0  0  0  0  0  0
    6.2792    1.5169   24.1770 N   0  0  0  0  0  0  0  0  0  0  0  0
    6.7078    1.8067   22.8133 C   0  0  0  0  0  0  0  0  0  0  0  0
    7.7675    0.8486   22.3563 C   0  0  0  0  0  0  0  0  0  0  0  0
    9.0371    1.0587   22.5980 N   0  0  0  0  0  0  0  0  0  0  0  0
    9.6469   -0.0830   22.1814 C   0  0  0  0  0  0  0  0  0  0  0  0
   11.1241   -0.2324   22.3043 C   0  0  0  0  0  0  0  0  0  0  0  0
   11.8428   -1.2789   21.6857 C   0  0  0  0  0  0  0  0  0  0  0  0
   13.2252   -1.3243   21.8505 C   0  0  0  0  0  0  0  0  0  0  0  0
   13.9197   -2.3196   21.2835 F   0  0  0  0  0  0  0  0  0  0  0  0
   13.9274   -0.3712   22.5831 C   0  0  0  0  0  0  0  0  0  0  0  0
   13.1883    0.6354   23.1908 C   0  0  0  0  0  0  0  0  0  0  0  0
   13.8225    1.5672   23.9088 F   0  0  0  0  0  0  0  0  0  0  0  0
   11.8113    0.7284   23.0756 C   0  0  0  0  0  0  0  0  0  0  0  0
   11.2964    1.5505   23.5662 H   0  0  0  0  0  0  0  0  0  0  0  0
   15.0013   -0.4078   22.6634 H   0  0  0  0  0  0  0  0  0  0  0  0
   11.3426   -2.0194   21.0693 H   0  0  0  0  0  0  0  0  0  0  0  0
    8.8115   -0.9697   21.6628 N   0  0  0  0  0  0  0  0  0  0  0  0
    7.6018   -0.3634   21.7759 N   0  0  0  0  0  0  0  0  0  0  0  0
    6.4299   -0.8998   21.0819 C   0  0  0  0  0  0  0  0  0  0  0  0
    6.0075   -0.0762   19.8761 C   0  0  0  0  0  0  0  0  0  0  0  0
    4.8116    0.6489   19.8033 C   0  0  0  0  0  0  0  0  0  0  0  0
    4.5775    1.4540   18.6810 C   0  0  0  0  0  0  0  0  0  0  0  0
    5.5246    1.4681   17.6533 C   0  0  0  0  0  0  0  0  0  0  0  0
    6.6575    0.7486   17.6867 N   0  0  0  0  0  0  0  0  0  0  0  0
    6.8825    0.0094   18.7790 C   0  0  0  0  0  0  0  0  0  0  0  0
    7.8083   -0.5675   18.7836 H   0  0  0  0  0  0  0  0  0  0  0  0
    5.3684    2.0772   16.7625 H   0  0  0  0  0  0  0  0  0  0  0  0
    3.6988    2.0860   18.6061 H   0  0  0  0  0  0  0  0  0  0  0  0
    4.0727    0.5903   20.6064 H   0  0  0  0  0  0  0  0  0  0  0  0
    6.7026   -1.9166   20.7847 H   0  0  0  0  0  0  0  0  0  0  0  0
    5.6113   -0.9784   21.7983 H   0  0  0  0  0  0  0  0  0  0  0  0
    7.1732    2.7935   22.8312 H   0  0  0  0  0  0  0  0  0  0  0  0
    5.8457    1.8129   22.1444 H   0  0  0  0  0  0  0  0  0  0  0  0
    7.1518    1.7351   25.1723 N   0  0  0  0  0  0  0  0  0  0  0  0
    6.7359    0.9926   26.1825 C   0  0  0  0  0  0  0  0  0  0  0  0
    7.3019    0.9969   27.1082 H   0  0  0  0  0  0  0  0  0  0  0  0
    4.4129    0.5195   23.9638 H   0  0  0  0  0  0  0  0  0  0  0  0
    4.3114   -0.5019   27.4727 H   0  0  0  0  0  0  0  0  0  0  0  0
    5.5761   -1.6126   26.9434 H   0  0  0  0  0  0  0  0  0  0  0  0
    4.1554   -1.3561   25.9345 H   0  0  0  0  0  0  0  0  0  0  0  0
  1  2  1  0
  2  3  2  0
  3  4  1  0
  4  5  1  0
  5  6  1  0
  6  7  2  0
  7  8  1  0
  8  9  1  0
  9 10  2  0
 10 11  1  0
 11 12  1  0
 11 13  2  0
 13 14  1  0
 14 15  1  0
 14 16  2  0
 16 17  1  0
 13 18  1  0
 10 19  1  0
  8 20  2  0
 20 21  1  0
 21 22  1  0
 22 23  1  0
 23 24  2  0
 24 25  1  0
 25 26  2  0
 26 27  1  0
 27 28  2  0
 28 29  1  0
 26 30  1  0
 25 31  1  0
 24 32  1  0
 22 33  1  0
 22 34  1  0
  5 35  1  0
  5 36  1  0
  4 37  1  0
 37 38  2  0
 38 39  1  0
  3 40  1  0
  1 41  1  0
  1 42  1  0
  1 43  1  0
 38  2  1  0
 21  6  1  0
 28 23  1  0
 16  9  1  0
M  END
>  <cnnaffinity>  (1) 
-6.07757

>  <filename>  (1) 
Cc1cnn(Cc2nc(-c3cc(F)cc(F)c3)nn2Cc2cccnc2)c1

$$$$
