
     RDKit          3D

 45 48  0  0  0  0  0  0  0  0999 V2000
   16.0118   -0.3338   19.6551 C   0  0  0  0  0  0  0  0  0  0  0  0
   14.7094   -0.7924   20.5391 C   0  0  0  0  0  0  0  0  0  0  0  0
   13.7492   -1.7904   20.3358 C   0  0  0  0  0  0  0  0  0  0  0  0
   12.4683   -1.6173   20.8876 C   0  0  0  0  0  0  0  0  0  0  0  0
   12.1111   -0.4958   21.6583 C   0  0  0  0  0  0  0  0  0  0  0  0
   10.6719   -0.1216   21.7673 C   0  0  0  0  0  0  0  0  0  0  0  0
    9.7177   -0.8752   21.2341 N   0  0  0  0  0  0  0  0  0  0  0  0
    8.5846   -0.1824   21.4759 N   0  0  0  0  0  0  0  0  0  0  0  0
    7.2879   -0.7060   21.0504 C   0  0  0  0  0  0  0  0  0  0  0  0
    6.5976    0.0570   19.9319 C   0  0  0  0  0  0  0  0  0  0  0  0
    5.3625    0.6977   20.1015 C   0  0  0  0  0  0  0  0  0  0  0  0
    4.7752    1.3446   19.0090 C   0  0  0  0  0  0  0  0  0  0  0  0
    5.4439    1.3244   17.7816 C   0  0  0  0  0  0  0  0  0  0  0  0
    6.6186    0.7041   17.5920 N   0  0  0  0  0  0  0  0  0  0  0  0
    7.1731    0.0979   18.6497 C   0  0  0  0  0  0  0  0  0  0  0  0
    8.1252   -0.3967   18.4657 H   0  0  0  0  0  0  0  0  0  0  0  0
    5.0179    1.8269   16.9136 H   0  0  0  0  0  0  0  0  0  0  0  0
    3.8315    1.8732   19.0983 H   0  0  0  0  0  0  0  0  0  0  0  0
    4.8606    0.6938   21.0738 H   0  0  0  0  0  0  0  0  0  0  0  0
    7.4922   -1.7353   20.7429 H   0  0  0  0  0  0  0  0  0  0  0  0
    6.6437   -0.7405   21.9350 H   0  0  0  0  0  0  0  0  0  0  0  0
    8.8926    0.9335   22.1652 C   0  0  0  0  0  0  0  0  0  0  0  0
    7.8884    1.7867   22.8652 C   0  0  0  0  0  0  0  0  0  0  0  0
    7.6256    1.1522   24.2042 C   0  0  0  0  0  0  0  0  0  0  0  0
    8.5796    1.2361   25.2306 C   0  0  0  0  0  0  0  0  0  0  0  0
    8.3864    0.5244   26.4170 C   0  0  0  0  0  0  0  0  0  0  0  0
    7.2203   -0.2293   26.5149 C   0  0  0  0  0  0  0  0  0  0  0  0
    6.9820   -0.9490   27.6219 F   0  0  0  0  0  0  0  0  0  0  0  0
    6.3047   -0.2520   25.4601 C   0  0  0  0  0  0  0  0  0  0  0  0
    6.5128    0.4196   24.3125 N   0  0  0  0  0  0  0  0  0  0  0  0
    5.3987   -0.8471   25.5478 H   0  0  0  0  0  0  0  0  0  0  0  0
    9.1117    0.5174   27.2273 H   0  0  0  0  0  0  0  0  0  0  0  0
    9.4813    1.8050   25.0374 H   0  0  0  0  0  0  0  0  0  0  0  0
    8.3100    2.7879   22.9779 H   0  0  0  0  0  0  0  0  0  0  0  0
    6.9594    1.8538   22.2969 H   0  0  0  0  0  0  0  0  0  0  0  0
   10.1975    1.0161   22.3428 N   0  0  0  0  0  0  0  0  0  0  0  0
   13.1655    0.2938   22.1609 C   0  0  0  0  0  0  0  0  0  0  0  0
   14.4396    0.0952   21.6422 C   0  0  0  0  0  0  0  0  0  0  0  0
   15.2356    0.7411   22.0042 H   0  0  0  0  0  0  0  0  0  0  0  0
   13.0007    1.1111   22.8598 H   0  0  0  0  0  0  0  0  0  0  0  0
   11.6633   -2.3026   20.6857 H   0  0  0  0  0  0  0  0  0  0  0  0
   13.9706   -2.7070   19.7931 H   0  0  0  0  0  0  0  0  0  0  0  0
   16.8158   -1.0643   19.6467 H   0  0  0  0  0  0  0  0  0  0  0  0
   15.9406    0.1227   18.6534 H   0  0  0  0  0  0  0  0  0  0  0  0
   16.4070    0.5361   20.1569 H   0  0  0  0  0  0  0  0  0  0  0  0
  1  2  1  0
  2  3  2  0
  3  4  1  0
  4  5  2  0
  5  6  1  0
  6  7  2  0
  7  8  1  0
  8  9  1  0
  9 10  1  0
 10 11  2  0
 11 12  1  0
 12 13  2  0
 13 14  1  0
 14 15  2  0
 15 16  1  0
 13 17  1  0
 12 18  1  0
 11 19  1  0
  9 20  1  0
  9 21  1  0
  8 22  1  0
 22 23  1  0
 23 24  1  0
 24 25  2  0
 25 26  1  0
 26 27  2  0
 27 28  1  0
 27 29  1  0
 29 30  2  0
 29 31  1  0
 26 32  1  0
 25 33  1  0
 23 34  1  0
 23 35  1  0
 22 36  2  0
  5 37  1  0
 37 38  2  0
 38 39  1  0
 37 40  1  0
  4 41  1  0
  3 42  1  0
  1 43  1  0
  1 44  1  0
  1 45  1  0
 38  2  1  0
 36  6  1  0
 15 10  1  0
 30 24  1  0
M  END
>  <cnnaffinity>  (1) 
-6.69589

>  <filename>  (1) 
Cc1ccc(-c2nc(Cc3ccc(F)cn3)n(Cc3cccnc3)n2)cc1

$$$$
