
     RDKit          3D

 47 51  0  0  0  0  0  0  0  0999 V2000
   13.7613    5.8390   21.6342 C   0  0  0  0  0  0  0  0  0  0  0  0
   12.8129    4.6727   21.8027 C   0  0  0  0  0  0  0  0  0  0  0  0
   12.5590    3.7786   20.7485 C   0  0  0  0  0  0  0  0  0  0  0  0
   11.6192    2.7565   20.8675 C   0  0  0  0  0  0  0  0  0  0  0  0
   10.8937    2.6022   22.0577 C   0  0  0  0  0  0  0  0  0  0  0  0
    9.8366    1.5866   22.1871 C   0  0  0  0  0  0  0  0  0  0  0  0
    9.3170    0.8837   21.1942 N   0  0  0  0  0  0  0  0  0  0  0  0
    8.3118    0.1988   21.7982 N   0  0  0  0  0  0  0  0  0  0  0  0
    7.4750   -0.6789   20.9785 C   0  0  0  0  0  0  0  0  0  0  0  0
    6.6854    0.0301   19.8965 C   0  0  0  0  0  0  0  0  0  0  0  0
    5.4663    0.6714   20.1424 C   0  0  0  0  0  0  0  0  0  0  0  0
    4.8193    1.3200   19.0866 C   0  0  0  0  0  0  0  0  0  0  0  0
    5.4155    1.3037   17.8216 C   0  0  0  0  0  0  0  0  0  0  0  0
    6.5746    0.6828   17.5591 N   0  0  0  0  0  0  0  0  0  0  0  0
    7.1825    0.0715   18.5827 C   0  0  0  0  0  0  0  0  0  0  0  0
    8.1177   -0.4369   18.3436 H   0  0  0  0  0  0  0  0  0  0  0  0
    4.9398    1.8005   16.9778 H   0  0  0  0  0  0  0  0  0  0  0  0
    3.8766    1.8371   19.2273 H   0  0  0  0  0  0  0  0  0  0  0  0
    5.0259    0.6598   21.1434 H   0  0  0  0  0  0  0  0  0  0  0  0
    6.8006   -1.2242   21.6450 H   0  0  0  0  0  0  0  0  0  0  0  0
    8.1505   -1.4080   20.5211 H   0  0  0  0  0  0  0  0  0  0  0  0
    8.3176    0.4770   23.1300 C   0  0  0  0  0  0  0  0  0  0  0  0
    7.3162    0.0370   24.1531 C   0  0  0  0  0  0  0  0  0  0  0  0
    7.8643    0.0802   25.6234 C   0  0  0  0  0  0  0  0  0  0  0  0
    6.7692    0.7483   26.3783 C   0  0  0  0  0  0  0  0  0  0  0  0
    6.5416    1.0703   27.6263 N   0  0  0  0  0  0  0  0  0  0  0  0
    5.3114    1.6916   27.5912 C   0  0  0  0  0  0  0  0  0  0  0  0
    4.8115    1.7442   26.3144 C   0  0  0  0  0  0  0  0  0  0  0  0
    5.7705    1.1296   25.5458 N   0  0  0  0  0  0  0  0  0  0  0  0
    6.0477    0.9587   24.1360 C   0  0  0  0  0  0  0  0  0  0  0  0
    6.2435    1.9287   23.6611 H   0  0  0  0  0  0  0  0  0  0  0  0
    5.2006    0.5025   23.6226 H   0  0  0  0  0  0  0  0  0  0  0  0
    3.8927    2.1327   25.9026 H   0  0  0  0  0  0  0  0  0  0  0  0
    4.8556    2.0659   28.4968 H   0  0  0  0  0  0  0  0  0  0  0  0
    8.0737   -0.9152   26.0207 H   0  0  0  0  0  0  0  0  0  0  0  0
    8.7844    0.6696   25.6982 H   0  0  0  0  0  0  0  0  0  0  0  0
    7.0017   -0.9858   23.9388 H   0  0  0  0  0  0  0  0  0  0  0  0
    9.2660    1.3439   23.3924 N   0  0  0  0  0  0  0  0  0  0  0  0
   11.1700    3.4560   23.1420 C   0  0  0  0  0  0  0  0  0  0  0  0
   12.1177    4.4698   23.0117 C   0  0  0  0  0  0  0  0  0  0  0  0
   12.3357    5.1195   23.8524 H   0  0  0  0  0  0  0  0  0  0  0  0
   10.6293    3.3097   24.0770 H   0  0  0  0  0  0  0  0  0  0  0  0
   11.4138    2.0879   20.0394 H   0  0  0  0  0  0  0  0  0  0  0  0
   13.1142    3.8654   19.8251 H   0  0  0  0  0  0  0  0  0  0  0  0
   14.0725    6.2397   22.5994 H   0  0  0  0  0  0  0  0  0  0  0  0
   14.6654    5.5710   21.0708 H   0  0  0  0  0  0  0  0  0  0  0  0
   13.2879    6.6667   21.0949 H   0  0  0  0  0  0  0  0  0  0  0  0
  1  2  1  0
  2  3  2  0
  3  4  1  0
  4  5  2  0
  5  6  1  0
  6  7  2  0
  7  8  1  0
  8  9  1  0
  9 10  1  0
 10 11  2  0
 11 12  1  0
 12 13  2  0
 13 14  1  0
 14 15  2  0
 15 16  1  0
 13 17  1  0
 12 18  1  0
 11 19  1  0
  9 20  1  0
  9 21  1  0
  8 22  1  0
 22 23  1  0
 23 24  1  0
 24 25  1  0
 25 26  2  0
 26 27  1  0
 27 28  2  0
 28 29  1  0
 29 30  1  0
 30 31  1  0
 30 32  1  0
 28 33  1  0
 27 34  1  0
 24 35  1  0
 24 36  1  0
 23 37  1  0
 22 38  2  0
  5 39  1  0
 39 40  2  0
 40 41  1  0
 39 42  1  0
  4 43  1  0
  3 44  1  0
  1 45  1  0
  1 46  1  0
  1 47  1  0
 40  2  1  0
 38  6  1  0
 15 10  1  0
 30 23  1  0
 29 25  1  0
M  END
>  <cnnaffinity>  (1) 
-6.19966

>  <filename>  (1) 
Cc1ccc(-c2nc(C3Cc4nccn4C3)n(Cc3cccnc3)n2)cc1

$$$$
