
     RDKit          3D

 39 42  0  0  0  0  0  0  0  0999 V2000
    7.7055    2.8079   21.9214 C   0  0  0  0  0  0  0  0  0  0  0  0
    9.0635    2.4357   22.4678 C   0  0  0  0  0  0  0  0  0  0  0  0
    9.7890    2.9746   23.4865 C   0  0  0  0  0  0  0  0  0  0  0  0
   10.9603    2.3340   23.6403 O   0  0  0  0  0  0  0  0  0  0  0  0
   11.0399    1.3312   22.7031 N   0  0  0  0  0  0  0  0  0  0  0  0
    9.9372    1.3887   22.0158 C   0  0  0  0  0  0  0  0  0  0  0  0
    9.6585    0.3868   20.9368 C   0  0  0  0  0  0  0  0  0  0  0  0
    8.6279   -0.5783   21.3971 C   0  0  0  0  0  0  0  0  0  0  0  0
    8.8214   -1.4189   22.3807 N   0  0  0  0  0  0  0  0  0  0  0  0
    7.6166   -2.0380   22.5211 C   0  0  0  0  0  0  0  0  0  0  0  0
    7.4061   -3.0648   23.5634 C   0  0  0  0  0  0  0  0  0  0  0  0
    8.3916   -3.2333   24.5655 C   0  0  0  0  0  0  0  0  0  0  0  0
    8.2338   -4.1632   25.5925 C   0  0  0  0  0  0  0  0  0  0  0  0
    7.0817   -4.9570   25.6398 C   0  0  0  0  0  0  0  0  0  0  0  0
    6.1013   -4.8157   24.6569 C   0  0  0  0  0  0  0  0  0  0  0  0
    6.2572   -3.8851   23.6248 C   0  0  0  0  0  0  0  0  0  0  0  0
    4.9685   -3.8238   22.4528 Cl  0  0  0  0  0  0  0  0  0  0  0  0
    5.1955   -5.4106   24.6678 H   0  0  0  0  0  0  0  0  0  0  0  0
    6.9446   -5.6847   26.4375 H   0  0  0  0  0  0  0  0  0  0  0  0
    9.0036   -4.2700   26.3526 H   0  0  0  0  0  0  0  0  0  0  0  0
    9.2852   -2.6107   24.5193 H   0  0  0  0  0  0  0  0  0  0  0  0
    6.6902   -1.6122   21.6794 N   0  0  0  0  0  0  0  0  0  0  0  0
    7.3447   -0.6874   20.9387 N   0  0  0  0  0  0  0  0  0  0  0  0
    6.6593   -0.0048   19.8895 C   0  0  0  0  0  0  0  0  0  0  0  0
    5.4390    0.6264   20.1471 C   0  0  0  0  0  0  0  0  0  0  0  0
    4.8030    1.3085   19.1040 C   0  0  0  0  0  0  0  0  0  0  0  0
    5.3940    1.2995   17.8363 C   0  0  0  0  0  0  0  0  0  0  0  0
    6.5456    0.6626   17.5706 N   0  0  0  0  0  0  0  0  0  0  0  0
    7.1629    0.0353   18.5809 C   0  0  0  0  0  0  0  0  0  0  0  0
    8.1022   -0.4605   18.3355 H   0  0  0  0  0  0  0  0  0  0  0  0
    4.9330    1.8199   16.9997 H   0  0  0  0  0  0  0  0  0  0  0  0
    3.8712    1.8457   19.2553 H   0  0  0  0  0  0  0  0  0  0  0  0
    5.0111    0.5617   21.1483 H   0  0  0  0  0  0  0  0  0  0  0  0
   10.5686   -0.1763   20.7235 H   0  0  0  0  0  0  0  0  0  0  0  0
    9.3122    0.8922   20.0351 H   0  0  0  0  0  0  0  0  0  0  0  0
    9.6240    3.7966   24.1722 H   0  0  0  0  0  0  0  0  0  0  0  0
    7.4543    3.8544   22.1212 H   0  0  0  0  0  0  0  0  0  0  0  0
    7.6622    2.6505   20.8389 H   0  0  0  0  0  0  0  0  0  0  0  0
    6.8982    2.1979   22.3495 H   0  0  0  0  0  0  0  0  0  0  0  0
  1  2  1  0
  2  3  2  0
  3  4  1  0
  4  5  1  0
  5  6  2  0
  6  7  1  0
  7  8  1  0
  8  9  2  0
  9 10  1  0
 10 11  1  0
 11 12  2  0
 12 13  1  0
 13 14  2  0
 14 15  1  0
 15 16  2  0
 16 17  1  0
 15 18  1  0
 14 19  1  0
 13 20  1  0
 12 21  1  0
 10 22  2  0
 22 23  1  0
 23 24  1  0
 24 25  2  0
 25 26  1  0
 26 27  2  0
 27 28  1  0
 28 29  2  0
 29 30  1  0
 27 31  1  0
 26 32  1  0
 25 33  1  0
  7 34  1  0
  7 35  1  0
  3 36  1  0
  1 37  1  0
  1 38  1  0
  1 39  1  0
  6  2  1  0
 23  8  1  0
 29 24  1  0
 16 11  1  0
M  END
>  <cnnaffinity>  (1) 
-5.96804

>  <filename>  (1) 
Cc1conc1Cc1nc(-c2ccccc2Cl)nn1-c1cccnc1

$$$$
