
     RDKit          3D

 48 51  0  0  0  0  0  0  0  0999 V2000
   12.9211    1.7032   24.1910 C   0  0  0  0  0  0  0  0  0  0  0  0
   11.9447    1.3687   23.0949 C   0  0  0  0  0  0  0  0  0  0  0  0
   12.1812    0.3339   22.1791 C   0  0  0  0  0  0  0  0  0  0  0  0
   11.3502    0.0099   21.1818 N   0  0  0  0  0  0  0  0  0  0  0  0
   10.2150    0.7074   21.0722 C   0  0  0  0  0  0  0  0  0  0  0  0
    9.8274    1.7298   21.9541 C   0  0  0  0  0  0  0  0  0  0  0  0
    8.4114    2.2586   21.9250 C   0  0  0  0  0  0  0  0  0  0  0  0
    7.4363    1.3029   22.6668 C   0  0  0  0  0  0  0  0  0  0  0  0
    7.4481   -0.0935   22.1268 C   0  0  0  0  0  0  0  0  0  0  0  0
    8.0155   -1.1203   22.7186 N   0  0  0  0  0  0  0  0  0  0  0  0
    8.0460   -2.0878   21.7350 C   0  0  0  0  0  0  0  0  0  0  0  0
    8.6540   -3.3619   21.9898 C   0  0  0  0  0  0  0  0  0  0  0  0
    7.9433   -4.6090   21.8398 C   0  0  0  0  0  0  0  0  0  0  0  0
    8.4219   -5.8042   22.7671 C   0  0  0  0  0  0  0  0  0  0  0  0
    8.9629   -5.5282   24.0766 C   0  0  0  0  0  0  0  0  0  0  0  0
    9.2924   -4.2685   24.7501 C   0  0  0  0  0  0  0  0  0  0  0  0
    8.5232   -3.4872   24.5343 H   0  0  0  0  0  0  0  0  0  0  0  0
   10.2508   -3.8367   24.3585 H   0  0  0  0  0  0  0  0  0  0  0  0
    9.1508   -6.4381   24.6351 H   0  0  0  0  0  0  0  0  0  0  0  0
    9.3905   -4.4696   25.8571 H   0  0  0  0  0  0  0  0  0  0  0  0
    7.5479   -6.4632   22.9137 H   0  0  0  0  0  0  0  0  0  0  0  0
    9.1134   -6.4660   22.2074 H   0  0  0  0  0  0  0  0  0  0  0  0
    6.8737   -4.4163   22.0371 H   0  0  0  0  0  0  0  0  0  0  0  0
    7.9747   -4.9433   20.7852 H   0  0  0  0  0  0  0  0  0  0  0  0
    9.6744   -3.2878   22.3202 H   0  0  0  0  0  0  0  0  0  0  0  0
    7.5001   -1.6974   20.5876 N   0  0  0  0  0  0  0  0  0  0  0  0
    7.0920   -0.4251   20.8480 N   0  0  0  0  0  0  0  0  0  0  0  0
    6.4521    0.3309   19.8147 C   0  0  0  0  0  0  0  0  0  0  0  0
    5.2780    1.0839   19.9797 C   0  0  0  0  0  0  0  0  0  0  0  0
    4.6999    1.6486   18.8317 C   0  0  0  0  0  0  0  0  0  0  0  0
    5.3276    1.4963   17.5922 C   0  0  0  0  0  0  0  0  0  0  0  0
    6.4863    0.8312   17.4410 N   0  0  0  0  0  0  0  0  0  0  0  0
    7.0212    0.2726   18.5283 C   0  0  0  0  0  0  0  0  0  0  0  0
    7.9614   -0.2610   18.3963 H   0  0  0  0  0  0  0  0  0  0  0  0
    4.9105    1.9305   16.6855 H   0  0  0  0  0  0  0  0  0  0  0  0
    3.7767    2.2156   18.8876 H   0  0  0  0  0  0  0  0  0  0  0  0
    4.8048    1.2219   20.9537 H   0  0  0  0  0  0  0  0  0  0  0  0
    7.7288    1.2246   23.7183 H   0  0  0  0  0  0  0  0  0  0  0  0
    6.4150    1.6920   22.6498 H   0  0  0  0  0  0  0  0  0  0  0  0
    8.0718    2.3829   20.8890 H   0  0  0  0  0  0  0  0  0  0  0  0
    8.3579    3.2482   22.3934 H   0  0  0  0  0  0  0  0  0  0  0  0
   10.7424    2.0760   22.9560 C   0  0  0  0  0  0  0  0  0  0  0  0
   10.5122    2.8903   23.6450 H   0  0  0  0  0  0  0  0  0  0  0  0
    9.5412    0.4188   20.2610 H   0  0  0  0  0  0  0  0  0  0  0  0
   13.0909   -0.2605   22.2503 H   0  0  0  0  0  0  0  0  0  0  0  0
   13.5335    0.8397   24.4727 H   0  0  0  0  0  0  0  0  0  0  0  0
   12.3772    2.0346   25.0805 H   0  0  0  0  0  0  0  0  0  0  0  0
   13.5976    2.5098   23.8845 H   0  0  0  0  0  0  0  0  0  0  0  0
  1  2  1  0
  2  3  2  0
  3  4  1  0
  4  5  2  0
  5  6  1  0
  6  7  1  0
  7  8  1  0
  8  9  1  0
  9 10  2  0
 10 11  1  0
 11 12  1  0
 12 13  1  0
 13 14  1  0
 14 15  1  0
 15 16  1  0
 16 17  1  0
 16 18  1  0
 15 19  1  0
 15 20  1  0
 14 21  1  0
 14 22  1  0
 13 23  1  0
 13 24  1  0
 12 25  1  0
 11 26  2  0
 26 27  1  0
 27 28  1  0
 28 29  2  0
 29 30  1  0
 30 31  2  0
 31 32  1  0
 32 33  2  0
 33 34  1  0
 31 35  1  0
 30 36  1  0
 29 37  1  0
  8 38  1  0
  8 39  1  0
  7 40  1  0
  7 41  1  0
  6 42  2  0
 42 43  1  0
  5 44  1  0
  3 45  1  0
  1 46  1  0
  1 47  1  0
  1 48  1  0
 42  2  1  0
 27  9  1  0
 33 28  1  0
 16 12  1  0
M  END
>  <cnnaffinity>  (1) 
-5.91191

>  <filename>  (1) 
Cc1cncc(CCc2nc(C3CCCC3)nn2-c2cccnc2)c1

$$$$
