
     RDKit          3D

 55 58  0  0  0  0  0  0  0  0999 V2000
    7.9465   -5.4887   27.2275 C   0  0  0  0  0  0  0  0  0  0  0  0
    8.2016   -4.4596   26.1189 C   0  0  0  0  0  0  0  0  0  0  0  0
    8.2841   -5.1310   24.7330 C   0  0  0  0  0  0  0  0  0  0  0  0
    8.5206   -4.1157   23.6049 C   0  0  0  0  0  0  0  0  0  0  0  0
    7.4323   -3.0130   23.6075 C   0  0  0  0  0  0  0  0  0  0  0  0
    7.6619   -2.0103   22.5175 C   0  0  0  0  0  0  0  0  0  0  0  0
    6.7240   -1.6319   21.6743 N   0  0  0  0  0  0  0  0  0  0  0  0
    7.3491   -0.6879   20.9243 N   0  0  0  0  0  0  0  0  0  0  0  0
    6.6531   -0.0027   19.8918 C   0  0  0  0  0  0  0  0  0  0  0  0
    5.4388    0.6399   20.1568 C   0  0  0  0  0  0  0  0  0  0  0  0
    4.8085    1.3124   19.1042 C   0  0  0  0  0  0  0  0  0  0  0  0
    5.3953    1.2977   17.8340 C   0  0  0  0  0  0  0  0  0  0  0  0
    6.5474    0.6657   17.5698 N   0  0  0  0  0  0  0  0  0  0  0  0
    7.1590    0.0391   18.5805 C   0  0  0  0  0  0  0  0  0  0  0  0
    8.1031   -0.4485   18.3444 H   0  0  0  0  0  0  0  0  0  0  0  0
    4.9289    1.8037   16.9912 H   0  0  0  0  0  0  0  0  0  0  0  0
    3.8756    1.8426   19.2532 H   0  0  0  0  0  0  0  0  0  0  0  0
    5.0167    0.5952   21.1628 H   0  0  0  0  0  0  0  0  0  0  0  0
    8.6187   -0.5141   21.3984 C   0  0  0  0  0  0  0  0  0  0  0  0
    9.5518    0.5814   20.9992 C   0  0  0  0  0  0  0  0  0  0  0  0
    9.5154    1.7910   21.9638 C   0  0  0  0  0  0  0  0  0  0  0  0
    8.1653    2.5202   21.9609 C   0  0  0  0  0  0  0  0  0  0  0  0
    8.1563    3.6965   22.8456 N   0  0  0  0  0  0  0  0  0  0  0  0
    8.4757    4.9406   22.3579 C   0  0  0  0  0  0  0  0  0  0  0  0
    8.6262    6.0206   23.1693 C   0  0  0  0  0  0  0  0  0  0  0  0
    8.3510    5.8905   24.5701 C   0  0  0  0  0  0  0  0  0  0  0  0
    7.9855    4.6734   25.0651 C   0  0  0  0  0  0  0  0  0  0  0  0
    7.8912    3.4878   24.2197 C   0  0  0  0  0  0  0  0  0  0  0  0
    7.5941    2.3847   24.6580 O   0  0  0  0  0  0  0  0  0  0  0  0
    7.7389    4.4666   26.0972 H   0  0  0  0  0  0  0  0  0  0  0  0
    8.4069    6.7671   25.2149 H   0  0  0  0  0  0  0  0  0  0  0  0
    8.9290    6.9650   22.7297 H   0  0  0  0  0  0  0  0  0  0  0  0
    8.5513    5.0059   21.2739 H   0  0  0  0  0  0  0  0  0  0  0  0
    7.9118    2.8347   20.9444 H   0  0  0  0  0  0  0  0  0  0  0  0
    7.3608    1.8626   22.2996 H   0  0  0  0  0  0  0  0  0  0  0  0
   10.3084    2.4983   21.6859 H   0  0  0  0  0  0  0  0  0  0  0  0
    9.7273    1.4476   22.9857 H   0  0  0  0  0  0  0  0  0  0  0  0
   10.5574    0.1512   20.9721 H   0  0  0  0  0  0  0  0  0  0  0  0
    9.3100    0.8838   19.9787 H   0  0  0  0  0  0  0  0  0  0  0  0
    8.8507   -1.3636   22.3770 N   0  0  0  0  0  0  0  0  0  0  0  0
    7.3500   -2.3234   24.9998 C   0  0  0  0  0  0  0  0  0  0  0  0
    7.1276   -3.3538   26.1179 C   0  0  0  0  0  0  0  0  0  0  0  0
    7.1123   -2.8520   27.0959 H   0  0  0  0  0  0  0  0  0  0  0  0
    6.1346   -3.8208   25.9957 H   0  0  0  0  0  0  0  0  0  0  0  0
    6.5414   -1.5791   25.0067 H   0  0  0  0  0  0  0  0  0  0  0  0
    8.2862   -1.7672   25.1763 H   0  0  0  0  0  0  0  0  0  0  0  0
    6.4544   -3.4649   23.3861 H   0  0  0  0  0  0  0  0  0  0  0  0
    8.5382   -4.6233   22.6316 H   0  0  0  0  0  0  0  0  0  0  0  0
    9.5086   -3.6411   23.7204 H   0  0  0  0  0  0  0  0  0  0  0  0
    7.3433   -5.6776   24.5458 H   0  0  0  0  0  0  0  0  0  0  0  0
    9.0836   -5.8853   24.7353 H   0  0  0  0  0  0  0  0  0  0  0  0
    9.1757   -3.9718   26.3065 H   0  0  0  0  0  0  0  0  0  0  0  0
    6.9839   -5.9964   27.0742 H   0  0  0  0  0  0  0  0  0  0  0  0
    7.9172   -5.0151   28.2164 H   0  0  0  0  0  0  0  0  0  0  0  0
    8.7257   -6.2598   27.2455 H   0  0  0  0  0  0  0  0  0  0  0  0
  1  2  1  0
  2  3  1  0
  3  4  1  0
  4  5  1  0
  5  6  1  0
  6  7  2  0
  7  8  1  0
  8  9  1  0
  9 10  2  0
 10 11  1  0
 11 12  2  0
 12 13  1  0
 13 14  2  0
 14 15  1  0
 12 16  1  0
 11 17  1  0
 10 18  1  0
  8 19  1  0
 19 20  1  0
 20 21  1  0
 21 22  1  0
 22 23  1  0
 23 24  1  0
 24 25  2  0
 25 26  1  0
 26 27  2  0
 27 28  1  0
 28 29  2  0
 27 30  1  0
 26 31  1  0
 25 32  1  0
 24 33  1  0
 22 34  1  0
 22 35  1  0
 21 36  1  0
 21 37  1  0
 20 38  1  0
 20 39  1  0
 19 40  2  0
  5 41  1  0
 41 42  1  0
 42 43  1  0
 42 44  1  0
 41 45  1  0
 41 46  1  0
  5 47  1  0
  4 48  1  0
  4 49  1  0
  3 50  1  0
  3 51  1  0
  2 52  1  0
  1 53  1  0
  1 54  1  0
  1 55  1  0
 42  2  1  0
 40  6  1  0
 14  9  1  0
 28 23  1  0
M  END
>  <cnnaffinity>  (1) 
-6.49815

>  <filename>  (1) 
CC1CCC(c2nc(CCCn3ccccc3=O)n(-c3cccnc3)n2)CC1

$$$$
