
     RDKit          3D

 48 50  0  0  0  0  0  0  0  0999 V2000
    8.3258    2.7577   22.0607 C   0  0  0  0  0  0  0  0  0  0  0  0
    9.6810    2.2663   22.5112 C   0  0  0  0  0  0  0  0  0  0  0  0
   10.3704    2.8962   23.5612 C   0  0  0  0  0  0  0  0  0  0  0  0
   11.5649    2.5180   24.0331 N   0  0  0  0  0  0  0  0  0  0  0  0
   12.1440    1.4595   23.4529 C   0  0  0  0  0  0  0  0  0  0  0  0
   11.5622    0.7602   22.3926 C   0  0  0  0  0  0  0  0  0  0  0  0
   10.3217    1.1685   21.9054 C   0  0  0  0  0  0  0  0  0  0  0  0
    9.6396    0.3557   20.8306 C   0  0  0  0  0  0  0  0  0  0  0  0
    8.5918   -0.5414   21.3918 C   0  0  0  0  0  0  0  0  0  0  0  0
    8.8128   -1.3822   22.3719 N   0  0  0  0  0  0  0  0  0  0  0  0
    7.6216   -2.0154   22.5066 C   0  0  0  0  0  0  0  0  0  0  0  0
    7.4198   -3.0714   23.5396 C   0  0  0  0  0  0  0  0  0  0  0  0
    7.6761   -4.3421   22.9768 O   0  0  0  0  0  0  0  0  0  0  0  0
    7.1797   -5.5324   23.5987 C   0  0  0  0  0  0  0  0  0  0  0  0
    7.8648   -6.5935   22.7253 C   0  0  0  0  0  0  0  0  0  0  0  0
    7.4347   -7.5948   22.7879 H   0  0  0  0  0  0  0  0  0  0  0  0
    8.9341   -6.6453   22.9478 H   0  0  0  0  0  0  0  0  0  0  0  0
    7.7557   -6.2836   21.6804 H   0  0  0  0  0  0  0  0  0  0  0  0
    5.6566   -5.6125   23.4458 C   0  0  0  0  0  0  0  0  0  0  0  0
    5.2819   -6.5738   23.8143 H   0  0  0  0  0  0  0  0  0  0  0  0
    5.3777   -5.5090   22.3923 H   0  0  0  0  0  0  0  0  0  0  0  0
    5.1622   -4.8221   24.0197 H   0  0  0  0  0  0  0  0  0  0  0  0
    7.5844   -5.5542   25.0836 C   0  0  0  0  0  0  0  0  0  0  0  0
    7.0698   -4.7404   25.6077 H   0  0  0  0  0  0  0  0  0  0  0  0
    8.6617   -5.3924   25.1969 H   0  0  0  0  0  0  0  0  0  0  0  0
    7.3184   -6.4809   25.5992 H   0  0  0  0  0  0  0  0  0  0  0  0
    8.1295   -2.8679   24.3509 H   0  0  0  0  0  0  0  0  0  0  0  0
    6.3926   -2.9815   23.9118 H   0  0  0  0  0  0  0  0  0  0  0  0
    6.6739   -1.6149   21.6803 N   0  0  0  0  0  0  0  0  0  0  0  0
    7.3098   -0.6798   20.9364 N   0  0  0  0  0  0  0  0  0  0  0  0
    6.6271   -0.0106   19.8822 C   0  0  0  0  0  0  0  0  0  0  0  0
    5.4192    0.6367   20.1418 C   0  0  0  0  0  0  0  0  0  0  0  0
    4.7943    1.3177   19.0938 C   0  0  0  0  0  0  0  0  0  0  0  0
    5.3921    1.3026   17.8267 C   0  0  0  0  0  0  0  0  0  0  0  0
    6.5376    0.6572   17.5613 N   0  0  0  0  0  0  0  0  0  0  0  0
    7.1417    0.0218   18.5737 C   0  0  0  0  0  0  0  0  0  0  0  0
    8.0857   -0.4703   18.3388 H   0  0  0  0  0  0  0  0  0  0  0  0
    4.9314    1.8250   16.9915 H   0  0  0  0  0  0  0  0  0  0  0  0
    3.8671    1.8604   19.2485 H   0  0  0  0  0  0  0  0  0  0  0  0
    4.9993    0.5936   21.1482 H   0  0  0  0  0  0  0  0  0  0  0  0
    9.2036    0.9870   20.0600 H   0  0  0  0  0  0  0  0  0  0  0  0
   10.3587   -0.3161   20.3606 H   0  0  0  0  0  0  0  0  0  0  0  0
   12.0642   -0.1034   21.9626 H   0  0  0  0  0  0  0  0  0  0  0  0
   13.1042    1.1534   23.8587 H   0  0  0  0  0  0  0  0  0  0  0  0
    9.9189    3.7593   24.0539 H   0  0  0  0  0  0  0  0  0  0  0  0
    7.9794    3.6032   22.6610 H   0  0  0  0  0  0  0  0  0  0  0  0
    7.5652    1.9705   22.1207 H   0  0  0  0  0  0  0  0  0  0  0  0
    8.3672    3.0800   21.0184 H   0  0  0  0  0  0  0  0  0  0  0  0
  1  2  1  0
  2  3  2  0
  3  4  1  0
  4  5  2  0
  5  6  1  0
  6  7  2  0
  7  8  1  0
  8  9  1  0
  9 10  2  0
 10 11  1  0
 11 12  1  0
 12 13  1  0
 13 14  1  0
 14 15  1  0
 15 16  1  0
 15 17  1  0
 15 18  1  0
 14 19  1  0
 19 20  1  0
 19 21  1  0
 19 22  1  0
 14 23  1  0
 23 24  1  0
 23 25  1  0
 23 26  1  0
 12 27  1  0
 12 28  1  0
 11 29  2  0
 29 30  1  0
 30 31  1  0
 31 32  2  0
 32 33  1  0
 33 34  2  0
 34 35  1  0
 35 36  2  0
 36 37  1  0
 34 38  1  0
 33 39  1  0
 32 40  1  0
  8 41  1  0
  8 42  1  0
  6 43  1  0
  5 44  1  0
  3 45  1  0
  1 46  1  0
  1 47  1  0
  1 48  1  0
  7  2  1  0
 30  9  1  0
 36 31  1  0
M  END
>  <cnnaffinity>  (1) 
-6.21167

>  <filename>  (1) 
Cc1cnccc1Cc1nc(COC(C)(C)C)nn1-c1cccnc1

$$$$
