
     RDKit          3D

 48 51  0  0  0  0  0  0  0  0999 V2000
    9.0311   -4.7817   27.1464 C   0  0  0  0  0  0  0  0  0  0  0  0
    8.8814   -3.4961   26.3211 C   0  0  0  0  0  0  0  0  0  0  0  0
    7.3869   -3.0740   26.2294 C   0  0  0  0  0  0  0  0  0  0  0  0
    7.1048   -2.2092   24.9924 C   0  0  0  0  0  0  0  0  0  0  0  0
    7.3638   -2.9974   23.6628 C   0  0  0  0  0  0  0  0  0  0  0  0
    7.6282   -2.0315   22.5359 C   0  0  0  0  0  0  0  0  0  0  0  0
    6.7061   -1.6485   21.6766 N   0  0  0  0  0  0  0  0  0  0  0  0
    7.3598   -0.7272   20.9121 N   0  0  0  0  0  0  0  0  0  0  0  0
    6.6627   -0.0525   19.8677 C   0  0  0  0  0  0  0  0  0  0  0  0
    5.4441    0.5765   20.1361 C   0  0  0  0  0  0  0  0  0  0  0  0
    4.8341    1.3069   19.1099 C   0  0  0  0  0  0  0  0  0  0  0  0
    5.4321    1.3271   17.8437 C   0  0  0  0  0  0  0  0  0  0  0  0
    6.5671    0.6716   17.5619 N   0  0  0  0  0  0  0  0  0  0  0  0
    7.1641    0.0012   18.5561 C   0  0  0  0  0  0  0  0  0  0  0  0
    8.0759   -0.5292   18.2904 H   0  0  0  0  0  0  0  0  0  0  0  0
    4.9719    1.8697   17.0187 H   0  0  0  0  0  0  0  0  0  0  0  0
    3.9077    1.8483   19.2738 H   0  0  0  0  0  0  0  0  0  0  0  0
    4.9886    0.4605   21.1203 H   0  0  0  0  0  0  0  0  0  0  0  0
    8.6234   -0.5591   21.4101 C   0  0  0  0  0  0  0  0  0  0  0  0
    9.5885    0.5363   21.0723 C   0  0  0  0  0  0  0  0  0  0  0  0
    9.6599    1.6662   22.1385 C   0  0  0  0  0  0  0  0  0  0  0  0
    8.3263    2.3094   22.3737 C   0  0  0  0  0  0  0  0  0  0  0  0
    7.2417    2.1138   23.1664 C   0  0  0  0  0  0  0  0  0  0  0  0
    6.2054    2.9636   22.7956 N   0  0  0  0  0  0  0  0  0  0  0  0
    6.6996    3.6151   21.7936 C   0  0  0  0  0  0  0  0  0  0  0  0
    7.9707    3.2846   21.4928 O   0  0  0  0  0  0  0  0  0  0  0  0
    6.2564    4.3850   21.1692 H   0  0  0  0  0  0  0  0  0  0  0  0
    7.1025    1.3981   23.9603 H   0  0  0  0  0  0  0  0  0  0  0  0
   10.0421    1.2675   23.0818 H   0  0  0  0  0  0  0  0  0  0  0  0
   10.3650    2.4357   21.7994 H   0  0  0  0  0  0  0  0  0  0  0  0
   10.5759    0.0825   20.9577 H   0  0  0  0  0  0  0  0  0  0  0  0
    9.3225    0.9792   20.1138 H   0  0  0  0  0  0  0  0  0  0  0  0
    8.8272   -1.4067   22.3986 N   0  0  0  0  0  0  0  0  0  0  0  0
    8.5165   -4.0379   23.8273 C   0  0  0  0  0  0  0  0  0  0  0  0
    9.5298   -3.6200   24.9117 C   0  0  0  0  0  0  0  0  0  0  0  0
    9.9619   -2.6528   24.6181 H   0  0  0  0  0  0  0  0  0  0  0  0
   10.3620   -4.3355   24.9421 H   0  0  0  0  0  0  0  0  0  0  0  0
    8.0798   -5.0091   24.1065 H   0  0  0  0  0  0  0  0  0  0  0  0
    9.0306   -4.1934   22.8723 H   0  0  0  0  0  0  0  0  0  0  0  0
    6.4461   -3.5307   23.3890 H   0  0  0  0  0  0  0  0  0  0  0  0
    7.7647   -1.3274   25.0276 H   0  0  0  0  0  0  0  0  0  0  0  0
    6.0730   -1.8370   25.0055 H   0  0  0  0  0  0  0  0  0  0  0  0
    7.0985   -2.5355   27.1414 H   0  0  0  0  0  0  0  0  0  0  0  0
    6.7504   -3.9728   26.1895 H   0  0  0  0  0  0  0  0  0  0  0  0
    9.4210   -2.6943   26.8481 H   0  0  0  0  0  0  0  0  0  0  0  0
    8.5611   -4.6765   28.1304 H   0  0  0  0  0  0  0  0  0  0  0  0
   10.0861   -5.0355   27.2988 H   0  0  0  0  0  0  0  0  0  0  0  0
    8.5540   -5.6322   26.6407 H   0  0  0  0  0  0  0  0  0  0  0  0
  1  2  1  0
  2  3  1  0
  3  4  1  0
  4  5  1  0
  5  6  1  0
  6  7  2  0
  7  8  1  0
  8  9  1  0
  9 10  2  0
 10 11  1  0
 11 12  2  0
 12 13  1  0
 13 14  2  0
 14 15  1  0
 12 16  1  0
 11 17  1  0
 10 18  1  0
  8 19  1  0
 19 20  1  0
 20 21  1  0
 21 22  1  0
 22 23  2  0
 23 24  1  0
 24 25  2  0
 25 26  1  0
 25 27  1  0
 23 28  1  0
 21 29  1  0
 21 30  1  0
 20 31  1  0
 20 32  1  0
 19 33  2  0
  5 34  1  0
 34 35  1  0
 35 36  1  0
 35 37  1  0
 34 38  1  0
 34 39  1  0
  5 40  1  0
  4 41  1  0
  4 42  1  0
  3 43  1  0
  3 44  1  0
  2 45  1  0
  1 46  1  0
  1 47  1  0
  1 48  1  0
 35  2  1  0
 33  6  1  0
 14  9  1  0
 26 22  1  0
M  END
>  <cnnaffinity>  (1) 
-6.25912

>  <filename>  (1) 
CC1CCC(c2nc(CCc3cnco3)n(-c3cccnc3)n2)CC1

$$$$
