
     RDKit          3D

 45 48  0  0  0  0  0  0  0  0999 V2000
   14.7112    1.5259   22.7158 C   0  0  0  0  0  0  0  0  0  0  0  0
   13.9506    0.4338   22.0712 C   0  0  0  0  0  0  0  0  0  0  0  0
   12.5984    0.3612   22.3785 C   0  0  0  0  0  0  0  0  0  0  0  0
   11.7686   -0.5858   21.7873 C   0  0  0  0  0  0  0  0  0  0  0  0
   10.3139   -0.3481   21.8056 C   0  0  0  0  0  0  0  0  0  0  0  0
    9.3630   -1.1172   21.2968 N   0  0  0  0  0  0  0  0  0  0  0  0
    8.2376   -0.3831   21.5073 N   0  0  0  0  0  0  0  0  0  0  0  0
    6.9286   -0.8304   21.0387 C   0  0  0  0  0  0  0  0  0  0  0  0
    6.3585    0.0025   19.9043 C   0  0  0  0  0  0  0  0  0  0  0  0
    5.1582    0.7165   20.0187 C   0  0  0  0  0  0  0  0  0  0  0  0
    4.6843    1.4226   18.9091 C   0  0  0  0  0  0  0  0  0  0  0  0
    5.4313    1.3928   17.7275 C   0  0  0  0  0  0  0  0  0  0  0  0
    6.5930    0.7325   17.6023 N   0  0  0  0  0  0  0  0  0  0  0  0
    7.0418    0.0728   18.6768 C   0  0  0  0  0  0  0  0  0  0  0  0
    7.9962   -0.4388   18.5556 H   0  0  0  0  0  0  0  0  0  0  0  0
    5.0770    1.9093   16.8371 H   0  0  0  0  0  0  0  0  0  0  0  0
    3.7599    1.9904   18.9452 H   0  0  0  0  0  0  0  0  0  0  0  0
    4.5998    0.7257   20.9600 H   0  0  0  0  0  0  0  0  0  0  0  0
    6.2455   -0.8209   21.8956 H   0  0  0  0  0  0  0  0  0  0  0  0
    7.0525   -1.8752   20.7423 H   0  0  0  0  0  0  0  0  0  0  0  0
    8.5656    0.7636   22.1357 C   0  0  0  0  0  0  0  0  0  0  0  0
    7.6672    1.7040   22.8564 C   0  0  0  0  0  0  0  0  0  0  0  0
    7.4825    1.1080   24.2250 C   0  0  0  0  0  0  0  0  0  0  0  0
    8.4548    1.2416   25.2317 C   0  0  0  0  0  0  0  0  0  0  0  0
    8.3190    0.5212   26.4241 C   0  0  0  0  0  0  0  0  0  0  0  0
    7.1951   -0.2894   26.5452 C   0  0  0  0  0  0  0  0  0  0  0  0
    7.0153   -1.0313   27.6483 F   0  0  0  0  0  0  0  0  0  0  0  0
    6.2547   -0.3504   25.5133 C   0  0  0  0  0  0  0  0  0  0  0  0
    6.4084    0.3243   24.3606 N   0  0  0  0  0  0  0  0  0  0  0  0
    5.3664   -0.9651   25.6240 H   0  0  0  0  0  0  0  0  0  0  0  0
    9.0587    0.5473   27.2229 H   0  0  0  0  0  0  0  0  0  0  0  0
    9.3237    1.8598   25.0352 H   0  0  0  0  0  0  0  0  0  0  0  0
    8.1892    2.6614   22.8981 H   0  0  0  0  0  0  0  0  0  0  0  0
    6.7059    1.8335   22.3598 H   0  0  0  0  0  0  0  0  0  0  0  0
    9.8579    0.8234   22.3204 N   0  0  0  0  0  0  0  0  0  0  0  0
   12.3862   -1.6163   21.0676 C   0  0  0  0  0  0  0  0  0  0  0  0
   13.7351   -1.5504   20.6916 C   0  0  0  0  0  0  0  0  0  0  0  0
   14.4646   -0.4304   21.1008 C   0  0  0  0  0  0  0  0  0  0  0  0
   15.4300    0.1408   20.2411 F   0  0  0  0  0  0  0  0  0  0  0  0
   14.1590   -2.2470   19.9792 H   0  0  0  0  0  0  0  0  0  0  0  0
   11.7373   -2.3879   20.7184 H   0  0  0  0  0  0  0  0  0  0  0  0
   12.1848    1.1361   23.0170 H   0  0  0  0  0  0  0  0  0  0  0  0
   14.1716    2.4792   22.6633 H   0  0  0  0  0  0  0  0  0  0  0  0
   15.6998    1.6834   22.2837 H   0  0  0  0  0  0  0  0  0  0  0  0
   14.7469    1.2204   23.7544 H   0  0  0  0  0  0  0  0  0  0  0  0
  1  2  1  0
  2  3  2  0
  3  4  1  0
  4  5  1  0
  5  6  2  0
  6  7  1  0
  7  8  1  0
  8  9  1  0
  9 10  2  0
 10 11  1  0
 11 12  2  0
 12 13  1  0
 13 14  2  0
 14 15  1  0
 12 16  1  0
 11 17  1  0
 10 18  1  0
  8 19  1  0
  8 20  1  0
  7 21  1  0
 21 22  1  0
 22 23  1  0
 23 24  2  0
 24 25  1  0
 25 26  2  0
 26 27  1  0
 26 28  1  0
 28 29  2  0
 28 30  1  0
 25 31  1  0
 24 32  1  0
 22 33  1  0
 22 34  1  0
 21 35  2  0
  4 36  2  0
 36 37  1  0
 37 38  2  0
 38 39  1  0
 37 40  1  0
 36 41  1  0
  3 42  1  0
  1 43  1  0
  1 44  1  0
  1 45  1  0
 38  2  1  0
 35  5  1  0
 14  9  1  0
 29 23  1  0
M  END
>  <cnnaffinity>  (1) 
-6.85539

>  <filename>  (1) 
Cc1cc(-c2nc(Cc3ccc(F)cn3)n(Cc3cccnc3)n2)ccc1F

$$$$
