
     RDKit          3D

 42 45  0  0  0  0  0  0  0  0999 V2000
    8.3208    2.7600   22.0564 C   0  0  0  0  0  0  0  0  0  0  0  0
    9.6729    2.2602   22.4970 C   0  0  0  0  0  0  0  0  0  0  0  0
   10.3638    2.8781   23.5463 C   0  0  0  0  0  0  0  0  0  0  0  0
   11.5550    2.4943   24.0221 N   0  0  0  0  0  0  0  0  0  0  0  0
   12.1148    1.4315   23.4382 C   0  0  0  0  0  0  0  0  0  0  0  0
   11.5336    0.7413   22.3779 C   0  0  0  0  0  0  0  0  0  0  0  0
   10.3079    1.1711   21.8789 C   0  0  0  0  0  0  0  0  0  0  0  0
    9.6212    0.3741   20.8038 C   0  0  0  0  0  0  0  0  0  0  0  0
    8.6195   -0.5699   21.3656 C   0  0  0  0  0  0  0  0  0  0  0  0
    8.8626   -1.4328   22.3245 N   0  0  0  0  0  0  0  0  0  0  0  0
    7.6563   -2.0255   22.5258 C   0  0  0  0  0  0  0  0  0  0  0  0
    7.4303   -3.0459   23.5793 C   0  0  0  0  0  0  0  0  0  0  0  0
    8.4759   -3.4481   24.4375 C   0  0  0  0  0  0  0  0  0  0  0  0
    8.2433   -4.4106   25.4235 C   0  0  0  0  0  0  0  0  0  0  0  0
    6.9737   -4.9825   25.5694 C   0  0  0  0  0  0  0  0  0  0  0  0
    5.9329   -4.5856   24.7230 C   0  0  0  0  0  0  0  0  0  0  0  0
    6.1530   -3.6247   23.7354 C   0  0  0  0  0  0  0  0  0  0  0  0
    5.3402   -3.3114   23.0814 H   0  0  0  0  0  0  0  0  0  0  0  0
    4.9441   -5.0233   24.8331 H   0  0  0  0  0  0  0  0  0  0  0  0
    6.7956   -5.7319   26.3394 H   0  0  0  0  0  0  0  0  0  0  0  0
    9.0525   -4.7178   26.0822 H   0  0  0  0  0  0  0  0  0  0  0  0
    9.4682   -3.0086   24.3359 H   0  0  0  0  0  0  0  0  0  0  0  0
    6.7017   -1.6006   21.7101 N   0  0  0  0  0  0  0  0  0  0  0  0
    7.3339   -0.6945   20.9325 N   0  0  0  0  0  0  0  0  0  0  0  0
    6.6474   -0.0031   19.8974 C   0  0  0  0  0  0  0  0  0  0  0  0
    5.4372    0.6433   20.1669 C   0  0  0  0  0  0  0  0  0  0  0  0
    4.8120    1.3124   19.1105 C   0  0  0  0  0  0  0  0  0  0  0  0
    5.4017    1.2961   17.8393 C   0  0  0  0  0  0  0  0  0  0  0  0
    6.5594    0.6721   17.5774 N   0  0  0  0  0  0  0  0  0  0  0  0
    7.1649    0.0476   18.5912 C   0  0  0  0  0  0  0  0  0  0  0  0
    8.1144   -0.4325   18.3681 H   0  0  0  0  0  0  0  0  0  0  0  0
    4.9169    1.7833   16.9953 H   0  0  0  0  0  0  0  0  0  0  0  0
    3.8787    1.8416   19.2628 H   0  0  0  0  0  0  0  0  0  0  0  0
    5.0134    0.6115   21.1744 H   0  0  0  0  0  0  0  0  0  0  0  0
    9.1603    1.0430   20.0765 H   0  0  0  0  0  0  0  0  0  0  0  0
   10.3346   -0.2762   20.3002 H   0  0  0  0  0  0  0  0  0  0  0  0
   12.0168   -0.1311   21.9538 H   0  0  0  0  0  0  0  0  0  0  0  0
   13.0747    1.1181   23.8286 H   0  0  0  0  0  0  0  0  0  0  0  0
    9.9136    3.7401   24.0264 H   0  0  0  0  0  0  0  0  0  0  0  0
    7.9724    3.6066   22.6539 H   0  0  0  0  0  0  0  0  0  0  0  0
    7.5532    1.9786   22.1020 H   0  0  0  0  0  0  0  0  0  0  0  0
    8.3622    3.0902   21.0184 H   0  0  0  0  0  0  0  0  0  0  0  0
  1  2  1  0
  2  3  2  0
  3  4  1  0
  4  5  2  0
  5  6  1  0
  6  7  2  0
  7  8  1  0
  8  9  1  0
  9 10  2  0
 10 11  1  0
 11 12  1  0
 12 13  2  0
 13 14  1  0
 14 15  2  0
 15 16  1  0
 16 17  2  0
 17 18  1  0
 16 19  1  0
 15 20  1  0
 14 21  1  0
 13 22  1  0
 11 23  2  0
 23 24  1  0
 24 25  1  0
 25 26  2  0
 26 27  1  0
 27 28  2  0
 28 29  1  0
 29 30  2  0
 30 31  1  0
 28 32  1  0
 27 33  1  0
 26 34  1  0
  8 35  1  0
  8 36  1  0
  6 37  1  0
  5 38  1  0
  3 39  1  0
  1 40  1  0
  1 41  1  0
  1 42  1  0
  7  2  1  0
 24  9  1  0
 30 25  1  0
 17 12  1  0
M  END
>  <cnnaffinity>  (1) 
-6.05559

>  <filename>  (1) 
Cc1cnccc1Cc1nc(-c2ccccc2)nn1-c1cccnc1

$$$$
