
     RDKit          3D

 49 52  0  0  0  0  0  0  0  0999 V2000
    7.8445    6.7652   24.5692 C   0  0  0  0  0  0  0  0  0  0  0  0
    7.8003    5.2779   24.7008 C   0  0  0  0  0  0  0  0  0  0  0  0
    7.1268    4.6968   25.6857 N   0  0  0  0  0  0  0  0  0  0  0  0
    7.2402    3.3790   25.4421 N   0  0  0  0  0  0  0  0  0  0  0  0
    7.9680    3.0944   24.3366 C   0  0  0  0  0  0  0  0  0  0  0  0
    8.1088    1.7214   23.7864 C   0  0  0  0  0  0  0  0  0  0  0  0
    6.9925    1.3196   22.7895 C   0  0  0  0  0  0  0  0  0  0  0  0
    7.2445   -0.0491   22.2463 C   0  0  0  0  0  0  0  0  0  0  0  0
    7.8043   -1.0048   22.9651 N   0  0  0  0  0  0  0  0  0  0  0  0
    8.0436   -1.9806   22.0612 C   0  0  0  0  0  0  0  0  0  0  0  0
    8.7318   -3.2532   22.4612 C   0  0  0  0  0  0  0  0  0  0  0  0
    7.7897   -4.1131   23.3674 C   0  0  0  0  0  0  0  0  0  0  0  0
    8.5487   -5.2299   24.1057 C   0  0  0  0  0  0  0  0  0  0  0  0
    9.6796   -4.6792   24.9851 C   0  0  0  0  0  0  0  0  0  0  0  0
   10.7647   -5.5162   24.9062 F   0  0  0  0  0  0  0  0  0  0  0  0
    9.2984   -4.6913   26.3051 F   0  0  0  0  0  0  0  0  0  0  0  0
   10.1161   -3.2631   24.6325 C   0  0  0  0  0  0  0  0  0  0  0  0
   10.1193   -2.9606   23.1316 C   0  0  0  0  0  0  0  0  0  0  0  0
   10.9314   -3.5190   22.6569 H   0  0  0  0  0  0  0  0  0  0  0  0
   10.4169   -1.9105   23.0224 H   0  0  0  0  0  0  0  0  0  0  0  0
   11.1091   -3.1133   25.0465 H   0  0  0  0  0  0  0  0  0  0  0  0
    9.4305   -2.5728   25.1366 H   0  0  0  0  0  0  0  0  0  0  0  0
    8.9929   -5.9198   23.3789 H   0  0  0  0  0  0  0  0  0  0  0  0
    7.8843   -5.8220   24.7453 H   0  0  0  0  0  0  0  0  0  0  0  0
    6.9957   -4.5525   22.7555 H   0  0  0  0  0  0  0  0  0  0  0  0
    7.2892   -3.4534   24.0906 H   0  0  0  0  0  0  0  0  0  0  0  0
    8.8815   -3.7935   21.5267 H   0  0  0  0  0  0  0  0  0  0  0  0
    7.6236   -1.7253   20.8405 N   0  0  0  0  0  0  0  0  0  0  0  0
    7.0633   -0.4864   20.9632 N   0  0  0  0  0  0  0  0  0  0  0  0
    6.4511    0.1490   19.8482 C   0  0  0  0  0  0  0  0  0  0  0  0
    5.2684    0.8942   19.9623 C   0  0  0  0  0  0  0  0  0  0  0  0
    4.7597    1.5006   18.8076 C   0  0  0  0  0  0  0  0  0  0  0  0
    5.4444    1.3485   17.5992 C   0  0  0  0  0  0  0  0  0  0  0  0
    6.5636    0.6127   17.4784 N   0  0  0  0  0  0  0  0  0  0  0  0
    7.0432    0.0238   18.5774 C   0  0  0  0  0  0  0  0  0  0  0  0
    7.9426   -0.5750   18.4632 H   0  0  0  0  0  0  0  0  0  0  0  0
    5.0798    1.8254   16.6904 H   0  0  0  0  0  0  0  0  0  0  0  0
    3.8512    2.0940   18.8401 H   0  0  0  0  0  0  0  0  0  0  0  0
    4.7435    0.9840   20.9150 H   0  0  0  0  0  0  0  0  0  0  0  0
    6.0185    1.3163   23.2962 H   0  0  0  0  0  0  0  0  0  0  0  0
    6.9199    2.0529   21.9782 H   0  0  0  0  0  0  0  0  0  0  0  0
    9.0775    1.6671   23.2768 H   0  0  0  0  0  0  0  0  0  0  0  0
    8.1353    0.9806   24.5944 H   0  0  0  0  0  0  0  0  0  0  0  0
    8.3806    4.3158   23.8449 C   0  0  0  0  0  0  0  0  0  0  0  0
    9.0126    4.4995   22.9847 H   0  0  0  0  0  0  0  0  0  0  0  0
    6.8338    2.7171   26.0875 H   0  0  0  0  0  0  0  0  0  0  0  0
    8.7619    7.1729   25.0059 H   0  0  0  0  0  0  0  0  0  0  0  0
    6.9856    7.2105   25.0786 H   0  0  0  0  0  0  0  0  0  0  0  0
    7.8152    7.0499   23.5128 H   0  0  0  0  0  0  0  0  0  0  0  0
  1  2  1  0
  2  3  2  0
  3  4  1  0
  4  5  1  0
  5  6  1  0
  6  7  1  0
  7  8  1  0
  8  9  2  0
  9 10  1  0
 10 11  1  0
 11 12  1  0
 12 13  1  0
 13 14  1  0
 14 15  1  0
 14 16  1  0
 14 17  1  0
 17 18  1  0
 18 19  1  0
 18 20  1  0
 17 21  1  0
 17 22  1  0
 13 23  1  0
 13 24  1  0
 12 25  1  0
 12 26  1  0
 11 27  1  0
 10 28  2  0
 28 29  1  0
 29 30  1  0
 30 31  2  0
 31 32  1  0
 32 33  2  0
 33 34  1  0
 34 35  2  0
 35 36  1  0
 33 37  1  0
 32 38  1  0
 31 39  1  0
  7 40  1  0
  7 41  1  0
  6 42  1  0
  6 43  1  0
  5 44  2  0
 44 45  1  0
  4 46  1  0
  1 47  1  0
  1 48  1  0
  1 49  1  0
 44  2  1  0
 29  8  1  0
 35 30  1  0
 18 11  1  0
M  END
>  <cnnaffinity>  (1) 
-6.55191

>  <filename>  (1) 
Cc1cc(CCc2nc(C3CCC(F)(F)CC3)nn2-c2cccnc2)[nH]n1

$$$$
