
     RDKit          3D

 42 45  0  0  0  0  0  0  0  0999 V2000
    8.1597    2.6804   22.1020 C   0  0  0  0  0  0  0  0  0  0  0  0
    9.5422    2.2741   22.5479 C   0  0  0  0  0  0  0  0  0  0  0  0
   10.1590    2.9580   23.5966 C   0  0  0  0  0  0  0  0  0  0  0  0
   11.4315    2.5605   24.0099 C   0  0  0  0  0  0  0  0  0  0  0  0
   12.0449    1.4964   23.3541 C   0  0  0  0  0  0  0  0  0  0  0  0
   11.4804    0.8276   22.3382 N   0  0  0  0  0  0  0  0  0  0  0  0
   10.2617    1.2057   21.9485 C   0  0  0  0  0  0  0  0  0  0  0  0
    9.6378    0.3930   20.8462 C   0  0  0  0  0  0  0  0  0  0  0  0
    8.6300   -0.5437   21.3867 C   0  0  0  0  0  0  0  0  0  0  0  0
    8.8651   -1.3984   22.3509 N   0  0  0  0  0  0  0  0  0  0  0  0
    7.6658   -2.0141   22.5266 C   0  0  0  0  0  0  0  0  0  0  0  0
    7.4325   -3.0424   23.5766 C   0  0  0  0  0  0  0  0  0  0  0  0
    6.1550   -3.6248   23.7223 C   0  0  0  0  0  0  0  0  0  0  0  0
    5.9621   -4.5800   24.7146 C   0  0  0  0  0  0  0  0  0  0  0  0
    4.7463   -5.1315   24.8450 F   0  0  0  0  0  0  0  0  0  0  0  0
    6.9785   -4.9874   25.5758 C   0  0  0  0  0  0  0  0  0  0  0  0
    8.2401   -4.4028   25.4269 C   0  0  0  0  0  0  0  0  0  0  0  0
    8.4755   -3.4392   24.4415 C   0  0  0  0  0  0  0  0  0  0  0  0
    9.4628   -2.9932   24.3432 H   0  0  0  0  0  0  0  0  0  0  0  0
    9.0454   -4.7065   26.0905 H   0  0  0  0  0  0  0  0  0  0  0  0
    6.7691   -5.7390   26.3340 H   0  0  0  0  0  0  0  0  0  0  0  0
    5.3214   -3.3390   23.0831 H   0  0  0  0  0  0  0  0  0  0  0  0
    6.7162   -1.6002   21.7017 N   0  0  0  0  0  0  0  0  0  0  0  0
    7.3482   -0.6841   20.9326 N   0  0  0  0  0  0  0  0  0  0  0  0
    6.6494   -0.0024   19.8979 C   0  0  0  0  0  0  0  0  0  0  0  0
    5.4374    0.6418   20.1662 C   0  0  0  0  0  0  0  0  0  0  0  0
    4.8118    1.3113   19.1098 C   0  0  0  0  0  0  0  0  0  0  0  0
    5.3990    1.2965   17.8382 C   0  0  0  0  0  0  0  0  0  0  0  0
    6.5554    0.6705   17.5744 N   0  0  0  0  0  0  0  0  0  0  0  0
    7.1621    0.0448   18.5887 C   0  0  0  0  0  0  0  0  0  0  0  0
    8.1120   -0.4347   18.3647 H   0  0  0  0  0  0  0  0  0  0  0  0
    4.9199    1.7867   16.9940 H   0  0  0  0  0  0  0  0  0  0  0  0
    3.8806    1.8402   19.2613 H   0  0  0  0  0  0  0  0  0  0  0  0
    5.0155    0.6102   21.1752 H   0  0  0  0  0  0  0  0  0  0  0  0
    9.1859    1.0387   20.0946 H   0  0  0  0  0  0  0  0  0  0  0  0
   10.3994   -0.2418   20.4029 H   0  0  0  0  0  0  0  0  0  0  0  0
   13.0321    1.1568   23.6563 H   0  0  0  0  0  0  0  0  0  0  0  0
   11.9346    3.0668   24.8179 H   0  0  0  0  0  0  0  0  0  0  0  0
    9.6371    3.7889   24.0783 H   0  0  0  0  0  0  0  0  0  0  0  0
    7.4254    1.8821   22.2525 H   0  0  0  0  0  0  0  0  0  0  0  0
    8.1352    2.9198   21.0387 H   0  0  0  0  0  0  0  0  0  0  0  0
    7.8109    3.5608   22.6457 H   0  0  0  0  0  0  0  0  0  0  0  0
  1  2  1  0
  2  3  2  0
  3  4  1  0
  4  5  2  0
  5  6  1  0
  6  7  2  0
  7  8  1  0
  8  9  1  0
  9 10  2  0
 10 11  1  0
 11 12  1  0
 12 13  2  0
 13 14  1  0
 14 15  1  0
 14 16  2  0
 16 17  1  0
 17 18  2  0
 18 19  1  0
 17 20  1  0
 16 21  1  0
 13 22  1  0
 11 23  2  0
 23 24  1  0
 24 25  1  0
 25 26  2  0
 26 27  1  0
 27 28  2  0
 28 29  1  0
 29 30  2  0
 30 31  1  0
 28 32  1  0
 27 33  1  0
 26 34  1  0
  8 35  1  0
  8 36  1  0
  5 37  1  0
  4 38  1  0
  3 39  1  0
  1 40  1  0
  1 41  1  0
  1 42  1  0
  7  2  1  0
 24  9  1  0
 30 25  1  0
 18 12  1  0
M  END
>  <cnnaffinity>  (1) 
-6.09796

>  <filename>  (1) 
Cc1cccnc1Cc1nc(-c2cccc(F)c2)nn1-c1cccnc1

$$$$
