
     RDKit          3D

 42 45  0  0  0  0  0  0  0  0999 V2000
   12.0505    0.5733   23.3592 C   0  0  0  0  0  0  0  0  0  0  0  0
   12.1581   -0.0444   21.9959 C   0  0  0  0  0  0  0  0  0  0  0  0
   12.6304   -1.4101   21.8533 C   0  0  0  0  0  0  0  0  0  0  0  0
   11.9411   -2.1183   21.1639 O   0  0  0  0  0  0  0  0  0  0  0  0
   10.8136   -0.2752   21.3367 N   0  0  0  0  0  0  0  0  0  0  0  0
   10.8134   -0.2755   21.3368 C   0  0  0  0  0  0  0  0  0  0  0  0
   10.0042    1.0406   21.0718 C   0  0  0  0  0  0  0  0  0  0  0  0
    8.8786    1.1366   22.0202 C   0  0  0  0  0  0  0  0  0  0  0  0
    8.8577    1.8839   23.0960 N   0  0  0  0  0  0  0  0  0  0  0  0
    7.7688    1.4227   23.7762 C   0  0  0  0  0  0  0  0  0  0  0  0
    7.3628    1.9760   25.0752 C   0  0  0  0  0  0  0  0  0  0  0  0
    6.1777    1.5430   25.7049 C   0  0  0  0  0  0  0  0  0  0  0  0
    5.7938    2.0725   26.9374 C   0  0  0  0  0  0  0  0  0  0  0  0
    6.6061    3.0405   27.5329 C   0  0  0  0  0  0  0  0  0  0  0  0
    6.2428    3.5553   28.7206 F   0  0  0  0  0  0  0  0  0  0  0  0
    7.7821    3.4947   26.9335 C   0  0  0  0  0  0  0  0  0  0  0  0
    8.1590    2.9505   25.7059 C   0  0  0  0  0  0  0  0  0  0  0  0
    9.0786    3.2805   25.2296 H   0  0  0  0  0  0  0  0  0  0  0  0
    8.3701    4.2625   27.4305 H   0  0  0  0  0  0  0  0  0  0  0  0
    4.8858    1.7553   27.4471 H   0  0  0  0  0  0  0  0  0  0  0  0
    5.5625    0.7832   25.2265 H   0  0  0  0  0  0  0  0  0  0  0  0
    7.1364    0.4354   23.1689 N   0  0  0  0  0  0  0  0  0  0  0  0
    7.8575    0.2426   22.0367 N   0  0  0  0  0  0  0  0  0  0  0  0
    7.3458   -0.6804   21.0071 C   0  0  0  0  0  0  0  0  0  0  0  0
    6.6204    0.0070   19.8674 C   0  0  0  0  0  0  0  0  0  0  0  0
    5.4137    0.6681   20.1216 C   0  0  0  0  0  0  0  0  0  0  0  0
    4.7803    1.3263   19.0671 C   0  0  0  0  0  0  0  0  0  0  0  0
    5.3771    1.3108   17.8043 C   0  0  0  0  0  0  0  0  0  0  0  0
    6.5209    0.6661   17.5395 N   0  0  0  0  0  0  0  0  0  0  0  0
    7.1178    0.0323   18.5541 C   0  0  0  0  0  0  0  0  0  0  0  0
    8.0471   -0.4768   18.2892 H   0  0  0  0  0  0  0  0  0  0  0  0
    4.9183    1.8339   16.9687 H   0  0  0  0  0  0  0  0  0  0  0  0
    3.8519    1.8633   19.2098 H   0  0  0  0  0  0  0  0  0  0  0  0
    4.9932    0.6766   21.1298 H   0  0  0  0  0  0  0  0  0  0  0  0
    8.1586   -1.3226   20.6489 H   0  0  0  0  0  0  0  0  0  0  0  0
    6.6604   -1.3292   21.5609 H   0  0  0  0  0  0  0  0  0  0  0  0
    9.5130    0.9743   20.0978 H   0  0  0  0  0  0  0  0  0  0  0  0
   10.5657    1.9625   21.1633 H   0  0  0  0  0  0  0  0  0  0  0  0
   13.4694   -1.8425   22.4332 H   0  0  0  0  0  0  0  0  0  0  0  0
   12.9117    0.4078   24.0000 H   0  0  0  0  0  0  0  0  0  0  0  0
   11.1548    0.1023   23.7727 H   0  0  0  0  0  0  0  0  0  0  0  0
   11.8912    1.6555   23.2835 H   0  0  0  0  0  0  0  0  0  0  0  0
  1  2  1  0
  2  3  2  0
  3  4  1  0
  4  5  1  0
  5  6  2  0
  6  7  1  0
  7  8  1  0
  8  9  2  0
  9 10  1  0
 10 11  1  0
 11 12  2  0
 12 13  1  0
 13 14  2  0
 14 15  1  0
 14 16  1  0
 16 17  2  0
 17 18  1  0
 16 19  1  0
 13 20  1  0
 12 21  1  0
 10 22  2  0
 22 23  1  0
 23 24  1  0
 24 25  1  0
 25 26  2  0
 26 27  1  0
 27 28  2  0
 28 29  1  0
 29 30  2  0
 30 31  1  0
 28 32  1  0
 27 33  1  0
 26 34  1  0
 24 35  1  0
 24 36  1  0
  7 37  1  0
  7 38  1  0
  3 39  1  0
  1 40  1  0
  1 41  1  0
  1 42  1  0
  6  2  1  0
 23  8  1  0
 30 25  1  0
 17 11  1  0
M  END
>  <cnnaffinity>  (1) 
-6.25375

>  <filename>  (1) 
Cc1conc1Cc1nc(-c2ccc(F)cc2)nn1Cc1cccnc1

$$$$
