
     RDKit          3D

 49 52  0  0  0  0  0  0  0  0999 V2000
    7.4643   -5.2547   27.3739 C   0  0  0  0  0  0  0  0  0  0  0  0
    7.2842   -4.4568   26.0797 C   0  0  0  0  0  0  0  0  0  0  0  0
    7.4754   -2.9483   26.3103 C   0  0  0  0  0  0  0  0  0  0  0  0
    7.1802   -2.1093   25.0430 C   0  0  0  0  0  0  0  0  0  0  0  0
    7.4155   -2.8938   23.7085 C   0  0  0  0  0  0  0  0  0  0  0  0
    7.6661   -1.9578   22.5627 C   0  0  0  0  0  0  0  0  0  0  0  0
    6.7228   -1.5901   21.7215 N   0  0  0  0  0  0  0  0  0  0  0  0
    7.3535   -0.6778   20.9319 N   0  0  0  0  0  0  0  0  0  0  0  0
    6.6547   -0.0024   19.8950 C   0  0  0  0  0  0  0  0  0  0  0  0
    5.4409    0.6408   20.1600 C   0  0  0  0  0  0  0  0  0  0  0  0
    4.8114    1.3101   19.1066 C   0  0  0  0  0  0  0  0  0  0  0  0
    5.3982    1.2960   17.8358 C   0  0  0  0  0  0  0  0  0  0  0  0
    6.5538    0.6677   17.5739 N   0  0  0  0  0  0  0  0  0  0  0  0
    7.1644    0.0430   18.5858 C   0  0  0  0  0  0  0  0  0  0  0  0
    8.1093   -0.4434   18.3528 H   0  0  0  0  0  0  0  0  0  0  0  0
    4.9294    1.7981   16.9928 H   0  0  0  0  0  0  0  0  0  0  0  0
    3.8796    1.8413   19.2555 H   0  0  0  0  0  0  0  0  0  0  0  0
    5.0266    0.6026   21.1692 H   0  0  0  0  0  0  0  0  0  0  0  0
    8.6319   -0.5151   21.3830 C   0  0  0  0  0  0  0  0  0  0  0  0
    9.5217    0.6114   20.9524 C   0  0  0  0  0  0  0  0  0  0  0  0
    9.0614    2.0052   21.4820 C   0  0  0  0  0  0  0  0  0  0  0  0
    8.9381    2.0748   22.9813 C   0  0  0  0  0  0  0  0  0  0  0  0
    7.8274    1.9407   23.6711 N   0  0  0  0  0  0  0  0  0  0  0  0
    8.2056    1.8811   24.9891 C   0  0  0  0  0  0  0  0  0  0  0  0
    9.5645    1.9897   25.1085 C   0  0  0  0  0  0  0  0  0  0  0  0
   10.0188    2.1234   23.8077 N   0  0  0  0  0  0  0  0  0  0  0  0
   10.9681    2.2009   23.4743 H   0  0  0  0  0  0  0  0  0  0  0  0
   10.2140    1.9923   25.9702 H   0  0  0  0  0  0  0  0  0  0  0  0
    7.4551    1.7201   25.7587 H   0  0  0  0  0  0  0  0  0  0  0  0
    9.7586    2.7744   21.1349 H   0  0  0  0  0  0  0  0  0  0  0  0
    8.0818    2.2537   21.0634 H   0  0  0  0  0  0  0  0  0  0  0  0
    9.5569    0.6245   19.8618 H   0  0  0  0  0  0  0  0  0  0  0  0
   10.5330    0.3784   21.2991 H   0  0  0  0  0  0  0  0  0  0  0  0
    8.8703   -1.3466   22.3738 N   0  0  0  0  0  0  0  0  0  0  0  0
    8.5582   -3.9174   23.8705 C   0  0  0  0  0  0  0  0  0  0  0  0
    8.2356   -4.9657   24.9629 C   0  0  0  0  0  0  0  0  0  0  0  0
    9.1816   -5.3047   25.4087 H   0  0  0  0  0  0  0  0  0  0  0  0
    7.7787   -5.8560   24.5088 H   0  0  0  0  0  0  0  0  0  0  0  0
    8.7574   -4.4134   22.9138 H   0  0  0  0  0  0  0  0  0  0  0  0
    9.4800   -3.3706   24.1207 H   0  0  0  0  0  0  0  0  0  0  0  0
    6.4860   -3.4219   23.4552 H   0  0  0  0  0  0  0  0  0  0  0  0
    7.8253   -1.2231   25.0598 H   0  0  0  0  0  0  0  0  0  0  0  0
    6.1421   -1.7488   25.0529 H   0  0  0  0  0  0  0  0  0  0  0  0
    8.5147   -2.7759   26.6347 H   0  0  0  0  0  0  0  0  0  0  0  0
    6.8414   -2.6106   27.1411 H   0  0  0  0  0  0  0  0  0  0  0  0
    6.2494   -4.6031   25.7256 H   0  0  0  0  0  0  0  0  0  0  0  0
    8.4754   -5.1112   27.7804 H   0  0  0  0  0  0  0  0  0  0  0  0
    6.7501   -4.9325   28.1411 H   0  0  0  0  0  0  0  0  0  0  0  0
    7.3213   -6.3293   27.2070 H   0  0  0  0  0  0  0  0  0  0  0  0
  1  2  1  0
  2  3  1  0
  3  4  1  0
  4  5  1  0
  5  6  1  0
  6  7  2  0
  7  8  1  0
  8  9  1  0
  9 10  2  0
 10 11  1  0
 11 12  2  0
 12 13  1  0
 13 14  2  0
 14 15  1  0
 12 16  1  0
 11 17  1  0
 10 18  1  0
  8 19  1  0
 19 20  1  0
 20 21  1  0
 21 22  1  0
 22 23  2  0
 23 24  1  0
 24 25  2  0
 25 26  1  0
 26 27  1  0
 25 28  1  0
 24 29  1  0
 21 30  1  0
 21 31  1  0
 20 32  1  0
 20 33  1  0
 19 34  2  0
  5 35  1  0
 35 36  1  0
 36 37  1  0
 36 38  1  0
 35 39  1  0
 35 40  1  0
  5 41  1  0
  4 42  1  0
  4 43  1  0
  3 44  1  0
  3 45  1  0
  2 46  1  0
  1 47  1  0
  1 48  1  0
  1 49  1  0
 36  2  1  0
 34  6  1  0
 14  9  1  0
 26 22  1  0
M  END
>  <cnnaffinity>  (1) 
-6.24118

>  <filename>  (1) 
CC1CCC(c2nc(CCc3ncc[nH]3)n(-c3cccnc3)n2)CC1

$$$$
