
     RDKit          3D

 43 46  0  0  0  0  0  0  0  0999 V2000
    8.2129   -0.5845   27.3093 C   0  0  0  0  0  0  0  0  0  0  0  0
    7.6166    0.0242   26.0748 C   0  0  0  0  0  0  0  0  0  0  0  0
    8.1225    1.0802   25.3541 C   0  0  0  0  0  0  0  0  0  0  0  0
    7.3704    1.2072   24.2284 N   0  0  0  0  0  0  0  0  0  0  0  0
    7.8023    1.8112   22.9749 C   0  0  0  0  0  0  0  0  0  0  0  0
    8.8156    0.9189   22.3294 C   0  0  0  0  0  0  0  0  0  0  0  0
   10.1160    0.9901   22.5284 N   0  0  0  0  0  0  0  0  0  0  0  0
   10.5831   -0.1534   21.9575 C   0  0  0  0  0  0  0  0  0  0  0  0
   12.0137   -0.5177   21.8153 C   0  0  0  0  0  0  0  0  0  0  0  0
   13.0600    0.2927   22.2993 C   0  0  0  0  0  0  0  0  0  0  0  0
   14.3444    0.1227   21.7844 C   0  0  0  0  0  0  0  0  0  0  0  0
   14.5719   -0.8205   20.7575 C   0  0  0  0  0  0  0  0  0  0  0  0
   15.9680   -0.4589   19.6643 Cl  0  0  0  0  0  0  0  0  0  0  0  0
   13.6251   -1.7951   20.4685 C   0  0  0  0  0  0  0  0  0  0  0  0
   12.3495   -1.6285   21.0198 C   0  0  0  0  0  0  0  0  0  0  0  0
   11.5502   -2.3155   20.7904 H   0  0  0  0  0  0  0  0  0  0  0  0
   13.8684   -2.6471   19.8493 H   0  0  0  0  0  0  0  0  0  0  0  0
   15.1418    0.8144   22.0424 H   0  0  0  0  0  0  0  0  0  0  0  0
   12.8601    1.0899   23.0160 H   0  0  0  0  0  0  0  0  0  0  0  0
    9.6301   -0.8939   21.4069 N   0  0  0  0  0  0  0  0  0  0  0  0
    8.5019   -0.2084   21.6555 N   0  0  0  0  0  0  0  0  0  0  0  0
    7.2280   -0.7151   21.1691 C   0  0  0  0  0  0  0  0  0  0  0  0
    6.6284    0.0725   20.0237 C   0  0  0  0  0  0  0  0  0  0  0  0
    5.3996    0.7307   20.1370 C   0  0  0  0  0  0  0  0  0  0  0  0
    4.8699    1.3670   19.0123 C   0  0  0  0  0  0  0  0  0  0  0  0
    5.5954    1.3318   17.8177 C   0  0  0  0  0  0  0  0  0  0  0  0
    6.7865    0.7249   17.6935 N   0  0  0  0  0  0  0  0  0  0  0  0
    7.2843    0.1248   18.7814 C   0  0  0  0  0  0  0  0  0  0  0  0
    8.2543   -0.3578   18.6630 H   0  0  0  0  0  0  0  0  0  0  0  0
    5.2055    1.8143   16.9228 H   0  0  0  0  0  0  0  0  0  0  0  0
    3.9262    1.8986   19.0544 H   0  0  0  0  0  0  0  0  0  0  0  0
    4.8690    0.7455   21.0938 H   0  0  0  0  0  0  0  0  0  0  0  0
    6.5389   -0.7466   22.0146 H   0  0  0  0  0  0  0  0  0  0  0  0
    7.4390   -1.7454   20.8637 H   0  0  0  0  0  0  0  0  0  0  0  0
    8.2456    2.7823   23.1952 H   0  0  0  0  0  0  0  0  0  0  0  0
    6.9196    1.9367   22.3485 H   0  0  0  0  0  0  0  0  0  0  0  0
    6.4162    0.2742   24.1618 N   0  0  0  0  0  0  0  0  0  0  0  0
    6.5254   -0.4196   25.2890 C   0  0  0  0  0  0  0  0  0  0  0  0
    5.8336   -1.2307   25.4833 H   0  0  0  0  0  0  0  0  0  0  0  0
    8.9734    1.7343   25.5151 H   0  0  0  0  0  0  0  0  0  0  0  0
    8.7096    0.1700   27.9272 H   0  0  0  0  0  0  0  0  0  0  0  0
    8.9732   -1.3322   27.0453 H   0  0  0  0  0  0  0  0  0  0  0  0
    7.4550   -1.0826   27.9197 H   0  0  0  0  0  0  0  0  0  0  0  0
  1  2  1  0
  2  3  2  0
  3  4  1  0
  4  5  1  0
  5  6  1  0
  6  7  2  0
  7  8  1  0
  8  9  1  0
  9 10  2  0
 10 11  1  0
 11 12  2  0
 12 13  1  0
 12 14  1  0
 14 15  2  0
 15 16  1  0
 14 17  1  0
 11 18  1  0
 10 19  1  0
  8 20  2  0
 20 21  1  0
 21 22  1  0
 22 23  1  0
 23 24  2  0
 24 25  1  0
 25 26  2  0
 26 27  1  0
 27 28  2  0
 28 29  1  0
 26 30  1  0
 25 31  1  0
 24 32  1  0
 22 33  1  0
 22 34  1  0
  5 35  1  0
  5 36  1  0
  4 37  1  0
 37 38  2  0
 38 39  1  0
  3 40  1  0
  1 41  1  0
  1 42  1  0
  1 43  1  0
 38  2  1  0
 21  6  1  0
 28 23  1  0
 15  9  1  0
M  END
>  <cnnaffinity>  (1) 
-6.50479

>  <filename>  (1) 
Cc1cnn(Cc2nc(-c3ccc(Cl)cc3)nn2Cc2cccnc2)c1

$$$$
