
     RDKit          3D

 45 47  0  0  0  0  0  0  0  0999 V2000
    7.7366    2.4775   21.9260 C   0  0  0  0  0  0  0  0  0  0  0  0
    9.1812    2.1069   22.1121 C   0  0  0  0  0  0  0  0  0  0  0  0
   10.0958    2.6677   22.9774 C   0  0  0  0  0  0  0  0  0  0  0  0
   11.2986    1.9667   22.7381 C   0  0  0  0  0  0  0  0  0  0  0  0
   12.6038    2.1523   23.4713 C   0  0  0  0  0  0  0  0  0  0  0  0
   13.0278    3.4307   23.3980 F   0  0  0  0  0  0  0  0  0  0  0  0
   12.4232    1.8813   24.7806 F   0  0  0  0  0  0  0  0  0  0  0  0
   13.5926    1.3698   23.0317 F   0  0  0  0  0  0  0  0  0  0  0  0
   11.1290    1.0261   21.8207 N   0  0  0  0  0  0  0  0  0  0  0  0
    9.8500    1.1103   21.4471 N   0  0  0  0  0  0  0  0  0  0  0  0
    9.3188    0.0737   20.5740 C   0  0  0  0  0  0  0  0  0  0  0  0
    8.2462   -0.7154   21.2437 C   0  0  0  0  0  0  0  0  0  0  0  0
    8.3993   -1.4032   22.3570 N   0  0  0  0  0  0  0  0  0  0  0  0
    7.1746   -1.9707   22.5427 C   0  0  0  0  0  0  0  0  0  0  0  0
    6.8813   -2.9414   23.6485 C   0  0  0  0  0  0  0  0  0  0  0  0
    7.1525   -4.4260   23.2712 C   0  0  0  0  0  0  0  0  0  0  0  0
    8.6513   -4.7056   23.0934 C   0  0  0  0  0  0  0  0  0  0  0  0
    9.1703   -4.6623   24.0581 H   0  0  0  0  0  0  0  0  0  0  0  0
    9.1243   -3.9685   22.4361 H   0  0  0  0  0  0  0  0  0  0  0  0
    8.8430   -5.7029   22.6783 H   0  0  0  0  0  0  0  0  0  0  0  0
    6.3242   -4.8084   22.0417 C   0  0  0  0  0  0  0  0  0  0  0  0
    6.6219   -4.2172   21.1688 H   0  0  0  0  0  0  0  0  0  0  0  0
    6.4223   -5.8688   21.7888 H   0  0  0  0  0  0  0  0  0  0  0  0
    5.2624   -4.6022   22.2186 H   0  0  0  0  0  0  0  0  0  0  0  0
    6.8088   -5.0417   24.1178 H   0  0  0  0  0  0  0  0  0  0  0  0
    5.8278   -2.8125   23.9199 H   0  0  0  0  0  0  0  0  0  0  0  0
    7.4882   -2.6546   24.5113 H   0  0  0  0  0  0  0  0  0  0  0  0
    6.2800   -1.6495   21.6257 N   0  0  0  0  0  0  0  0  0  0  0  0
    6.9771   -0.8613   20.7676 N   0  0  0  0  0  0  0  0  0  0  0  0
    6.3090   -0.1885   19.7093 C   0  0  0  0  0  0  0  0  0  0  0  0
    5.1504    0.5523   19.9592 C   0  0  0  0  0  0  0  0  0  0  0  0
    4.6697    1.3759   18.9380 C   0  0  0  0  0  0  0  0  0  0  0  0
    5.3161    1.3781   17.6955 C   0  0  0  0  0  0  0  0  0  0  0  0
    6.3580    0.5788   17.4171 N   0  0  0  0  0  0  0  0  0  0  0  0
    6.8272   -0.1952   18.4016 C   0  0  0  0  0  0  0  0  0  0  0  0
    7.6691   -0.8395   18.1505 H   0  0  0  0  0  0  0  0  0  0  0  0
    4.9798    2.0343   16.8949 H   0  0  0  0  0  0  0  0  0  0  0  0
    3.8155    2.0237   19.0972 H   0  0  0  0  0  0  0  0  0  0  0  0
    4.6596    0.4800   20.9322 H   0  0  0  0  0  0  0  0  0  0  0  0
   10.1438   -0.6044   20.3488 H   0  0  0  0  0  0  0  0  0  0  0  0
    8.9719    0.5218   19.6426 H   0  0  0  0  0  0  0  0  0  0  0  0
    9.9184    3.4495   23.7083 H   0  0  0  0  0  0  0  0  0  0  0  0
    7.5868    3.5075   22.2730 H   0  0  0  0  0  0  0  0  0  0  0  0
    7.4111    2.4035   20.8802 H   0  0  0  0  0  0  0  0  0  0  0  0
    7.0923    1.8199   22.5242 H   0  0  0  0  0  0  0  0  0  0  0  0
  1  2  1  0
  2  3  2  0
  3  4  1  0
  4  5  1  0
  5  6  1  0
  5  7  1  0
  5  8  1  0
  4  9  2  0
  9 10  1  0
 10 11  1  0
 11 12  1  0
 12 13  2  0
 13 14  1  0
 14 15  1  0
 15 16  1  0
 16 17  1  0
 17 18  1  0
 17 19  1  0
 17 20  1  0
 16 21  1  0
 21 22  1  0
 21 23  1  0
 21 24  1  0
 16 25  1  0
 15 26  1  0
 15 27  1  0
 14 28  2  0
 28 29  1  0
 29 30  1  0
 30 31  2  0
 31 32  1  0
 32 33  2  0
 33 34  1  0
 34 35  2  0
 35 36  1  0
 33 37  1  0
 32 38  1  0
 31 39  1  0
 11 40  1  0
 11 41  1  0
  3 42  1  0
  1 43  1  0
  1 44  1  0
  1 45  1  0
 10  2  1  0
 29 12  1  0
 35 30  1  0
M  END
>  <cnnaffinity>  (1) 
-6.42002

>  <filename>  (1) 
Cc1cc(C(F)(F)F)nn1Cc1nc(CC(C)C)nn1-c1cccnc1

$$$$
