
     RDKit          3D

 47 50  0  0  0  0  0  0  0  0999 V2000
    7.9528    0.7730   27.2157 C   0  0  0  0  0  0  0  0  0  0  0  0
    8.8142    1.0452   26.0018 C   0  0  0  0  0  0  0  0  0  0  0  0
   10.2165    0.9300   26.0610 C   0  0  0  0  0  0  0  0  0  0  0  0
   11.0173    1.3791   25.0043 C   0  0  0  0  0  0  0  0  0  0  0  0
   10.4270    1.8122   23.8116 C   0  0  0  0  0  0  0  0  0  0  0  0
    9.0294    1.7765   23.6914 C   0  0  0  0  0  0  0  0  0  0  0  0
    8.3476    2.0875   22.5535 O   0  0  0  0  0  0  0  0  0  0  0  0
    9.0021    1.9994   21.2979 C   0  0  0  0  0  0  0  0  0  0  0  0
    9.5336    0.5939   20.9388 C   0  0  0  0  0  0  0  0  0  0  0  0
    8.6384   -0.4996   21.4028 C   0  0  0  0  0  0  0  0  0  0  0  0
    8.8796   -1.3280   22.3972 N   0  0  0  0  0  0  0  0  0  0  0  0
    7.6720   -1.9297   22.5921 C   0  0  0  0  0  0  0  0  0  0  0  0
    7.3724   -2.8207   23.7411 C   0  0  2  0  0  0  0  0  0  0  0  0
    6.5169   -2.3001   24.8811 C   0  0  0  0  0  0  0  0  0  0  0  0
    7.9832   -2.5519   25.0886 C   0  0  1  0  0  0  0  0  0  0  0  0
    8.4409   -3.6867   25.9774 C   0  0  0  0  0  0  0  0  0  0  0  0
    8.4140   -3.3887   27.0329 H   0  0  0  0  0  0  0  0  0  0  0  0
    9.4664   -3.9859   25.7409 H   0  0  0  0  0  0  0  0  0  0  0  0
    7.8036   -4.5743   25.8714 H   0  0  0  0  0  0  0  0  0  0  0  0
    8.6177   -1.6585   25.1204 H   0  0  0  0  0  0  0  0  0  0  0  0
    5.8103   -2.9905   25.3375 H   0  0  0  0  0  0  0  0  0  0  0  0
    6.1680   -1.2671   24.8295 H   0  0  0  0  0  0  0  0  0  0  0  0
    7.2265   -3.8609   23.4466 H   0  0  0  0  0  0  0  0  0  0  0  0
    6.7337   -1.5782   21.7305 N   0  0  0  0  0  0  0  0  0  0  0  0
    7.3646   -0.6620   20.9503 N   0  0  0  0  0  0  0  0  0  0  0  0
    6.6732    0.0012   19.8965 C   0  0  0  0  0  0  0  0  0  0  0  0
    5.4523    0.6370   20.1530 C   0  0  0  0  0  0  0  0  0  0  0  0
    4.8188    1.3062   19.1036 C   0  0  0  0  0  0  0  0  0  0  0  0
    5.4157    1.2970   17.8367 C   0  0  0  0  0  0  0  0  0  0  0  0
    6.5680    0.6626   17.5739 N   0  0  0  0  0  0  0  0  0  0  0  0
    7.1793    0.0326   18.5849 C   0  0  0  0  0  0  0  0  0  0  0  0
    8.1098   -0.4810   18.3444 H   0  0  0  0  0  0  0  0  0  0  0  0
    4.9483    1.8145   17.0028 H   0  0  0  0  0  0  0  0  0  0  0  0
    3.8807    1.8335   19.2530 H   0  0  0  0  0  0  0  0  0  0  0  0
    5.0245    0.5912   21.1548 H   0  0  0  0  0  0  0  0  0  0  0  0
    9.6417    0.5381   19.8560 H   0  0  0  0  0  0  0  0  0  0  0  0
   10.5169    0.4095   21.3800 H   0  0  0  0  0  0  0  0  0  0  0  0
    8.2257    2.2977   20.5937 H   0  0  0  0  0  0  0  0  0  0  0  0
    9.8142    2.7390   21.2502 H   0  0  0  0  0  0  0  0  0  0  0  0
    8.2313    1.4449   24.7940 C   0  0  0  0  0  0  0  0  0  0  0  0
    7.1501    1.4821   24.6486 H   0  0  0  0  0  0  0  0  0  0  0  0
   11.0364    2.1691   22.9859 H   0  0  0  0  0  0  0  0  0  0  0  0
   12.1022    1.3846   25.0944 H   0  0  0  0  0  0  0  0  0  0  0  0
   10.6757    0.4518   26.9243 H   0  0  0  0  0  0  0  0  0  0  0  0
    7.7135    1.7111   27.7316 H   0  0  0  0  0  0  0  0  0  0  0  0
    8.4575    0.1168   27.9307 H   0  0  0  0  0  0  0  0  0  0  0  0
    7.0039    0.3047   26.9270 H   0  0  0  0  0  0  0  0  0  0  0  0
  1  2  1  0
  2  3  2  0
  3  4  1  0
  4  5  2  0
  5  6  1  0
  6  7  1  0
  7  8  1  0
  8  9  1  0
  9 10  1  0
 10 11  2  0
 11 12  1  0
 12 13  1  0
 13 14  1  0
 14 15  1  0
 15 16  1  0
 16 17  1  0
 16 18  1  0
 16 19  1  0
 15 20  1  6
 14 21  1  0
 14 22  1  0
 13 23  1  6
 12 24  2  0
 24 25  1  0
 25 26  1  0
 26 27  2  0
 27 28  1  0
 28 29  2  0
 29 30  1  0
 30 31  2  0
 31 32  1  0
 29 33  1  0
 28 34  1  0
 27 35  1  0
  9 36  1  0
  9 37  1  0
  8 38  1  0
  8 39  1  0
  6 40  2  0
 40 41  1  0
  5 42  1  0
  4 43  1  0
  3 44  1  0
  1 45  1  0
  1 46  1  0
  1 47  1  0
 40  2  1  0
 25 10  1  0
 31 26  1  0
 15 13  1  0
M  END
>  <cnnaffinity>  (1) 
-6.03925

>  <filename>  (1) 
Cc1cccc(OCCc2nc([C@@H]3C[C@H]3C)nn2-c2cccnc2)c1

$$$$
