
     RDKit          3D

 44 47  0  0  0  0  0  0  0  0999 V2000
   14.0924    0.2550   22.7721 C   0  0  0  0  0  0  0  0  0  0  0  0
   12.7116    0.8564   22.7039 C   0  0  0  0  0  0  0  0  0  0  0  0
   12.3092    1.9043   23.5409 C   0  0  0  0  0  0  0  0  0  0  0  0
   11.0350    2.4736   23.4223 C   0  0  0  0  0  0  0  0  0  0  0  0
   10.1636    1.9723   22.4599 C   0  0  0  0  0  0  0  0  0  0  0  0
    8.9670    2.5690   22.3031 F   0  0  0  0  0  0  0  0  0  0  0  0
   10.5082    0.9010   21.6279 C   0  0  0  0  0  0  0  0  0  0  0  0
    9.5253    0.2579   20.6784 C   0  0  0  0  0  0  0  0  0  0  0  0
    8.5091   -0.6027   21.3559 C   0  0  0  0  0  0  0  0  0  0  0  0
    8.7510   -1.3988   22.3768 N   0  0  0  0  0  0  0  0  0  0  0  0
    7.5798   -2.0726   22.5264 C   0  0  0  0  0  0  0  0  0  0  0  0
    7.2738   -2.9902   23.7020 C   0  0  0  0  0  0  0  0  0  0  0  0
    7.1621   -2.2123   25.0445 C   0  0  0  0  0  0  0  0  0  0  0  0
    7.6879   -3.2135   26.0773 C   0  0  0  0  0  0  0  0  0  0  0  0
    8.7426   -3.9596   25.2658 C   0  0  0  0  0  0  0  0  0  0  0  0
    8.2381   -4.0168   23.9330 O   0  0  0  0  0  0  0  0  0  0  0  0
    8.9345   -4.9837   25.6071 H   0  0  0  0  0  0  0  0  0  0  0  0
    9.7037   -3.4265   25.2692 H   0  0  0  0  0  0  0  0  0  0  0  0
    6.9027   -3.8985   26.4170 H   0  0  0  0  0  0  0  0  0  0  0  0
    8.1116   -2.7373   26.9675 H   0  0  0  0  0  0  0  0  0  0  0  0
    6.1455   -1.8532   25.2339 H   0  0  0  0  0  0  0  0  0  0  0  0
    7.8243   -1.3368   25.0039 H   0  0  0  0  0  0  0  0  0  0  0  0
    6.3273   -3.4743   23.4303 H   0  0  0  0  0  0  0  0  0  0  0  0
    6.6349   -1.7282   21.6705 N   0  0  0  0  0  0  0  0  0  0  0  0
    7.2412   -0.7978   20.8911 N   0  0  0  0  0  0  0  0  0  0  0  0
    6.5531   -0.1048   19.8504 C   0  0  0  0  0  0  0  0  0  0  0  0
    5.3682    0.5896   20.1141 C   0  0  0  0  0  0  0  0  0  0  0  0
    4.7809    1.3153   19.0738 C   0  0  0  0  0  0  0  0  0  0  0  0
    5.3869    1.3078   17.8116 C   0  0  0  0  0  0  0  0  0  0  0  0
    6.5063    0.6188   17.5433 N   0  0  0  0  0  0  0  0  0  0  0  0
    7.0708   -0.0656   18.5438 C   0  0  0  0  0  0  0  0  0  0  0  0
    7.9900   -0.5961   18.2971 H   0  0  0  0  0  0  0  0  0  0  0  0
    4.9567    1.8702   16.9866 H   0  0  0  0  0  0  0  0  0  0  0  0
    3.8741    1.8903   19.2308 H   0  0  0  0  0  0  0  0  0  0  0  0
    4.9331    0.5552   21.1134 H   0  0  0  0  0  0  0  0  0  0  0  0
    9.0375    1.0157   20.0644 H   0  0  0  0  0  0  0  0  0  0  0  0
   10.0503   -0.4313   20.0066 H   0  0  0  0  0  0  0  0  0  0  0  0
   11.7850    0.3674   21.7757 C   0  0  0  0  0  0  0  0  0  0  0  0
   12.0616   -0.4701   21.1373 H   0  0  0  0  0  0  0  0  0  0  0  0
   10.7102    3.3020   24.0418 H   0  0  0  0  0  0  0  0  0  0  0  0
   13.0118    2.3068   24.2642 H   0  0  0  0  0  0  0  0  0  0  0  0
   14.7571    0.8457   23.4022 H   0  0  0  0  0  0  0  0  0  0  0  0
   14.5486    0.2033   21.7776 H   0  0  0  0  0  0  0  0  0  0  0  0
   14.0802   -0.7666   23.1654 H   0  0  0  0  0  0  0  0  0  0  0  0
  1  2  1  0
  2  3  2  0
  3  4  1  0
  4  5  2  0
  5  6  1  0
  5  7  1  0
  7  8  1  0
  8  9  1  0
  9 10  2  0
 10 11  1  0
 11 12  1  0
 12 13  1  0
 13 14  1  0
 14 15  1  0
 15 16  1  0
 15 17  1  0
 15 18  1  0
 14 19  1  0
 14 20  1  0
 13 21  1  0
 13 22  1  0
 12 23  1  0
 11 24  2  0
 24 25  1  0
 25 26  1  0
 26 27  2  0
 27 28  1  0
 28 29  2  0
 29 30  1  0
 30 31  2  0
 31 32  1  0
 29 33  1  0
 28 34  1  0
 27 35  1  0
  8 36  1  0
  8 37  1  0
  7 38  2  0
 38 39  1  0
  4 40  1  0
  3 41  1  0
  1 42  1  0
  1 43  1  0
  1 44  1  0
 38  2  1  0
 25  9  1  0
 31 26  1  0
 16 12  1  0
M  END
>  <cnnaffinity>  (1) 
-6.49749

>  <filename>  (1) 
Cc1ccc(F)c(Cc2nc(C3CCCO3)nn2-c2cccnc2)c1

$$$$
