
     RDKit          3D

 43 46  0  0  0  0  0  0  0  0999 V2000
    5.2667   -3.7157   26.3518 C   0  0  0  0  0  0  0  0  0  0  0  0
    6.4942   -2.9760   25.8683 C   0  0  0  0  0  0  0  0  0  0  0  0
    7.5960   -2.7851   26.7140 C   0  0  0  0  0  0  0  0  0  0  0  0
    8.6607   -1.9652   26.3308 C   0  0  0  0  0  0  0  0  0  0  0  0
    8.6756   -1.3809   25.0664 C   0  0  0  0  0  0  0  0  0  0  0  0
    7.6417   -1.6719   24.1690 C   0  0  0  0  0  0  0  0  0  0  0  0
    7.7565   -1.2593   22.8066 N   0  0  0  0  0  0  0  0  0  0  0  0
    6.7362   -0.6799   22.1313 N   0  0  0  0  0  0  0  0  0  0  0  0
    7.2511   -0.4824   20.9350 C   0  0  0  0  0  0  0  0  0  0  0  0
    6.5149    0.1477   19.8468 C   0  0  0  0  0  0  0  0  0  0  0  0
    5.2779    0.7912   20.0215 C   0  0  0  0  0  0  0  0  0  0  0  0
    4.7126    1.4132   18.9120 C   0  0  0  0  0  0  0  0  0  0  0  0
    5.3827    1.3493   17.6839 C   0  0  0  0  0  0  0  0  0  0  0  0
    6.5412    0.6973   17.5051 N   0  0  0  0  0  0  0  0  0  0  0  0
    7.0900    0.1114   18.5721 C   0  0  0  0  0  0  0  0  0  0  0  0
    8.0279   -0.4203   18.4108 H   0  0  0  0  0  0  0  0  0  0  0  0
    4.9745    1.8422   16.8047 H   0  0  0  0  0  0  0  0  0  0  0  0
    3.7765    1.9544   18.9816 H   0  0  0  0  0  0  0  0  0  0  0  0
    4.7867    0.8003   20.9977 H   0  0  0  0  0  0  0  0  0  0  0  0
    8.5219   -0.9455   20.7782 N   0  0  0  0  0  0  0  0  0  0  0  0
    8.7958   -1.4639   21.9526 C   0  0  0  0  0  0  0  0  0  0  0  0
    9.9760   -2.3509   22.2884 C   0  0  0  0  0  0  0  0  0  0  0  0
    9.6025   -3.6286   22.9468 N   0  0  0  0  0  0  0  0  0  0  0  0
    8.5998   -4.4030   22.4038 C   0  0  0  0  0  0  0  0  0  0  0  0
    8.0820   -5.4673   23.0805 C   0  0  0  0  0  0  0  0  0  0  0  0
    8.5923   -5.7831   24.3721 C   0  0  0  0  0  0  0  0  0  0  0  0
    9.6348   -5.0796   24.8908 C   0  0  0  0  0  0  0  0  0  0  0  0
   10.2543   -3.9974   24.1591 C   0  0  0  0  0  0  0  0  0  0  0  0
   11.2430   -3.4008   24.5504 O   0  0  0  0  0  0  0  0  0  0  0  0
   10.0891   -5.2880   25.8484 H   0  0  0  0  0  0  0  0  0  0  0  0
    8.1615   -6.6000   24.9461 H   0  0  0  0  0  0  0  0  0  0  0  0
    7.2912   -6.0670   22.6421 H   0  0  0  0  0  0  0  0  0  0  0  0
    8.2607   -4.0686   21.4192 H   0  0  0  0  0  0  0  0  0  0  0  0
   10.5190   -2.5208   21.3511 H   0  0  0  0  0  0  0  0  0  0  0  0
   10.6606   -1.8203   22.9529 H   0  0  0  0  0  0  0  0  0  0  0  0
    6.5357   -2.4207   24.5793 C   0  0  0  0  0  0  0  0  0  0  0  0
    5.7004   -2.5604   23.8988 H   0  0  0  0  0  0  0  0  0  0  0  0
    9.4812   -0.7115   24.7804 H   0  0  0  0  0  0  0  0  0  0  0  0
    9.4846   -1.7863   27.0187 H   0  0  0  0  0  0  0  0  0  0  0  0
    7.6095   -3.2855   27.6767 H   0  0  0  0  0  0  0  0  0  0  0  0
    4.4834   -3.0054   26.6460 H   0  0  0  0  0  0  0  0  0  0  0  0
    5.4906   -4.3376   27.2248 H   0  0  0  0  0  0  0  0  0  0  0  0
    4.8498   -4.3621   25.5712 H   0  0  0  0  0  0  0  0  0  0  0  0
  1  2  1  0
  2  3  2  0
  3  4  1  0
  4  5  2  0
  5  6  1  0
  6  7  1  0
  7  8  1  0
  8  9  2  0
  9 10  1  0
 10 11  2  0
 11 12  1  0
 12 13  2  0
 13 14  1  0
 14 15  2  0
 15 16  1  0
 13 17  1  0
 12 18  1  0
 11 19  1  0
  9 20  1  0
 20 21  2  0
 21 22  1  0
 22 23  1  0
 23 24  1  0
 24 25  2  0
 25 26  1  0
 26 27  2  0
 27 28  1  0
 28 29  2  0
 27 30  1  0
 26 31  1  0
 25 32  1  0
 24 33  1  0
 22 34  1  0
 22 35  1  0
  6 36  2  0
 36 37  1  0
  5 38  1  0
  4 39  1  0
  3 40  1  0
  1 41  1  0
  1 42  1  0
  1 43  1  0
 36  2  1  0
 21  7  1  0
 28 23  1  0
 15 10  1  0
M  END
>  <cnnaffinity>  (1) 
-6.21665

>  <filename>  (1) 
Cc1cccc(-n2nc(-c3cccnc3)nc2Cn2ccccc2=O)c1

$$$$
