
     RDKit          3D

 41 44  0  0  0  0  0  0  0  0999 V2000
   12.5040    1.8341   24.2793 C   0  0  0  0  0  0  0  0  0  0  0  0
   11.3618    1.9238   23.3228 C   0  0  0  0  0  0  0  0  0  0  0  0
   11.1739    1.0793   22.2835 C   0  0  0  0  0  0  0  0  0  0  0  0
    9.9113    1.2148   21.6352 C   0  0  0  0  0  0  0  0  0  0  0  0
    9.4992    0.1506   20.6503 C   0  0  0  0  0  0  0  0  0  0  0  0
    8.4501   -0.7537   21.2023 C   0  0  0  0  0  0  0  0  0  0  0  0
    8.6723   -1.5605   22.2225 N   0  0  0  0  0  0  0  0  0  0  0  0
    7.4594   -2.1125   22.4481 C   0  0  0  0  0  0  0  0  0  0  0  0
    7.2807   -3.1011   23.5498 C   0  0  0  0  0  0  0  0  0  0  0  0
    6.6531   -4.4504   23.1091 C   0  0  0  0  0  0  0  0  0  0  0  0
    5.1957   -4.1948   24.1750 S   0  0  0  0  0  0  0  0  0  0  0  0
    6.2115   -2.7451   24.6197 C   0  0  0  0  0  0  0  0  0  0  0  0
    5.7008   -1.7864   24.4866 H   0  0  0  0  0  0  0  0  0  0  0  0
    6.5919   -2.8050   25.6438 H   0  0  0  0  0  0  0  0  0  0  0  0
    7.2436   -5.3195   23.4106 H   0  0  0  0  0  0  0  0  0  0  0  0
    6.4078   -4.5300   22.0443 H   0  0  0  0  0  0  0  0  0  0  0  0
    8.2740   -3.2241   23.9877 H   0  0  0  0  0  0  0  0  0  0  0  0
    6.5045   -1.7248   21.6259 N   0  0  0  0  0  0  0  0  0  0  0  0
    7.1548   -0.8666   20.7915 N   0  0  0  0  0  0  0  0  0  0  0  0
    6.4707   -0.1568   19.7650 C   0  0  0  0  0  0  0  0  0  0  0  0
    5.2999    0.5512   20.0465 C   0  0  0  0  0  0  0  0  0  0  0  0
    4.7389    1.3294   19.0285 C   0  0  0  0  0  0  0  0  0  0  0  0
    5.3509    1.3516   17.7703 C   0  0  0  0  0  0  0  0  0  0  0  0
    6.4503    0.6387   17.4814 N   0  0  0  0  0  0  0  0  0  0  0  0
    6.9892   -0.0995   18.4582 C   0  0  0  0  0  0  0  0  0  0  0  0
    7.8826   -0.6668   18.1951 H   0  0  0  0  0  0  0  0  0  0  0  0
    4.9392    1.9506   16.9616 H   0  0  0  0  0  0  0  0  0  0  0  0
    3.8483    1.9223   19.2023 H   0  0  0  0  0  0  0  0  0  0  0  0
    4.8667    0.4960   21.0463 H   0  0  0  0  0  0  0  0  0  0  0  0
   10.3670   -0.4959   20.4941 H   0  0  0  0  0  0  0  0  0  0  0  0
    9.2300    0.5863   19.6883 H   0  0  0  0  0  0  0  0  0  0  0  0
    9.1483    2.2103   22.1767 C   0  0  0  0  0  0  0  0  0  0  0  0
    7.7297    2.6261   21.9029 C   0  0  0  0  0  0  0  0  0  0  0  0
    7.4516    2.4647   20.8564 H   0  0  0  0  0  0  0  0  0  0  0  0
    7.0270    2.0206   22.4910 H   0  0  0  0  0  0  0  0  0  0  0  0
    7.5471    3.6737   22.1618 H   0  0  0  0  0  0  0  0  0  0  0  0
   10.0130    2.9986   23.4669 S   0  0  0  0  0  0  0  0  0  0  0  0
   11.9028    0.3154   22.0262 H   0  0  0  0  0  0  0  0  0  0  0  0
   12.9068    0.8131   24.2877 H   0  0  0  0  0  0  0  0  0  0  0  0
   13.3242    2.4988   23.9922 H   0  0  0  0  0  0  0  0  0  0  0  0
   12.1867    2.0889   25.2879 H   0  0  0  0  0  0  0  0  0  0  0  0
  1  2  1  0
  2  3  2  0
  3  4  1  0
  4  5  1  0
  5  6  1  0
  6  7  2  0
  7  8  1  0
  8  9  1  0
  9 10  1  0
 10 11  1  0
 11 12  1  0
 12 13  1  0
 12 14  1  0
 10 15  1  0
 10 16  1  0
  9 17  1  0
  8 18  2  0
 18 19  1  0
 19 20  1  0
 20 21  2  0
 21 22  1  0
 22 23  2  0
 23 24  1  0
 24 25  2  0
 25 26  1  0
 23 27  1  0
 22 28  1  0
 21 29  1  0
  5 30  1  0
  5 31  1  0
  4 32  2  0
 32 33  1  0
 33 34  1  0
 33 35  1  0
 33 36  1  0
 32 37  1  0
  3 38  1  0
  1 39  1  0
  1 40  1  0
  1 41  1  0
 37  2  1  0
 19  6  1  0
 25 20  1  0
 12  9  1  0
M  END
>  <cnnaffinity>  (1) 
-6.16103

>  <filename>  (1) 
Cc1cc(Cc2nc(C3CSC3)nn2-c2cccnc2)c(C)s1

$$$$
