
     RDKit          3D

 52 55  0  0  0  0  0  0  0  0999 V2000
    5.7643   -5.7862   26.5458 C   0  0  0  0  0  0  0  0  0  0  0  0
    6.4977   -4.8889   25.5438 C   0  0  0  0  0  0  0  0  0  0  0  0
    6.3185   -3.3863   25.8970 C   0  0  0  0  0  0  0  0  0  0  0  0
    6.4926   -2.4220   24.6949 C   0  0  0  0  0  0  0  0  0  0  0  0
    7.4125   -3.0214   23.5946 C   0  0  0  0  0  0  0  0  0  0  0  0
    7.6600   -2.0454   22.4832 C   0  0  0  0  0  0  0  0  0  0  0  0
    6.7109   -1.6255   21.6599 N   0  0  0  0  0  0  0  0  0  0  0  0
    7.3542   -0.6916   20.9132 N   0  0  0  0  0  0  0  0  0  0  0  0
    6.6576   -0.0043   19.8869 C   0  0  0  0  0  0  0  0  0  0  0  0
    5.4433    0.6352   20.1562 C   0  0  0  0  0  0  0  0  0  0  0  0
    4.8071    1.3090   19.1064 C   0  0  0  0  0  0  0  0  0  0  0  0
    5.3957    1.2975   17.8375 C   0  0  0  0  0  0  0  0  0  0  0  0
    6.5499    0.6673   17.5686 N   0  0  0  0  0  0  0  0  0  0  0  0
    7.1625    0.0387   18.5787 C   0  0  0  0  0  0  0  0  0  0  0  0
    8.1051   -0.4547   18.3433 H   0  0  0  0  0  0  0  0  0  0  0  0
    4.9274    1.8088   16.9997 H   0  0  0  0  0  0  0  0  0  0  0  0
    3.8743    1.8441   19.2578 H   0  0  0  0  0  0  0  0  0  0  0  0
    5.0216    0.5984   21.1618 H   0  0  0  0  0  0  0  0  0  0  0  0
    8.6368   -0.5657   21.3671 C   0  0  0  0  0  0  0  0  0  0  0  0
    9.5869    0.5234   20.9967 C   0  0  0  0  0  0  0  0  0  0  0  0
    9.4906    1.7913   21.8973 C   0  0  0  0  0  0  0  0  0  0  0  0
    8.1591    2.5086   21.7040 C   0  0  0  0  0  0  0  0  0  0  0  0
    8.0092    2.6354   20.6347 H   0  0  0  0  0  0  0  0  0  0  0  0
    8.1557    3.4807   22.2055 H   0  0  0  0  0  0  0  0  0  0  0  0
    7.3244    1.9181   22.0982 H   0  0  0  0  0  0  0  0  0  0  0  0
    9.7540    1.4981   23.3138 N   0  0  0  0  0  0  0  0  0  0  0  0
   10.9751    1.2834   23.8681 C   0  0  0  0  0  0  0  0  0  0  0  0
   10.7605    0.8424   25.1573 C   0  0  0  0  0  0  0  0  0  0  0  0
    9.3510    0.8173   25.2802 C   0  0  0  0  0  0  0  0  0  0  0  0
    8.7590    1.2171   24.1681 N   0  0  0  0  0  0  0  0  0  0  0  0
    8.7140    0.5290   26.1101 H   0  0  0  0  0  0  0  0  0  0  0  0
   11.4905    0.5748   25.9079 H   0  0  0  0  0  0  0  0  0  0  0  0
   11.8668    1.4664   23.2790 H   0  0  0  0  0  0  0  0  0  0  0  0
   10.3148    2.4525   21.5970 H   0  0  0  0  0  0  0  0  0  0  0  0
    9.3933    0.8219   19.9668 H   0  0  0  0  0  0  0  0  0  0  0  0
   10.5917    0.1006   21.0472 H   0  0  0  0  0  0  0  0  0  0  0  0
    8.8669   -1.4554   22.3069 N   0  0  0  0  0  0  0  0  0  0  0  0
    6.8476   -4.3663   23.0495 C   0  0  0  0  0  0  0  0  0  0  0  0
    6.0424   -5.1663   24.0990 C   0  0  0  0  0  0  0  0  0  0  0  0
    6.1153   -6.2401   23.8811 H   0  0  0  0  0  0  0  0  0  0  0  0
    4.9736   -4.9059   24.0175 H   0  0  0  0  0  0  0  0  0  0  0  0
    6.2067   -4.1673   22.1789 H   0  0  0  0  0  0  0  0  0  0  0  0
    7.6990   -4.9572   22.6838 H   0  0  0  0  0  0  0  0  0  0  0  0
    8.4064   -3.1928   24.0356 H   0  0  0  0  0  0  0  0  0  0  0  0
    6.8821   -1.4516   25.0363 H   0  0  0  0  0  0  0  0  0  0  0  0
    5.5117   -2.2144   24.2432 H   0  0  0  0  0  0  0  0  0  0  0  0
    7.0325   -3.1382   26.6964 H   0  0  0  0  0  0  0  0  0  0  0  0
    5.3165   -3.2243   26.3238 H   0  0  0  0  0  0  0  0  0  0  0  0
    7.5772   -5.1158   25.6016 H   0  0  0  0  0  0  0  0  0  0  0  0
    4.6800   -5.6126   26.4992 H   0  0  0  0  0  0  0  0  0  0  0  0
    6.0898   -5.5890   27.5743 H   0  0  0  0  0  0  0  0  0  0  0  0
    5.9416   -6.8475   26.3339 H   0  0  0  0  0  0  0  0  0  0  0  0
  1  2  1  0
  2  3  1  0
  3  4  1  0
  4  5  1  0
  5  6  1  0
  6  7  2  0
  7  8  1  0
  8  9  1  0
  9 10  2  0
 10 11  1  0
 11 12  2  0
 12 13  1  0
 13 14  2  0
 14 15  1  0
 12 16  1  0
 11 17  1  0
 10 18  1  0
  8 19  1  0
 19 20  1  0
 20 21  1  0
 21 22  1  0
 22 23  1  0
 22 24  1  0
 22 25  1  0
 21 26  1  0
 26 27  1  0
 27 28  2  0
 28 29  1  0
 29 30  2  0
 29 31  1  0
 28 32  1  0
 27 33  1  0
 21 34  1  0
 20 35  1  0
 20 36  1  0
 19 37  2  0
  5 38  1  0
 38 39  1  0
 39 40  1  0
 39 41  1  0
 38 42  1  0
 38 43  1  0
  5 44  1  0
  4 45  1  0
  4 46  1  0
  3 47  1  0
  3 48  1  0
  2 49  1  0
  1 50  1  0
  1 51  1  0
  1 52  1  0
 39  2  1  0
 37  6  1  0
 14  9  1  0
 30 26  1  0
M  END
>  <cnnaffinity>  (1) 
-6.12942

>  <filename>  (1) 
CC1CCC(c2nc(CC(C)n3cccn3)n(-c3cccnc3)n2)CC1

$$$$
