
     RDKit          3D

 47 49  0  0  0  0  0  0  0  0999 V2000
    9.6109    2.2559   21.0983 C   0  0  0  0  0  0  0  0  0  0  0  0
    9.7519    2.2321   22.5854 C   0  0  0  0  0  0  0  0  0  0  0  0
   10.9434    2.6664   23.1706 C   0  0  0  0  0  0  0  0  0  0  0  0
   11.0975    2.5494   24.5462 C   0  0  0  0  0  0  0  0  0  0  0  0
   10.1555    2.0724   25.3646 N   0  0  0  0  0  0  0  0  0  0  0  0
    9.0005    1.6958   24.8004 C   0  0  0  0  0  0  0  0  0  0  0  0
    8.7290    1.7569   23.4270 C   0  0  0  0  0  0  0  0  0  0  0  0
    7.4262    1.2153   22.8358 C   0  0  0  0  0  0  0  0  0  0  0  0
    7.5852   -0.1599   22.2351 C   0  0  0  0  0  0  0  0  0  0  0  0
    8.1061   -1.1758   22.8965 N   0  0  0  0  0  0  0  0  0  0  0  0
    8.1712   -2.1649   21.9671 C   0  0  0  0  0  0  0  0  0  0  0  0
    8.6064   -3.5513   22.3052 C   0  0  0  0  0  0  0  0  0  0  0  0
    7.5965   -4.2754   23.2228 C   0  0  0  0  0  0  0  0  0  0  0  0
    8.0235   -5.6628   23.7428 C   0  0  0  0  0  0  0  0  0  0  0  0
    9.1959   -5.6172   24.7370 C   0  0  0  0  0  0  0  0  0  0  0  0
    9.9858   -4.9279   24.4141 H   0  0  0  0  0  0  0  0  0  0  0  0
    8.8642   -5.2927   25.7295 H   0  0  0  0  0  0  0  0  0  0  0  0
    9.6501   -6.6091   24.8548 H   0  0  0  0  0  0  0  0  0  0  0  0
    8.2964   -6.6223   22.5876 C   0  0  0  0  0  0  0  0  0  0  0  0
    7.4340   -6.6724   21.9175 H   0  0  0  0  0  0  0  0  0  0  0  0
    9.1711   -6.3107   22.0079 H   0  0  0  0  0  0  0  0  0  0  0  0
    8.4816   -7.6439   22.9242 H   0  0  0  0  0  0  0  0  0  0  0  0
    7.1542   -6.0489   24.2938 H   0  0  0  0  0  0  0  0  0  0  0  0
    7.3965   -3.6277   24.0853 H   0  0  0  0  0  0  0  0  0  0  0  0
    6.6440   -4.3787   22.6759 H   0  0  0  0  0  0  0  0  0  0  0  0
    9.5915   -3.5006   22.7879 H   0  0  0  0  0  0  0  0  0  0  0  0
    8.7150   -4.0809   21.3562 H   0  0  0  0  0  0  0  0  0  0  0  0
    7.7324   -1.8229   20.7719 N   0  0  0  0  0  0  0  0  0  0  0  0
    7.3074   -0.5461   20.9501 N   0  0  0  0  0  0  0  0  0  0  0  0
    6.6056    0.0965   19.8929 C   0  0  0  0  0  0  0  0  0  0  0  0
    5.3861    0.7559   20.0983 C   0  0  0  0  0  0  0  0  0  0  0  0
    4.7847    1.3822   19.0002 C   0  0  0  0  0  0  0  0  0  0  0  0
    5.4192    1.3288   17.7574 C   0  0  0  0  0  0  0  0  0  0  0  0
    6.5631    0.6542   17.5465 N   0  0  0  0  0  0  0  0  0  0  0  0
    7.1250    0.0323   18.5872 C   0  0  0  0  0  0  0  0  0  0  0  0
    8.0226   -0.5504   18.3824 H   0  0  0  0  0  0  0  0  0  0  0  0
    4.9810    1.8177   16.8889 H   0  0  0  0  0  0  0  0  0  0  0  0
    3.8423    1.9091   19.1020 H   0  0  0  0  0  0  0  0  0  0  0  0
    4.9192    0.7612   21.0838 H   0  0  0  0  0  0  0  0  0  0  0  0
    7.0374    1.9040   22.0769 H   0  0  0  0  0  0  0  0  0  0  0  0
    6.6726    1.1369   23.6263 H   0  0  0  0  0  0  0  0  0  0  0  0
    8.2384    1.3172   25.4818 H   0  0  0  0  0  0  0  0  0  0  0  0
   12.0302    2.8472   25.0090 H   0  0  0  0  0  0  0  0  0  0  0  0
   11.7364    3.0899   22.5588 H   0  0  0  0  0  0  0  0  0  0  0  0
    8.8349    2.9537   20.7724 H   0  0  0  0  0  0  0  0  0  0  0  0
   10.5498    2.5573   20.6330 H   0  0  0  0  0  0  0  0  0  0  0  0
    9.3418    1.2718   20.7016 H   0  0  0  0  0  0  0  0  0  0  0  0
  1  2  1  0
  2  3  2  0
  3  4  1  0
  4  5  2  0
  5  6  1  0
  6  7  2  0
  7  8  1  0
  8  9  1  0
  9 10  2  0
 10 11  1  0
 11 12  1  0
 12 13  1  0
 13 14  1  0
 14 15  1  0
 15 16  1  0
 15 17  1  0
 15 18  1  0
 14 19  1  0
 19 20  1  0
 19 21  1  0
 19 22  1  0
 14 23  1  0
 13 24  1  0
 13 25  1  0
 12 26  1  0
 12 27  1  0
 11 28  2  0
 28 29  1  0
 29 30  1  0
 30 31  2  0
 31 32  1  0
 32 33  2  0
 33 34  1  0
 34 35  2  0
 35 36  1  0
 33 37  1  0
 32 38  1  0
 31 39  1  0
  8 40  1  0
  8 41  1  0
  6 42  1  0
  4 43  1  0
  3 44  1  0
  1 45  1  0
  1 46  1  0
  1 47  1  0
  7  2  1  0
 29  9  1  0
 35 30  1  0
M  END
>  <cnnaffinity>  (1) 
-5.89849

>  <filename>  (1) 
Cc1ccncc1Cc1nc(CCC(C)C)nn1-c1cccnc1

$$$$
