
     RDKit          3D

 43 46  0  0  0  0  0  0  0  0999 V2000
    8.9474    1.6439   25.6685 C   0  0  0  0  0  0  0  0  0  0  0  0
    7.5593    1.2682   25.2385 C   0  0  0  0  0  0  0  0  0  0  0  0
    6.6653    0.3899   25.8165 C   0  0  0  0  0  0  0  0  0  0  0  0
    6.9373   -0.5757   27.2172 Cl  0  0  0  0  0  0  0  0  0  0  0  0
    5.5377    0.3654   24.9778 C   0  0  0  0  0  0  0  0  0  0  0  0
    5.7293    1.1240   23.9156 N   0  0  0  0  0  0  0  0  0  0  0  0
    6.9215    1.7234   24.1077 N   0  0  0  0  0  0  0  0  0  0  0  0
    7.5669    2.1412   22.8631 C   0  0  0  0  0  0  0  0  0  0  0  0
    8.3841    1.0006   22.3718 C   0  0  0  0  0  0  0  0  0  0  0  0
    9.6874    0.9594   22.5587 N   0  0  0  0  0  0  0  0  0  0  0  0
   10.0078   -0.3267   22.2729 C   0  0  0  0  0  0  0  0  0  0  0  0
   11.4006   -0.7766   22.0899 C   0  0  0  0  0  0  0  0  0  0  0  0
   12.5227   -0.0845   22.5919 C   0  0  0  0  0  0  0  0  0  0  0  0
   13.7967   -0.3456   22.0679 C   0  0  0  0  0  0  0  0  0  0  0  0
   13.9114   -1.2757   21.0297 C   0  0  0  0  0  0  0  0  0  0  0  0
   15.0300   -1.3931   20.3078 F   0  0  0  0  0  0  0  0  0  0  0  0
   12.8375   -2.0264   20.5900 C   0  0  0  0  0  0  0  0  0  0  0  0
   11.5995   -1.8155   21.1749 C   0  0  0  0  0  0  0  0  0  0  0  0
   10.7229   -2.3672   20.8362 H   0  0  0  0  0  0  0  0  0  0  0  0
   12.9813   -2.7117   19.7602 H   0  0  0  0  0  0  0  0  0  0  0  0
   14.6707    0.2109   22.3878 H   0  0  0  0  0  0  0  0  0  0  0  0
   12.4000    0.6977   23.3425 H   0  0  0  0  0  0  0  0  0  0  0  0
    8.9619   -1.0669   21.9243 N   0  0  0  0  0  0  0  0  0  0  0  0
    7.9192   -0.2132   22.0012 N   0  0  0  0  0  0  0  0  0  0  0  0
    6.6409   -0.5964   21.4047 C   0  0  0  0  0  0  0  0  0  0  0  0
    6.2643    0.2181   20.1871 C   0  0  0  0  0  0  0  0  0  0  0  0
    5.1557    1.0713   20.1855 C   0  0  0  0  0  0  0  0  0  0  0  0
    4.8002    1.7032   18.9906 C   0  0  0  0  0  0  0  0  0  0  0  0
    5.5911    1.4873   17.8587 C   0  0  0  0  0  0  0  0  0  0  0  0
    6.7001    0.7317   17.8604 N   0  0  0  0  0  0  0  0  0  0  0  0
    7.0241    0.1279   19.0096 C   0  0  0  0  0  0  0  0  0  0  0  0
    7.9348   -0.4699   18.9961 H   0  0  0  0  0  0  0  0  0  0  0  0
    5.3281    1.9441   16.9074 H   0  0  0  0  0  0  0  0  0  0  0  0
    3.9344    2.3529   18.9233 H   0  0  0  0  0  0  0  0  0  0  0  0
    4.6044    1.2497   21.1136 H   0  0  0  0  0  0  0  0  0  0  0  0
    6.7416   -1.6608   21.1631 H   0  0  0  0  0  0  0  0  0  0  0  0
    5.8748   -0.5005   22.1663 H   0  0  0  0  0  0  0  0  0  0  0  0
    8.2332    2.9828   23.0439 H   0  0  0  0  0  0  0  0  0  0  0  0
    6.7902    2.4323   22.1617 H   0  0  0  0  0  0  0  0  0  0  0  0
    4.6301   -0.2085   25.0829 H   0  0  0  0  0  0  0  0  0  0  0  0
    9.3176    2.5222   25.1317 H   0  0  0  0  0  0  0  0  0  0  0  0
    8.9717    1.8398   26.7420 H   0  0  0  0  0  0  0  0  0  0  0  0
    9.6487    0.8261   25.4628 H   0  0  0  0  0  0  0  0  0  0  0  0
  1  2  1  0
  2  3  2  0
  3  4  1  0
  3  5  1  0
  5  6  2  0
  6  7  1  0
  7  8  1  0
  8  9  1  0
  9 10  2  0
 10 11  1  0
 11 12  1  0
 12 13  2  0
 13 14  1  0
 14 15  2  0
 15 16  1  0
 15 17  1  0
 17 18  2  0
 18 19  1  0
 17 20  1  0
 14 21  1  0
 13 22  1  0
 11 23  2  0
 23 24  1  0
 24 25  1  0
 25 26  1  0
 26 27  2  0
 27 28  1  0
 28 29  2  0
 29 30  1  0
 30 31  2  0
 31 32  1  0
 29 33  1  0
 28 34  1  0
 27 35  1  0
 25 36  1  0
 25 37  1  0
  8 38  1  0
  8 39  1  0
  5 40  1  0
  1 41  1  0
  1 42  1  0
  1 43  1  0
  7  2  1  0
 24  9  1  0
 31 26  1  0
 18 12  1  0
M  END
>  <cnnaffinity>  (1) 
-6.66794

>  <filename>  (1) 
Cc1c(Cl)cnn1Cc1nc(-c2ccc(F)cc2)nn1Cc1cccnc1

$$$$
