
     RDKit          3D

 47 50  0  0  0  0  0  0  0  0999 V2000
   10.8621    3.7678   23.8911 C   0  0  0  0  0  0  0  0  0  0  0  0
   11.1702    2.4925   23.1385 C   0  0  0  0  0  0  0  0  0  0  0  0
   12.4074    1.8550   23.3083 C   0  0  0  0  0  0  0  0  0  0  0  0
   12.7488    0.7038   22.5890 C   0  0  0  0  0  0  0  0  0  0  0  0
   14.1267    0.1068   22.7024 C   0  0  0  0  0  0  0  0  0  0  0  0
   14.5895    0.0574   21.7124 H   0  0  0  0  0  0  0  0  0  0  0  0
   14.7673    0.7310   23.3310 H   0  0  0  0  0  0  0  0  0  0  0  0
   14.1351   -0.9073   23.1150 H   0  0  0  0  0  0  0  0  0  0  0  0
   11.8021    0.1754   21.6998 C   0  0  0  0  0  0  0  0  0  0  0  0
   10.5540    0.7743   21.5215 C   0  0  0  0  0  0  0  0  0  0  0  0
    9.5509    0.1480   20.5825 C   0  0  0  0  0  0  0  0  0  0  0  0
    8.5287   -0.6881   21.2725 C   0  0  0  0  0  0  0  0  0  0  0  0
    8.7597   -1.5218   22.2645 N   0  0  0  0  0  0  0  0  0  0  0  0
    7.5354   -2.0701   22.4980 C   0  0  0  0  0  0  0  0  0  0  0  0
    7.3516   -2.9694   23.7042 C   0  0  0  0  0  0  0  0  0  0  0  0
    6.8713   -2.2112   24.9815 C   0  0  0  0  0  0  0  0  0  0  0  0
    5.9926   -3.2510   25.6895 C   0  0  0  0  0  0  0  0  0  0  0  0
    5.4201   -4.0350   24.5100 C   0  0  0  0  0  0  0  0  0  0  0  0
    6.4330   -4.0375   23.5089 O   0  0  0  0  0  0  0  0  0  0  0  0
    4.5133   -3.5583   24.1103 H   0  0  0  0  0  0  0  0  0  0  0  0
    5.1743   -5.0769   24.7425 H   0  0  0  0  0  0  0  0  0  0  0  0
    5.2039   -2.8090   26.3078 H   0  0  0  0  0  0  0  0  0  0  0  0
    6.5860   -3.9047   26.3392 H   0  0  0  0  0  0  0  0  0  0  0  0
    6.2716   -1.3355   24.6984 H   0  0  0  0  0  0  0  0  0  0  0  0
    7.7142   -1.8552   25.5850 H   0  0  0  0  0  0  0  0  0  0  0  0
    8.3520   -3.3969   23.8572 H   0  0  0  0  0  0  0  0  0  0  0  0
    6.5737   -1.6389   21.7014 N   0  0  0  0  0  0  0  0  0  0  0  0
    7.2218   -0.7738   20.8831 N   0  0  0  0  0  0  0  0  0  0  0  0
    6.5503   -0.0767   19.8382 C   0  0  0  0  0  0  0  0  0  0  0  0
    5.3590    0.6094   20.0979 C   0  0  0  0  0  0  0  0  0  0  0  0
    4.7674    1.3301   19.0578 C   0  0  0  0  0  0  0  0  0  0  0  0
    5.3743    1.3214   17.7966 C   0  0  0  0  0  0  0  0  0  0  0  0
    6.5005    0.6406   17.5309 N   0  0  0  0  0  0  0  0  0  0  0  0
    7.0701   -0.0382   18.5310 C   0  0  0  0  0  0  0  0  0  0  0  0
    7.9960   -0.5607   18.2847 H   0  0  0  0  0  0  0  0  0  0  0  0
    4.9435    1.8770   16.9689 H   0  0  0  0  0  0  0  0  0  0  0  0
    3.8589    1.9044   19.2139 H   0  0  0  0  0  0  0  0  0  0  0  0
    4.9344    0.5721   21.0992 H   0  0  0  0  0  0  0  0  0  0  0  0
   10.0556   -0.5310   19.8867 H   0  0  0  0  0  0  0  0  0  0  0  0
    9.0708    0.9311   19.9884 H   0  0  0  0  0  0  0  0  0  0  0  0
   10.2495    1.9377   22.2360 C   0  0  0  0  0  0  0  0  0  0  0  0
    9.2906    2.4351   22.0957 H   0  0  0  0  0  0  0  0  0  0  0  0
   12.0566   -0.6917   21.0966 H   0  0  0  0  0  0  0  0  0  0  0  0
   13.1346    2.2650   24.0039 H   0  0  0  0  0  0  0  0  0  0  0  0
    9.9752    3.6638   24.5309 H   0  0  0  0  0  0  0  0  0  0  0  0
   11.7029    4.0650   24.5272 H   0  0  0  0  0  0  0  0  0  0  0  0
   10.6788    4.6073   23.2101 H   0  0  0  0  0  0  0  0  0  0  0  0
  1  2  1  0
  2  3  2  0
  3  4  1  0
  4  5  1  0
  5  6  1  0
  5  7  1  0
  5  8  1  0
  4  9  2  0
  9 10  1  0
 10 11  1  0
 11 12  1  0
 12 13  2  0
 13 14  1  0
 14 15  1  0
 15 16  1  0
 16 17  1  0
 17 18  1  0
 18 19  1  0
 18 20  1  0
 18 21  1  0
 17 22  1  0
 17 23  1  0
 16 24  1  0
 16 25  1  0
 15 26  1  0
 14 27  2  0
 27 28  1  0
 28 29  1  0
 29 30  2  0
 30 31  1  0
 31 32  2  0
 32 33  1  0
 33 34  2  0
 34 35  1  0
 32 36  1  0
 31 37  1  0
 30 38  1  0
 11 39  1  0
 11 40  1  0
 10 41  2  0
 41 42  1  0
  9 43  1  0
  3 44  1  0
  1 45  1  0
  1 46  1  0
  1 47  1  0
 41  2  1  0
 28 12  1  0
 34 29  1  0
 19 15  1  0
M  END
>  <cnnaffinity>  (1) 
-6.36216

>  <filename>  (1) 
Cc1cc(C)cc(Cc2nc(C3CCCO3)nn2-c2cccnc2)c1

$$$$
