
     RDKit          3D

 48 51  0  0  0  0  0  0  0  0999 V2000
   14.2320    0.6939   23.1714 C   0  0  0  0  0  0  0  0  0  0  0  0
   13.2214   -0.2222   22.5478 C   0  0  0  0  0  0  0  0  0  0  0  0
   13.5931   -1.1722   21.5893 C   0  0  0  0  0  0  0  0  0  0  0  0
   12.6186   -1.9367   20.9500 C   0  0  0  0  0  0  0  0  0  0  0  0
   11.2678   -1.7851   21.2725 C   0  0  0  0  0  0  0  0  0  0  0  0
   10.8746   -0.7838   22.1729 C   0  0  0  0  0  0  0  0  0  0  0  0
    9.4727   -0.3094   22.2265 C   0  0  0  0  0  0  0  0  0  0  0  0
    8.4114   -0.9717   21.7777 N   0  0  0  0  0  0  0  0  0  0  0  0
    7.4142   -0.0567   21.8934 N   0  0  0  0  0  0  0  0  0  0  0  0
    6.0691   -0.2720   21.3716 C   0  0  0  0  0  0  0  0  0  0  0  0
    5.8108    0.3766   20.0171 C   0  0  0  0  0  0  0  0  0  0  0  0
    4.6615    1.1317   19.7488 C   0  0  0  0  0  0  0  0  0  0  0  0
    4.5395    1.7663   18.5068 C   0  0  0  0  0  0  0  0  0  0  0  0
    5.5601    1.6020   17.5678 C   0  0  0  0  0  0  0  0  0  0  0  0
    6.6382    0.8336   17.7825 N   0  0  0  0  0  0  0  0  0  0  0  0
    6.7485    0.2413   18.9777 C   0  0  0  0  0  0  0  0  0  0  0  0
    7.6324   -0.3762   19.1265 H   0  0  0  0  0  0  0  0  0  0  0  0
    5.5137    2.1018   16.6006 H   0  0  0  0  0  0  0  0  0  0  0  0
    3.6910    2.3954   18.2593 H   0  0  0  0  0  0  0  0  0  0  0  0
    3.8696    1.2322   20.4941 H   0  0  0  0  0  0  0  0  0  0  0  0
    5.3790    0.1615   22.1021 H   0  0  0  0  0  0  0  0  0  0  0  0
    5.9043   -1.3534   21.3414 H   0  0  0  0  0  0  0  0  0  0  0  0
    7.9269    1.0981   22.3714 C   0  0  0  0  0  0  0  0  0  0  0  0
    7.1459    2.3147   22.6930 C   0  0  0  0  0  0  0  0  0  0  0  0
    6.2850    2.1350   23.9305 C   0  0  0  0  0  0  0  0  0  0  0  0
    6.7566    1.3144   24.8728 N   0  0  0  0  0  0  0  0  0  0  0  0
    6.0485    1.1295   25.9944 C   0  0  0  0  0  0  0  0  0  0  0  0
    4.8132    1.7372   26.2041 C   0  0  0  0  0  0  0  0  0  0  0  0
    4.3186    2.6040   25.2229 C   0  0  0  0  0  0  0  0  0  0  0  0
    5.0682    2.8486   24.0679 C   0  0  0  0  0  0  0  0  0  0  0  0
    4.6270    3.8662   23.0426 C   0  0  0  0  0  0  0  0  0  0  0  0
    3.6929    4.3459   23.3441 H   0  0  0  0  0  0  0  0  0  0  0  0
    4.4673    3.4124   22.0557 H   0  0  0  0  0  0  0  0  0  0  0  0
    5.3822    4.6541   22.9237 H   0  0  0  0  0  0  0  0  0  0  0  0
    3.3660    3.1178   25.3567 H   0  0  0  0  0  0  0  0  0  0  0  0
    4.2661    1.5381   27.1190 H   0  0  0  0  0  0  0  0  0  0  0  0
    6.4879    0.4688   26.7438 H   0  0  0  0  0  0  0  0  0  0  0  0
    6.5506    2.6163   21.8240 H   0  0  0  0  0  0  0  0  0  0  0  0
    7.8746    3.1100   22.8759 H   0  0  0  0  0  0  0  0  0  0  0  0
    9.2060    0.9704   22.5996 N   0  0  0  0  0  0  0  0  0  0  0  0
   11.8663   -0.0610   22.8558 C   0  0  0  0  0  0  0  0  0  0  0  0
   11.5702    0.6907   23.5876 H   0  0  0  0  0  0  0  0  0  0  0  0
   10.4980   -2.3749   20.7780 H   0  0  0  0  0  0  0  0  0  0  0  0
   12.9215   -2.5988   20.1426 H   0  0  0  0  0  0  0  0  0  0  0  0
   14.6401   -1.3009   21.3227 H   0  0  0  0  0  0  0  0  0  0  0  0
   14.3806    0.4571   24.2265 H   0  0  0  0  0  0  0  0  0  0  0  0
   15.1885    0.6307   22.6606 H   0  0  0  0  0  0  0  0  0  0  0  0
   13.8998    1.7333   23.0926 H   0  0  0  0  0  0  0  0  0  0  0  0
  1  2  1  0
  2  3  2  0
  3  4  1  0
  4  5  2  0
  5  6  1  0
  6  7  1  0
  7  8  2  0
  8  9  1  0
  9 10  1  0
 10 11  1  0
 11 12  2  0
 12 13  1  0
 13 14  2  0
 14 15  1  0
 15 16  2  0
 16 17  1  0
 14 18  1  0
 13 19  1  0
 12 20  1  0
 10 21  1  0
 10 22  1  0
  9 23  1  0
 23 24  1  0
 24 25  1  0
 25 26  2  0
 26 27  1  0
 27 28  2  0
 28 29  1  0
 29 30  2  0
 30 31  1  0
 31 32  1  0
 31 33  1  0
 31 34  1  0
 29 35  1  0
 28 36  1  0
 27 37  1  0
 24 38  1  0
 24 39  1  0
 23 40  2  0
  6 41  2  0
 41 42  1  0
  5 43  1  0
  4 44  1  0
  3 45  1  0
  1 46  1  0
  1 47  1  0
  1 48  1  0
 41  2  1  0
 40  7  1  0
 16 11  1  0
 30 25  1  0
M  END
>  <cnnaffinity>  (1) 
-6.37017

>  <filename>  (1) 
Cc1cccc(-c2nc(Cc3ncccc3C)n(Cc3cccnc3)n2)c1

$$$$
