
     RDKit          3D

 48 51  0  0  0  0  0  0  0  0999 V2000
    8.2360    0.6360   28.5157 C   0  0  0  0  0  0  0  0  0  0  0  0
    8.5332   -0.1055   27.1949 C   0  0  0  0  0  0  0  0  0  0  0  0
    9.2380    0.8430   26.1799 C   0  0  0  0  0  0  0  0  0  0  0  0
    9.3492    0.3608   24.7154 C   0  0  0  0  0  0  0  0  0  0  0  0
    8.3250   -0.7247   24.3538 C   0  0  0  0  0  0  0  0  0  0  0  0
    7.9541   -0.7846   22.9081 C   0  0  0  0  0  0  0  0  0  0  0  0
    7.6220    0.2221   22.1186 N   0  0  0  0  0  0  0  0  0  0  0  0
    7.1227   -0.4101   21.0175 N   0  0  0  0  0  0  0  0  0  0  0  0
    6.5682    0.3289   19.9161 C   0  0  0  0  0  0  0  0  0  0  0  0
    5.3474    0.9942   20.0673 C   0  0  0  0  0  0  0  0  0  0  0  0
    4.7817    1.6126   18.9449 C   0  0  0  0  0  0  0  0  0  0  0  0
    5.4655    1.5639   17.7270 C   0  0  0  0  0  0  0  0  0  0  0  0
    6.6537    0.9596   17.5796 N   0  0  0  0  0  0  0  0  0  0  0  0
    7.1945    0.3698   18.6560 C   0  0  0  0  0  0  0  0  0  0  0  0
    8.1637   -0.1065   18.5057 H   0  0  0  0  0  0  0  0  0  0  0  0
    5.0435    2.0217   16.8325 H   0  0  0  0  0  0  0  0  0  0  0  0
    3.8385    2.1437   19.0085 H   0  0  0  0  0  0  0  0  0  0  0  0
    4.8578    1.0202   21.0391 H   0  0  0  0  0  0  0  0  0  0  0  0
    7.1305   -1.7516   21.2493 C   0  0  0  0  0  0  0  0  0  0  0  0
    6.7989   -2.8442   20.3199 C   0  0  0  0  0  0  0  0  0  0  0  0
    5.5281   -3.6753   20.3824 C   0  0  0  0  0  0  0  0  0  0  0  0
    5.1178   -4.2711   21.6938 C   0  0  0  0  0  0  0  0  0  0  0  0
    5.0378   -3.7766   22.9715 C   0  0  0  0  0  0  0  0  0  0  0  0
    4.5627   -4.8206   23.6950 N   0  0  0  0  0  0  0  0  0  0  0  0
    4.3570   -5.8888   22.9319 N   0  0  0  0  0  0  0  0  0  0  0  0
    4.6864   -5.5634   21.7268 N   0  0  0  0  0  0  0  0  0  0  0  0
    4.3030   -4.8745   24.6692 H   0  0  0  0  0  0  0  0  0  0  0  0
    5.3410   -2.8396   23.4147 H   0  0  0  0  0  0  0  0  0  0  0  0
    4.7257   -3.1049   19.9262 H   0  0  0  0  0  0  0  0  0  0  0  0
    5.6766   -4.5199   19.7001 H   0  0  0  0  0  0  0  0  0  0  0  0
    7.6095   -3.5540   20.5130 H   0  0  0  0  0  0  0  0  0  0  0  0
    6.8307   -2.4119   19.3175 H   0  0  0  0  0  0  0  0  0  0  0  0
    7.6761   -2.0096   22.4154 N   0  0  0  0  0  0  0  0  0  0  0  0
    7.0108   -0.6276   25.1548 C   0  0  0  0  0  0  0  0  0  0  0  0
    7.2369   -0.7792   26.6566 C   0  0  0  0  0  0  0  0  0  0  0  0
    7.2759   -1.8481   26.9132 H   0  0  0  0  0  0  0  0  0  0  0  0
    6.3395   -0.3957   27.1575 H   0  0  0  0  0  0  0  0  0  0  0  0
    6.5346    0.3355   24.9241 H   0  0  0  0  0  0  0  0  0  0  0  0
    6.3104   -1.4036   24.8081 H   0  0  0  0  0  0  0  0  0  0  0  0
    8.7703   -1.7049   24.5653 H   0  0  0  0  0  0  0  0  0  0  0  0
    9.2205    1.2194   24.0434 H   0  0  0  0  0  0  0  0  0  0  0  0
   10.3570   -0.0269   24.5057 H   0  0  0  0  0  0  0  0  0  0  0  0
    8.7101    1.8075   26.1786 H   0  0  0  0  0  0  0  0  0  0  0  0
   10.2536    1.0456   26.5336 H   0  0  0  0  0  0  0  0  0  0  0  0
    9.2357   -0.9271   27.3921 H   0  0  0  0  0  0  0  0  0  0  0  0
    8.0936    1.7086   28.3419 H   0  0  0  0  0  0  0  0  0  0  0  0
    7.3124    0.2928   28.9836 H   0  0  0  0  0  0  0  0  0  0  0  0
    9.0215    0.5043   29.2650 H   0  0  0  0  0  0  0  0  0  0  0  0
  1  2  1  0
  2  3  1  0
  3  4  1  0
  4  5  1  0
  5  6  1  0
  6  7  2  0
  7  8  1  0
  8  9  1  0
  9 10  2  0
 10 11  1  0
 11 12  2  0
 12 13  1  0
 13 14  2  0
 14 15  1  0
 12 16  1  0
 11 17  1  0
 10 18  1  0
  8 19  1  0
 19 20  1  0
 20 21  1  0
 21 22  1  0
 22 23  2  0
 23 24  1  0
 24 25  1  0
 25 26  2  0
 24 27  1  0
 23 28  1  0
 21 29  1  0
 21 30  1  0
 20 31  1  0
 20 32  1  0
 19 33  2  0
  5 34  1  0
 34 35  1  0
 35 36  1  0
 35 37  1  0
 34 38  1  0
 34 39  1  0
  5 40  1  0
  4 41  1  0
  4 42  1  0
  3 43  1  0
  3 44  1  0
  2 45  1  0
  1 46  1  0
  1 47  1  0
  1 48  1  0
 35  2  1  0
 33  6  1  0
 14  9  1  0
 26 22  1  0
M  END
>  <cnnaffinity>  (1) 
-5.73588

>  <filename>  (1) 
CC1CCC(c2nc(CCc3c[nH]nn3)n(-c3cccnc3)n2)CC1

$$$$
