
     RDKit          3D

 45 48  0  0  0  0  0  0  0  0999 V2000
   11.0652    3.6439   24.0129 C   0  0  0  0  0  0  0  0  0  0  0  0
   11.3047    2.3507   23.2608 C   0  0  0  0  0  0  0  0  0  0  0  0
   12.4674    1.5842   23.4613 C   0  0  0  0  0  0  0  0  0  0  0  0
   12.7844    0.4778   22.7774 N   0  0  0  0  0  0  0  0  0  0  0  0
   11.9163    0.0586   21.8476 C   0  0  0  0  0  0  0  0  0  0  0  0
   10.6993    0.7023   21.5770 C   0  0  0  0  0  0  0  0  0  0  0  0
    9.6675    0.1198   20.6257 C   0  0  0  0  0  0  0  0  0  0  0  0
    8.5983   -0.6706   21.3136 C   0  0  0  0  0  0  0  0  0  0  0  0
    8.8013   -1.4836   22.3296 N   0  0  0  0  0  0  0  0  0  0  0  0
    7.5795   -2.0138   22.5514 C   0  0  0  0  0  0  0  0  0  0  0  0
    7.3352   -3.0126   23.6453 C   0  0  0  0  0  0  0  0  0  0  0  0
    6.7021   -4.3355   23.1646 C   0  0  0  0  0  0  0  0  0  0  0  0
    6.0064   -4.9309   24.4009 C   0  0  0  0  0  0  0  0  0  0  0  0
    5.7773   -3.7651   25.3924 C   0  0  0  0  0  0  0  0  0  0  0  0
    6.3799   -2.5064   24.7461 C   0  0  0  0  0  0  0  0  0  0  0  0
    5.5905   -1.9041   24.2890 H   0  0  0  0  0  0  0  0  0  0  0  0
    6.9006   -1.8678   25.4688 H   0  0  0  0  0  0  0  0  0  0  0  0
    4.7131   -3.6121   25.5976 H   0  0  0  0  0  0  0  0  0  0  0  0
    6.2549   -3.9832   26.3540 H   0  0  0  0  0  0  0  0  0  0  0  0
    5.0649   -5.4105   24.1162 H   0  0  0  0  0  0  0  0  0  0  0  0
    6.6237   -5.7068   24.8684 H   0  0  0  0  0  0  0  0  0  0  0  0
    7.4547   -5.0140   22.7452 H   0  0  0  0  0  0  0  0  0  0  0  0
    5.9688   -4.1211   22.3771 H   0  0  0  0  0  0  0  0  0  0  0  0
    8.3162   -3.2174   24.0878 H   0  0  0  0  0  0  0  0  0  0  0  0
    6.6308   -1.5884   21.7347 N   0  0  0  0  0  0  0  0  0  0  0  0
    7.2976   -0.7487   20.9028 N   0  0  0  0  0  0  0  0  0  0  0  0
    6.6074   -0.0577   19.8732 C   0  0  0  0  0  0  0  0  0  0  0  0
    5.4075    0.6093   20.1437 C   0  0  0  0  0  0  0  0  0  0  0  0
    4.8050    1.3090   19.0941 C   0  0  0  0  0  0  0  0  0  0  0  0
    5.3972    1.3057   17.8237 C   0  0  0  0  0  0  0  0  0  0  0  0
    6.5355    0.6501   17.5562 N   0  0  0  0  0  0  0  0  0  0  0  0
    7.1182   -0.0093   18.5621 C   0  0  0  0  0  0  0  0  0  0  0  0
    8.0505   -0.5172   18.3295 H   0  0  0  0  0  0  0  0  0  0  0  0
    4.9415    1.8395   16.9912 H   0  0  0  0  0  0  0  0  0  0  0  0
    3.8830    1.8531   19.2483 H   0  0  0  0  0  0  0  0  0  0  0  0
    4.9806    0.5805   21.1485 H   0  0  0  0  0  0  0  0  0  0  0  0
   10.1147   -0.5703   19.9010 H   0  0  0  0  0  0  0  0  0  0  0  0
    9.2020    0.9197   20.0464 H   0  0  0  0  0  0  0  0  0  0  0  0
   10.3962    1.8592   22.3056 C   0  0  0  0  0  0  0  0  0  0  0  0
    9.4401    2.3606   22.1194 H   0  0  0  0  0  0  0  0  0  0  0  0
   12.1978   -0.8389   21.2923 H   0  0  0  0  0  0  0  0  0  0  0  0
   13.1757    1.8858   24.2315 H   0  0  0  0  0  0  0  0  0  0  0  0
   10.1474    3.5870   24.6076 H   0  0  0  0  0  0  0  0  0  0  0  0
   10.9407    4.4878   23.3222 H   0  0  0  0  0  0  0  0  0  0  0  0
   11.8838    3.8902   24.6997 H   0  0  0  0  0  0  0  0  0  0  0  0
  1  2  1  0
  2  3  2  0
  3  4  1  0
  4  5  2  0
  5  6  1  0
  6  7  1  0
  7  8  1  0
  8  9  2  0
  9 10  1  0
 10 11  1  0
 11 12  1  0
 12 13  1  0
 13 14  1  0
 14 15  1  0
 15 16  1  0
 15 17  1  0
 14 18  1  0
 14 19  1  0
 13 20  1  0
 13 21  1  0
 12 22  1  0
 12 23  1  0
 11 24  1  0
 10 25  2  0
 25 26  1  0
 26 27  1  0
 27 28  2  0
 28 29  1  0
 29 30  2  0
 30 31  1  0
 31 32  2  0
 32 33  1  0
 30 34  1  0
 29 35  1  0
 28 36  1  0
  7 37  1  0
  7 38  1  0
  6 39  2  0
 39 40  1  0
  5 41  1  0
  3 42  1  0
  1 43  1  0
  1 44  1  0
  1 45  1  0
 39  2  1  0
 26  8  1  0
 32 27  1  0
 15 11  1  0
M  END
>  <cnnaffinity>  (1) 
-6.44071

>  <filename>  (1) 
Cc1cncc(Cc2nc(C3CCCC3)nn2-c2cccnc2)c1

$$$$
