
     RDKit          3D

 31 33  0  0  0  0  0  0  0  0999 V2000
    4.9247    1.7810   16.9958 H   0  0  0  0  0  0  0  0  0  0  0  0
    5.4075    1.2940   17.8376 C   0  0  0  0  0  0  0  0  0  0  0  0
    6.5717    0.6747   17.5764 N   0  0  0  0  0  0  0  0  0  0  0  0
    7.1650    0.0510   18.5976 C   0  0  0  0  0  0  0  0  0  0  0  0
    8.1111   -0.4372   18.3749 H   0  0  0  0  0  0  0  0  0  0  0  0
    6.6469    0.0212   19.9016 C   0  0  0  0  0  0  0  0  0  0  0  0
    7.3822   -0.7111   20.9339 C   0  0  0  0  0  0  0  0  0  0  0  0
    7.9396   -1.8802   20.7308 N   0  0  0  0  0  0  0  0  0  0  0  0
    8.4234   -2.2778   21.9507 C   0  0  0  0  0  0  0  0  0  0  0  0
    8.9275   -3.2262   22.0834 H   0  0  0  0  0  0  0  0  0  0  0  0
    8.1899   -1.3262   22.8986 C   0  0  0  0  0  0  0  0  0  0  0  0
    8.4633   -1.2439   23.9419 H   0  0  0  0  0  0  0  0  0  0  0  0
    7.5193   -0.3010   22.2470 N   0  0  0  0  0  0  0  0  0  0  0  0
    7.1866    0.9753   22.8169 C   0  0  0  0  0  0  0  0  0  0  0  0
    6.5737    1.0192   24.0786 C   0  0  0  0  0  0  0  0  0  0  0  0
    6.3671    0.0905   24.6014 H   0  0  0  0  0  0  0  0  0  0  0  0
    6.2370    2.2489   24.6478 C   0  0  0  0  0  0  0  0  0  0  0  0
    5.7706    2.2835   25.6295 H   0  0  0  0  0  0  0  0  0  0  0  0
    6.5075    3.4383   23.9646 C   0  0  0  0  0  0  0  0  0  0  0  0
    6.2395    4.4007   24.3985 H   0  0  0  0  0  0  0  0  0  0  0  0
    7.1241    3.4097   22.7068 C   0  0  0  0  0  0  0  0  0  0  0  0
    7.3821    4.6889   21.9534 C   0  0  0  0  0  0  0  0  0  0  0  0
    8.2791    4.6194   21.3363 H   0  0  0  0  0  0  0  0  0  0  0  0
    6.5476    4.9322   21.2870 H   0  0  0  0  0  0  0  0  0  0  0  0
    7.5177    5.5423   22.6221 H   0  0  0  0  0  0  0  0  0  0  0  0
    7.4722    2.1715   22.1432 C   0  0  0  0  0  0  0  0  0  0  0  0
    7.9224    2.1334   21.1553 H   0  0  0  0  0  0  0  0  0  0  0  0
    5.4186    0.6528   20.1546 C   0  0  0  0  0  0  0  0  0  0  0  0
    5.0006    0.6424   21.1678 H   0  0  0  0  0  0  0  0  0  0  0  0
    4.7968    1.3094   19.0998 C   0  0  0  0  0  0  0  0  0  0  0  0
    3.8655    1.8462   19.2537 H   0  0  0  0  0  0  0  0  0  0  0  0
  1  2  1  0
  2  3  2  0
  3  4  1  0
  4  5  1  0
  4  6  2  0
  6  7  1  0
  7  8  2  0
  8  9  1  0
  9 10  1  0
  9 11  2  0
 11 12  1  0
 11 13  1  0
 13 14  1  0
 14 15  2  0
 15 16  1  0
 15 17  1  0
 17 18  1  0
 17 19  2  0
 19 20  1  0
 19 21  1  0
 21 22  1  0
 22 23  1  0
 22 24  1  0
 22 25  1  0
 21 26  2  0
 26 27  1  0
  6 28  1  0
 28 29  1  0
 28 30  2  0
 30 31  1  0
 30  2  1  0
 13  7  1  0
 26 14  1  0
M  END
>  <cnnaffinity>  (1) 
-5.02433

>  <filename>  (1) 
Cc1cccc(-n2ccnc2-c2cccnc2)c1

$$$$
