
     RDKit          3D

 47 50  0  0  0  0  0  0  0  0999 V2000
    6.3115    4.0428   28.6957 C   0  0  0  0  0  0  0  0  0  0  0  0
    6.7054    3.3834   27.4003 C   0  0  0  0  0  0  0  0  0  0  0  0
    5.8743    2.4441   26.7655 C   0  0  0  0  0  0  0  0  0  0  0  0
    6.2302    1.8333   25.5638 C   0  0  0  0  0  0  0  0  0  0  0  0
    7.4670    2.1378   24.9648 C   0  0  0  0  0  0  0  0  0  0  0  0
    7.8397    1.5147   23.6815 C   0  0  0  0  0  0  0  0  0  0  0  0
    7.1499    0.5379   23.1112 N   0  0  0  0  0  0  0  0  0  0  0  0
    7.8859    0.2437   22.0214 N   0  0  0  0  0  0  0  0  0  0  0  0
    7.3874   -0.6903   21.0217 C   0  0  0  0  0  0  0  0  0  0  0  0
    6.6519   -0.0063   19.8809 C   0  0  0  0  0  0  0  0  0  0  0  0
    5.4400    0.6485   20.1357 C   0  0  0  0  0  0  0  0  0  0  0  0
    4.7984    1.3080   19.0840 C   0  0  0  0  0  0  0  0  0  0  0  0
    5.3938    1.2984   17.8191 C   0  0  0  0  0  0  0  0  0  0  0  0
    6.5532    0.6766   17.5554 N   0  0  0  0  0  0  0  0  0  0  0  0
    7.1585    0.0531   18.5737 C   0  0  0  0  0  0  0  0  0  0  0  0
    8.1052   -0.4308   18.3251 H   0  0  0  0  0  0  0  0  0  0  0  0
    4.9254    1.8091   16.9780 H   0  0  0  0  0  0  0  0  0  0  0  0
    3.8674    1.8467   19.2329 H   0  0  0  0  0  0  0  0  0  0  0  0
    5.0313    0.6461   21.1489 H   0  0  0  0  0  0  0  0  0  0  0  0
    6.7272   -1.3633   21.5756 H   0  0  0  0  0  0  0  0  0  0  0  0
    8.2314   -1.2797   20.6456 H   0  0  0  0  0  0  0  0  0  0  0  0
    8.9642    1.0518   21.9751 C   0  0  0  0  0  0  0  0  0  0  0  0
   10.0792    0.8578   21.0000 C   0  0  0  0  0  0  0  0  0  0  0  0
   11.0678   -0.2869   21.3949 C   0  0  0  0  0  0  0  0  0  0  0  0
   11.7799    0.0108   22.6850 C   0  0  0  0  0  0  0  0  0  0  0  0
   12.8556    0.8931   22.7022 C   0  0  0  0  0  0  0  0  0  0  0  0
   13.3736    1.1934   23.9463 C   0  0  0  0  0  0  0  0  0  0  0  0
   12.8976    0.6757   25.0776 N   0  0  0  0  0  0  0  0  0  0  0  0
   11.8431   -0.1347   24.9528 C   0  0  0  0  0  0  0  0  0  0  0  0
   11.2656   -0.5014   23.8109 N   0  0  0  0  0  0  0  0  0  0  0  0
   11.4325   -0.5513   25.8708 H   0  0  0  0  0  0  0  0  0  0  0  0
   14.1826    1.9072   24.0322 H   0  0  0  0  0  0  0  0  0  0  0  0
   13.2241    1.3701   21.8064 H   0  0  0  0  0  0  0  0  0  0  0  0
   10.5322   -1.2362   21.5116 H   0  0  0  0  0  0  0  0  0  0  0  0
   11.7996   -0.4422   20.5988 H   0  0  0  0  0  0  0  0  0  0  0  0
    9.6306    0.6640   20.0204 H   0  0  0  0  0  0  0  0  0  0  0  0
   10.6018    1.8187   20.9286 H   0  0  0  0  0  0  0  0  0  0  0  0
    8.9475    1.8890   22.9887 N   0  0  0  0  0  0  0  0  0  0  0  0
    8.3247    3.0714   25.5826 C   0  0  0  0  0  0  0  0  0  0  0  0
    7.9055    3.7034   26.7416 C   0  0  0  0  0  0  0  0  0  0  0  0
    8.6688    4.7052   27.2194 F   0  0  0  0  0  0  0  0  0  0  0  0
    9.2945    3.3426   25.1676 H   0  0  0  0  0  0  0  0  0  0  0  0
    5.5608    1.1266   25.0727 H   0  0  0  0  0  0  0  0  0  0  0  0
    4.9145    2.2045   27.2186 H   0  0  0  0  0  0  0  0  0  0  0  0
    5.4484    3.5432   29.1448 H   0  0  0  0  0  0  0  0  0  0  0  0
    6.0426    5.0914   28.5385 H   0  0  0  0  0  0  0  0  0  0  0  0
    7.1234    4.0285   29.4293 H   0  0  0  0  0  0  0  0  0  0  0  0
  1  2  1  0
  2  3  2  0
  3  4  1  0
  4  5  2  0
  5  6  1  0
  6  7  2  0
  7  8  1  0
  8  9  1  0
  9 10  1  0
 10 11  2  0
 11 12  1  0
 12 13  2  0
 13 14  1  0
 14 15  2  0
 15 16  1  0
 13 17  1  0
 12 18  1  0
 11 19  1  0
  9 20  1  0
  9 21  1  0
  8 22  1  0
 22 23  1  0
 23 24  1  0
 24 25  1  0
 25 26  2  0
 26 27  1  0
 27 28  2  0
 28 29  1  0
 29 30  2  0
 29 31  1  0
 27 32  1  0
 26 33  1  0
 24 34  1  0
 24 35  1  0
 23 36  1  0
 23 37  1  0
 22 38  2  0
  5 39  1  0
 39 40  2  0
 40 41  1  0
 39 42  1  0
  4 43  1  0
  3 44  1  0
  1 45  1  0
  1 46  1  0
  1 47  1  0
 40  2  1  0
 38  6  1  0
 15 10  1  0
 30 25  1  0
M  END
>  <cnnaffinity>  (1) 
-5.96844

>  <filename>  (1) 
Cc1ccc(-c2nc(CCc3ccncn3)n(Cc3cccnc3)n2)cc1F

$$$$
