
     RDKit          3D

 45 48  0  0  0  0  0  0  0  0999 V2000
    9.0678   -0.2450   27.1916 C   0  0  0  0  0  0  0  0  0  0  0  0
    7.9925    0.0942   26.1859 C   0  0  0  0  0  0  0  0  0  0  0  0
    6.6638   -0.3560   26.3098 C   0  0  0  0  0  0  0  0  0  0  0  0
    5.6937   -0.0902   25.4288 N   0  0  0  0  0  0  0  0  0  0  0  0
    6.0127    0.6316   24.3431 C   0  0  0  0  0  0  0  0  0  0  0  0
    7.2991    1.1242   24.0914 C   0  0  0  0  0  0  0  0  0  0  0  0
    7.7246    1.8165   22.7910 C   0  0  0  0  0  0  0  0  0  0  0  0
    8.7530    0.9809   22.0908 C   0  0  0  0  0  0  0  0  0  0  0  0
   10.0655    1.0691   22.2644 N   0  0  0  0  0  0  0  0  0  0  0  0
   10.5060   -0.1407   21.8458 C   0  0  0  0  0  0  0  0  0  0  0  0
   11.9039   -0.5841   21.8026 C   0  0  0  0  0  0  0  0  0  0  0  0
   12.9972    0.1994   22.2052 C   0  0  0  0  0  0  0  0  0  0  0  0
   14.2667   -0.1117   21.7117 C   0  0  0  0  0  0  0  0  0  0  0  0
   14.3740   -1.1492   20.7678 C   0  0  0  0  0  0  0  0  0  0  0  0
   15.4015   -1.2018   19.9147 F   0  0  0  0  0  0  0  0  0  0  0  0
   13.3560   -2.0610   20.5390 C   0  0  0  0  0  0  0  0  0  0  0  0
   12.1303   -1.7959   21.1301 C   0  0  0  0  0  0  0  0  0  0  0  0
   11.2680   -2.4366   21.0169 H   0  0  0  0  0  0  0  0  0  0  0  0
   13.5248   -2.8761   19.8428 H   0  0  0  0  0  0  0  0  0  0  0  0
   15.1129    0.5224   21.9551 H   0  0  0  0  0  0  0  0  0  0  0  0
   12.8596    1.0764   22.8366 H   0  0  0  0  0  0  0  0  0  0  0  0
    9.5522   -0.9248   21.3675 N   0  0  0  0  0  0  0  0  0  0  0  0
    8.4390   -0.1943   21.5039 N   0  0  0  0  0  0  0  0  0  0  0  0
    7.1764   -0.7455   21.0246 C   0  0  0  0  0  0  0  0  0  0  0  0
    6.5324    0.0327   19.8994 C   0  0  0  0  0  0  0  0  0  0  0  0
    5.3039    0.6820   20.0473 C   0  0  0  0  0  0  0  0  0  0  0  0
    4.7543    1.3584   18.9559 C   0  0  0  0  0  0  0  0  0  0  0  0
    5.4566    1.3564   17.7471 C   0  0  0  0  0  0  0  0  0  0  0  0
    6.6325    0.7316   17.5794 N   0  0  0  0  0  0  0  0  0  0  0  0
    7.1529    0.1004   18.6391 C   0  0  0  0  0  0  0  0  0  0  0  0
    8.1121   -0.3902   18.4757 H   0  0  0  0  0  0  0  0  0  0  0  0
    5.0584    1.8795   16.8782 H   0  0  0  0  0  0  0  0  0  0  0  0
    3.8170    1.8964   19.0348 H   0  0  0  0  0  0  0  0  0  0  0  0
    4.7781    0.6585   21.0041 H   0  0  0  0  0  0  0  0  0  0  0  0
    6.4957   -0.8324   21.8758 H   0  0  0  0  0  0  0  0  0  0  0  0
    7.4215   -1.7614   20.6944 H   0  0  0  0  0  0  0  0  0  0  0  0
    8.2030    2.7769   23.0065 H   0  0  0  0  0  0  0  0  0  0  0  0
    6.8783    1.9932   22.1188 H   0  0  0  0  0  0  0  0  0  0  0  0
    8.2788    0.8683   25.0639 C   0  0  0  0  0  0  0  0  0  0  0  0
    9.2888    1.2548   24.9159 H   0  0  0  0  0  0  0  0  0  0  0  0
    5.2043    0.8148   23.6339 H   0  0  0  0  0  0  0  0  0  0  0  0
    6.3741   -0.9496   27.1759 H   0  0  0  0  0  0  0  0  0  0  0  0
    9.2104   -1.3271   27.2896 H   0  0  0  0  0  0  0  0  0  0  0  0
    8.8188    0.1414   28.1861 H   0  0  0  0  0  0  0  0  0  0  0  0
   10.0320    0.1832   26.8959 H   0  0  0  0  0  0  0  0  0  0  0  0
  1  2  1  0
  2  3  2  0
  3  4  1  0
  4  5  2  0
  5  6  1  0
  6  7  1  0
  7  8  1  0
  8  9  2  0
  9 10  1  0
 10 11  1  0
 11 12  2  0
 12 13  1  0
 13 14  2  0
 14 15  1  0
 14 16  1  0
 16 17  2  0
 17 18  1  0
 16 19  1  0
 13 20  1  0
 12 21  1  0
 10 22  2  0
 22 23  1  0
 23 24  1  0
 24 25  1  0
 25 26  2  0
 26 27  1  0
 27 28  2  0
 28 29  1  0
 29 30  2  0
 30 31  1  0
 28 32  1  0
 27 33  1  0
 26 34  1  0
 24 35  1  0
 24 36  1  0
  7 37  1  0
  7 38  1  0
  6 39  2  0
 39 40  1  0
  5 41  1  0
  3 42  1  0
  1 43  1  0
  1 44  1  0
  1 45  1  0
 39  2  1  0
 23  8  1  0
 30 25  1  0
 17 11  1  0
M  END
>  <cnnaffinity>  (1) 
-6.71574

>  <filename>  (1) 
Cc1cncc(Cc2nc(-c3ccc(F)cc3)nn2Cc2cccnc2)c1

$$$$
