
     RDKit          3D

 50 53  0  0  0  0  0  0  0  0999 V2000
    5.7254   -5.4535   26.7892 C   0  0  0  0  0  0  0  0  0  0  0  0
    6.4627   -4.6089   25.7552 C   0  0  0  0  0  0  0  0  0  0  0  0
    6.0478   -4.9770   24.3226 C   0  0  0  0  0  0  0  0  0  0  0  0
    6.8655   -4.2315   23.2489 C   0  0  0  0  0  0  0  0  0  0  0  0
    7.4027   -2.8573   23.7349 C   0  0  0  0  0  0  0  0  0  0  0  0
    7.6707   -1.9244   22.5912 C   0  0  0  0  0  0  0  0  0  0  0  0
    6.7367   -1.5804   21.7203 N   0  0  0  0  0  0  0  0  0  0  0  0
    7.3686   -0.6704   20.9343 N   0  0  0  0  0  0  0  0  0  0  0  0
    6.6599    0.0035   19.9012 C   0  0  0  0  0  0  0  0  0  0  0  0
    5.4429    0.6432   20.1663 C   0  0  0  0  0  0  0  0  0  0  0  0
    4.8124    1.3103   19.1111 C   0  0  0  0  0  0  0  0  0  0  0  0
    5.4004    1.2952   17.8399 C   0  0  0  0  0  0  0  0  0  0  0  0
    6.5617    0.6749   17.5788 N   0  0  0  0  0  0  0  0  0  0  0  0
    7.1708    0.0531   18.5941 C   0  0  0  0  0  0  0  0  0  0  0  0
    8.1163   -0.4352   18.3713 H   0  0  0  0  0  0  0  0  0  0  0  0
    4.9156    1.7824   16.9965 H   0  0  0  0  0  0  0  0  0  0  0  0
    3.8792    1.8399   19.2640 H   0  0  0  0  0  0  0  0  0  0  0  0
    5.0140    0.6131   21.1714 H   0  0  0  0  0  0  0  0  0  0  0  0
    8.6404   -0.5033   21.3957 C   0  0  0  0  0  0  0  0  0  0  0  0
    9.5269    0.6148   20.9485 C   0  0  0  0  0  0  0  0  0  0  0  0
    9.0551    2.0124   21.4471 C   0  0  0  0  0  0  0  0  0  0  0  0
    8.9434    2.0843   22.9458 C   0  0  0  0  0  0  0  0  0  0  0  0
    7.7346    1.8249   23.5869 C   0  0  0  0  0  0  0  0  0  0  0  0
    7.7494    1.8210   24.9697 C   0  0  0  0  0  0  0  0  0  0  0  0
    8.8536    2.0431   25.6798 N   0  0  0  0  0  0  0  0  0  0  0  0
    9.9588    2.2320   24.9610 C   0  0  0  0  0  0  0  0  0  0  0  0
   10.0644    2.2802   23.6379 N   0  0  0  0  0  0  0  0  0  0  0  0
   10.8882    2.3327   25.5010 H   0  0  0  0  0  0  0  0  0  0  0  0
    6.8401    1.6316   25.5424 H   0  0  0  0  0  0  0  0  0  0  0  0
    6.8439    1.6046   23.0271 H   0  0  0  0  0  0  0  0  0  0  0  0
    9.7637    2.7713   21.1135 H   0  0  0  0  0  0  0  0  0  0  0  0
    8.0840    2.2423   21.0016 H   0  0  0  0  0  0  0  0  0  0  0  0
   10.5277    0.4036   21.3351 H   0  0  0  0  0  0  0  0  0  0  0  0
    9.5889    0.6179   19.8576 H   0  0  0  0  0  0  0  0  0  0  0  0
    8.8648   -1.3040   22.4216 N   0  0  0  0  0  0  0  0  0  0  0  0
    6.4587   -2.2092   24.7735 C   0  0  0  0  0  0  0  0  0  0  0  0
    6.2659   -3.0963   26.0192 C   0  0  0  0  0  0  0  0  0  0  0  0
    6.9593   -2.7864   26.8117 H   0  0  0  0  0  0  0  0  0  0  0  0
    5.2576   -2.9141   26.4160 H   0  0  0  0  0  0  0  0  0  0  0  0
    6.8332   -1.2222   25.0661 H   0  0  0  0  0  0  0  0  0  0  0  0
    5.4929   -2.0392   24.2899 H   0  0  0  0  0  0  0  0  0  0  0  0
    8.3705   -3.0124   24.2232 H   0  0  0  0  0  0  0  0  0  0  0  0
    7.7218   -4.8433   22.9363 H   0  0  0  0  0  0  0  0  0  0  0  0
    6.2411   -4.0871   22.3592 H   0  0  0  0  0  0  0  0  0  0  0  0
    6.1377   -6.0586   24.1685 H   0  0  0  0  0  0  0  0  0  0  0  0
    4.9801   -4.7425   24.1999 H   0  0  0  0  0  0  0  0  0  0  0  0
    7.5370   -4.8240   25.8502 H   0  0  0  0  0  0  0  0  0  0  0  0
    5.9206   -6.5214   26.6412 H   0  0  0  0  0  0  0  0  0  0  0  0
    6.0275   -5.1898   27.8086 H   0  0  0  0  0  0  0  0  0  0  0  0
    4.6417   -5.2992   26.7112 H   0  0  0  0  0  0  0  0  0  0  0  0
  1  2  1  0
  2  3  1  0
  3  4  1  0
  4  5  1  0
  5  6  1  0
  6  7  2  0
  7  8  1  0
  8  9  1  0
  9 10  2  0
 10 11  1  0
 11 12  2  0
 12 13  1  0
 13 14  2  0
 14 15  1  0
 12 16  1  0
 11 17  1  0
 10 18  1  0
  8 19  1  0
 19 20  1  0
 20 21  1  0
 21 22  1  0
 22 23  2  0
 23 24  1  0
 24 25  2  0
 25 26  1  0
 26 27  2  0
 26 28  1  0
 24 29  1  0
 23 30  1  0
 21 31  1  0
 21 32  1  0
 20 33  1  0
 20 34  1  0
 19 35  2  0
  5 36  1  0
 36 37  1  0
 37 38  1  0
 37 39  1  0
 36 40  1  0
 36 41  1  0
  5 42  1  0
  4 43  1  0
  4 44  1  0
  3 45  1  0
  3 46  1  0
  2 47  1  0
  1 48  1  0
  1 49  1  0
  1 50  1  0
 37  2  1  0
 35  6  1  0
 14  9  1  0
 27 22  1  0
M  END
>  <cnnaffinity>  (1) 
-6.10846

>  <filename>  (1) 
CC1CCC(c2nc(CCc3ccncn3)n(-c3cccnc3)n2)CC1

$$$$
