
     RDKit          3D

 44 47  0  0  0  0  0  0  0  0999 V2000
    8.4798   -0.5223   27.2482 C   0  0  0  0  0  0  0  0  0  0  0  0
    7.3234   -0.0258   26.4074 C   0  0  0  0  0  0  0  0  0  0  0  0
    5.9669   -0.3547   26.6055 C   0  0  0  0  0  0  0  0  0  0  0  0
    4.9663    0.0878   25.8275 N   0  0  0  0  0  0  0  0  0  0  0  0
    5.2803    0.8492   24.7652 C   0  0  0  0  0  0  0  0  0  0  0  0
    6.5954    1.1976   24.4318 C   0  0  0  0  0  0  0  0  0  0  0  0
    7.0528    1.8568   23.1245 C   0  0  0  0  0  0  0  0  0  0  0  0
    8.0899    0.9804   22.4652 C   0  0  0  0  0  0  0  0  0  0  0  0
    9.4042    1.0207   22.6341 N   0  0  0  0  0  0  0  0  0  0  0  0
    9.8075   -0.1876   22.1815 C   0  0  0  0  0  0  0  0  0  0  0  0
   11.1924   -0.6049   22.0854 C   0  0  0  0  0  0  0  0  0  0  0  0
   12.3107    0.0930   22.5700 C   0  0  0  0  0  0  0  0  0  0  0  0
   13.5685   -0.2488   22.0827 C   0  0  0  0  0  0  0  0  0  0  0  0
   13.6259   -1.2757   21.1290 C   0  0  0  0  0  0  0  0  0  0  0  0
   14.9575   -1.4395   20.0546 Cl  0  0  0  0  0  0  0  0  0  0  0  0
   12.6045   -2.0272   20.7910 N   0  0  0  0  0  0  0  0  0  0  0  0
   11.4114   -1.7139   21.2723 C   0  0  0  0  0  0  0  0  0  0  0  0
   10.5848   -2.3256   20.9327 H   0  0  0  0  0  0  0  0  0  0  0  0
   14.4579    0.3219   22.3136 H   0  0  0  0  0  0  0  0  0  0  0  0
   12.2067    0.9078   23.2844 H   0  0  0  0  0  0  0  0  0  0  0  0
    8.8316   -0.9453   21.7037 N   0  0  0  0  0  0  0  0  0  0  0  0
    7.7328   -0.1939   21.9055 N   0  0  0  0  0  0  0  0  0  0  0  0
    6.4545   -0.5923   21.3359 C   0  0  0  0  0  0  0  0  0  0  0  0
    6.1285    0.1159   20.0379 C   0  0  0  0  0  0  0  0  0  0  0  0
    4.9522    0.8449   19.8353 C   0  0  0  0  0  0  0  0  0  0  0  0
    4.7887    1.5261   18.6237 C   0  0  0  0  0  0  0  0  0  0  0  0
    5.8054    1.4517   17.6677 C   0  0  0  0  0  0  0  0  0  0  0  0
    6.9184    0.7203   17.8255 N   0  0  0  0  0  0  0  0  0  0  0  0
    7.0631    0.0722   18.9864 C   0  0  0  0  0  0  0  0  0  0  0  0
    7.9803   -0.5024   19.1142 H   0  0  0  0  0  0  0  0  0  0  0  0
    5.7316    2.0103   16.7354 H   0  0  0  0  0  0  0  0  0  0  0  0
    3.9077    2.1236   18.4150 H   0  0  0  0  0  0  0  0  0  0  0  0
    4.1785    0.8919   20.6080 H   0  0  0  0  0  0  0  0  0  0  0  0
    6.5273   -1.6737   21.2060 H   0  0  0  0  0  0  0  0  0  0  0  0
    5.6866   -0.4029   22.0824 H   0  0  0  0  0  0  0  0  0  0  0  0
    7.5176    2.8286   23.3135 H   0  0  0  0  0  0  0  0  0  0  0  0
    6.2130    2.0302   22.4422 H   0  0  0  0  0  0  0  0  0  0  0  0
    7.6041    0.7833   25.3121 C   0  0  0  0  0  0  0  0  0  0  0  0
    8.6395    1.0436   25.0849 H   0  0  0  0  0  0  0  0  0  0  0  0
    4.4385    1.1750   24.1477 H   0  0  0  0  0  0  0  0  0  0  0  0
    5.6801   -1.0117   27.4274 H   0  0  0  0  0  0  0  0  0  0  0  0
    8.5639   -1.6153   27.2421 H   0  0  0  0  0  0  0  0  0  0  0  0
    9.4252   -0.1309   26.8542 H   0  0  0  0  0  0  0  0  0  0  0  0
    8.4044   -0.1885   28.2867 H   0  0  0  0  0  0  0  0  0  0  0  0
  1  2  1  0
  2  3  2  0
  3  4  1  0
  4  5  2  0
  5  6  1  0
  6  7  1  0
  7  8  1  0
  8  9  2  0
  9 10  1  0
 10 11  1  0
 11 12  2  0
 12 13  1  0
 13 14  2  0
 14 15  1  0
 14 16  1  0
 16 17  2  0
 17 18  1  0
 13 19  1  0
 12 20  1  0
 10 21  2  0
 21 22  1  0
 22 23  1  0
 23 24  1  0
 24 25  2  0
 25 26  1  0
 26 27  2  0
 27 28  1  0
 28 29  2  0
 29 30  1  0
 27 31  1  0
 26 32  1  0
 25 33  1  0
 23 34  1  0
 23 35  1  0
  7 36  1  0
  7 37  1  0
  6 38  2  0
 38 39  1  0
  5 40  1  0
  3 41  1  0
  1 42  1  0
  1 43  1  0
  1 44  1  0
 38  2  1  0
 22  8  1  0
 29 24  1  0
 17 11  1  0
M  END
>  <cnnaffinity>  (1) 
-6.70042

>  <filename>  (1) 
Cc1cncc(Cc2nc(-c3ccc(Cl)nc3)nn2Cc2cccnc2)c1

$$$$
