
     RDKit          3D

 40 43  0  0  0  0  0  0  0  0999 V2000
    7.8747    2.7136   22.0541 C   0  0  0  0  0  0  0  0  0  0  0  0
    9.2529    2.3466   22.5022 C   0  0  0  0  0  0  0  0  0  0  0  0
    9.9814    2.8505   23.5519 C   0  0  0  0  0  0  0  0  0  0  0  0
   11.1677    2.0906   23.5651 C   0  0  0  0  0  0  0  0  0  0  0  0
   11.1749    1.1890   22.5961 N   0  0  0  0  0  0  0  0  0  0  0  0
   10.0151    1.3673   21.9415 N   0  0  0  0  0  0  0  0  0  0  0  0
    9.6144    0.4397   20.9009 C   0  0  0  0  0  0  0  0  0  0  0  0
    8.6284   -0.5526   21.3952 C   0  0  0  0  0  0  0  0  0  0  0  0
    8.8625   -1.4146   22.3512 N   0  0  0  0  0  0  0  0  0  0  0  0
    7.6593   -2.0247   22.5205 C   0  0  0  0  0  0  0  0  0  0  0  0
    7.4288   -3.0507   23.5712 C   0  0  0  0  0  0  0  0  0  0  0  0
    6.1566   -3.6437   23.7053 C   0  0  0  0  0  0  0  0  0  0  0  0
    5.9671   -4.6010   24.6954 C   0  0  0  0  0  0  0  0  0  0  0  0
    4.7603   -5.1653   24.8173 F   0  0  0  0  0  0  0  0  0  0  0  0
    6.9696   -5.0065   25.5690 C   0  0  0  0  0  0  0  0  0  0  0  0
    8.2099   -4.3962   25.4113 C   0  0  0  0  0  0  0  0  0  0  0  0
    9.1951   -4.7627   26.2387 F   0  0  0  0  0  0  0  0  0  0  0  0
    8.4711   -3.4322   24.4418 C   0  0  0  0  0  0  0  0  0  0  0  0
    9.4661   -2.9981   24.3827 H   0  0  0  0  0  0  0  0  0  0  0  0
    6.7935   -5.7569   26.3341 H   0  0  0  0  0  0  0  0  0  0  0  0
    5.3269   -3.3661   23.0615 H   0  0  0  0  0  0  0  0  0  0  0  0
    6.7133   -1.6076   21.6948 N   0  0  0  0  0  0  0  0  0  0  0  0
    7.3487   -0.6882   20.9316 N   0  0  0  0  0  0  0  0  0  0  0  0
    6.6532   -0.0003   19.9003 C   0  0  0  0  0  0  0  0  0  0  0  0
    5.4386    0.6426   20.1668 C   0  0  0  0  0  0  0  0  0  0  0  0
    4.8132    1.3111   19.1093 C   0  0  0  0  0  0  0  0  0  0  0  0
    5.3991    1.2965   17.8377 C   0  0  0  0  0  0  0  0  0  0  0  0
    6.5558    0.6699   17.5745 N   0  0  0  0  0  0  0  0  0  0  0  0
    7.1644    0.0472   18.5906 C   0  0  0  0  0  0  0  0  0  0  0  0
    8.1117   -0.4360   18.3644 H   0  0  0  0  0  0  0  0  0  0  0  0
    4.9208    1.7876   16.9936 H   0  0  0  0  0  0  0  0  0  0  0  0
    3.8811    1.8388   19.2601 H   0  0  0  0  0  0  0  0  0  0  0  0
    5.0116    0.6077   21.1733 H   0  0  0  0  0  0  0  0  0  0  0  0
    9.2120    1.0082   20.0660 H   0  0  0  0  0  0  0  0  0  0  0  0
   10.5020   -0.1046   20.5926 H   0  0  0  0  0  0  0  0  0  0  0  0
   12.0037    2.1657   24.2483 H   0  0  0  0  0  0  0  0  0  0  0  0
    9.6769    3.6615   24.1983 H   0  0  0  0  0  0  0  0  0  0  0  0
    7.7969    2.7807   20.9687 H   0  0  0  0  0  0  0  0  0  0  0  0
    7.6054    3.6779   22.4890 H   0  0  0  0  0  0  0  0  0  0  0  0
    7.1298    1.9784   22.3810 H   0  0  0  0  0  0  0  0  0  0  0  0
  1  2  1  0
  2  3  2  0
  3  4  1  0
  4  5  2  0
  5  6  1  0
  6  7  1  0
  7  8  1  0
  8  9  2  0
  9 10  1  0
 10 11  1  0
 11 12  2  0
 12 13  1  0
 13 14  1  0
 13 15  2  0
 15 16  1  0
 16 17  1  0
 16 18  2  0
 18 19  1  0
 15 20  1  0
 12 21  1  0
 10 22  2  0
 22 23  1  0
 23 24  1  0
 24 25  2  0
 25 26  1  0
 26 27  2  0
 27 28  1  0
 28 29  2  0
 29 30  1  0
 27 31  1  0
 26 32  1  0
 25 33  1  0
  7 34  1  0
  7 35  1  0
  4 36  1  0
  3 37  1  0
  1 38  1  0
  1 39  1  0
  1 40  1  0
  6  2  1  0
 23  8  1  0
 29 24  1  0
 18 11  1  0
M  END
>  <cnnaffinity>  (1) 
-6.11658

>  <filename>  (1) 
Cc1ccnn1Cc1nc(-c2cc(F)cc(F)c2)nn1-c1cccnc1

$$$$
