
     RDKit          3D

 45 47  0  0  0  0  0  0  0  0999 V2000
    8.6577    2.7210   22.1326 C   0  0  0  0  0  0  0  0  0  0  0  0
   10.0130    2.1181   22.4400 C   0  0  0  0  0  0  0  0  0  0  0  0
   10.7915    2.6849   23.4552 C   0  0  0  0  0  0  0  0  0  0  0  0
   12.0263    2.1380   23.7959 C   0  0  0  0  0  0  0  0  0  0  0  0
   12.5036    1.0052   23.1446 C   0  0  0  0  0  0  0  0  0  0  0  0
   11.7339    0.3757   22.1611 C   0  0  0  0  0  0  0  0  0  0  0  0
   12.1877   -0.9671   21.6266 C   0  0  0  0  0  0  0  0  0  0  0  0
   12.2070   -0.9794   20.5339 H   0  0  0  0  0  0  0  0  0  0  0  0
   13.1850   -1.2286   22.0072 H   0  0  0  0  0  0  0  0  0  0  0  0
   11.4842   -1.7497   21.9317 H   0  0  0  0  0  0  0  0  0  0  0  0
   10.5139    0.9791   21.7655 C   0  0  0  0  0  0  0  0  0  0  0  0
    9.6355    0.3009   20.7360 C   0  0  0  0  0  0  0  0  0  0  0  0
    8.6132   -0.5783   21.3659 C   0  0  0  0  0  0  0  0  0  0  0  0
    8.8364   -1.4236   22.3539 N   0  0  0  0  0  0  0  0  0  0  0  0
    7.6283   -2.0021   22.5448 C   0  0  0  0  0  0  0  0  0  0  0  0
    7.3946   -2.9993   23.6444 C   0  0  0  0  0  0  0  0  0  0  0  0
    6.8380   -4.3234   23.0899 C   0  0  0  0  0  0  0  0  0  0  0  0
    5.8678   -4.1546   22.6066 H   0  0  0  0  0  0  0  0  0  0  0  0
    6.7038   -5.0515   23.8974 H   0  0  0  0  0  0  0  0  0  0  0  0
    7.5142   -4.7596   22.3455 H   0  0  0  0  0  0  0  0  0  0  0  0
    6.4786   -2.4083   24.7372 C   0  0  0  0  0  0  0  0  0  0  0  0
    5.4920   -2.1706   24.3248 H   0  0  0  0  0  0  0  0  0  0  0  0
    6.3416   -3.1236   25.5551 H   0  0  0  0  0  0  0  0  0  0  0  0
    6.8979   -1.4862   25.1573 H   0  0  0  0  0  0  0  0  0  0  0  0
    8.3864   -3.1755   24.0762 H   0  0  0  0  0  0  0  0  0  0  0  0
    6.6800   -1.5937   21.7192 N   0  0  0  0  0  0  0  0  0  0  0  0
    7.3241   -0.6915   20.9381 N   0  0  0  0  0  0  0  0  0  0  0  0
    6.6387   -0.0130   19.8946 C   0  0  0  0  0  0  0  0  0  0  0  0
    5.4274    0.6337   20.1570 C   0  0  0  0  0  0  0  0  0  0  0  0
    4.8040    1.3091   19.1044 C   0  0  0  0  0  0  0  0  0  0  0  0
    5.3960    1.2950   17.8351 C   0  0  0  0  0  0  0  0  0  0  0  0
    6.5469    0.6599   17.5708 N   0  0  0  0  0  0  0  0  0  0  0  0
    7.1526    0.0292   18.5838 C   0  0  0  0  0  0  0  0  0  0  0  0
    8.0999   -0.4544   18.3515 H   0  0  0  0  0  0  0  0  0  0  0  0
    4.9275    1.8059   16.9975 H   0  0  0  0  0  0  0  0  0  0  0  0
    3.8751    1.8466   19.2576 H   0  0  0  0  0  0  0  0  0  0  0  0
    5.0054    0.5996   21.1623 H   0  0  0  0  0  0  0  0  0  0  0  0
    9.1388    1.0480   20.1152 H   0  0  0  0  0  0  0  0  0  0  0  0
   10.1998   -0.3725   20.0848 H   0  0  0  0  0  0  0  0  0  0  0  0
   13.4665    0.5722   23.4123 H   0  0  0  0  0  0  0  0  0  0  0  0
   12.5872    2.5449   24.6123 H   0  0  0  0  0  0  0  0  0  0  0  0
   10.4080    3.5435   23.9985 H   0  0  0  0  0  0  0  0  0  0  0  0
    8.4028    3.4947   22.8619 H   0  0  0  0  0  0  0  0  0  0  0  0
    7.8609    1.9696   22.1581 H   0  0  0  0  0  0  0  0  0  0  0  0
    8.6397    3.1840   21.1408 H   0  0  0  0  0  0  0  0  0  0  0  0
  1  2  1  0
  2  3  2  0
  3  4  1  0
  4  5  2  0
  5  6  1  0
  6  7  1  0
  7  8  1  0
  7  9  1  0
  7 10  1  0
  6 11  2  0
 11 12  1  0
 12 13  1  0
 13 14  2  0
 14 15  1  0
 15 16  1  0
 16 17  1  0
 17 18  1  0
 17 19  1  0
 17 20  1  0
 16 21  1  0
 21 22  1  0
 21 23  1  0
 21 24  1  0
 16 25  1  0
 15 26  2  0
 26 27  1  0
 27 28  1  0
 28 29  2  0
 29 30  1  0
 30 31  2  0
 31 32  1  0
 32 33  2  0
 33 34  1  0
 31 35  1  0
 30 36  1  0
 29 37  1  0
 12 38  1  0
 12 39  1  0
  5 40  1  0
  4 41  1  0
  3 42  1  0
  1 43  1  0
  1 44  1  0
  1 45  1  0
 11  2  1  0
 27 13  1  0
 33 28  1  0
M  END
>  <cnnaffinity>  (1) 
-6.23602

>  <filename>  (1) 
Cc1cccc(C)c1Cc1nc(C(C)C)nn1-c1cccnc1

$$$$
