
     RDKit          3D

 45 48  0  0  0  0  0  0  0  0999 V2000
    8.7623    3.4182   25.5635 C   0  0  0  0  0  0  0  0  0  0  0  0
    8.7075    3.1654   24.0744 C   0  0  0  0  0  0  0  0  0  0  0  0
    7.9785    4.0390   23.2455 C   0  0  0  0  0  0  0  0  0  0  0  0
    7.7470    3.8401   21.9439 N   0  0  0  0  0  0  0  0  0  0  0  0
    8.2753    2.7361   21.3957 C   0  0  0  0  0  0  0  0  0  0  0  0
    9.0872    1.8298   22.0876 C   0  0  0  0  0  0  0  0  0  0  0  0
    9.6222    0.5755   21.4100 C   0  0  0  0  0  0  0  0  0  0  0  0
    8.7091   -0.6010   21.5935 C   0  0  0  0  0  0  0  0  0  0  0  0
    8.8880   -1.5052   22.5310 N   0  0  0  0  0  0  0  0  0  0  0  0
    7.6607   -2.0751   22.6519 C   0  0  0  0  0  0  0  0  0  0  0  0
    7.3206   -2.9602   23.8223 C   0  0  0  0  0  0  0  0  0  0  0  0
    8.5101   -3.8709   24.1671 C   0  0  0  0  0  0  0  0  0  0  0  0
    8.2407   -4.5815   24.9539 H   0  0  0  0  0  0  0  0  0  0  0  0
    8.8495   -4.4347   23.2926 H   0  0  0  0  0  0  0  0  0  0  0  0
    9.3537   -3.2645   24.5216 H   0  0  0  0  0  0  0  0  0  0  0  0
    6.9042   -2.1458   25.0715 C   0  0  0  0  0  0  0  0  0  0  0  0
    7.7053   -0.9673   25.5633 C   0  0  0  0  0  0  0  0  0  0  0  0
    6.3263   -0.7594   24.9999 C   0  0  0  0  0  0  0  0  0  0  0  0
    5.5096   -0.4945   25.6687 H   0  0  0  0  0  0  0  0  0  0  0  0
    6.2475   -0.3073   24.0124 H   0  0  0  0  0  0  0  0  0  0  0  0
    8.5520   -0.6496   24.9553 H   0  0  0  0  0  0  0  0  0  0  0  0
    7.8582   -0.8591   26.6360 H   0  0  0  0  0  0  0  0  0  0  0  0
    6.5051   -2.7900   25.8571 H   0  0  0  0  0  0  0  0  0  0  0  0
    6.4509   -3.5448   23.4998 H   0  0  0  0  0  0  0  0  0  0  0  0
    6.7727   -1.6656   21.7694 N   0  0  0  0  0  0  0  0  0  0  0  0
    7.4581   -0.7213   21.0573 N   0  0  0  0  0  0  0  0  0  0  0  0
    6.7920   -0.0430   19.9890 C   0  0  0  0  0  0  0  0  0  0  0  0
    5.5645    0.5904   20.2202 C   0  0  0  0  0  0  0  0  0  0  0  0
    4.9435    1.2528   19.1585 C   0  0  0  0  0  0  0  0  0  0  0  0
    5.5511    1.2420   17.8975 C   0  0  0  0  0  0  0  0  0  0  0  0
    6.7063    0.6018   17.6559 N   0  0  0  0  0  0  0  0  0  0  0  0
    7.3055   -0.0220   18.6797 C   0  0  0  0  0  0  0  0  0  0  0  0
    8.2252   -0.5534   18.4373 H   0  0  0  0  0  0  0  0  0  0  0  0
    5.0894    1.7527   17.0530 H   0  0  0  0  0  0  0  0  0  0  0  0
    4.0047    1.7761   19.2968 H   0  0  0  0  0  0  0  0  0  0  0  0
    5.1200    0.5490   21.2153 H   0  0  0  0  0  0  0  0  0  0  0  0
   10.5833    0.2835   21.8474 H   0  0  0  0  0  0  0  0  0  0  0  0
    9.7673    0.7528   20.3431 H   0  0  0  0  0  0  0  0  0  0  0  0
    9.3133    2.0638   23.4525 C   0  0  0  0  0  0  0  0  0  0  0  0
    9.9759    1.3969   24.0201 H   0  0  0  0  0  0  0  0  0  0  0  0
    8.0426    2.5066   20.3520 H   0  0  0  0  0  0  0  0  0  0  0  0
    7.5642    4.9466   23.6846 H   0  0  0  0  0  0  0  0  0  0  0  0
    9.6394    2.9645   26.0272 H   0  0  0  0  0  0  0  0  0  0  0  0
    7.8844    2.9989   26.0748 H   0  0  0  0  0  0  0  0  0  0  0  0
    8.7712    4.4920   25.7817 H   0  0  0  0  0  0  0  0  0  0  0  0
  1  2  1  0
  2  3  2  0
  3  4  1  0
  4  5  2  0
  5  6  1  0
  6  7  1  0
  7  8  1  0
  8  9  2  0
  9 10  1  0
 10 11  1  0
 11 12  1  0
 12 13  1  0
 12 14  1  0
 12 15  1  0
 11 16  1  0
 16 17  1  0
 17 18  1  0
 18 19  1  0
 18 20  1  0
 17 21  1  0
 17 22  1  0
 16 23  1  0
 11 24  1  0
 10 25  2  0
 25 26  1  0
 26 27  1  0
 27 28  2  0
 28 29  1  0
 29 30  2  0
 30 31  1  0
 31 32  2  0
 32 33  1  0
 30 34  1  0
 29 35  1  0
 28 36  1  0
  7 37  1  0
  7 38  1  0
  6 39  2  0
 39 40  1  0
  5 41  1  0
  3 42  1  0
  1 43  1  0
  1 44  1  0
  1 45  1  0
 39  2  1  0
 26  8  1  0
 32 27  1  0
 18 16  1  0
M  END
>  <cnnaffinity>  (1) 
-6.06374

>  <filename>  (1) 
Cc1cncc(Cc2nc(C(C)C3CC3)nn2-c2cccnc2)c1

$$$$
