
     RDKit          3D

 46 50  0  0  0  0  0  0  0  0999 V2000
   10.5894    3.3620   23.4997 C   0  0  0  0  0  0  0  0  0  0  0  0
    9.4692    4.2989   23.0858 C   0  0  0  0  0  0  0  0  0  0  0  0
    9.5602    5.6596   23.4059 C   0  0  0  0  0  0  0  0  0  0  0  0
    8.5175    6.5278   23.0682 C   0  0  0  0  0  0  0  0  0  0  0  0
    7.3981    5.9963   22.4299 C   0  0  0  0  0  0  0  0  0  0  0  0
    7.2856    4.7002   22.1116 N   0  0  0  0  0  0  0  0  0  0  0  0
    8.3104    3.8767   22.3782 C   0  0  0  0  0  0  0  0  0  0  0  0
    8.1513    2.4531   21.8744 C   0  0  0  0  0  0  0  0  0  0  0  0
    7.4207    1.5016   22.8628 C   0  0  0  0  0  0  0  0  0  0  0  0
    7.4467    0.0574   22.4632 C   0  0  0  0  0  0  0  0  0  0  0  0
    8.0723   -0.8678   23.1622 N   0  0  0  0  0  0  0  0  0  0  0  0
    7.9570   -1.9801   22.3953 C   0  0  0  0  0  0  0  0  0  0  0  0
    8.7211   -3.2223   22.6473 C   0  0  0  0  0  0  0  0  0  0  0  0
    8.0630   -4.5944   22.4634 C   0  0  0  0  0  0  0  0  0  0  0  0
    8.5433   -4.1414   23.8109 C   0  0  0  0  0  0  0  0  0  0  0  0
    8.0603   -4.1453   25.2147 C   0  0  0  0  0  0  0  0  0  0  0  0
    9.4648   -4.6399   24.8701 C   0  0  0  0  0  0  0  0  0  0  0  0
    9.6842   -5.7054   24.9046 H   0  0  0  0  0  0  0  0  0  0  0  0
   10.2887   -3.9901   25.1614 H   0  0  0  0  0  0  0  0  0  0  0  0
    7.9849   -3.1822   25.7107 H   0  0  0  0  0  0  0  0  0  0  0  0
    7.2877   -4.8595   25.4826 H   0  0  0  0  0  0  0  0  0  0  0  0
    8.6141   -5.3891   21.9630 H   0  0  0  0  0  0  0  0  0  0  0  0
    6.9858   -4.6116   22.2873 H   0  0  0  0  0  0  0  0  0  0  0  0
    9.7567   -3.0840   22.3270 H   0  0  0  0  0  0  0  0  0  0  0  0
    7.3107   -1.8026   21.2583 N   0  0  0  0  0  0  0  0  0  0  0  0
    6.9514   -0.4878   21.3018 N   0  0  0  0  0  0  0  0  0  0  0  0
    6.4243    0.0941   20.1079 C   0  0  0  0  0  0  0  0  0  0  0  0
    5.4600    1.1096   20.0939 C   0  0  0  0  0  0  0  0  0  0  0  0
    5.1101    1.6725   18.8579 C   0  0  0  0  0  0  0  0  0  0  0  0
    5.7047    1.1879   17.6882 C   0  0  0  0  0  0  0  0  0  0  0  0
    6.5806    0.1665   17.6913 N   0  0  0  0  0  0  0  0  0  0  0  0
    6.9102   -0.3708   18.8667 C   0  0  0  0  0  0  0  0  0  0  0  0
    7.6077   -1.2077   18.8558 H   0  0  0  0  0  0  0  0  0  0  0  0
    5.4561    1.6103   16.7164 H   0  0  0  0  0  0  0  0  0  0  0  0
    4.3876    2.4810   18.7978 H   0  0  0  0  0  0  0  0  0  0  0  0
    4.9884    1.4529   21.0153 H   0  0  0  0  0  0  0  0  0  0  0  0
    7.9013    1.5330   23.8505 H   0  0  0  0  0  0  0  0  0  0  0  0
    6.3804    1.8158   22.9979 H   0  0  0  0  0  0  0  0  0  0  0  0
    9.1303    2.0282   21.6218 H   0  0  0  0  0  0  0  0  0  0  0  0
    7.5748    2.4891   20.9474 H   0  0  0  0  0  0  0  0  0  0  0  0
    6.5596    6.6341   22.1509 H   0  0  0  0  0  0  0  0  0  0  0  0
    8.5678    7.5862   23.2936 H   0  0  0  0  0  0  0  0  0  0  0  0
   10.4569    6.0291   23.9059 H   0  0  0  0  0  0  0  0  0  0  0  0
   11.5013    3.9265   23.7069 H   0  0  0  0  0  0  0  0  0  0  0  0
   10.3374    2.8032   24.4103 H   0  0  0  0  0  0  0  0  0  0  0  0
   10.8312    2.6310   22.7209 H   0  0  0  0  0  0  0  0  0  0  0  0
  1  2  1  0
  2  3  2  0
  3  4  1  0
  4  5  2  0
  5  6  1  0
  6  7  2  0
  7  8  1  0
  8  9  1  0
  9 10  1  0
 10 11  2  0
 11 12  1  0
 12 13  1  0
 13 14  1  0
 14 15  1  0
 15 16  1  0
 16 17  1  0
 17 18  1  0
 17 19  1  0
 16 20  1  0
 16 21  1  0
 14 22  1  0
 14 23  1  0
 13 24  1  0
 12 25  2  0
 25 26  1  0
 26 27  1  0
 27 28  2  0
 28 29  1  0
 29 30  2  0
 30 31  1  0
 31 32  2  0
 32 33  1  0
 30 34  1  0
 29 35  1  0
 28 36  1  0
  9 37  1  0
  9 38  1  0
  8 39  1  0
  8 40  1  0
  5 41  1  0
  4 42  1  0
  3 43  1  0
  1 44  1  0
  1 45  1  0
  1 46  1  0
  7  2  1  0
 26 10  1  0
 32 27  1  0
 15 13  1  0
 17 15  1  0
M  END
>  <cnnaffinity>  (1) 
-6.29731

>  <filename>  (1) 
Cc1cccnc1CCc1nc(C2CC23CC3)nn1-c1cccnc1

$$$$
