
     RDKit          3D

 43 46  0  0  0  0  0  0  0  0999 V2000
   12.4232   -1.3210   21.4310 C   0  0  0  0  0  0  0  0  0  0  0  0
   11.9258   -0.0038   21.9709 C   0  0  0  0  0  0  0  0  0  0  0  0
   12.4313    0.8003   22.9428 C   0  0  0  0  0  0  0  0  0  0  0  0
   11.6331    1.8540   23.1687 O   0  0  0  0  0  0  0  0  0  0  0  0
   10.5445    1.7691   22.3368 N   0  0  0  0  0  0  0  0  0  0  0  0
   10.7115    0.6791   21.6354 C   0  0  0  0  0  0  0  0  0  0  0  0
    9.6540    0.2341   20.6840 C   0  0  0  0  0  0  0  0  0  0  0  0
    8.6284   -0.6006   21.3543 C   0  0  0  0  0  0  0  0  0  0  0  0
    8.8610   -1.4608   22.3220 N   0  0  0  0  0  0  0  0  0  0  0  0
    7.6380   -1.9993   22.5468 C   0  0  0  0  0  0  0  0  0  0  0  0
    7.3837   -2.9696   23.6582 C   0  0  0  0  0  0  0  0  0  0  0  0
    6.5447   -2.3117   24.7969 C   0  0  0  0  0  0  0  0  0  0  0  0
    6.0469   -3.3243   25.8007 C   0  0  0  0  0  0  0  0  0  0  0  0
    5.9957   -4.6378   25.5616 C   0  0  0  0  0  0  0  0  0  0  0  0
    6.5069   -5.2729   24.2867 C   0  0  0  0  0  0  0  0  0  0  0  0
    6.6826   -4.2536   23.1475 C   0  0  0  0  0  0  0  0  0  0  0  0
    5.7068   -3.9660   22.7240 H   0  0  0  0  0  0  0  0  0  0  0  0
    7.2621   -4.7039   22.3313 H   0  0  0  0  0  0  0  0  0  0  0  0
    5.8290   -6.0772   23.9742 H   0  0  0  0  0  0  0  0  0  0  0  0
    7.4697   -5.7679   24.4985 H   0  0  0  0  0  0  0  0  0  0  0  0
    5.5973   -5.3114   26.3218 H   0  0  0  0  0  0  0  0  0  0  0  0
    5.6854   -2.9273   26.7499 H   0  0  0  0  0  0  0  0  0  0  0  0
    5.6820   -1.7813   24.3619 H   0  0  0  0  0  0  0  0  0  0  0  0
    7.1320   -1.5395   25.3134 H   0  0  0  0  0  0  0  0  0  0  0  0
    8.3797   -3.2241   24.0524 H   0  0  0  0  0  0  0  0  0  0  0  0
    6.6795   -1.5616   21.7459 N   0  0  0  0  0  0  0  0  0  0  0  0
    7.3304   -0.6788   20.9493 N   0  0  0  0  0  0  0  0  0  0  0  0
    6.6485   -0.0062   19.9023 C   0  0  0  0  0  0  0  0  0  0  0  0
    5.4341    0.6358   20.1609 C   0  0  0  0  0  0  0  0  0  0  0  0
    4.8066    1.3075   19.1090 C   0  0  0  0  0  0  0  0  0  0  0  0
    5.3959    1.2930   17.8396 C   0  0  0  0  0  0  0  0  0  0  0  0
    6.5506    0.6620   17.5797 N   0  0  0  0  0  0  0  0  0  0  0  0
    7.1594    0.0355   18.5916 C   0  0  0  0  0  0  0  0  0  0  0  0
    8.1089   -0.4426   18.3523 H   0  0  0  0  0  0  0  0  0  0  0  0
    4.9322    1.8011   16.9979 H   0  0  0  0  0  0  0  0  0  0  0  0
    3.8767    1.8437   19.2578 H   0  0  0  0  0  0  0  0  0  0  0  0
    5.0150    0.6046   21.1655 H   0  0  0  0  0  0  0  0  0  0  0  0
    9.1797    1.0983   20.2151 H   0  0  0  0  0  0  0  0  0  0  0  0
   10.0766   -0.4184   19.9126 H   0  0  0  0  0  0  0  0  0  0  0  0
   13.3135    0.7620   23.5706 H   0  0  0  0  0  0  0  0  0  0  0  0
   13.2593   -1.6930   22.0297 H   0  0  0  0  0  0  0  0  0  0  0  0
   12.7744   -1.2688   20.3912 H   0  0  0  0  0  0  0  0  0  0  0  0
   11.6168   -2.0645   21.4720 H   0  0  0  0  0  0  0  0  0  0  0  0
  1  2  1  0
  2  3  2  0
  3  4  1  0
  4  5  1  0
  5  6  2  0
  6  7  1  0
  7  8  1  0
  8  9  2  0
  9 10  1  0
 10 11  1  0
 11 12  1  0
 12 13  1  0
 13 14  2  0
 14 15  1  0
 15 16  1  0
 16 17  1  0
 16 18  1  0
 15 19  1  0
 15 20  1  0
 14 21  1  0
 13 22  1  0
 12 23  1  0
 12 24  1  0
 11 25  1  0
 10 26  2  0
 26 27  1  0
 27 28  1  0
 28 29  2  0
 29 30  1  0
 30 31  2  0
 31 32  1  0
 32 33  2  0
 33 34  1  0
 31 35  1  0
 30 36  1  0
 29 37  1  0
  7 38  1  0
  7 39  1  0
  3 40  1  0
  1 41  1  0
  1 42  1  0
  1 43  1  0
  6  2  1  0
 27  8  1  0
 33 28  1  0
 16 11  1  0
M  END
>  <cnnaffinity>  (1) 
-6.45248

>  <filename>  (1) 
Cc1conc1Cc1nc(C2CC=CCC2)nn1-c1cccnc1

$$$$
