
     RDKit          3D

 52 55  0  0  0  0  0  0  0  0999 V2000
    7.5058   -5.3805   27.2676 C   0  0  0  0  0  0  0  0  0  0  0  0
    7.3243   -4.5565   25.9967 C   0  0  0  0  0  0  0  0  0  0  0  0
    7.4791   -3.0538   26.2654 C   0  0  0  0  0  0  0  0  0  0  0  0
    7.1758   -2.1881   25.0248 C   0  0  0  0  0  0  0  0  0  0  0  0
    7.4436   -2.9264   23.6794 C   0  0  0  0  0  0  0  0  0  0  0  0
    7.6677   -1.9511   22.5655 C   0  0  0  0  0  0  0  0  0  0  0  0
    6.7417   -1.6100   21.6964 N   0  0  0  0  0  0  0  0  0  0  0  0
    7.3629   -0.6670   20.9400 N   0  0  0  0  0  0  0  0  0  0  0  0
    6.6597    0.0096   19.9009 C   0  0  0  0  0  0  0  0  0  0  0  0
    5.4408    0.6455   20.1681 C   0  0  0  0  0  0  0  0  0  0  0  0
    4.8130    1.3106   19.1090 C   0  0  0  0  0  0  0  0  0  0  0  0
    5.4030    1.2956   17.8371 C   0  0  0  0  0  0  0  0  0  0  0  0
    6.5620    0.6744   17.5760 N   0  0  0  0  0  0  0  0  0  0  0  0
    7.1697    0.0570   18.5926 C   0  0  0  0  0  0  0  0  0  0  0  0
    8.1138   -0.4336   18.3715 H   0  0  0  0  0  0  0  0  0  0  0  0
    4.9168    1.7842   16.9931 H   0  0  0  0  0  0  0  0  0  0  0  0
    3.8781    1.8409   19.2611 H   0  0  0  0  0  0  0  0  0  0  0  0
    5.0157    0.6100   21.1747 H   0  0  0  0  0  0  0  0  0  0  0  0
    8.6224   -0.4723   21.4267 C   0  0  0  0  0  0  0  0  0  0  0  0
    9.5228    0.6219   20.9497 C   0  0  0  0  0  0  0  0  0  0  0  0
    9.0374    2.0252   21.3509 C   0  0  0  0  0  0  0  0  0  0  0  0
    8.9817    2.2204   22.8698 C   0  0  0  0  0  0  0  0  0  0  0  0
    8.5081    3.5383   23.2562 N   0  0  0  0  0  0  0  0  0  0  0  0
    7.2151    3.9350   23.3279 C   0  0  0  0  0  0  0  0  0  0  0  0
    7.2252    5.2870   23.5825 C   0  0  0  0  0  0  0  0  0  0  0  0
    8.5934    5.6207   23.6263 C   0  0  0  0  0  0  0  0  0  0  0  0
    9.3609    4.5588   23.4213 N   0  0  0  0  0  0  0  0  0  0  0  0
    9.0439    6.5919   23.8065 H   0  0  0  0  0  0  0  0  0  0  0  0
    6.3735    5.9400   23.7184 H   0  0  0  0  0  0  0  0  0  0  0  0
    6.3976    3.2349   23.1764 H   0  0  0  0  0  0  0  0  0  0  0  0
    8.3092    1.4860   23.3174 H   0  0  0  0  0  0  0  0  0  0  0  0
    9.9646    2.0613   23.3197 H   0  0  0  0  0  0  0  0  0  0  0  0
    9.7178    2.7708   20.9335 H   0  0  0  0  0  0  0  0  0  0  0  0
    8.0456    2.2044   20.9170 H   0  0  0  0  0  0  0  0  0  0  0  0
    9.6065    0.5684   19.8599 H   0  0  0  0  0  0  0  0  0  0  0  0
   10.5208    0.4280   21.3541 H   0  0  0  0  0  0  0  0  0  0  0  0
    8.8472   -1.2823   22.4392 N   0  0  0  0  0  0  0  0  0  0  0  0
    8.5975   -3.9377   23.8189 C   0  0  0  0  0  0  0  0  0  0  0  0
    8.2869   -5.0190   24.8767 C   0  0  0  0  0  0  0  0  0  0  0  0
    7.8585   -5.9072   24.3942 H   0  0  0  0  0  0  0  0  0  0  0  0
    9.2342   -5.3552   25.3182 H   0  0  0  0  0  0  0  0  0  0  0  0
    9.5089   -3.3912   24.0953 H   0  0  0  0  0  0  0  0  0  0  0  0
    8.8128   -4.4088   22.8539 H   0  0  0  0  0  0  0  0  0  0  0  0
    6.5373   -3.4765   23.4082 H   0  0  0  0  0  0  0  0  0  0  0  0
    7.7784   -1.2717   25.0761 H   0  0  0  0  0  0  0  0  0  0  0  0
    6.1269   -1.8664   25.0384 H   0  0  0  0  0  0  0  0  0  0  0  0
    6.8347   -2.7490   27.0985 H   0  0  0  0  0  0  0  0  0  0  0  0
    8.5077   -2.8680   26.6057 H   0  0  0  0  0  0  0  0  0  0  0  0
    6.2983   -4.7181   25.6385 H   0  0  0  0  0  0  0  0  0  0  0  0
    6.7796   -5.0950   28.0361 H   0  0  0  0  0  0  0  0  0  0  0  0
    8.5064   -5.2281   27.6884 H   0  0  0  0  0  0  0  0  0  0  0  0
    7.3885   -6.4518   27.0731 H   0  0  0  0  0  0  0  0  0  0  0  0
  1  2  1  0
  2  3  1  0
  3  4  1  0
  4  5  1  0
  5  6  1  0
  6  7  2  0
  7  8  1  0
  8  9  1  0
  9 10  2  0
 10 11  1  0
 11 12  2  0
 12 13  1  0
 13 14  2  0
 14 15  1  0
 12 16  1  0
 11 17  1  0
 10 18  1  0
  8 19  1  0
 19 20  1  0
 20 21  1  0
 21 22  1  0
 22 23  1  0
 23 24  1  0
 24 25  2  0
 25 26  1  0
 26 27  2  0
 26 28  1  0
 25 29  1  0
 24 30  1  0
 22 31  1  0
 22 32  1  0
 21 33  1  0
 21 34  1  0
 20 35  1  0
 20 36  1  0
 19 37  2  0
  5 38  1  0
 38 39  1  0
 39 40  1  0
 39 41  1  0
 38 42  1  0
 38 43  1  0
  5 44  1  0
  4 45  1  0
  4 46  1  0
  3 47  1  0
  3 48  1  0
  2 49  1  0
  1 50  1  0
  1 51  1  0
  1 52  1  0
 39  2  1  0
 37  6  1  0
 14  9  1  0
 27 23  1  0
M  END
>  <cnnaffinity>  (1) 
-6.22223

>  <filename>  (1) 
CC1CCC(c2nc(CCCn3cccn3)n(-c3cccnc3)n2)CC1

$$$$
