
     RDKit          3D

 46 49  0  0  0  0  0  0  0  0999 V2000
   13.9774    2.8672   22.7477 C   0  0  0  0  0  0  0  0  0  0  0  0
   12.9377    1.9007   22.3005 C   0  0  0  0  0  0  0  0  0  0  0  0
   11.8152    2.3238   21.7567 N   0  0  0  0  0  0  0  0  0  0  0  0
   11.1000    1.2179   21.4826 N   0  0  0  0  0  0  0  0  0  0  0  0
    9.7410    1.4102   21.0091 C   0  0  0  0  0  0  0  0  0  0  0  0
    8.7593    1.1612   22.0906 C   0  0  0  0  0  0  0  0  0  0  0  0
    8.7327    1.8459   23.2092 N   0  0  0  0  0  0  0  0  0  0  0  0
    7.7005    1.2871   23.8914 C   0  0  0  0  0  0  0  0  0  0  0  0
    7.2604    1.7916   25.2112 C   0  0  0  0  0  0  0  0  0  0  0  0
    6.1381    1.2376   25.8615 C   0  0  0  0  0  0  0  0  0  0  0  0
    5.7915    1.7282   27.1161 C   0  0  0  0  0  0  0  0  0  0  0  0
    4.7384    1.1911   27.7510 F   0  0  0  0  0  0  0  0  0  0  0  0
    6.5006    2.7518   27.7440 C   0  0  0  0  0  0  0  0  0  0  0  0
    7.5961    3.3106   27.0762 C   0  0  0  0  0  0  0  0  0  0  0  0
    7.9794    2.8399   25.8198 C   0  0  0  0  0  0  0  0  0  0  0  0
    8.8390    3.2629   25.3007 H   0  0  0  0  0  0  0  0  0  0  0  0
    8.1609    4.1150   27.5370 H   0  0  0  0  0  0  0  0  0  0  0  0
    6.1891    3.0843   28.7297 H   0  0  0  0  0  0  0  0  0  0  0  0
    5.5584    0.4320   25.4119 H   0  0  0  0  0  0  0  0  0  0  0  0
    7.1080    0.2946   23.2469 N   0  0  0  0  0  0  0  0  0  0  0  0
    7.7993    0.2142   22.0907 N   0  0  0  0  0  0  0  0  0  0  0  0
    7.3791   -0.6953   21.0272 C   0  0  0  0  0  0  0  0  0  0  0  0
    6.6663    0.0051   19.8812 C   0  0  0  0  0  0  0  0  0  0  0  0
    5.4520    0.6607   20.1302 C   0  0  0  0  0  0  0  0  0  0  0  0
    4.8161    1.3134   19.0738 C   0  0  0  0  0  0  0  0  0  0  0  0
    5.4172    1.2986   17.8127 C   0  0  0  0  0  0  0  0  0  0  0  0
    6.5679    0.6641   17.5479 N   0  0  0  0  0  0  0  0  0  0  0  0
    7.1685    0.0384   18.5697 C   0  0  0  0  0  0  0  0  0  0  0  0
    8.1055   -0.4643   18.3181 H   0  0  0  0  0  0  0  0  0  0  0  0
    4.9523    1.8179   16.9777 H   0  0  0  0  0  0  0  0  0  0  0  0
    3.8787    1.8384   19.2132 H   0  0  0  0  0  0  0  0  0  0  0  0
    5.0235    0.6706   21.1366 H   0  0  0  0  0  0  0  0  0  0  0  0
    6.7172   -1.4110   21.5227 H   0  0  0  0  0  0  0  0  0  0  0  0
    8.2495   -1.2666   20.6799 H   0  0  0  0  0  0  0  0  0  0  0  0
    9.5323    0.8108   20.1201 H   0  0  0  0  0  0  0  0  0  0  0  0
    9.6723    2.4670   20.7479 H   0  0  0  0  0  0  0  0  0  0  0  0
   11.7479    0.0804   21.8782 C   0  0  0  0  0  0  0  0  0  0  0  0
   11.1959   -1.3052   21.7269 C   0  0  0  0  0  0  0  0  0  0  0  0
   10.4245   -1.5399   22.4705 H   0  0  0  0  0  0  0  0  0  0  0  0
   10.7456   -1.4374   20.7417 H   0  0  0  0  0  0  0  0  0  0  0  0
   11.9883   -2.0501   21.8359 H   0  0  0  0  0  0  0  0  0  0  0  0
   12.9614    0.4968   22.3912 C   0  0  0  0  0  0  0  0  0  0  0  0
   13.7914   -0.1023   22.7468 H   0  0  0  0  0  0  0  0  0  0  0  0
   14.9757    2.4914   22.5093 H   0  0  0  0  0  0  0  0  0  0  0  0
   13.8980    3.0182   23.8240 H   0  0  0  0  0  0  0  0  0  0  0  0
   13.8505    3.8319   22.2567 H   0  0  0  0  0  0  0  0  0  0  0  0
  1  2  1  0
  2  3  2  0
  3  4  1  0
  4  5  1  0
  5  6  1  0
  6  7  2  0
  7  8  1  0
  8  9  1  0
  9 10  2  0
 10 11  1  0
 11 12  1  0
 11 13  2  0
 13 14  1  0
 14 15  2  0
 15 16  1  0
 14 17  1  0
 13 18  1  0
 10 19  1  0
  8 20  2  0
 20 21  1  0
 21 22  1  0
 22 23  1  0
 23 24  2  0
 24 25  1  0
 25 26  2  0
 26 27  1  0
 27 28  2  0
 28 29  1  0
 26 30  1  0
 25 31  1  0
 24 32  1  0
 22 33  1  0
 22 34  1  0
  5 35  1  0
  5 36  1  0
  4 37  1  0
 37 38  1  0
 38 39  1  0
 38 40  1  0
 38 41  1  0
 37 42  2  0
 42 43  1  0
  1 44  1  0
  1 45  1  0
  1 46  1  0
 42  2  1  0
 21  6  1  0
 28 23  1  0
 15  9  1  0
M  END
>  <cnnaffinity>  (1) 
-6.39861

>  <filename>  (1) 
Cc1cc(C)n(Cc2nc(-c3cccc(F)c3)nn2Cc2cccnc2)n1

$$$$
