
     RDKit          3D

 34 36  0  0  0  0  0  0  0  0999 V2000
    6.7632   -1.5148   21.4793 H   0  0  0  0  0  0  0  0  0  0  0  0
    7.3314   -0.7220   20.9866 C   0  0  0  0  0  0  0  0  0  0  0  0
    8.5611   -0.4049   21.4221 C   0  0  0  0  0  0  0  0  0  0  0  0
    9.3287   -1.0020   22.5290 C   0  0  0  0  0  0  0  0  0  0  0  0
    8.8181   -2.1558   23.3730 C   0  0  0  0  0  0  0  0  0  0  0  0
    7.4921   -2.3710   23.5171 N   0  0  0  0  0  0  0  0  0  0  0  0
    7.1033   -3.3473   24.3444 C   0  0  0  0  0  0  0  0  0  0  0  0
    6.0333   -3.4781   24.4608 H   0  0  0  0  0  0  0  0  0  0  0  0
    7.9813   -4.1949   25.0175 C   0  0  0  0  0  0  0  0  0  0  0  0
    7.6081   -4.9833   25.6588 H   0  0  0  0  0  0  0  0  0  0  0  0
    9.3559   -4.0126   24.8465 C   0  0  0  0  0  0  0  0  0  0  0  0
   10.3520   -4.8695   25.5731 C   0  0  0  0  0  0  0  0  0  0  0  0
   11.2803   -4.9752   25.0035 H   0  0  0  0  0  0  0  0  0  0  0  0
    9.9497   -5.8680   25.7646 H   0  0  0  0  0  0  0  0  0  0  0  0
   10.6002   -4.4222   26.5407 H   0  0  0  0  0  0  0  0  0  0  0  0
    9.7609   -2.9739   24.0140 C   0  0  0  0  0  0  0  0  0  0  0  0
   10.8126   -2.7661   23.8712 H   0  0  0  0  0  0  0  0  0  0  0  0
   10.4865   -0.4660   22.7056 N   0  0  0  0  0  0  0  0  0  0  0  0
   10.6660    0.6454   21.7740 C   0  0  0  0  0  0  0  0  0  0  0  0
   11.5598    0.4592   21.1762 H   0  0  0  0  0  0  0  0  0  0  0  0
   10.8366    1.5645   22.3398 H   0  0  0  0  0  0  0  0  0  0  0  0
    9.3988    0.7411   20.8977 C   0  0  0  0  0  0  0  0  0  0  0  0
    9.6074    0.6205   19.8330 H   0  0  0  0  0  0  0  0  0  0  0  0
    8.8841    1.7022   21.0029 H   0  0  0  0  0  0  0  0  0  0  0  0
    6.6467   -0.0041   19.8927 C   0  0  0  0  0  0  0  0  0  0  0  0
    7.1654    0.0701   18.5849 C   0  0  0  0  0  0  0  0  0  0  0  0
    8.1085   -0.4288   18.3747 H   0  0  0  0  0  0  0  0  0  0  0  0
    6.5599    0.6860   17.5622 N   0  0  0  0  0  0  0  0  0  0  0  0
    5.3986    1.3003   17.8315 C   0  0  0  0  0  0  0  0  0  0  0  0
    4.9131    1.7871   16.9903 H   0  0  0  0  0  0  0  0  0  0  0  0
    4.8001    1.3151   19.0983 C   0  0  0  0  0  0  0  0  0  0  0  0
    3.8687    1.8484   19.2550 H   0  0  0  0  0  0  0  0  0  0  0  0
    5.4237    0.6392   20.1460 C   0  0  0  0  0  0  0  0  0  0  0  0
    5.0100    0.6218   21.1592 H   0  0  0  0  0  0  0  0  0  0  0  0
  1  2  1  0
  2  3  2  3
  3  4  1  0
  4  5  1  0
  5  6  2  0
  6  7  1  0
  7  8  1  0
  7  9  2  0
  9 10  1  0
  9 11  1  0
 11 12  1  0
 12 13  1  0
 12 14  1  0
 12 15  1  0
 11 16  2  0
 16 17  1  0
  4 18  2  0
 18 19  1  0
 19 20  1  0
 19 21  1  0
 19 22  1  0
 22 23  1  0
 22 24  1  0
  2 25  1  0
 25 26  2  0
 26 27  1  0
 26 28  1  0
 28 29  2  0
 29 30  1  0
 29 31  1  0
 31 32  1  0
 31 33  2  0
 33 34  1  0
 22  3  1  0
 33 25  1  0
 16  5  1  0
M  END
>  <cnnaffinity>  (1) 
-5.46518

>  <filename>  (1) 
Cc1ccnc(C2=NCCC2=Cc2cccnc2)c1

$$$$
