
     RDKit          3D

 43 46  0  0  0  0  0  0  0  0999 V2000
    8.2415   -0.3780   27.5213 C   0  0  0  0  0  0  0  0  0  0  0  0
    7.7455    0.1872   26.2291 C   0  0  0  0  0  0  0  0  0  0  0  0
    8.3409    1.0682   25.3566 C   0  0  0  0  0  0  0  0  0  0  0  0
    7.4793    1.1442   24.2438 C   0  0  0  0  0  0  0  0  0  0  0  0
    7.7853    1.7807   22.9249 C   0  0  0  0  0  0  0  0  0  0  0  0
    8.7940    0.9156   22.2457 C   0  0  0  0  0  0  0  0  0  0  0  0
   10.0949    0.9918   22.4309 N   0  0  0  0  0  0  0  0  0  0  0  0
   10.5586   -0.1585   21.8739 C   0  0  0  0  0  0  0  0  0  0  0  0
   11.9968   -0.4980   21.7543 C   0  0  0  0  0  0  0  0  0  0  0  0
   13.0247    0.3447   22.2309 C   0  0  0  0  0  0  0  0  0  0  0  0
   14.3221    0.1738   21.7503 C   0  0  0  0  0  0  0  0  0  0  0  0
   14.5831   -0.7948   20.7568 C   0  0  0  0  0  0  0  0  0  0  0  0
   15.9960   -0.4130   19.6545 Cl  0  0  0  0  0  0  0  0  0  0  0  0
   13.6550   -1.7923   20.4883 C   0  0  0  0  0  0  0  0  0  0  0  0
   12.3633   -1.6195   20.9938 C   0  0  0  0  0  0  0  0  0  0  0  0
   11.5702   -2.3077   20.7573 H   0  0  0  0  0  0  0  0  0  0  0  0
   13.9142   -2.6523   19.8875 H   0  0  0  0  0  0  0  0  0  0  0  0
   15.1159    0.8639   22.0213 H   0  0  0  0  0  0  0  0  0  0  0  0
   12.8062    1.1647   22.9075 H   0  0  0  0  0  0  0  0  0  0  0  0
    9.6066   -0.9135   21.3400 N   0  0  0  0  0  0  0  0  0  0  0  0
    8.4781   -0.2189   21.5923 N   0  0  0  0  0  0  0  0  0  0  0  0
    7.1768   -0.7046   21.1446 C   0  0  0  0  0  0  0  0  0  0  0  0
    6.5635    0.0670   19.9888 C   0  0  0  0  0  0  0  0  0  0  0  0
    5.3241    0.7118   20.0888 C   0  0  0  0  0  0  0  0  0  0  0  0
    4.8022    1.3546   18.9619 C   0  0  0  0  0  0  0  0  0  0  0  0
    5.5419    1.3303   17.7760 C   0  0  0  0  0  0  0  0  0  0  0  0
    6.7328    0.7226   17.6579 N   0  0  0  0  0  0  0  0  0  0  0  0
    7.2258    0.1220   18.7493 C   0  0  0  0  0  0  0  0  0  0  0  0
    8.2026   -0.3483   18.6371 H   0  0  0  0  0  0  0  0  0  0  0  0
    5.1615    1.8183   16.8801 H   0  0  0  0  0  0  0  0  0  0  0  0
    3.8521    1.8775   18.9917 H   0  0  0  0  0  0  0  0  0  0  0  0
    4.7728    0.7202   21.0341 H   0  0  0  0  0  0  0  0  0  0  0  0
    6.5068   -0.6894   22.0097 H   0  0  0  0  0  0  0  0  0  0  0  0
    7.3355   -1.7510   20.8715 H   0  0  0  0  0  0  0  0  0  0  0  0
    8.2350    2.7625   23.0669 H   0  0  0  0  0  0  0  0  0  0  0  0
    6.8693    1.8815   22.3355 H   0  0  0  0  0  0  0  0  0  0  0  0
    6.4093    0.3846   24.4121 N   0  0  0  0  0  0  0  0  0  0  0  0
    6.5800   -0.1682   25.6320 N   0  0  0  0  0  0  0  0  0  0  0  0
    5.8782   -0.8017   25.9791 H   0  0  0  0  0  0  0  0  0  0  0  0
    9.3138    1.5301   25.4360 H   0  0  0  0  0  0  0  0  0  0  0  0
    7.9667    0.2491   28.3737 H   0  0  0  0  0  0  0  0  0  0  0  0
    9.3331   -0.4302   27.4983 H   0  0  0  0  0  0  0  0  0  0  0  0
    7.8612   -1.3890   27.6971 H   0  0  0  0  0  0  0  0  0  0  0  0
  1  2  1  0
  2  3  2  0
  3  4  1  0
  4  5  1  0
  5  6  1  0
  6  7  2  0
  7  8  1  0
  8  9  1  0
  9 10  2  0
 10 11  1  0
 11 12  2  0
 12 13  1  0
 12 14  1  0
 14 15  2  0
 15 16  1  0
 14 17  1  0
 11 18  1  0
 10 19  1  0
  8 20  2  0
 20 21  1  0
 21 22  1  0
 22 23  1  0
 23 24  2  0
 24 25  1  0
 25 26  2  0
 26 27  1  0
 27 28  2  0
 28 29  1  0
 26 30  1  0
 25 31  1  0
 24 32  1  0
 22 33  1  0
 22 34  1  0
  5 35  1  0
  5 36  1  0
  4 37  2  0
 37 38  1  0
 38 39  1  0
  3 40  1  0
  1 41  1  0
  1 42  1  0
  1 43  1  0
 38  2  1  0
 21  6  1  0
 28 23  1  0
 15  9  1  0
M  END
>  <cnnaffinity>  (1) 
-6.49122

>  <filename>  (1) 
Cc1cc(Cc2nc(-c3ccc(Cl)cc3)nn2Cc2cccnc2)n[nH]1

$$$$
