
     RDKit          3D

 42 45  0  0  0  0  0  0  0  0999 V2000
   12.3349   -1.3824   21.5598 C   0  0  0  0  0  0  0  0  0  0  0  0
   11.8568   -0.0570   22.0521 C   0  0  0  0  0  0  0  0  0  0  0  0
   12.3709    0.7288   23.0282 C   0  0  0  0  0  0  0  0  0  0  0  0
   11.6227    1.8236   23.2116 O   0  0  0  0  0  0  0  0  0  0  0  0
   10.5573    1.7763   22.3363 N   0  0  0  0  0  0  0  0  0  0  0  0
   10.6993    0.6732   21.6541 C   0  0  0  0  0  0  0  0  0  0  0  0
    9.6596    0.2339   20.6789 C   0  0  0  0  0  0  0  0  0  0  0  0
    8.6363   -0.6183   21.3318 C   0  0  0  0  0  0  0  0  0  0  0  0
    8.8650   -1.4664   22.3075 N   0  0  0  0  0  0  0  0  0  0  0  0
    7.6383   -1.9873   22.5564 C   0  0  0  0  0  0  0  0  0  0  0  0
    7.3854   -2.9583   23.6727 C   0  0  0  0  0  0  0  0  0  0  0  0
    7.6732   -2.3440   25.0650 C   0  0  0  0  0  0  0  0  0  0  0  0
    9.1519   -2.6542   25.3699 C   0  0  0  0  0  0  0  0  0  0  0  0
    9.5459   -3.8571   24.4845 C   0  0  0  0  0  0  0  0  0  0  0  0
    8.3164   -4.1916   23.6099 C   0  0  0  0  0  0  0  0  0  0  0  0
    8.5930   -4.4454   22.5806 H   0  0  0  0  0  0  0  0  0  0  0  0
    7.7895   -5.0675   24.0060 H   0  0  0  0  0  0  0  0  0  0  0  0
    9.8480   -4.7267   25.0774 H   0  0  0  0  0  0  0  0  0  0  0  0
   10.4092   -3.6057   23.8599 H   0  0  0  0  0  0  0  0  0  0  0  0
    9.7750   -1.7871   25.1311 H   0  0  0  0  0  0  0  0  0  0  0  0
    9.2987   -2.8578   26.4357 H   0  0  0  0  0  0  0  0  0  0  0  0
    7.0174   -2.8061   25.8127 H   0  0  0  0  0  0  0  0  0  0  0  0
    7.4572   -1.2695   25.0961 H   0  0  0  0  0  0  0  0  0  0  0  0
    6.3352   -3.2321   23.5645 H   0  0  0  0  0  0  0  0  0  0  0  0
    6.6819   -1.5499   21.7605 N   0  0  0  0  0  0  0  0  0  0  0  0
    7.3342   -0.6888   20.9340 N   0  0  0  0  0  0  0  0  0  0  0  0
    6.6488    0.0014   19.9004 C   0  0  0  0  0  0  0  0  0  0  0  0
    5.4356    0.6451   20.1677 C   0  0  0  0  0  0  0  0  0  0  0  0
    4.8128    1.3109   19.1084 C   0  0  0  0  0  0  0  0  0  0  0  0
    5.4026    1.2958   17.8358 C   0  0  0  0  0  0  0  0  0  0  0  0
    6.5602    0.6709   17.5742 N   0  0  0  0  0  0  0  0  0  0  0  0
    7.1631    0.0513   18.5925 C   0  0  0  0  0  0  0  0  0  0  0  0
    8.1101   -0.4277   18.3643 H   0  0  0  0  0  0  0  0  0  0  0  0
    4.9211    1.7854   16.9916 H   0  0  0  0  0  0  0  0  0  0  0  0
    3.8796    1.8407   19.2604 H   0  0  0  0  0  0  0  0  0  0  0  0
    5.0144    0.6105   21.1764 H   0  0  0  0  0  0  0  0  0  0  0  0
    9.2012    1.1013   20.2037 H   0  0  0  0  0  0  0  0  0  0  0  0
   10.0748   -0.4105   19.8993 H   0  0  0  0  0  0  0  0  0  0  0  0
   13.2410    0.6164   23.6604 H   0  0  0  0  0  0  0  0  0  0  0  0
   11.6619   -2.1756   21.9021 H   0  0  0  0  0  0  0  0  0  0  0  0
   13.3423   -1.5995   21.9229 H   0  0  0  0  0  0  0  0  0  0  0  0
   12.3565   -1.4262   20.4684 H   0  0  0  0  0  0  0  0  0  0  0  0
  1  2  1  0
  2  3  2  0
  3  4  1  0
  4  5  1  0
  5  6  2  0
  6  7  1  0
  7  8  1  0
  8  9  2  0
  9 10  1  0
 10 11  1  0
 11 12  1  0
 12 13  1  0
 13 14  1  0
 14 15  1  0
 15 16  1  0
 15 17  1  0
 14 18  1  0
 14 19  1  0
 13 20  1  0
 13 21  1  0
 12 22  1  0
 12 23  1  0
 11 24  1  0
 10 25  2  0
 25 26  1  0
 26 27  1  0
 27 28  2  0
 28 29  1  0
 29 30  2  0
 30 31  1  0
 31 32  2  0
 32 33  1  0
 30 34  1  0
 29 35  1  0
 28 36  1  0
  7 37  1  0
  7 38  1  0
  3 39  1  0
  1 40  1  0
  1 41  1  0
  1 42  1  0
  6  2  1  0
 26  8  1  0
 32 27  1  0
 15 11  1  0
M  END
>  <cnnaffinity>  (1) 
-6.40675

>  <filename>  (1) 
Cc1conc1Cc1nc(C2CCCC2)nn1-c1cccnc1

$$$$
