
     RDKit          3D

 42 45  0  0  0  0  0  0  0  0999 V2000
   10.8936    0.1765   24.2993 C   0  0  0  0  0  0  0  0  0  0  0  0
   11.7531   -0.4541   23.2345 C   0  0  0  0  0  0  0  0  0  0  0  0
   13.0654   -0.0112   23.0571 C   0  0  0  0  0  0  0  0  0  0  0  0
   13.8511   -0.5708   22.0509 C   0  0  0  0  0  0  0  0  0  0  0  0
   13.3089   -1.5710   21.2447 C   0  0  0  0  0  0  0  0  0  0  0  0
   12.0581   -2.0207   21.4191 N   0  0  0  0  0  0  0  0  0  0  0  0
   11.3111   -1.5152   22.4004 C   0  0  0  0  0  0  0  0  0  0  0  0
   10.0016   -2.2149   22.6589 C   0  0  0  0  0  0  0  0  0  0  0  0
    8.7909   -1.4593   22.2166 C   0  0  0  0  0  0  0  0  0  0  0  0
    8.5734   -0.9417   21.0278 N   0  0  0  0  0  0  0  0  0  0  0  0
    7.2885   -0.4823   21.1104 C   0  0  0  0  0  0  0  0  0  0  0  0
    6.5913    0.1366   19.9770 C   0  0  0  0  0  0  0  0  0  0  0  0
    5.3431    0.7804   20.0781 C   0  0  0  0  0  0  0  0  0  0  0  0
    4.8125    1.3525   18.9248 C   0  0  0  0  0  0  0  0  0  0  0  0
    5.5246    1.2508   17.7246 C   0  0  0  0  0  0  0  0  0  0  0  0
    6.6965    0.6108   17.6113 N   0  0  0  0  0  0  0  0  0  0  0  0
    7.2092    0.0686   18.7208 C   0  0  0  0  0  0  0  0  0  0  0  0
    8.1561   -0.4551   18.6086 H   0  0  0  0  0  0  0  0  0  0  0  0
    5.1325    1.6929   16.8129 H   0  0  0  0  0  0  0  0  0  0  0  0
    3.8671    1.8809   18.9387 H   0  0  0  0  0  0  0  0  0  0  0  0
    4.8122    0.8273   21.0317 H   0  0  0  0  0  0  0  0  0  0  0  0
    6.7176   -0.6709   22.2831 N   0  0  0  0  0  0  0  0  0  0  0  0
    7.6658   -1.3420   22.9803 N   0  0  0  0  0  0  0  0  0  0  0  0
    7.4889   -1.7115   24.3537 C   0  0  0  0  0  0  0  0  0  0  0  0
    7.6993   -3.0350   24.7602 C   0  0  0  0  0  0  0  0  0  0  0  0
    7.7185   -3.3774   26.2233 C   0  0  0  0  0  0  0  0  0  0  0  0
    7.4955   -2.3146   27.0657 C   0  0  0  0  0  0  0  0  0  0  0  0
    7.5608   -2.6305   27.2127 F   0  0  0  0  0  0  0  0  0  0  0  0
    7.2029   -0.8924   26.6594 C   0  0  0  0  0  0  0  0  0  0  0  0
    7.1990   -0.6726   25.2902 C   0  0  0  0  0  0  0  0  0  0  0  0
    6.9786    0.3180   24.8737 H   0  0  0  0  0  0  0  0  0  0  0  0
    7.0196   -0.0102   27.3227 H   0  0  0  0  0  0  0  0  0  0  0  0
    7.9512   -4.5071   26.3713 H   0  0  0  0  0  0  0  0  0  0  0  0
    7.8735   -3.8209   24.0295 H   0  0  0  0  0  0  0  0  0  0  0  0
   10.0039   -3.1559   22.1074 H   0  0  0  0  0  0  0  0  0  0  0  0
    9.9297   -2.4501   23.7274 H   0  0  0  0  0  0  0  0  0  0  0  0
   13.8773   -2.0310   20.4335 H   0  0  0  0  0  0  0  0  0  0  0  0
   14.8372   -0.1779   21.8872 H   0  0  0  0  0  0  0  0  0  0  0  0
   13.4722    0.7699   23.7071 H   0  0  0  0  0  0  0  0  0  0  0  0
   10.7187   -0.5135   25.1335 H   0  0  0  0  0  0  0  0  0  0  0  0
   11.3735    1.0789   24.6908 H   0  0  0  0  0  0  0  0  0  0  0  0
    9.9158    0.4669   23.9017 H   0  0  0  0  0  0  0  0  0  0  0  0
  1  2  1  0
  2  3  2  0
  3  4  1  0
  4  5  2  0
  5  6  1  0
  6  7  2  0
  7  8  1  0
  8  9  1  0
  9 10  2  0
 10 11  1  0
 11 12  1  0
 12 13  2  0
 13 14  1  0
 14 15  2  0
 15 16  1  0
 16 17  2  0
 17 18  1  0
 15 19  1  0
 14 20  1  0
 13 21  1  0
 11 22  2  0
 22 23  1  0
 23 24  1  0
 24 25  2  0
 25 26  1  0
 26 27  2  0
 27 28  1  0
 27 29  1  0
 29 30  2  0
 30 31  1  0
 29 32  1  0
 26 33  1  0
 25 34  1  0
  8 35  1  0
  8 36  1  0
  5 37  1  0
  4 38  1  0
  3 39  1  0
  1 40  1  0
  1 41  1  0
  1 42  1  0
  7  2  1  0
 23  9  1  0
 30 24  1  0
 17 12  1  0
M  END
>  <cnnaffinity>  (1) 
-6.81041

>  <filename>  (1) 
Cc1cccnc1Cc1nc(-c2cccnc2)nn1-c1ccc(F)cc1

$$$$
