
     RDKit          3D

 45 48  0  0  0  0  0  0  0  0999 V2000
   16.0141   -0.3175   19.6623 C   0  0  0  0  0  0  0  0  0  0  0  0
   14.7166   -0.7691   20.5650 C   0  0  0  0  0  0  0  0  0  0  0  0
   14.4237    0.1296   21.6570 C   0  0  0  0  0  0  0  0  0  0  0  0
   13.1384    0.3581   22.1467 C   0  0  0  0  0  0  0  0  0  0  0  0
   12.0914   -0.4568   21.6614 C   0  0  0  0  0  0  0  0  0  0  0  0
   10.6425   -0.1043   21.7615 C   0  0  0  0  0  0  0  0  0  0  0  0
    9.6926   -0.8709   21.2324 N   0  0  0  0  0  0  0  0  0  0  0  0
    8.5544   -0.1834   21.4721 N   0  0  0  0  0  0  0  0  0  0  0  0
    7.2551   -0.7132   21.0512 C   0  0  0  0  0  0  0  0  0  0  0  0
    6.5702    0.0510   19.9305 C   0  0  0  0  0  0  0  0  0  0  0  0
    5.3384    0.6990   20.0924 C   0  0  0  0  0  0  0  0  0  0  0  0
    4.7624    1.3527   18.9982 C   0  0  0  0  0  0  0  0  0  0  0  0
    5.4387    1.3332   17.7759 C   0  0  0  0  0  0  0  0  0  0  0  0
    6.6121    0.7083   17.5954 N   0  0  0  0  0  0  0  0  0  0  0  0
    7.1560    0.0939   18.6540 C   0  0  0  0  0  0  0  0  0  0  0  0
    8.1072   -0.4044   18.4732 H   0  0  0  0  0  0  0  0  0  0  0  0
    5.0194    1.8377   16.9050 H   0  0  0  0  0  0  0  0  0  0  0  0
    3.8206    1.8831   19.0819 H   0  0  0  0  0  0  0  0  0  0  0  0
    4.8299    0.6918   21.0604 H   0  0  0  0  0  0  0  0  0  0  0  0
    7.4582   -1.7434   20.7443 H   0  0  0  0  0  0  0  0  0  0  0  0
    6.6060   -0.7426   21.9333 H   0  0  0  0  0  0  0  0  0  0  0  0
    8.8544    0.9408   22.1513 C   0  0  0  0  0  0  0  0  0  0  0  0
    7.8476    1.7849   22.8604 C   0  0  0  0  0  0  0  0  0  0  0  0
    7.6040    1.1403   24.2017 C   0  0  0  0  0  0  0  0  0  0  0  0
    8.5702    1.2304   25.2177 C   0  0  0  0  0  0  0  0  0  0  0  0
    8.3776    0.5211   26.4020 C   0  0  0  0  0  0  0  0  0  0  0  0
    7.2101   -0.2374   26.5324 C   0  0  0  0  0  0  0  0  0  0  0  0
    6.3009   -0.2564   25.4711 C   0  0  0  0  0  0  0  0  0  0  0  0
    6.4970    0.4033   24.3157 N   0  0  0  0  0  0  0  0  0  0  0  0
    5.3831   -0.8360   25.5413 H   0  0  0  0  0  0  0  0  0  0  0  0
    7.0094   -0.8164   27.4265 H   0  0  0  0  0  0  0  0  0  0  0  0
    9.1273    0.5439   27.1931 H   0  0  0  0  0  0  0  0  0  0  0  0
    9.4715    1.7988   25.0168 H   0  0  0  0  0  0  0  0  0  0  0  0
    6.9095    1.8481   22.3023 H   0  0  0  0  0  0  0  0  0  0  0  0
    8.2696    2.7866   22.9734 H   0  0  0  0  0  0  0  0  0  0  0  0
   10.1591    1.0332   22.3279 N   0  0  0  0  0  0  0  0  0  0  0  0
   12.4760   -1.6147   20.9618 C   0  0  0  0  0  0  0  0  0  0  0  0
   13.7691   -1.7883   20.4517 C   0  0  0  0  0  0  0  0  0  0  0  0
   14.0715   -2.9612   19.8845 F   0  0  0  0  0  0  0  0  0  0  0  0
   11.7252   -2.3515   20.7717 H   0  0  0  0  0  0  0  0  0  0  0  0
   12.9661    1.1957   22.8176 H   0  0  0  0  0  0  0  0  0  0  0  0
   15.2109    0.7968   21.9926 H   0  0  0  0  0  0  0  0  0  0  0  0
   15.9436    0.1327   18.6613 H   0  0  0  0  0  0  0  0  0  0  0  0
   16.3935    0.5588   20.1681 H   0  0  0  0  0  0  0  0  0  0  0  0
   16.8196   -1.0493   19.6491 H   0  0  0  0  0  0  0  0  0  0  0  0
  1  2  1  0
  2  3  2  0
  3  4  1  0
  4  5  2  0
  5  6  1  0
  6  7  2  0
  7  8  1  0
  8  9  1  0
  9 10  1  0
 10 11  2  0
 11 12  1  0
 12 13  2  0
 13 14  1  0
 14 15  2  0
 15 16  1  0
 13 17  1  0
 12 18  1  0
 11 19  1  0
  9 20  1  0
  9 21  1  0
  8 22  1  0
 22 23  1  0
 23 24  1  0
 24 25  2  0
 25 26  1  0
 26 27  2  0
 27 28  1  0
 28 29  2  0
 28 30  1  0
 27 31  1  0
 26 32  1  0
 25 33  1  0
 23 34  1  0
 23 35  1  0
 22 36  2  0
  5 37  1  0
 37 38  2  0
 38 39  1  0
 37 40  1  0
  4 41  1  0
  3 42  1  0
  1 43  1  0
  1 44  1  0
  1 45  1  0
 38  2  1  0
 36  6  1  0
 15 10  1  0
 29 24  1  0
M  END
>  <cnnaffinity>  (1) 
-6.73171

>  <filename>  (1) 
Cc1ccc(-c2nc(Cc3ccccn3)n(Cc3cccnc3)n2)cc1F

$$$$
