
     RDKit          3D

 45 48  0  0  0  0  0  0  0  0999 V2000
   14.8346    0.8982   22.4917 C   0  0  0  0  0  0  0  0  0  0  0  0
   13.8166   -0.0666   21.9435 C   0  0  0  0  0  0  0  0  0  0  0  0
   12.4856    0.1625   22.3095 C   0  0  0  0  0  0  0  0  0  0  0  0
   11.4477   -0.6464   21.8432 C   0  0  0  0  0  0  0  0  0  0  0  0
   10.0475   -0.2417   21.9088 C   0  0  0  0  0  0  0  0  0  0  0  0
    9.0689   -1.0249   21.4802 N   0  0  0  0  0  0  0  0  0  0  0  0
    7.9670   -0.2784   21.6877 N   0  0  0  0  0  0  0  0  0  0  0  0
    6.6876   -0.7481   21.1663 C   0  0  0  0  0  0  0  0  0  0  0  0
    6.2116    0.0177   19.9537 C   0  0  0  0  0  0  0  0  0  0  0  0
    5.0258    0.7571   19.9708 C   0  0  0  0  0  0  0  0  0  0  0  0
    4.6611    1.4693   18.8261 C   0  0  0  0  0  0  0  0  0  0  0  0
    5.4980    1.4170   17.7084 C   0  0  0  0  0  0  0  0  0  0  0  0
    6.6379    0.7092   17.6709 N   0  0  0  0  0  0  0  0  0  0  0  0
    6.9807    0.0364   18.7759 C   0  0  0  0  0  0  0  0  0  0  0  0
    7.9243   -0.5111   18.7266 H   0  0  0  0  0  0  0  0  0  0  0  0
    5.2409    1.9579   16.7982 H   0  0  0  0  0  0  0  0  0  0  0  0
    3.7623    2.0734   18.7971 H   0  0  0  0  0  0  0  0  0  0  0  0
    4.4082    0.7845   20.8729 H   0  0  0  0  0  0  0  0  0  0  0  0
    6.8497   -1.8040   20.9398 H   0  0  0  0  0  0  0  0  0  0  0  0
    5.9671   -0.6967   21.9847 H   0  0  0  0  0  0  0  0  0  0  0  0
    8.3302    0.9078   22.2169 C   0  0  0  0  0  0  0  0  0  0  0  0
    7.4480    1.8385   22.9654 C   0  0  0  0  0  0  0  0  0  0  0  0
    7.2948    1.1950   24.3164 C   0  0  0  0  0  0  0  0  0  0  0  0
    8.2840    1.3276   25.3055 C   0  0  0  0  0  0  0  0  0  0  0  0
    8.1556    0.6005   26.4893 C   0  0  0  0  0  0  0  0  0  0  0  0
    7.0483   -0.2406   26.6279 C   0  0  0  0  0  0  0  0  0  0  0  0
    6.1336   -0.3200   25.5768 C   0  0  0  0  0  0  0  0  0  0  0  0
    6.2516    0.3713   24.4317 N   0  0  0  0  0  0  0  0  0  0  0  0
    5.2651   -0.9655   25.6479 H   0  0  0  0  0  0  0  0  0  0  0  0
    6.8909   -0.8370   27.5187 H   0  0  0  0  0  0  0  0  0  0  0  0
    8.9016    0.6755   27.2789 H   0  0  0  0  0  0  0  0  0  0  0  0
    9.1559    1.9339   25.0853 H   0  0  0  0  0  0  0  0  0  0  0  0
    6.4813    1.9594   22.4770 H   0  0  0  0  0  0  0  0  0  0  0  0
    7.9566    2.8010   23.0321 H   0  0  0  0  0  0  0  0  0  0  0  0
    9.6392    0.9696   22.3439 N   0  0  0  0  0  0  0  0  0  0  0  0
   11.7439   -1.8108   21.1377 C   0  0  0  0  0  0  0  0  0  0  0  0
   13.0233   -2.0100   20.6591 C   0  0  0  0  0  0  0  0  0  0  0  0
   14.0263   -1.1165   21.0163 C   0  0  0  0  0  0  0  0  0  0  0  0
   15.1100   -1.2117   20.2290 F   0  0  0  0  0  0  0  0  0  0  0  0
   13.2709   -2.7789   19.9377 H   0  0  0  0  0  0  0  0  0  0  0  0
   10.9073   -2.4522   20.8882 H   0  0  0  0  0  0  0  0  0  0  0  0
   12.2351    1.0233   22.9300 H   0  0  0  0  0  0  0  0  0  0  0  0
   14.4600    1.9273   22.4903 H   0  0  0  0  0  0  0  0  0  0  0  0
   14.9937    0.6499   23.5429 H   0  0  0  0  0  0  0  0  0  0  0  0
   15.7655    0.9234   21.9274 H   0  0  0  0  0  0  0  0  0  0  0  0
  1  2  1  0
  2  3  2  0
  3  4  1  0
  4  5  1  0
  5  6  2  0
  6  7  1  0
  7  8  1  0
  8  9  1  0
  9 10  2  0
 10 11  1  0
 11 12  2  0
 12 13  1  0
 13 14  2  0
 14 15  1  0
 12 16  1  0
 11 17  1  0
 10 18  1  0
  8 19  1  0
  8 20  1  0
  7 21  1  0
 21 22  1  0
 22 23  1  0
 23 24  2  0
 24 25  1  0
 25 26  2  0
 26 27  1  0
 27 28  2  0
 27 29  1  0
 26 30  1  0
 25 31  1  0
 24 32  1  0
 22 33  1  0
 22 34  1  0
 21 35  2  0
  4 36  2  0
 36 37  1  0
 37 38  2  0
 38 39  1  0
 37 40  1  0
 36 41  1  0
  3 42  1  0
  1 43  1  0
  1 44  1  0
  1 45  1  0
 38  2  1  0
 35  5  1  0
 14  9  1  0
 28 23  1  0
M  END
>  <cnnaffinity>  (1) 
-6.62897

>  <filename>  (1) 
Cc1cc(-c2nc(Cc3ccccn3)n(Cc3cccnc3)n2)ccc1F

$$$$
