
     RDKit          3D

 48 51  0  0  0  0  0  0  0  0999 V2000
   11.8826    2.0126   22.5527 C   0  0  0  0  0  0  0  0  0  0  0  0
   10.5919    1.9996   23.3439 C   0  0  0  0  0  0  0  0  0  0  0  0
   10.6349    1.9360   24.7441 C   0  0  0  0  0  0  0  0  0  0  0  0
    9.4613    1.8917   25.5023 C   0  0  0  0  0  0  0  0  0  0  0  0
    8.2225    1.9264   24.8618 C   0  0  0  0  0  0  0  0  0  0  0  0
    8.1259    1.9752   23.4620 C   0  0  0  0  0  0  0  0  0  0  0  0
    6.7640    1.8949   22.8035 C   0  0  0  0  0  0  0  0  0  0  0  0
    6.0085    2.4254   23.3968 H   0  0  0  0  0  0  0  0  0  0  0  0
    6.4634    0.8382   22.7433 H   0  0  0  0  0  0  0  0  0  0  0  0
    6.7755    2.3047   21.7863 H   0  0  0  0  0  0  0  0  0  0  0  0
    9.3285    1.9589   22.7174 C   0  0  0  0  0  0  0  0  0  0  0  0
    9.2659    1.8008   21.3332 O   0  0  0  0  0  0  0  0  0  0  0  0
    9.5909    0.4729   20.8948 C   0  0  0  0  0  0  0  0  0  0  0  0
    8.6379   -0.5828   21.3562 C   0  0  0  0  0  0  0  0  0  0  0  0
    8.8476   -1.4515   22.3332 N   0  0  0  0  0  0  0  0  0  0  0  0
    7.6185   -1.9865   22.5359 C   0  0  0  0  0  0  0  0  0  0  0  0
    7.3374   -2.9218   23.6614 C   0  0  0  0  0  0  0  0  0  0  0  0
    6.5047   -2.3254   24.8275 C   0  0  0  0  0  0  0  0  0  0  0  0
    5.8471   -3.5708   25.4483 C   0  0  0  0  0  0  0  0  0  0  0  0
    6.0362   -4.6440   24.5331 O   0  0  0  0  0  0  0  0  0  0  0  0
    6.4975   -4.1501   23.2911 C   0  0  0  0  0  0  0  0  0  0  0  0
    7.0775   -4.9508   22.8184 H   0  0  0  0  0  0  0  0  0  0  0  0
    5.6611   -3.8781   22.6234 H   0  0  0  0  0  0  0  0  0  0  0  0
    4.7741   -3.4132   25.6360 H   0  0  0  0  0  0  0  0  0  0  0  0
    6.3113   -3.8537   26.4002 H   0  0  0  0  0  0  0  0  0  0  0  0
    7.1131   -1.7557   25.5419 H   0  0  0  0  0  0  0  0  0  0  0  0
    5.7336   -1.6485   24.4376 H   0  0  0  0  0  0  0  0  0  0  0  0
    8.3073   -3.2599   24.0400 H   0  0  0  0  0  0  0  0  0  0  0  0
    6.6798   -1.5422   21.7189 N   0  0  0  0  0  0  0  0  0  0  0  0
    7.3450   -0.6613   20.9291 N   0  0  0  0  0  0  0  0  0  0  0  0
    6.6521   -0.0277   19.8594 C   0  0  0  0  0  0  0  0  0  0  0  0
    5.4291    0.6072   20.1026 C   0  0  0  0  0  0  0  0  0  0  0  0
    4.8245    1.3042   19.0509 C   0  0  0  0  0  0  0  0  0  0  0  0
    5.4310    1.2949   17.7895 C   0  0  0  0  0  0  0  0  0  0  0  0
    6.5602    0.6197   17.5308 N   0  0  0  0  0  0  0  0  0  0  0  0
    7.1464   -0.0333   18.5439 C   0  0  0  0  0  0  0  0  0  0  0  0
    8.0435   -0.5986   18.2960 H   0  0  0  0  0  0  0  0  0  0  0  0
    4.9889    1.8366   16.9553 H   0  0  0  0  0  0  0  0  0  0  0  0
    3.9035    1.8570   19.1980 H   0  0  0  0  0  0  0  0  0  0  0  0
    4.9848    0.5790   21.0992 H   0  0  0  0  0  0  0  0  0  0  0  0
    9.6095    0.5238   19.8094 H   0  0  0  0  0  0  0  0  0  0  0  0
   10.5863    0.1789   21.2388 H   0  0  0  0  0  0  0  0  0  0  0  0
    7.3008    1.8847   25.4461 H   0  0  0  0  0  0  0  0  0  0  0  0
    9.5093    1.7880   26.5813 H   0  0  0  0  0  0  0  0  0  0  0  0
   11.6094    1.8880   25.2269 H   0  0  0  0  0  0  0  0  0  0  0  0
   12.2564    0.9863   22.4162 H   0  0  0  0  0  0  0  0  0  0  0  0
   11.7449    2.4577   21.5599 H   0  0  0  0  0  0  0  0  0  0  0  0
   12.6588    2.5669   23.0935 H   0  0  0  0  0  0  0  0  0  0  0  0
  1  2  1  0
  2  3  2  0
  3  4  1  0
  4  5  2  0
  5  6  1  0
  6  7  1  0
  7  8  1  0
  7  9  1  0
  7 10  1  0
  6 11  2  0
 11 12  1  0
 12 13  1  0
 13 14  1  0
 14 15  2  0
 15 16  1  0
 16 17  1  0
 17 18  1  0
 18 19  1  0
 19 20  1  0
 20 21  1  0
 21 22  1  0
 21 23  1  0
 19 24  1  0
 19 25  1  0
 18 26  1  0
 18 27  1  0
 17 28  1  0
 16 29  2  0
 29 30  1  0
 30 31  1  0
 31 32  2  0
 32 33  1  0
 33 34  2  0
 34 35  1  0
 35 36  2  0
 36 37  1  0
 34 38  1  0
 33 39  1  0
 32 40  1  0
 13 41  1  0
 13 42  1  0
  5 43  1  0
  4 44  1  0
  3 45  1  0
  1 46  1  0
  1 47  1  0
  1 48  1  0
 11  2  1  0
 30 14  1  0
 36 31  1  0
 21 17  1  0
M  END
>  <cnnaffinity>  (1) 
-5.96714

>  <filename>  (1) 
Cc1cccc(C)c1OCc1nc(C2CCOC2)nn1-c1cccnc1

$$$$
