
     RDKit          3D

 43 46  0  0  0  0  0  0  0  0999 V2000
    5.1862   -0.8843   26.0652 C   0  0  0  0  0  0  0  0  0  0  0  0
    6.2912    0.0175   25.6375 C   0  0  0  0  0  0  0  0  0  0  0  0
    7.4576    0.3892   26.2260 C   0  0  0  0  0  0  0  0  0  0  0  0
    8.1194    1.2601   25.2981 C   0  0  0  0  0  0  0  0  0  0  0  0
    7.3073    1.3504   24.2159 C   0  0  0  0  0  0  0  0  0  0  0  0
    7.5358    1.9120   22.8511 C   0  0  0  0  0  0  0  0  0  0  0  0
    8.4952    0.9847   22.1881 C   0  0  0  0  0  0  0  0  0  0  0  0
    9.8012    1.0599   22.3460 N   0  0  0  0  0  0  0  0  0  0  0  0
   10.2337   -0.1333   21.8759 C   0  0  0  0  0  0  0  0  0  0  0  0
   11.6400   -0.5569   21.7927 C   0  0  0  0  0  0  0  0  0  0  0  0
   12.7295    0.2033   22.2567 C   0  0  0  0  0  0  0  0  0  0  0  0
   14.0320   -0.2010   21.9606 C   0  0  0  0  0  0  0  0  0  0  0  0
   14.2419   -1.3063   21.1256 C   0  0  0  0  0  0  0  0  0  0  0  0
   13.1652   -2.0488   20.6618 C   0  0  0  0  0  0  0  0  0  0  0  0
   11.8854   -1.7400   21.0868 C   0  0  0  0  0  0  0  0  0  0  0  0
   11.0238   -2.3456   20.8260 H   0  0  0  0  0  0  0  0  0  0  0  0
   13.3328   -2.8458   19.9432 H   0  0  0  0  0  0  0  0  0  0  0  0
   15.2091   -1.5778   20.7541 H   0  0  0  0  0  0  0  0  0  0  0  0
   14.8617    0.4022   22.3150 H   0  0  0  0  0  0  0  0  0  0  0  0
   12.5688    1.1444   22.7714 H   0  0  0  0  0  0  0  0  0  0  0  0
    9.2613   -0.9197   21.4288 N   0  0  0  0  0  0  0  0  0  0  0  0
    8.1479   -0.1965   21.6379 N   0  0  0  0  0  0  0  0  0  0  0  0
    6.8574   -0.7019   21.1759 C   0  0  0  0  0  0  0  0  0  0  0  0
    6.3122    0.0590   19.9885 C   0  0  0  0  0  0  0  0  0  0  0  0
    5.1043    0.7600   20.0355 C   0  0  0  0  0  0  0  0  0  0  0  0
    4.6745    1.4398   18.8920 C   0  0  0  0  0  0  0  0  0  0  0  0
    5.4754    1.4008   17.7475 C   0  0  0  0  0  0  0  0  0  0  0  0
    6.6379    0.7338   17.6823 N   0  0  0  0  0  0  0  0  0  0  0  0
    7.0384    0.0913   18.7853 C   0  0  0  0  0  0  0  0  0  0  0  0
    7.9858   -0.4415   18.7109 H   0  0  0  0  0  0  0  0  0  0  0  0
    5.1702    1.9176   16.8389 H   0  0  0  0  0  0  0  0  0  0  0  0
    3.7463    2.0001   18.8766 H   0  0  0  0  0  0  0  0  0  0  0  0
    4.5094    0.7775   20.9519 H   0  0  0  0  0  0  0  0  0  0  0  0
    7.0291   -1.7547   20.9207 H   0  0  0  0  0  0  0  0  0  0  0  0
    6.1621   -0.6598   22.0190 H   0  0  0  0  0  0  0  0  0  0  0  0
    6.6030    1.9906   22.2899 H   0  0  0  0  0  0  0  0  0  0  0  0
    8.0148    2.8893   22.9157 H   0  0  0  0  0  0  0  0  0  0  0  0
    6.2013    0.5962   24.4028 O   0  0  0  0  0  0  0  0  0  0  0  0
    9.1119    1.6838   25.3396 H   0  0  0  0  0  0  0  0  0  0  0  0
    7.8201    0.0483   27.1872 H   0  0  0  0  0  0  0  0  0  0  0  0
    5.4669   -1.9365   25.9387 H   0  0  0  0  0  0  0  0  0  0  0  0
    4.9760   -0.7392   27.1287 H   0  0  0  0  0  0  0  0  0  0  0  0
    4.2782   -0.7047   25.4884 H   0  0  0  0  0  0  0  0  0  0  0  0
  1  2  1  0
  2  3  2  0
  3  4  1  0
  4  5  2  0
  5  6  1  0
  6  7  1  0
  7  8  2  0
  8  9  1  0
  9 10  1  0
 10 11  2  0
 11 12  1  0
 12 13  2  0
 13 14  1  0
 14 15  2  0
 15 16  1  0
 14 17  1  0
 13 18  1  0
 12 19  1  0
 11 20  1  0
  9 21  2  0
 21 22  1  0
 22 23  1  0
 23 24  1  0
 24 25  2  0
 25 26  1  0
 26 27  2  0
 27 28  1  0
 28 29  2  0
 29 30  1  0
 27 31  1  0
 26 32  1  0
 25 33  1  0
 23 34  1  0
 23 35  1  0
  6 36  1  0
  6 37  1  0
  5 38  1  0
  4 39  1  0
  3 40  1  0
  1 41  1  0
  1 42  1  0
  1 43  1  0
 38  2  1  0
 22  7  1  0
 29 24  1  0
 15 10  1  0
M  END
>  <cnnaffinity>  (1) 
-6.36117

>  <filename>  (1) 
Cc1ccc(Cc2nc(-c3ccccc3)nn2Cc2cccnc2)o1

$$$$
