
     RDKit          3D

 46 49  0  0  0  0  0  0  0  0999 V2000
    7.7423    2.4408   21.8815 C   0  0  0  0  0  0  0  0  0  0  0  0
    9.1913    2.0617   22.0053 C   0  0  0  0  0  0  0  0  0  0  0  0
   10.0979    2.6003   22.8900 C   0  0  0  0  0  0  0  0  0  0  0  0
   11.3254    1.9675   22.5842 C   0  0  0  0  0  0  0  0  0  0  0  0
   12.6494    2.1209   23.3007 C   0  0  0  0  0  0  0  0  0  0  0  0
   13.6058    1.3358   22.8016 F   0  0  0  0  0  0  0  0  0  0  0  0
   13.0999    3.3905   23.2619 F   0  0  0  0  0  0  0  0  0  0  0  0
   12.5114    1.8023   24.6048 F   0  0  0  0  0  0  0  0  0  0  0  0
   11.1647    1.0706   21.6236 N   0  0  0  0  0  0  0  0  0  0  0  0
    9.8768    1.1290   21.2716 N   0  0  0  0  0  0  0  0  0  0  0  0
    9.3636    0.0720   20.4077 C   0  0  0  0  0  0  0  0  0  0  0  0
    8.3545   -0.7785   21.1045 C   0  0  0  0  0  0  0  0  0  0  0  0
    8.6110   -1.5275   22.1517 N   0  0  0  0  0  0  0  0  0  0  0  0
    7.4074   -2.1002   22.4328 C   0  0  0  0  0  0  0  0  0  0  0  0
    7.2396   -3.0723   23.5842 C   0  0  0  0  0  0  0  0  0  0  0  0
    6.3650   -2.5760   24.7524 C   0  0  0  0  0  0  0  0  0  0  0  0
    6.3521   -3.3274   25.5513 H   0  0  0  0  0  0  0  0  0  0  0  0
    6.7567   -1.6501   25.1849 H   0  0  0  0  0  0  0  0  0  0  0  0
    5.3301   -2.4003   24.4459 H   0  0  0  0  0  0  0  0  0  0  0  0
    6.7594   -4.4209   23.0562 C   0  0  0  0  0  0  0  0  0  0  0  0
    7.0944   -5.7211   23.7175 C   0  0  0  0  0  0  0  0  0  0  0  0
    7.7591   -5.3341   22.4204 C   0  0  0  0  0  0  0  0  0  0  0  0
    8.8020   -5.0269   22.4746 H   0  0  0  0  0  0  0  0  0  0  0  0
    7.5066   -5.8645   21.5042 H   0  0  0  0  0  0  0  0  0  0  0  0
    7.6879   -5.7284   24.6304 H   0  0  0  0  0  0  0  0  0  0  0  0
    6.3358   -6.4989   23.6768 H   0  0  0  0  0  0  0  0  0  0  0  0
    5.7704   -4.3779   22.6050 H   0  0  0  0  0  0  0  0  0  0  0  0
    8.2578   -3.1889   23.9707 H   0  0  0  0  0  0  0  0  0  0  0  0
    6.4283   -1.7428   21.6160 N   0  0  0  0  0  0  0  0  0  0  0  0
    7.0475   -0.9127   20.7351 N   0  0  0  0  0  0  0  0  0  0  0  0
    6.3371   -0.2372   19.7023 C   0  0  0  0  0  0  0  0  0  0  0  0
    5.1793    0.4998   19.9787 C   0  0  0  0  0  0  0  0  0  0  0  0
    4.6855    1.3415   18.9750 C   0  0  0  0  0  0  0  0  0  0  0  0
    5.3145    1.3665   17.7259 C   0  0  0  0  0  0  0  0  0  0  0  0
    6.3553    0.5733   17.4212 N   0  0  0  0  0  0  0  0  0  0  0  0
    6.8348   -0.2186   18.3850 C   0  0  0  0  0  0  0  0  0  0  0  0
    7.6707   -0.8565   18.1007 H   0  0  0  0  0  0  0  0  0  0  0  0
    4.9691    2.0377   16.9419 H   0  0  0  0  0  0  0  0  0  0  0  0
    3.8323    1.9885   19.1549 H   0  0  0  0  0  0  0  0  0  0  0  0
    4.7037    0.4154   20.9557 H   0  0  0  0  0  0  0  0  0  0  0  0
    8.9918    0.5120   19.4854 H   0  0  0  0  0  0  0  0  0  0  0  0
   10.2169   -0.5667   20.1700 H   0  0  0  0  0  0  0  0  0  0  0  0
    9.8649    3.3273   23.6600 H   0  0  0  0  0  0  0  0  0  0  0  0
    7.3613    2.3888   20.8550 H   0  0  0  0  0  0  0  0  0  0  0  0
    7.6287    3.4689   22.2451 H   0  0  0  0  0  0  0  0  0  0  0  0
    7.1153    1.7980   22.5110 H   0  0  0  0  0  0  0  0  0  0  0  0
  1  2  1  0
  2  3  2  0
  3  4  1  0
  4  5  1  0
  5  6  1  0
  5  7  1  0
  5  8  1  0
  4  9  2  0
  9 10  1  0
 10 11  1  0
 11 12  1  0
 12 13  2  0
 13 14  1  0
 14 15  1  0
 15 16  1  0
 16 17  1  0
 16 18  1  0
 16 19  1  0
 15 20  1  0
 20 21  1  0
 21 22  1  0
 22 23  1  0
 22 24  1  0
 21 25  1  0
 21 26  1  0
 20 27  1  0
 15 28  1  0
 14 29  2  0
 29 30  1  0
 30 31  1  0
 31 32  2  0
 32 33  1  0
 33 34  2  0
 34 35  1  0
 35 36  2  0
 36 37  1  0
 34 38  1  0
 33 39  1  0
 32 40  1  0
 11 41  1  0
 11 42  1  0
  3 43  1  0
  1 44  1  0
  1 45  1  0
  1 46  1  0
 10  2  1  0
 30 12  1  0
 36 31  1  0
 22 20  1  0
M  END
>  <cnnaffinity>  (1) 
-6.84754

>  <filename>  (1) 
Cc1cc(C(F)(F)F)nn1Cc1nc(C(C)C2CC2)nn1-c1cccnc1

$$$$
