
     RDKit          3D

 47 50  0  0  0  0  0  0  0  0999 V2000
    6.2556    3.8828   28.7833 C   0  0  0  0  0  0  0  0  0  0  0  0
    6.6697    3.2809   27.4681 C   0  0  0  0  0  0  0  0  0  0  0  0
    7.8926    3.5969   26.8507 C   0  0  0  0  0  0  0  0  0  0  0  0
    8.2820    3.0167   25.6437 C   0  0  0  0  0  0  0  0  0  0  0  0
    7.4286    2.0988   24.9997 C   0  0  0  0  0  0  0  0  0  0  0  0
    7.8136    1.4940   23.7094 C   0  0  0  0  0  0  0  0  0  0  0  0
    7.1325    0.5173   23.1269 N   0  0  0  0  0  0  0  0  0  0  0  0
    7.8644    0.2489   22.0270 N   0  0  0  0  0  0  0  0  0  0  0  0
    7.3841   -0.6905   21.0221 C   0  0  0  0  0  0  0  0  0  0  0  0
    6.6514   -0.0072   19.8810 C   0  0  0  0  0  0  0  0  0  0  0  0
    5.4397    0.6489   20.1352 C   0  0  0  0  0  0  0  0  0  0  0  0
    4.7979    1.3079   19.0843 C   0  0  0  0  0  0  0  0  0  0  0  0
    5.3931    1.2977   17.8203 C   0  0  0  0  0  0  0  0  0  0  0  0
    6.5538    0.6762   17.5582 N   0  0  0  0  0  0  0  0  0  0  0  0
    7.1597    0.0522   18.5756 C   0  0  0  0  0  0  0  0  0  0  0  0
    8.1072   -0.4328   18.3270 H   0  0  0  0  0  0  0  0  0  0  0  0
    4.9246    1.8088   16.9794 H   0  0  0  0  0  0  0  0  0  0  0  0
    3.8665    1.8467   19.2331 H   0  0  0  0  0  0  0  0  0  0  0  0
    5.0286    0.6456   21.1458 H   0  0  0  0  0  0  0  0  0  0  0  0
    8.2354   -1.2707   20.6455 H   0  0  0  0  0  0  0  0  0  0  0  0
    6.7245   -1.3759   21.5619 H   0  0  0  0  0  0  0  0  0  0  0  0
    8.9369    1.0655   21.9918 C   0  0  0  0  0  0  0  0  0  0  0  0
   10.0557    0.9060   21.0105 C   0  0  0  0  0  0  0  0  0  0  0  0
   11.0668   -0.2220   21.4008 C   0  0  0  0  0  0  0  0  0  0  0  0
   11.7654    0.0888   22.6890 C   0  0  0  0  0  0  0  0  0  0  0  0
   12.7917    0.9423   22.6434 N   0  0  0  0  0  0  0  0  0  0  0  0
   13.3641    1.2479   23.8033 C   0  0  0  0  0  0  0  0  0  0  0  0
   12.9548    0.6759   25.0021 C   0  0  0  0  0  0  0  0  0  0  0  0
   11.8359   -0.1320   24.9399 C   0  0  0  0  0  0  0  0  0  0  0  0
   11.2442   -0.4510   23.7955 N   0  0  0  0  0  0  0  0  0  0  0  0
   11.4051   -0.5657   25.8399 H   0  0  0  0  0  0  0  0  0  0  0  0
   13.4807    0.7563   25.9315 H   0  0  0  0  0  0  0  0  0  0  0  0
   14.1572    1.9880   23.7401 H   0  0  0  0  0  0  0  0  0  0  0  0
   10.5561   -1.1833   21.5417 H   0  0  0  0  0  0  0  0  0  0  0  0
   11.8264   -0.3497   20.6321 H   0  0  0  0  0  0  0  0  0  0  0  0
   10.5637    1.8783   20.9480 H   0  0  0  0  0  0  0  0  0  0  0  0
    9.6208    0.6972   20.0277 H   0  0  0  0  0  0  0  0  0  0  0  0
    8.9226    1.8791   23.0245 N   0  0  0  0  0  0  0  0  0  0  0  0
    6.1968    1.7643   25.5990 C   0  0  0  0  0  0  0  0  0  0  0  0
    5.8488    2.3542   26.8016 C   0  0  0  0  0  0  0  0  0  0  0  0
    4.6631    2.0212   27.3502 F   0  0  0  0  0  0  0  0  0  0  0  0
    5.5140    1.0534   25.1370 H   0  0  0  0  0  0  0  0  0  0  0  0
    9.2385    3.2779   25.1900 H   0  0  0  0  0  0  0  0  0  0  0  0
    8.5463    4.3265   27.3255 H   0  0  0  0  0  0  0  0  0  0  0  0
    5.2165    4.2227   28.7532 H   0  0  0  0  0  0  0  0  0  0  0  0
    6.8835    4.7394   29.0432 H   0  0  0  0  0  0  0  0  0  0  0  0
    6.3297    3.1517   29.5951 H   0  0  0  0  0  0  0  0  0  0  0  0
  1  2  1  0
  2  3  2  0
  3  4  1  0
  4  5  2  0
  5  6  1  0
  6  7  2  0
  7  8  1  0
  8  9  1  0
  9 10  1  0
 10 11  2  0
 11 12  1  0
 12 13  2  0
 13 14  1  0
 14 15  2  0
 15 16  1  0
 13 17  1  0
 12 18  1  0
 11 19  1  0
  9 20  1  0
  9 21  1  0
  8 22  1  0
 22 23  1  0
 23 24  1  0
 24 25  1  0
 25 26  2  0
 26 27  1  0
 27 28  2  0
 28 29  1  0
 29 30  2  0
 29 31  1  0
 28 32  1  0
 27 33  1  0
 24 34  1  0
 24 35  1  0
 23 36  1  0
 23 37  1  0
 22 38  2  0
  5 39  1  0
 39 40  2  0
 40 41  1  0
 39 42  1  0
  4 43  1  0
  3 44  1  0
  1 45  1  0
  1 46  1  0
  1 47  1  0
 40  2  1  0
 38  6  1  0
 15 10  1  0
 30 25  1  0
M  END
>  <cnnaffinity>  (1) 
-5.91489

>  <filename>  (1) 
Cc1ccc(-c2nc(CCc3ncccn3)n(Cc3cccnc3)n2)cc1F

$$$$
