
     RDKit          3D

 46 49  0  0  0  0  0  0  0  0999 V2000
   14.5766    0.9021   22.7365 C   0  0  0  0  0  0  0  0  0  0  0  0
   13.5680   -0.0550   22.1840 C   0  0  0  0  0  0  0  0  0  0  0  0
   13.9079   -1.1475   21.3775 C   0  0  0  0  0  0  0  0  0  0  0  0
   12.9112   -1.9433   20.8260 C   0  0  0  0  0  0  0  0  0  0  0  0
   11.5734   -1.6878   21.0969 C   0  0  0  0  0  0  0  0  0  0  0  0
   11.2122   -0.5688   21.8517 C   0  0  0  0  0  0  0  0  0  0  0  0
    9.7927   -0.1926   21.9191 C   0  0  0  0  0  0  0  0  0  0  0  0
    8.8162   -1.0065   21.5450 N   0  0  0  0  0  0  0  0  0  0  0  0
    7.7067   -0.2532   21.6871 N   0  0  0  0  0  0  0  0  0  0  0  0
    6.4227   -0.7275   21.1768 C   0  0  0  0  0  0  0  0  0  0  0  0
    5.9714    0.0157   19.9384 C   0  0  0  0  0  0  0  0  0  0  0  0
    4.8468    0.8456   19.9394 C   0  0  0  0  0  0  0  0  0  0  0  0
    4.5827    1.6184   18.8050 C   0  0  0  0  0  0  0  0  0  0  0  0
    5.4423    1.5164   17.7075 C   0  0  0  0  0  0  0  0  0  0  0  0
    6.5001    0.6927   17.6712 N   0  0  0  0  0  0  0  0  0  0  0  0
    6.7516   -0.0314   18.7691 C   0  0  0  0  0  0  0  0  0  0  0  0
    7.6295   -0.6774   18.7239 H   0  0  0  0  0  0  0  0  0  0  0  0
    5.2800    2.1271   16.8208 H   0  0  0  0  0  0  0  0  0  0  0  0
    3.7516    2.3110   18.7766 H   0  0  0  0  0  0  0  0  0  0  0  0
    4.2059    0.9101   20.8244 H   0  0  0  0  0  0  0  0  0  0  0  0
    6.5576   -1.7997   21.0013 H   0  0  0  0  0  0  0  0  0  0  0  0
    5.7026   -0.5989   21.9849 H   0  0  0  0  0  0  0  0  0  0  0  0
    8.0604    0.9710   22.1254 C   0  0  0  0  0  0  0  0  0  0  0  0
    7.1191    2.0014   22.6494 C   0  0  0  0  0  0  0  0  0  0  0  0
    6.7155    1.6055   23.9897 N   0  0  0  0  0  0  0  0  0  0  0  0
    7.5364    1.4754   25.0586 C   0  0  0  0  0  0  0  0  0  0  0  0
    6.8319    0.7860   26.0166 C   0  0  0  0  0  0  0  0  0  0  0  0
    5.5811    0.5144   25.4196 C   0  0  0  0  0  0  0  0  0  0  0  0
    4.4142   -0.2104   26.0066 C   0  0  0  0  0  0  0  0  0  0  0  0
    3.9959    0.3565   26.8453 H   0  0  0  0  0  0  0  0  0  0  0  0
    4.7114   -1.1891   26.3980 H   0  0  0  0  0  0  0  0  0  0  0  0
    3.6458   -0.3538   25.2426 H   0  0  0  0  0  0  0  0  0  0  0  0
    5.5390    0.9953   24.1814 N   0  0  0  0  0  0  0  0  0  0  0  0
    7.1484    0.4879   27.0044 H   0  0  0  0  0  0  0  0  0  0  0  0
    8.5638    1.8205   25.0042 H   0  0  0  0  0  0  0  0  0  0  0  0
    6.2190    2.1059   22.0415 H   0  0  0  0  0  0  0  0  0  0  0  0
    7.6395    2.9602   22.6935 H   0  0  0  0  0  0  0  0  0  0  0  0
    9.3652    1.0395   22.2948 N   0  0  0  0  0  0  0  0  0  0  0  0
   12.2202    0.2125   22.4231 C   0  0  0  0  0  0  0  0  0  0  0  0
   11.9589    1.0726   23.0322 H   0  0  0  0  0  0  0  0  0  0  0  0
   10.7599   -2.2903   20.7037 H   0  0  0  0  0  0  0  0  0  0  0  0
   13.2129   -2.7292   20.1463 H   0  0  0  0  0  0  0  0  0  0  0  0
   14.9268   -1.3911   21.1211 H   0  0  0  0  0  0  0  0  0  0  0  0
   14.1980    1.9265   22.6782 H   0  0  0  0  0  0  0  0  0  0  0  0
   15.5004    0.8767   22.1627 H   0  0  0  0  0  0  0  0  0  0  0  0
   14.7757    0.6748   23.7855 H   0  0  0  0  0  0  0  0  0  0  0  0
  1  2  1  0
  2  3  2  0
  3  4  1  0
  4  5  2  0
  5  6  1  0
  6  7  1  0
  7  8  2  0
  8  9  1  0
  9 10  1  0
 10 11  1  0
 11 12  2  0
 12 13  1  0
 13 14  2  0
 14 15  1  0
 15 16  2  0
 16 17  1  0
 14 18  1  0
 13 19  1  0
 12 20  1  0
 10 21  1  0
 10 22  1  0
  9 23  1  0
 23 24  1  0
 24 25  1  0
 25 26  1  0
 26 27  2  0
 27 28  1  0
 28 29  1  0
 29 30  1  0
 29 31  1  0
 29 32  1  0
 28 33  2  0
 27 34  1  0
 26 35  1  0
 24 36  1  0
 24 37  1  0
 23 38  2  0
  6 39  2  0
 39 40  1  0
  5 41  1  0
  4 42  1  0
  3 43  1  0
  1 44  1  0
  1 45  1  0
  1 46  1  0
 39  2  1  0
 38  7  1  0
 16 11  1  0
 33 25  1  0
M  END
>  <cnnaffinity>  (1) 
-6.2682

>  <filename>  (1) 
Cc1cccc(-c2nc(Cn3ccc(C)n3)n(Cc3cccnc3)n2)c1

$$$$
