
     RDKit          3D

 47 50  0  0  0  0  0  0  0  0999 V2000
   12.2685   -1.2749   21.7411 C   0  0  0  0  0  0  0  0  0  0  0  0
   11.8033    0.1122   22.0483 C   0  0  0  0  0  0  0  0  0  0  0  0
   10.6849    0.7798   21.5806 C   0  0  0  0  0  0  0  0  0  0  0  0
    9.6231    0.2092   20.6682 C   0  0  0  0  0  0  0  0  0  0  0  0
    8.5868   -0.6407   21.3384 C   0  0  0  0  0  0  0  0  0  0  0  0
    8.7872   -1.4641   22.3491 N   0  0  0  0  0  0  0  0  0  0  0  0
    7.5658   -2.0149   22.5514 C   0  0  0  0  0  0  0  0  0  0  0  0
    7.3284   -3.0270   23.6294 C   0  0  0  0  0  0  0  0  0  0  0  0
    6.9924   -4.4205   23.0342 C   0  0  0  0  0  0  0  0  0  0  0  0
    6.4598   -5.3806   24.0664 C   0  0  0  0  0  0  0  0  0  0  0  0
    6.0926   -5.0242   25.3003 C   0  0  0  0  0  0  0  0  0  0  0  0
    6.1069   -3.5949   25.7914 C   0  0  0  0  0  0  0  0  0  0  0  0
    6.2481   -2.5809   24.6430 C   0  0  0  0  0  0  0  0  0  0  0  0
    5.2886   -2.5010   24.1190 H   0  0  0  0  0  0  0  0  0  0  0  0
    6.4832   -1.5855   25.0410 H   0  0  0  0  0  0  0  0  0  0  0  0
    5.1829   -3.3907   26.3463 H   0  0  0  0  0  0  0  0  0  0  0  0
    6.9178   -3.4711   26.5250 H   0  0  0  0  0  0  0  0  0  0  0  0
    5.7711   -5.7891   26.0080 H   0  0  0  0  0  0  0  0  0  0  0  0
    6.3437   -6.4127   23.7437 H   0  0  0  0  0  0  0  0  0  0  0  0
    7.8882   -4.8501   22.5640 H   0  0  0  0  0  0  0  0  0  0  0  0
    6.2561   -4.3148   22.2245 H   0  0  0  0  0  0  0  0  0  0  0  0
    8.2840   -3.1085   24.1601 H   0  0  0  0  0  0  0  0  0  0  0  0
    6.6289   -1.6088   21.7124 N   0  0  0  0  0  0  0  0  0  0  0  0
    7.2972   -0.7525   20.8997 N   0  0  0  0  0  0  0  0  0  0  0  0
    6.6093   -0.0656   19.8639 C   0  0  0  0  0  0  0  0  0  0  0  0
    5.4108    0.6018   20.1370 C   0  0  0  0  0  0  0  0  0  0  0  0
    4.8082    1.3059   19.0908 C   0  0  0  0  0  0  0  0  0  0  0  0
    5.4003    1.3078   17.8200 C   0  0  0  0  0  0  0  0  0  0  0  0
    6.5349    0.6456   17.5461 N   0  0  0  0  0  0  0  0  0  0  0  0
    7.1147   -0.0190   18.5514 C   0  0  0  0  0  0  0  0  0  0  0  0
    8.0451   -0.5298   18.3158 H   0  0  0  0  0  0  0  0  0  0  0  0
    4.9483    1.8503   16.9915 H   0  0  0  0  0  0  0  0  0  0  0  0
    3.8872    1.8535   19.2494 H   0  0  0  0  0  0  0  0  0  0  0  0
    4.9869    0.5704   21.1432 H   0  0  0  0  0  0  0  0  0  0  0  0
    9.1238    1.0050   20.1097 H   0  0  0  0  0  0  0  0  0  0  0  0
   10.0761   -0.4640   19.9297 H   0  0  0  0  0  0  0  0  0  0  0  0
   10.6915    2.0034   22.2838 C   0  0  0  0  0  0  0  0  0  0  0  0
   11.7098    2.0851   23.1259 N   0  0  0  0  0  0  0  0  0  0  0  0
   12.3899    0.9349   22.9678 N   0  0  0  0  0  0  0  0  0  0  0  0
   13.4731    0.6703   23.9013 C   0  0  0  0  0  0  0  0  0  0  0  0
   13.1580   -0.0346   24.6792 H   0  0  0  0  0  0  0  0  0  0  0  0
   14.3747    0.3118   23.3885 H   0  0  0  0  0  0  0  0  0  0  0  0
   13.6788    1.6239   24.3828 H   0  0  0  0  0  0  0  0  0  0  0  0
    9.9461    2.7895   22.2614 H   0  0  0  0  0  0  0  0  0  0  0  0
   12.0832   -1.5468   20.6987 H   0  0  0  0  0  0  0  0  0  0  0  0
   13.3404   -1.3998   21.9192 H   0  0  0  0  0  0  0  0  0  0  0  0
   11.7051   -1.9910   22.3511 H   0  0  0  0  0  0  0  0  0  0  0  0
  1  2  1  0
  2  3  2  0
  3  4  1  0
  4  5  1  0
  5  6  2  0
  6  7  1  0
  7  8  1  0
  8  9  1  0
  9 10  1  0
 10 11  2  0
 11 12  1  0
 12 13  1  0
 13 14  1  0
 13 15  1  0
 12 16  1  0
 12 17  1  0
 11 18  1  0
 10 19  1  0
  9 20  1  0
  9 21  1  0
  8 22  1  0
  7 23  2  0
 23 24  1  0
 24 25  1  0
 25 26  2  0
 26 27  1  0
 27 28  2  0
 28 29  1  0
 29 30  2  0
 30 31  1  0
 28 32  1  0
 27 33  1  0
 26 34  1  0
  4 35  1  0
  4 36  1  0
  3 37  1  0
 37 38  2  0
 38 39  1  0
 39 40  1  0
 40 41  1  0
 40 42  1  0
 40 43  1  0
 37 44  1  0
  1 45  1  0
  1 46  1  0
  1 47  1  0
 39  2  1  0
 24  5  1  0
 30 25  1  0
 13  8  1  0
M  END
>  <cnnaffinity>  (1) 
-6.66775

>  <filename>  (1) 
Cc1c(Cc2nc(C3CC=CCC3)nn2-c2cccnc2)cnn1C

$$$$
