
     RDKit          3D

 46 49  0  0  0  0  0  0  0  0999 V2000
   12.5939    1.4618   23.3074 C   0  0  0  0  0  0  0  0  0  0  0  0
   12.7869    0.2984   22.3674 C   0  0  0  0  0  0  0  0  0  0  0  0
   14.0803   -0.1050   21.9944 C   0  0  0  0  0  0  0  0  0  0  0  0
   14.2745   -1.2007   21.1426 C   0  0  0  0  0  0  0  0  0  0  0  0
   13.1994   -1.9784   20.7578 C   0  0  0  0  0  0  0  0  0  0  0  0
   11.9203   -1.6356   21.1562 C   0  0  0  0  0  0  0  0  0  0  0  0
   11.6917   -0.4277   21.8346 C   0  0  0  0  0  0  0  0  0  0  0  0
   10.2925    0.0415   21.8698 C   0  0  0  0  0  0  0  0  0  0  0  0
    9.3136   -0.7630   21.4734 N   0  0  0  0  0  0  0  0  0  0  0  0
    8.1970   -0.0371   21.6632 N   0  0  0  0  0  0  0  0  0  0  0  0
    6.9040   -0.5806   21.2457 C   0  0  0  0  0  0  0  0  0  0  0  0
    6.3189    0.1248   20.0391 C   0  0  0  0  0  0  0  0  0  0  0  0
    5.0821    0.7803   20.0435 C   0  0  0  0  0  0  0  0  0  0  0  0
    4.6771    1.4470   18.8834 C   0  0  0  0  0  0  0  0  0  0  0  0
    5.5035    1.4040   17.7584 C   0  0  0  0  0  0  0  0  0  0  0  0
    6.6745    0.7480   17.7229 N   0  0  0  0  0  0  0  0  0  0  0  0
    7.0611    0.1382   18.8465 C   0  0  0  0  0  0  0  0  0  0  0  0
    8.0217   -0.3759   18.8052 H   0  0  0  0  0  0  0  0  0  0  0  0
    5.2114    1.9054   16.8382 H   0  0  0  0  0  0  0  0  0  0  0  0
    3.7487    2.0079   18.8439 H   0  0  0  0  0  0  0  0  0  0  0  0
    4.4499    0.7755   20.9351 H   0  0  0  0  0  0  0  0  0  0  0  0
    7.1089   -1.6282   21.0082 H   0  0  0  0  0  0  0  0  0  0  0  0
    6.2115   -0.5791   22.0949 H   0  0  0  0  0  0  0  0  0  0  0  0
    8.5369    1.1725   22.1580 C   0  0  0  0  0  0  0  0  0  0  0  0
    7.5858    2.1961   22.7022 C   0  0  0  0  0  0  0  0  0  0  0  0
    7.8741    2.4508   24.1621 C   0  0  0  0  0  0  0  0  0  0  0  0
    7.5872    1.6563   25.2540 C   0  0  0  0  0  0  0  0  0  0  0  0
    6.5503    0.2749   25.2667 Cl  0  0  0  0  0  0  0  0  0  0  0  0
    8.3500    2.1672   26.3188 C   0  0  0  0  0  0  0  0  0  0  0  0
    9.0673    3.2090   25.9147 N   0  0  0  0  0  0  0  0  0  0  0  0
    8.7724    3.3622   24.6151 N   0  0  0  0  0  0  0  0  0  0  0  0
    9.4187    4.4098   23.8467 C   0  0  0  0  0  0  0  0  0  0  0  0
    9.9756    3.9789   23.0068 H   0  0  0  0  0  0  0  0  0  0  0  0
    8.6772    5.1174   23.4652 H   0  0  0  0  0  0  0  0  0  0  0  0
   10.0981    4.9344   24.5172 H   0  0  0  0  0  0  0  0  0  0  0  0
    8.4095    1.8168   27.3403 H   0  0  0  0  0  0  0  0  0  0  0  0
    7.6660    3.1132   22.1074 H   0  0  0  0  0  0  0  0  0  0  0  0
    6.5593    1.8425   22.5892 H   0  0  0  0  0  0  0  0  0  0  0  0
    9.8525    1.2654   22.2598 N   0  0  0  0  0  0  0  0  0  0  0  0
   11.0648   -2.2462   20.8938 H   0  0  0  0  0  0  0  0  0  0  0  0
   13.3773   -2.8261   20.1076 H   0  0  0  0  0  0  0  0  0  0  0  0
   15.2096   -1.4662   20.6752 H   0  0  0  0  0  0  0  0  0  0  0  0
   14.9276    0.4749   22.3472 H   0  0  0  0  0  0  0  0  0  0  0  0
   13.5268    1.7489   23.8033 H   0  0  0  0  0  0  0  0  0  0  0  0
   12.2098    2.3237   22.7569 H   0  0  0  0  0  0  0  0  0  0  0  0
   11.8501    1.2221   24.0744 H   0  0  0  0  0  0  0  0  0  0  0  0
  1  2  1  0
  2  3  2  0
  3  4  1  0
  4  5  2  0
  5  6  1  0
  6  7  2  0
  7  8  1  0
  8  9  2  0
  9 10  1  0
 10 11  1  0
 11 12  1  0
 12 13  2  0
 13 14  1  0
 14 15  2  0
 15 16  1  0
 16 17  2  0
 17 18  1  0
 15 19  1  0
 14 20  1  0
 13 21  1  0
 11 22  1  0
 11 23  1  0
 10 24  1  0
 24 25  1  0
 25 26  1  0
 26 27  2  0
 27 28  1  0
 27 29  1  0
 29 30  2  0
 30 31  1  0
 31 32  1  0
 32 33  1  0
 32 34  1  0
 32 35  1  0
 29 36  1  0
 25 37  1  0
 25 38  1  0
 24 39  2  0
  6 40  1  0
  5 41  1  0
  4 42  1  0
  3 43  1  0
  1 44  1  0
  1 45  1  0
  1 46  1  0
  7  2  1  0
 39  8  1  0
 17 12  1  0
 31 26  1  0
M  END
>  <cnnaffinity>  (1) 
-6.79466

>  <filename>  (1) 
Cc1ccccc1-c1nc(Cc2c(Cl)cnn2C)n(Cc2cccnc2)n1

$$$$
