
     RDKit          3D

 39 42  0  0  0  0  0  0  0  0999 V2000
   10.9945   -4.4055   24.9366 C   0  0  0  0  0  0  0  0  0  0  0  0
    9.7584   -4.6294   24.1194 C   0  0  0  0  0  0  0  0  0  0  0  0
    8.8288   -5.6144   24.2440 C   0  0  0  0  0  0  0  0  0  0  0  0
    7.8833   -5.5045   23.2989 O   0  0  0  0  0  0  0  0  0  0  0  0
    8.1583   -4.4028   22.5298 N   0  0  0  0  0  0  0  0  0  0  0  0
    9.2550   -3.8753   23.0128 C   0  0  0  0  0  0  0  0  0  0  0  0
    9.7931   -2.5987   22.3964 C   0  0  0  0  0  0  0  0  0  0  0  0
    8.6927   -1.6781   21.9849 C   0  0  0  0  0  0  0  0  0  0  0  0
    8.4572   -1.2200   20.7761 N   0  0  0  0  0  0  0  0  0  0  0  0
    7.2711   -0.5659   20.9212 C   0  0  0  0  0  0  0  0  0  0  0  0
    6.5688    0.0920   19.8260 C   0  0  0  0  0  0  0  0  0  0  0  0
    5.3417    0.7563   20.0045 C   0  0  0  0  0  0  0  0  0  0  0  0
    4.7744    1.3904   18.9041 C   0  0  0  0  0  0  0  0  0  0  0  0
    5.4395    1.3340   17.6738 C   0  0  0  0  0  0  0  0  0  0  0  0
    6.5961    0.6794   17.4935 N   0  0  0  0  0  0  0  0  0  0  0  0
    7.1441    0.0716   18.5510 C   0  0  0  0  0  0  0  0  0  0  0  0
    8.0812   -0.4557   18.3786 H   0  0  0  0  0  0  0  0  0  0  0  0
    5.0274    1.8339   16.7972 H   0  0  0  0  0  0  0  0  0  0  0  0
    3.8406    1.9361   18.9809 H   0  0  0  0  0  0  0  0  0  0  0  0
    4.8572    0.7780   20.9830 H   0  0  0  0  0  0  0  0  0  0  0  0
    6.7723   -0.5955   22.1412 N   0  0  0  0  0  0  0  0  0  0  0  0
    7.7147   -1.2688   22.8352 N   0  0  0  0  0  0  0  0  0  0  0  0
    7.5487   -1.6433   24.1994 C   0  0  0  0  0  0  0  0  0  0  0  0
    6.3678   -2.2906   24.5828 C   0  0  0  0  0  0  0  0  0  0  0  0
    6.3371   -2.9124   25.8241 C   0  0  0  0  0  0  0  0  0  0  0  0
    5.2518   -3.6219   26.1676 F   0  0  0  0  0  0  0  0  0  0  0  0
    7.3980   -2.8547   26.7225 C   0  0  0  0  0  0  0  0  0  0  0  0
    8.4951   -2.0895   26.3419 C   0  0  0  0  0  0  0  0  0  0  0  0
    9.5088   -1.9590   27.2043 F   0  0  0  0  0  0  0  0  0  0  0  0
    8.6099   -1.4842   25.0957 C   0  0  0  0  0  0  0  0  0  0  0  0
    9.5021   -0.9207   24.8516 H   0  0  0  0  0  0  0  0  0  0  0  0
    7.3660   -3.3784   27.6669 H   0  0  0  0  0  0  0  0  0  0  0  0
    5.5209   -2.3705   23.9093 H   0  0  0  0  0  0  0  0  0  0  0  0
   10.3940   -2.7889   21.5076 H   0  0  0  0  0  0  0  0  0  0  0  0
   10.4490   -2.1039   23.1178 H   0  0  0  0  0  0  0  0  0  0  0  0
    8.7216   -6.4457   24.9234 H   0  0  0  0  0  0  0  0  0  0  0  0
   11.3313   -5.3233   25.4333 H   0  0  0  0  0  0  0  0  0  0  0  0
   10.7616   -3.6957   25.7276 H   0  0  0  0  0  0  0  0  0  0  0  0
   11.8151   -3.9971   24.3325 H   0  0  0  0  0  0  0  0  0  0  0  0
  1  2  1  0
  2  3  2  0
  3  4  1  0
  4  5  1  0
  5  6  2  0
  6  7  1  0
  7  8  1  0
  8  9  2  0
  9 10  1  0
 10 11  1  0
 11 12  2  0
 12 13  1  0
 13 14  2  0
 14 15  1  0
 15 16  2  0
 16 17  1  0
 14 18  1  0
 13 19  1  0
 12 20  1  0
 10 21  2  0
 21 22  1  0
 22 23  1  0
 23 24  2  0
 24 25  1  0
 25 26  1  0
 25 27  2  0
 27 28  1  0
 28 29  1  0
 28 30  2  0
 30 31  1  0
 27 32  1  0
 24 33  1  0
  7 34  1  0
  7 35  1  0
  3 36  1  0
  1 37  1  0
  1 38  1  0
  1 39  1  0
  6  2  1  0
 22  8  1  0
 30 23  1  0
 16 11  1  0
M  END
>  <cnnaffinity>  (1) 
-6.48375

>  <filename>  (1) 
Cc1conc1Cc1nc(-c2cccnc2)nn1-c1cc(F)cc(F)c1

$$$$
