
     RDKit          3D

 45 48  0  0  0  0  0  0  0  0999 V2000
    8.4877    6.2098   24.6521 C   0  0  0  0  0  0  0  0  0  0  0  0
    7.7184    5.4274   23.6131 C   0  0  0  0  0  0  0  0  0  0  0  0
    6.4663    5.8730   23.1824 C   0  0  0  0  0  0  0  0  0  0  0  0
    5.7710    5.1597   22.2022 C   0  0  0  0  0  0  0  0  0  0  0  0
    6.3156    3.9989   21.6486 C   0  0  0  0  0  0  0  0  0  0  0  0
    7.5766    3.5387   22.0704 C   0  0  0  0  0  0  0  0  0  0  0  0
    8.0354    2.3932   21.4731 O   0  0  0  0  0  0  0  0  0  0  0  0
    9.3224    1.8712   21.7909 C   0  0  0  0  0  0  0  0  0  0  0  0
    9.5243    0.5823   20.9905 C   0  0  0  0  0  0  0  0  0  0  0  0
    8.6112   -0.5066   21.4245 C   0  0  0  0  0  0  0  0  0  0  0  0
    8.8436   -1.3551   22.4122 N   0  0  0  0  0  0  0  0  0  0  0  0
    7.6621   -2.0082   22.5318 C   0  0  0  0  0  0  0  0  0  0  0  0
    7.3957   -3.0411   23.5807 C   0  0  0  0  0  0  0  0  0  0  0  0
    6.7999   -4.3744   23.0456 C   0  0  0  0  0  0  0  0  0  0  0  0
    5.2809   -4.1661   24.0356 S   0  0  0  0  0  0  0  0  0  0  0  0
    6.2255   -2.6905   24.5493 C   0  0  0  0  0  0  0  0  0  0  0  0
    5.7154   -1.7515   24.3183 H   0  0  0  0  0  0  0  0  0  0  0  0
    6.4867   -2.6938   25.6123 H   0  0  0  0  0  0  0  0  0  0  0  0
    6.6031   -4.3804   21.9689 H   0  0  0  0  0  0  0  0  0  0  0  0
    7.3657   -5.2709   23.3184 H   0  0  0  0  0  0  0  0  0  0  0  0
    8.3357   -3.1845   24.1081 H   0  0  0  0  0  0  0  0  0  0  0  0
    6.7312   -1.6364   21.6751 N   0  0  0  0  0  0  0  0  0  0  0  0
    7.3528   -0.6827   20.9362 N   0  0  0  0  0  0  0  0  0  0  0  0
    6.6565    0.0021   19.9019 C   0  0  0  0  0  0  0  0  0  0  0  0
    5.4378    0.6356   20.1672 C   0  0  0  0  0  0  0  0  0  0  0  0
    4.8102    1.3030   19.1099 C   0  0  0  0  0  0  0  0  0  0  0  0
    5.3990    1.2935   17.8388 C   0  0  0  0  0  0  0  0  0  0  0  0
    6.5565    0.6688   17.5747 N   0  0  0  0  0  0  0  0  0  0  0  0
    7.1657    0.0516   18.5930 C   0  0  0  0  0  0  0  0  0  0  0  0
    8.1112   -0.4315   18.3626 H   0  0  0  0  0  0  0  0  0  0  0  0
    4.9202    1.7867   16.9961 H   0  0  0  0  0  0  0  0  0  0  0  0
    3.8804    1.8401   19.2569 H   0  0  0  0  0  0  0  0  0  0  0  0
    5.0195    0.6147   21.1789 H   0  0  0  0  0  0  0  0  0  0  0  0
    9.4101    0.7871   19.9272 H   0  0  0  0  0  0  0  0  0  0  0  0
   10.5391    0.2143   21.1424 H   0  0  0  0  0  0  0  0  0  0  0  0
   10.1153    2.5912   21.5467 H   0  0  0  0  0  0  0  0  0  0  0  0
    9.3838    1.6287   22.8594 H   0  0  0  0  0  0  0  0  0  0  0  0
    8.2704    4.2618   23.0532 C   0  0  0  0  0  0  0  0  0  0  0  0
    9.2500    3.9288   23.3817 H   0  0  0  0  0  0  0  0  0  0  0  0
    5.7858    3.4504   20.8782 H   0  0  0  0  0  0  0  0  0  0  0  0
    4.8036    5.5234   21.8654 H   0  0  0  0  0  0  0  0  0  0  0  0
    6.0449    6.7815   23.6122 H   0  0  0  0  0  0  0  0  0  0  0  0
    9.1435    6.9517   24.1841 H   0  0  0  0  0  0  0  0  0  0  0  0
    9.1205    5.5616   25.2646 H   0  0  0  0  0  0  0  0  0  0  0  0
    7.8256    6.7589   25.3289 H   0  0  0  0  0  0  0  0  0  0  0  0
  1  2  1  0
  2  3  2  0
  3  4  1  0
  4  5  2  0
  5  6  1  0
  6  7  1  0
  7  8  1  0
  8  9  1  0
  9 10  1  0
 10 11  2  0
 11 12  1  0
 12 13  1  0
 13 14  1  0
 14 15  1  0
 15 16  1  0
 16 17  1  0
 16 18  1  0
 14 19  1  0
 14 20  1  0
 13 21  1  0
 12 22  2  0
 22 23  1  0
 23 24  1  0
 24 25  2  0
 25 26  1  0
 26 27  2  0
 27 28  1  0
 28 29  2  0
 29 30  1  0
 27 31  1  0
 26 32  1  0
 25 33  1  0
  9 34  1  0
  9 35  1  0
  8 36  1  0
  8 37  1  0
  6 38  2  0
 38 39  1  0
  5 40  1  0
  4 41  1  0
  3 42  1  0
  1 43  1  0
  1 44  1  0
  1 45  1  0
 38  2  1  0
 23 10  1  0
 29 24  1  0
 16 13  1  0
M  END
>  <cnnaffinity>  (1) 
-5.74258

>  <filename>  (1) 
Cc1cccc(OCCc2nc(C3CSC3)nn2-c2cccnc2)c1

$$$$
