
     RDKit          3D

 46 49  0  0  0  0  0  0  0  0999 V2000
    4.6427    4.5240   27.8729 C   0  0  0  0  0  0  0  0  0  0  0  0
    4.9039    3.5045   26.8102 C   0  0  0  0  0  0  0  0  0  0  0  0
    3.9319    2.7355   26.3366 N   0  0  0  0  0  0  0  0  0  0  0  0
    4.5482    1.8947   25.4872 N   0  0  0  0  0  0  0  0  0  0  0  0
    5.8868    2.0874   25.3988 C   0  0  0  0  0  0  0  0  0  0  0  0
    6.7943    1.2078   24.6008 C   0  0  0  0  0  0  0  0  0  0  0  0
    7.0123    1.6087   23.1203 C   0  0  0  0  0  0  0  0  0  0  0  0
    8.0334    0.7378   22.4615 C   0  0  0  0  0  0  0  0  0  0  0  0
    9.3345    0.8308   22.6652 N   0  0  0  0  0  0  0  0  0  0  0  0
    9.8388   -0.2363   21.9986 C   0  0  0  0  0  0  0  0  0  0  0  0
   11.2825   -0.5387   21.8747 C   0  0  0  0  0  0  0  0  0  0  0  0
   12.2781    0.2924   22.4210 C   0  0  0  0  0  0  0  0  0  0  0  0
   13.6109   -0.0547   22.2259 C   0  0  0  0  0  0  0  0  0  0  0  0
   14.5640    0.7305   22.7429 F   0  0  0  0  0  0  0  0  0  0  0  0
   13.9840   -1.1662   21.4705 C   0  0  0  0  0  0  0  0  0  0  0  0
   12.9946   -1.9362   20.8687 C   0  0  0  0  0  0  0  0  0  0  0  0
   11.6572   -1.6664   21.1305 C   0  0  0  0  0  0  0  0  0  0  0  0
   10.8696   -2.3038   20.7541 H   0  0  0  0  0  0  0  0  0  0  0  0
   13.2822   -2.7144   20.1676 H   0  0  0  0  0  0  0  0  0  0  0  0
   15.0067   -1.4556   21.3493 H   0  0  0  0  0  0  0  0  0  0  0  0
   12.0509    1.2034   22.9651 H   0  0  0  0  0  0  0  0  0  0  0  0
    8.9156   -0.9824   21.4061 N   0  0  0  0  0  0  0  0  0  0  0  0
    7.7626   -0.3541   21.7136 N   0  0  0  0  0  0  0  0  0  0  0  0
    6.5151   -0.7884   21.0987 C   0  0  0  0  0  0  0  0  0  0  0  0
    6.1190    0.0381   19.8931 C   0  0  0  0  0  0  0  0  0  0  0  0
    4.9265    0.7602   19.8182 C   0  0  0  0  0  0  0  0  0  0  0  0
    4.6588    1.5042   18.6654 C   0  0  0  0  0  0  0  0  0  0  0  0
    5.5961    1.4946   17.6300 C   0  0  0  0  0  0  0  0  0  0  0  0
    6.7438    0.8006   17.6760 N   0  0  0  0  0  0  0  0  0  0  0  0
    6.9919    0.1054   18.7915 C   0  0  0  0  0  0  0  0  0  0  0  0
    7.9441   -0.4230   18.8256 H   0  0  0  0  0  0  0  0  0  0  0  0
    5.4128    2.0659   16.7210 H   0  0  0  0  0  0  0  0  0  0  0  0
    3.7492    2.0860   18.5598 H   0  0  0  0  0  0  0  0  0  0  0  0
    4.2196    0.7538   20.6505 H   0  0  0  0  0  0  0  0  0  0  0  0
    5.7259   -0.7923   21.8555 H   0  0  0  0  0  0  0  0  0  0  0  0
    6.6918   -1.8251   20.8030 H   0  0  0  0  0  0  0  0  0  0  0  0
    7.3946    2.6309   23.0690 H   0  0  0  0  0  0  0  0  0  0  0  0
    6.0647    1.5888   22.5697 H   0  0  0  0  0  0  0  0  0  0  0  0
    7.7683    1.2040   25.1018 H   0  0  0  0  0  0  0  0  0  0  0  0
    6.4239    0.1748   24.6457 H   0  0  0  0  0  0  0  0  0  0  0  0
    6.1467    3.1528   26.2380 C   0  0  0  0  0  0  0  0  0  0  0  0
    7.0970    3.6360   26.4126 H   0  0  0  0  0  0  0  0  0  0  0  0
    4.0122    1.1628   25.0464 H   0  0  0  0  0  0  0  0  0  0  0  0
    3.5782    4.7637   27.9282 H   0  0  0  0  0  0  0  0  0  0  0  0
    5.2088    5.4410   27.6876 H   0  0  0  0  0  0  0  0  0  0  0  0
    4.9527    4.1327   28.8493 H   0  0  0  0  0  0  0  0  0  0  0  0
  1  2  1  0
  2  3  2  0
  3  4  1  0
  4  5  1  0
  5  6  1  0
  6  7  1  0
  7  8  1  0
  8  9  2  0
  9 10  1  0
 10 11  1  0
 11 12  2  0
 12 13  1  0
 13 14  1  0
 13 15  2  0
 15 16  1  0
 16 17  2  0
 17 18  1  0
 16 19  1  0
 15 20  1  0
 12 21  1  0
 10 22  2  0
 22 23  1  0
 23 24  1  0
 24 25  1  0
 25 26  2  0
 26 27  1  0
 27 28  2  0
 28 29  1  0
 29 30  2  0
 30 31  1  0
 28 32  1  0
 27 33  1  0
 26 34  1  0
 24 35  1  0
 24 36  1  0
  7 37  1  0
  7 38  1  0
  6 39  1  0
  6 40  1  0
  5 41  2  0
 41 42  1  0
  4 43  1  0
  1 44  1  0
  1 45  1  0
  1 46  1  0
 41  2  1  0
 23  8  1  0
 30 25  1  0
 17 11  1  0
M  END
>  <cnnaffinity>  (1) 
-6.53406

>  <filename>  (1) 
Cc1cc(CCc2nc(-c3cccc(F)c3)nn2Cc2cccnc2)[nH]n1

$$$$
