
     RDKit          3D

 54 57  0  0  0  0  0  0  0  0999 V2000
    5.3956   -5.7188   26.4069 C   0  0  0  0  0  0  0  0  0  0  0  0
    5.6600   -4.7115   25.2851 C   0  0  0  0  0  0  0  0  0  0  0  0
    6.1935   -3.3782   25.8418 C   0  0  0  0  0  0  0  0  0  0  0  0
    6.4791   -2.3621   24.7316 C   0  0  0  0  0  0  0  0  0  0  0  0
    7.4359   -2.9432   23.6560 C   0  0  0  0  0  0  0  0  0  0  0  0
    7.6849   -1.9509   22.5593 C   0  0  0  0  0  0  0  0  0  0  0  0
    6.7548   -1.6020   21.6876 N   0  0  0  0  0  0  0  0  0  0  0  0
    7.3759   -0.6573   20.9402 N   0  0  0  0  0  0  0  0  0  0  0  0
    6.6651    0.0104   19.9023 C   0  0  0  0  0  0  0  0  0  0  0  0
    5.4429    0.6402   20.1670 C   0  0  0  0  0  0  0  0  0  0  0  0
    4.8136    1.3076   19.1093 C   0  0  0  0  0  0  0  0  0  0  0  0
    5.3997    1.2949   17.8395 C   0  0  0  0  0  0  0  0  0  0  0  0
    6.5572    0.6711   17.5767 N   0  0  0  0  0  0  0  0  0  0  0  0
    7.1686    0.0523   18.5923 C   0  0  0  0  0  0  0  0  0  0  0  0
    8.1126   -0.4392   18.3627 H   0  0  0  0  0  0  0  0  0  0  0  0
    4.9247    1.7924   16.9947 H   0  0  0  0  0  0  0  0  0  0  0  0
    3.8816    1.8375   19.2587 H   0  0  0  0  0  0  0  0  0  0  0  0
    5.0183    0.6055   21.1704 H   0  0  0  0  0  0  0  0  0  0  0  0
    8.6328   -0.4639   21.4316 C   0  0  0  0  0  0  0  0  0  0  0  0
    9.5306    0.6281   20.9541 C   0  0  0  0  0  0  0  0  0  0  0  0
    9.0434    2.0409   21.3367 C   0  0  0  0  0  0  0  0  0  0  0  0
    8.9775    2.2535   22.8536 C   0  0  0  0  0  0  0  0  0  0  0  0
    8.4958    3.5717   23.2074 N   0  0  0  0  0  0  0  0  0  0  0  0
    7.1979    3.8249   23.7944 C   0  0  0  0  0  0  0  0  0  0  0  0
    7.2414    5.3582   23.9627 C   0  0  0  0  0  0  0  0  0  0  0  0
    8.5290    5.7730   23.5073 O   0  0  0  0  0  0  0  0  0  0  0  0
    9.2623    4.7053   23.0854 C   0  0  0  0  0  0  0  0  0  0  0  0
   10.4035    4.7967   22.7150 O   0  0  0  0  0  0  0  0  0  0  0  0
    6.4843    5.8700   23.3617 H   0  0  0  0  0  0  0  0  0  0  0  0
    7.1324    5.6679   25.0060 H   0  0  0  0  0  0  0  0  0  0  0  0
    6.3781    3.5005   23.1364 H   0  0  0  0  0  0  0  0  0  0  0  0
    7.0694    3.3028   24.7555 H   0  0  0  0  0  0  0  0  0  0  0  0
    8.3038    1.5153   23.3128 H   0  0  0  0  0  0  0  0  0  0  0  0
    9.9683    2.0926   23.3019 H   0  0  0  0  0  0  0  0  0  0  0  0
    8.0524    2.2210   20.8970 H   0  0  0  0  0  0  0  0  0  0  0  0
    9.7279    2.7871   20.9226 H   0  0  0  0  0  0  0  0  0  0  0  0
    9.5997    0.5547   19.8682 H   0  0  0  0  0  0  0  0  0  0  0  0
   10.5285    0.4247   21.3559 H   0  0  0  0  0  0  0  0  0  0  0  0
    8.8615   -1.2864   22.4360 N   0  0  0  0  0  0  0  0  0  0  0  0
    6.9088   -4.2881   23.1016 C   0  0  0  0  0  0  0  0  0  0  0  0
    6.6239   -5.2847   24.2300 C   0  0  0  0  0  0  0  0  0  0  0  0
    7.5692   -5.5651   24.7248 H   0  0  0  0  0  0  0  0  0  0  0  0
    6.2083   -6.2103   23.8100 H   0  0  0  0  0  0  0  0  0  0  0  0
    5.9897   -4.0913   22.5285 H   0  0  0  0  0  0  0  0  0  0  0  0
    7.6334   -4.7126   22.3950 H   0  0  0  0  0  0  0  0  0  0  0  0
    8.4151   -3.1083   24.1232 H   0  0  0  0  0  0  0  0  0  0  0  0
    6.9000   -1.4408   25.1555 H   0  0  0  0  0  0  0  0  0  0  0  0
    5.5374   -2.0805   24.2431 H   0  0  0  0  0  0  0  0  0  0  0  0
    7.1157   -3.5707   26.4146 H   0  0  0  0  0  0  0  0  0  0  0  0
    5.4707   -2.9565   26.5539 H   0  0  0  0  0  0  0  0  0  0  0  0
    4.7060   -4.4948   24.7729 H   0  0  0  0  0  0  0  0  0  0  0  0
    4.9902   -6.6589   26.0145 H   0  0  0  0  0  0  0  0  0  0  0  0
    6.3277   -5.9549   26.9384 H   0  0  0  0  0  0  0  0  0  0  0  0
    4.6857   -5.3211   27.1419 H   0  0  0  0  0  0  0  0  0  0  0  0
  1  2  1  0
  2  3  1  0
  3  4  1  0
  4  5  1  0
  5  6  1  0
  6  7  2  0
  7  8  1  0
  8  9  1  0
  9 10  2  0
 10 11  1  0
 11 12  2  0
 12 13  1  0
 13 14  2  0
 14 15  1  0
 12 16  1  0
 11 17  1  0
 10 18  1  0
  8 19  1  0
 19 20  1  0
 20 21  1  0
 21 22  1  0
 22 23  1  0
 23 24  1  0
 24 25  1  0
 25 26  1  0
 26 27  1  0
 27 28  2  0
 25 29  1  0
 25 30  1  0
 24 31  1  0
 24 32  1  0
 22 33  1  0
 22 34  1  0
 21 35  1  0
 21 36  1  0
 20 37  1  0
 20 38  1  0
 19 39  2  0
  5 40  1  0
 40 41  1  0
 41 42  1  0
 41 43  1  0
 40 44  1  0
 40 45  1  0
  5 46  1  0
  4 47  1  0
  4 48  1  0
  3 49  1  0
  3 50  1  0
  2 51  1  0
  1 52  1  0
  1 53  1  0
  1 54  1  0
 41  2  1  0
 39  6  1  0
 14  9  1  0
 27 23  1  0
M  END
>  <cnnaffinity>  (1) 
-6.00291

>  <filename>  (1) 
CC1CCC(c2nc(CCCN3CCOC3=O)n(-c3cccnc3)n2)CC1

$$$$
