
     RDKit          3D

 44 47  0  0  0  0  0  0  0  0999 V2000
   12.2825   -1.3794   21.1878 C   0  0  0  0  0  0  0  0  0  0  0  0
   11.8891   -0.1162   21.8784 C   0  0  0  0  0  0  0  0  0  0  0  0
   12.5166    0.5538   22.9003 C   0  0  0  0  0  0  0  0  0  0  0  0
   11.6795    1.6543   23.1709 C   0  0  0  0  0  0  0  0  0  0  0  0
   10.6164    1.6667   22.3810 N   0  0  0  0  0  0  0  0  0  0  0  0
   10.7629    0.5933   21.5808 N   0  0  0  0  0  0  0  0  0  0  0  0
    9.6751    0.2266   20.6964 C   0  0  0  0  0  0  0  0  0  0  0  0
    8.6454   -0.6108   21.3615 C   0  0  0  0  0  0  0  0  0  0  0  0
    8.8628   -1.4775   22.3197 N   0  0  0  0  0  0  0  0  0  0  0  0
    7.6252   -1.9813   22.5654 C   0  0  0  0  0  0  0  0  0  0  0  0
    7.4043   -2.9626   23.6709 C   0  0  0  0  0  0  0  0  0  0  0  0
    8.1162   -4.3080   23.3772 C   0  0  0  0  0  0  0  0  0  0  0  0
    8.0992   -5.2437   24.5603 C   0  0  0  0  0  0  0  0  0  0  0  0
    7.8556   -4.8416   25.8108 C   0  0  0  0  0  0  0  0  0  0  0  0
    7.5088   -3.4134   26.1644 C   0  0  0  0  0  0  0  0  0  0  0  0
    7.8554   -2.4161   25.0462 C   0  0  0  0  0  0  0  0  0  0  0  0
    7.3875   -1.4463   25.2530 H   0  0  0  0  0  0  0  0  0  0  0  0
    8.9382   -2.2361   25.0169 H   0  0  0  0  0  0  0  0  0  0  0  0
    6.4322   -3.3630   26.3804 H   0  0  0  0  0  0  0  0  0  0  0  0
    7.9997   -3.1210   27.1004 H   0  0  0  0  0  0  0  0  0  0  0  0
    7.8990   -5.5609   26.6294 H   0  0  0  0  0  0  0  0  0  0  0  0
    8.3107   -6.2930   24.3615 H   0  0  0  0  0  0  0  0  0  0  0  0
    7.6664   -4.7936   22.5030 H   0  0  0  0  0  0  0  0  0  0  0  0
    9.1609   -4.1110   23.0993 H   0  0  0  0  0  0  0  0  0  0  0  0
    6.3241   -3.1257   23.6973 H   0  0  0  0  0  0  0  0  0  0  0  0
    6.6817   -1.5363   21.7647 N   0  0  0  0  0  0  0  0  0  0  0  0
    7.3449   -0.6780   20.9438 N   0  0  0  0  0  0  0  0  0  0  0  0
    6.6581    0.0069   19.9050 C   0  0  0  0  0  0  0  0  0  0  0  0
    5.4385    0.6458   20.1673 C   0  0  0  0  0  0  0  0  0  0  0  0
    4.8134    1.3102   19.1092 C   0  0  0  0  0  0  0  0  0  0  0  0
    5.4028    1.2952   17.8377 C   0  0  0  0  0  0  0  0  0  0  0  0
    6.5620    0.6724   17.5784 N   0  0  0  0  0  0  0  0  0  0  0  0
    7.1694    0.0533   18.5954 C   0  0  0  0  0  0  0  0  0  0  0  0
    8.1121   -0.4328   18.3626 H   0  0  0  0  0  0  0  0  0  0  0  0
    4.9223    1.7844   16.9930 H   0  0  0  0  0  0  0  0  0  0  0  0
    3.8809    1.8393   19.2605 H   0  0  0  0  0  0  0  0  0  0  0  0
    5.0153    0.6097   21.1742 H   0  0  0  0  0  0  0  0  0  0  0  0
   10.0516   -0.3762   19.8699 H   0  0  0  0  0  0  0  0  0  0  0  0
    9.2487    1.1443   20.2976 H   0  0  0  0  0  0  0  0  0  0  0  0
   11.8232    2.4278   23.9156 H   0  0  0  0  0  0  0  0  0  0  0  0
   13.4539    0.2744   23.3622 H   0  0  0  0  0  0  0  0  0  0  0  0
   13.1691   -1.7855   21.6784 H   0  0  0  0  0  0  0  0  0  0  0  0
   12.5429   -1.2201   20.1369 H   0  0  0  0  0  0  0  0  0  0  0  0
   11.4797   -2.1250   21.2324 H   0  0  0  0  0  0  0  0  0  0  0  0
  1  2  1  0
  2  3  2  0
  3  4  1  0
  4  5  2  0
  5  6  1  0
  6  7  1  0
  7  8  1  0
  8  9  2  0
  9 10  1  0
 10 11  1  0
 11 12  1  0
 12 13  1  0
 13 14  2  0
 14 15  1  0
 15 16  1  0
 16 17  1  0
 16 18  1  0
 15 19  1  0
 15 20  1  0
 14 21  1  0
 13 22  1  0
 12 23  1  0
 12 24  1  0
 11 25  1  0
 10 26  2  0
 26 27  1  0
 27 28  1  0
 28 29  2  0
 29 30  1  0
 30 31  2  0
 31 32  1  0
 32 33  2  0
 33 34  1  0
 31 35  1  0
 30 36  1  0
 29 37  1  0
  7 38  1  0
  7 39  1  0
  4 40  1  0
  3 41  1  0
  1 42  1  0
  1 43  1  0
  1 44  1  0
  6  2  1  0
 27  8  1  0
 33 28  1  0
 16 11  1  0
M  END
>  <cnnaffinity>  (1) 
-6.51557

>  <filename>  (1) 
Cc1ccnn1Cc1nc(C2CC=CCC2)nn1-c1cccnc1

$$$$
