
     RDKit          3D

 45 48  0  0  0  0  0  0  0  0999 V2000
    3.1560    2.7820   26.0968 C   0  0  0  0  0  0  0  0  0  0  0  0
    4.5737    2.4876   25.7588 C   0  0  0  0  0  0  0  0  0  0  0  0
    5.1499    1.5929   24.9188 C   0  0  0  0  0  0  0  0  0  0  0  0
    6.5337    1.9044   24.9962 C   0  0  0  0  0  0  0  0  0  0  0  0
    7.6240    1.2609   24.2177 C   0  0  0  0  0  0  0  0  0  0  0  0
    7.8225    1.8144   22.7744 C   0  0  0  0  0  0  0  0  0  0  0  0
    8.8157    0.9461   22.0804 C   0  0  0  0  0  0  0  0  0  0  0  0
   10.1195    1.0108   22.2996 N   0  0  0  0  0  0  0  0  0  0  0  0
   10.5660   -0.1789   21.8458 C   0  0  0  0  0  0  0  0  0  0  0  0
   11.9794   -0.5964   21.8312 C   0  0  0  0  0  0  0  0  0  0  0  0
   13.0739    0.1854   22.2588 C   0  0  0  0  0  0  0  0  0  0  0  0
   14.3367   -0.0677   21.7190 C   0  0  0  0  0  0  0  0  0  0  0  0
   14.4580   -1.1178   20.7870 C   0  0  0  0  0  0  0  0  0  0  0  0
   15.4658   -1.1464   19.9053 F   0  0  0  0  0  0  0  0  0  0  0  0
   13.4787   -2.0742   20.6088 C   0  0  0  0  0  0  0  0  0  0  0  0
   12.2337   -1.7886   21.1395 C   0  0  0  0  0  0  0  0  0  0  0  0
   11.3710   -2.4039   20.9530 H   0  0  0  0  0  0  0  0  0  0  0  0
   13.7003   -2.9570   20.0142 H   0  0  0  0  0  0  0  0  0  0  0  0
   15.1656    0.6172   21.8956 H   0  0  0  0  0  0  0  0  0  0  0  0
   12.9578    1.0301   22.9348 H   0  0  0  0  0  0  0  0  0  0  0  0
    9.6167   -0.9479   21.3213 N   0  0  0  0  0  0  0  0  0  0  0  0
    8.5000   -0.2133   21.4559 N   0  0  0  0  0  0  0  0  0  0  0  0
    7.2199   -0.7609   20.9979 C   0  0  0  0  0  0  0  0  0  0  0  0
    6.5426    0.0232   19.8929 C   0  0  0  0  0  0  0  0  0  0  0  0
    5.3240    0.6866   20.0805 C   0  0  0  0  0  0  0  0  0  0  0  0
    4.7489    1.3610   19.0006 C   0  0  0  0  0  0  0  0  0  0  0  0
    5.4184    1.3504   17.7737 C   0  0  0  0  0  0  0  0  0  0  0  0
    6.5877    0.7224   17.5722 N   0  0  0  0  0  0  0  0  0  0  0  0
    7.1291    0.0856   18.6170 C   0  0  0  0  0  0  0  0  0  0  0  0
    8.0736   -0.4244   18.4271 H   0  0  0  0  0  0  0  0  0  0  0  0
    4.9994    1.8628   16.9108 H   0  0  0  0  0  0  0  0  0  0  0  0
    3.8095    1.8948   19.0967 H   0  0  0  0  0  0  0  0  0  0  0  0
    4.8324    0.6772   21.0573 H   0  0  0  0  0  0  0  0  0  0  0  0
    7.4391   -1.7830   20.6692 H   0  0  0  0  0  0  0  0  0  0  0  0
    6.5495   -0.8468   21.8602 H   0  0  0  0  0  0  0  0  0  0  0  0
    6.8793    1.8495   22.2136 H   0  0  0  0  0  0  0  0  0  0  0  0
    8.2295    2.8290   22.8043 H   0  0  0  0  0  0  0  0  0  0  0  0
    7.4005    0.1871   24.1498 H   0  0  0  0  0  0  0  0  0  0  0  0
    8.5757    1.3507   24.7556 H   0  0  0  0  0  0  0  0  0  0  0  0
    6.7635    2.8887   25.8236 N   0  0  0  0  0  0  0  0  0  0  0  0
    5.5256    3.2563   26.3099 O   0  0  0  0  0  0  0  0  0  0  0  0
    4.6854    0.8125   24.3372 H   0  0  0  0  0  0  0  0  0  0  0  0
    2.5970    1.8532   26.2248 H   0  0  0  0  0  0  0  0  0  0  0  0
    3.0865    3.3801   27.0057 H   0  0  0  0  0  0  0  0  0  0  0  0
    2.6851    3.3339   25.2762 H   0  0  0  0  0  0  0  0  0  0  0  0
  1  2  1  0
  2  3  2  0
  3  4  1  0
  4  5  1  0
  5  6  1  0
  6  7  1  0
  7  8  2  0
  8  9  1  0
  9 10  1  0
 10 11  2  0
 11 12  1  0
 12 13  2  0
 13 14  1  0
 13 15  1  0
 15 16  2  0
 16 17  1  0
 15 18  1  0
 12 19  1  0
 11 20  1  0
  9 21  2  0
 21 22  1  0
 22 23  1  0
 23 24  1  0
 24 25  2  0
 25 26  1  0
 26 27  2  0
 27 28  1  0
 28 29  2  0
 29 30  1  0
 27 31  1  0
 26 32  1  0
 25 33  1  0
 23 34  1  0
 23 35  1  0
  6 36  1  0
  6 37  1  0
  5 38  1  0
  5 39  1  0
  4 40  2  0
 40 41  1  0
  3 42  1  0
  1 43  1  0
  1 44  1  0
  1 45  1  0
 41  2  1  0
 22  7  1  0
 29 24  1  0
 16 10  1  0
M  END
>  <cnnaffinity>  (1) 
-6.55873

>  <filename>  (1) 
Cc1cc(CCc2nc(-c3ccc(F)cc3)nn2Cc2cccnc2)no1

$$$$
