
     RDKit          3D

 43 46  0  0  0  0  0  0  0  0999 V2000
    5.0305    1.8035   16.9880 H   0  0  0  0  0  0  0  0  0  0  0  0
    5.4670    1.3139   17.8545 C   0  0  0  0  0  0  0  0  0  0  0  0
    6.6199    0.6618   17.6436 N   0  0  0  0  0  0  0  0  0  0  0  0
    7.1748    0.0469   18.6970 C   0  0  0  0  0  0  0  0  0  0  0  0
    8.0844   -0.5090   18.4834 H   0  0  0  0  0  0  0  0  0  0  0  0
    6.6494    0.0547   20.0284 C   0  0  0  0  0  0  0  0  0  0  0  0
    7.1991   -0.6669   21.0998 N   0  0  0  0  0  0  0  0  0  0  0  0
    7.3543   -0.1573   22.4745 C   0  0  1  0  0  0  0  0  0  0  0  0
    6.4229    0.2901   22.8475 H   0  0  0  0  0  0  0  0  0  0  0  0
    7.6941   -1.4682   23.2314 C   0  0  0  0  0  0  0  0  0  0  0  0
    6.7711   -1.9042   23.6197 H   0  0  0  0  0  0  0  0  0  0  0  0
    8.3676   -1.2900   24.0744 H   0  0  0  0  0  0  0  0  0  0  0  0
    8.3203   -2.3874   22.1608 C   0  0  0  0  0  0  0  0  0  0  0  0
    7.6590   -3.2320   21.9496 H   0  0  0  0  0  0  0  0  0  0  0  0
    9.3031   -2.7891   22.4251 H   0  0  0  0  0  0  0  0  0  0  0  0
    8.3795   -1.5025   20.9101 C   0  0  2  0  0  0  0  0  0  0  0  0
    8.2283   -2.0760   20.0076 H   0  0  0  0  0  0  0  0  0  0  0  0
    9.6679   -0.6628   20.7828 C   0  0  0  0  0  0  0  0  0  0  0  0
   10.5149   -1.2258   21.1941 H   0  0  0  0  0  0  0  0  0  0  0  0
    9.8979   -0.5304   19.7215 H   0  0  0  0  0  0  0  0  0  0  0  0
    9.5606    0.7483   21.4202 C   0  0  2  0  0  0  0  0  0  0  0  0
    9.1977    1.4052   20.6178 H   0  0  0  0  0  0  0  0  0  0  0  0
   10.9179    1.2695   21.8540 C   0  0  0  0  0  0  0  0  0  0  0  0
   11.7173    0.6272   22.8144 C   0  0  0  0  0  0  0  0  0  0  0  0
   11.3932   -0.3271   23.2281 H   0  0  0  0  0  0  0  0  0  0  0  0
   12.9239    1.1951   23.2398 C   0  0  0  0  0  0  0  0  0  0  0  0
   13.5638    0.6665   23.9402 H   0  0  0  0  0  0  0  0  0  0  0  0
   13.3268    2.4377   22.7322 C   0  0  0  0  0  0  0  0  0  0  0  0
   14.2524    2.9109   23.0402 H   0  0  0  0  0  0  0  0  0  0  0  0
   12.5536    3.0903   21.7700 C   0  0  0  0  0  0  0  0  0  0  0  0
   12.9652    4.3964   21.1501 C   0  0  0  0  0  0  0  0  0  0  0  0
   12.8813    4.3056   20.0645 H   0  0  0  0  0  0  0  0  0  0  0  0
   14.0018    4.6707   21.3730 H   0  0  0  0  0  0  0  0  0  0  0  0
   12.2958    5.1967   21.4859 H   0  0  0  0  0  0  0  0  0  0  0  0
   11.3821    2.4748   21.3199 C   0  0  0  0  0  0  0  0  0  0  0  0
   10.8367    2.9445   20.5111 H   0  0  0  0  0  0  0  0  0  0  0  0
    8.4994    0.8833   22.5550 C   0  0  0  0  0  0  0  0  0  0  0  0
    8.9839    0.8016   23.5368 H   0  0  0  0  0  0  0  0  0  0  0  0
    8.0746    1.8905   22.4943 H   0  0  0  0  0  0  0  0  0  0  0  0
    5.4372    0.7448   20.2039 C   0  0  0  0  0  0  0  0  0  0  0  0
    4.9781    0.7492   21.1918 H   0  0  0  0  0  0  0  0  0  0  0  0
    4.8379    1.3662   19.1033 C   0  0  0  0  0  0  0  0  0  0  0  0
    3.8916    1.8896   19.2073 H   0  0  0  0  0  0  0  0  0  0  0  0
  1  2  1  0
  2  3  2  0
  3  4  1  0
  4  5  1  0
  4  6  2  0
  6  7  1  0
  7  8  1  0
  8  9  1  1
  8 10  1  0
 10 11  1  0
 10 12  1  0
 10 13  1  0
 13 14  1  0
 13 15  1  0
 13 16  1  0
 16 17  1  6
 16 18  1  0
 18 19  1  0
 18 20  1  0
 18 21  1  0
 21 22  1  6
 21 23  1  0
 23 24  2  0
 24 25  1  0
 24 26  1  0
 26 27  1  0
 26 28  2  0
 28 29  1  0
 28 30  1  0
 30 31  1  0
 31 32  1  0
 31 33  1  0
 31 34  1  0
 30 35  2  0
 35 36  1  0
 21 37  1  0
 37 38  1  0
 37 39  1  0
  6 40  1  0
 40 41  1  0
 40 42  2  0
 42 43  1  0
 42  2  1  0
 16  7  1  0
 35 23  1  0
 37  8  1  0
M  END
>  <cnnaffinity>  (1) 
-5.87208

>  <filename>  (1) 
Cc1cccc([C@H]2C[C@H]3CC[C@@H](C2)N3c2cccnc2)c1

$$$$
