
     RDKit          3D

 48 50  0  0  0  0  0  0  0  0999 V2000
    7.7209    2.4085   21.8862 C   0  0  0  0  0  0  0  0  0  0  0  0
    9.1786    2.0560   22.0048 C   0  0  0  0  0  0  0  0  0  0  0  0
   10.0953    2.6039   22.8747 C   0  0  0  0  0  0  0  0  0  0  0  0
   11.3147    1.9530   22.5871 C   0  0  0  0  0  0  0  0  0  0  0  0
   12.6430    2.1344   23.2937 C   0  0  0  0  0  0  0  0  0  0  0  0
   13.6169    1.3671   22.7978 F   0  0  0  0  0  0  0  0  0  0  0  0
   13.0672    3.4158   23.2444 F   0  0  0  0  0  0  0  0  0  0  0  0
   12.5189    1.8164   24.6004 F   0  0  0  0  0  0  0  0  0  0  0  0
   11.1425    1.0307   21.6491 N   0  0  0  0  0  0  0  0  0  0  0  0
    9.8547    1.1013   21.2921 N   0  0  0  0  0  0  0  0  0  0  0  0
    9.3312    0.0633   20.4111 C   0  0  0  0  0  0  0  0  0  0  0  0
    8.3315   -0.8019   21.1009 C   0  0  0  0  0  0  0  0  0  0  0  0
    8.5992   -1.5433   22.1511 N   0  0  0  0  0  0  0  0  0  0  0  0
    7.4040   -2.1374   22.4240 C   0  0  0  0  0  0  0  0  0  0  0  0
    7.2243   -3.0374   23.6032 C   0  0  0  0  0  0  0  0  0  0  0  0
    6.9063   -2.2885   24.9167 C   0  0  0  0  0  0  0  0  0  0  0  0
    6.6632   -3.1754   26.1573 C   0  0  0  0  0  0  0  0  0  0  0  0
    7.9190   -3.9214   26.6331 C   0  0  0  0  0  0  0  0  0  0  0  0
    8.2826   -4.6350   25.8840 H   0  0  0  0  0  0  0  0  0  0  0  0
    7.7139   -4.4923   27.5471 H   0  0  0  0  0  0  0  0  0  0  0  0
    8.7431   -3.2340   26.8571 H   0  0  0  0  0  0  0  0  0  0  0  0
    5.4854   -4.1414   25.9662 C   0  0  0  0  0  0  0  0  0  0  0  0
    5.7011   -4.9034   25.2079 H   0  0  0  0  0  0  0  0  0  0  0  0
    4.5750   -3.6170   25.6522 H   0  0  0  0  0  0  0  0  0  0  0  0
    5.2527   -4.6728   26.8961 H   0  0  0  0  0  0  0  0  0  0  0  0
    6.3823   -2.4795   26.9624 H   0  0  0  0  0  0  0  0  0  0  0  0
    7.7264   -1.5896   25.1401 H   0  0  0  0  0  0  0  0  0  0  0  0
    6.0117   -1.6697   24.7605 H   0  0  0  0  0  0  0  0  0  0  0  0
    8.1531   -3.6051   23.7246 H   0  0  0  0  0  0  0  0  0  0  0  0
    6.4274   -3.7501   23.3654 H   0  0  0  0  0  0  0  0  0  0  0  0
    6.4266   -1.8093   21.5984 N   0  0  0  0  0  0  0  0  0  0  0  0
    7.0271   -0.9640   20.7254 N   0  0  0  0  0  0  0  0  0  0  0  0
    6.3005   -0.2934   19.6992 C   0  0  0  0  0  0  0  0  0  0  0  0
    5.1518    0.4577   19.9749 C   0  0  0  0  0  0  0  0  0  0  0  0
    4.6862    1.3243   18.9788 C   0  0  0  0  0  0  0  0  0  0  0  0
    5.3260    1.3493   17.7343 C   0  0  0  0  0  0  0  0  0  0  0  0
    6.3415    0.5276   17.4235 N   0  0  0  0  0  0  0  0  0  0  0  0
    6.7912   -0.2892   18.3803 C   0  0  0  0  0  0  0  0  0  0  0  0
    7.6033   -0.9569   18.0971 H   0  0  0  0  0  0  0  0  0  0  0  0
    5.0068    2.0384   16.9548 H   0  0  0  0  0  0  0  0  0  0  0  0
    3.8455    1.9871   19.1533 H   0  0  0  0  0  0  0  0  0  0  0  0
    4.6556    0.3663   20.9433 H   0  0  0  0  0  0  0  0  0  0  0  0
    8.9352    0.5207   19.5054 H   0  0  0  0  0  0  0  0  0  0  0  0
   10.1784   -0.5695   20.1443 H   0  0  0  0  0  0  0  0  0  0  0  0
    9.8997    3.3630   23.6241 H   0  0  0  0  0  0  0  0  0  0  0  0
    7.3405    2.3472   20.8597 H   0  0  0  0  0  0  0  0  0  0  0  0
    7.1045    1.7482   22.5108 H   0  0  0  0  0  0  0  0  0  0  0  0
    7.5867    3.4343   22.2502 H   0  0  0  0  0  0  0  0  0  0  0  0
  1  2  1  0
  2  3  2  0
  3  4  1  0
  4  5  1  0
  5  6  1  0
  5  7  1  0
  5  8  1  0
  4  9  2  0
  9 10  1  0
 10 11  1  0
 11 12  1  0
 12 13  2  0
 13 14  1  0
 14 15  1  0
 15 16  1  0
 16 17  1  0
 17 18  1  0
 18 19  1  0
 18 20  1  0
 18 21  1  0
 17 22  1  0
 22 23  1  0
 22 24  1  0
 22 25  1  0
 17 26  1  0
 16 27  1  0
 16 28  1  0
 15 29  1  0
 15 30  1  0
 14 31  2  0
 31 32  1  0
 32 33  1  0
 33 34  2  0
 34 35  1  0
 35 36  2  0
 36 37  1  0
 37 38  2  0
 38 39  1  0
 36 40  1  0
 35 41  1  0
 34 42  1  0
 11 43  1  0
 11 44  1  0
  3 45  1  0
  1 46  1  0
  1 47  1  0
  1 48  1  0
 10  2  1  0
 32 12  1  0
 38 33  1  0
M  END
>  <cnnaffinity>  (1) 
-6.70118

>  <filename>  (1) 
Cc1cc(C(F)(F)F)nn1Cc1nc(CCC(C)C)nn1-c1cccnc1

$$$$
