
     RDKit          3D

 48 51  0  0  0  0  0  0  0  0999 V2000
   11.1757    2.8270   23.3009 C   0  0  0  0  0  0  0  0  0  0  0  0
    9.7839    2.4344   23.7597 C   0  0  0  0  0  0  0  0  0  0  0  0
    9.4890    2.2931   25.1217 C   0  0  0  0  0  0  0  0  0  0  0  0
    8.1705    2.0469   25.5241 C   0  0  0  0  0  0  0  0  0  0  0  0
    7.2067    1.8593   24.5359 C   0  0  0  0  0  0  0  0  0  0  0  0
    7.4699    1.9231   23.2249 N   0  0  0  0  0  0  0  0  0  0  0  0
    8.7346    2.1660   22.8409 C   0  0  0  0  0  0  0  0  0  0  0  0
    9.0044    2.0092   21.3537 C   0  0  0  0  0  0  0  0  0  0  0  0
    9.5253    0.5946   20.9443 C   0  0  0  0  0  0  0  0  0  0  0  0
    8.6480   -0.5465   21.3695 C   0  0  0  0  0  0  0  0  0  0  0  0
    8.8826   -1.4208   22.3307 N   0  0  0  0  0  0  0  0  0  0  0  0
    7.6612   -1.9762   22.5481 C   0  0  0  0  0  0  0  0  0  0  0  0
    7.4143   -2.8994   23.7176 C   0  0  0  0  0  0  0  0  0  0  0  0
    6.6429   -2.1848   24.8543 C   0  0  0  0  0  0  0  0  0  0  0  0
    7.1584   -1.2722   25.1698 H   0  0  0  0  0  0  0  0  0  0  0  0
    6.5641   -2.8282   25.7356 H   0  0  0  0  0  0  0  0  0  0  0  0
    5.6308   -1.8966   24.5493 H   0  0  0  0  0  0  0  0  0  0  0  0
    6.7824   -4.2067   23.2305 C   0  0  0  0  0  0  0  0  0  0  0  0
    5.3750   -4.2392   22.7115 C   0  0  0  0  0  0  0  0  0  0  0  0
    5.7259   -4.9578   23.9836 C   0  0  0  0  0  0  0  0  0  0  0  0
    5.3586   -4.5640   24.9288 H   0  0  0  0  0  0  0  0  0  0  0  0
    5.7898   -6.0409   23.9532 H   0  0  0  0  0  0  0  0  0  0  0  0
    5.1692   -4.8158   21.8149 H   0  0  0  0  0  0  0  0  0  0  0  0
    4.8016   -3.3161   22.7825 H   0  0  0  0  0  0  0  0  0  0  0  0
    7.4758   -4.8510   22.6875 H   0  0  0  0  0  0  0  0  0  0  0  0
    8.4109   -3.1367   24.0979 H   0  0  0  0  0  0  0  0  0  0  0  0
    6.7062   -1.5468   21.7416 N   0  0  0  0  0  0  0  0  0  0  0  0
    7.3575   -0.6559   20.9507 N   0  0  0  0  0  0  0  0  0  0  0  0
    6.6680    0.0023   19.8968 C   0  0  0  0  0  0  0  0  0  0  0  0
    5.4521    0.6381   20.1633 C   0  0  0  0  0  0  0  0  0  0  0  0
    4.8191    1.3079   19.1140 C   0  0  0  0  0  0  0  0  0  0  0  0
    5.4126    1.2970   17.8463 C   0  0  0  0  0  0  0  0  0  0  0  0
    6.5640    0.6622   17.5758 N   0  0  0  0  0  0  0  0  0  0  0  0
    7.1758    0.0316   18.5852 C   0  0  0  0  0  0  0  0  0  0  0  0
    8.1109   -0.4787   18.3448 H   0  0  0  0  0  0  0  0  0  0  0  0
    4.9410    1.8137   17.0151 H   0  0  0  0  0  0  0  0  0  0  0  0
    3.8841    1.8349   19.2699 H   0  0  0  0  0  0  0  0  0  0  0  0
    5.0339    0.5941   21.1692 H   0  0  0  0  0  0  0  0  0  0  0  0
   10.5199    0.4220   21.3654 H   0  0  0  0  0  0  0  0  0  0  0  0
    9.6188    0.5641   19.8579 H   0  0  0  0  0  0  0  0  0  0  0  0
    9.7291    2.7614   21.0294 H   0  0  0  0  0  0  0  0  0  0  0  0
    8.0699    2.2124   20.8277 H   0  0  0  0  0  0  0  0  0  0  0  0
    6.1786    1.6120   24.7938 H   0  0  0  0  0  0  0  0  0  0  0  0
    7.8829    1.9990   26.5689 H   0  0  0  0  0  0  0  0  0  0  0  0
   10.2908    2.3253   25.8541 H   0  0  0  0  0  0  0  0  0  0  0  0
   11.8523    2.9729   24.1478 H   0  0  0  0  0  0  0  0  0  0  0  0
   11.1811    3.7560   22.7141 H   0  0  0  0  0  0  0  0  0  0  0  0
   11.6108    2.0474   22.6654 H   0  0  0  0  0  0  0  0  0  0  0  0
  1  2  1  0
  2  3  2  0
  3  4  1  0
  4  5  2  0
  5  6  1  0
  6  7  2  0
  7  8  1  0
  8  9  1  0
  9 10  1  0
 10 11  2  0
 11 12  1  0
 12 13  1  0
 13 14  1  0
 14 15  1  0
 14 16  1  0
 14 17  1  0
 13 18  1  0
 18 19  1  0
 19 20  1  0
 20 21  1  0
 20 22  1  0
 19 23  1  0
 19 24  1  0
 18 25  1  0
 13 26  1  0
 12 27  2  0
 27 28  1  0
 28 29  1  0
 29 30  2  0
 30 31  1  0
 31 32  2  0
 32 33  1  0
 33 34  2  0
 34 35  1  0
 32 36  1  0
 31 37  1  0
 30 38  1  0
  9 39  1  0
  9 40  1  0
  8 41  1  0
  8 42  1  0
  5 43  1  0
  4 44  1  0
  3 45  1  0
  1 46  1  0
  1 47  1  0
  1 48  1  0
  7  2  1  0
 28 10  1  0
 34 29  1  0
 20 18  1  0
M  END
>  <cnnaffinity>  (1) 
-6.09429

>  <filename>  (1) 
Cc1cccnc1CCc1nc(C(C)C2CC2)nn1-c1cccnc1

$$$$
