
     RDKit          3D

 46 49  0  0  0  0  0  0  0  0999 V2000
   13.9753    2.8765   22.7466 C   0  0  0  0  0  0  0  0  0  0  0  0
   12.9356    1.9107   22.3005 C   0  0  0  0  0  0  0  0  0  0  0  0
   11.8102    2.3330   21.7605 N   0  0  0  0  0  0  0  0  0  0  0  0
   11.0971    1.2255   21.4867 N   0  0  0  0  0  0  0  0  0  0  0  0
    9.7381    1.4128   21.0131 C   0  0  0  0  0  0  0  0  0  0  0  0
    8.7571    1.1608   22.0937 C   0  0  0  0  0  0  0  0  0  0  0  0
    8.7287    1.8437   23.2131 N   0  0  0  0  0  0  0  0  0  0  0  0
    7.6959    1.2853   23.8939 C   0  0  0  0  0  0  0  0  0  0  0  0
    7.2607    1.7891   25.2096 C   0  0  0  0  0  0  0  0  0  0  0  0
    6.1427    1.2393   25.8666 C   0  0  0  0  0  0  0  0  0  0  0  0
    5.7678    1.7048   27.1255 C   0  0  0  0  0  0  0  0  0  0  0  0
    6.5038    2.7336   27.7217 C   0  0  0  0  0  0  0  0  0  0  0  0
    6.0482    3.3071   29.2964 Cl  0  0  0  0  0  0  0  0  0  0  0  0
    7.6016    3.3113   27.0767 C   0  0  0  0  0  0  0  0  0  0  0  0
    7.9752    2.8351   25.8231 C   0  0  0  0  0  0  0  0  0  0  0  0
    8.8338    3.2566   25.3037 H   0  0  0  0  0  0  0  0  0  0  0  0
    8.1530    4.1143   27.5542 H   0  0  0  0  0  0  0  0  0  0  0  0
    4.9213    1.2718   27.6498 H   0  0  0  0  0  0  0  0  0  0  0  0
    5.5855    0.4375   25.3854 H   0  0  0  0  0  0  0  0  0  0  0  0
    7.1043    0.2932   23.2466 N   0  0  0  0  0  0  0  0  0  0  0  0
    7.7976    0.2131   22.0916 N   0  0  0  0  0  0  0  0  0  0  0  0
    7.3789   -0.6948   21.0272 C   0  0  0  0  0  0  0  0  0  0  0  0
    6.6663    0.0065   19.8822 C   0  0  0  0  0  0  0  0  0  0  0  0
    5.4516    0.6612   20.1314 C   0  0  0  0  0  0  0  0  0  0  0  0
    4.8155    1.3134   19.0749 C   0  0  0  0  0  0  0  0  0  0  0  0
    5.4167    1.2982   17.8136 C   0  0  0  0  0  0  0  0  0  0  0  0
    6.5678    0.6644   17.5486 N   0  0  0  0  0  0  0  0  0  0  0  0
    7.1690    0.0399   18.5709 C   0  0  0  0  0  0  0  0  0  0  0  0
    8.1059   -0.4626   18.3200 H   0  0  0  0  0  0  0  0  0  0  0  0
    4.9515    1.8164   16.9784 H   0  0  0  0  0  0  0  0  0  0  0  0
    3.8782    1.8383   19.2145 H   0  0  0  0  0  0  0  0  0  0  0  0
    5.0231    0.6701   21.1379 H   0  0  0  0  0  0  0  0  0  0  0  0
    6.7180   -1.4123   21.5219 H   0  0  0  0  0  0  0  0  0  0  0  0
    8.2524   -1.2619   20.6814 H   0  0  0  0  0  0  0  0  0  0  0  0
    9.5291    0.8096   20.1271 H   0  0  0  0  0  0  0  0  0  0  0  0
    9.6638    2.4681   20.7482 H   0  0  0  0  0  0  0  0  0  0  0  0
   11.7491    0.0893   21.8777 C   0  0  0  0  0  0  0  0  0  0  0  0
   11.2006   -1.2973   21.7233 C   0  0  0  0  0  0  0  0  0  0  0  0
   10.7561   -1.4308   20.7362 H   0  0  0  0  0  0  0  0  0  0  0  0
   10.4253   -1.5325   22.4622 H   0  0  0  0  0  0  0  0  0  0  0  0
   11.9938   -2.0405   21.8370 H   0  0  0  0  0  0  0  0  0  0  0  0
   12.9621    0.5066   22.3879 C   0  0  0  0  0  0  0  0  0  0  0  0
   13.7931   -0.0921   22.7420 H   0  0  0  0  0  0  0  0  0  0  0  0
   14.9728    2.4993   22.5090 H   0  0  0  0  0  0  0  0  0  0  0  0
   13.8970    3.0274   23.8227 H   0  0  0  0  0  0  0  0  0  0  0  0
   13.8509    3.8413   22.2563 H   0  0  0  0  0  0  0  0  0  0  0  0
  1  2  1  0
  2  3  2  0
  3  4  1  0
  4  5  1  0
  5  6  1  0
  6  7  2  0
  7  8  1  0
  8  9  1  0
  9 10  2  0
 10 11  1  0
 11 12  2  0
 12 13  1  0
 12 14  1  0
 14 15  2  0
 15 16  1  0
 14 17  1  0
 11 18  1  0
 10 19  1  0
  8 20  2  0
 20 21  1  0
 21 22  1  0
 22 23  1  0
 23 24  2  0
 24 25  1  0
 25 26  2  0
 26 27  1  0
 27 28  2  0
 28 29  1  0
 26 30  1  0
 25 31  1  0
 24 32  1  0
 22 33  1  0
 22 34  1  0
  5 35  1  0
  5 36  1  0
  4 37  1  0
 37 38  1  0
 38 39  1  0
 38 40  1  0
 38 41  1  0
 37 42  2  0
 42 43  1  0
  1 44  1  0
  1 45  1  0
  1 46  1  0
 42  2  1  0
 21  6  1  0
 28 23  1  0
 15  9  1  0
M  END
>  <cnnaffinity>  (1) 
-6.42296

>  <filename>  (1) 
Cc1cc(C)n(Cc2nc(-c3ccc(Cl)cc3)nn2Cc2cccnc2)n1

$$$$
