
     RDKit          3D

 50 54  0  0  0  0  0  0  0  0999 V2000
   12.6742    1.2940   23.5007 C   0  0  0  0  0  0  0  0  0  0  0  0
   12.8305    0.2366   22.4407 C   0  0  0  0  0  0  0  0  0  0  0  0
   14.1110   -0.1462   22.0063 C   0  0  0  0  0  0  0  0  0  0  0  0
   14.2723   -1.2214   21.1254 C   0  0  0  0  0  0  0  0  0  0  0  0
   13.1828   -1.9777   20.7300 C   0  0  0  0  0  0  0  0  0  0  0  0
   11.9149   -1.6266   21.1524 C   0  0  0  0  0  0  0  0  0  0  0  0
   11.7169   -0.4440   21.8845 C   0  0  0  0  0  0  0  0  0  0  0  0
   10.3185    0.0327   21.9400 C   0  0  0  0  0  0  0  0  0  0  0  0
    9.3494   -0.7724   21.5186 N   0  0  0  0  0  0  0  0  0  0  0  0
    8.2355   -0.0330   21.6195 N   0  0  0  0  0  0  0  0  0  0  0  0
    6.9539   -0.5937   21.2011 C   0  0  0  0  0  0  0  0  0  0  0  0
    6.3507    0.1171   20.0081 C   0  0  0  0  0  0  0  0  0  0  0  0
    5.1138    0.7680   20.0217 C   0  0  0  0  0  0  0  0  0  0  0  0
    4.6967    1.4423   18.8681 C   0  0  0  0  0  0  0  0  0  0  0  0
    5.5159    1.4097   17.7374 C   0  0  0  0  0  0  0  0  0  0  0  0
    6.6845    0.7520   17.6897 N   0  0  0  0  0  0  0  0  0  0  0  0
    7.0807    0.1347   18.8063 C   0  0  0  0  0  0  0  0  0  0  0  0
    8.0384   -0.3815   18.7537 H   0  0  0  0  0  0  0  0  0  0  0  0
    5.2237    1.9268   16.8263 H   0  0  0  0  0  0  0  0  0  0  0  0
    3.7701    2.0043   18.8393 H   0  0  0  0  0  0  0  0  0  0  0  0
    4.4869    0.7565   20.9163 H   0  0  0  0  0  0  0  0  0  0  0  0
    6.2746   -0.6117   22.0590 H   0  0  0  0  0  0  0  0  0  0  0  0
    7.1833   -1.6304   20.9368 H   0  0  0  0  0  0  0  0  0  0  0  0
    8.5627    1.1943   22.0675 C   0  0  0  0  0  0  0  0  0  0  0  0
    7.5159    2.1344   22.5981 C   0  0  0  0  0  0  0  0  0  0  0  0
    7.0872    1.6545   23.9656 C   0  0  0  0  0  0  0  0  0  0  0  0
    5.9785    1.0924   24.5607 C   0  0  0  0  0  0  0  0  0  0  0  0
    6.3111    0.5316   25.7684 N   0  0  0  0  0  0  0  0  0  0  0  0
    7.6040    0.7313   25.9149 C   0  0  0  0  0  0  0  0  0  0  0  0
    8.4794    0.1856   26.9756 C   0  0  0  0  0  0  0  0  0  0  0  0
    8.7523   -1.2941   27.0633 C   0  0  0  0  0  0  0  0  0  0  0  0
    9.8585   -0.3551   26.6914 C   0  0  0  0  0  0  0  0  0  0  0  0
   10.2168   -0.3761   25.6617 H   0  0  0  0  0  0  0  0  0  0  0  0
   10.6431   -0.1484   27.4113 H   0  0  0  0  0  0  0  0  0  0  0  0
    8.3329   -1.9339   26.2927 H   0  0  0  0  0  0  0  0  0  0  0  0
    8.7396   -1.7316   28.0524 H   0  0  0  0  0  0  0  0  0  0  0  0
    8.3489    0.6893   27.9282 H   0  0  0  0  0  0  0  0  0  0  0  0
    8.0884    1.4711   24.8880 N   0  0  0  0  0  0  0  0  0  0  0  0
    9.0666    1.6431   24.6996 H   0  0  0  0  0  0  0  0  0  0  0  0
    4.9573    1.0219   24.2005 H   0  0  0  0  0  0  0  0  0  0  0  0
    6.6707    2.1992   21.9100 H   0  0  0  0  0  0  0  0  0  0  0  0
    7.9759    3.1234   22.6652 H   0  0  0  0  0  0  0  0  0  0  0  0
    9.8682    1.2697   22.2908 N   0  0  0  0  0  0  0  0  0  0  0  0
   11.0362   -2.2164   20.9012 H   0  0  0  0  0  0  0  0  0  0  0  0
   13.3457   -2.8083   20.0540 H   0  0  0  0  0  0  0  0  0  0  0  0
   15.2070   -1.4900   20.6648 H   0  0  0  0  0  0  0  0  0  0  0  0
   14.9819    0.4104   22.3482 H   0  0  0  0  0  0  0  0  0  0  0  0
   13.6466    1.5904   23.9074 H   0  0  0  0  0  0  0  0  0  0  0  0
   12.1527    2.1676   23.1006 H   0  0  0  0  0  0  0  0  0  0  0  0
   12.0811    0.9069   24.3377 H   0  0  0  0  0  0  0  0  0  0  0  0
  1  2  1  0
  2  3  2  0
  3  4  1  0
  4  5  2  0
  5  6  1  0
  6  7  2  0
  7  8  1  0
  8  9  2  0
  9 10  1  0
 10 11  1  0
 11 12  1  0
 12 13  2  0
 13 14  1  0
 14 15  2  0
 15 16  1  0
 16 17  2  0
 17 18  1  0
 15 19  1  0
 14 20  1  0
 13 21  1  0
 11 22  1  0
 11 23  1  0
 10 24  1  0
 24 25  1  0
 25 26  1  0
 26 27  2  0
 27 28  1  0
 28 29  2  0
 29 30  1  0
 30 31  1  0
 31 32  1  0
 32 33  1  0
 32 34  1  0
 31 35  1  0
 31 36  1  0
 30 37  1  0
 29 38  1  0
 38 39  1  0
 27 40  1  0
 25 41  1  0
 25 42  1  0
 24 43  2  0
  6 44  1  0
  5 45  1  0
  4 46  1  0
  3 47  1  0
  1 48  1  0
  1 49  1  0
  1 50  1  0
  7  2  1  0
 43  8  1  0
 17 12  1  0
 38 26  1  0
 32 30  1  0
M  END
>  <cnnaffinity>  (1) 
-6.97195

>  <filename>  (1) 
Cc1ccccc1-c1nc(Cc2cnc(C3CC3)[nH]2)n(Cc2cccnc2)n1

$$$$
