
     RDKit          3D

 40 44  0  0  0  0  0  0  0  0999 V2000
    8.3811    2.1119   21.5196 C   0  0  0  0  0  0  0  0  0  0  0  0
    7.2458    2.1942   22.5052 C   0  0  0  0  0  0  0  0  0  0  0  0
    6.7768    3.3960   23.0541 C   0  0  0  0  0  0  0  0  0  0  0  0
    7.3508    4.9461   22.4983 Cl  0  0  0  0  0  0  0  0  0  0  0  0
    5.8459    3.3819   24.0972 C   0  0  0  0  0  0  0  0  0  0  0  0
    5.3779    2.2521   24.6392 N   0  0  0  0  0  0  0  0  0  0  0  0
    5.7842    1.0969   24.1101 C   0  0  0  0  0  0  0  0  0  0  0  0
    6.6146    1.0197   22.9913 C   0  0  0  0  0  0  0  0  0  0  0  0
    6.8569   -0.3262   22.4680 C   0  0  0  0  0  0  0  0  0  0  0  0
    7.3173   -1.3077   23.2197 N   0  0  0  0  0  0  0  0  0  0  0  0
    7.5948   -2.2860   22.3192 C   0  0  0  0  0  0  0  0  0  0  0  0
    8.4319   -3.4904   22.6049 C   0  0  0  0  0  0  0  0  0  0  0  0
    7.9038   -4.9362   22.5403 C   0  0  0  0  0  0  0  0  0  0  0  0
    8.3780   -4.3331   23.8345 C   0  0  0  0  0  0  0  0  0  0  0  0
    9.3747   -4.6264   24.9045 C   0  0  0  0  0  0  0  0  0  0  0  0
    7.9336   -4.2297   25.2518 C   0  0  0  0  0  0  0  0  0  0  0  0
    7.2565   -4.9919   25.6305 H   0  0  0  0  0  0  0  0  0  0  0  0
    7.7627   -3.2210   25.6234 H   0  0  0  0  0  0  0  0  0  0  0  0
   10.1679   -3.8984   25.0910 H   0  0  0  0  0  0  0  0  0  0  0  0
    9.7055   -5.6593   25.0131 H   0  0  0  0  0  0  0  0  0  0  0  0
    8.5315   -5.7044   22.0803 H   0  0  0  0  0  0  0  0  0  0  0  0
    6.8285   -5.1028   22.4371 H   0  0  0  0  0  0  0  0  0  0  0  0
    9.4468   -3.3148   22.2330 H   0  0  0  0  0  0  0  0  0  0  0  0
    7.2698   -1.9932   21.0700 N   0  0  0  0  0  0  0  0  0  0  0  0
    6.7571   -0.7313   21.1605 N   0  0  0  0  0  0  0  0  0  0  0  0
    6.3214   -0.0533   19.9784 C   0  0  0  0  0  0  0  0  0  0  0  0
    5.3886    0.9957   19.9840 C   0  0  0  0  0  0  0  0  0  0  0  0
    5.0875    1.6130   18.7603 C   0  0  0  0  0  0  0  0  0  0  0  0
    5.6947    1.1601   17.5870 C   0  0  0  0  0  0  0  0  0  0  0  0
    6.5745    0.1450   17.5731 N   0  0  0  0  0  0  0  0  0  0  0  0
    6.8696   -0.4402   18.7390 C   0  0  0  0  0  0  0  0  0  0  0  0
    7.5887   -1.2550   18.7100 H   0  0  0  0  0  0  0  0  0  0  0  0
    5.4644    1.6230   16.6255 H   0  0  0  0  0  0  0  0  0  0  0  0
    4.3982    2.4502   18.7134 H   0  0  0  0  0  0  0  0  0  0  0  0
    4.9182    1.3306   20.9087 H   0  0  0  0  0  0  0  0  0  0  0  0
    5.4246    0.1899   24.5894 H   0  0  0  0  0  0  0  0  0  0  0  0
    5.4836    4.3242   24.5070 H   0  0  0  0  0  0  0  0  0  0  0  0
    8.8706    3.0766   21.3792 H   0  0  0  0  0  0  0  0  0  0  0  0
    8.0210    1.7556   20.5516 H   0  0  0  0  0  0  0  0  0  0  0  0
    9.1235    1.3897   21.8755 H   0  0  0  0  0  0  0  0  0  0  0  0
  1  2  1  0
  2  3  2  0
  3  4  1  0
  3  5  1  0
  5  6  2  0
  6  7  1  0
  7  8  2  0
  8  9  1  0
  9 10  2  0
 10 11  1  0
 11 12  1  0
 12 13  1  0
 13 14  1  0
 14 15  1  0
 15 16  1  0
 16 17  1  0
 16 18  1  0
 15 19  1  0
 15 20  1  0
 13 21  1  0
 13 22  1  0
 12 23  1  0
 11 24  2  0
 24 25  1  0
 25 26  1  0
 26 27  2  0
 27 28  1  0
 28 29  2  0
 29 30  1  0
 30 31  2  0
 31 32  1  0
 29 33  1  0
 28 34  1  0
 27 35  1  0
  7 36  1  0
  5 37  1  0
  1 38  1  0
  1 39  1  0
  1 40  1  0
  8  2  1  0
 25  9  1  0
 31 26  1  0
 14 12  1  0
 16 14  1  0
M  END
>  <cnnaffinity>  (1) 
-5.95876

>  <filename>  (1) 
Cc1c(Cl)cncc1-c1nc(C2CC23CC3)nn1-c1cccnc1

$$$$
