
     RDKit          3D

 46 49  0  0  0  0  0  0  0  0999 V2000
   14.5030    0.8076   22.8950 C   0  0  0  0  0  0  0  0  0  0  0  0
   13.4305   -0.0168   22.2612 C   0  0  0  0  0  0  0  0  0  0  0  0
   13.7817   -1.1531   21.5253 C   0  0  0  0  0  0  0  0  0  0  0  0
   12.8016   -1.9145   20.8991 C   0  0  0  0  0  0  0  0  0  0  0  0
   11.4547   -1.6450   21.1317 C   0  0  0  0  0  0  0  0  0  0  0  0
   11.0886   -0.4856   21.8275 C   0  0  0  0  0  0  0  0  0  0  0  0
    9.6818   -0.0737   21.8775 C   0  0  0  0  0  0  0  0  0  0  0  0
    8.6959   -0.8477   21.4529 N   0  0  0  0  0  0  0  0  0  0  0  0
    7.5965   -0.1085   21.6885 N   0  0  0  0  0  0  0  0  0  0  0  0
    6.2914   -0.5539   21.2203 C   0  0  0  0  0  0  0  0  0  0  0  0
    5.8471    0.1447   19.9556 C   0  0  0  0  0  0  0  0  0  0  0  0
    4.7719    1.0386   19.9388 C   0  0  0  0  0  0  0  0  0  0  0  0
    4.5577    1.8061   18.7907 C   0  0  0  0  0  0  0  0  0  0  0  0
    5.3930    1.6079   17.6880 C   0  0  0  0  0  0  0  0  0  0  0  0
    6.3780    0.6980   17.6560 N   0  0  0  0  0  0  0  0  0  0  0  0
    6.5848   -0.0139   18.7710 C   0  0  0  0  0  0  0  0  0  0  0  0
    7.3878   -0.7498   18.7285 H   0  0  0  0  0  0  0  0  0  0  0  0
    5.2645    2.2004   16.7848 H   0  0  0  0  0  0  0  0  0  0  0  0
    3.7819    2.5625   18.7515 H   0  0  0  0  0  0  0  0  0  0  0  0
    4.1203    1.1426   20.8114 H   0  0  0  0  0  0  0  0  0  0  0  0
    6.3893   -1.6349   21.0823 H   0  0  0  0  0  0  0  0  0  0  0  0
    5.5866   -0.3413   22.0208 H   0  0  0  0  0  0  0  0  0  0  0  0
    7.9601    1.0803   22.2042 C   0  0  0  0  0  0  0  0  0  0  0  0
    6.9942    2.0385   22.8113 C   0  0  0  0  0  0  0  0  0  0  0  0
    6.5322    1.5021   24.0892 N   0  0  0  0  0  0  0  0  0  0  0  0
    5.3516    0.8654   24.1042 N   0  0  0  0  0  0  0  0  0  0  0  0
    5.3164    0.1975   25.2476 C   0  0  0  0  0  0  0  0  0  0  0  0
    6.5089    0.3960   25.9643 C   0  0  0  0  0  0  0  0  0  0  0  0
    6.9731   -0.3078   27.4689 Cl  0  0  0  0  0  0  0  0  0  0  0  0
    7.2848    1.2429   25.2000 C   0  0  0  0  0  0  0  0  0  0  0  0
    8.6715    1.7446   25.4579 C   0  0  0  0  0  0  0  0  0  0  0  0
    8.8988    2.6435   24.8785 H   0  0  0  0  0  0  0  0  0  0  0  0
    8.8006    1.9661   26.5198 H   0  0  0  0  0  0  0  0  0  0  0  0
    9.4047    0.9788   25.1778 H   0  0  0  0  0  0  0  0  0  0  0  0
    4.4654   -0.4195   25.5056 H   0  0  0  0  0  0  0  0  0  0  0  0
    7.4961    2.9926   22.9801 H   0  0  0  0  0  0  0  0  0  0  0  0
    6.1211    2.1908   22.1755 H   0  0  0  0  0  0  0  0  0  0  0  0
    9.2687    1.1392   22.3401 N   0  0  0  0  0  0  0  0  0  0  0  0
   12.0864    0.3331   22.3752 C   0  0  0  0  0  0  0  0  0  0  0  0
   11.8172    1.2580   22.8810 H   0  0  0  0  0  0  0  0  0  0  0  0
   10.6694   -2.3015   20.7588 H   0  0  0  0  0  0  0  0  0  0  0  0
   13.1029   -2.6850   20.2007 H   0  0  0  0  0  0  0  0  0  0  0  0
   14.8230   -1.4446   21.4524 H   0  0  0  0  0  0  0  0  0  0  0  0
   14.8075    0.3689   23.8495 H   0  0  0  0  0  0  0  0  0  0  0  0
   15.3622    0.8659   22.2227 H   0  0  0  0  0  0  0  0  0  0  0  0
   14.1711    1.8234   23.1030 H   0  0  0  0  0  0  0  0  0  0  0  0
  1  2  1  0
  2  3  2  0
  3  4  1  0
  4  5  2  0
  5  6  1  0
  6  7  1  0
  7  8  2  0
  8  9  1  0
  9 10  1  0
 10 11  1  0
 11 12  2  0
 12 13  1  0
 13 14  2  0
 14 15  1  0
 15 16  2  0
 16 17  1  0
 14 18  1  0
 13 19  1  0
 12 20  1  0
 10 21  1  0
 10 22  1  0
  9 23  1  0
 23 24  1  0
 24 25  1  0
 25 26  1  0
 26 27  2  0
 27 28  1  0
 28 29  1  0
 28 30  2  0
 30 31  1  0
 31 32  1  0
 31 33  1  0
 31 34  1  0
 27 35  1  0
 24 36  1  0
 24 37  1  0
 23 38  2  0
  6 39  2  0
 39 40  1  0
  5 41  1  0
  4 42  1  0
  3 43  1  0
  1 44  1  0
  1 45  1  0
  1 46  1  0
 39  2  1  0
 38  7  1  0
 16 11  1  0
 30 25  1  0
M  END
>  <cnnaffinity>  (1) 
-6.54172

>  <filename>  (1) 
Cc1cccc(-c2nc(Cn3ncc(Cl)c3C)n(Cc3cccnc3)n2)c1

$$$$
