
     RDKit          3D

 43 46  0  0  0  0  0  0  0  0999 V2000
    5.3354   -4.2847   22.5519 C   0  0  0  0  0  0  0  0  0  0  0  0
    6.3270   -4.1838   23.6881 C   0  0  0  0  0  0  0  0  0  0  0  0
    6.1839   -5.0455   24.7873 C   0  0  0  0  0  0  0  0  0  0  0  0
    7.0257   -4.9878   25.9000 C   0  0  0  0  0  0  0  0  0  0  0  0
    8.0454   -4.0378   25.9428 C   0  0  0  0  0  0  0  0  0  0  0  0
    8.2265   -3.1823   24.8662 C   0  0  0  0  0  0  0  0  0  0  0  0
    7.3932   -3.2471   23.7287 C   0  0  0  0  0  0  0  0  0  0  0  0
    7.6653   -2.2708   22.6513 C   0  0  0  0  0  0  0  0  0  0  0  0
    6.8482   -1.8891   21.6822 N   0  0  0  0  0  0  0  0  0  0  0  0
    7.5254   -0.8795   21.0705 N   0  0  0  0  0  0  0  0  0  0  0  0
    6.8731   -0.1499   20.0219 C   0  0  0  0  0  0  0  0  0  0  0  0
    5.6498    0.4944   20.2740 C   0  0  0  0  0  0  0  0  0  0  0  0
    5.0567    1.2126   19.2305 C   0  0  0  0  0  0  0  0  0  0  0  0
    5.6783    1.2360   17.9766 C   0  0  0  0  0  0  0  0  0  0  0  0
    6.8338    0.6007   17.7174 N   0  0  0  0  0  0  0  0  0  0  0  0
    7.4097   -0.0730   18.7229 C   0  0  0  0  0  0  0  0  0  0  0  0
    8.3387   -0.5926   18.4804 H   0  0  0  0  0  0  0  0  0  0  0  0
    5.2270    1.7778   17.1479 H   0  0  0  0  0  0  0  0  0  0  0  0
    4.1221    1.7494   19.3767 H   0  0  0  0  0  0  0  0  0  0  0  0
    5.1814    0.4302   21.2595 H   0  0  0  0  0  0  0  0  0  0  0  0
    8.7263   -0.7134   21.7093 C   0  0  0  0  0  0  0  0  0  0  0  0
    9.7078    0.3997   21.4886 C   0  0  0  0  0  0  0  0  0  0  0  0
    9.1848    1.7308   21.9639 C   0  0  0  0  0  0  0  0  0  0  0  0
    9.2364    2.2769   23.2193 C   0  0  0  0  0  0  0  0  0  0  0  0
    8.4702    3.4061   23.1888 N   0  0  0  0  0  0  0  0  0  0  0  0
    8.1587    4.2780   24.2753 C   0  0  0  0  0  0  0  0  0  0  0  0
    9.2870    4.5423   24.9943 F   0  0  0  0  0  0  0  0  0  0  0  0
    7.2756    3.6839   25.1227 F   0  0  0  0  0  0  0  0  0  0  0  0
    7.7408    5.1910   23.8540 H   0  0  0  0  0  0  0  0  0  0  0  0
    7.9375    3.6229   21.9695 N   0  0  0  0  0  0  0  0  0  0  0  0
    8.3754    2.6175   21.2311 C   0  0  0  0  0  0  0  0  0  0  0  0
    8.1119    2.4770   20.1963 H   0  0  0  0  0  0  0  0  0  0  0  0
    9.7624    2.0043   24.1238 H   0  0  0  0  0  0  0  0  0  0  0  0
   10.6116    0.1366   22.0486 H   0  0  0  0  0  0  0  0  0  0  0  0
    9.9484    0.4375   20.4236 H   0  0  0  0  0  0  0  0  0  0  0  0
    8.8380   -1.5804   22.6776 N   0  0  0  0  0  0  0  0  0  0  0  0
    9.0223   -2.4402   24.8886 H   0  0  0  0  0  0  0  0  0  0  0  0
    8.7025   -3.9591   26.8034 H   0  0  0  0  0  0  0  0  0  0  0  0
    6.8817   -5.6695   26.7334 H   0  0  0  0  0  0  0  0  0  0  0  0
    5.3822   -5.7784   24.7647 H   0  0  0  0  0  0  0  0  0  0  0  0
    5.8267   -4.4329   21.5868 H   0  0  0  0  0  0  0  0  0  0  0  0
    4.7475   -3.3672   22.4560 H   0  0  0  0  0  0  0  0  0  0  0  0
    4.6436   -5.1173   22.7161 H   0  0  0  0  0  0  0  0  0  0  0  0
  1  2  1  0
  2  3  2  0
  3  4  1  0
  4  5  2  0
  5  6  1  0
  6  7  2  0
  7  8  1  0
  8  9  2  0
  9 10  1  0
 10 11  1  0
 11 12  2  0
 12 13  1  0
 13 14  2  0
 14 15  1  0
 15 16  2  0
 16 17  1  0
 14 18  1  0
 13 19  1  0
 12 20  1  0
 10 21  1  0
 21 22  1  0
 22 23  1  0
 23 24  2  0
 24 25  1  0
 25 26  1  0
 26 27  1  0
 26 28  1  0
 26 29  1  0
 25 30  1  0
 30 31  2  0
 31 32  1  0
 24 33  1  0
 22 34  1  0
 22 35  1  0
 21 36  2  0
  6 37  1  0
  5 38  1  0
  4 39  1  0
  3 40  1  0
  1 41  1  0
  1 42  1  0
  1 43  1  0
  7  2  1  0
 36  8  1  0
 16 11  1  0
 31 23  1  0
M  END
>  <cnnaffinity>  (1) 
-6.056

>  <filename>  (1) 
Cc1ccccc1-c1nc(Cc2cnn(C(F)F)c2)n(-c2cccnc2)n1

$$$$
