
     RDKit          3D

 49 52  0  0  0  0  0  0  0  0999 V2000
    6.8115   -5.9097   26.7281 C   0  0  0  0  0  0  0  0  0  0  0  0
    7.0495   -4.8984   25.6405 C   0  0  0  0  0  0  0  0  0  0  0  0
    6.0357   -4.5807   24.7248 C   0  0  0  0  0  0  0  0  0  0  0  0
    6.2349   -3.6271   23.7323 C   0  0  0  0  0  0  0  0  0  0  0  0
    7.4720   -2.9591   23.6286 C   0  0  0  0  0  0  0  0  0  0  0  0
    7.6845   -1.9472   22.5717 C   0  0  0  0  0  0  0  0  0  0  0  0
    6.7529   -1.5984   21.6979 N   0  0  0  0  0  0  0  0  0  0  0  0
    7.3698   -0.6610   20.9416 N   0  0  0  0  0  0  0  0  0  0  0  0
    6.6628    0.0107   19.9032 C   0  0  0  0  0  0  0  0  0  0  0  0
    5.4421    0.6437   20.1676 C   0  0  0  0  0  0  0  0  0  0  0  0
    4.8118    1.3098   19.1106 C   0  0  0  0  0  0  0  0  0  0  0  0
    5.4021    1.2951   17.8391 C   0  0  0  0  0  0  0  0  0  0  0  0
    6.5638    0.6753   17.5782 N   0  0  0  0  0  0  0  0  0  0  0  0
    7.1727    0.0569   18.5958 C   0  0  0  0  0  0  0  0  0  0  0  0
    8.1157   -0.4355   18.3734 H   0  0  0  0  0  0  0  0  0  0  0  0
    4.9149    1.7816   16.9959 H   0  0  0  0  0  0  0  0  0  0  0  0
    3.8774    1.8411   19.2623 H   0  0  0  0  0  0  0  0  0  0  0  0
    5.0137    0.6116   21.1730 H   0  0  0  0  0  0  0  0  0  0  0  0
    8.6332   -0.4712   21.4198 C   0  0  0  0  0  0  0  0  0  0  0  0
    9.5366    0.6076   20.9249 C   0  0  0  0  0  0  0  0  0  0  0  0
    9.0375    2.0256   21.2527 C   0  0  0  0  0  0  0  0  0  0  0  0
    8.8923    2.2649   22.7566 C   0  0  0  0  0  0  0  0  0  0  0  0
    8.3991    3.6127   23.0537 N   0  0  0  0  0  0  0  0  0  0  0  0
    7.0387    3.8464   23.0896 C   0  0  0  0  0  0  0  0  0  0  0  0
    6.5339    5.0942   23.2935 C   0  0  0  0  0  0  0  0  0  0  0  0
    7.4283    6.2023   23.4450 C   0  0  0  0  0  0  0  0  0  0  0  0
    8.7704    5.9923   23.3715 C   0  0  0  0  0  0  0  0  0  0  0  0
    9.3463    4.6688   23.1477 C   0  0  0  0  0  0  0  0  0  0  0  0
   10.5530    4.4625   23.0783 O   0  0  0  0  0  0  0  0  0  0  0  0
    9.5093    6.7737   23.4708 H   0  0  0  0  0  0  0  0  0  0  0  0
    7.0227    7.2039   23.6111 H   0  0  0  0  0  0  0  0  0  0  0  0
    5.4595    5.2462   23.3336 H   0  0  0  0  0  0  0  0  0  0  0  0
    6.3977    2.9718   22.9467 H   0  0  0  0  0  0  0  0  0  0  0  0
    8.2115    1.5271   23.2003 H   0  0  0  0  0  0  0  0  0  0  0  0
    9.8548    2.1386   23.2562 H   0  0  0  0  0  0  0  0  0  0  0  0
    8.0725    2.2019   20.7630 H   0  0  0  0  0  0  0  0  0  0  0  0
    9.7460    2.7548   20.8543 H   0  0  0  0  0  0  0  0  0  0  0  0
    9.6495    0.5040   19.8432 H   0  0  0  0  0  0  0  0  0  0  0  0
   10.5186    0.4344   21.3758 H   0  0  0  0  0  0  0  0  0  0  0  0
    8.8614   -1.2777   22.4293 N   0  0  0  0  0  0  0  0  0  0  0  0
    8.4941   -3.2697   24.5504 C   0  0  0  0  0  0  0  0  0  0  0  0
    8.2771   -4.2265   25.5383 C   0  0  0  0  0  0  0  0  0  0  0  0
    9.0656   -4.4583   26.2514 H   0  0  0  0  0  0  0  0  0  0  0  0
    9.4571   -2.7632   24.4994 H   0  0  0  0  0  0  0  0  0  0  0  0
    5.4336   -3.3880   23.0356 H   0  0  0  0  0  0  0  0  0  0  0  0
    5.0752   -5.0839   24.8012 H   0  0  0  0  0  0  0  0  0  0  0  0
    7.7352   -6.4178   27.0196 H   0  0  0  0  0  0  0  0  0  0  0  0
    6.4094   -5.4241   27.6236 H   0  0  0  0  0  0  0  0  0  0  0  0
    6.0923   -6.6748   26.4212 H   0  0  0  0  0  0  0  0  0  0  0  0
  1  2  1  0
  2  3  2  0
  3  4  1  0
  4  5  2  0
  5  6  1  0
  6  7  2  0
  7  8  1  0
  8  9  1  0
  9 10  2  0
 10 11  1  0
 11 12  2  0
 12 13  1  0
 13 14  2  0
 14 15  1  0
 12 16  1  0
 11 17  1  0
 10 18  1  0
  8 19  1  0
 19 20  1  0
 20 21  1  0
 21 22  1  0
 22 23  1  0
 23 24  1  0
 24 25  2  0
 25 26  1  0
 26 27  2  0
 27 28  1  0
 28 29  2  0
 27 30  1  0
 26 31  1  0
 25 32  1  0
 24 33  1  0
 22 34  1  0
 22 35  1  0
 21 36  1  0
 21 37  1  0
 20 38  1  0
 20 39  1  0
 19 40  2  0
  5 41  1  0
 41 42  2  0
 42 43  1  0
 41 44  1  0
  4 45  1  0
  3 46  1  0
  1 47  1  0
  1 48  1  0
  1 49  1  0
 42  2  1  0
 40  6  1  0
 14  9  1  0
 28 23  1  0
M  END
>  <cnnaffinity>  (1) 
-6.07955

>  <filename>  (1) 
Cc1ccc(-c2nc(CCCn3ccccc3=O)n(-c3cccnc3)n2)cc1

$$$$
