
     RDKit          3D

 44 48  0  0  0  0  0  0  0  0999 V2000
    8.0654    0.5311   27.5330 C   0  0  0  0  0  0  0  0  0  0  0  0
    7.2325    0.9982   26.3658 C   0  0  0  0  0  0  0  0  0  0  0  0
    5.8609    1.2396   26.5402 C   0  0  0  0  0  0  0  0  0  0  0  0
    5.0551    1.6315   25.4698 C   0  0  0  0  0  0  0  0  0  0  0  0
    5.6075    1.7507   24.1903 C   0  0  0  0  0  0  0  0  0  0  0  0
    6.9638    1.4815   23.9843 C   0  0  0  0  0  0  0  0  0  0  0  0
    7.5364    1.3734   22.5805 C   0  0  0  0  0  0  0  0  0  0  0  0
    7.6028   -0.0620   22.1365 C   0  0  0  0  0  0  0  0  0  0  0  0
    8.3129   -0.9721   22.7715 N   0  0  0  0  0  0  0  0  0  0  0  0
    8.1357   -2.0853   22.0245 C   0  0  0  0  0  0  0  0  0  0  0  0
    8.8899   -3.3380   22.2692 C   0  0  0  0  0  0  0  0  0  0  0  0
    8.2552   -4.6758   22.0422 C   0  0  0  0  0  0  0  0  0  0  0  0
    8.8132   -4.3573   23.4409 C   0  0  0  0  0  0  0  0  0  0  0  0
    9.8008   -4.2459   24.5788 C   0  0  0  0  0  0  0  0  0  0  0  0
    8.7923   -5.3598   24.5933 C   0  0  0  0  0  0  0  0  0  0  0  0
    7.9785   -5.3218   25.3151 H   0  0  0  0  0  0  0  0  0  0  0  0
    9.1520   -6.3615   24.3419 H   0  0  0  0  0  0  0  0  0  0  0  0
   10.8551   -4.4569   24.3909 H   0  0  0  0  0  0  0  0  0  0  0  0
    9.6186   -3.4237   25.2740 H   0  0  0  0  0  0  0  0  0  0  0  0
    8.7136   -5.4934   21.4807 H   0  0  0  0  0  0  0  0  0  0  0  0
    7.1673   -4.6793   21.9568 H   0  0  0  0  0  0  0  0  0  0  0  0
    9.9259   -3.1518   21.9806 H   0  0  0  0  0  0  0  0  0  0  0  0
    7.4104   -1.9172   20.9328 N   0  0  0  0  0  0  0  0  0  0  0  0
    7.0431   -0.6088   21.0139 N   0  0  0  0  0  0  0  0  0  0  0  0
    6.4232    0.0265   19.9011 C   0  0  0  0  0  0  0  0  0  0  0  0
    5.2697    0.8090   20.0390 C   0  0  0  0  0  0  0  0  0  0  0  0
    4.7671    1.4479   18.9003 C   0  0  0  0  0  0  0  0  0  0  0  0
    5.4321    1.2870   17.6837 C   0  0  0  0  0  0  0  0  0  0  0  0
    6.5328    0.5246   17.5420 N   0  0  0  0  0  0  0  0  0  0  0  0
    7.0018   -0.0971   18.6250 C   0  0  0  0  0  0  0  0  0  0  0  0
    7.8898   -0.7131   18.4956 H   0  0  0  0  0  0  0  0  0  0  0  0
    5.0781    1.7871   16.7867 H   0  0  0  0  0  0  0  0  0  0  0  0
    3.8888    2.0826   18.9541 H   0  0  0  0  0  0  0  0  0  0  0  0
    4.7750    0.9009   21.0048 H   0  0  0  0  0  0  0  0  0  0  0  0
    6.9667    1.9678   21.8643 H   0  0  0  0  0  0  0  0  0  0  0  0
    8.5594    1.7665   22.5616 H   0  0  0  0  0  0  0  0  0  0  0  0
    7.7743    1.1607   25.0854 C   0  0  0  0  0  0  0  0  0  0  0  0
    8.8308    0.9691   24.9093 H   0  0  0  0  0  0  0  0  0  0  0  0
    4.9724    2.0310   23.3508 H   0  0  0  0  0  0  0  0  0  0  0  0
    3.9956    1.8076   25.6266 H   0  0  0  0  0  0  0  0  0  0  0  0
    5.4301    1.1248   27.5319 H   0  0  0  0  0  0  0  0  0  0  0  0
    7.5971   -0.3362   28.0097 H   0  0  0  0  0  0  0  0  0  0  0  0
    9.0787    0.2423   27.2375 H   0  0  0  0  0  0  0  0  0  0  0  0
    8.1469    1.3139   28.2939 H   0  0  0  0  0  0  0  0  0  0  0  0
  1  2  1  0
  2  3  2  0
  3  4  1  0
  4  5  2  0
  5  6  1  0
  6  7  1  0
  7  8  1  0
  8  9  2  0
  9 10  1  0
 10 11  1  0
 11 12  1  0
 12 13  1  0
 13 14  1  0
 14 15  1  0
 15 16  1  0
 15 17  1  0
 14 18  1  0
 14 19  1  0
 12 20  1  0
 12 21  1  0
 11 22  1  0
 10 23  2  0
 23 24  1  0
 24 25  1  0
 25 26  2  0
 26 27  1  0
 27 28  2  0
 28 29  1  0
 29 30  2  0
 30 31  1  0
 28 32  1  0
 27 33  1  0
 26 34  1  0
  7 35  1  0
  7 36  1  0
  6 37  2  0
 37 38  1  0
  5 39  1  0
  4 40  1  0
  3 41  1  0
  1 42  1  0
  1 43  1  0
  1 44  1  0
 37  2  1  0
 24  8  1  0
 30 25  1  0
 13 11  1  0
 15 13  1  0
M  END
>  <cnnaffinity>  (1) 
-6.66627

>  <filename>  (1) 
Cc1cccc(Cc2nc(C3CC34CC4)nn2-c2cccnc2)c1

$$$$
