
     RDKit          3D

 45 48  0  0  0  0  0  0  0  0999 V2000
    4.7070   -0.6282   26.0923 C   0  0  0  0  0  0  0  0  0  0  0  0
    6.0396   -0.0389   25.6968 C   0  0  0  0  0  0  0  0  0  0  0  0
    7.1600   -0.2099   26.5180 C   0  0  0  0  0  0  0  0  0  0  0  0
    8.3780    0.3503   26.1442 C   0  0  0  0  0  0  0  0  0  0  0  0
    9.4550    0.1347   26.9151 F   0  0  0  0  0  0  0  0  0  0  0  0
    8.5213    1.0918   24.9831 C   0  0  0  0  0  0  0  0  0  0  0  0
    7.4130    1.2511   24.1332 C   0  0  0  0  0  0  0  0  0  0  0  0
    7.6462    1.8990   22.7643 C   0  0  0  0  0  0  0  0  0  0  0  0
    8.6289    1.0589   22.0079 C   0  0  0  0  0  0  0  0  0  0  0  0
    9.9453    1.1741   22.1050 N   0  0  0  0  0  0  0  0  0  0  0  0
   10.3805   -0.0479   21.7385 C   0  0  0  0  0  0  0  0  0  0  0  0
   11.7706   -0.4594   21.7589 C   0  0  0  0  0  0  0  0  0  0  0  0
   12.8411    0.2990   22.2527 C   0  0  0  0  0  0  0  0  0  0  0  0
   14.1029   -0.1750   21.9470 C   0  0  0  0  0  0  0  0  0  0  0  0
   15.1345    0.5882   22.3060 F   0  0  0  0  0  0  0  0  0  0  0  0
   14.2739   -1.3337   21.1726 C   0  0  0  0  0  0  0  0  0  0  0  0
   13.2421   -2.0854   20.7847 N   0  0  0  0  0  0  0  0  0  0  0  0
   12.0247   -1.6732   21.1177 C   0  0  0  0  0  0  0  0  0  0  0  0
   11.1752   -2.2806   20.8366 H   0  0  0  0  0  0  0  0  0  0  0  0
   15.2285   -1.6296   20.7776 H   0  0  0  0  0  0  0  0  0  0  0  0
   12.7565    1.2428   22.7924 H   0  0  0  0  0  0  0  0  0  0  0  0
    9.4273   -0.8725   21.3363 N   0  0  0  0  0  0  0  0  0  0  0  0
    8.3039   -0.1492   21.4986 N   0  0  0  0  0  0  0  0  0  0  0  0
    7.0241   -0.7055   21.0646 C   0  0  0  0  0  0  0  0  0  0  0  0
    6.3860    0.0430   19.9144 C   0  0  0  0  0  0  0  0  0  0  0  0
    5.1714    0.7268   20.0318 C   0  0  0  0  0  0  0  0  0  0  0  0
    4.6680    1.4084   18.9203 C   0  0  0  0  0  0  0  0  0  0  0  0
    5.3992    1.3808   17.7293 C   0  0  0  0  0  0  0  0  0  0  0  0
    6.5574    0.7171   17.5922 N   0  0  0  0  0  0  0  0  0  0  0  0
    7.0300    0.0721   18.6647 C   0  0  0  0  0  0  0  0  0  0  0  0
    7.9729   -0.4571   18.5228 H   0  0  0  0  0  0  0  0  0  0  0  0
    5.0433    1.9113   16.8464 H   0  0  0  0  0  0  0  0  0  0  0  0
    3.7410    1.9676   18.9648 H   0  0  0  0  0  0  0  0  0  0  0  0
    4.6250    0.7287   20.9789 H   0  0  0  0  0  0  0  0  0  0  0  0
    6.3578   -0.7430   21.9322 H   0  0  0  0  0  0  0  0  0  0  0  0
    7.2452   -1.7405   20.7811 H   0  0  0  0  0  0  0  0  0  0  0  0
    6.7217    2.0033   22.1890 H   0  0  0  0  0  0  0  0  0  0  0  0
    8.1037    2.8855   22.8744 H   0  0  0  0  0  0  0  0  0  0  0  0
    6.1870    0.6920   24.5013 C   0  0  0  0  0  0  0  0  0  0  0  0
    5.3241    0.8106   23.8498 H   0  0  0  0  0  0  0  0  0  0  0  0
    9.4963    1.4846   24.7091 H   0  0  0  0  0  0  0  0  0  0  0  0
    7.1150   -0.7901   27.4341 H   0  0  0  0  0  0  0  0  0  0  0  0
    4.8298   -1.4121   26.8462 H   0  0  0  0  0  0  0  0  0  0  0  0
    4.0439    0.1374   26.5127 H   0  0  0  0  0  0  0  0  0  0  0  0
    4.1989   -1.0728   25.2307 H   0  0  0  0  0  0  0  0  0  0  0  0
  1  2  1  0
  2  3  2  0
  3  4  1  0
  4  5  1  0
  4  6  2  0
  6  7  1  0
  7  8  1  0
  8  9  1  0
  9 10  2  0
 10 11  1  0
 11 12  1  0
 12 13  2  0
 13 14  1  0
 14 15  1  0
 14 16  2  0
 16 17  1  0
 17 18  2  0
 18 19  1  0
 16 20  1  0
 13 21  1  0
 11 22  2  0
 22 23  1  0
 23 24  1  0
 24 25  1  0
 25 26  2  0
 26 27  1  0
 27 28  2  0
 28 29  1  0
 29 30  2  0
 30 31  1  0
 28 32  1  0
 27 33  1  0
 26 34  1  0
 24 35  1  0
 24 36  1  0
  8 37  1  0
  8 38  1  0
  7 39  2  0
 39 40  1  0
  6 41  1  0
  3 42  1  0
  1 43  1  0
  1 44  1  0
  1 45  1  0
 39  2  1  0
 23  9  1  0
 30 25  1  0
 18 12  1  0
M  END
>  <cnnaffinity>  (1) 
-6.87972

>  <filename>  (1) 
Cc1cc(F)cc(Cc2nc(-c3cncc(F)c3)nn2Cc2cccnc2)c1

$$$$
