
     RDKit          3D

 41 45  0  0  0  0  0  0  0  0999 V2000
   13.5415    0.6792   23.7053 C   0  0  0  0  0  0  0  0  0  0  0  0
   12.2167    0.8409   23.0167 C   0  0  0  0  0  0  0  0  0  0  0  0
   11.4385    1.9588   23.0083 C   0  0  0  0  0  0  0  0  0  0  0  0
   10.2499    1.8181   22.2304 C   0  0  0  0  0  0  0  0  0  0  0  0
   10.1340    0.5882   21.6653 C   0  0  0  0  0  0  0  0  0  0  0  0
    9.0323    0.1162   20.7666 C   0  0  0  0  0  0  0  0  0  0  0  0
    7.9014   -0.6068   21.4353 C   0  0  0  0  0  0  0  0  0  0  0  0
    7.9346   -1.2978   22.5540 N   0  0  0  0  0  0  0  0  0  0  0  0
    6.7197   -1.9037   22.5821 C   0  0  0  0  0  0  0  0  0  0  0  0
    6.4047   -2.9191   23.6058 C   0  0  0  0  0  0  0  0  0  0  0  0
    5.2958   -3.9272   23.3147 C   0  0  0  0  0  0  0  0  0  0  0  0
    6.7355   -4.3270   23.2128 C   0  0  0  0  0  0  0  0  0  0  0  0
    7.7630   -4.8054   22.2657 C   0  0  0  0  0  0  0  0  0  0  0  0
    7.5849   -5.4506   23.6507 C   0  0  0  0  0  0  0  0  0  0  0  0
    8.3042   -5.2684   24.4458 H   0  0  0  0  0  0  0  0  0  0  0  0
    7.1149   -6.4286   23.6533 H   0  0  0  0  0  0  0  0  0  0  0  0
    8.6168   -4.1338   22.1197 H   0  0  0  0  0  0  0  0  0  0  0  0
    7.4057   -5.3569   21.3968 H   0  0  0  0  0  0  0  0  0  0  0  0
    4.7433   -4.3251   24.1632 H   0  0  0  0  0  0  0  0  0  0  0  0
    4.7356   -3.8018   22.3856 H   0  0  0  0  0  0  0  0  0  0  0  0
    6.6798   -2.6251   24.6160 H   0  0  0  0  0  0  0  0  0  0  0  0
    5.9381   -1.6215   21.5529 N   0  0  0  0  0  0  0  0  0  0  0  0
    6.6911   -0.7769   20.8149 N   0  0  0  0  0  0  0  0  0  0  0  0
    6.1334   -0.1208   19.6789 C   0  0  0  0  0  0  0  0  0  0  0  0
    5.0046    0.6965   19.8070 C   0  0  0  0  0  0  0  0  0  0  0  0
    4.6079    1.4371   18.6899 C   0  0  0  0  0  0  0  0  0  0  0  0
    5.3253    1.3062   17.4925 C   0  0  0  0  0  0  0  0  0  0  0  0
    6.3470    0.4503   17.3379 N   0  0  0  0  0  0  0  0  0  0  0  0
    6.7255   -0.2524   18.4114 C   0  0  0  0  0  0  0  0  0  0  0  0
    7.5490   -0.9520   18.2847 H   0  0  0  0  0  0  0  0  0  0  0  0
    5.0629    1.9021   16.6228 H   0  0  0  0  0  0  0  0  0  0  0  0
    3.7669    2.1210   18.7393 H   0  0  0  0  0  0  0  0  0  0  0  0
    4.4763    0.7484   20.7605 H   0  0  0  0  0  0  0  0  0  0  0  0
    9.4437   -0.5648   20.0120 H   0  0  0  0  0  0  0  0  0  0  0  0
    8.6054    0.9774   20.2421 H   0  0  0  0  0  0  0  0  0  0  0  0
   11.4752   -0.4208   22.0909 S   0  0  0  0  0  0  0  0  0  0  0  0
    9.5118    2.6047   22.0879 H   0  0  0  0  0  0  0  0  0  0  0  0
   11.7272    2.8654   23.5290 H   0  0  0  0  0  0  0  0  0  0  0  0
   13.4108    0.6316   24.7933 H   0  0  0  0  0  0  0  0  0  0  0  0
   14.1637    1.5586   23.5121 H   0  0  0  0  0  0  0  0  0  0  0  0
   14.0857   -0.2097   23.3811 H   0  0  0  0  0  0  0  0  0  0  0  0
  1  2  1  0
  2  3  2  0
  3  4  1  0
  4  5  2  0
  5  6  1  0
  6  7  1  0
  7  8  2  0
  8  9  1  0
  9 10  1  0
 10 11  1  0
 11 12  1  0
 12 13  1  0
 13 14  1  0
 14 15  1  0
 14 16  1  0
 13 17  1  0
 13 18  1  0
 11 19  1  0
 11 20  1  0
 10 21  1  0
  9 22  2  0
 22 23  1  0
 23 24  1  0
 24 25  2  0
 25 26  1  0
 26 27  2  0
 27 28  1  0
 28 29  2  0
 29 30  1  0
 27 31  1  0
 26 32  1  0
 25 33  1  0
  6 34  1  0
  6 35  1  0
  5 36  1  0
  4 37  1  0
  3 38  1  0
  1 39  1  0
  1 40  1  0
  1 41  1  0
 36  2  1  0
 23  7  1  0
 29 24  1  0
 12 10  1  0
 14 12  1  0
M  END
>  <cnnaffinity>  (1) 
-6.25702

>  <filename>  (1) 
Cc1ccc(Cc2nc(C3CC34CC4)nn2-c2cccnc2)s1

$$$$
