
     RDKit          3D

 44 47  0  0  0  0  0  0  0  0999 V2000
   11.9631   -1.1551   21.9671 C   0  0  0  0  0  0  0  0  0  0  0  0
   11.5256    0.2454   22.3230 C   0  0  0  0  0  0  0  0  0  0  0  0
   12.2491    0.9762   23.2744 C   0  0  0  0  0  0  0  0  0  0  0  0
   11.7542    2.1781   23.7864 C   0  0  0  0  0  0  0  0  0  0  0  0
   10.5417    2.6885   23.3193 C   0  0  0  0  0  0  0  0  0  0  0  0
    9.8704    2.0102   22.2976 C   0  0  0  0  0  0  0  0  0  0  0  0
    8.3545    2.6704   21.7370 Cl  0  0  0  0  0  0  0  0  0  0  0  0
   10.3633    0.8180   21.7522 C   0  0  0  0  0  0  0  0  0  0  0  0
    9.5822    0.0867   20.6775 C   0  0  0  0  0  0  0  0  0  0  0  0
    8.5318   -0.7870   21.2794 C   0  0  0  0  0  0  0  0  0  0  0  0
    8.7238   -1.5998   22.3017 N   0  0  0  0  0  0  0  0  0  0  0  0
    7.5200   -2.1776   22.4771 C   0  0  0  0  0  0  0  0  0  0  0  0
    7.3096   -3.1704   23.5602 C   0  0  0  0  0  0  0  0  0  0  0  0
    6.6337   -4.4956   23.1446 C   0  0  0  0  0  0  0  0  0  0  0  0
    5.9996   -4.9709   24.4645 C   0  0  0  0  0  0  0  0  0  0  0  0
    6.0186   -3.8659   25.3596 O   0  0  0  0  0  0  0  0  0  0  0  0
    6.3615   -2.6872   24.6631 C   0  0  0  0  0  0  0  0  0  0  0  0
    5.4747   -2.1958   24.2289 H   0  0  0  0  0  0  0  0  0  0  0  0
    6.8288   -2.0042   25.3800 H   0  0  0  0  0  0  0  0  0  0  0  0
    4.9661   -5.3132   24.3191 H   0  0  0  0  0  0  0  0  0  0  0  0
    6.5647   -5.7884   24.9278 H   0  0  0  0  0  0  0  0  0  0  0  0
    5.8604   -4.2904   22.3915 H   0  0  0  0  0  0  0  0  0  0  0  0
    7.3323   -5.2213   22.7133 H   0  0  0  0  0  0  0  0  0  0  0  0
    8.2937   -3.3495   24.0051 H   0  0  0  0  0  0  0  0  0  0  0  0
    6.5819   -1.7813   21.6397 N   0  0  0  0  0  0  0  0  0  0  0  0
    7.2482   -0.9066   20.8429 N   0  0  0  0  0  0  0  0  0  0  0  0
    6.5748   -0.1909   19.8232 C   0  0  0  0  0  0  0  0  0  0  0  0
    5.4338    0.5581   20.1228 C   0  0  0  0  0  0  0  0  0  0  0  0
    4.8569    1.3025   19.0936 C   0  0  0  0  0  0  0  0  0  0  0  0
    5.4223    1.2545   17.8121 C   0  0  0  0  0  0  0  0  0  0  0  0
    6.5080    0.5183   17.5188 N   0  0  0  0  0  0  0  0  0  0  0  0
    7.0633   -0.1853   18.5073 C   0  0  0  0  0  0  0  0  0  0  0  0
    7.9548   -0.7655   18.2664 H   0  0  0  0  0  0  0  0  0  0  0  0
    4.9877    1.8175   16.9900 H   0  0  0  0  0  0  0  0  0  0  0  0
    3.9783    1.9145   19.2682 H   0  0  0  0  0  0  0  0  0  0  0  0
    5.0413    0.5479   21.1408 H   0  0  0  0  0  0  0  0  0  0  0  0
    9.1477    0.8103   19.9868 H   0  0  0  0  0  0  0  0  0  0  0  0
   10.2363   -0.5654   20.0948 H   0  0  0  0  0  0  0  0  0  0  0  0
   10.1018    3.5851   23.7353 H   0  0  0  0  0  0  0  0  0  0  0  0
   12.2816    2.7041   24.5737 H   0  0  0  0  0  0  0  0  0  0  0  0
   13.2098    0.5798   23.6013 H   0  0  0  0  0  0  0  0  0  0  0  0
   12.9348   -1.3848   22.4086 H   0  0  0  0  0  0  0  0  0  0  0  0
   11.2301   -1.8888   22.3304 H   0  0  0  0  0  0  0  0  0  0  0  0
   12.0554   -1.2809   20.8857 H   0  0  0  0  0  0  0  0  0  0  0  0
  1  2  1  0
  2  3  2  0
  3  4  1  0
  4  5  2  0
  5  6  1  0
  6  7  1  0
  6  8  2  0
  8  9  1  0
  9 10  1  0
 10 11  2  0
 11 12  1  0
 12 13  1  0
 13 14  1  0
 14 15  1  0
 15 16  1  0
 16 17  1  0
 17 18  1  0
 17 19  1  0
 15 20  1  0
 15 21  1  0
 14 22  1  0
 14 23  1  0
 13 24  1  0
 12 25  2  0
 25 26  1  0
 26 27  1  0
 27 28  2  0
 28 29  1  0
 29 30  2  0
 30 31  1  0
 31 32  2  0
 32 33  1  0
 30 34  1  0
 29 35  1  0
 28 36  1  0
  9 37  1  0
  9 38  1  0
  5 39  1  0
  4 40  1  0
  3 41  1  0
  1 42  1  0
  1 43  1  0
  1 44  1  0
  8  2  1  0
 26 10  1  0
 32 27  1  0
 17 13  1  0
M  END
>  <cnnaffinity>  (1) 
-6.51776

>  <filename>  (1) 
Cc1cccc(Cl)c1Cc1nc(C2CCOC2)nn1-c1cccnc1

$$$$
