
     RDKit          3D

 43 47  0  0  0  0  0  0  0  0999 V2000
    6.6829    0.5011   25.6944 C   0  0  0  0  0  0  0  0  0  0  0  0
    7.8945    1.1300   25.0532 C   0  0  0  0  0  0  0  0  0  0  0  0
    9.0739    1.3509   25.7877 C   0  0  0  0  0  0  0  0  0  0  0  0
   10.1857    1.9110   25.2939 N   0  0  0  0  0  0  0  0  0  0  0  0
   10.1681    2.2743   24.0092 C   0  0  0  0  0  0  0  0  0  0  0  0
    9.0542    2.1044   23.1834 C   0  0  0  0  0  0  0  0  0  0  0  0
    7.9039    1.5014   23.6963 C   0  0  0  0  0  0  0  0  0  0  0  0
    6.7740    1.1389   22.7454 C   0  0  0  0  0  0  0  0  0  0  0  0
    6.8965   -0.2779   22.2438 C   0  0  0  0  0  0  0  0  0  0  0  0
    7.4130   -1.2681   22.9499 N   0  0  0  0  0  0  0  0  0  0  0  0
    7.4635   -2.3061   22.0853 C   0  0  0  0  0  0  0  0  0  0  0  0
    8.3195   -3.4947   22.3391 C   0  0  0  0  0  0  0  0  0  0  0  0
    7.8208   -4.9395   22.2785 C   0  0  0  0  0  0  0  0  0  0  0  0
    8.2868   -4.3227   23.5763 C   0  0  0  0  0  0  0  0  0  0  0  0
    7.8574   -4.1103   24.9838 C   0  0  0  0  0  0  0  0  0  0  0  0
    9.2676   -4.6228   24.6587 C   0  0  0  0  0  0  0  0  0  0  0  0
    9.4760   -5.6742   24.8649 H   0  0  0  0  0  0  0  0  0  0  0  0
   10.1149   -3.9446   24.7993 H   0  0  0  0  0  0  0  0  0  0  0  0
    7.1534   -4.8152   25.4138 H   0  0  0  0  0  0  0  0  0  0  0  0
    7.7111   -3.0745   25.2964 H   0  0  0  0  0  0  0  0  0  0  0  0
    6.7530   -5.1541   22.1603 H   0  0  0  0  0  0  0  0  0  0  0  0
    8.4826   -5.6701   21.8100 H   0  0  0  0  0  0  0  0  0  0  0  0
    9.3381   -3.2897   21.9952 H   0  0  0  0  0  0  0  0  0  0  0  0
    6.9784   -2.0410   20.8860 N   0  0  0  0  0  0  0  0  0  0  0  0
    6.5754   -0.7412   20.9917 N   0  0  0  0  0  0  0  0  0  0  0  0
    6.1441   -0.0536   19.8217 C   0  0  0  0  0  0  0  0  0  0  0  0
    5.1964    0.9802   19.8389 C   0  0  0  0  0  0  0  0  0  0  0  0
    4.9095    1.6234   18.6271 C   0  0  0  0  0  0  0  0  0  0  0  0
    5.5624    1.2129   17.4643 C   0  0  0  0  0  0  0  0  0  0  0  0
    6.4602    0.2147   17.4371 N   0  0  0  0  0  0  0  0  0  0  0  0
    6.7186   -0.4116   18.5864 C   0  0  0  0  0  0  0  0  0  0  0  0
    7.4227   -1.2360   18.5555 H   0  0  0  0  0  0  0  0  0  0  0  0
    5.3799    1.7076   16.5149 H   0  0  0  0  0  0  0  0  0  0  0  0
    4.2138    2.4548   18.5777 H   0  0  0  0  0  0  0  0  0  0  0  0
    4.6821    1.2674   20.7556 H   0  0  0  0  0  0  0  0  0  0  0  0
    5.7985    1.2260   23.2383 H   0  0  0  0  0  0  0  0  0  0  0  0
    6.7924    1.8503   21.9142 H   0  0  0  0  0  0  0  0  0  0  0  0
    9.0875    2.4442   22.1539 H   0  0  0  0  0  0  0  0  0  0  0  0
   11.0880    2.7062   23.6198 H   0  0  0  0  0  0  0  0  0  0  0  0
    9.1169    1.0485   26.8347 H   0  0  0  0  0  0  0  0  0  0  0  0
    6.4394   -0.4445   25.1970 H   0  0  0  0  0  0  0  0  0  0  0  0
    5.8072    1.1549   25.6141 H   0  0  0  0  0  0  0  0  0  0  0  0
    6.8507    0.2975   26.7549 H   0  0  0  0  0  0  0  0  0  0  0  0
  1  2  1  0
  2  3  2  0
  3  4  1  0
  4  5  2  0
  5  6  1  0
  6  7  2  0
  7  8  1  0
  8  9  1  0
  9 10  2  0
 10 11  1  0
 11 12  1  0
 12 13  1  0
 13 14  1  0
 14 15  1  0
 15 16  1  0
 16 17  1  0
 16 18  1  0
 15 19  1  0
 15 20  1  0
 13 21  1  0
 13 22  1  0
 12 23  1  0
 11 24  2  0
 24 25  1  0
 25 26  1  0
 26 27  2  0
 27 28  1  0
 28 29  2  0
 29 30  1  0
 30 31  2  0
 31 32  1  0
 29 33  1  0
 28 34  1  0
 27 35  1  0
  8 36  1  0
  8 37  1  0
  6 38  1  0
  5 39  1  0
  3 40  1  0
  1 41  1  0
  1 42  1  0
  1 43  1  0
  7  2  1  0
 25  9  1  0
 31 26  1  0
 14 12  1  0
 16 14  1  0
M  END
>  <cnnaffinity>  (1) 
-6.11913

>  <filename>  (1) 
Cc1cnccc1Cc1nc(C2CC23CC3)nn1-c1cccnc1

$$$$
