
     RDKit          3D

 44 47  0  0  0  0  0  0  0  0999 V2000
   11.5893    2.9265   24.1975 C   0  0  0  0  0  0  0  0  0  0  0  0
   11.5792    1.8379   23.1885 C   0  0  0  0  0  0  0  0  0  0  0  0
   12.4989    0.8721   22.9387 C   0  0  0  0  0  0  0  0  0  0  0  0
   11.9481    0.0614   21.8858 C   0  0  0  0  0  0  0  0  0  0  0  0
   10.7398    0.6009   21.5950 C   0  0  0  0  0  0  0  0  0  0  0  0
    9.6488    0.1956   20.6833 C   0  0  0  0  0  0  0  0  0  0  0  0
    8.6011   -0.5876   21.3815 C   0  0  0  0  0  0  0  0  0  0  0  0
    8.8174   -1.4418   22.3542 N   0  0  0  0  0  0  0  0  0  0  0  0
    7.6003   -1.9989   22.5467 C   0  0  0  0  0  0  0  0  0  0  0  0
    7.3659   -2.9722   23.6545 C   0  0  0  0  0  0  0  0  0  0  0  0
    6.5646   -2.2978   24.8103 C   0  0  0  0  0  0  0  0  0  0  0  0
    6.0627   -3.3020   25.8188 C   0  0  0  0  0  0  0  0  0  0  0  0
    5.9964   -4.6166   25.5847 C   0  0  0  0  0  0  0  0  0  0  0  0
    6.4720   -5.2653   24.3035 C   0  0  0  0  0  0  0  0  0  0  0  0
    6.6444   -4.2504   23.1598 C   0  0  0  0  0  0  0  0  0  0  0  0
    7.2048   -4.7101   22.3356 H   0  0  0  0  0  0  0  0  0  0  0  0
    5.6671   -3.9490   22.7511 H   0  0  0  0  0  0  0  0  0  0  0  0
    5.7711   -6.0583   24.0092 H   0  0  0  0  0  0  0  0  0  0  0  0
    7.4287   -5.7787   24.4991 H   0  0  0  0  0  0  0  0  0  0  0  0
    5.6023   -5.2815   26.3533 H   0  0  0  0  0  0  0  0  0  0  0  0
    5.7196   -2.8983   26.7718 H   0  0  0  0  0  0  0  0  0  0  0  0
    5.7068   -1.7413   24.3961 H   0  0  0  0  0  0  0  0  0  0  0  0
    7.1819   -1.5434   25.3201 H   0  0  0  0  0  0  0  0  0  0  0  0
    8.3738   -3.2252   24.0199 H   0  0  0  0  0  0  0  0  0  0  0  0
    6.6507   -1.5658   21.7338 N   0  0  0  0  0  0  0  0  0  0  0  0
    7.3098   -0.6669   20.9622 N   0  0  0  0  0  0  0  0  0  0  0  0
    6.6446   -0.0053   19.8984 C   0  0  0  0  0  0  0  0  0  0  0  0
    5.4289    0.6353   20.1535 C   0  0  0  0  0  0  0  0  0  0  0  0
    4.7997    1.3088   19.1040 C   0  0  0  0  0  0  0  0  0  0  0  0
    5.3962    1.2926   17.8372 C   0  0  0  0  0  0  0  0  0  0  0  0
    6.5471    0.6548   17.5779 N   0  0  0  0  0  0  0  0  0  0  0  0
    7.1565    0.0278   18.5889 C   0  0  0  0  0  0  0  0  0  0  0  0
    8.1034   -0.4530   18.3434 H   0  0  0  0  0  0  0  0  0  0  0  0
    4.9392    1.8125   16.9975 H   0  0  0  0  0  0  0  0  0  0  0  0
    3.8694    1.8502   19.2536 H   0  0  0  0  0  0  0  0  0  0  0  0
    5.0130    0.5987   21.1587 H   0  0  0  0  0  0  0  0  0  0  0  0
    9.1930    1.0718   20.2197 H   0  0  0  0  0  0  0  0  0  0  0  0
   10.0484   -0.4693   19.9123 H   0  0  0  0  0  0  0  0  0  0  0  0
   10.5012    1.6734   22.3831 O   0  0  0  0  0  0  0  0  0  0  0  0
   12.3667   -0.8159   21.4125 H   0  0  0  0  0  0  0  0  0  0  0  0
   13.4303    0.7646   23.4802 H   0  0  0  0  0  0  0  0  0  0  0  0
   10.7714    3.6422   24.0913 H   0  0  0  0  0  0  0  0  0  0  0  0
   11.5379    2.4591   25.1851 H   0  0  0  0  0  0  0  0  0  0  0  0
   12.5444    3.4533   24.1272 H   0  0  0  0  0  0  0  0  0  0  0  0
  1  2  1  0
  2  3  2  0
  3  4  1  0
  4  5  2  0
  5  6  1  0
  6  7  1  0
  7  8  2  0
  8  9  1  0
  9 10  1  0
 10 11  1  0
 11 12  1  0
 12 13  2  0
 13 14  1  0
 14 15  1  0
 15 16  1  0
 15 17  1  0
 14 18  1  0
 14 19  1  0
 13 20  1  0
 12 21  1  0
 11 22  1  0
 11 23  1  0
 10 24  1  0
  9 25  2  0
 25 26  1  0
 26 27  1  0
 27 28  2  0
 28 29  1  0
 29 30  2  0
 30 31  1  0
 31 32  2  0
 32 33  1  0
 30 34  1  0
 29 35  1  0
 28 36  1  0
  6 37  1  0
  6 38  1  0
  5 39  1  0
  4 40  1  0
  3 41  1  0
  1 42  1  0
  1 43  1  0
  1 44  1  0
 39  2  1  0
 26  7  1  0
 32 27  1  0
 15 10  1  0
M  END
>  <cnnaffinity>  (1) 
-6.40407

>  <filename>  (1) 
Cc1ccc(Cc2nc(C3CC=CCC3)nn2-c2cccnc2)o1

$$$$
