
     RDKit          3D

 42 45  0  0  0  0  0  0  0  0999 V2000
   12.0211    0.5448   23.4079 C   0  0  0  0  0  0  0  0  0  0  0  0
   12.0291   -0.1599   22.0773 C   0  0  0  0  0  0  0  0  0  0  0  0
   12.4815   -1.5010   21.8164 C   0  0  0  0  0  0  0  0  0  0  0  0
   11.9466   -2.0803   20.9317 O   0  0  0  0  0  0  0  0  0  0  0  0
   10.8054   -0.2524   21.2229 N   0  0  0  0  0  0  0  0  0  0  0  0
   10.8051   -0.2528   21.2229 C   0  0  0  0  0  0  0  0  0  0  0  0
    9.9598    1.0536   21.0320 C   0  0  0  0  0  0  0  0  0  0  0  0
    8.8817    1.1083   22.0146 C   0  0  0  0  0  0  0  0  0  0  0  0
    8.8824    1.8585   23.0809 N   0  0  0  0  0  0  0  0  0  0  0  0
    7.7903    1.4090   23.7550 C   0  0  0  0  0  0  0  0  0  0  0  0
    7.3874    1.9605   25.0737 C   0  0  0  0  0  0  0  0  0  0  0  0
    8.1725    2.9476   25.7067 C   0  0  0  0  0  0  0  0  0  0  0  0
    7.7320    3.4984   26.9040 C   0  0  0  0  0  0  0  0  0  0  0  0
    8.3977    4.5464   27.4089 F   0  0  0  0  0  0  0  0  0  0  0  0
    6.5948    3.0536   27.5730 C   0  0  0  0  0  0  0  0  0  0  0  0
    5.8404    2.0757   26.9296 C   0  0  0  0  0  0  0  0  0  0  0  0
    4.7057    1.6672   27.5159 F   0  0  0  0  0  0  0  0  0  0  0  0
    6.1972    1.5304   25.7004 C   0  0  0  0  0  0  0  0  0  0  0  0
    5.5456    0.7867   25.2473 H   0  0  0  0  0  0  0  0  0  0  0  0
    6.2983    3.4634   28.5300 H   0  0  0  0  0  0  0  0  0  0  0  0
    9.1029    3.3226   25.2851 H   0  0  0  0  0  0  0  0  0  0  0  0
    7.1424    0.4312   23.1367 N   0  0  0  0  0  0  0  0  0  0  0  0
    7.8733    0.2118   22.0247 N   0  0  0  0  0  0  0  0  0  0  0  0
    7.3657   -0.7001   20.9985 C   0  0  0  0  0  0  0  0  0  0  0  0
    6.6320   -0.0024   19.8717 C   0  0  0  0  0  0  0  0  0  0  0  0
    5.4266    0.6508   20.1387 C   0  0  0  0  0  0  0  0  0  0  0  0
    4.7962    1.3124   19.0843 C   0  0  0  0  0  0  0  0  0  0  0  0
    5.3890    1.3006   17.8191 C   0  0  0  0  0  0  0  0  0  0  0  0
    6.5464    0.6779   17.5514 N   0  0  0  0  0  0  0  0  0  0  0  0
    7.1443    0.0526   18.5667 C   0  0  0  0  0  0  0  0  0  0  0  0
    8.0974   -0.4259   18.3300 H   0  0  0  0  0  0  0  0  0  0  0  0
    4.9177    1.8067   16.9798 H   0  0  0  0  0  0  0  0  0  0  0  0
    3.8672    1.8490   19.2397 H   0  0  0  0  0  0  0  0  0  0  0  0
    5.0278    0.6415   21.1559 H   0  0  0  0  0  0  0  0  0  0  0  0
    8.1736   -1.3081   20.5950 H   0  0  0  0  0  0  0  0  0  0  0  0
    6.7133   -1.3835   21.5510 H   0  0  0  0  0  0  0  0  0  0  0  0
    9.4457    1.0230   20.0781 H   0  0  0  0  0  0  0  0  0  0  0  0
   10.4921    1.9812   21.0465 H   0  0  0  0  0  0  0  0  0  0  0  0
   13.2137   -1.9906   22.4808 H   0  0  0  0  0  0  0  0  0  0  0  0
   12.9842    0.3397   23.8662 H   0  0  0  0  0  0  0  0  0  0  0  0
   11.9639    1.6082   23.2052 H   0  0  0  0  0  0  0  0  0  0  0  0
   11.1841    0.2605   24.0478 H   0  0  0  0  0  0  0  0  0  0  0  0
  1  2  1  0
  2  3  2  0
  3  4  1  0
  4  5  1  0
  5  6  2  0
  6  7  1  0
  7  8  1  0
  8  9  2  0
  9 10  1  0
 10 11  1  0
 11 12  2  0
 12 13  1  0
 13 14  1  0
 13 15  2  0
 15 16  1  0
 16 17  1  0
 16 18  2  0
 18 19  1  0
 15 20  1  0
 12 21  1  0
 10 22  2  0
 22 23  1  0
 23 24  1  0
 24 25  1  0
 25 26  2  0
 26 27  1  0
 27 28  2  0
 28 29  1  0
 29 30  2  0
 30 31  1  0
 28 32  1  0
 27 33  1  0
 26 34  1  0
 24 35  1  0
 24 36  1  0
  7 37  1  0
  7 38  1  0
  3 39  1  0
  1 40  1  0
  1 41  1  0
  1 42  1  0
  6  2  1  0
 23  8  1  0
 30 25  1  0
 18 11  1  0
M  END
>  <cnnaffinity>  (1) 
-6.39108

>  <filename>  (1) 
Cc1conc1Cc1nc(-c2cc(F)cc(F)c2)nn1Cc1cccnc1

$$$$
