
     RDKit          3D

 45 48  0  0  0  0  0  0  0  0999 V2000
    9.4320   -1.2851   27.4031 C   0  0  0  0  0  0  0  0  0  0  0  0
    8.3581   -1.6506   26.4077 C   0  0  0  0  0  0  0  0  0  0  0  0
    7.2938   -2.5200   26.7257 C   0  0  0  0  0  0  0  0  0  0  0  0
    6.3189   -2.8617   25.8697 N   0  0  0  0  0  0  0  0  0  0  0  0
    6.3930   -2.4028   24.6162 C   0  0  0  0  0  0  0  0  0  0  0  0
    7.4685   -1.6285   24.1670 C   0  0  0  0  0  0  0  0  0  0  0  0
    7.6276   -1.3619   22.7769 N   0  0  0  0  0  0  0  0  0  0  0  0
    6.6743   -0.7282   22.0626 N   0  0  0  0  0  0  0  0  0  0  0  0
    7.2254   -0.6272   20.8644 C   0  0  0  0  0  0  0  0  0  0  0  0
    6.5704    0.0599   19.7571 C   0  0  0  0  0  0  0  0  0  0  0  0
    5.3608    0.7490   19.9382 C   0  0  0  0  0  0  0  0  0  0  0  0
    4.8025    1.3960   18.8425 C   0  0  0  0  0  0  0  0  0  0  0  0
    5.4658    1.3337   17.6120 C   0  0  0  0  0  0  0  0  0  0  0  0
    6.6196    0.6729   17.4287 N   0  0  0  0  0  0  0  0  0  0  0  0
    7.1614    0.0575   18.4868 C   0  0  0  0  0  0  0  0  0  0  0  0
    8.1027   -0.4575   18.3004 H   0  0  0  0  0  0  0  0  0  0  0  0
    5.0455    1.8367   16.7432 H   0  0  0  0  0  0  0  0  0  0  0  0
    3.8793    1.9552   18.9372 H   0  0  0  0  0  0  0  0  0  0  0  0
    4.8916    0.7672   20.9237 H   0  0  0  0  0  0  0  0  0  0  0  0
    8.4528   -1.2064   20.7529 N   0  0  0  0  0  0  0  0  0  0  0  0
    8.6654   -1.6862   21.9613 C   0  0  0  0  0  0  0  0  0  0  0  0
    9.8026   -2.5515   22.4313 C   0  0  0  0  0  0  0  0  0  0  0  0
    9.3968   -3.8071   23.2152 C   0  0  0  0  0  0  0  0  0  0  0  0
    9.9868   -4.0636   24.4579 C   0  0  0  0  0  0  0  0  0  0  0  0
    9.5375   -5.1004   25.2764 C   0  0  0  0  0  0  0  0  0  0  0  0
    8.4393   -5.8638   24.8675 C   0  0  0  0  0  0  0  0  0  0  0  0
    7.8563   -5.6317   23.6223 C   0  0  0  0  0  0  0  0  0  0  0  0
    8.3800   -4.6682   22.7416 C   0  0  0  0  0  0  0  0  0  0  0  0
    7.8770   -4.5766   21.3185 C   0  0  0  0  0  0  0  0  0  0  0  0
    6.9028   -4.0791   21.2704 H   0  0  0  0  0  0  0  0  0  0  0  0
    7.7732   -5.5594   20.8468 H   0  0  0  0  0  0  0  0  0  0  0  0
    8.5724   -3.9987   20.7083 H   0  0  0  0  0  0  0  0  0  0  0  0
    6.9932   -6.2240   23.3243 H   0  0  0  0  0  0  0  0  0  0  0  0
    8.0510   -6.6550   25.5029 H   0  0  0  0  0  0  0  0  0  0  0  0
   10.0288   -5.2821   26.2330 H   0  0  0  0  0  0  0  0  0  0  0  0
   10.7787   -3.4039   24.8192 H   0  0  0  0  0  0  0  0  0  0  0  0
   10.4718   -1.9403   23.0491 H   0  0  0  0  0  0  0  0  0  0  0  0
   10.3680   -2.8179   21.5392 H   0  0  0  0  0  0  0  0  0  0  0  0
    8.4176   -1.1816   25.0919 C   0  0  0  0  0  0  0  0  0  0  0  0
    9.2314   -0.5259   24.7778 H   0  0  0  0  0  0  0  0  0  0  0  0
    5.5840   -2.6832   23.9440 H   0  0  0  0  0  0  0  0  0  0  0  0
    7.2155   -2.9500   27.7205 H   0  0  0  0  0  0  0  0  0  0  0  0
   10.1004   -0.5029   27.0308 H   0  0  0  0  0  0  0  0  0  0  0  0
    9.0236   -0.9431   28.3569 H   0  0  0  0  0  0  0  0  0  0  0  0
   10.0632   -2.1496   27.6170 H   0  0  0  0  0  0  0  0  0  0  0  0
  1  2  1  0
  2  3  2  0
  3  4  1  0
  4  5  2  0
  5  6  1  0
  6  7  1  0
  7  8  1  0
  8  9  2  0
  9 10  1  0
 10 11  2  0
 11 12  1  0
 12 13  2  0
 13 14  1  0
 14 15  2  0
 15 16  1  0
 13 17  1  0
 12 18  1  0
 11 19  1  0
  9 20  1  0
 20 21  2  0
 21 22  1  0
 22 23  1  0
 23 24  2  0
 24 25  1  0
 25 26  2  0
 26 27  1  0
 27 28  2  0
 28 29  1  0
 29 30  1  0
 29 31  1  0
 29 32  1  0
 27 33  1  0
 26 34  1  0
 25 35  1  0
 24 36  1  0
 22 37  1  0
 22 38  1  0
  6 39  2  0
 39 40  1  0
  5 41  1  0
  3 42  1  0
  1 43  1  0
  1 44  1  0
  1 45  1  0
 39  2  1  0
 21  7  1  0
 28 23  1  0
 15 10  1  0
M  END
>  <cnnaffinity>  (1) 
-6.28719

>  <filename>  (1) 
Cc1cncc(-n2nc(-c3cccnc3)nc2Cc2ccccc2C)c1

$$$$
