
     RDKit          3D

 48 51  0  0  0  0  0  0  0  0999 V2000
    9.3029   -2.0487   25.1414 C   0  0  0  0  0  0  0  0  0  0  0  0
    8.1738   -3.0067   24.8495 C   0  0  0  0  0  0  0  0  0  0  0  0
    7.8754   -3.9942   25.8027 C   0  0  0  0  0  0  0  0  0  0  0  0
    6.8255   -4.8975   25.6288 C   0  0  0  0  0  0  0  0  0  0  0  0
    6.0436   -4.8248   24.4748 C   0  0  0  0  0  0  0  0  0  0  0  0
    6.3197   -3.8652   23.5055 C   0  0  0  0  0  0  0  0  0  0  0  0
    7.3861   -2.9588   23.6693 C   0  0  0  0  0  0  0  0  0  0  0  0
    7.6447   -1.9737   22.5879 C   0  0  0  0  0  0  0  0  0  0  0  0
    6.6907   -1.5654   21.7625 N   0  0  0  0  0  0  0  0  0  0  0  0
    7.3292   -0.6980   20.9378 N   0  0  0  0  0  0  0  0  0  0  0  0
    6.6445   -0.0064   19.9015 C   0  0  0  0  0  0  0  0  0  0  0  0
    5.4365    0.6435   20.1651 C   0  0  0  0  0  0  0  0  0  0  0  0
    4.8140    1.3159   19.1104 C   0  0  0  0  0  0  0  0  0  0  0  0
    5.3991    1.2974   17.8377 C   0  0  0  0  0  0  0  0  0  0  0  0
    6.5531    0.6669   17.5758 N   0  0  0  0  0  0  0  0  0  0  0  0
    7.1610    0.0448   18.5913 C   0  0  0  0  0  0  0  0  0  0  0  0
    8.1111   -0.4303   18.3615 H   0  0  0  0  0  0  0  0  0  0  0  0
    4.9230    1.7882   16.9921 H   0  0  0  0  0  0  0  0  0  0  0  0
    3.8816    1.8417   19.2599 H   0  0  0  0  0  0  0  0  0  0  0  0
    5.0136    0.6016   21.1724 H   0  0  0  0  0  0  0  0  0  0  0  0
    8.6178   -0.5794   21.3568 C   0  0  0  0  0  0  0  0  0  0  0  0
    9.6260    0.3456   20.7913 C   0  0  0  0  0  0  0  0  0  0  0  0
   10.3225    1.1161   21.8891 C   0  0  0  0  0  0  0  0  0  0  0  0
   11.6097    0.7359   22.2949 C   0  0  0  0  0  0  0  0  0  0  0  0
   12.2368    1.3508   23.3826 C   0  0  0  0  0  0  0  0  0  0  0  0
   11.5581    2.3631   24.0662 C   0  0  0  0  0  0  0  0  0  0  0  0
   10.2699    2.7505   23.6867 C   0  0  0  0  0  0  0  0  0  0  0  0
    9.6373    2.1072   22.6161 C   0  0  0  0  0  0  0  0  0  0  0  0
    7.9820    2.6968   22.1083 S   0  0  0  0  0  0  0  0  0  0  0  0
    7.9767    4.1882   22.2647 O   0  0  0  0  0  0  0  0  0  0  0  0
    7.0002    2.0838   23.5045 C   0  0  0  0  0  0  0  0  0  0  0  0
    7.3302    2.5640   24.4291 H   0  0  0  0  0  0  0  0  0  0  0  0
    7.0406    0.9946   23.5867 H   0  0  0  0  0  0  0  0  0  0  0  0
    5.9749    2.4111   23.3136 H   0  0  0  0  0  0  0  0  0  0  0  0
    9.7657    3.5687   24.1955 H   0  0  0  0  0  0  0  0  0  0  0  0
   12.0284    2.8562   24.9049 H   0  0  0  0  0  0  0  0  0  0  0  0
   13.2371    1.0385   23.6850 H   0  0  0  0  0  0  0  0  0  0  0  0
   12.1020   -0.0764   21.7608 H   0  0  0  0  0  0  0  0  0  0  0  0
   10.3158   -0.3210   20.2720 H   0  0  0  0  0  0  0  0  0  0  0  0
    9.1608    1.0370   20.0856 H   0  0  0  0  0  0  0  0  0  0  0  0
    8.8593   -1.4121   22.3452 N   0  0  0  0  0  0  0  0  0  0  0  0
    5.7100   -3.7902   22.6076 H   0  0  0  0  0  0  0  0  0  0  0  0
    5.2118   -5.5078   24.3314 H   0  0  0  0  0  0  0  0  0  0  0  0
    6.6157   -5.6460   26.3909 H   0  0  0  0  0  0  0  0  0  0  0  0
    8.4863   -4.0460   26.7026 H   0  0  0  0  0  0  0  0  0  0  0  0
    9.0153   -1.0105   24.9488 H   0  0  0  0  0  0  0  0  0  0  0  0
   10.1645   -2.2399   24.4957 H   0  0  0  0  0  0  0  0  0  0  0  0
    9.6092   -2.1278   26.1879 H   0  0  0  0  0  0  0  0  0  0  0  0
  1  2  1  0
  2  3  2  0
  3  4  1  0
  4  5  2  0
  5  6  1  0
  6  7  2  0
  7  8  1  0
  8  9  2  0
  9 10  1  0
 10 11  1  0
 11 12  2  0
 12 13  1  0
 13 14  2  0
 14 15  1  0
 15 16  2  0
 16 17  1  0
 14 18  1  0
 13 19  1  0
 12 20  1  0
 10 21  1  0
 21 22  1  0
 22 23  1  0
 23 24  2  0
 24 25  1  0
 25 26  2  0
 26 27  1  0
 27 28  2  0
 28 29  1  0
 29 30  2  0
 29 31  1  0
 31 32  1  0
 31 33  1  0
 31 34  1  0
 27 35  1  0
 26 36  1  0
 25 37  1  0
 24 38  1  0
 22 39  1  0
 22 40  1  0
 21 41  2  0
  6 42  1  0
  5 43  1  0
  4 44  1  0
  3 45  1  0
  1 46  1  0
  1 47  1  0
  1 48  1  0
  7  2  1  0
 41  8  1  0
 16 11  1  0
 28 23  1  0
M  END
>  <cnnaffinity>  (1) 
-6.32218

>  <filename>  (1) 
Cc1ccccc1-c1nc(Cc2ccccc2S(C)=O)n(-c2cccnc2)n1

$$$$
