
     RDKit          3D

 42 45  0  0  0  0  0  0  0  0999 V2000
    6.0937    3.7738   28.9503 C   0  0  0  0  0  0  0  0  0  0  0  0
    6.4311    3.1860   27.6041 C   0  0  0  0  0  0  0  0  0  0  0  0
    5.7008    2.1283   27.0374 C   0  0  0  0  0  0  0  0  0  0  0  0
    6.0710    1.5268   25.8290 C   0  0  0  0  0  0  0  0  0  0  0  0
    7.2051    1.9889   25.1323 C   0  0  0  0  0  0  0  0  0  0  0  0
    7.6761    1.3831   23.8602 C   0  0  0  0  0  0  0  0  0  0  0  0
    7.0583    0.4286   23.1812 N   0  0  0  0  0  0  0  0  0  0  0  0
    7.8507    0.2505   22.0955 N   0  0  0  0  0  0  0  0  0  0  0  0
    7.4465   -0.6653   21.0274 C   0  0  0  0  0  0  0  0  0  0  0  0
    6.7183    0.0137   19.8797 C   0  0  0  0  0  0  0  0  0  0  0  0
    5.5053    0.6766   20.1084 C   0  0  0  0  0  0  0  0  0  0  0  0
    4.8777    1.3148   19.0369 C   0  0  0  0  0  0  0  0  0  0  0  0
    5.4815    1.2680   17.7764 C   0  0  0  0  0  0  0  0  0  0  0  0
    6.6274    0.6142   17.5309 N   0  0  0  0  0  0  0  0  0  0  0  0
    7.2161    0.0036   18.5677 C   0  0  0  0  0  0  0  0  0  0  0  0
    8.1328   -0.5430   18.3330 H   0  0  0  0  0  0  0  0  0  0  0  0
    5.0220    1.7682   16.9256 H   0  0  0  0  0  0  0  0  0  0  0  0
    3.9402    1.8466   19.1625 H   0  0  0  0  0  0  0  0  0  0  0  0
    5.0679    0.6868   21.1102 H   0  0  0  0  0  0  0  0  0  0  0  0
    8.3363   -1.1926   20.6656 H   0  0  0  0  0  0  0  0  0  0  0  0
    6.7975   -1.4092   21.5003 H   0  0  0  0  0  0  0  0  0  0  0  0
    8.8785    1.1214   22.1563 C   0  0  0  0  0  0  0  0  0  0  0  0
    9.9673    1.2955   21.1696 C   0  0  0  0  0  0  0  0  0  0  0  0
   11.1554    0.4795   21.5665 C   0  0  0  0  0  0  0  0  0  0  0  0
   12.0793    0.7713   22.5165 C   0  0  0  0  0  0  0  0  0  0  0  0
   13.2590   -0.4791   22.5849 S   0  0  0  0  0  0  0  0  0  0  0  0
   12.3890   -1.3346   21.3621 C   0  0  0  0  0  0  0  0  0  0  0  0
   11.3232   -0.7269   20.9328 N   0  0  0  0  0  0  0  0  0  0  0  0
   12.7445   -2.2940   20.9957 H   0  0  0  0  0  0  0  0  0  0  0  0
   12.0935    1.6175   23.1895 H   0  0  0  0  0  0  0  0  0  0  0  0
    9.6454    0.9734   20.1786 H   0  0  0  0  0  0  0  0  0  0  0  0
   10.1963    2.3662   21.1477 H   0  0  0  0  0  0  0  0  0  0  0  0
    8.8212    1.8203   23.2631 N   0  0  0  0  0  0  0  0  0  0  0  0
    7.9340    3.0708   25.6737 C   0  0  0  0  0  0  0  0  0  0  0  0
    7.5394    3.6378   26.8736 C   0  0  0  0  0  0  0  0  0  0  0  0
    8.2702    4.6615   27.3567 F   0  0  0  0  0  0  0  0  0  0  0  0
    8.8180    3.4623   25.1802 H   0  0  0  0  0  0  0  0  0  0  0  0
    5.4923    0.6912   25.4427 H   0  0  0  0  0  0  0  0  0  0  0  0
    4.8249    1.7615   27.5681 H   0  0  0  0  0  0  0  0  0  0  0  0
    5.0752    3.5194   29.2587 H   0  0  0  0  0  0  0  0  0  0  0  0
    6.7795    3.3989   29.7191 H   0  0  0  0  0  0  0  0  0  0  0  0
    6.1850    4.8638   28.9421 H   0  0  0  0  0  0  0  0  0  0  0  0
  1  2  1  0
  2  3  2  0
  3  4  1  0
  4  5  2  0
  5  6  1  0
  6  7  2  0
  7  8  1  0
  8  9  1  0
  9 10  1  0
 10 11  2  0
 11 12  1  0
 12 13  2  0
 13 14  1  0
 14 15  2  0
 15 16  1  0
 13 17  1  0
 12 18  1  0
 11 19  1  0
  9 20  1  0
  9 21  1  0
  8 22  1  0
 22 23  1  0
 23 24  1  0
 24 25  2  0
 25 26  1  0
 26 27  1  0
 27 28  2  0
 27 29  1  0
 25 30  1  0
 23 31  1  0
 23 32  1  0
 22 33  2  0
  5 34  1  0
 34 35  2  0
 35 36  1  0
 34 37  1  0
  4 38  1  0
  3 39  1  0
  1 40  1  0
  1 41  1  0
  1 42  1  0
 35  2  1  0
 33  6  1  0
 15 10  1  0
 28 24  1  0
M  END
>  <cnnaffinity>  (1) 
-6.24699

>  <filename>  (1) 
Cc1ccc(-c2nc(Cc3cscn3)n(Cc3cccnc3)n2)cc1F

$$$$
