
     RDKit          3D

 45 48  0  0  0  0  0  0  0  0999 V2000
    9.8645    1.8550   25.4732 C   0  0  0  0  0  0  0  0  0  0  0  0
    8.8320    2.9515   25.3203 C   0  0  0  0  0  0  0  0  0  0  0  0
    8.8120    4.0920   26.1276 C   0  0  0  0  0  0  0  0  0  0  0  0
    7.8195    5.0733   25.9999 C   0  0  0  0  0  0  0  0  0  0  0  0
    6.8115    4.9097   25.0528 C   0  0  0  0  0  0  0  0  0  0  0  0
    6.8078    3.7868   24.2097 C   0  0  0  0  0  0  0  0  0  0  0  0
    7.8298    2.8366   24.3214 C   0  0  0  0  0  0  0  0  0  0  0  0
    7.9890    1.7645   23.4906 O   0  0  0  0  0  0  0  0  0  0  0  0
    6.9500    1.2671   22.6776 C   0  0  0  0  0  0  0  0  0  0  0  0
    7.3152   -0.1271   22.2320 C   0  0  0  0  0  0  0  0  0  0  0  0
    7.8278   -1.0777   22.9896 N   0  0  0  0  0  0  0  0  0  0  0  0
    8.0863   -2.0841   22.1147 C   0  0  0  0  0  0  0  0  0  0  0  0
    8.7787   -3.3218   22.6102 C   0  0  0  0  0  0  0  0  0  0  0  0
    8.0437   -4.0450   23.7643 C   0  0  0  0  0  0  0  0  0  0  0  0
    9.1811   -4.6663   24.5781 C   0  0  0  0  0  0  0  0  0  0  0  0
   10.3261   -3.8674   24.3647 O   0  0  0  0  0  0  0  0  0  0  0  0
   10.1360   -2.9779   23.2847 C   0  0  0  0  0  0  0  0  0  0  0  0
   10.1259   -1.9533   23.6782 H   0  0  0  0  0  0  0  0  0  0  0  0
   10.9974   -3.0469   22.6116 H   0  0  0  0  0  0  0  0  0  0  0  0
    8.9799   -4.6867   25.6556 H   0  0  0  0  0  0  0  0  0  0  0  0
    9.3891   -5.6936   24.2561 H   0  0  0  0  0  0  0  0  0  0  0  0
    7.5082   -3.3027   24.3693 H   0  0  0  0  0  0  0  0  0  0  0  0
    7.3351   -4.8079   23.4249 H   0  0  0  0  0  0  0  0  0  0  0  0
    8.8889   -3.9883   21.7498 H   0  0  0  0  0  0  0  0  0  0  0  0
    7.7182   -1.8454   20.8730 N   0  0  0  0  0  0  0  0  0  0  0  0
    7.1787   -0.5945   20.9547 N   0  0  0  0  0  0  0  0  0  0  0  0
    6.5585    0.0368   19.8425 C   0  0  0  0  0  0  0  0  0  0  0  0
    5.3673    0.7562   19.9966 C   0  0  0  0  0  0  0  0  0  0  0  0
    4.8288    1.3981   18.8797 C   0  0  0  0  0  0  0  0  0  0  0  0
    5.4920    1.2921   17.6550 C   0  0  0  0  0  0  0  0  0  0  0  0
    6.6229    0.5823   17.4946 N   0  0  0  0  0  0  0  0  0  0  0  0
    7.1387   -0.0353   18.5633 C   0  0  0  0  0  0  0  0  0  0  0  0
    8.0601   -0.5906   18.4034 H   0  0  0  0  0  0  0  0  0  0  0  0
    5.0884    1.7820   16.7705 H   0  0  0  0  0  0  0  0  0  0  0  0
    3.9270    1.9937   18.9683 H   0  0  0  0  0  0  0  0  0  0  0  0
    4.8785    0.8208   20.9690 H   0  0  0  0  0  0  0  0  0  0  0  0
    5.9984    1.2249   23.2296 H   0  0  0  0  0  0  0  0  0  0  0  0
    6.8232    1.9350   21.8168 H   0  0  0  0  0  0  0  0  0  0  0  0
    6.0225    3.6576   23.4710 H   0  0  0  0  0  0  0  0  0  0  0  0
    6.0240    5.6534   24.9588 H   0  0  0  0  0  0  0  0  0  0  0  0
    7.8377    5.9518   26.6401 H   0  0  0  0  0  0  0  0  0  0  0  0
    9.5889    4.2248   26.8732 H   0  0  0  0  0  0  0  0  0  0  0  0
   10.5061    1.7967   24.5876 H   0  0  0  0  0  0  0  0  0  0  0  0
    9.3800    0.8783   25.5844 H   0  0  0  0  0  0  0  0  0  0  0  0
   10.5051    1.9910   26.3400 H   0  0  0  0  0  0  0  0  0  0  0  0
  1  2  1  0
  2  3  2  0
  3  4  1  0
  4  5  2  0
  5  6  1  0
  6  7  2  0
  7  8  1  0
  8  9  1  0
  9 10  1  0
 10 11  2  0
 11 12  1  0
 12 13  1  0
 13 14  1  0
 14 15  1  0
 15 16  1  0
 16 17  1  0
 17 18  1  0
 17 19  1  0
 15 20  1  0
 15 21  1  0
 14 22  1  0
 14 23  1  0
 13 24  1  0
 12 25  2  0
 25 26  1  0
 26 27  1  0
 27 28  2  0
 28 29  1  0
 29 30  2  0
 30 31  1  0
 31 32  2  0
 32 33  1  0
 30 34  1  0
 29 35  1  0
 28 36  1  0
  9 37  1  0
  9 38  1  0
  6 39  1  0
  5 40  1  0
  4 41  1  0
  3 42  1  0
  1 43  1  0
  1 44  1  0
  1 45  1  0
  7  2  1  0
 26 10  1  0
 32 27  1  0
 17 13  1  0
M  END
>  <cnnaffinity>  (1) 
-5.91339

>  <filename>  (1) 
Cc1ccccc1OCc1nc(C2CCOC2)nn1-c1cccnc1

$$$$
