
     RDKit          3D

 49 51  0  0  0  0  0  0  0  0999 V2000
    4.4050   -5.2547   25.5930 C   0  0  0  0  0  0  0  0  0  0  0  0
    4.7562   -3.9153   24.9341 C   0  0  0  0  0  0  0  0  0  0  0  0
    5.8738   -3.1918   25.7335 C   0  0  0  0  0  0  0  0  0  0  0  0
    6.6546   -2.2040   24.8640 C   0  0  0  0  0  0  0  0  0  0  0  0
    7.3901   -2.9308   23.6927 C   0  0  0  0  0  0  0  0  0  0  0  0
    7.6605   -1.9719   22.5642 C   0  0  0  0  0  0  0  0  0  0  0  0
    6.7099   -1.5345   21.7579 N   0  0  0  0  0  0  0  0  0  0  0  0
    7.3598   -0.6740   20.9380 N   0  0  0  0  0  0  0  0  0  0  0  0
    6.6556    0.0024   19.9028 C   0  0  0  0  0  0  0  0  0  0  0  0
    5.4380    0.6396   20.1680 C   0  0  0  0  0  0  0  0  0  0  0  0
    4.8133    1.3074   19.1114 C   0  0  0  0  0  0  0  0  0  0  0  0
    5.4004    1.2941   17.8395 C   0  0  0  0  0  0  0  0  0  0  0  0
    6.5594    0.6723   17.5826 N   0  0  0  0  0  0  0  0  0  0  0  0
    7.1678    0.0500   18.5946 C   0  0  0  0  0  0  0  0  0  0  0  0
    8.1149   -0.4315   18.3666 H   0  0  0  0  0  0  0  0  0  0  0  0
    4.9216    1.7842   16.9962 H   0  0  0  0  0  0  0  0  0  0  0  0
    3.8824    1.8387   19.2617 H   0  0  0  0  0  0  0  0  0  0  0  0
    5.0145    0.6139   21.1750 H   0  0  0  0  0  0  0  0  0  0  0  0
    8.6641   -0.6077   21.3416 C   0  0  0  0  0  0  0  0  0  0  0  0
    9.6988    0.1960   20.6663 C   0  0  0  0  0  0  0  0  0  0  0  0
   10.7617    0.6204   21.6707 C   0  0  0  0  0  0  0  0  0  0  0  0
   10.5935    1.6587   22.2839 O   0  0  0  0  0  0  0  0  0  0  0  0
   11.8617   -0.1733   21.8856 N   0  0  0  0  0  0  0  0  0  0  0  0
   12.7778    0.2284   22.9602 C   0  0  0  0  0  0  0  0  0  0  0  0
   13.5999   -0.4874   23.0307 H   0  0  0  0  0  0  0  0  0  0  0  0
   13.2009    1.2242   22.7854 H   0  0  0  0  0  0  0  0  0  0  0  0
   12.2625    0.2566   23.9267 H   0  0  0  0  0  0  0  0  0  0  0  0
   12.1410   -1.3648   21.0992 C   0  0  0  0  0  0  0  0  0  0  0  0
   13.0389   -1.8567   21.4790 H   0  0  0  0  0  0  0  0  0  0  0  0
   11.3047   -2.0727   21.1488 H   0  0  0  0  0  0  0  0  0  0  0  0
   12.3643   -1.1144   20.0574 H   0  0  0  0  0  0  0  0  0  0  0  0
    9.2537    1.1147   20.2911 H   0  0  0  0  0  0  0  0  0  0  0  0
   10.0551   -0.4174   19.8343 H   0  0  0  0  0  0  0  0  0  0  0  0
    8.8900   -1.4499   22.3277 N   0  0  0  0  0  0  0  0  0  0  0  0
    6.6334   -4.2055   23.2084 C   0  0  0  0  0  0  0  0  0  0  0  0
    5.1193   -4.0880   23.4322 C   0  0  0  0  0  0  0  0  0  0  0  0
    4.6098   -4.9698   23.0226 H   0  0  0  0  0  0  0  0  0  0  0  0
    4.7550   -3.2276   22.8541 H   0  0  0  0  0  0  0  0  0  0  0  0
    7.0088   -5.0808   23.7590 H   0  0  0  0  0  0  0  0  0  0  0  0
    6.8490   -4.4015   22.1517 H   0  0  0  0  0  0  0  0  0  0  0  0
    8.3767   -3.2383   24.0510 H   0  0  0  0  0  0  0  0  0  0  0  0
    5.9555   -1.4578   24.4608 H   0  0  0  0  0  0  0  0  0  0  0  0
    7.3807   -1.6467   25.4679 H   0  0  0  0  0  0  0  0  0  0  0  0
    6.5750   -3.9304   26.1509 H   0  0  0  0  0  0  0  0  0  0  0  0
    5.4362   -2.6768   26.5983 H   0  0  0  0  0  0  0  0  0  0  0  0
    3.8617   -3.2769   24.9717 H   0  0  0  0  0  0  0  0  0  0  0  0
    5.2502   -5.9541   25.5381 H   0  0  0  0  0  0  0  0  0  0  0  0
    4.1513   -5.1266   26.6519 H   0  0  0  0  0  0  0  0  0  0  0  0
    3.5519   -5.7299   25.0952 H   0  0  0  0  0  0  0  0  0  0  0  0
  1  2  1  0
  2  3  1  0
  3  4  1  0
  4  5  1  0
  5  6  1  0
  6  7  2  0
  7  8  1  0
  8  9  1  0
  9 10  2  0
 10 11  1  0
 11 12  2  0
 12 13  1  0
 13 14  2  0
 14 15  1  0
 12 16  1  0
 11 17  1  0
 10 18  1  0
  8 19  1  0
 19 20  1  0
 20 21  1  0
 21 22  2  0
 21 23  1  0
 23 24  1  0
 24 25  1  0
 24 26  1  0
 24 27  1  0
 23 28  1  0
 28 29  1  0
 28 30  1  0
 28 31  1  0
 20 32  1  0
 20 33  1  0
 19 34  2  0
  5 35  1  0
 35 36  1  0
 36 37  1  0
 36 38  1  0
 35 39  1  0
 35 40  1  0
  5 41  1  0
  4 42  1  0
  4 43  1  0
  3 44  1  0
  3 45  1  0
  2 46  1  0
  1 47  1  0
  1 48  1  0
  1 49  1  0
 36  2  1  0
 34  6  1  0
 14  9  1  0
M  END
>  <cnnaffinity>  (1) 
-6.08995

>  <filename>  (1) 
CC1CCC(c2nc(CC(=O)N(C)C)n(-c3cccnc3)n2)CC1

$$$$
