
     RDKit          3D

 46 49  0  0  0  0  0  0  0  0999 V2000
   12.2080   -1.3459   21.1101 C   0  0  0  0  0  0  0  0  0  0  0  0
   11.9156   -0.0852   21.8816 C   0  0  0  0  0  0  0  0  0  0  0  0
   12.8245    0.3729   22.8394 C   0  0  0  0  0  0  0  0  0  0  0  0
   12.5347    1.5364   23.5528 C   0  0  0  0  0  0  0  0  0  0  0  0
   11.3423    2.2051   23.2742 C   0  0  0  0  0  0  0  0  0  0  0  0
   10.4552    1.7895   22.3569 N   0  0  0  0  0  0  0  0  0  0  0  0
   10.7361    0.6771   21.6722 C   0  0  0  0  0  0  0  0  0  0  0  0
    9.6759    0.2530   20.6913 C   0  0  0  0  0  0  0  0  0  0  0  0
    8.6563   -0.5892   21.3531 C   0  0  0  0  0  0  0  0  0  0  0  0
    8.8881   -1.4477   22.3223 N   0  0  0  0  0  0  0  0  0  0  0  0
    7.6620   -1.9752   22.5602 C   0  0  0  0  0  0  0  0  0  0  0  0
    7.3858   -2.9371   23.6783 C   0  0  0  0  0  0  0  0  0  0  0  0
    6.5570   -2.2749   24.8140 C   0  0  0  0  0  0  0  0  0  0  0  0
    6.0515   -3.2700   25.8291 C   0  0  0  0  0  0  0  0  0  0  0  0
    5.9933   -4.5848   25.6013 C   0  0  0  0  0  0  0  0  0  0  0  0
    6.4951   -5.2243   24.3272 C   0  0  0  0  0  0  0  0  0  0  0  0
    6.6794   -4.2169   23.1815 C   0  0  0  0  0  0  0  0  0  0  0  0
    7.2513   -4.6773   22.3679 H   0  0  0  0  0  0  0  0  0  0  0  0
    5.7062   -3.9319   22.7615 H   0  0  0  0  0  0  0  0  0  0  0  0
    5.8210   -6.0301   24.0132 H   0  0  0  0  0  0  0  0  0  0  0  0
    7.4547   -5.7160   24.5432 H   0  0  0  0  0  0  0  0  0  0  0  0
    5.5798   -5.2470   26.3620 H   0  0  0  0  0  0  0  0  0  0  0  0
    5.7082   -2.8676   26.7818 H   0  0  0  0  0  0  0  0  0  0  0  0
    5.6950   -1.7605   24.3731 H   0  0  0  0  0  0  0  0  0  0  0  0
    7.1413   -1.4895   25.3090 H   0  0  0  0  0  0  0  0  0  0  0  0
    8.3653   -3.2091   24.0830 H   0  0  0  0  0  0  0  0  0  0  0  0
    6.7066   -1.5390   21.7571 N   0  0  0  0  0  0  0  0  0  0  0  0
    7.3558   -0.6745   20.9401 N   0  0  0  0  0  0  0  0  0  0  0  0
    6.6544    0.0002   19.9040 C   0  0  0  0  0  0  0  0  0  0  0  0
    5.4372    0.6404   20.1689 C   0  0  0  0  0  0  0  0  0  0  0  0
    4.8126    1.3083   19.1112 C   0  0  0  0  0  0  0  0  0  0  0  0
    5.4011    1.2944   17.8396 C   0  0  0  0  0  0  0  0  0  0  0  0
    6.5606    0.6720   17.5793 N   0  0  0  0  0  0  0  0  0  0  0  0
    7.1663    0.0500   18.5950 C   0  0  0  0  0  0  0  0  0  0  0  0
    8.1139   -0.4302   18.3677 H   0  0  0  0  0  0  0  0  0  0  0  0
    4.9202    1.7836   16.9952 H   0  0  0  0  0  0  0  0  0  0  0  0
    3.8812    1.8395   19.2619 H   0  0  0  0  0  0  0  0  0  0  0  0
    5.0145    0.6127   21.1759 H   0  0  0  0  0  0  0  0  0  0  0  0
    9.2070    1.1394   20.2688 H   0  0  0  0  0  0  0  0  0  0  0  0
   10.0492   -0.3737   19.8760 H   0  0  0  0  0  0  0  0  0  0  0  0
   11.0831    3.1108   23.8166 H   0  0  0  0  0  0  0  0  0  0  0  0
   13.2167    1.9122   24.3038 H   0  0  0  0  0  0  0  0  0  0  0  0
   13.7449   -0.1874   23.0194 H   0  0  0  0  0  0  0  0  0  0  0  0
   11.3536   -2.0305   21.1257 H   0  0  0  0  0  0  0  0  0  0  0  0
   13.0783   -1.8645   21.5171 H   0  0  0  0  0  0  0  0  0  0  0  0
   12.4481   -1.1400   20.0646 H   0  0  0  0  0  0  0  0  0  0  0  0
  1  2  1  0
  2  3  2  0
  3  4  1  0
  4  5  2  0
  5  6  1  0
  6  7  2  0
  7  8  1  0
  8  9  1  0
  9 10  2  0
 10 11  1  0
 11 12  1  0
 12 13  1  0
 13 14  1  0
 14 15  2  0
 15 16  1  0
 16 17  1  0
 17 18  1  0
 17 19  1  0
 16 20  1  0
 16 21  1  0
 15 22  1  0
 14 23  1  0
 13 24  1  0
 13 25  1  0
 12 26  1  0
 11 27  2  0
 27 28  1  0
 28 29  1  0
 29 30  2  0
 30 31  1  0
 31 32  2  0
 32 33  1  0
 33 34  2  0
 34 35  1  0
 32 36  1  0
 31 37  1  0
 30 38  1  0
  8 39  1  0
  8 40  1  0
  5 41  1  0
  4 42  1  0
  3 43  1  0
  1 44  1  0
  1 45  1  0
  1 46  1  0
  7  2  1  0
 28  9  1  0
 34 29  1  0
 17 12  1  0
M  END
>  <cnnaffinity>  (1) 
-6.69204

>  <filename>  (1) 
Cc1cccnc1Cc1nc(C2CC=CCC2)nn1-c1cccnc1

$$$$
