
     RDKit          3D

 53 56  0  0  0  0  0  0  0  0999 V2000
    4.2991   -3.8635   25.8653 C   0  0  0  0  0  0  0  0  0  0  0  0
    4.5597   -2.8826   24.7145 C   0  0  0  0  0  0  0  0  0  0  0  0
    4.9819   -3.6246   23.4227 C   0  0  0  0  0  0  0  0  0  0  0  0
    6.4347   -4.1237   23.4738 C   0  0  0  0  0  0  0  0  0  0  0  0
    7.4069   -2.9670   23.7831 C   0  0  0  0  0  0  0  0  0  0  0  0
    7.5333   -1.9307   22.6842 C   0  0  0  0  0  0  0  0  0  0  0  0
    6.6529   -1.5835   21.7618 N   0  0  0  0  0  0  0  0  0  0  0  0
    7.3342   -0.7184   20.9658 N   0  0  0  0  0  0  0  0  0  0  0  0
    6.6529   -0.0469   19.9029 C   0  0  0  0  0  0  0  0  0  0  0  0
    5.4399    0.6071   20.1531 C   0  0  0  0  0  0  0  0  0  0  0  0
    4.8332    1.2996   19.1012 C   0  0  0  0  0  0  0  0  0  0  0  0
    5.4343    1.3009   17.8380 C   0  0  0  0  0  0  0  0  0  0  0  0
    6.5758    0.6454   17.5793 N   0  0  0  0  0  0  0  0  0  0  0  0
    7.1580   -0.0128   18.5907 C   0  0  0  0  0  0  0  0  0  0  0  0
    8.0806   -0.5356   18.3496 H   0  0  0  0  0  0  0  0  0  0  0  0
    4.9830    1.8294   16.9980 H   0  0  0  0  0  0  0  0  0  0  0  0
    3.9038    1.8400   19.2466 H   0  0  0  0  0  0  0  0  0  0  0  0
    5.0019    0.5744   21.1505 H   0  0  0  0  0  0  0  0  0  0  0  0
    8.5880   -0.5538   21.4839 C   0  0  0  0  0  0  0  0  0  0  0  0
    9.6858    0.1631   20.7398 C   0  0  0  0  0  0  0  0  0  0  0  0
   10.7827    0.6670   21.5738 N   0  0  0  0  0  0  0  0  0  0  0  0
   10.3891    1.7167   22.5263 C   0  0  0  0  0  0  0  0  0  0  0  0
   11.5935    2.3734   23.1974 C   0  0  0  0  0  0  0  0  0  0  0  0
   12.4881    1.3108   23.8413 C   0  0  0  0  0  0  0  0  0  0  0  0
   12.9603    0.3343   22.7579 C   0  0  0  0  0  0  0  0  0  0  0  0
   11.9034   -0.1326   21.7575 C   0  0  0  0  0  0  0  0  0  0  0  0
   12.1000   -1.1366   21.0951 O   0  0  0  0  0  0  0  0  0  0  0  0
   13.7247    0.8159   22.1335 H   0  0  0  0  0  0  0  0  0  0  0  0
   13.4198   -0.5673   23.1718 H   0  0  0  0  0  0  0  0  0  0  0  0
   11.9366    0.7854   24.6384 H   0  0  0  0  0  0  0  0  0  0  0  0
   13.3639    1.7760   24.3082 H   0  0  0  0  0  0  0  0  0  0  0  0
   11.2273    3.0902   23.9438 H   0  0  0  0  0  0  0  0  0  0  0  0
   12.1631    2.9321   22.4415 H   0  0  0  0  0  0  0  0  0  0  0  0
    9.8015    2.4659   21.9785 H   0  0  0  0  0  0  0  0  0  0  0  0
    9.7183    1.2860   23.2890 H   0  0  0  0  0  0  0  0  0  0  0  0
    9.2606    0.9946   20.1674 H   0  0  0  0  0  0  0  0  0  0  0  0
   10.0902   -0.5587   20.0188 H   0  0  0  0  0  0  0  0  0  0  0  0
    8.7226   -1.2849   22.5744 N   0  0  0  0  0  0  0  0  0  0  0  0
    7.0396   -2.3121   25.1345 C   0  0  0  0  0  0  0  0  0  0  0  0
    5.5934   -1.8026   25.1355 C   0  0  0  0  0  0  0  0  0  0  0  0
    5.5492   -0.9183   24.4892 H   0  0  0  0  0  0  0  0  0  0  0  0
    5.3361   -1.4406   26.1375 H   0  0  0  0  0  0  0  0  0  0  0  0
    7.1745   -3.0523   25.9337 H   0  0  0  0  0  0  0  0  0  0  0  0
    7.7387   -1.4945   25.3500 H   0  0  0  0  0  0  0  0  0  0  0  0
    8.4196   -3.3711   23.8685 H   0  0  0  0  0  0  0  0  0  0  0  0
    6.5458   -4.8821   24.2664 H   0  0  0  0  0  0  0  0  0  0  0  0
    6.7097   -4.6225   22.5353 H   0  0  0  0  0  0  0  0  0  0  0  0
    4.3052   -4.4715   23.2551 H   0  0  0  0  0  0  0  0  0  0  0  0
    4.8900   -2.9580   22.5574 H   0  0  0  0  0  0  0  0  0  0  0  0
    3.6016   -2.3783   24.5169 H   0  0  0  0  0  0  0  0  0  0  0  0
    3.5783   -4.6309   25.5629 H   0  0  0  0  0  0  0  0  0  0  0  0
    5.2181   -4.3736   26.1790 H   0  0  0  0  0  0  0  0  0  0  0  0
    3.8915   -3.3341   26.7349 H   0  0  0  0  0  0  0  0  0  0  0  0
  1  2  1  0
  2  3  1  0
  3  4  1  0
  4  5  1  0
  5  6  1  0
  6  7  2  0
  7  8  1  0
  8  9  1  0
  9 10  2  0
 10 11  1  0
 11 12  2  0
 12 13  1  0
 13 14  2  0
 14 15  1  0
 12 16  1  0
 11 17  1  0
 10 18  1  0
  8 19  1  0
 19 20  1  0
 20 21  1  0
 21 22  1  0
 22 23  1  0
 23 24  1  0
 24 25  1  0
 25 26  1  0
 26 27  2  0
 25 28  1  0
 25 29  1  0
 24 30  1  0
 24 31  1  0
 23 32  1  0
 23 33  1  0
 22 34  1  0
 22 35  1  0
 20 36  1  0
 20 37  1  0
 19 38  2  0
  5 39  1  0
 39 40  1  0
 40 41  1  0
 40 42  1  0
 39 43  1  0
 39 44  1  0
  5 45  1  0
  4 46  1  0
  4 47  1  0
  3 48  1  0
  3 49  1  0
  2 50  1  0
  1 51  1  0
  1 52  1  0
  1 53  1  0
 40  2  1  0
 38  6  1  0
 14  9  1  0
 26 21  1  0
M  END
>  <cnnaffinity>  (1) 
-6.43224

>  <filename>  (1) 
CC1CCC(c2nc(CN3CCCCC3=O)n(-c3cccnc3)n2)CC1

$$$$
