
     RDKit          3D

 44 47  0  0  0  0  0  0  0  0999 V2000
   14.2028    5.5643   21.7451 C   0  0  0  0  0  0  0  0  0  0  0  0
   13.4238    4.3382   22.1731 C   0  0  0  0  0  0  0  0  0  0  0  0
   13.6901    3.6758   23.3824 C   0  0  0  0  0  0  0  0  0  0  0  0
   12.9985    2.5050   23.7269 C   0  0  0  0  0  0  0  0  0  0  0  0
   11.9496    2.0431   22.9385 C   0  0  0  0  0  0  0  0  0  0  0  0
   11.5901    2.7788   21.8052 C   0  0  0  0  0  0  0  0  0  0  0  0
   10.5057    2.4958   21.0366 O   0  0  0  0  0  0  0  0  0  0  0  0
    9.4151    1.7351   21.5263 C   0  0  0  0  0  0  0  0  0  0  0  0
    9.5775    0.3283   20.9550 C   0  0  0  0  0  0  0  0  0  0  0  0
    8.5642   -0.6462   21.4228 C   0  0  0  0  0  0  0  0  0  0  0  0
    8.7439   -1.4359   22.4544 N   0  0  0  0  0  0  0  0  0  0  0  0
    7.5508   -2.0778   22.5642 C   0  0  0  0  0  0  0  0  0  0  0  0
    7.3256   -3.0892   23.6230 C   0  0  0  0  0  0  0  0  0  0  0  0
    7.6174   -2.7463   25.0640 C   0  0  0  0  0  0  0  0  0  0  0  0
    6.2011   -2.9698   24.6196 C   0  0  0  0  0  0  0  0  0  0  0  0
    5.7093   -3.8933   24.9156 H   0  0  0  0  0  0  0  0  0  0  0  0
    5.5407   -2.1082   24.5370 H   0  0  0  0  0  0  0  0  0  0  0  0
    8.1080   -3.5025   25.6726 H   0  0  0  0  0  0  0  0  0  0  0  0
    7.9408   -1.7250   25.2647 H   0  0  0  0  0  0  0  0  0  0  0  0
    7.5984   -4.0881   23.2869 H   0  0  0  0  0  0  0  0  0  0  0  0
    6.6486   -1.7355   21.6655 N   0  0  0  0  0  0  0  0  0  0  0  0
    7.3069   -0.8172   20.9082 N   0  0  0  0  0  0  0  0  0  0  0  0
    6.6297   -0.1144   19.8620 C   0  0  0  0  0  0  0  0  0  0  0  0
    5.4365    0.5691   20.1204 C   0  0  0  0  0  0  0  0  0  0  0  0
    4.8594    1.2958   19.0760 C   0  0  0  0  0  0  0  0  0  0  0  0
    5.4715    1.2924   17.8179 C   0  0  0  0  0  0  0  0  0  0  0  0
    6.5915    0.6047   17.5508 N   0  0  0  0  0  0  0  0  0  0  0  0
    7.1484   -0.0794   18.5559 C   0  0  0  0  0  0  0  0  0  0  0  0
    8.0580   -0.6306   18.3200 H   0  0  0  0  0  0  0  0  0  0  0  0
    5.0395    1.8538   16.9928 H   0  0  0  0  0  0  0  0  0  0  0  0
    3.9500    1.8666   19.2254 H   0  0  0  0  0  0  0  0  0  0  0  0
    4.9861    0.5240   21.1136 H   0  0  0  0  0  0  0  0  0  0  0  0
   10.5697   -0.0508   21.2301 H   0  0  0  0  0  0  0  0  0  0  0  0
    9.5502    0.4123   19.8686 H   0  0  0  0  0  0  0  0  0  0  0  0
    9.3587    1.7497   22.6248 H   0  0  0  0  0  0  0  0  0  0  0  0
    8.5047    2.2201   21.1476 H   0  0  0  0  0  0  0  0  0  0  0  0
   12.3770    3.8590   21.3791 C   0  0  0  0  0  0  0  0  0  0  0  0
   12.1502    4.3041   20.4184 H   0  0  0  0  0  0  0  0  0  0  0  0
   11.3949    1.1409   23.1878 H   0  0  0  0  0  0  0  0  0  0  0  0
   13.2322    1.9314   24.6242 H   0  0  0  0  0  0  0  0  0  0  0  0
   14.4243    4.1189   24.0479 H   0  0  0  0  0  0  0  0  0  0  0  0
   14.5414    5.4792   20.7062 H   0  0  0  0  0  0  0  0  0  0  0  0
   15.0850    5.7549   22.3607 H   0  0  0  0  0  0  0  0  0  0  0  0
   13.5842    6.4646   21.8140 H   0  0  0  0  0  0  0  0  0  0  0  0
  1  2  1  0
  2  3  2  0
  3  4  1  0
  4  5  2  0
  5  6  1  0
  6  7  1  0
  7  8  1  0
  8  9  1  0
  9 10  1  0
 10 11  2  0
 11 12  1  0
 12 13  1  0
 13 14  1  0
 14 15  1  0
 15 16  1  0
 15 17  1  0
 14 18  1  0
 14 19  1  0
 13 20  1  0
 12 21  2  0
 21 22  1  0
 22 23  1  0
 23 24  2  0
 24 25  1  0
 25 26  2  0
 26 27  1  0
 27 28  2  0
 28 29  1  0
 26 30  1  0
 25 31  1  0
 24 32  1  0
  9 33  1  0
  9 34  1  0
  8 35  1  0
  8 36  1  0
  6 37  2  0
 37 38  1  0
  5 39  1  0
  4 40  1  0
  3 41  1  0
  1 42  1  0
  1 43  1  0
  1 44  1  0
 37  2  1  0
 22 10  1  0
 28 23  1  0
 15 13  1  0
M  END
>  <cnnaffinity>  (1) 
-6.15451

>  <filename>  (1) 
Cc1cccc(OCCc2nc(C3CC3)nn2-c2cccnc2)c1

$$$$
