
     RDKit          3D

 40 44  0  0  0  0  0  0  0  0999 V2000
    6.1158    0.3846   25.4523 C   0  0  0  0  0  0  0  0  0  0  0  0
    6.3302    1.4657   24.4352 C   0  0  0  0  0  0  0  0  0  0  0  0
    6.1489    2.7878   24.8354 C   0  0  0  0  0  0  0  0  0  0  0  0
    6.4286    3.8127   23.9363 C   0  0  0  0  0  0  0  0  0  0  0  0
    6.2152    5.4549   24.4620 Cl  0  0  0  0  0  0  0  0  0  0  0  0
    6.8698    3.6224   22.7068 N   0  0  0  0  0  0  0  0  0  0  0  0
    7.0304    2.3585   22.3153 C   0  0  0  0  0  0  0  0  0  0  0  0
    6.7141    1.2404   23.0934 C   0  0  0  0  0  0  0  0  0  0  0  0
    6.8946   -0.1090   22.5448 C   0  0  0  0  0  0  0  0  0  0  0  0
    7.4094   -1.1050   23.2484 N   0  0  0  0  0  0  0  0  0  0  0  0
    7.6200   -2.0807   22.3416 C   0  0  0  0  0  0  0  0  0  0  0  0
    8.4479   -3.2872   22.6056 C   0  0  0  0  0  0  0  0  0  0  0  0
    7.9482   -4.7212   22.3841 C   0  0  0  0  0  0  0  0  0  0  0  0
    8.3105   -4.2217   23.7579 C   0  0  0  0  0  0  0  0  0  0  0  0
    7.7680   -4.2239   25.1457 C   0  0  0  0  0  0  0  0  0  0  0  0
    9.2203   -4.6190   24.8728 C   0  0  0  0  0  0  0  0  0  0  0  0
    9.5008   -5.6698   24.9466 H   0  0  0  0  0  0  0  0  0  0  0  0
    9.9985   -3.9132   25.1652 H   0  0  0  0  0  0  0  0  0  0  0  0
    7.5786   -3.2448   25.5829 H   0  0  0  0  0  0  0  0  0  0  0  0
    7.0694   -5.0175   25.3974 H   0  0  0  0  0  0  0  0  0  0  0  0
    8.6526   -5.4070   21.9104 H   0  0  0  0  0  0  0  0  0  0  0  0
    6.8948   -4.9133   22.1653 H   0  0  0  0  0  0  0  0  0  0  0  0
    9.4860   -3.0931   22.3245 H   0  0  0  0  0  0  0  0  0  0  0  0
    7.2406   -1.7820   21.1166 N   0  0  0  0  0  0  0  0  0  0  0  0
    6.7458   -0.5181   21.2326 N   0  0  0  0  0  0  0  0  0  0  0  0
    6.2929    0.1246   20.0431 C   0  0  0  0  0  0  0  0  0  0  0  0
    5.3216    1.1294   20.0402 C   0  0  0  0  0  0  0  0  0  0  0  0
    5.0057    1.7415   18.8202 C   0  0  0  0  0  0  0  0  0  0  0  0
    5.6212    1.2936   17.6513 C   0  0  0  0  0  0  0  0  0  0  0  0
    6.5395    0.3145   17.6412 N   0  0  0  0  0  0  0  0  0  0  0  0
    6.8562   -0.2565   18.8062 C   0  0  0  0  0  0  0  0  0  0  0  0
    7.5977   -1.0501   18.7716 H   0  0  0  0  0  0  0  0  0  0  0  0
    5.3585    1.7166   16.6828 H   0  0  0  0  0  0  0  0  0  0  0  0
    4.3052    2.5675   18.7741 H   0  0  0  0  0  0  0  0  0  0  0  0
    4.8509    1.4557   20.9663 H   0  0  0  0  0  0  0  0  0  0  0  0
    7.4253    2.2286   21.3105 H   0  0  0  0  0  0  0  0  0  0  0  0
    5.8182    3.0277   25.8379 H   0  0  0  0  0  0  0  0  0  0  0  0
    7.0480   -0.1408   25.6689 H   0  0  0  0  0  0  0  0  0  0  0  0
    5.7300    0.8087   26.3812 H   0  0  0  0  0  0  0  0  0  0  0  0
    5.4097   -0.3554   25.0771 H   0  0  0  0  0  0  0  0  0  0  0  0
  1  2  1  0
  2  3  2  0
  3  4  1  0
  4  5  1  0
  4  6  2  0
  6  7  1  0
  7  8  2  0
  8  9  1  0
  9 10  2  0
 10 11  1  0
 11 12  1  0
 12 13  1  0
 13 14  1  0
 14 15  1  0
 15 16  1  0
 16 17  1  0
 16 18  1  0
 15 19  1  0
 15 20  1  0
 13 21  1  0
 13 22  1  0
 12 23  1  0
 11 24  2  0
 24 25  1  0
 25 26  1  0
 26 27  2  0
 27 28  1  0
 28 29  2  0
 29 30  1  0
 30 31  2  0
 31 32  1  0
 29 33  1  0
 28 34  1  0
 27 35  1  0
  7 36  1  0
  3 37  1  0
  1 38  1  0
  1 39  1  0
  1 40  1  0
  8  2  1  0
 25  9  1  0
 31 26  1  0
 14 12  1  0
 16 14  1  0
M  END
>  <cnnaffinity>  (1) 
-6.1229

>  <filename>  (1) 
Cc1cc(Cl)ncc1-c1nc(C2CC23CC3)nn1-c1cccnc1

$$$$
