
     RDKit          3D

 46 49  0  0  0  0  0  0  0  0999 V2000
    7.3567    5.0748   22.2802 C   0  0  0  0  0  0  0  0  0  0  0  0
    8.0559    3.7450   22.3682 C   0  0  0  0  0  0  0  0  0  0  0  0
    8.2235    2.7086   21.4689 C   0  0  0  0  0  0  0  0  0  0  0  0
    9.1679    1.8398   22.0422 C   0  0  0  0  0  0  0  0  0  0  0  0
    9.7042    0.5753   21.4701 C   0  0  0  0  0  0  0  0  0  0  0  0
    8.7156   -0.4992   21.7020 C   0  0  0  0  0  0  0  0  0  0  0  0
    8.8446   -1.3395   22.6990 N   0  0  0  0  0  0  0  0  0  0  0  0
    7.7196   -2.0866   22.6282 C   0  0  0  0  0  0  0  0  0  0  0  0
    7.4129   -3.1104   23.6767 C   0  0  0  0  0  0  0  0  0  0  0  0
    6.9739   -4.4643   23.0807 C   0  0  0  0  0  0  0  0  0  0  0  0
    6.7279   -5.4915   24.1957 C   0  0  0  0  0  0  0  0  0  0  0  0
    5.7616   -4.9802   25.2549 C   0  0  0  0  0  0  0  0  0  0  0  0
    5.6729   -5.8944   26.2713 F   0  0  0  0  0  0  0  0  0  0  0  0
    4.5023   -4.8960   24.7048 F   0  0  0  0  0  0  0  0  0  0  0  0
    6.1475   -3.6224   25.8226 C   0  0  0  0  0  0  0  0  0  0  0  0
    6.3740   -2.5883   24.7089 C   0  0  0  0  0  0  0  0  0  0  0  0
    5.4237   -2.3840   24.2003 H   0  0  0  0  0  0  0  0  0  0  0  0
    6.7162   -1.6397   25.1419 H   0  0  0  0  0  0  0  0  0  0  0  0
    5.3677   -3.3047   26.5219 H   0  0  0  0  0  0  0  0  0  0  0  0
    7.0687   -3.7656   26.4011 H   0  0  0  0  0  0  0  0  0  0  0  0
    7.6700   -5.7225   24.7100 H   0  0  0  0  0  0  0  0  0  0  0  0
    6.3236   -6.4223   23.7912 H   0  0  0  0  0  0  0  0  0  0  0  0
    6.0622   -4.3207   22.4854 H   0  0  0  0  0  0  0  0  0  0  0  0
    7.7461   -4.8396   22.3978 H   0  0  0  0  0  0  0  0  0  0  0  0
    8.3597   -3.2582   24.2121 H   0  0  0  0  0  0  0  0  0  0  0  0
    6.9032   -1.7637   21.6434 N   0  0  0  0  0  0  0  0  0  0  0  0
    7.5442   -0.7264   21.0342 N   0  0  0  0  0  0  0  0  0  0  0  0
    6.8600   -0.0480   19.9693 C   0  0  0  0  0  0  0  0  0  0  0  0
    5.6334    0.5791   20.2220 C   0  0  0  0  0  0  0  0  0  0  0  0
    4.9956    1.2295   19.1643 C   0  0  0  0  0  0  0  0  0  0  0  0
    5.5711    1.1952   17.8903 C   0  0  0  0  0  0  0  0  0  0  0  0
    6.7232    0.5600   17.6303 N   0  0  0  0  0  0  0  0  0  0  0  0
    7.3484   -0.0436   18.6508 C   0  0  0  0  0  0  0  0  0  0  0  0
    8.2723   -0.5629   18.3991 H   0  0  0  0  0  0  0  0  0  0  0  0
    5.0830    1.6909   17.0532 H   0  0  0  0  0  0  0  0  0  0  0  0
    4.0585    1.7502   19.3150 H   0  0  0  0  0  0  0  0  0  0  0  0
    5.1923    0.5452   21.2209 H   0  0  0  0  0  0  0  0  0  0  0  0
   10.6215    0.2997   21.9991 H   0  0  0  0  0  0  0  0  0  0  0  0
    9.8955    0.6855   20.4049 H   0  0  0  0  0  0  0  0  0  0  0  0
    9.4943    2.2327   23.2575 N   0  0  0  0  0  0  0  0  0  0  0  0
    8.8132    3.3772   23.4351 N   0  0  0  0  0  0  0  0  0  0  0  0
    8.9422    3.8930   24.2913 H   0  0  0  0  0  0  0  0  0  0  0  0
    7.6644    2.4979   20.5745 H   0  0  0  0  0  0  0  0  0  0  0  0
    6.4140    5.0000   21.7324 H   0  0  0  0  0  0  0  0  0  0  0  0
    7.1336    5.4844   23.2726 H   0  0  0  0  0  0  0  0  0  0  0  0
    7.9629    5.8045   21.7284 H   0  0  0  0  0  0  0  0  0  0  0  0
  1  2  1  0
  2  3  2  0
  3  4  1  0
  4  5  1  0
  5  6  1  0
  6  7  2  0
  7  8  1  0
  8  9  1  0
  9 10  1  0
 10 11  1  0
 11 12  1  0
 12 13  1  0
 12 14  1  0
 12 15  1  0
 15 16  1  0
 16 17  1  0
 16 18  1  0
 15 19  1  0
 15 20  1  0
 11 21  1  0
 11 22  1  0
 10 23  1  0
 10 24  1  0
  9 25  1  0
  8 26  2  0
 26 27  1  0
 27 28  1  0
 28 29  2  0
 29 30  1  0
 30 31  2  0
 31 32  1  0
 32 33  2  0
 33 34  1  0
 31 35  1  0
 30 36  1  0
 29 37  1  0
  5 38  1  0
  5 39  1  0
  4 40  2  0
 40 41  1  0
 41 42  1  0
  3 43  1  0
  1 44  1  0
  1 45  1  0
  1 46  1  0
 41  2  1  0
 27  6  1  0
 33 28  1  0
 16  9  1  0
M  END
>  <cnnaffinity>  (1) 
-6.06405

>  <filename>  (1) 
Cc1cc(Cc2nc(C3CCC(F)(F)CC3)nn2-c2cccnc2)n[nH]1

$$$$
