
     RDKit          3D

 45 48  0  0  0  0  0  0  0  0999 V2000
    9.6617    2.2297   21.1683 C   0  0  0  0  0  0  0  0  0  0  0  0
    9.7611    2.1963   22.6682 C   0  0  0  0  0  0  0  0  0  0  0  0
   10.9341    2.6223   23.3122 C   0  0  0  0  0  0  0  0  0  0  0  0
   11.1702    2.5004   24.6206 N   0  0  0  0  0  0  0  0  0  0  0  0
   10.1968    1.9521   25.3584 C   0  0  0  0  0  0  0  0  0  0  0  0
    8.9540    1.5789   24.8473 C   0  0  0  0  0  0  0  0  0  0  0  0
    8.7194    1.7033   23.4757 C   0  0  0  0  0  0  0  0  0  0  0  0
    7.4227    1.2053   22.8586 C   0  0  0  0  0  0  0  0  0  0  0  0
    7.5554   -0.1675   22.2576 C   0  0  0  0  0  0  0  0  0  0  0  0
    8.0557   -1.1952   22.9182 N   0  0  0  0  0  0  0  0  0  0  0  0
    8.0688   -2.1913   21.9988 C   0  0  0  0  0  0  0  0  0  0  0  0
    8.5687   -3.5690   22.2694 C   0  0  0  0  0  0  0  0  0  0  0  0
    7.5711   -4.4504   23.0203 C   0  0  0  0  0  0  0  0  0  0  0  0
    7.9786   -5.9334   23.1729 C   0  0  0  0  0  0  0  0  0  0  0  0
    6.7032   -6.3672   22.4141 C   0  0  0  0  0  0  0  0  0  0  0  0
    6.3423   -4.8791   22.1795 C   0  0  0  0  0  0  0  0  0  0  0  0
    6.4278   -4.5737   21.1310 H   0  0  0  0  0  0  0  0  0  0  0  0
    5.3666   -4.5339   22.5363 H   0  0  0  0  0  0  0  0  0  0  0  0
    5.9825   -6.9110   23.0337 H   0  0  0  0  0  0  0  0  0  0  0  0
    6.8845   -6.9395   21.4996 H   0  0  0  0  0  0  0  0  0  0  0  0
    8.0527   -6.2860   24.2040 H   0  0  0  0  0  0  0  0  0  0  0  0
    8.9223   -6.1814   22.6801 H   0  0  0  0  0  0  0  0  0  0  0  0
    7.2931   -3.9966   23.9769 H   0  0  0  0  0  0  0  0  0  0  0  0
    8.7466   -4.0168   21.2904 H   0  0  0  0  0  0  0  0  0  0  0  0
    9.5214   -3.5085   22.8038 H   0  0  0  0  0  0  0  0  0  0  0  0
    7.6083   -1.8505   20.8149 N   0  0  0  0  0  0  0  0  0  0  0  0
    7.2264   -0.5612   20.9850 N   0  0  0  0  0  0  0  0  0  0  0  0
    6.5652    0.0836   19.9022 C   0  0  0  0  0  0  0  0  0  0  0  0
    5.3550    0.7630   20.0794 C   0  0  0  0  0  0  0  0  0  0  0  0
    4.7837    1.3913   18.9674 C   0  0  0  0  0  0  0  0  0  0  0  0
    5.4456    1.3239   17.7388 C   0  0  0  0  0  0  0  0  0  0  0  0
    6.5761    0.6186   17.5516 N   0  0  0  0  0  0  0  0  0  0  0  0
    7.1026   -0.0139   18.6054 C   0  0  0  0  0  0  0  0  0  0  0  0
    7.9788   -0.6345   18.4122 H   0  0  0  0  0  0  0  0  0  0  0  0
    5.0418    1.8281   16.8629 H   0  0  0  0  0  0  0  0  0  0  0  0
    3.8424    1.9266   19.0464 H   0  0  0  0  0  0  0  0  0  0  0  0
    4.8725    0.7701   21.0572 H   0  0  0  0  0  0  0  0  0  0  0  0
    7.0622    1.9073   22.1052 H   0  0  0  0  0  0  0  0  0  0  0  0
    6.6636    1.1468   23.6409 H   0  0  0  0  0  0  0  0  0  0  0  0
    8.1870    1.2055   25.5216 H   0  0  0  0  0  0  0  0  0  0  0  0
   10.4208    1.8185   26.4099 H   0  0  0  0  0  0  0  0  0  0  0  0
   11.7312    3.0841   22.7237 H   0  0  0  0  0  0  0  0  0  0  0  0
    9.3642    1.2526   20.7717 H   0  0  0  0  0  0  0  0  0  0  0  0
    8.9226    2.9561   20.8135 H   0  0  0  0  0  0  0  0  0  0  0  0
   10.6243    2.4911   20.7218 H   0  0  0  0  0  0  0  0  0  0  0  0
  1  2  1  0
  2  3  2  0
  3  4  1  0
  4  5  2  0
  5  6  1  0
  6  7  2  0
  7  8  1  0
  8  9  1  0
  9 10  2  0
 10 11  1  0
 11 12  1  0
 12 13  1  0
 13 14  1  0
 14 15  1  0
 15 16  1  0
 16 17  1  0
 16 18  1  0
 15 19  1  0
 15 20  1  0
 14 21  1  0
 14 22  1  0
 13 23  1  0
 12 24  1  0
 12 25  1  0
 11 26  2  0
 26 27  1  0
 27 28  1  0
 28 29  2  0
 29 30  1  0
 30 31  2  0
 31 32  1  0
 32 33  2  0
 33 34  1  0
 31 35  1  0
 30 36  1  0
 29 37  1  0
  8 38  1  0
  8 39  1  0
  6 40  1  0
  5 41  1  0
  3 42  1  0
  1 43  1  0
  1 44  1  0
  1 45  1  0
  7  2  1  0
 27  9  1  0
 33 28  1  0
 16 13  1  0
M  END
>  <cnnaffinity>  (1) 
-5.99768

>  <filename>  (1) 
Cc1cnccc1Cc1nc(CC2CCC2)nn1-c1cccnc1

$$$$
