
     RDKit          3D

 48 51  0  0  0  0  0  0  0  0999 V2000
    3.2964   -3.1740   25.2560 C   0  0  0  0  0  0  0  0  0  0  0  0
    4.7485   -3.6110   25.0299 C   0  0  0  0  0  0  0  0  0  0  0  0
    5.0005   -4.0489   23.5780 C   0  0  0  0  0  0  0  0  0  0  0  0
    6.4383   -4.5494   23.3890 C   0  0  0  0  0  0  0  0  0  0  0  0
    7.4887   -3.4832   23.7694 C   0  0  0  0  0  0  0  0  0  0  0  0
    7.6998   -2.4006   22.7430 C   0  0  0  0  0  0  0  0  0  0  0  0
    6.8931   -2.0611   21.7586 N   0  0  0  0  0  0  0  0  0  0  0  0
    7.5362   -1.0181   21.1645 N   0  0  0  0  0  0  0  0  0  0  0  0
    6.8507   -0.3563   20.0910 C   0  0  0  0  0  0  0  0  0  0  0  0
    5.6263    0.2797   20.3240 C   0  0  0  0  0  0  0  0  0  0  0  0
    5.0213    0.9517   19.2559 C   0  0  0  0  0  0  0  0  0  0  0  0
    5.6331    0.9180   17.9993 C   0  0  0  0  0  0  0  0  0  0  0  0
    6.7745    0.2568   17.7604 N   0  0  0  0  0  0  0  0  0  0  0  0
    7.3659   -0.3658   18.7877 C   0  0  0  0  0  0  0  0  0  0  0  0
    8.2929   -0.8960   18.5675 H   0  0  0  0  0  0  0  0  0  0  0  0
    5.1890    1.4234   17.1440 H   0  0  0  0  0  0  0  0  0  0  0  0
    4.0905    1.4952   19.3766 H   0  0  0  0  0  0  0  0  0  0  0  0
    5.1846    0.2857   21.3221 H   0  0  0  0  0  0  0  0  0  0  0  0
    8.7047   -0.7812   21.8440 C   0  0  0  0  0  0  0  0  0  0  0  0
    9.6962    0.3379   21.6427 C   0  0  0  0  0  0  0  0  0  0  0  0
    9.2809    1.6353   22.3047 C   0  0  0  0  0  0  0  0  0  0  0  0
    9.5992    1.9746   23.5910 C   0  0  0  0  0  0  0  0  0  0  0  0
    9.0155    3.1556   24.1795 C   0  0  0  0  0  0  0  0  0  0  0  0
    8.1771    3.9308   23.5429 N   0  0  0  0  0  0  0  0  0  0  0  0
    7.9024    3.5920   22.2544 N   0  0  0  0  0  0  0  0  0  0  0  0
    8.3229    2.4687   21.5588 C   0  0  0  0  0  0  0  0  0  0  0  0
    7.8840    2.2018   20.4527 O   0  0  0  0  0  0  0  0  0  0  0  0
    7.1957    4.1058   21.7316 H   0  0  0  0  0  0  0  0  0  0  0  0
    9.2394    3.4317   25.2068 H   0  0  0  0  0  0  0  0  0  0  0  0
   10.3013    1.3975   24.1873 H   0  0  0  0  0  0  0  0  0  0  0  0
    9.8319    0.5049   20.5733 H   0  0  0  0  0  0  0  0  0  0  0  0
   10.6458   -0.0121   22.0598 H   0  0  0  0  0  0  0  0  0  0  0  0
    8.8287   -1.6484   22.8257 N   0  0  0  0  0  0  0  0  0  0  0  0
    7.2048   -2.8710   25.1696 C   0  0  0  0  0  0  0  0  0  0  0  0
    5.7367   -2.4820   25.3749 C   0  0  0  0  0  0  0  0  0  0  0  0
    5.4871   -1.6260   24.7308 H   0  0  0  0  0  0  0  0  0  0  0  0
    5.5923   -2.1369   26.4059 H   0  0  0  0  0  0  0  0  0  0  0  0
    7.4975   -3.6001   25.9364 H   0  0  0  0  0  0  0  0  0  0  0  0
    7.8443   -1.9891   25.3059 H   0  0  0  0  0  0  0  0  0  0  0  0
    8.4734   -3.9588   23.8171 H   0  0  0  0  0  0  0  0  0  0  0  0
    6.5994   -5.4188   24.0455 H   0  0  0  0  0  0  0  0  0  0  0  0
    6.5921   -4.8934   22.3591 H   0  0  0  0  0  0  0  0  0  0  0  0
    4.2879   -4.8321   23.2910 H   0  0  0  0  0  0  0  0  0  0  0  0
    4.8268   -3.1985   22.9047 H   0  0  0  0  0  0  0  0  0  0  0  0
    4.9492   -4.4837   25.6773 H   0  0  0  0  0  0  0  0  0  0  0  0
    2.5975   -3.8736   24.7810 H   0  0  0  0  0  0  0  0  0  0  0  0
    3.1109   -2.1802   24.8290 H   0  0  0  0  0  0  0  0  0  0  0  0
    3.0604   -3.1151   26.3250 H   0  0  0  0  0  0  0  0  0  0  0  0
  1  2  1  0
  2  3  1  0
  3  4  1  0
  4  5  1  0
  5  6  1  0
  6  7  2  0
  7  8  1  0
  8  9  1  0
  9 10  2  0
 10 11  1  0
 11 12  2  0
 12 13  1  0
 13 14  2  0
 14 15  1  0
 12 16  1  0
 11 17  1  0
 10 18  1  0
  8 19  1  0
 19 20  1  0
 20 21  1  0
 21 22  2  0
 22 23  1  0
 23 24  2  0
 24 25  1  0
 25 26  1  0
 26 27  2  0
 25 28  1  0
 23 29  1  0
 22 30  1  0
 20 31  1  0
 20 32  1  0
 19 33  2  0
  5 34  1  0
 34 35  1  0
 35 36  1  0
 35 37  1  0
 34 38  1  0
 34 39  1  0
  5 40  1  0
  4 41  1  0
  4 42  1  0
  3 43  1  0
  3 44  1  0
  2 45  1  0
  1 46  1  0
  1 47  1  0
  1 48  1  0
 35  2  1  0
 33  6  1  0
 14  9  1  0
 26 21  1  0
M  END
>  <cnnaffinity>  (1) 
-6.03497

>  <filename>  (1) 
CC1CCC(c2nc(Cc3ccn[nH]c3=O)n(-c3cccnc3)n2)CC1

$$$$
