
     RDKit          3D

 44 47  0  0  0  0  0  0  0  0999 V2000
    5.8693    7.1329   23.8339 C   0  0  0  0  0  0  0  0  0  0  0  0
    6.4558    5.8687   23.2390 C   0  0  0  0  0  0  0  0  0  0  0  0
    7.7139    5.3989   23.6286 C   0  0  0  0  0  0  0  0  0  0  0  0
    8.2810    4.2451   23.0682 C   0  0  0  0  0  0  0  0  0  0  0  0
    7.5825    3.5243   22.0869 C   0  0  0  0  0  0  0  0  0  0  0  0
    8.0368    2.3828   21.4818 O   0  0  0  0  0  0  0  0  0  0  0  0
    9.3246    1.8617   21.7959 C   0  0  0  0  0  0  0  0  0  0  0  0
    9.5241    0.5802   20.9877 C   0  0  0  0  0  0  0  0  0  0  0  0
    8.6045   -0.5071   21.4105 C   0  0  0  0  0  0  0  0  0  0  0  0
    8.8508   -1.3673   22.3767 N   0  0  0  0  0  0  0  0  0  0  0  0
    7.6702   -2.0337   22.4972 C   0  0  0  0  0  0  0  0  0  0  0  0
    7.4257   -3.0442   23.5592 C   0  0  0  0  0  0  0  0  0  0  0  0
    6.2599   -2.8678   24.5000 C   0  0  0  0  0  0  0  0  0  0  0  0
    7.6603   -2.6825   25.0060 C   0  0  0  0  0  0  0  0  0  0  0  0
    8.0080   -1.6705   25.2049 H   0  0  0  0  0  0  0  0  0  0  0  0
    8.0803   -3.4296   25.6751 H   0  0  0  0  0  0  0  0  0  0  0  0
    5.6504   -1.9807   24.3472 H   0  0  0  0  0  0  0  0  0  0  0  0
    5.6941   -3.7433   24.8089 H   0  0  0  0  0  0  0  0  0  0  0  0
    7.6800   -4.0547   23.2526 H   0  0  0  0  0  0  0  0  0  0  0  0
    6.7328   -1.6625   21.6440 N   0  0  0  0  0  0  0  0  0  0  0  0
    7.3429   -0.6828   20.9312 N   0  0  0  0  0  0  0  0  0  0  0  0
    6.6552    0.0077   19.8998 C   0  0  0  0  0  0  0  0  0  0  0  0
    5.4372    0.6405   20.1643 C   0  0  0  0  0  0  0  0  0  0  0  0
    4.8090    1.3062   19.1082 C   0  0  0  0  0  0  0  0  0  0  0  0
    5.3986    1.2941   17.8384 C   0  0  0  0  0  0  0  0  0  0  0  0
    6.5568    0.6700   17.5748 N   0  0  0  0  0  0  0  0  0  0  0  0
    7.1674    0.0535   18.5929 C   0  0  0  0  0  0  0  0  0  0  0  0
    8.1133   -0.4328   18.3641 H   0  0  0  0  0  0  0  0  0  0  0  0
    4.9194    1.7858   16.9962 H   0  0  0  0  0  0  0  0  0  0  0  0
    3.8789    1.8422   19.2576 H   0  0  0  0  0  0  0  0  0  0  0  0
    5.0189    0.6146   21.1744 H   0  0  0  0  0  0  0  0  0  0  0  0
   10.5400    0.2126   21.1378 H   0  0  0  0  0  0  0  0  0  0  0  0
    9.4093    0.7940   19.9264 H   0  0  0  0  0  0  0  0  0  0  0  0
   10.1126    2.5888   21.5524 H   0  0  0  0  0  0  0  0  0  0  0  0
    9.3881    1.6202   22.8657 H   0  0  0  0  0  0  0  0  0  0  0  0
    6.3180    3.9880   21.6815 C   0  0  0  0  0  0  0  0  0  0  0  0
    5.7731    5.1423   22.2526 C   0  0  0  0  0  0  0  0  0  0  0  0
    4.7998    5.5031   21.9242 H   0  0  0  0  0  0  0  0  0  0  0  0
    5.7789    3.4520   20.9094 H   0  0  0  0  0  0  0  0  0  0  0  0
    9.2634    3.9194   23.3921 H   0  0  0  0  0  0  0  0  0  0  0  0
    8.2630    5.9546   24.3863 H   0  0  0  0  0  0  0  0  0  0  0  0
    6.1646    8.0180   23.2575 H   0  0  0  0  0  0  0  0  0  0  0  0
    6.2078    7.2969   24.8631 H   0  0  0  0  0  0  0  0  0  0  0  0
    4.7739    7.1145   23.8496 H   0  0  0  0  0  0  0  0  0  0  0  0
  1  2  1  0
  2  3  2  0
  3  4  1  0
  4  5  2  0
  5  6  1  0
  6  7  1  0
  7  8  1  0
  8  9  1  0
  9 10  2  0
 10 11  1  0
 11 12  1  0
 12 13  1  0
 13 14  1  0
 14 15  1  0
 14 16  1  0
 13 17  1  0
 13 18  1  0
 12 19  1  0
 11 20  2  0
 20 21  1  0
 21 22  1  0
 22 23  2  0
 23 24  1  0
 24 25  2  0
 25 26  1  0
 26 27  2  0
 27 28  1  0
 25 29  1  0
 24 30  1  0
 23 31  1  0
  8 32  1  0
  8 33  1  0
  7 34  1  0
  7 35  1  0
  5 36  1  0
 36 37  2  0
 37 38  1  0
 36 39  1  0
  4 40  1  0
  3 41  1  0
  1 42  1  0
  1 43  1  0
  1 44  1  0
 37  2  1  0
 21  9  1  0
 27 22  1  0
 14 12  1  0
M  END
>  <cnnaffinity>  (1) 
-5.86601

>  <filename>  (1) 
Cc1ccc(OCCc2nc(C3CC3)nn2-c2cccnc2)cc1

$$$$
