
     RDKit          3D

 45 48  0  0  0  0  0  0  0  0999 V2000
    6.7754    1.8939   23.0282 C   0  0  0  0  0  0  0  0  0  0  0  0
    8.1735    1.9801   23.6096 C   0  0  0  0  0  0  0  0  0  0  0  0
    8.3084    1.9967   25.0039 C   0  0  0  0  0  0  0  0  0  0  0  0
    9.5609    2.0056   25.6094 C   0  0  0  0  0  0  0  0  0  0  0  0
   10.7190    2.0035   24.8295 C   0  0  0  0  0  0  0  0  0  0  0  0
   10.6500    2.0156   23.4291 C   0  0  0  0  0  0  0  0  0  0  0  0
   11.9324    2.0340   22.6076 C   0  0  0  0  0  0  0  0  0  0  0  0
   12.3503    1.0236   22.4823 H   0  0  0  0  0  0  0  0  0  0  0  0
   12.7189    2.6233   23.0979 H   0  0  0  0  0  0  0  0  0  0  0  0
   11.7537    2.4519   21.6104 H   0  0  0  0  0  0  0  0  0  0  0  0
    9.3609    1.9852   22.8394 C   0  0  0  0  0  0  0  0  0  0  0  0
    9.2507    1.8809   21.4570 O   0  0  0  0  0  0  0  0  0  0  0  0
    9.5652    0.5658   20.9833 C   0  0  0  0  0  0  0  0  0  0  0  0
    8.6130   -0.5094   21.4281 C   0  0  0  0  0  0  0  0  0  0  0  0
    8.8090   -1.3829   22.4037 N   0  0  0  0  0  0  0  0  0  0  0  0
    7.5984   -1.9802   22.5354 C   0  0  0  0  0  0  0  0  0  0  0  0
    7.3322   -2.9598   23.6303 C   0  0  0  0  0  0  0  0  0  0  0  0
    6.3300   -2.4589   24.7110 C   0  0  0  0  0  0  0  0  0  0  0  0
    5.1779   -3.8370   24.3873 S   0  0  0  0  0  0  0  0  0  0  0  0
    6.5468   -4.2408   23.2489 C   0  0  0  0  0  0  0  0  0  0  0  0
    6.2296   -4.3006   22.2031 H   0  0  0  0  0  0  0  0  0  0  0  0
    7.0648   -5.1591   23.5411 H   0  0  0  0  0  0  0  0  0  0  0  0
    5.8877   -1.4756   24.5102 H   0  0  0  0  0  0  0  0  0  0  0  0
    6.7451   -2.4745   25.7232 H   0  0  0  0  0  0  0  0  0  0  0  0
    8.3134   -3.1817   24.0551 H   0  0  0  0  0  0  0  0  0  0  0  0
    6.6805   -1.5595   21.6900 N   0  0  0  0  0  0  0  0  0  0  0  0
    7.3468   -0.6395   20.9453 N   0  0  0  0  0  0  0  0  0  0  0  0
    6.6616    0.0026   19.8816 C   0  0  0  0  0  0  0  0  0  0  0  0
    5.4399    0.6284   20.1344 C   0  0  0  0  0  0  0  0  0  0  0  0
    4.8201    1.3098   19.0837 C   0  0  0  0  0  0  0  0  0  0  0  0
    5.4178    1.3048   17.8173 C   0  0  0  0  0  0  0  0  0  0  0  0
    6.5558    0.6449   17.5538 N   0  0  0  0  0  0  0  0  0  0  0  0
    7.1519    0.0041   18.5669 C   0  0  0  0  0  0  0  0  0  0  0  0
    8.0583   -0.5466   18.3291 H   0  0  0  0  0  0  0  0  0  0  0  0
    4.9595    1.8298   16.9797 H   0  0  0  0  0  0  0  0  0  0  0  0
    3.8842    1.8337   19.2383 H   0  0  0  0  0  0  0  0  0  0  0  0
    5.0068    0.5791   21.1353 H   0  0  0  0  0  0  0  0  0  0  0  0
    9.5856    0.6497   19.8988 H   0  0  0  0  0  0  0  0  0  0  0  0
   10.5559    0.2635   21.3351 H   0  0  0  0  0  0  0  0  0  0  0  0
   11.6889    1.9975   25.3160 H   0  0  0  0  0  0  0  0  0  0  0  0
    9.6172    2.0035   26.6853 H   0  0  0  0  0  0  0  0  0  0  0  0
    7.4127    2.0096   25.6179 H   0  0  0  0  0  0  0  0  0  0  0  0
    6.4395    0.8454   22.9931 H   0  0  0  0  0  0  0  0  0  0  0  0
    6.7217    2.3043   22.0137 H   0  0  0  0  0  0  0  0  0  0  0  0
    6.0718    2.4344   23.6747 H   0  0  0  0  0  0  0  0  0  0  0  0
  1  2  1  0
  2  3  2  0
  3  4  1  0
  4  5  2  0
  5  6  1  0
  6  7  1  0
  7  8  1  0
  7  9  1  0
  7 10  1  0
  6 11  2  0
 11 12  1  0
 12 13  1  0
 13 14  1  0
 14 15  2  0
 15 16  1  0
 16 17  1  0
 17 18  1  0
 18 19  1  0
 19 20  1  0
 20 21  1  0
 20 22  1  0
 18 23  1  0
 18 24  1  0
 17 25  1  0
 16 26  2  0
 26 27  1  0
 27 28  1  0
 28 29  2  0
 29 30  1  0
 30 31  2  0
 31 32  1  0
 32 33  2  0
 33 34  1  0
 31 35  1  0
 30 36  1  0
 29 37  1  0
 13 38  1  0
 13 39  1  0
  5 40  1  0
  4 41  1  0
  3 42  1  0
  1 43  1  0
  1 44  1  0
  1 45  1  0
 11  2  1  0
 27 14  1  0
 33 28  1  0
 20 17  1  0
M  END
>  <cnnaffinity>  (1) 
-5.99846

>  <filename>  (1) 
Cc1cccc(C)c1OCc1nc(C2CSC2)nn1-c1cccnc1

$$$$
