
     RDKit          3D

 42 45  0  0  0  0  0  0  0  0999 V2000
    8.1243   -0.3025   27.5946 C   0  0  0  0  0  0  0  0  0  0  0  0
    7.5072    0.3038   26.3812 C   0  0  0  0  0  0  0  0  0  0  0  0
    7.9880    1.1851   25.4755 C   0  0  0  0  0  0  0  0  0  0  0  0
    6.9862    1.2386   24.4728 C   0  0  0  0  0  0  0  0  0  0  0  0
    7.1322    1.8660   23.1204 C   0  0  0  0  0  0  0  0  0  0  0  0
    8.1060    1.0162   22.3753 C   0  0  0  0  0  0  0  0  0  0  0  0
    9.4138    1.1176   22.4845 N   0  0  0  0  0  0  0  0  0  0  0  0
    9.8577   -0.0659   21.9869 C   0  0  0  0  0  0  0  0  0  0  0  0
   11.2798   -0.4421   21.8808 C   0  0  0  0  0  0  0  0  0  0  0  0
   12.3011    0.3425   22.4483 C   0  0  0  0  0  0  0  0  0  0  0  0
   13.6163   -0.0549   22.2642 C   0  0  0  0  0  0  0  0  0  0  0  0
   14.5879    0.6918   22.8088 F   0  0  0  0  0  0  0  0  0  0  0  0
   13.9614   -1.1772   21.5154 C   0  0  0  0  0  0  0  0  0  0  0  0
   12.9455   -1.9056   20.9023 C   0  0  0  0  0  0  0  0  0  0  0  0
   11.6122   -1.6012   21.1601 C   0  0  0  0  0  0  0  0  0  0  0  0
   10.7987   -2.2329   20.8068 H   0  0  0  0  0  0  0  0  0  0  0  0
   13.2004   -2.6873   20.1917 H   0  0  0  0  0  0  0  0  0  0  0  0
   14.9900   -1.4803   21.4261 H   0  0  0  0  0  0  0  0  0  0  0  0
   12.1114    1.2595   23.0007 H   0  0  0  0  0  0  0  0  0  0  0  0
    8.8913   -0.8612   21.5465 N   0  0  0  0  0  0  0  0  0  0  0  0
    7.7713   -0.1598   21.8105 N   0  0  0  0  0  0  0  0  0  0  0  0
    6.4759   -0.5994   21.3128 C   0  0  0  0  0  0  0  0  0  0  0  0
    6.0527    0.1111   20.0421 C   0  0  0  0  0  0  0  0  0  0  0  0
    4.8573    0.8265   19.9264 C   0  0  0  0  0  0  0  0  0  0  0  0
    4.5890    1.4902   18.7257 C   0  0  0  0  0  0  0  0  0  0  0  0
    5.5215    1.4113   17.6890 C   0  0  0  0  0  0  0  0  0  0  0  0
    6.6618    0.7090   17.7700 N   0  0  0  0  0  0  0  0  0  0  0  0
    6.9140    0.0912   18.9292 C   0  0  0  0  0  0  0  0  0  0  0  0
    7.8594   -0.4465   19.0013 H   0  0  0  0  0  0  0  0  0  0  0  0
    5.3458    1.9357   16.7513 H   0  0  0  0  0  0  0  0  0  0  0  0
    3.6895    2.0792   18.5901 H   0  0  0  0  0  0  0  0  0  0  0  0
    4.1533    0.8865   20.7606 H   0  0  0  0  0  0  0  0  0  0  0  0
    6.5727   -1.6797   21.1676 H   0  0  0  0  0  0  0  0  0  0  0  0
    5.7696   -0.4174   22.1243 H   0  0  0  0  0  0  0  0  0  0  0  0
    7.5558    2.8650   23.2056 H   0  0  0  0  0  0  0  0  0  0  0  0
    6.1682    1.9278   22.6145 H   0  0  0  0  0  0  0  0  0  0  0  0
    5.9663    0.4851   24.7738 N   0  0  0  0  0  0  0  0  0  0  0  0
    6.2811   -0.0930   25.9976 O   0  0  0  0  0  0  0  0  0  0  0  0
    8.9529    1.6632   25.4475 H   0  0  0  0  0  0  0  0  0  0  0  0
    8.0203    0.3569   28.4616 H   0  0  0  0  0  0  0  0  0  0  0  0
    7.6672   -1.2689   27.8099 H   0  0  0  0  0  0  0  0  0  0  0  0
    9.1972   -0.4474   27.4320 H   0  0  0  0  0  0  0  0  0  0  0  0
  1  2  1  0
  2  3  2  0
  3  4  1  0
  4  5  1  0
  5  6  1  0
  6  7  2  0
  7  8  1  0
  8  9  1  0
  9 10  2  0
 10 11  1  0
 11 12  1  0
 11 13  2  0
 13 14  1  0
 14 15  2  0
 15 16  1  0
 14 17  1  0
 13 18  1  0
 10 19  1  0
  8 20  2  0
 20 21  1  0
 21 22  1  0
 22 23  1  0
 23 24  2  0
 24 25  1  0
 25 26  2  0
 26 27  1  0
 27 28  2  0
 28 29  1  0
 26 30  1  0
 25 31  1  0
 24 32  1  0
 22 33  1  0
 22 34  1  0
  5 35  1  0
  5 36  1  0
  4 37  2  0
 37 38  1  0
  3 39  1  0
  1 40  1  0
  1 41  1  0
  1 42  1  0
 38  2  1  0
 21  6  1  0
 28 23  1  0
 15  9  1  0
M  END
>  <cnnaffinity>  (1) 
-6.42805

>  <filename>  (1) 
Cc1cc(Cc2nc(-c3cccc(F)c3)nn2Cc2cccnc2)no1

$$$$
