
     RDKit          3D

 45 48  0  0  0  0  0  0  0  0999 V2000
    4.8155    4.6059   27.9472 C   0  0  0  0  0  0  0  0  0  0  0  0
    4.9604    3.6218   26.8375 C   0  0  0  0  0  0  0  0  0  0  0  0
    6.0482    3.1085   26.2174 C   0  0  0  0  0  0  0  0  0  0  0  0
    5.5225    2.0907   25.3724 C   0  0  0  0  0  0  0  0  0  0  0  0
    6.2997    1.0709   24.5895 C   0  0  0  0  0  0  0  0  0  0  0  0
    6.4392    1.2893   23.0575 C   0  0  0  0  0  0  0  0  0  0  0  0
    7.5615    0.4862   22.4642 C   0  0  0  0  0  0  0  0  0  0  0  0
    8.8131    0.7222   22.7999 N   0  0  0  0  0  0  0  0  0  0  0  0
    9.5263   -0.2068   22.1112 C   0  0  0  0  0  0  0  0  0  0  0  0
   11.0132   -0.2406   22.2263 C   0  0  0  0  0  0  0  0  0  0  0  0
   11.6363    0.8497   22.8733 C   0  0  0  0  0  0  0  0  0  0  0  0
   13.0188    0.8809   22.9824 C   0  0  0  0  0  0  0  0  0  0  0  0
   13.6078    1.8983   23.6233 F   0  0  0  0  0  0  0  0  0  0  0  0
   13.8321   -0.1078   22.4451 C   0  0  0  0  0  0  0  0  0  0  0  0
   13.1944   -1.1904   21.8396 C   0  0  0  0  0  0  0  0  0  0  0  0
   13.9531   -2.1693   21.3319 F   0  0  0  0  0  0  0  0  0  0  0  0
   11.8077   -1.2905   21.7211 C   0  0  0  0  0  0  0  0  0  0  0  0
   11.3813   -2.1642   21.2351 H   0  0  0  0  0  0  0  0  0  0  0  0
   14.9081    0.0034   22.4827 H   0  0  0  0  0  0  0  0  0  0  0  0
   11.0277    1.6422   23.2971 H   0  0  0  0  0  0  0  0  0  0  0  0
    8.7769   -1.0153   21.3795 N   0  0  0  0  0  0  0  0  0  0  0  0
    7.5157   -0.5734   21.6237 N   0  0  0  0  0  0  0  0  0  0  0  0
    6.3845   -1.1060   20.8676 C   0  0  0  0  0  0  0  0  0  0  0  0
    5.9859   -0.2090   19.7112 C   0  0  0  0  0  0  0  0  0  0  0  0
    4.8047    0.5404   19.6661 C   0  0  0  0  0  0  0  0  0  0  0  0
    4.5960    1.4001   18.5833 C   0  0  0  0  0  0  0  0  0  0  0  0
    5.5682    1.4742   17.5833 C   0  0  0  0  0  0  0  0  0  0  0  0
    6.7013    0.7554   17.6028 N   0  0  0  0  0  0  0  0  0  0  0  0
    6.9009   -0.0406   18.6576 C   0  0  0  0  0  0  0  0  0  0  0  0
    7.8619   -0.5555   18.6949 H   0  0  0  0  0  0  0  0  0  0  0  0
    5.4403    2.1431   16.7331 H   0  0  0  0  0  0  0  0  0  0  0  0
    3.7174    2.0323   18.5187 H   0  0  0  0  0  0  0  0  0  0  0  0
    4.0650    0.4646   20.4672 H   0  0  0  0  0  0  0  0  0  0  0  0
    5.5439   -1.2634   21.5519 H   0  0  0  0  0  0  0  0  0  0  0  0
    6.7158   -2.0855   20.5088 H   0  0  0  0  0  0  0  0  0  0  0  0
    6.7047    2.3357   22.8678 H   0  0  0  0  0  0  0  0  0  0  0  0
    5.4931    1.0896   22.5459 H   0  0  0  0  0  0  0  0  0  0  0  0
    5.8537    0.0896   24.7841 H   0  0  0  0  0  0  0  0  0  0  0  0
    7.3066    1.0407   25.0198 H   0  0  0  0  0  0  0  0  0  0  0  0
    4.2178    2.0481   25.4430 N   0  0  0  0  0  0  0  0  0  0  0  0
    3.8568    3.0245   26.3560 O   0  0  0  0  0  0  0  0  0  0  0  0
    7.0794    3.4057   26.3134 H   0  0  0  0  0  0  0  0  0  0  0  0
    4.6058    5.6135   27.5788 H   0  0  0  0  0  0  0  0  0  0  0  0
    4.0093    4.3036   28.6184 H   0  0  0  0  0  0  0  0  0  0  0  0
    5.7481    4.6538   28.5155 H   0  0  0  0  0  0  0  0  0  0  0  0
  1  2  1  0
  2  3  2  0
  3  4  1  0
  4  5  1  0
  5  6  1  0
  6  7  1  0
  7  8  2  0
  8  9  1  0
  9 10  1  0
 10 11  2  0
 11 12  1  0
 12 13  1  0
 12 14  2  0
 14 15  1  0
 15 16  1  0
 15 17  2  0
 17 18  1  0
 14 19  1  0
 11 20  1  0
  9 21  2  0
 21 22  1  0
 22 23  1  0
 23 24  1  0
 24 25  2  0
 25 26  1  0
 26 27  2  0
 27 28  1  0
 28 29  2  0
 29 30  1  0
 27 31  1  0
 26 32  1  0
 25 33  1  0
 23 34  1  0
 23 35  1  0
  6 36  1  0
  6 37  1  0
  5 38  1  0
  5 39  1  0
  4 40  2  0
 40 41  1  0
  3 42  1  0
  1 43  1  0
  1 44  1  0
  1 45  1  0
 41  2  1  0
 22  7  1  0
 29 24  1  0
 17 10  1  0
M  END
>  <cnnaffinity>  (1) 
-6.2583

>  <filename>  (1) 
Cc1cc(CCc2nc(-c3cc(F)cc(F)c3)nn2Cc2cccnc2)no1

$$$$
