
     RDKit          3D

 47 50  0  0  0  0  0  0  0  0999 V2000
    7.5270    0.3833   24.9705 C   0  0  0  0  0  0  0  0  0  0  0  0
    8.0291    1.8043   24.9782 C   0  0  0  0  0  0  0  0  0  0  0  0
    8.4000    2.4160   26.1817 C   0  0  0  0  0  0  0  0  0  0  0  0
    8.8471    3.7374   26.1725 C   0  0  0  0  0  0  0  0  0  0  0  0
    8.9636    4.4715   25.0648 N   0  0  0  0  0  0  0  0  0  0  0  0
    8.6179    3.8822   23.9124 C   0  0  0  0  0  0  0  0  0  0  0  0
    8.1399    2.5722   23.8002 C   0  0  0  0  0  0  0  0  0  0  0  0
    7.8617    1.9654   22.4347 C   0  0  0  0  0  0  0  0  0  0  0  0
    8.8361    0.8915   22.0637 C   0  0  0  0  0  0  0  0  0  0  0  0
   10.1299    0.9327   22.3253 N   0  0  0  0  0  0  0  0  0  0  0  0
   10.5770   -0.2521   21.8593 C   0  0  0  0  0  0  0  0  0  0  0  0
   11.9834   -0.6480   21.8202 C   0  0  0  0  0  0  0  0  0  0  0  0
   13.0366    0.1590   22.2858 C   0  0  0  0  0  0  0  0  0  0  0  0
   14.3097   -0.0806   21.7771 C   0  0  0  0  0  0  0  0  0  0  0  0
   14.4949   -1.0570   20.7666 C   0  0  0  0  0  0  0  0  0  0  0  0
   15.5149   -0.9369   19.8016 N   0  0  0  0  0  0  0  0  0  0  0  0
   16.3454   -1.4698   19.9727 H   0  0  0  0  0  0  0  0  0  0  0  0
   15.8266    0.0311   19.7771 H   0  0  0  0  0  0  0  0  0  0  0  0
   13.5211   -2.0166   20.5400 C   0  0  0  0  0  0  0  0  0  0  0  0
   12.2631   -1.7946   21.0680 C   0  0  0  0  0  0  0  0  0  0  0  0
   11.3925   -2.3812   20.8201 H   0  0  0  0  0  0  0  0  0  0  0  0
   13.7345   -2.8015   19.8266 H   0  0  0  0  0  0  0  0  0  0  0  0
   15.1260    0.5760   22.0670 H   0  0  0  0  0  0  0  0  0  0  0  0
   12.8249    1.0198   22.9240 H   0  0  0  0  0  0  0  0  0  0  0  0
    9.6331   -1.0025   21.2989 N   0  0  0  0  0  0  0  0  0  0  0  0
    8.5236   -0.2596   21.4227 N   0  0  0  0  0  0  0  0  0  0  0  0
    7.2370   -0.7961   20.9880 C   0  0  0  0  0  0  0  0  0  0  0  0
    6.5685   -0.0015   19.8875 C   0  0  0  0  0  0  0  0  0  0  0  0
    5.3414    0.6443   20.0652 C   0  0  0  0  0  0  0  0  0  0  0  0
    4.7783    1.3318   18.9876 C   0  0  0  0  0  0  0  0  0  0  0  0
    5.4639    1.3485   17.7711 C   0  0  0  0  0  0  0  0  0  0  0  0
    6.6408    0.7331   17.5799 N   0  0  0  0  0  0  0  0  0  0  0  0
    7.1751    0.0873   18.6232 C   0  0  0  0  0  0  0  0  0  0  0  0
    8.1323   -0.4004   18.4380 H   0  0  0  0  0  0  0  0  0  0  0  0
    5.0506    1.8728   16.9106 H   0  0  0  0  0  0  0  0  0  0  0  0
    3.8372    1.8592   19.0828 H   0  0  0  0  0  0  0  0  0  0  0  0
    4.8323    0.6111   21.0315 H   0  0  0  0  0  0  0  0  0  0  0  0
    7.4435   -1.8188   20.6559 H   0  0  0  0  0  0  0  0  0  0  0  0
    6.5745   -0.8764   21.8574 H   0  0  0  0  0  0  0  0  0  0  0  0
    6.8550    1.5387   22.4005 H   0  0  0  0  0  0  0  0  0  0  0  0
    7.9155    2.7304   21.6533 H   0  0  0  0  0  0  0  0  0  0  0  0
    8.7321    4.4885   23.0123 H   0  0  0  0  0  0  0  0  0  0  0  0
    9.1264    4.2363   27.0966 H   0  0  0  0  0  0  0  0  0  0  0  0
    8.3491    1.8642   27.1137 H   0  0  0  0  0  0  0  0  0  0  0  0
    7.6292   -0.0783   25.9548 H   0  0  0  0  0  0  0  0  0  0  0  0
    8.0769   -0.2379   24.2548 H   0  0  0  0  0  0  0  0  0  0  0  0
    6.4678    0.3382   24.6932 H   0  0  0  0  0  0  0  0  0  0  0  0
  1  2  1  0
  2  3  2  0
  3  4  1  0
  4  5  2  0
  5  6  1  0
  6  7  2  0
  7  8  1  0
  8  9  1  0
  9 10  2  0
 10 11  1  0
 11 12  1  0
 12 13  2  0
 13 14  1  0
 14 15  2  0
 15 16  1  0
 16 17  1  0
 16 18  1  0
 15 19  1  0
 19 20  2  0
 20 21  1  0
 19 22  1  0
 14 23  1  0
 13 24  1  0
 11 25  2  0
 25 26  1  0
 26 27  1  0
 27 28  1  0
 28 29  2  0
 29 30  1  0
 30 31  2  0
 31 32  1  0
 32 33  2  0
 33 34  1  0
 31 35  1  0
 30 36  1  0
 29 37  1  0
 27 38  1  0
 27 39  1  0
  8 40  1  0
  8 41  1  0
  6 42  1  0
  4 43  1  0
  3 44  1  0
  1 45  1  0
  1 46  1  0
  1 47  1  0
  7  2  1  0
 26  9  1  0
 33 28  1  0
 20 12  1  0
M  END
>  <cnnaffinity>  (1) 
-6.72733

>  <filename>  (1) 
Cc1ccncc1Cc1nc(-c2ccc(N)cc2)nn1Cc1cccnc1

$$$$
