
     RDKit          3D

 47 50  0  0  0  0  0  0  0  0999 V2000
    6.7807    1.8806   22.9520 C   0  0  0  0  0  0  0  0  0  0  0  0
    8.1601    2.0020   23.5540 C   0  0  0  0  0  0  0  0  0  0  0  0
    8.2804    2.0090   24.9533 C   0  0  0  0  0  0  0  0  0  0  0  0
    9.5275    1.9742   25.5684 C   0  0  0  0  0  0  0  0  0  0  0  0
   10.6874    1.9770   24.7928 C   0  0  0  0  0  0  0  0  0  0  0  0
   10.6221    2.0130   23.3934 C   0  0  0  0  0  0  0  0  0  0  0  0
   11.9022    2.0081   22.5844 C   0  0  0  0  0  0  0  0  0  0  0  0
   12.3067    0.9947   22.4524 H   0  0  0  0  0  0  0  0  0  0  0  0
   12.6913    2.5730   23.0871 H   0  0  0  0  0  0  0  0  0  0  0  0
   11.7527    2.4449   21.5934 H   0  0  0  0  0  0  0  0  0  0  0  0
    9.3464    1.9894   22.7886 C   0  0  0  0  0  0  0  0  0  0  0  0
    9.2568    1.8490   21.4052 O   0  0  0  0  0  0  0  0  0  0  0  0
    9.5773    0.5254   20.9447 C   0  0  0  0  0  0  0  0  0  0  0  0
    8.6125   -0.5345   21.4097 C   0  0  0  0  0  0  0  0  0  0  0  0
    8.8060   -1.3758   22.4119 N   0  0  0  0  0  0  0  0  0  0  0  0
    7.5929   -1.9620   22.5725 C   0  0  0  0  0  0  0  0  0  0  0  0
    7.2970   -2.9449   23.6630 C   0  0  0  0  0  0  0  0  0  0  0  0
    6.7924   -2.2609   24.9295 C   0  0  0  0  0  0  0  0  0  0  0  0
    7.1106   -2.8052   26.2897 C   0  0  0  0  0  0  0  0  0  0  0  0
    7.8031   -1.5653   25.7991 C   0  0  0  0  0  0  0  0  0  0  0  0
    7.5655   -0.5990   26.2375 H   0  0  0  0  0  0  0  0  0  0  0  0
    8.8475   -1.6608   25.5040 H   0  0  0  0  0  0  0  0  0  0  0  0
    7.6827   -3.7261   26.3766 H   0  0  0  0  0  0  0  0  0  0  0  0
    6.3586   -2.6987   27.0658 H   0  0  0  0  0  0  0  0  0  0  0  0
    5.8139   -1.7857   24.8198 H   0  0  0  0  0  0  0  0  0  0  0  0
    8.2282   -3.4809   23.8759 H   0  0  0  0  0  0  0  0  0  0  0  0
    6.5578   -3.6521   23.2765 H   0  0  0  0  0  0  0  0  0  0  0  0
    6.6734   -1.5600   21.7180 N   0  0  0  0  0  0  0  0  0  0  0  0
    7.3331   -0.6591   20.9440 N   0  0  0  0  0  0  0  0  0  0  0  0
    6.6457   -0.0189   19.8737 C   0  0  0  0  0  0  0  0  0  0  0  0
    5.4270    0.6242   20.1155 C   0  0  0  0  0  0  0  0  0  0  0  0
    4.8156    1.3151   19.0633 C   0  0  0  0  0  0  0  0  0  0  0  0
    5.4269    1.3027   17.8057 C   0  0  0  0  0  0  0  0  0  0  0  0
    6.5589    0.6322   17.5463 N   0  0  0  0  0  0  0  0  0  0  0  0
    7.1458   -0.0187   18.5607 C   0  0  0  0  0  0  0  0  0  0  0  0
    8.0460   -0.5802   18.3151 H   0  0  0  0  0  0  0  0  0  0  0  0
    4.9807    1.8351   16.9691 H   0  0  0  0  0  0  0  0  0  0  0  0
    3.8892    1.8586   19.2153 H   0  0  0  0  0  0  0  0  0  0  0  0
    4.9943    0.5887   21.1148 H   0  0  0  0  0  0  0  0  0  0  0  0
   10.5757    0.2275   21.2966 H   0  0  0  0  0  0  0  0  0  0  0  0
    9.5777    0.6066   19.8563 H   0  0  0  0  0  0  0  0  0  0  0  0
   11.6545    1.9373   25.2780 H   0  0  0  0  0  0  0  0  0  0  0  0
    9.5892    1.9426   26.6451 H   0  0  0  0  0  0  0  0  0  0  0  0
    7.3808    2.0175   25.5630 H   0  0  0  0  0  0  0  0  0  0  0  0
    6.4675    0.8272   22.9122 H   0  0  0  0  0  0  0  0  0  0  0  0
    6.7263    2.2920   21.9406 H   0  0  0  0  0  0  0  0  0  0  0  0
    6.0482    2.3982   23.5770 H   0  0  0  0  0  0  0  0  0  0  0  0
  1  2  1  0
  2  3  2  0
  3  4  1  0
  4  5  2  0
  5  6  1  0
  6  7  1  0
  7  8  1  0
  7  9  1  0
  7 10  1  0
  6 11  2  0
 11 12  1  0
 12 13  1  0
 13 14  1  0
 14 15  2  0
 15 16  1  0
 16 17  1  0
 17 18  1  0
 18 19  1  0
 19 20  1  0
 20 21  1  0
 20 22  1  0
 19 23  1  0
 19 24  1  0
 18 25  1  0
 17 26  1  0
 17 27  1  0
 16 28  2  0
 28 29  1  0
 29 30  1  0
 30 31  2  0
 31 32  1  0
 32 33  2  0
 33 34  1  0
 34 35  2  0
 35 36  1  0
 33 37  1  0
 32 38  1  0
 31 39  1  0
 13 40  1  0
 13 41  1  0
  5 42  1  0
  4 43  1  0
  3 44  1  0
  1 45  1  0
  1 46  1  0
  1 47  1  0
 11  2  1  0
 29 14  1  0
 35 30  1  0
 20 18  1  0
M  END
>  <cnnaffinity>  (1) 
-6.13704

>  <filename>  (1) 
Cc1cccc(C)c1OCc1nc(CC2CC2)nn1-c1cccnc1

$$$$
