
     RDKit          3D

 43 46  0  0  0  0  0  0  0  0999 V2000
    6.0596    3.6527   29.1237 C   0  0  0  0  0  0  0  0  0  0  0  0
    6.4319    3.0658   27.7830 C   0  0  0  0  0  0  0  0  0  0  0  0
    7.5785    3.4870   27.0961 C   0  0  0  0  0  0  0  0  0  0  0  0
    7.9186    2.9720   25.8490 C   0  0  0  0  0  0  0  0  0  0  0  0
    7.1210    1.9904   25.2299 C   0  0  0  0  0  0  0  0  0  0  0  0
    7.5561    1.4665   23.9102 C   0  0  0  0  0  0  0  0  0  0  0  0
    6.9509    0.5081   23.2282 N   0  0  0  0  0  0  0  0  0  0  0  0
    7.7444    0.3470   22.1409 N   0  0  0  0  0  0  0  0  0  0  0  0
    7.3851   -0.6022   21.0898 C   0  0  0  0  0  0  0  0  0  0  0  0
    6.6851    0.0427   19.9081 C   0  0  0  0  0  0  0  0  0  0  0  0
    5.4746    0.7168   20.1073 C   0  0  0  0  0  0  0  0  0  0  0  0
    4.8754    1.3347   19.0106 C   0  0  0  0  0  0  0  0  0  0  0  0
    5.4982    1.2584   17.7616 C   0  0  0  0  0  0  0  0  0  0  0  0
    6.6491    0.6046   17.5457 N   0  0  0  0  0  0  0  0  0  0  0  0
    7.2143    0.0166   18.6082 C   0  0  0  0  0  0  0  0  0  0  0  0
    8.1447   -0.5166   18.4102 H   0  0  0  0  0  0  0  0  0  0  0  0
    5.0532    1.7482   16.8988 H   0  0  0  0  0  0  0  0  0  0  0  0
    3.9496    1.8861   19.1155 H   0  0  0  0  0  0  0  0  0  0  0  0
    5.0312    0.7623   21.1059 H   0  0  0  0  0  0  0  0  0  0  0  0
    8.2909   -1.1254   20.7624 H   0  0  0  0  0  0  0  0  0  0  0  0
    6.7387   -1.3407   21.5755 H   0  0  0  0  0  0  0  0  0  0  0  0
    8.7713    1.2197   22.2061 C   0  0  0  0  0  0  0  0  0  0  0  0
    9.9436    1.2777   21.2684 C   0  0  0  0  0  0  0  0  0  0  0  0
   11.1020    0.3844   21.6487 C   0  0  0  0  0  0  0  0  0  0  0  0
   12.0421    0.4656   22.6470 C   0  0  0  0  0  0  0  0  0  0  0  0
   12.8851   -0.6170   22.6238 N   0  0  0  0  0  0  0  0  0  0  0  0
   12.4701   -1.3513   21.6280 C   0  0  0  0  0  0  0  0  0  0  0  0
   11.3869   -0.8039   21.0135 N   0  0  0  0  0  0  0  0  0  0  0  0
   10.9609   -1.1800   20.1824 H   0  0  0  0  0  0  0  0  0  0  0  0
   12.9056   -2.2827   21.2986 H   0  0  0  0  0  0  0  0  0  0  0  0
   12.1743    1.2492   23.3832 H   0  0  0  0  0  0  0  0  0  0  0  0
    9.6019    1.0621   20.2524 H   0  0  0  0  0  0  0  0  0  0  0  0
   10.2860    2.3164   21.2935 H   0  0  0  0  0  0  0  0  0  0  0  0
    8.6804    1.9409   23.2994 N   0  0  0  0  0  0  0  0  0  0  0  0
    5.9661    1.5333   25.9042 C   0  0  0  0  0  0  0  0  0  0  0  0
    5.6561    2.0778   27.1486 C   0  0  0  0  0  0  0  0  0  0  0  0
    4.5600    1.6247   27.7871 F   0  0  0  0  0  0  0  0  0  0  0  0
    5.3142    0.7637   25.4948 H   0  0  0  0  0  0  0  0  0  0  0  0
    8.8113    3.3268   25.3426 H   0  0  0  0  0  0  0  0  0  0  0  0
    8.2272    4.2282   27.5560 H   0  0  0  0  0  0  0  0  0  0  0  0
    5.8351    2.8761   29.8623 H   0  0  0  0  0  0  0  0  0  0  0  0
    6.8726    4.2676   29.5253 H   0  0  0  0  0  0  0  0  0  0  0  0
    5.1731    4.2925   29.0514 H   0  0  0  0  0  0  0  0  0  0  0  0
  1  2  1  0
  2  3  2  0
  3  4  1  0
  4  5  2  0
  5  6  1  0
  6  7  2  0
  7  8  1  0
  8  9  1  0
  9 10  1  0
 10 11  2  0
 11 12  1  0
 12 13  2  0
 13 14  1  0
 14 15  2  0
 15 16  1  0
 13 17  1  0
 12 18  1  0
 11 19  1  0
  9 20  1  0
  9 21  1  0
  8 22  1  0
 22 23  1  0
 23 24  1  0
 24 25  2  0
 25 26  1  0
 26 27  2  0
 27 28  1  0
 28 29  1  0
 27 30  1  0
 25 31  1  0
 23 32  1  0
 23 33  1  0
 22 34  2  0
  5 35  1  0
 35 36  2  0
 36 37  1  0
 35 38  1  0
  4 39  1  0
  3 40  1  0
  1 41  1  0
  1 42  1  0
  1 43  1  0
 36  2  1  0
 34  6  1  0
 15 10  1  0
 28 24  1  0
M  END
>  <cnnaffinity>  (1) 
-5.971

>  <filename>  (1) 
Cc1ccc(-c2nc(Cc3cnc[nH]3)n(Cc3cccnc3)n2)cc1F

$$$$
