
     RDKit          3D

 47 50  0  0  0  0  0  0  0  0999 V2000
   14.1091    0.8320   23.5335 C   0  0  0  0  0  0  0  0  0  0  0  0
   13.0113    0.1317   22.7792 C   0  0  0  0  0  0  0  0  0  0  0  0
   11.6850    0.5706   22.8097 C   0  0  0  0  0  0  0  0  0  0  0  0
   10.6761   -0.0876   22.0817 C   0  0  0  0  0  0  0  0  0  0  0  0
    9.2810    0.3740   22.1658 C   0  0  0  0  0  0  0  0  0  0  0  0
    8.2807   -0.3538   21.6966 N   0  0  0  0  0  0  0  0  0  0  0  0
    7.1853    0.3690   22.0126 N   0  0  0  0  0  0  0  0  0  0  0  0
    5.9093   -0.0117   21.4065 C   0  0  0  0  0  0  0  0  0  0  0  0
    5.6957    0.5210   19.9965 C   0  0  0  0  0  0  0  0  0  0  0  0
    4.6276    1.3599   19.6586 C   0  0  0  0  0  0  0  0  0  0  0  0
    4.4820    1.7645   18.3302 C   0  0  0  0  0  0  0  0  0  0  0  0
    5.4199    1.3346   17.3913 C   0  0  0  0  0  0  0  0  0  0  0  0
    6.4555    0.5355   17.6898 N   0  0  0  0  0  0  0  0  0  0  0  0
    6.5800    0.1503   18.9638 C   0  0  0  0  0  0  0  0  0  0  0  0
    7.4355   -0.4847   19.1937 H   0  0  0  0  0  0  0  0  0  0  0  0
    5.3397    1.6321   16.3500 H   0  0  0  0  0  0  0  0  0  0  0  0
    3.6669    2.4074   18.0157 H   0  0  0  0  0  0  0  0  0  0  0  0
    3.9218    1.6996   20.4191 H   0  0  0  0  0  0  0  0  0  0  0  0
    5.9221   -1.1072   21.4079 H   0  0  0  0  0  0  0  0  0  0  0  0
    5.1079    0.3163   22.0727 H   0  0  0  0  0  0  0  0  0  0  0  0
    7.5711    1.4736   22.6936 C   0  0  0  0  0  0  0  0  0  0  0  0
    6.6277    2.3180   23.5024 C   0  0  0  0  0  0  0  0  0  0  0  0
    6.3165    1.7716   24.9486 C   0  0  0  0  0  0  0  0  0  0  0  0
    6.2464    0.2706   25.1254 C   0  0  0  0  0  0  0  0  0  0  0  0
    7.4331   -0.3580   25.0018 N   0  0  0  0  0  0  0  0  0  0  0  0
    7.4496   -1.6771   25.1129 C   0  0  0  0  0  0  0  0  0  0  0  0
    6.2851   -2.4034   25.3408 C   0  0  0  0  0  0  0  0  0  0  0  0
    6.3100   -3.7418   25.4086 F   0  0  0  0  0  0  0  0  0  0  0  0
    5.1197   -1.6777   25.5121 C   0  0  0  0  0  0  0  0  0  0  0  0
    5.1016   -0.3342   25.4176 N   0  0  0  0  0  0  0  0  0  0  0  0
    4.1806   -2.1817   25.7396 H   0  0  0  0  0  0  0  0  0  0  0  0
    8.4126   -2.1827   25.0463 H   0  0  0  0  0  0  0  0  0  0  0  0
    5.3895    2.2072   25.3243 H   0  0  0  0  0  0  0  0  0  0  0  0
    7.1266    2.0876   25.6106 H   0  0  0  0  0  0  0  0  0  0  0  0
    7.0887    3.3079   23.5844 H   0  0  0  0  0  0  0  0  0  0  0  0
    5.7036    2.4647   22.9323 H   0  0  0  0  0  0  0  0  0  0  0  0
    8.8859    1.5347   22.7556 N   0  0  0  0  0  0  0  0  0  0  0  0
   11.0028   -1.1916   21.2719 C   0  0  0  0  0  0  0  0  0  0  0  0
   12.3226   -1.6362   21.2237 C   0  0  0  0  0  0  0  0  0  0  0  0
   13.2879   -0.9934   21.9893 C   0  0  0  0  0  0  0  0  0  0  0  0
   14.5475   -1.4628   21.9567 F   0  0  0  0  0  0  0  0  0  0  0  0
   12.6529   -2.4304   20.5707 H   0  0  0  0  0  0  0  0  0  0  0  0
   10.2234   -1.6994   20.7002 H   0  0  0  0  0  0  0  0  0  0  0  0
   11.4143    1.4447   23.4049 H   0  0  0  0  0  0  0  0  0  0  0  0
   13.7653    1.7811   23.9544 H   0  0  0  0  0  0  0  0  0  0  0  0
   14.9355    1.0639   22.8576 H   0  0  0  0  0  0  0  0  0  0  0  0
   14.4935    0.2032   24.3443 H   0  0  0  0  0  0  0  0  0  0  0  0
  1  2  1  0
  2  3  2  0
  3  4  1  0
  4  5  1  0
  5  6  2  0
  6  7  1  0
  7  8  1  0
  8  9  1  0
  9 10  2  0
 10 11  1  0
 11 12  2  0
 12 13  1  0
 13 14  2  0
 14 15  1  0
 12 16  1  0
 11 17  1  0
 10 18  1  0
  8 19  1  0
  8 20  1  0
  7 21  1  0
 21 22  1  0
 22 23  1  0
 23 24  1  0
 24 25  2  0
 25 26  1  0
 26 27  2  0
 27 28  1  0
 27 29  1  0
 29 30  2  0
 29 31  1  0
 26 32  1  0
 23 33  1  0
 23 34  1  0
 22 35  1  0
 22 36  1  0
 21 37  2  0
  4 38  2  0
 38 39  1  0
 39 40  2  0
 40 41  1  0
 39 42  1  0
 38 43  1  0
  3 44  1  0
  1 45  1  0
  1 46  1  0
  1 47  1  0
 40  2  1  0
 37  5  1  0
 14  9  1  0
 30 24  1  0
M  END
>  <cnnaffinity>  (1) 
-6.6308

>  <filename>  (1) 
Cc1cc(-c2nc(CCc3ncc(F)cn3)n(Cc3cccnc3)n2)ccc1F

$$$$
