
     RDKit          3D

 44 48  0  0  0  0  0  0  0  0999 V2000
   14.1670   -0.0508   22.6954 C   0  0  0  0  0  0  0  0  0  0  0  0
   12.8096    0.5994   22.6969 C   0  0  0  0  0  0  0  0  0  0  0  0
   12.4822    1.6606   23.5542 C   0  0  0  0  0  0  0  0  0  0  0  0
   11.2410    2.3021   23.4571 C   0  0  0  0  0  0  0  0  0  0  0  0
   10.3366    1.8706   22.4930 C   0  0  0  0  0  0  0  0  0  0  0  0
    9.1682    2.5283   22.3659 F   0  0  0  0  0  0  0  0  0  0  0  0
   10.6097    0.7916   21.6414 C   0  0  0  0  0  0  0  0  0  0  0  0
    9.5851    0.2319   20.6871 C   0  0  0  0  0  0  0  0  0  0  0  0
    8.5563   -0.6112   21.3640 C   0  0  0  0  0  0  0  0  0  0  0  0
    8.7598   -1.3960   22.4068 N   0  0  0  0  0  0  0  0  0  0  0  0
    7.5583   -2.0046   22.5611 C   0  0  0  0  0  0  0  0  0  0  0  0
    7.1865   -2.9883   23.6224 C   0  0  0  0  0  0  0  0  0  0  0  0
    6.7526   -4.3520   23.1797 C   0  0  0  0  0  0  0  0  0  0  0  0
    7.9764   -4.2449   24.1149 C   0  0  0  0  0  0  0  0  0  0  0  0
    8.5698   -5.4796   24.8023 C   0  0  0  0  0  0  0  0  0  0  0  0
    8.9631   -4.1011   25.2499 C   0  0  0  0  0  0  0  0  0  0  0  0
    9.9579   -3.7417   24.9827 H   0  0  0  0  0  0  0  0  0  0  0  0
    8.5785   -3.7267   26.2022 H   0  0  0  0  0  0  0  0  0  0  0  0
    9.2918   -6.0675   24.2390 H   0  0  0  0  0  0  0  0  0  0  0  0
    7.8909   -6.0635   25.4290 H   0  0  0  0  0  0  0  0  0  0  0  0
    6.9718   -4.6498   22.1507 H   0  0  0  0  0  0  0  0  0  0  0  0
    5.8262   -4.7722   23.5765 H   0  0  0  0  0  0  0  0  0  0  0  0
    6.6229   -2.5033   24.4251 H   0  0  0  0  0  0  0  0  0  0  0  0
    6.6330   -1.6469   21.6837 N   0  0  0  0  0  0  0  0  0  0  0  0
    7.2852   -0.7648   20.8883 N   0  0  0  0  0  0  0  0  0  0  0  0
    6.6038   -0.0566   19.8540 C   0  0  0  0  0  0  0  0  0  0  0  0
    5.4079    0.6173   20.1250 C   0  0  0  0  0  0  0  0  0  0  0  0
    4.7984    1.3205   19.0807 C   0  0  0  0  0  0  0  0  0  0  0  0
    5.3945    1.3134   17.8125 C   0  0  0  0  0  0  0  0  0  0  0  0
    6.5304    0.6558   17.5410 N   0  0  0  0  0  0  0  0  0  0  0  0
    7.1164   -0.0070   18.5452 C   0  0  0  0  0  0  0  0  0  0  0  0
    8.0467   -0.5165   18.3041 H   0  0  0  0  0  0  0  0  0  0  0  0
    4.9390    1.8449   16.9802 H   0  0  0  0  0  0  0  0  0  0  0  0
    3.8770    1.8718   19.2348 H   0  0  0  0  0  0  0  0  0  0  0  0
    4.9794    0.5859   21.1292 H   0  0  0  0  0  0  0  0  0  0  0  0
   10.0664   -0.4409   19.9658 H   0  0  0  0  0  0  0  0  0  0  0  0
    9.1019    1.0391   20.1324 H   0  0  0  0  0  0  0  0  0  0  0  0
   11.8446    0.1655   21.7794 C   0  0  0  0  0  0  0  0  0  0  0  0
   12.0707   -0.6858   21.1343 H   0  0  0  0  0  0  0  0  0  0  0  0
   10.9675    3.1292   24.1038 H   0  0  0  0  0  0  0  0  0  0  0  0
   13.2086    1.9973   24.2902 H   0  0  0  0  0  0  0  0  0  0  0  0
   14.8284    0.4239   23.4199 H   0  0  0  0  0  0  0  0  0  0  0  0
   14.6197    0.0401   21.7008 H   0  0  0  0  0  0  0  0  0  0  0  0
   14.1192   -1.1222   22.9311 H   0  0  0  0  0  0  0  0  0  0  0  0
  1  2  1  0
  2  3  2  0
  3  4  1  0
  4  5  2  0
  5  6  1  0
  5  7  1  0
  7  8  1  0
  8  9  1  0
  9 10  2  0
 10 11  1  0
 11 12  1  0
 12 13  1  0
 13 14  1  0
 14 15  1  0
 15 16  1  0
 16 17  1  0
 16 18  1  0
 15 19  1  0
 15 20  1  0
 13 21  1  0
 13 22  1  0
 12 23  1  0
 11 24  2  0
 24 25  1  0
 25 26  1  0
 26 27  2  0
 27 28  1  0
 28 29  2  0
 29 30  1  0
 30 31  2  0
 31 32  1  0
 29 33  1  0
 28 34  1  0
 27 35  1  0
  8 36  1  0
  8 37  1  0
  7 38  2  0
 38 39  1  0
  4 40  1  0
  3 41  1  0
  1 42  1  0
  1 43  1  0
  1 44  1  0
 38  2  1  0
 25  9  1  0
 31 26  1  0
 14 12  1  0
 16 14  1  0
M  END
>  <cnnaffinity>  (1) 
-6.81259

>  <filename>  (1) 
Cc1ccc(F)c(Cc2nc(C3CC34CC4)nn2-c2cccnc2)c1

$$$$
