
     RDKit          3D

 49 52  0  0  0  0  0  0  0  0999 V2000
    6.3529    4.0984   28.6763 C   0  0  0  0  0  0  0  0  0  0  0  0
    6.7439    3.4263   27.3839 C   0  0  0  0  0  0  0  0  0  0  0  0
    5.8846    2.5054   26.7656 C   0  0  0  0  0  0  0  0  0  0  0  0
    6.2261    1.8892   25.5625 C   0  0  0  0  0  0  0  0  0  0  0  0
    7.4546    2.1872   24.9356 C   0  0  0  0  0  0  0  0  0  0  0  0
    7.8256    1.5486   23.6506 C   0  0  0  0  0  0  0  0  0  0  0  0
    7.1679    0.5215   23.1324 N   0  0  0  0  0  0  0  0  0  0  0  0
    7.8734    0.2267   22.0195 N   0  0  0  0  0  0  0  0  0  0  0  0
    7.3506   -0.7079   21.0250 C   0  0  0  0  0  0  0  0  0  0  0  0
    6.6464   -0.0175   19.8764 C   0  0  0  0  0  0  0  0  0  0  0  0
    5.4471    0.6596   20.1225 C   0  0  0  0  0  0  0  0  0  0  0  0
    4.8229    1.3179   19.0638 C   0  0  0  0  0  0  0  0  0  0  0  0
    5.4270    1.2910   17.8032 C   0  0  0  0  0  0  0  0  0  0  0  0
    6.5729    0.6424   17.5465 N   0  0  0  0  0  0  0  0  0  0  0  0
    7.1555    0.0049   18.5698 C   0  0  0  0  0  0  0  0  0  0  0  0
    8.0801   -0.5254   18.3316 H   0  0  0  0  0  0  0  0  0  0  0  0
    4.9694    1.8062   16.9612 H   0  0  0  0  0  0  0  0  0  0  0  0
    3.8909    1.8526   19.2054 H   0  0  0  0  0  0  0  0  0  0  0  0
    5.0287    0.6724   21.1316 H   0  0  0  0  0  0  0  0  0  0  0  0
    8.1748   -1.3304   20.6604 H   0  0  0  0  0  0  0  0  0  0  0  0
    6.6568   -1.3528   21.5706 H   0  0  0  0  0  0  0  0  0  0  0  0
    8.8992    1.0970   21.9000 C   0  0  0  0  0  0  0  0  0  0  0  0
    9.9852    0.8711   20.9012 C   0  0  0  0  0  0  0  0  0  0  0  0
   10.8593   -0.3459   21.2902 C   0  0  0  0  0  0  0  0  0  0  0  0
   11.5540   -0.0712   22.5961 C   0  0  0  0  0  0  0  0  0  0  0  0
   11.1055   -0.5292   23.8020 C   0  0  0  0  0  0  0  0  0  0  0  0
   11.8415   -0.2581   24.9376 N   0  0  0  0  0  0  0  0  0  0  0  0
   13.1190    0.3010   24.9017 C   0  0  0  0  0  0  0  0  0  0  0  0
   13.8415    0.1209   25.8633 O   0  0  0  0  0  0  0  0  0  0  0  0
   13.4416    1.0204   23.6834 C   0  0  0  0  0  0  0  0  0  0  0  0
   12.6790    0.8245   22.5796 C   0  0  0  0  0  0  0  0  0  0  0  0
   12.9123    1.3630   21.6630 H   0  0  0  0  0  0  0  0  0  0  0  0
   14.3192    1.6402   23.6816 H   0  0  0  0  0  0  0  0  0  0  0  0
   11.7934   -0.8031   25.7907 H   0  0  0  0  0  0  0  0  0  0  0  0
   10.1764   -1.0839   23.9267 H   0  0  0  0  0  0  0  0  0  0  0  0
   11.6098   -0.5418   20.5153 H   0  0  0  0  0  0  0  0  0  0  0  0
   10.2541   -1.2594   21.3552 H   0  0  0  0  0  0  0  0  0  0  0  0
   10.6114    1.7667   20.8564 H   0  0  0  0  0  0  0  0  0  0  0  0
    9.5499    0.7283   19.9100 H   0  0  0  0  0  0  0  0  0  0  0  0
    8.8916    1.9532   22.9022 N   0  0  0  0  0  0  0  0  0  0  0  0
    8.3306    3.0980   25.5609 C   0  0  0  0  0  0  0  0  0  0  0  0
    7.9697    3.7087   26.7619 C   0  0  0  0  0  0  0  0  0  0  0  0
    8.6449    4.4202   27.2287 H   0  0  0  0  0  0  0  0  0  0  0  0
    9.2946    3.3279   25.1091 H   0  0  0  0  0  0  0  0  0  0  0  0
    5.5461    1.1677   25.1128 H   0  0  0  0  0  0  0  0  0  0  0  0
    4.9379    2.2650   27.2427 H   0  0  0  0  0  0  0  0  0  0  0  0
    7.2282    4.3361   29.2891 H   0  0  0  0  0  0  0  0  0  0  0  0
    5.8199    5.0380   28.4900 H   0  0  0  0  0  0  0  0  0  0  0  0
    5.6910    3.4643   29.2753 H   0  0  0  0  0  0  0  0  0  0  0  0
  1  2  1  0
  2  3  2  0
  3  4  1  0
  4  5  2  0
  5  6  1  0
  6  7  2  0
  7  8  1  0
  8  9  1  0
  9 10  1  0
 10 11  2  0
 11 12  1  0
 12 13  2  0
 13 14  1  0
 14 15  2  0
 15 16  1  0
 13 17  1  0
 12 18  1  0
 11 19  1  0
  9 20  1  0
  9 21  1  0
  8 22  1  0
 22 23  1  0
 23 24  1  0
 24 25  1  0
 25 26  2  0
 26 27  1  0
 27 28  1  0
 28 29  2  0
 28 30  1  0
 30 31  2  0
 31 32  1  0
 30 33  1  0
 27 34  1  0
 26 35  1  0
 24 36  1  0
 24 37  1  0
 23 38  1  0
 23 39  1  0
 22 40  2  0
  5 41  1  0
 41 42  2  0
 42 43  1  0
 41 44  1  0
  4 45  1  0
  3 46  1  0
  1 47  1  0
  1 48  1  0
  1 49  1  0
 42  2  1  0
 40  6  1  0
 15 10  1  0
 31 25  1  0
M  END
>  <cnnaffinity>  (1) 
-6.08213

>  <filename>  (1) 
Cc1ccc(-c2nc(CCc3ccc(=O)[nH]c3)n(Cc3cccnc3)n2)cc1

$$$$
