
     RDKit          3D

 46 49  0  0  0  0  0  0  0  0999 V2000
    6.7642   -6.1303   26.5316 C   0  0  0  0  0  0  0  0  0  0  0  0
    7.0116   -5.0863   25.4738 C   0  0  0  0  0  0  0  0  0  0  0  0
    8.2373   -4.4065   25.4043 C   0  0  0  0  0  0  0  0  0  0  0  0
    8.4629   -3.4200   24.4464 C   0  0  0  0  0  0  0  0  0  0  0  0
    7.4495   -3.0910   23.5223 C   0  0  0  0  0  0  0  0  0  0  0  0
    7.6646   -2.0480   22.4949 C   0  0  0  0  0  0  0  0  0  0  0  0
    6.7237   -1.6438   21.6544 N   0  0  0  0  0  0  0  0  0  0  0  0
    7.3494   -0.6940   20.9198 N   0  0  0  0  0  0  0  0  0  0  0  0
    6.6527    0.0028   19.8968 C   0  0  0  0  0  0  0  0  0  0  0  0
    5.4378    0.6420   20.1668 C   0  0  0  0  0  0  0  0  0  0  0  0
    4.8120    1.3107   19.1083 C   0  0  0  0  0  0  0  0  0  0  0  0
    5.4000    1.2973   17.8371 C   0  0  0  0  0  0  0  0  0  0  0  0
    6.5575    0.6722   17.5720 N   0  0  0  0  0  0  0  0  0  0  0  0
    7.1642    0.0499   18.5884 C   0  0  0  0  0  0  0  0  0  0  0  0
    8.1102   -0.4369   18.3653 H   0  0  0  0  0  0  0  0  0  0  0  0
    4.9196    1.7879   16.9933 H   0  0  0  0  0  0  0  0  0  0  0  0
    3.8798    1.8395   19.2605 H   0  0  0  0  0  0  0  0  0  0  0  0
    5.0117    0.6081   21.1743 H   0  0  0  0  0  0  0  0  0  0  0  0
    8.6226   -0.5367   21.3934 C   0  0  0  0  0  0  0  0  0  0  0  0
    9.5581    0.5467   20.9796 C   0  0  0  0  0  0  0  0  0  0  0  0
    9.4886    1.8130   21.8755 C   0  0  0  0  0  0  0  0  0  0  0  0
    8.1543    2.5256   21.7608 C   0  0  0  0  0  0  0  0  0  0  0  0
    7.9929    2.7158   20.7100 H   0  0  0  0  0  0  0  0  0  0  0  0
    7.3009    1.9134   22.0686 H   0  0  0  0  0  0  0  0  0  0  0  0
    8.1510    3.4643   22.3265 H   0  0  0  0  0  0  0  0  0  0  0  0
    9.8023    1.5195   23.2662 N   0  0  0  0  0  0  0  0  0  0  0  0
   11.0741    1.4220   23.7962 C   0  0  0  0  0  0  0  0  0  0  0  0
   10.8979    0.9911   25.0771 C   0  0  0  0  0  0  0  0  0  0  0  0
    9.5691    0.8066   25.3532 N   0  0  0  0  0  0  0  0  0  0  0  0
    8.9372    1.1197   24.2505 C   0  0  0  0  0  0  0  0  0  0  0  0
    7.8674    1.0237   24.1068 H   0  0  0  0  0  0  0  0  0  0  0  0
   11.6622    0.7932   25.8113 H   0  0  0  0  0  0  0  0  0  0  0  0
   11.9628    1.6509   23.2213 H   0  0  0  0  0  0  0  0  0  0  0  0
   10.2750    2.4942   21.5220 H   0  0  0  0  0  0  0  0  0  0  0  0
   10.5662    0.1348   21.0236 H   0  0  0  0  0  0  0  0  0  0  0  0
    9.3730    0.8282   19.9408 H   0  0  0  0  0  0  0  0  0  0  0  0
    8.8529   -1.4018   22.3518 N   0  0  0  0  0  0  0  0  0  0  0  0
    6.2144   -3.7668   23.5913 C   0  0  0  0  0  0  0  0  0  0  0  0
    6.0078   -4.7489   24.5542 C   0  0  0  0  0  0  0  0  0  0  0  0
    5.0505   -5.2609   24.6077 H   0  0  0  0  0  0  0  0  0  0  0  0
    5.4207   -3.5072   22.8933 H   0  0  0  0  0  0  0  0  0  0  0  0
    9.4217   -2.9021   24.4223 H   0  0  0  0  0  0  0  0  0  0  0  0
    9.0163   -4.6578   26.1212 H   0  0  0  0  0  0  0  0  0  0  0  0
    7.6878   -6.6377   26.8237 H   0  0  0  0  0  0  0  0  0  0  0  0
    6.3475   -5.6810   27.4394 H   0  0  0  0  0  0  0  0  0  0  0  0
    6.0536   -6.8933   26.1983 H   0  0  0  0  0  0  0  0  0  0  0  0
  1  2  1  0
  2  3  2  0
  3  4  1  0
  4  5  2  0
  5  6  1  0
  6  7  2  0
  7  8  1  0
  8  9  1  0
  9 10  2  0
 10 11  1  0
 11 12  2  0
 12 13  1  0
 13 14  2  0
 14 15  1  0
 12 16  1  0
 11 17  1  0
 10 18  1  0
  8 19  1  0
 19 20  1  0
 20 21  1  0
 21 22  1  0
 22 23  1  0
 22 24  1  0
 22 25  1  0
 21 26  1  0
 26 27  1  0
 27 28  2  0
 28 29  1  0
 29 30  2  0
 30 31  1  0
 28 32  1  0
 27 33  1  0
 21 34  1  0
 20 35  1  0
 20 36  1  0
 19 37  2  0
  5 38  1  0
 38 39  2  0
 39 40  1  0
 38 41  1  0
  4 42  1  0
  3 43  1  0
  1 44  1  0
  1 45  1  0
  1 46  1  0
 39  2  1  0
 37  6  1  0
 14  9  1  0
 30 26  1  0
M  END
>  <cnnaffinity>  (1) 
-6.05189

>  <filename>  (1) 
Cc1ccc(-c2nc(CC(C)n3ccnc3)n(-c3cccnc3)n2)cc1

$$$$
