
     RDKit          3D

 48 51  0  0  0  0  0  0  0  0999 V2000
    9.6336    2.2857   21.1182 C   0  0  0  0  0  0  0  0  0  0  0  0
    9.7266    2.2606   22.6169 C   0  0  0  0  0  0  0  0  0  0  0  0
   10.9031    2.6710   23.2622 C   0  0  0  0  0  0  0  0  0  0  0  0
   11.1395    2.5463   24.5717 N   0  0  0  0  0  0  0  0  0  0  0  0
   10.1663    2.0092   25.3166 C   0  0  0  0  0  0  0  0  0  0  0  0
    8.9299    1.6300   24.7969 C   0  0  0  0  0  0  0  0  0  0  0  0
    8.6858    1.7770   23.4303 C   0  0  0  0  0  0  0  0  0  0  0  0
    7.3757    1.2962   22.8263 C   0  0  0  0  0  0  0  0  0  0  0  0
    7.5287   -0.0860   22.2509 C   0  0  0  0  0  0  0  0  0  0  0  0
    8.0809   -1.0984   22.9039 N   0  0  0  0  0  0  0  0  0  0  0  0
    8.1577   -2.0729   21.9654 C   0  0  0  0  0  0  0  0  0  0  0  0
    8.7089   -3.4382   22.1243 C   0  0  0  0  0  0  0  0  0  0  0  0
    7.6434   -4.5201   22.4111 C   0  0  0  0  0  0  0  0  0  0  0  0
    6.8449   -4.2337   23.6930 C   0  0  0  0  0  0  0  0  0  0  0  0
    7.7363   -4.7550   24.8458 C   0  0  0  0  0  0  0  0  0  0  0  0
    8.7520   -5.7279   24.1902 C   0  0  0  0  0  0  0  0  0  0  0  0
    8.2753   -5.8830   22.7311 C   0  0  0  0  0  0  0  0  0  0  0  0
    7.5022   -6.6632   22.6652 H   0  0  0  0  0  0  0  0  0  0  0  0
    9.0643   -6.1702   22.0275 H   0  0  0  0  0  0  0  0  0  0  0  0
    9.7547   -5.2844   24.2121 H   0  0  0  0  0  0  0  0  0  0  0  0
    8.8362   -6.6798   24.7191 H   0  0  0  0  0  0  0  0  0  0  0  0
    8.2693   -3.9362   25.3456 H   0  0  0  0  0  0  0  0  0  0  0  0
    7.1255   -5.2463   25.6098 H   0  0  0  0  0  0  0  0  0  0  0  0
    6.6037   -3.1705   23.7982 H   0  0  0  0  0  0  0  0  0  0  0  0
    5.8959   -4.7861   23.6508 H   0  0  0  0  0  0  0  0  0  0  0  0
    6.9796   -4.5876   21.5389 H   0  0  0  0  0  0  0  0  0  0  0  0
    9.1484   -3.6338   21.1467 H   0  0  0  0  0  0  0  0  0  0  0  0
    9.4912   -3.4107   22.8872 H   0  0  0  0  0  0  0  0  0  0  0  0
    7.6878   -1.7403   20.7814 N   0  0  0  0  0  0  0  0  0  0  0  0
    7.2455   -0.4810   20.9692 N   0  0  0  0  0  0  0  0  0  0  0  0
    6.5681    0.1298   19.8958 C   0  0  0  0  0  0  0  0  0  0  0  0
    5.3451    0.7710   20.0936 C   0  0  0  0  0  0  0  0  0  0  0  0
    4.7565    1.3881   18.9865 C   0  0  0  0  0  0  0  0  0  0  0  0
    5.4055    1.3331   17.7486 C   0  0  0  0  0  0  0  0  0  0  0  0
    6.5510    0.6551   17.5439 N   0  0  0  0  0  0  0  0  0  0  0  0
    7.1000    0.0438   18.5968 C   0  0  0  0  0  0  0  0  0  0  0  0
    7.9957   -0.5469   18.4151 H   0  0  0  0  0  0  0  0  0  0  0  0
    4.9878    1.8370   16.8802 H   0  0  0  0  0  0  0  0  0  0  0  0
    3.8066    1.9017   19.0802 H   0  0  0  0  0  0  0  0  0  0  0  0
    4.8738    0.7431   21.0766 H   0  0  0  0  0  0  0  0  0  0  0  0
    7.0308    1.9863   22.0513 H   0  0  0  0  0  0  0  0  0  0  0  0
    6.6033    1.2695   23.6025 H   0  0  0  0  0  0  0  0  0  0  0  0
    8.1827    1.2028   25.4579 H   0  0  0  0  0  0  0  0  0  0  0  0
   10.3888    1.8681   26.3715 H   0  0  0  0  0  0  0  0  0  0  0  0
   11.7151    3.0966   22.6693 H   0  0  0  0  0  0  0  0  0  0  0  0
   10.5914    2.5724   20.6738 H   0  0  0  0  0  0  0  0  0  0  0  0
    8.8666    2.9841   20.7669 H   0  0  0  0  0  0  0  0  0  0  0  0
    9.3653    1.2939   20.7370 H   0  0  0  0  0  0  0  0  0  0  0  0
  1  2  1  0
  2  3  2  0
  3  4  1  0
  4  5  2  0
  5  6  1  0
  6  7  2  0
  7  8  1  0
  8  9  1  0
  9 10  2  0
 10 11  1  0
 11 12  1  0
 12 13  1  0
 13 14  1  0
 14 15  1  0
 15 16  1  0
 16 17  1  0
 17 18  1  0
 17 19  1  0
 16 20  1  0
 16 21  1  0
 15 22  1  0
 15 23  1  0
 14 24  1  0
 14 25  1  0
 13 26  1  0
 12 27  1  0
 12 28  1  0
 11 29  2  0
 29 30  1  0
 30 31  1  0
 31 32  2  0
 32 33  1  0
 33 34  2  0
 34 35  1  0
 35 36  2  0
 36 37  1  0
 34 38  1  0
 33 39  1  0
 32 40  1  0
  8 41  1  0
  8 42  1  0
  6 43  1  0
  5 44  1  0
  3 45  1  0
  1 46  1  0
  1 47  1  0
  1 48  1  0
  7  2  1  0
 30  9  1  0
 36 31  1  0
 17 13  1  0
M  END
>  <cnnaffinity>  (1) 
-6.62081

>  <filename>  (1) 
Cc1cnccc1Cc1nc(CC2CCCC2)nn1-c1cccnc1

$$$$
