
     RDKit          3D

 35 38  0  0  0  0  0  0  0  0999 V2000
    9.4211    0.7103   20.7582 C   0  0  0  0  0  0  0  0  0  0  0  0
    8.6221   -0.3833   21.4059 C   0  0  0  0  0  0  0  0  0  0  0  0
    9.1649   -1.2139   22.3825 C   0  0  0  0  0  0  0  0  0  0  0  0
    8.5015   -2.2059   22.9582 N   0  0  0  0  0  0  0  0  0  0  0  0
    7.2364   -2.4022   22.5625 C   0  0  0  0  0  0  0  0  0  0  0  0
    6.4308   -3.4783   23.2352 C   0  0  0  0  0  0  0  0  0  0  0  0
    5.2056   -3.9504   22.7139 C   0  0  0  0  0  0  0  0  0  0  0  0
    4.4946   -4.9718   23.3647 C   0  0  0  0  0  0  0  0  0  0  0  0
    4.8894   -5.5696   24.4992 N   0  0  0  0  0  0  0  0  0  0  0  0
    6.0348   -5.1004   24.9854 C   0  0  0  0  0  0  0  0  0  0  0  0
    6.8622   -4.0781   24.4466 C   0  0  0  0  0  0  0  0  0  0  0  0
    7.9705   -3.9426   25.3590 C   0  0  0  0  0  0  0  0  0  0  0  0
    7.7840   -4.8500   26.3595 C   0  0  0  0  0  0  0  0  0  0  0  0
    6.6190   -5.5464   26.1282 N   0  0  0  0  0  0  0  0  0  0  0  0
    6.1795   -6.2752   26.6586 H   0  0  0  0  0  0  0  0  0  0  0  0
    8.3931   -5.0646   27.2295 H   0  0  0  0  0  0  0  0  0  0  0  0
    8.7944   -3.2524   25.2477 H   0  0  0  0  0  0  0  0  0  0  0  0
    3.5542   -5.3133   22.9364 H   0  0  0  0  0  0  0  0  0  0  0  0
    4.7956   -3.5150   21.8100 H   0  0  0  0  0  0  0  0  0  0  0  0
    6.6347   -1.7192   21.5823 N   0  0  0  0  0  0  0  0  0  0  0  0
    7.3205   -0.7367   21.0067 C   0  0  0  0  0  0  0  0  0  0  0  0
    6.6197   -0.0191   19.9228 C   0  0  0  0  0  0  0  0  0  0  0  0
    5.4079    0.6367   20.1638 C   0  0  0  0  0  0  0  0  0  0  0  0
    4.8028    1.3137   19.1061 C   0  0  0  0  0  0  0  0  0  0  0  0
    5.4138    1.2884   17.8458 C   0  0  0  0  0  0  0  0  0  0  0  0
    6.5661    0.6506   17.5988 N   0  0  0  0  0  0  0  0  0  0  0  0
    7.1501    0.0233   18.6267 C   0  0  0  0  0  0  0  0  0  0  0  0
    8.1026   -0.4500   18.3879 H   0  0  0  0  0  0  0  0  0  0  0  0
    4.9605    1.7915   16.9943 H   0  0  0  0  0  0  0  0  0  0  0  0
    3.8731    1.8540   19.2393 H   0  0  0  0  0  0  0  0  0  0  0  0
    4.9646    0.6186   21.1641 H   0  0  0  0  0  0  0  0  0  0  0  0
   10.1967   -1.0770   22.7095 H   0  0  0  0  0  0  0  0  0  0  0  0
    9.7453    0.3170   19.7969 H   0  0  0  0  0  0  0  0  0  0  0  0
   10.2916    1.0044   21.3509 H   0  0  0  0  0  0  0  0  0  0  0  0
    8.8060    1.5889   20.5435 H   0  0  0  0  0  0  0  0  0  0  0  0
  1  2  1  0
  2  3  2  0
  3  4  1  0
  4  5  2  0
  5  6  1  0
  6  7  2  0
  7  8  1  0
  8  9  2  0
  9 10  1  0
 10 11  2  0
 11 12  1  0
 12 13  2  0
 13 14  1  0
 14 15  1  0
 13 16  1  0
 12 17  1  0
  8 18  1  0
  7 19  1  0
  5 20  1  0
 20 21  2  0
 21 22  1  0
 22 23  2  0
 23 24  1  0
 24 25  2  0
 25 26  1  0
 26 27  2  0
 27 28  1  0
 25 29  1  0
 24 30  1  0
 23 31  1  0
  3 32  1  0
  1 33  1  0
  1 34  1  0
  1 35  1  0
 21  2  1  0
 27 22  1  0
 11  6  1  0
 14 10  1  0
M  END
>  <cnnaffinity>  (1) 
-5.5535

>  <filename>  (1) 
Cc1cnc(-c2ccnc3[nH]ccc23)nc1-c1cccnc1

$$$$
