
     RDKit          3D

 44 47  0  0  0  0  0  0  0  0999 V2000
   13.2810    1.0116   23.9920 C   0  0  0  0  0  0  0  0  0  0  0  0
   12.4877    0.0924   23.1062 C   0  0  0  0  0  0  0  0  0  0  0  0
   11.0937    0.1257   23.0721 C   0  0  0  0  0  0  0  0  0  0  0  0
   10.3581   -0.7551   22.2604 C   0  0  0  0  0  0  0  0  0  0  0  0
    8.8924   -0.6767   22.2555 C   0  0  0  0  0  0  0  0  0  0  0  0
    8.1128   -1.4427   21.5093 N   0  0  0  0  0  0  0  0  0  0  0  0
    6.8770   -0.9291   21.7195 N   0  0  0  0  0  0  0  0  0  0  0  0
    5.7988   -1.2569   20.7855 C   0  0  0  0  0  0  0  0  0  0  0  0
    5.6624   -0.2883   19.6200 C   0  0  0  0  0  0  0  0  0  0  0  0
    4.5726    0.5809   19.4695 C   0  0  0  0  0  0  0  0  0  0  0  0
    4.5836    1.4901   18.4074 C   0  0  0  0  0  0  0  0  0  0  0  0
    5.6610    1.4715   17.5178 C   0  0  0  0  0  0  0  0  0  0  0  0
    6.7043    0.6356   17.6297 N   0  0  0  0  0  0  0  0  0  0  0  0
    6.6992   -0.2045   18.6714 C   0  0  0  0  0  0  0  0  0  0  0  0
    7.5703   -0.8556   18.7648 H   0  0  0  0  0  0  0  0  0  0  0  0
    5.6928    2.1653   16.6795 H   0  0  0  0  0  0  0  0  0  0  0  0
    3.7792    2.2052   18.2598 H   0  0  0  0  0  0  0  0  0  0  0  0
    3.7276    0.5525   20.1647 H   0  0  0  0  0  0  0  0  0  0  0  0
    6.0146   -2.2713   20.4405 H   0  0  0  0  0  0  0  0  0  0  0  0
    4.8712   -1.3046   21.3467 H   0  0  0  0  0  0  0  0  0  0  0  0
    6.9667    0.0956   22.6032 C   0  0  0  0  0  0  0  0  0  0  0  0
    5.8510    0.9602   23.1156 C   0  0  0  0  0  0  0  0  0  0  0  0
    5.6914    0.8670   24.6104 C   0  0  0  0  0  0  0  0  0  0  0  0
    6.3605    1.5388   25.6032 C   0  0  0  0  0  0  0  0  0  0  0  0
    6.0481    0.9047   26.8419 C   0  0  0  0  0  0  0  0  0  0  0  0
    5.1776   -0.1174   26.5654 C   0  0  0  0  0  0  0  0  0  0  0  0
    4.9617   -0.1207   25.2076 N   0  0  0  0  0  0  0  0  0  0  0  0
    4.3369   -0.7313   24.7038 H   0  0  0  0  0  0  0  0  0  0  0  0
    4.6840   -0.8276   27.2189 H   0  0  0  0  0  0  0  0  0  0  0  0
    6.4499    1.1505   27.8171 H   0  0  0  0  0  0  0  0  0  0  0  0
    7.0034    2.3985   25.4592 H   0  0  0  0  0  0  0  0  0  0  0  0
    4.9104    0.7596   22.5910 H   0  0  0  0  0  0  0  0  0  0  0  0
    6.1387    1.9845   22.8604 H   0  0  0  0  0  0  0  0  0  0  0  0
    8.2249    0.2887   22.9374 N   0  0  0  0  0  0  0  0  0  0  0  0
   11.0410   -1.6761   21.4504 C   0  0  0  0  0  0  0  0  0  0  0  0
   12.4341   -1.6978   21.4399 C   0  0  0  0  0  0  0  0  0  0  0  0
   13.1281   -0.8280   22.2690 C   0  0  0  0  0  0  0  0  0  0  0  0
   14.4724   -0.8914   22.2878 F   0  0  0  0  0  0  0  0  0  0  0  0
   13.0129   -2.3579   20.8049 H   0  0  0  0  0  0  0  0  0  0  0  0
   10.4697   -2.3697   20.8411 H   0  0  0  0  0  0  0  0  0  0  0  0
   10.5671    0.8417   23.7014 H   0  0  0  0  0  0  0  0  0  0  0  0
   12.6717    1.3779   24.8248 H   0  0  0  0  0  0  0  0  0  0  0  0
   14.1460    0.4855   24.3987 H   0  0  0  0  0  0  0  0  0  0  0  0
   13.6548    1.8661   23.4180 H   0  0  0  0  0  0  0  0  0  0  0  0
  1  2  1  0
  2  3  2  0
  3  4  1  0
  4  5  1  0
  5  6  2  0
  6  7  1  0
  7  8  1  0
  8  9  1  0
  9 10  2  0
 10 11  1  0
 11 12  2  0
 12 13  1  0
 13 14  2  0
 14 15  1  0
 12 16  1  0
 11 17  1  0
 10 18  1  0
  8 19  1  0
  8 20  1  0
  7 21  1  0
 21 22  1  0
 22 23  1  0
 23 24  2  0
 24 25  1  0
 25 26  2  0
 26 27  1  0
 27 28  1  0
 26 29  1  0
 25 30  1  0
 24 31  1  0
 22 32  1  0
 22 33  1  0
 21 34  2  0
  4 35  2  0
 35 36  1  0
 36 37  2  0
 37 38  1  0
 36 39  1  0
 35 40  1  0
  3 41  1  0
  1 42  1  0
  1 43  1  0
  1 44  1  0
 37  2  1  0
 34  5  1  0
 14  9  1  0
 27 23  1  0
M  END
>  <cnnaffinity>  (1) 
-6.20156

>  <filename>  (1) 
Cc1cc(-c2nc(Cc3ccc[nH]3)n(Cc3cccnc3)n2)ccc1F

$$$$
