
     RDKit          3D

 32 34  0  0  0  0  0  0  0  0999 V2000
    4.9173    1.8319   16.9237 H   0  0  0  0  0  0  0  0  0  0  0  0
    5.3781    1.3469   17.7824 C   0  0  0  0  0  0  0  0  0  0  0  0
    6.5434    0.7225   17.5571 N   0  0  0  0  0  0  0  0  0  0  0  0
    7.1236    0.1210   18.5978 C   0  0  0  0  0  0  0  0  0  0  0  0
    8.0531   -0.4092   18.4034 H   0  0  0  0  0  0  0  0  0  0  0  0
    6.6065    0.1391   19.8986 C   0  0  0  0  0  0  0  0  0  0  0  0
    7.3612   -0.5746   20.9426 C   0  0  0  0  0  0  0  0  0  0  0  0
    8.0117   -1.6361   20.5467 N   0  0  0  0  0  0  0  0  0  0  0  0
    8.5080   -2.4472   21.5155 C   0  0  0  0  0  0  0  0  0  0  0  0
    8.7395   -3.6293   21.4012 O   0  0  0  0  0  0  0  0  0  0  0  0
    8.7497   -1.8802   22.7842 N   0  0  0  0  0  0  0  0  0  0  0  0
    9.0409   -2.6474   23.3647 H   0  0  0  0  0  0  0  0  0  0  0  0
    8.0015   -0.8195   23.2635 C   0  0  0  0  0  0  0  0  0  0  0  0
    7.9968   -0.4252   24.7319 C   0  0  0  0  0  0  0  0  0  0  0  0
    6.8001   -0.1768   25.3047 N   0  0  0  0  0  0  0  0  0  0  0  0
    6.7663    0.1159   26.6094 C   0  0  0  0  0  0  0  0  0  0  0  0
    5.7798    0.2760   27.0436 H   0  0  0  0  0  0  0  0  0  0  0  0
    7.9156    0.2196   27.3957 C   0  0  0  0  0  0  0  0  0  0  0  0
    7.8373    0.4981   28.4391 H   0  0  0  0  0  0  0  0  0  0  0  0
    9.1572   -0.0105   26.8021 C   0  0  0  0  0  0  0  0  0  0  0  0
   10.0755    0.0343   27.3918 H   0  0  0  0  0  0  0  0  0  0  0  0
    9.2259   -0.3119   25.4386 C   0  0  0  0  0  0  0  0  0  0  0  0
   10.5767   -0.5095   24.7982 C   0  0  0  0  0  0  0  0  0  0  0  0
   11.3589    0.0129   25.3555 H   0  0  0  0  0  0  0  0  0  0  0  0
   10.8385   -1.5686   24.7783 H   0  0  0  0  0  0  0  0  0  0  0  0
   10.5912   -0.1577   23.7647 H   0  0  0  0  0  0  0  0  0  0  0  0
    7.3136   -0.1313   22.2976 C   0  0  0  0  0  0  0  0  0  0  0  0
    6.7190    0.7304   22.5523 H   0  0  0  0  0  0  0  0  0  0  0  0
    5.3713    0.7603   20.1149 C   0  0  0  0  0  0  0  0  0  0  0  0
    4.9006    0.7318   21.1016 H   0  0  0  0  0  0  0  0  0  0  0  0
    4.7474    1.3763   19.0322 C   0  0  0  0  0  0  0  0  0  0  0  0
    3.7963    1.8825   19.1470 H   0  0  0  0  0  0  0  0  0  0  0  0
  1  2  1  0
  2  3  2  0
  3  4  1  0
  4  5  1  0
  4  6  2  0
  6  7  1  0
  7  8  2  0
  8  9  1  0
  9 10  2  0
  9 11  1  0
 11 12  1  0
 11 13  1  0
 13 14  1  0
 14 15  2  0
 15 16  1  0
 16 17  1  0
 16 18  2  0
 18 19  1  0
 18 20  1  0
 20 21  1  0
 20 22  2  0
 22 23  1  0
 23 24  1  0
 23 25  1  0
 23 26  1  0
 13 27  2  0
 27 28  1  0
  6 29  1  0
 29 30  1  0
 29 31  2  0
 31 32  1  0
 31  2  1  0
 27  7  1  0
 22 14  1  0
M  END
>  <cnnaffinity>  (1) 
-5.09411

>  <filename>  (1) 
Cc1cccnc1-c1cc(-c2cccnc2)nc(=O)[nH]1

$$$$
