
     RDKit          3D

 42 45  0  0  0  0  0  0  0  0999 V2000
   16.0037   -0.3269   19.6606 C   0  0  0  0  0  0  0  0  0  0  0  0
   14.7092   -0.7713   20.5668 C   0  0  0  0  0  0  0  0  0  0  0  0
   14.4229    0.1311   21.6547 C   0  0  0  0  0  0  0  0  0  0  0  0
   13.1386    0.3457   22.1483 C   0  0  0  0  0  0  0  0  0  0  0  0
   12.0944   -0.4707   21.6609 C   0  0  0  0  0  0  0  0  0  0  0  0
   10.6482   -0.1080   21.7701 C   0  0  0  0  0  0  0  0  0  0  0  0
    9.6912   -0.8820   21.2716 N   0  0  0  0  0  0  0  0  0  0  0  0
    8.5577   -0.1932   21.5184 N   0  0  0  0  0  0  0  0  0  0  0  0
    7.2571   -0.7029   21.0757 C   0  0  0  0  0  0  0  0  0  0  0  0
    6.5753    0.0715   19.9554 C   0  0  0  0  0  0  0  0  0  0  0  0
    5.3340    0.7064   20.1021 C   0  0  0  0  0  0  0  0  0  0  0  0
    4.7655    1.3591   19.0032 C   0  0  0  0  0  0  0  0  0  0  0  0
    5.4552    1.3445   17.7875 C   0  0  0  0  0  0  0  0  0  0  0  0
    6.6359    0.7291   17.6178 N   0  0  0  0  0  0  0  0  0  0  0  0
    7.1707    0.1168   18.6815 C   0  0  0  0  0  0  0  0  0  0  0  0
    8.1205   -0.3882   18.5108 H   0  0  0  0  0  0  0  0  0  0  0  0
    5.0403    1.8389   16.9102 H   0  0  0  0  0  0  0  0  0  0  0  0
    3.8155    1.8783   19.0732 H   0  0  0  0  0  0  0  0  0  0  0  0
    4.8043    0.6881   21.0583 H   0  0  0  0  0  0  0  0  0  0  0  0
    7.4620   -1.7265   20.7520 H   0  0  0  0  0  0  0  0  0  0  0  0
    6.5955   -0.7612   21.9478 H   0  0  0  0  0  0  0  0  0  0  0  0
    8.8696    0.9491   22.1642 C   0  0  0  0  0  0  0  0  0  0  0  0
    7.8093    1.7823   22.8487 C   0  0  0  0  0  0  0  0  0  0  0  0
    7.3721    1.1644   24.1684 C   0  0  0  0  0  0  0  0  0  0  0  0
    6.2168    0.5334   24.5302 C   0  0  0  0  0  0  0  0  0  0  0  0
    6.2161   -0.1200   25.7424 N   0  0  0  0  0  0  0  0  0  0  0  0
    7.3687    0.0297   26.3180 C   0  0  0  0  0  0  0  0  0  0  0  0
    8.5098    0.9925   25.4531 S   0  0  0  0  0  0  0  0  0  0  0  0
    7.6445   -0.4199   27.2658 H   0  0  0  0  0  0  0  0  0  0  0  0
    5.3120    0.5174   23.9343 H   0  0  0  0  0  0  0  0  0  0  0  0
    8.2256    2.7835   23.0015 H   0  0  0  0  0  0  0  0  0  0  0  0
    6.9424    1.8823   22.1866 H   0  0  0  0  0  0  0  0  0  0  0  0
   10.1782    1.0520   22.3074 N   0  0  0  0  0  0  0  0  0  0  0  0
   12.4587   -1.6233   20.9411 C   0  0  0  0  0  0  0  0  0  0  0  0
   13.7634   -1.7968   20.4496 C   0  0  0  0  0  0  0  0  0  0  0  0
   14.0982   -2.9659   19.8896 F   0  0  0  0  0  0  0  0  0  0  0  0
   11.6713   -2.3298   20.7400 H   0  0  0  0  0  0  0  0  0  0  0  0
   12.9534    1.1885   22.8119 H   0  0  0  0  0  0  0  0  0  0  0  0
   15.2185    0.7818   22.0104 H   0  0  0  0  0  0  0  0  0  0  0  0
   15.9361    0.1302   18.6630 H   0  0  0  0  0  0  0  0  0  0  0  0
   16.8163   -1.0497   19.6481 H   0  0  0  0  0  0  0  0  0  0  0  0
   16.4044    0.5479   20.1493 H   0  0  0  0  0  0  0  0  0  0  0  0
  1  2  1  0
  2  3  2  0
  3  4  1  0
  4  5  2  0
  5  6  1  0
  6  7  2  0
  7  8  1  0
  8  9  1  0
  9 10  1  0
 10 11  2  0
 11 12  1  0
 12 13  2  0
 13 14  1  0
 14 15  2  0
 15 16  1  0
 13 17  1  0
 12 18  1  0
 11 19  1  0
  9 20  1  0
  9 21  1  0
  8 22  1  0
 22 23  1  0
 23 24  1  0
 24 25  2  0
 25 26  1  0
 26 27  2  0
 27 28  1  0
 27 29  1  0
 25 30  1  0
 23 31  1  0
 23 32  1  0
 22 33  2  0
  5 34  1  0
 34 35  2  0
 35 36  1  0
 34 37  1  0
  4 38  1  0
  3 39  1  0
  1 40  1  0
  1 41  1  0
  1 42  1  0
 35  2  1  0
 33  6  1  0
 15 10  1  0
 28 24  1  0
M  END
>  <cnnaffinity>  (1) 
-6.72436

>  <filename>  (1) 
Cc1ccc(-c2nc(Cc3cncs3)n(Cc3cccnc3)n2)cc1F

$$$$
