
     RDKit          3D

 50 53  0  0  0  0  0  0  0  0999 V2000
   11.3908    2.7547   23.2101 C   0  0  0  0  0  0  0  0  0  0  0  0
   10.0637    2.3177   23.8012 C   0  0  0  0  0  0  0  0  0  0  0  0
    9.9508    2.1297   25.1857 C   0  0  0  0  0  0  0  0  0  0  0  0
    8.7233    1.8795   25.8039 C   0  0  0  0  0  0  0  0  0  0  0  0
    7.5927    1.6732   25.0081 C   0  0  0  0  0  0  0  0  0  0  0  0
    7.7065    1.7363   23.6176 C   0  0  0  0  0  0  0  0  0  0  0  0
    8.9227    2.0753   22.9997 C   0  0  0  0  0  0  0  0  0  0  0  0
    9.0303    2.0197   21.4851 C   0  0  0  0  0  0  0  0  0  0  0  0
    9.5102    0.6319   20.9707 C   0  0  0  0  0  0  0  0  0  0  0  0
    8.6306   -0.4990   21.3955 C   0  0  0  0  0  0  0  0  0  0  0  0
    8.8658   -1.3382   22.3845 N   0  0  0  0  0  0  0  0  0  0  0  0
    7.6605   -1.9474   22.5687 C   0  0  0  0  0  0  0  0  0  0  0  0
    7.3952   -2.8683   23.7316 C   0  0  0  0  0  0  0  0  0  0  0  0
    8.5070   -3.9364   23.8819 C   0  0  0  0  0  0  0  0  0  0  0  0
    8.2892   -4.7632   25.1519 C   0  0  0  0  0  0  0  0  0  0  0  0
    8.2120   -3.9436   26.3049 O   0  0  0  0  0  0  0  0  0  0  0  0
    7.1300   -3.0311   26.2549 C   0  0  0  0  0  0  0  0  0  0  0  0
    7.2593   -2.0744   25.0672 C   0  0  0  0  0  0  0  0  0  0  0  0
    8.1564   -1.4512   25.2079 H   0  0  0  0  0  0  0  0  0  0  0  0
    6.3864   -1.4069   25.0367 H   0  0  0  0  0  0  0  0  0  0  0  0
    6.1707   -3.5798   26.1925 H   0  0  0  0  0  0  0  0  0  0  0  0
    7.1499   -2.4948   27.2091 H   0  0  0  0  0  0  0  0  0  0  0  0
    7.3635   -5.3612   25.0492 H   0  0  0  0  0  0  0  0  0  0  0  0
    9.1198   -5.4518   25.3312 H   0  0  0  0  0  0  0  0  0  0  0  0
    9.4836   -3.4336   23.9334 H   0  0  0  0  0  0  0  0  0  0  0  0
    8.5263   -4.5954   23.0054 H   0  0  0  0  0  0  0  0  0  0  0  0
    6.4305   -3.3498   23.5050 H   0  0  0  0  0  0  0  0  0  0  0  0
    6.7206   -1.5766   21.7237 N   0  0  0  0  0  0  0  0  0  0  0  0
    7.3563   -0.6645   20.9405 N   0  0  0  0  0  0  0  0  0  0  0  0
    6.6596    0.0046   19.8947 C   0  0  0  0  0  0  0  0  0  0  0  0
    5.4448    0.6446   20.1558 C   0  0  0  0  0  0  0  0  0  0  0  0
    4.8111    1.3125   19.1044 C   0  0  0  0  0  0  0  0  0  0  0  0
    5.3988    1.2964   17.8350 C   0  0  0  0  0  0  0  0  0  0  0  0
    6.5537    0.6657   17.5728 N   0  0  0  0  0  0  0  0  0  0  0  0
    7.1665    0.0436   18.5859 C   0  0  0  0  0  0  0  0  0  0  0  0
    8.1108   -0.4485   18.3508 H   0  0  0  0  0  0  0  0  0  0  0  0
    4.9298    1.8021   16.9934 H   0  0  0  0  0  0  0  0  0  0  0  0
    3.8779    1.8416   19.2569 H   0  0  0  0  0  0  0  0  0  0  0  0
    5.0209    0.5997   21.1600 H   0  0  0  0  0  0  0  0  0  0  0  0
   10.5222    0.4201   21.3317 H   0  0  0  0  0  0  0  0  0  0  0  0
    9.5524    0.6360   19.8803 H   0  0  0  0  0  0  0  0  0  0  0  0
    8.0594    2.2536   21.0297 H   0  0  0  0  0  0  0  0  0  0  0  0
    9.7257    2.7815   21.1181 H   0  0  0  0  0  0  0  0  0  0  0  0
    6.8621    1.4527   22.9878 H   0  0  0  0  0  0  0  0  0  0  0  0
    6.6455    1.3956   25.4604 H   0  0  0  0  0  0  0  0  0  0  0  0
    8.6467    1.8544   26.8877 H   0  0  0  0  0  0  0  0  0  0  0  0
   10.8641    2.1000   25.7676 H   0  0  0  0  0  0  0  0  0  0  0  0
   11.7683    2.0201   22.4893 H   0  0  0  0  0  0  0  0  0  0  0  0
   11.3241    3.7159   22.6800 H   0  0  0  0  0  0  0  0  0  0  0  0
   12.1468    2.8632   23.9932 H   0  0  0  0  0  0  0  0  0  0  0  0
  1  2  1  0
  2  3  2  0
  3  4  1  0
  4  5  2  0
  5  6  1  0
  6  7  2  0
  7  8  1  0
  8  9  1  0
  9 10  1  0
 10 11  2  0
 11 12  1  0
 12 13  1  0
 13 14  1  0
 14 15  1  0
 15 16  1  0
 16 17  1  0
 17 18  1  0
 18 19  1  0
 18 20  1  0
 17 21  1  0
 17 22  1  0
 15 23  1  0
 15 24  1  0
 14 25  1  0
 14 26  1  0
 13 27  1  0
 12 28  2  0
 28 29  1  0
 29 30  1  0
 30 31  2  0
 31 32  1  0
 32 33  2  0
 33 34  1  0
 34 35  2  0
 35 36  1  0
 33 37  1  0
 32 38  1  0
 31 39  1  0
  9 40  1  0
  9 41  1  0
  8 42  1  0
  8 43  1  0
  6 44  1  0
  5 45  1  0
  4 46  1  0
  3 47  1  0
  1 48  1  0
  1 49  1  0
  1 50  1  0
  7  2  1  0
 29 10  1  0
 35 30  1  0
 18 13  1  0
M  END
>  <cnnaffinity>  (1) 
-6.02222

>  <filename>  (1) 
Cc1ccccc1CCc1nc(C2CCOCC2)nn1-c1cccnc1

$$$$
