
     RDKit          3D

 46 48  0  0  0  0  0  0  0  0999 V2000
    7.2935    6.5635   23.5511 C   0  0  0  0  0  0  0  0  0  0  0  0
    7.7067    5.2186   24.1003 C   0  0  0  0  0  0  0  0  0  0  0  0
    7.6807    4.9773   25.4767 C   0  0  0  0  0  0  0  0  0  0  0  0
    8.0872    3.7371   25.9791 C   0  0  0  0  0  0  0  0  0  0  0  0
    8.5198    2.7300   25.1179 C   0  0  0  0  0  0  0  0  0  0  0  0
    8.5499    2.9637   23.7283 C   0  0  0  0  0  0  0  0  0  0  0  0
    8.9968    1.9240   22.9660 O   0  0  0  0  0  0  0  0  0  0  0  0
    9.0365    2.0125   21.5459 C   0  0  0  0  0  0  0  0  0  0  0  0
    9.4996    0.6529   21.0175 C   0  0  0  0  0  0  0  0  0  0  0  0
    8.6124   -0.4574   21.4522 C   0  0  0  0  0  0  0  0  0  0  0  0
    8.8476   -1.2980   22.4325 N   0  0  0  0  0  0  0  0  0  0  0  0
    7.6650   -1.9603   22.5607 C   0  0  0  0  0  0  0  0  0  0  0  0
    7.4353   -2.9434   23.6737 C   0  0  0  0  0  0  0  0  0  0  0  0
    7.3294   -2.2218   25.0353 C   0  0  0  0  0  0  0  0  0  0  0  0
    7.1112   -2.9358   25.8363 H   0  0  0  0  0  0  0  0  0  0  0  0
    8.2708   -1.7162   25.2808 H   0  0  0  0  0  0  0  0  0  0  0  0
    6.5355   -1.4675   25.0329 H   0  0  0  0  0  0  0  0  0  0  0  0
    8.5302   -4.0230   23.7031 C   0  0  0  0  0  0  0  0  0  0  0  0
    9.5105   -3.5843   23.9207 H   0  0  0  0  0  0  0  0  0  0  0  0
    8.3128   -4.7654   24.4777 H   0  0  0  0  0  0  0  0  0  0  0  0
    8.6074   -4.5455   22.7448 H   0  0  0  0  0  0  0  0  0  0  0  0
    6.4715   -3.4057   23.4462 H   0  0  0  0  0  0  0  0  0  0  0  0
    6.7389   -1.6144   21.6916 N   0  0  0  0  0  0  0  0  0  0  0  0
    7.3582   -0.6580   20.9473 N   0  0  0  0  0  0  0  0  0  0  0  0
    6.6591    0.0130   19.9032 C   0  0  0  0  0  0  0  0  0  0  0  0
    5.4386    0.6453   20.1665 C   0  0  0  0  0  0  0  0  0  0  0  0
    4.8134    1.3107   19.1076 C   0  0  0  0  0  0  0  0  0  0  0  0
    5.4011    1.2971   17.8353 C   0  0  0  0  0  0  0  0  0  0  0  0
    6.5580    0.6707   17.5723 N   0  0  0  0  0  0  0  0  0  0  0  0
    7.1665    0.0519   18.5912 C   0  0  0  0  0  0  0  0  0  0  0  0
    8.1094   -0.4367   18.3631 H   0  0  0  0  0  0  0  0  0  0  0  0
    4.9236    1.7891   16.9906 H   0  0  0  0  0  0  0  0  0  0  0  0
    3.8809    1.8389   19.2572 H   0  0  0  0  0  0  0  0  0  0  0  0
    5.0147    0.6051   21.1751 H   0  0  0  0  0  0  0  0  0  0  0  0
   10.5109    0.4302   21.3588 H   0  0  0  0  0  0  0  0  0  0  0  0
    9.5360    0.6933   19.9280 H   0  0  0  0  0  0  0  0  0  0  0  0
    9.7383    2.7941   21.2248 H   0  0  0  0  0  0  0  0  0  0  0  0
    8.0436    2.2536   21.1399 H   0  0  0  0  0  0  0  0  0  0  0  0
    8.1449    4.2067   23.2287 C   0  0  0  0  0  0  0  0  0  0  0  0
    8.1767    4.3985   22.1590 H   0  0  0  0  0  0  0  0  0  0  0  0
    8.8353    1.7642   25.4977 H   0  0  0  0  0  0  0  0  0  0  0  0
    8.0622    3.5630   27.0520 H   0  0  0  0  0  0  0  0  0  0  0  0
    7.3406    5.7656   26.1469 H   0  0  0  0  0  0  0  0  0  0  0  0
    6.8572    6.4794   22.5517 H   0  0  0  0  0  0  0  0  0  0  0  0
    6.5593    7.0636   24.1898 H   0  0  0  0  0  0  0  0  0  0  0  0
    8.1506    7.2397   23.4694 H   0  0  0  0  0  0  0  0  0  0  0  0
  1  2  1  0
  2  3  2  0
  3  4  1  0
  4  5  2  0
  5  6  1  0
  6  7  1  0
  7  8  1  0
  8  9  1  0
  9 10  1  0
 10 11  2  0
 11 12  1  0
 12 13  1  0
 13 14  1  0
 14 15  1  0
 14 16  1  0
 14 17  1  0
 13 18  1  0
 18 19  1  0
 18 20  1  0
 18 21  1  0
 13 22  1  0
 12 23  2  0
 23 24  1  0
 24 25  1  0
 25 26  2  0
 26 27  1  0
 27 28  2  0
 28 29  1  0
 29 30  2  0
 30 31  1  0
 28 32  1  0
 27 33  1  0
 26 34  1  0
  9 35  1  0
  9 36  1  0
  8 37  1  0
  8 38  1  0
  6 39  2  0
 39 40  1  0
  5 41  1  0
  4 42  1  0
  3 43  1  0
  1 44  1  0
  1 45  1  0
  1 46  1  0
 39  2  1  0
 24 10  1  0
 30 25  1  0
M  END
>  <cnnaffinity>  (1) 
-6.16801

>  <filename>  (1) 
Cc1cccc(OCCc2nc(C(C)C)nn2-c2cccnc2)c1

$$$$
