
     RDKit          3D

 44 48  0  0  0  0  0  0  0  0999 V2000
    4.6670    2.1729   23.1933 C   0  0  0  0  0  0  0  0  0  0  0  0
    5.9646    1.9918   23.9000 C   0  0  0  0  0  0  0  0  0  0  0  0
    6.3132    2.1100   25.2287 C   0  0  0  0  0  0  0  0  0  0  0  0
    7.7022    1.8503   25.2348 C   0  0  0  0  0  0  0  0  0  0  0  0
    8.6313    1.6656   26.4007 C   0  0  0  0  0  0  0  0  0  0  0  0
    9.8772    2.0579   26.1163 F   0  0  0  0  0  0  0  0  0  0  0  0
    8.6964    0.3720   26.7720 F   0  0  0  0  0  0  0  0  0  0  0  0
    8.1789    2.3651   27.4619 F   0  0  0  0  0  0  0  0  0  0  0  0
    8.1599    1.6072   24.0165 N   0  0  0  0  0  0  0  0  0  0  0  0
    7.1008    1.6875   23.2157 N   0  0  0  0  0  0  0  0  0  0  0  0
    7.2739    1.3229   21.8262 C   0  0  0  0  0  0  0  0  0  0  0  0
    7.2122   -0.1568   21.6246 C   0  0  0  0  0  0  0  0  0  0  0  0
    7.8860   -1.0344   22.3380 N   0  0  0  0  0  0  0  0  0  0  0  0
    7.7533   -2.1827   21.6315 C   0  0  0  0  0  0  0  0  0  0  0  0
    8.5594   -3.3806   21.9450 C   0  0  0  0  0  0  0  0  0  0  0  0
    7.9545   -4.7828   21.8887 C   0  0  0  0  0  0  0  0  0  0  0  0
    8.3787   -4.1654   23.1942 C   0  0  0  0  0  0  0  0  0  0  0  0
    7.8694   -3.8699   24.5566 C   0  0  0  0  0  0  0  0  0  0  0  0
    9.2851   -4.4171   24.3436 C   0  0  0  0  0  0  0  0  0  0  0  0
   10.1489   -3.7631   24.4635 H   0  0  0  0  0  0  0  0  0  0  0  0
    9.4551   -5.4465   24.6422 H   0  0  0  0  0  0  0  0  0  0  0  0
    7.7196   -2.8098   24.7671 H   0  0  0  0  0  0  0  0  0  0  0  0
    7.1570   -4.5743   24.9837 H   0  0  0  0  0  0  0  0  0  0  0  0
    8.5496   -5.6038   21.4878 H   0  0  0  0  0  0  0  0  0  0  0  0
    6.8825   -4.8459   21.6953 H   0  0  0  0  0  0  0  0  0  0  0  0
    9.6040   -3.2155   21.6749 H   0  0  0  0  0  0  0  0  0  0  0  0
    7.0353   -2.0777   20.5280 N   0  0  0  0  0  0  0  0  0  0  0  0
    6.6521   -0.7725   20.5375 N   0  0  0  0  0  0  0  0  0  0  0  0
    6.0124   -0.1871   19.4078 C   0  0  0  0  0  0  0  0  0  0  0  0
    4.9195    0.6870   19.5180 C   0  0  0  0  0  0  0  0  0  0  0  0
    4.4835    1.3324   18.3526 C   0  0  0  0  0  0  0  0  0  0  0  0
    5.1515    1.0950   17.1555 C   0  0  0  0  0  0  0  0  0  0  0  0
    6.1458    0.2014   17.0323 N   0  0  0  0  0  0  0  0  0  0  0  0
    6.5403   -0.4436   18.1310 C   0  0  0  0  0  0  0  0  0  0  0  0
    7.3235   -1.1870   18.0013 H   0  0  0  0  0  0  0  0  0  0  0  0
    4.8776    1.6334   16.2523 H   0  0  0  0  0  0  0  0  0  0  0  0
    3.6508    2.0263   18.3595 H   0  0  0  0  0  0  0  0  0  0  0  0
    4.4212    0.8643   20.4728 H   0  0  0  0  0  0  0  0  0  0  0  0
    6.5525    1.8586   21.2094 H   0  0  0  0  0  0  0  0  0  0  0  0
    8.2788    1.6509   21.5593 H   0  0  0  0  0  0  0  0  0  0  0  0
    5.6584    2.3623   26.0560 H   0  0  0  0  0  0  0  0  0  0  0  0
    4.4264    1.2849   22.6019 H   0  0  0  0  0  0  0  0  0  0  0  0
    4.7082    3.0252   22.5056 H   0  0  0  0  0  0  0  0  0  0  0  0
    3.8632    2.3322   23.9125 H   0  0  0  0  0  0  0  0  0  0  0  0
  1  2  1  0
  2  3  2  0
  3  4  1  0
  4  5  1  0
  5  6  1  0
  5  7  1  0
  5  8  1  0
  4  9  2  0
  9 10  1  0
 10 11  1  0
 11 12  1  0
 12 13  2  0
 13 14  1  0
 14 15  1  0
 15 16  1  0
 16 17  1  0
 17 18  1  0
 18 19  1  0
 19 20  1  0
 19 21  1  0
 18 22  1  0
 18 23  1  0
 16 24  1  0
 16 25  1  0
 15 26  1  0
 14 27  2  0
 27 28  1  0
 28 29  1  0
 29 30  2  0
 30 31  1  0
 31 32  2  0
 32 33  1  0
 33 34  2  0
 34 35  1  0
 32 36  1  0
 31 37  1  0
 30 38  1  0
 11 39  1  0
 11 40  1  0
  3 41  1  0
  1 42  1  0
  1 43  1  0
  1 44  1  0
 10  2  1  0
 28 12  1  0
 34 29  1  0
 17 15  1  0
 19 17  1  0
M  END
>  <cnnaffinity>  (1) 
-5.9609

>  <filename>  (1) 
Cc1cc(C(F)(F)F)nn1Cc1nc(C2CC23CC3)nn1-c1cccnc1

$$$$
