
     RDKit          3D

 43 46  0  0  0  0  0  0  0  0999 V2000
    9.1984   -1.0996   27.3153 C   0  0  0  0  0  0  0  0  0  0  0  0
    8.2182   -1.6930   26.3246 C   0  0  0  0  0  0  0  0  0  0  0  0
    7.2527   -2.6437   26.6832 C   0  0  0  0  0  0  0  0  0  0  0  0
    6.2693   -3.0467   25.7717 C   0  0  0  0  0  0  0  0  0  0  0  0
    6.2752   -2.5494   24.4651 C   0  0  0  0  0  0  0  0  0  0  0  0
    7.3071   -1.6988   24.0546 C   0  0  0  0  0  0  0  0  0  0  0  0
    7.4656   -1.3632   22.6547 N   0  0  0  0  0  0  0  0  0  0  0  0
    6.5721   -0.6196   21.9573 N   0  0  0  0  0  0  0  0  0  0  0  0
    7.1177   -0.5347   20.7558 C   0  0  0  0  0  0  0  0  0  0  0  0
    6.4866    0.1611   19.6284 C   0  0  0  0  0  0  0  0  0  0  0  0
    5.2731    0.8564   19.7609 C   0  0  0  0  0  0  0  0  0  0  0  0
    4.7644    1.5037   18.6401 C   0  0  0  0  0  0  0  0  0  0  0  0
    5.4644    1.4205   17.4310 C   0  0  0  0  0  0  0  0  0  0  0  0
    6.6110    0.7381   17.2853 N   0  0  0  0  0  0  0  0  0  0  0  0
    7.1080    0.1288   18.3692 C   0  0  0  0  0  0  0  0  0  0  0  0
    8.0427   -0.4090   18.2247 H   0  0  0  0  0  0  0  0  0  0  0  0
    5.0832    1.9250   16.5463 H   0  0  0  0  0  0  0  0  0  0  0  0
    3.8464    2.0777   18.6980 H   0  0  0  0  0  0  0  0  0  0  0  0
    4.7581    0.8739   20.7247 H   0  0  0  0  0  0  0  0  0  0  0  0
    8.3140   -1.1695   20.6389 N   0  0  0  0  0  0  0  0  0  0  0  0
    8.4897   -1.6966   21.8243 C   0  0  0  0  0  0  0  0  0  0  0  0
    9.6204   -2.5884   22.2215 C   0  0  0  0  0  0  0  0  0  0  0  0
    9.1492   -3.8419   22.8071 N   0  0  0  0  0  0  0  0  0  0  0  0
    8.0750   -4.4580   22.2904 N   0  0  0  0  0  0  0  0  0  0  0  0
    7.7789   -5.4204   23.1564 C   0  0  0  0  0  0  0  0  0  0  0  0
    8.7116   -5.4597   24.2220 C   0  0  0  0  0  0  0  0  0  0  0  0
    9.5972   -4.4410   23.9430 C   0  0  0  0  0  0  0  0  0  0  0  0
   10.8568   -4.0015   24.6216 C   0  0  0  0  0  0  0  0  0  0  0  0
   11.1382   -4.7032   25.4074 H   0  0  0  0  0  0  0  0  0  0  0  0
   11.6941   -3.9529   23.9181 H   0  0  0  0  0  0  0  0  0  0  0  0
   10.7313   -3.0134   25.0692 H   0  0  0  0  0  0  0  0  0  0  0  0
    8.7648   -6.1240   25.0768 H   0  0  0  0  0  0  0  0  0  0  0  0
    6.8841   -6.0143   23.0109 H   0  0  0  0  0  0  0  0  0  0  0  0
   10.2103   -2.7875   21.3293 H   0  0  0  0  0  0  0  0  0  0  0  0
   10.2489   -2.0583   22.9475 H   0  0  0  0  0  0  0  0  0  0  0  0
    8.2431   -1.2432   24.9952 C   0  0  0  0  0  0  0  0  0  0  0  0
    8.9802   -0.5002   24.7056 H   0  0  0  0  0  0  0  0  0  0  0  0
    5.4966   -2.8347   23.7600 H   0  0  0  0  0  0  0  0  0  0  0  0
    5.4907   -3.7462   26.0786 H   0  0  0  0  0  0  0  0  0  0  0  0
    7.2498   -3.0566   27.6859 H   0  0  0  0  0  0  0  0  0  0  0  0
    9.9442   -1.8260   27.6526 H   0  0  0  0  0  0  0  0  0  0  0  0
    9.7444   -0.2694   26.8597 H   0  0  0  0  0  0  0  0  0  0  0  0
    8.6946   -0.6893   28.1957 H   0  0  0  0  0  0  0  0  0  0  0  0
  1  2  1  0
  2  3  2  0
  3  4  1  0
  4  5  2  0
  5  6  1  0
  6  7  1  0
  7  8  1  0
  8  9  2  0
  9 10  1  0
 10 11  2  0
 11 12  1  0
 12 13  2  0
 13 14  1  0
 14 15  2  0
 15 16  1  0
 13 17  1  0
 12 18  1  0
 11 19  1  0
  9 20  1  0
 20 21  2  0
 21 22  1  0
 22 23  1  0
 23 24  1  0
 24 25  2  0
 25 26  1  0
 26 27  2  0
 27 28  1  0
 28 29  1  0
 28 30  1  0
 28 31  1  0
 26 32  1  0
 25 33  1  0
 22 34  1  0
 22 35  1  0
  6 36  2  0
 36 37  1  0
  5 38  1  0
  4 39  1  0
  3 40  1  0
  1 41  1  0
  1 42  1  0
  1 43  1  0
 36  2  1  0
 21  7  1  0
 27 23  1  0
 15 10  1  0
M  END
>  <cnnaffinity>  (1) 
-6.16224

>  <filename>  (1) 
Cc1cccc(-n2nc(-c3cccnc3)nc2Cn2nccc2C)c1

$$$$
