
     RDKit          3D

 44 47  0  0  0  0  0  0  0  0999 V2000
    6.7775    1.8225   23.0501 C   0  0  0  0  0  0  0  0  0  0  0  0
    8.1746    1.8619   23.6314 C   0  0  0  0  0  0  0  0  0  0  0  0
    8.3043    1.7518   25.0225 C   0  0  0  0  0  0  0  0  0  0  0  0
    9.5495    1.6910   25.6332 C   0  0  0  0  0  0  0  0  0  0  0  0
   10.7078    1.7774   24.8584 C   0  0  0  0  0  0  0  0  0  0  0  0
   10.6441    1.8927   23.4632 C   0  0  0  0  0  0  0  0  0  0  0  0
   11.9343    1.9257   22.6624 C   0  0  0  0  0  0  0  0  0  0  0  0
   12.3249    0.9129   22.4883 H   0  0  0  0  0  0  0  0  0  0  0  0
   12.7317    2.4577   23.1932 H   0  0  0  0  0  0  0  0  0  0  0  0
   11.7928    2.4053   21.6893 H   0  0  0  0  0  0  0  0  0  0  0  0
    9.3629    1.9018   22.8621 C   0  0  0  0  0  0  0  0  0  0  0  0
    9.2600    1.8473   21.4752 O   0  0  0  0  0  0  0  0  0  0  0  0
    9.5742    0.5520   20.9367 C   0  0  0  0  0  0  0  0  0  0  0  0
    8.6297   -0.5406   21.3698 C   0  0  0  0  0  0  0  0  0  0  0  0
    8.8413   -1.4002   22.3503 N   0  0  0  0  0  0  0  0  0  0  0  0
    7.6197   -1.9608   22.5489 C   0  0  0  0  0  0  0  0  0  0  0  0
    7.3631   -2.9117   23.6649 C   0  0  0  0  0  0  0  0  0  0  0  0
    7.6752   -2.4953   25.0826 C   0  0  0  0  0  0  0  0  0  0  0  0
    6.2513   -2.6655   24.6529 C   0  0  0  0  0  0  0  0  0  0  0  0
    5.6709   -1.7528   24.5228 H   0  0  0  0  0  0  0  0  0  0  0  0
    5.6888   -3.5284   24.9987 H   0  0  0  0  0  0  0  0  0  0  0  0
    8.0207   -1.4681   25.2233 H   0  0  0  0  0  0  0  0  0  0  0  0
    8.1373   -3.2382   25.7274 H   0  0  0  0  0  0  0  0  0  0  0  0
    7.5763   -3.9489   23.4012 H   0  0  0  0  0  0  0  0  0  0  0  0
    6.6835   -1.5459   21.7147 N   0  0  0  0  0  0  0  0  0  0  0  0
    7.3415   -0.6481   20.9336 N   0  0  0  0  0  0  0  0  0  0  0  0
    6.6510   -0.0127   19.8709 C   0  0  0  0  0  0  0  0  0  0  0  0
    5.4323    0.6209   20.1239 C   0  0  0  0  0  0  0  0  0  0  0  0
    4.8144    1.3086   19.0772 C   0  0  0  0  0  0  0  0  0  0  0  0
    5.4157    1.3043   17.8135 C   0  0  0  0  0  0  0  0  0  0  0  0
    6.5512    0.6421   17.5469 N   0  0  0  0  0  0  0  0  0  0  0  0
    7.1472   -0.0063   18.5556 C   0  0  0  0  0  0  0  0  0  0  0  0
    8.0553   -0.5537   18.3128 H   0  0  0  0  0  0  0  0  0  0  0  0
    4.9602    1.8360   16.9819 H   0  0  0  0  0  0  0  0  0  0  0  0
    3.8871    1.8446   19.2366 H   0  0  0  0  0  0  0  0  0  0  0  0
    5.0065    0.5787   21.1271 H   0  0  0  0  0  0  0  0  0  0  0  0
    9.5594    0.6820   19.8548 H   0  0  0  0  0  0  0  0  0  0  0  0
   10.5788    0.2434   21.2507 H   0  0  0  0  0  0  0  0  0  0  0  0
   11.6709    1.7484   25.3491 H   0  0  0  0  0  0  0  0  0  0  0  0
    9.6159    1.5343   26.6991 H   0  0  0  0  0  0  0  0  0  0  0  0
    7.4041    1.7096   25.6287 H   0  0  0  0  0  0  0  0  0  0  0  0
    6.7220    2.2298   22.0363 H   0  0  0  0  0  0  0  0  0  0  0  0
    6.4128    0.7845   23.0307 H   0  0  0  0  0  0  0  0  0  0  0  0
    6.0897    2.3832   23.6932 H   0  0  0  0  0  0  0  0  0  0  0  0
  1  2  1  0
  2  3  2  0
  3  4  1  0
  4  5  2  0
  5  6  1  0
  6  7  1  0
  7  8  1  0
  7  9  1  0
  7 10  1  0
  6 11  2  0
 11 12  1  0
 12 13  1  0
 13 14  1  0
 14 15  2  0
 15 16  1  0
 16 17  1  0
 17 18  1  0
 18 19  1  0
 19 20  1  0
 19 21  1  0
 18 22  1  0
 18 23  1  0
 17 24  1  0
 16 25  2  0
 25 26  1  0
 26 27  1  0
 27 28  2  0
 28 29  1  0
 29 30  2  0
 30 31  1  0
 31 32  2  0
 32 33  1  0
 30 34  1  0
 29 35  1  0
 28 36  1  0
 13 37  1  0
 13 38  1  0
  5 39  1  0
  4 40  1  0
  3 41  1  0
  1 42  1  0
  1 43  1  0
  1 44  1  0
 11  2  1  0
 26 14  1  0
 32 27  1  0
 19 17  1  0
M  END
>  <cnnaffinity>  (1) 
-5.8771

>  <filename>  (1) 
Cc1cccc(C)c1OCc1nc(C2CC2)nn1-c1cccnc1

$$$$
