
     RDKit          3D

 45 48  0  0  0  0  0  0  0  0999 V2000
    9.6903    2.2506   21.1226 C   0  0  0  0  0  0  0  0  0  0  0  0
    9.8434    2.2159   22.6038 C   0  0  0  0  0  0  0  0  0  0  0  0
   10.9643    2.4257   23.3701 C   0  0  0  0  0  0  0  0  0  0  0  0
   10.6389    2.0486   24.7004 C   0  0  0  0  0  0  0  0  0  0  0  0
    9.3298    1.6511   24.7180 C   0  0  0  0  0  0  0  0  0  0  0  0
    8.5669    1.0495   25.8501 C   0  0  0  0  0  0  0  0  0  0  0  0
    7.6721    1.6237   26.1147 H   0  0  0  0  0  0  0  0  0  0  0  0
    9.2152    1.0341   26.7285 H   0  0  0  0  0  0  0  0  0  0  0  0
    8.2762    0.0157   25.6279 H   0  0  0  0  0  0  0  0  0  0  0  0
    8.8121    1.8208   23.4409 N   0  0  0  0  0  0  0  0  0  0  0  0
    7.4837    1.3938   22.9945 C   0  0  0  0  0  0  0  0  0  0  0  0
    7.5109   -0.0001   22.4461 C   0  0  0  0  0  0  0  0  0  0  0  0
    7.9441   -0.9965   23.1906 N   0  0  0  0  0  0  0  0  0  0  0  0
    8.1856   -1.9821   22.2924 C   0  0  0  0  0  0  0  0  0  0  0  0
    8.8234   -3.2410   22.7482 C   0  0  0  0  0  0  0  0  0  0  0  0
    8.0660   -3.9650   23.8825 C   0  0  0  0  0  0  0  0  0  0  0  0
    9.1723   -4.7321   24.6162 C   0  0  0  0  0  0  0  0  0  0  0  0
   10.3886   -4.0631   24.3184 O   0  0  0  0  0  0  0  0  0  0  0  0
   10.1957   -3.0014   23.4042 C   0  0  0  0  0  0  0  0  0  0  0  0
   11.0175   -3.0260   22.6800 H   0  0  0  0  0  0  0  0  0  0  0  0
   10.2270   -2.0367   23.9413 H   0  0  0  0  0  0  0  0  0  0  0  0
    9.0242   -4.7222   25.7056 H   0  0  0  0  0  0  0  0  0  0  0  0
    9.2420   -5.7867   24.2948 H   0  0  0  0  0  0  0  0  0  0  0  0
    7.2641   -4.6125   23.5197 H   0  0  0  0  0  0  0  0  0  0  0  0
    7.6043   -3.2337   24.5583 H   0  0  0  0  0  0  0  0  0  0  0  0
    8.9272   -3.8836   21.8711 H   0  0  0  0  0  0  0  0  0  0  0  0
    7.8711   -1.6928   21.0473 N   0  0  0  0  0  0  0  0  0  0  0  0
    7.3635   -0.4249   21.1508 N   0  0  0  0  0  0  0  0  0  0  0  0
    6.6807    0.1648   20.0465 C   0  0  0  0  0  0  0  0  0  0  0  0
    5.4656    0.8484   20.2036 C   0  0  0  0  0  0  0  0  0  0  0  0
    4.8693    1.3975   19.0626 C   0  0  0  0  0  0  0  0  0  0  0  0
    5.5006    1.2587   17.8225 C   0  0  0  0  0  0  0  0  0  0  0  0
    6.6476    0.5761   17.6605 N   0  0  0  0  0  0  0  0  0  0  0  0
    7.2063    0.0293   18.7459 C   0  0  0  0  0  0  0  0  0  0  0  0
    8.1034   -0.5627   18.5836 H   0  0  0  0  0  0  0  0  0  0  0  0
    5.0763    1.7040   16.9245 H   0  0  0  0  0  0  0  0  0  0  0  0
    3.9311    1.9391   19.1233 H   0  0  0  0  0  0  0  0  0  0  0  0
    4.9805    0.9186   21.1799 H   0  0  0  0  0  0  0  0  0  0  0  0
    6.8341    1.3872   23.8737 H   0  0  0  0  0  0  0  0  0  0  0  0
    7.0712    2.1153   22.2902 H   0  0  0  0  0  0  0  0  0  0  0  0
   11.2923    2.0029   25.5634 H   0  0  0  0  0  0  0  0  0  0  0  0
   11.9134    2.8089   23.0078 H   0  0  0  0  0  0  0  0  0  0  0  0
    8.9395    2.9807   20.8006 H   0  0  0  0  0  0  0  0  0  0  0  0
    9.3852    1.2674   20.7396 H   0  0  0  0  0  0  0  0  0  0  0  0
   10.6469    2.5110   20.6614 H   0  0  0  0  0  0  0  0  0  0  0  0
  1  2  1  0
  2  3  2  0
  3  4  1  0
  4  5  2  0
  5  6  1  0
  6  7  1  0
  6  8  1  0
  6  9  1  0
  5 10  1  0
 10 11  1  0
 11 12  1  0
 12 13  2  0
 13 14  1  0
 14 15  1  0
 15 16  1  0
 16 17  1  0
 17 18  1  0
 18 19  1  0
 19 20  1  0
 19 21  1  0
 17 22  1  0
 17 23  1  0
 16 24  1  0
 16 25  1  0
 15 26  1  0
 14 27  2  0
 27 28  1  0
 28 29  1  0
 29 30  2  0
 30 31  1  0
 31 32  2  0
 32 33  1  0
 33 34  2  0
 34 35  1  0
 32 36  1  0
 31 37  1  0
 30 38  1  0
 11 39  1  0
 11 40  1  0
  4 41  1  0
  3 42  1  0
  1 43  1  0
  1 44  1  0
  1 45  1  0
 10  2  1  0
 28 12  1  0
 34 29  1  0
 19 15  1  0
M  END
>  <cnnaffinity>  (1) 
-5.99791

>  <filename>  (1) 
Cc1ccc(C)n1Cc1nc(C2CCOC2)nn1-c1cccnc1

$$$$
