
     RDKit          3D

 49 52  0  0  0  0  0  0  0  0999 V2000
    6.8132   -5.9943   26.6539 C   0  0  0  0  0  0  0  0  0  0  0  0
    7.0361   -4.9396   25.6045 C   0  0  0  0  0  0  0  0  0  0  0  0
    8.2619   -4.2647   25.5118 C   0  0  0  0  0  0  0  0  0  0  0  0
    8.4798   -3.3044   24.5273 C   0  0  0  0  0  0  0  0  0  0  0  0
    7.4633   -2.9986   23.5998 C   0  0  0  0  0  0  0  0  0  0  0  0
    7.6759   -1.9807   22.5518 C   0  0  0  0  0  0  0  0  0  0  0  0
    6.7476   -1.6087   21.6868 N   0  0  0  0  0  0  0  0  0  0  0  0
    7.3693   -0.6633   20.9443 N   0  0  0  0  0  0  0  0  0  0  0  0
    6.6635    0.0110   19.9047 C   0  0  0  0  0  0  0  0  0  0  0  0
    5.4417    0.6424   20.1678 C   0  0  0  0  0  0  0  0  0  0  0  0
    4.8135    1.3089   19.1106 C   0  0  0  0  0  0  0  0  0  0  0  0
    5.4015    1.2955   17.8385 C   0  0  0  0  0  0  0  0  0  0  0  0
    6.5612    0.6742   17.5769 N   0  0  0  0  0  0  0  0  0  0  0  0
    7.1707    0.0558   18.5947 C   0  0  0  0  0  0  0  0  0  0  0  0
    8.1138   -0.4360   18.3698 H   0  0  0  0  0  0  0  0  0  0  0  0
    4.9189    1.7847   16.9946 H   0  0  0  0  0  0  0  0  0  0  0  0
    3.8803    1.8390   19.2614 H   0  0  0  0  0  0  0  0  0  0  0  0
    5.0165    0.6090   21.1737 H   0  0  0  0  0  0  0  0  0  0  0  0
    8.6382   -0.4900   21.4198 C   0  0  0  0  0  0  0  0  0  0  0  0
    9.5384    0.5942   20.9369 C   0  0  0  0  0  0  0  0  0  0  0  0
    9.0722    2.0057   21.3410 C   0  0  0  0  0  0  0  0  0  0  0  0
    9.0074    2.2123   22.8606 C   0  0  0  0  0  0  0  0  0  0  0  0
   10.2814    2.0278   23.5429 N   0  0  0  0  0  0  0  0  0  0  0  0
   10.6639    0.9159   24.2725 C   0  0  0  0  0  0  0  0  0  0  0  0
   11.9570    1.1373   24.6450 C   0  0  0  0  0  0  0  0  0  0  0  0
   12.3864    2.3450   24.1571 N   0  0  0  0  0  0  0  0  0  0  0  0
   11.3716    2.8519   23.5003 C   0  0  0  0  0  0  0  0  0  0  0  0
   11.4185    4.1587   22.7775 C   0  0  0  0  0  0  0  0  0  0  0  0
   11.6855    4.0103   21.7243 H   0  0  0  0  0  0  0  0  0  0  0  0
   10.4627    4.6889   22.8160 H   0  0  0  0  0  0  0  0  0  0  0  0
   12.1956    4.7863   23.2182 H   0  0  0  0  0  0  0  0  0  0  0  0
   12.6086    0.5097   25.2429 H   0  0  0  0  0  0  0  0  0  0  0  0
    9.9927    0.0842   24.4153 H   0  0  0  0  0  0  0  0  0  0  0  0
    8.3093    1.4997   23.3078 H   0  0  0  0  0  0  0  0  0  0  0  0
    8.6154    3.2077   23.0903 H   0  0  0  0  0  0  0  0  0  0  0  0
    8.0825    2.2046   20.9067 H   0  0  0  0  0  0  0  0  0  0  0  0
    9.7573    2.7428   20.9132 H   0  0  0  0  0  0  0  0  0  0  0  0
    9.6096    0.5376   19.8484 H   0  0  0  0  0  0  0  0  0  0  0  0
   10.5327    0.3940   21.3443 H   0  0  0  0  0  0  0  0  0  0  0  0
    8.8599   -1.3214   22.4141 N   0  0  0  0  0  0  0  0  0  0  0  0
    6.2318   -3.6786   23.6857 C   0  0  0  0  0  0  0  0  0  0  0  0
    6.0311   -4.6352   24.6748 C   0  0  0  0  0  0  0  0  0  0  0  0
    5.0804   -5.1585   24.7331 H   0  0  0  0  0  0  0  0  0  0  0  0
    5.4391   -3.4469   22.9769 H   0  0  0  0  0  0  0  0  0  0  0  0
    9.4455   -2.8033   24.4803 H   0  0  0  0  0  0  0  0  0  0  0  0
    9.0503   -4.5050   26.2218 H   0  0  0  0  0  0  0  0  0  0  0  0
    7.1129   -6.9727   26.2732 H   0  0  0  0  0  0  0  0  0  0  0  0
    7.3976   -5.8056   27.5594 H   0  0  0  0  0  0  0  0  0  0  0  0
    5.7608   -6.0718   26.9425 H   0  0  0  0  0  0  0  0  0  0  0  0
  1  2  1  0
  2  3  2  0
  3  4  1  0
  4  5  2  0
  5  6  1  0
  6  7  2  0
  7  8  1  0
  8  9  1  0
  9 10  2  0
 10 11  1  0
 11 12  2  0
 12 13  1  0
 13 14  2  0
 14 15  1  0
 12 16  1  0
 11 17  1  0
 10 18  1  0
  8 19  1  0
 19 20  1  0
 20 21  1  0
 21 22  1  0
 22 23  1  0
 23 24  1  0
 24 25  2  0
 25 26  1  0
 26 27  2  0
 27 28  1  0
 28 29  1  0
 28 30  1  0
 28 31  1  0
 25 32  1  0
 24 33  1  0
 22 34  1  0
 22 35  1  0
 21 36  1  0
 21 37  1  0
 20 38  1  0
 20 39  1  0
 19 40  2  0
  5 41  1  0
 41 42  2  0
 42 43  1  0
 41 44  1  0
  4 45  1  0
  3 46  1  0
  1 47  1  0
  1 48  1  0
  1 49  1  0
 42  2  1  0
 40  6  1  0
 14  9  1  0
 27 23  1  0
M  END
>  <cnnaffinity>  (1) 
-6.22167

>  <filename>  (1) 
Cc1ccc(-c2nc(CCCn3ccnc3C)n(-c3cccnc3)n2)cc1

$$$$
