
     RDKit          3D

 47 50  0  0  0  0  0  0  0  0999 V2000
    8.1625    1.7983   27.1764 C   0  0  0  0  0  0  0  0  0  0  0  0
    8.4655    1.8269   25.6952 C   0  0  0  0  0  0  0  0  0  0  0  0
    7.4061    1.6677   24.7935 C   0  0  0  0  0  0  0  0  0  0  0  0
    7.6147    1.7613   23.4204 C   0  0  0  0  0  0  0  0  0  0  0  0
    8.8794    2.0615   22.8938 C   0  0  0  0  0  0  0  0  0  0  0  0
    9.0537    2.0070   21.3865 C   0  0  0  0  0  0  0  0  0  0  0  0
    9.5229    0.6031   20.9263 C   0  0  0  0  0  0  0  0  0  0  0  0
    8.6429   -0.5143   21.3794 C   0  0  0  0  0  0  0  0  0  0  0  0
    8.8881   -1.3616   22.3601 N   0  0  0  0  0  0  0  0  0  0  0  0
    7.6812   -1.9499   22.5697 C   0  0  0  0  0  0  0  0  0  0  0  0
    7.4369   -2.8848   23.7033 C   0  0  0  0  0  0  0  0  0  0  0  0
    7.5545   -2.2190   25.1075 C   0  0  0  0  0  0  0  0  0  0  0  0
    8.9132   -3.3312   25.5937 S   0  0  0  0  0  0  0  0  0  0  0  0
    8.5506   -3.9416   23.9127 C   0  0  0  0  0  0  0  0  0  0  0  0
    8.2049   -4.9793   23.9004 H   0  0  0  0  0  0  0  0  0  0  0  0
    9.4071   -3.8233   23.2427 H   0  0  0  0  0  0  0  0  0  0  0  0
    7.8532   -1.1627   25.0965 H   0  0  0  0  0  0  0  0  0  0  0  0
    6.6722   -2.3423   25.7408 H   0  0  0  0  0  0  0  0  0  0  0  0
    6.4540   -3.3310   23.5462 H   0  0  0  0  0  0  0  0  0  0  0  0
    6.7277   -1.5709   21.7454 N   0  0  0  0  0  0  0  0  0  0  0  0
    7.3563   -0.6635   20.9459 N   0  0  0  0  0  0  0  0  0  0  0  0
    6.6588   -0.0122   19.8957 C   0  0  0  0  0  0  0  0  0  0  0  0
    5.4407    0.6273   20.1527 C   0  0  0  0  0  0  0  0  0  0  0  0
    4.8141    1.3057   19.1046 C   0  0  0  0  0  0  0  0  0  0  0  0
    5.4122    1.2980   17.8387 C   0  0  0  0  0  0  0  0  0  0  0  0
    6.5614    0.6580   17.5738 N   0  0  0  0  0  0  0  0  0  0  0  0
    7.1673    0.0209   18.5829 C   0  0  0  0  0  0  0  0  0  0  0  0
    8.1028   -0.4863   18.3476 H   0  0  0  0  0  0  0  0  0  0  0  0
    4.9461    1.8173   17.0057 H   0  0  0  0  0  0  0  0  0  0  0  0
    3.8842    1.8426   19.2605 H   0  0  0  0  0  0  0  0  0  0  0  0
    5.0110    0.5843   21.1544 H   0  0  0  0  0  0  0  0  0  0  0  0
    9.5968    0.5811   19.8391 H   0  0  0  0  0  0  0  0  0  0  0  0
   10.5162    0.4082   21.3369 H   0  0  0  0  0  0  0  0  0  0  0  0
    8.1068    2.2605   20.8919 H   0  0  0  0  0  0  0  0  0  0  0  0
    9.7820    2.7525   21.0570 H   0  0  0  0  0  0  0  0  0  0  0  0
    9.9595    2.2441   23.7870 C   0  0  0  0  0  0  0  0  0  0  0  0
   11.3248    2.6590   23.2807 C   0  0  0  0  0  0  0  0  0  0  0  0
   11.2799    3.6076   22.7296 H   0  0  0  0  0  0  0  0  0  0  0  0
   11.7363    1.9097   22.5944 H   0  0  0  0  0  0  0  0  0  0  0  0
   12.0404    2.7913   24.0947 H   0  0  0  0  0  0  0  0  0  0  0  0
    9.7502    2.0434   25.1665 C   0  0  0  0  0  0  0  0  0  0  0  0
   10.6086    2.0252   25.8334 H   0  0  0  0  0  0  0  0  0  0  0  0
    6.7863    1.5665   22.7426 H   0  0  0  0  0  0  0  0  0  0  0  0
    6.4152    1.4257   25.1729 H   0  0  0  0  0  0  0  0  0  0  0  0
    8.6196    0.9394   27.6877 H   0  0  0  0  0  0  0  0  0  0  0  0
    7.0791    1.7322   27.3116 H   0  0  0  0  0  0  0  0  0  0  0  0
    8.4650    2.7167   27.6906 H   0  0  0  0  0  0  0  0  0  0  0  0
  1  2  1  0
  2  3  2  0
  3  4  1  0
  4  5  2  0
  5  6  1  0
  6  7  1  0
  7  8  1  0
  8  9  2  0
  9 10  1  0
 10 11  1  0
 11 12  1  0
 12 13  1  0
 13 14  1  0
 14 15  1  0
 14 16  1  0
 12 17  1  0
 12 18  1  0
 11 19  1  0
 10 20  2  0
 20 21  1  0
 21 22  1  0
 22 23  2  0
 23 24  1  0
 24 25  2  0
 25 26  1  0
 26 27  2  0
 27 28  1  0
 25 29  1  0
 24 30  1  0
 23 31  1  0
  7 32  1  0
  7 33  1  0
  6 34  1  0
  6 35  1  0
  5 36  1  0
 36 37  1  0
 37 38  1  0
 37 39  1  0
 37 40  1  0
 36 41  2  0
 41 42  1  0
  4 43  1  0
  3 44  1  0
  1 45  1  0
  1 46  1  0
  1 47  1  0
 41  2  1  0
 21  8  1  0
 27 22  1  0
 14 11  1  0
M  END
>  <cnnaffinity>  (1) 
-6.12274

>  <filename>  (1) 
Cc1ccc(CCc2nc(C3CSC3)nn2-c2cccnc2)c(C)c1

$$$$
