
     RDKit          3D

 46 49  0  0  0  0  0  0  0  0999 V2000
    7.4981   -3.9782   24.9401 C   0  0  0  0  0  0  0  0  0  0  0  0
    7.0616   -4.7701   23.7268 C   0  0  0  0  0  0  0  0  0  0  0  0
    6.0089   -5.6975   23.8077 C   0  0  0  0  0  0  0  0  0  0  0  0
    5.5598   -6.3981   22.6816 C   0  0  0  0  0  0  0  0  0  0  0  0
    6.1602   -6.1757   21.4426 C   0  0  0  0  0  0  0  0  0  0  0  0
    7.2330   -5.2876   21.3562 C   0  0  0  0  0  0  0  0  0  0  0  0
    7.6792   -4.5708   22.4740 C   0  0  0  0  0  0  0  0  0  0  0  0
    8.7404   -3.5084   22.2408 C   0  0  0  0  0  0  0  0  0  0  0  0
    8.1826   -2.1499   22.0084 C   0  0  0  0  0  0  0  0  0  0  0  0
    7.7148   -1.8434   20.8141 N   0  0  0  0  0  0  0  0  0  0  0  0
    7.3268   -0.5552   20.9611 N   0  0  0  0  0  0  0  0  0  0  0  0
    6.6377    0.0779   19.9046 C   0  0  0  0  0  0  0  0  0  0  0  0
    5.4117    0.6988   20.1375 C   0  0  0  0  0  0  0  0  0  0  0  0
    4.7872    1.3211   19.0558 C   0  0  0  0  0  0  0  0  0  0  0  0
    5.4130    1.2855   17.8048 C   0  0  0  0  0  0  0  0  0  0  0  0
    6.5612    0.6224   17.5676 N   0  0  0  0  0  0  0  0  0  0  0  0
    7.1529    0.0147   18.5989 C   0  0  0  0  0  0  0  0  0  0  0  0
    8.0733   -0.5324   18.3931 H   0  0  0  0  0  0  0  0  0  0  0  0
    4.9818    1.8179   16.9618 H   0  0  0  0  0  0  0  0  0  0  0  0
    3.8509    1.8510   19.1868 H   0  0  0  0  0  0  0  0  0  0  0  0
    4.9762    0.6632   21.1369 H   0  0  0  0  0  0  0  0  0  0  0  0
    7.6397   -0.1399   22.2202 C   0  0  0  0  0  0  0  0  0  0  0  0
    7.4457    1.2141   22.7930 C   0  0  0  0  0  0  0  0  0  0  0  0
    6.2661    1.2140   23.7038 C   0  0  0  0  0  0  0  0  0  0  0  0
    6.1717    0.3141   24.6593 N   0  0  0  0  0  0  0  0  0  0  0  0
    5.0096    0.5711   25.2931 N   0  0  0  0  0  0  0  0  0  0  0  0
    4.5754   -0.2093   26.4173 C   0  0  0  0  0  0  0  0  0  0  0  0
    5.1830    0.2095   27.5557 F   0  0  0  0  0  0  0  0  0  0  0  0
    4.8673   -1.5150   26.2338 F   0  0  0  0  0  0  0  0  0  0  0  0
    3.4974   -0.0967   26.5374 H   0  0  0  0  0  0  0  0  0  0  0  0
    4.3755    1.6508   24.7501 C   0  0  0  0  0  0  0  0  0  0  0  0
    5.1578    2.0829   23.7082 C   0  0  0  0  0  0  0  0  0  0  0  0
    5.0085    2.9058   23.0266 H   0  0  0  0  0  0  0  0  0  0  0  0
    3.4539    2.0194   25.1832 H   0  0  0  0  0  0  0  0  0  0  0  0
    8.3391    1.4595   23.3720 H   0  0  0  0  0  0  0  0  0  0  0  0
    7.3299    1.9693   22.0144 H   0  0  0  0  0  0  0  0  0  0  0  0
    8.1777   -1.1343   22.8990 N   0  0  0  0  0  0  0  0  0  0  0  0
    9.2105   -3.6970   21.2848 H   0  0  0  0  0  0  0  0  0  0  0  0
    9.5099   -3.4564   23.0168 H   0  0  0  0  0  0  0  0  0  0  0  0
    7.7369   -5.1391   20.4047 H   0  0  0  0  0  0  0  0  0  0  0  0
    5.7680   -6.6582   20.5527 H   0  0  0  0  0  0  0  0  0  0  0  0
    4.7364   -7.1033   22.7686 H   0  0  0  0  0  0  0  0  0  0  0  0
    5.5120   -5.8425   24.7657 H   0  0  0  0  0  0  0  0  0  0  0  0
    8.5191   -4.2331   25.2501 H   0  0  0  0  0  0  0  0  0  0  0  0
    7.4793   -2.9010   24.7191 H   0  0  0  0  0  0  0  0  0  0  0  0
    6.8433   -4.1535   25.7979 H   0  0  0  0  0  0  0  0  0  0  0  0
  1  2  1  0
  2  3  2  0
  3  4  1  0
  4  5  2  0
  5  6  1  0
  6  7  2  0
  7  8  1  0
  8  9  1  0
  9 10  2  0
 10 11  1  0
 11 12  1  0
 12 13  2  0
 13 14  1  0
 14 15  2  0
 15 16  1  0
 16 17  2  0
 17 18  1  0
 15 19  1  0
 14 20  1  0
 13 21  1  0
 11 22  1  0
 22 23  1  0
 23 24  1  0
 24 25  2  0
 25 26  1  0
 26 27  1  0
 27 28  1  0
 27 29  1  0
 27 30  1  0
 26 31  1  0
 31 32  2  0
 32 33  1  0
 31 34  1  0
 23 35  1  0
 23 36  1  0
 22 37  2  0
  8 38  1  0
  8 39  1  0
  6 40  1  0
  5 41  1  0
  4 42  1  0
  3 43  1  0
  1 44  1  0
  1 45  1  0
  1 46  1  0
  7  2  1  0
 37  9  1  0
 17 12  1  0
 32 24  1  0
M  END
>  <cnnaffinity>  (1) 
-6.02844

>  <filename>  (1) 
Cc1ccccc1Cc1nc(Cc2ccn(C(F)F)n2)n(-c2cccnc2)n1

$$$$
