
     RDKit          3D

 43 46  0  0  0  0  0  0  0  0999 V2000
   12.0032    0.7296   23.5414 C   0  0  0  0  0  0  0  0  0  0  0  0
   11.7474   -0.1781   22.3463 C   0  0  0  0  0  0  0  0  0  0  0  0
   10.5763   -0.3515   21.4922 C   0  0  0  0  0  0  0  0  0  0  0  0
    9.7311    0.9136   21.2561 C   0  0  0  0  0  0  0  0  0  0  0  0
    8.6000    0.9965   22.2301 C   0  0  0  0  0  0  0  0  0  0  0  0
    8.6237    1.7205   23.3280 N   0  0  0  0  0  0  0  0  0  0  0  0
    7.5001    1.3333   23.9942 C   0  0  0  0  0  0  0  0  0  0  0  0
    7.1387    1.8603   25.3305 C   0  0  0  0  0  0  0  0  0  0  0  0
    7.9011    2.8985   25.9007 C   0  0  0  0  0  0  0  0  0  0  0  0
    7.5595    3.4220   27.1484 C   0  0  0  0  0  0  0  0  0  0  0  0
    6.4674    2.9053   27.8532 C   0  0  0  0  0  0  0  0  0  0  0  0
    5.7146    1.8608   27.3038 C   0  0  0  0  0  0  0  0  0  0  0  0
    6.0424    1.3378   26.0515 C   0  0  0  0  0  0  0  0  0  0  0  0
    5.4539    0.5271   25.6242 H   0  0  0  0  0  0  0  0  0  0  0  0
    4.8673    1.4551   27.8521 H   0  0  0  0  0  0  0  0  0  0  0  0
    6.2045    3.3127   28.8257 H   0  0  0  0  0  0  0  0  0  0  0  0
    8.1433    4.2385   27.5655 H   0  0  0  0  0  0  0  0  0  0  0  0
    8.7579    3.2867   25.3546 H   0  0  0  0  0  0  0  0  0  0  0  0
    6.7880    0.4299   23.3415 N   0  0  0  0  0  0  0  0  0  0  0  0
    7.4920    0.2250   22.2074 N   0  0  0  0  0  0  0  0  0  0  0  0
    6.9671   -0.6699   21.1771 C   0  0  0  0  0  0  0  0  0  0  0  0
    6.4181    0.0407   19.9532 C   0  0  0  0  0  0  0  0  0  0  0  0
    5.2861    0.8601   20.0513 C   0  0  0  0  0  0  0  0  0  0  0  0
    4.8353    1.5175   18.9032 C   0  0  0  0  0  0  0  0  0  0  0  0
    5.5242    1.3306   17.7030 C   0  0  0  0  0  0  0  0  0  0  0  0
    6.5970    0.5331   17.5820 N   0  0  0  0  0  0  0  0  0  0  0  0
    7.0187   -0.0906   18.6892 C   0  0  0  0  0  0  0  0  0  0  0  0
    7.8889   -0.7406   18.5656 H   0  0  0  0  0  0  0  0  0  0  0  0
    5.2027    1.8371   16.7957 H   0  0  0  0  0  0  0  0  0  0  0  0
    3.9760    2.1782   18.9288 H   0  0  0  0  0  0  0  0  0  0  0  0
    4.7762    0.9823   21.0103 H   0  0  0  0  0  0  0  0  0  0  0  0
    6.1823   -1.2408   21.6781 H   0  0  0  0  0  0  0  0  0  0  0  0
    7.7677   -1.3570   20.8926 H   0  0  0  0  0  0  0  0  0  0  0  0
   10.3375    1.8168   21.3576 H   0  0  0  0  0  0  0  0  0  0  0  0
    9.3354    0.8765   20.2380 H   0  0  0  0  0  0  0  0  0  0  0  0
   10.1431   -1.3868   21.0125 O   0  0  0  0  0  0  0  0  0  0  0  0
   12.6489   -1.3089   22.0514 C   0  0  0  0  0  0  0  0  0  0  0  0
   12.6542   -1.1688   21.9545 C   0  0  0  0  0  0  0  0  0  0  0  0
   13.6664   -1.2613   21.2828 H   0  0  0  0  0  0  0  0  0  0  0  0
   12.0543   -2.3124   21.8566 H   0  0  0  0  0  0  0  0  0  0  0  0
   12.1671    0.0718   24.4031 H   0  0  0  0  0  0  0  0  0  0  0  0
   12.9199    1.3009   23.3885 H   0  0  0  0  0  0  0  0  0  0  0  0
   11.1486    1.3826   23.7038 H   0  0  0  0  0  0  0  0  0  0  0  0
  1  2  1  0
  2  3  2  0
  3  4  1  0
  4  5  1  0
  5  6  2  0
  6  7  1  0
  7  8  1  0
  8  9  2  0
  9 10  1  0
 10 11  2  0
 11 12  1  0
 12 13  2  0
 13 14  1  0
 12 15  1  0
 11 16  1  0
 10 17  1  0
  9 18  1  0
  7 19  2  0
 19 20  1  0
 20 21  1  0
 21 22  1  0
 22 23  2  0
 23 24  1  0
 24 25  2  0
 25 26  1  0
 26 27  2  0
 27 28  1  0
 25 29  1  0
 24 30  1  0
 23 31  1  0
 21 32  1  0
 21 33  1  0
  4 34  1  0
  4 35  1  0
  3 36  1  0
 36 37  1  0
 37 38  2  0
 38 39  1  0
 37 40  1  0
  1 41  1  0
  1 42  1  0
  1 43  1  0
 38  2  1  0
 20  5  1  0
 27 22  1  0
 13  8  1  0
M  END
>  <cnnaffinity>  (1) 
-5.88908

>  <filename>  (1) 
Cc1ccoc1Cc1nc(-c2ccccc2)nn1Cc1cccnc1

$$$$
