
     RDKit          3D

 54 57  0  0  0  0  0  0  0  0999 V2000
    4.3354    5.6495   21.8054 C   0  0  0  0  0  0  0  0  0  0  0  0
    5.7303    5.1492   22.1602 C   0  0  0  0  0  0  0  0  0  0  0  0
    6.4609    5.8423   23.1383 C   0  0  0  0  0  0  0  0  0  0  0  0
    7.7139    5.4139   23.5875 C   0  0  0  0  0  0  0  0  0  0  0  0
    8.4330    6.1707   24.6858 C   0  0  0  0  0  0  0  0  0  0  0  0
    8.1658    5.7865   25.6800 H   0  0  0  0  0  0  0  0  0  0  0  0
    9.5217    6.0916   24.5856 H   0  0  0  0  0  0  0  0  0  0  0  0
    8.1715    7.2353   24.6743 H   0  0  0  0  0  0  0  0  0  0  0  0
    8.2734    4.2564   23.0254 C   0  0  0  0  0  0  0  0  0  0  0  0
    7.5755    3.5482   22.0390 C   0  0  0  0  0  0  0  0  0  0  0  0
    8.0336    2.4006   21.4470 O   0  0  0  0  0  0  0  0  0  0  0  0
    9.3147    1.8874   21.7906 C   0  0  0  0  0  0  0  0  0  0  0  0
    9.5211    0.5959   20.9994 C   0  0  0  0  0  0  0  0  0  0  0  0
    8.5919   -0.4869   21.4164 C   0  0  0  0  0  0  0  0  0  0  0  0
    8.8269   -1.3348   22.3965 N   0  0  0  0  0  0  0  0  0  0  0  0
    7.6464   -2.0023   22.5203 C   0  0  0  0  0  0  0  0  0  0  0  0
    7.4013   -3.0263   23.5974 C   0  0  0  0  0  0  0  0  0  0  0  0
    8.4564   -4.1670   23.5737 C   0  0  0  0  0  0  0  0  0  0  0  0
    8.2605   -5.1079   24.7672 C   0  0  0  0  0  0  0  0  0  0  0  0
    8.2870   -4.4078   25.9970 O   0  0  0  0  0  0  0  0  0  0  0  0
    7.2567   -3.4434   26.1020 C   0  0  0  0  0  0  0  0  0  0  0  0
    7.3724   -2.3722   25.0135 C   0  0  0  0  0  0  0  0  0  0  0  0
    6.5331   -1.6690   25.1016 H   0  0  0  0  0  0  0  0  0  0  0  0
    8.2985   -1.7988   25.1663 H   0  0  0  0  0  0  0  0  0  0  0  0
    7.3563   -3.0158   27.1035 H   0  0  0  0  0  0  0  0  0  0  0  0
    6.2670   -3.9348   26.0371 H   0  0  0  0  0  0  0  0  0  0  0  0
    7.3007   -5.6491   24.6602 H   0  0  0  0  0  0  0  0  0  0  0  0
    9.0606   -5.8498   24.8353 H   0  0  0  0  0  0  0  0  0  0  0  0
    8.3895   -4.7408   22.6404 H   0  0  0  0  0  0  0  0  0  0  0  0
    9.4633   -3.7273   23.6150 H   0  0  0  0  0  0  0  0  0  0  0  0
    6.4038   -3.4353   23.3724 H   0  0  0  0  0  0  0  0  0  0  0  0
    6.7116   -1.6305   21.6669 N   0  0  0  0  0  0  0  0  0  0  0  0
    7.3332   -0.6702   20.9336 N   0  0  0  0  0  0  0  0  0  0  0  0
    6.6501    0.0060   19.8895 C   0  0  0  0  0  0  0  0  0  0  0  0
    5.4327    0.6399   20.1513 C   0  0  0  0  0  0  0  0  0  0  0  0
    4.7995    1.3034   19.0969 C   0  0  0  0  0  0  0  0  0  0  0  0
    5.3915    1.2925   17.8289 C   0  0  0  0  0  0  0  0  0  0  0  0
    6.5477    0.6638   17.5645 N   0  0  0  0  0  0  0  0  0  0  0  0
    7.1599    0.0456   18.5820 C   0  0  0  0  0  0  0  0  0  0  0  0
    8.1061   -0.4397   18.3470 H   0  0  0  0  0  0  0  0  0  0  0  0
    4.9271    1.8042   16.9907 H   0  0  0  0  0  0  0  0  0  0  0  0
    3.8688    1.8422   19.2427 H   0  0  0  0  0  0  0  0  0  0  0  0
    5.0211    0.6062   21.1618 H   0  0  0  0  0  0  0  0  0  0  0  0
    9.3952    0.7936   19.9351 H   0  0  0  0  0  0  0  0  0  0  0  0
   10.5370    0.2301   21.1648 H   0  0  0  0  0  0  0  0  0  0  0  0
   10.0957    2.6194   21.5411 H   0  0  0  0  0  0  0  0  0  0  0  0
    9.3644    1.6790   22.8700 H   0  0  0  0  0  0  0  0  0  0  0  0
    6.3132    4.0030   21.6022 C   0  0  0  0  0  0  0  0  0  0  0  0
    5.8150    3.4537   20.8113 H   0  0  0  0  0  0  0  0  0  0  0  0
    9.2531    3.9162   23.3556 H   0  0  0  0  0  0  0  0  0  0  0  0
    6.0295    6.7456   23.5622 H   0  0  0  0  0  0  0  0  0  0  0  0
    3.5815    5.2503   22.4960 H   0  0  0  0  0  0  0  0  0  0  0  0
    3.9874    5.3854   20.8044 H   0  0  0  0  0  0  0  0  0  0  0  0
    4.2917    6.7423   21.8823 H   0  0  0  0  0  0  0  0  0  0  0  0
  1  2  1  0
  2  3  2  0
  3  4  1  0
  4  5  1  0
  5  6  1  0
  5  7  1  0
  5  8  1  0
  4  9  2  0
  9 10  1  0
 10 11  1  0
 11 12  1  0
 12 13  1  0
 13 14  1  0
 14 15  2  0
 15 16  1  0
 16 17  1  0
 17 18  1  0
 18 19  1  0
 19 20  1  0
 20 21  1  0
 21 22  1  0
 22 23  1  0
 22 24  1  0
 21 25  1  0
 21 26  1  0
 19 27  1  0
 19 28  1  0
 18 29  1  0
 18 30  1  0
 17 31  1  0
 16 32  2  0
 32 33  1  0
 33 34  1  0
 34 35  2  0
 35 36  1  0
 36 37  2  0
 37 38  1  0
 38 39  2  0
 39 40  1  0
 37 41  1  0
 36 42  1  0
 35 43  1  0
 13 44  1  0
 13 45  1  0
 12 46  1  0
 12 47  1  0
 10 48  2  0
 48 49  1  0
  9 50  1  0
  3 51  1  0
  1 52  1  0
  1 53  1  0
  1 54  1  0
 48  2  1  0
 33 14  1  0
 39 34  1  0
 22 17  1  0
M  END
>  <cnnaffinity>  (1) 
-6.46857

>  <filename>  (1) 
Cc1cc(C)cc(OCCc2nc(C3CCOCC3)nn2-c2cccnc2)c1

$$$$
