
     RDKit          3D

 42 45  0  0  0  0  0  0  0  0999 V2000
    8.0934   -0.2182   27.5216 C   0  0  0  0  0  0  0  0  0  0  0  0
    7.3222    0.2453   26.3317 C   0  0  0  0  0  0  0  0  0  0  0  0
    7.6284    1.1530   25.3749 C   0  0  0  0  0  0  0  0  0  0  0  0
    6.6108    0.9862   24.3973 C   0  0  0  0  0  0  0  0  0  0  0  0
    6.5974    1.5429   23.0048 C   0  0  0  0  0  0  0  0  0  0  0  0
    7.7143    0.8832   22.2613 C   0  0  0  0  0  0  0  0  0  0  0  0
    8.9736    1.2243   22.4054 N   0  0  0  0  0  0  0  0  0  0  0  0
    9.6533    0.1396   21.9375 C   0  0  0  0  0  0  0  0  0  0  0  0
   11.1333    0.0467   22.0985 C   0  0  0  0  0  0  0  0  0  0  0  0
   11.8869   -1.0334   21.5866 C   0  0  0  0  0  0  0  0  0  0  0  0
   13.2561   -1.0745   21.8540 C   0  0  0  0  0  0  0  0  0  0  0  0
   13.9791   -2.1013   21.3897 F   0  0  0  0  0  0  0  0  0  0  0  0
   13.9092   -0.0958   22.6018 C   0  0  0  0  0  0  0  0  0  0  0  0
   13.1411    0.9543   23.0812 C   0  0  0  0  0  0  0  0  0  0  0  0
   13.7379    1.9314   23.7754 F   0  0  0  0  0  0  0  0  0  0  0  0
   11.7777    1.0501   22.8492 C   0  0  0  0  0  0  0  0  0  0  0  0
   11.2178    1.8928   23.2464 H   0  0  0  0  0  0  0  0  0  0  0  0
   14.9676   -0.1372   22.8225 H   0  0  0  0  0  0  0  0  0  0  0  0
   11.4370   -1.8142   20.9797 H   0  0  0  0  0  0  0  0  0  0  0  0
    8.8740   -0.8157   21.4562 N   0  0  0  0  0  0  0  0  0  0  0  0
    7.6258   -0.3258   21.6722 N   0  0  0  0  0  0  0  0  0  0  0  0
    6.4518   -0.9287   21.0421 C   0  0  0  0  0  0  0  0  0  0  0  0
    5.9898   -0.1470   19.8276 C   0  0  0  0  0  0  0  0  0  0  0  0
    4.8112    0.6094   19.7846 C   0  0  0  0  0  0  0  0  0  0  0  0
    4.5696    1.4096   18.6636 C   0  0  0  0  0  0  0  0  0  0  0  0
    5.4900    1.3967   17.6129 C   0  0  0  0  0  0  0  0  0  0  0  0
    6.6091    0.6532   17.6227 N   0  0  0  0  0  0  0  0  0  0  0  0
    6.8443   -0.0806   18.7152 C   0  0  0  0  0  0  0  0  0  0  0  0
    7.7825   -0.6397   18.7213 H   0  0  0  0  0  0  0  0  0  0  0  0
    5.3094    1.9898   16.7169 H   0  0  0  0  0  0  0  0  0  0  0  0
    3.7015    2.0573   18.6093 H   0  0  0  0  0  0  0  0  0  0  0  0
    4.0990    0.5831   20.6124 H   0  0  0  0  0  0  0  0  0  0  0  0
    5.6654   -0.9905   21.7977 H   0  0  0  0  0  0  0  0  0  0  0  0
    6.7466   -1.9485   20.7842 H   0  0  0  0  0  0  0  0  0  0  0  0
    5.6306    1.3688   22.5286 H   0  0  0  0  0  0  0  0  0  0  0  0
    6.7939    2.6130   23.0253 H   0  0  0  0  0  0  0  0  0  0  0  0
    5.7281    0.1047   24.7753 N   0  0  0  0  0  0  0  0  0  0  0  0
    6.1637   -0.3538   26.0105 O   0  0  0  0  0  0  0  0  0  0  0  0
    8.5006    1.7821   25.3114 H   0  0  0  0  0  0  0  0  0  0  0  0
    7.7613   -1.2030   27.8503 H   0  0  0  0  0  0  0  0  0  0  0  0
    8.0413    0.4917   28.3533 H   0  0  0  0  0  0  0  0  0  0  0  0
    9.1483   -0.2853   27.2392 H   0  0  0  0  0  0  0  0  0  0  0  0
  1  2  1  0
  2  3  2  0
  3  4  1  0
  4  5  1  0
  5  6  1  0
  6  7  2  0
  7  8  1  0
  8  9  1  0
  9 10  2  0
 10 11  1  0
 11 12  1  0
 11 13  2  0
 13 14  1  0
 14 15  1  0
 14 16  2  0
 16 17  1  0
 13 18  1  0
 10 19  1  0
  8 20  2  0
 20 21  1  0
 21 22  1  0
 22 23  1  0
 23 24  2  0
 24 25  1  0
 25 26  2  0
 26 27  1  0
 27 28  2  0
 28 29  1  0
 26 30  1  0
 25 31  1  0
 24 32  1  0
 22 33  1  0
 22 34  1  0
  5 35  1  0
  5 36  1  0
  4 37  2  0
 37 38  1  0
  3 39  1  0
  1 40  1  0
  1 41  1  0
  1 42  1  0
 38  2  1  0
 21  6  1  0
 28 23  1  0
 16  9  1  0
M  END
>  <cnnaffinity>  (1) 
-6.40122

>  <filename>  (1) 
Cc1cc(Cc2nc(-c3cc(F)cc(F)c3)nn2Cc2cccnc2)no1

$$$$
