
     RDKit          3D

 48 51  0  0  0  0  0  0  0  0999 V2000
    6.9638   -1.5810   26.4078 C   0  0  0  0  0  0  0  0  0  0  0  0
    7.4545   -0.1539   26.4048 C   0  0  0  0  0  0  0  0  0  0  0  0
    7.1700    0.7444   27.4447 C   0  0  0  0  0  0  0  0  0  0  0  0
    7.5865    2.0199   27.4705 N   0  0  0  0  0  0  0  0  0  0  0  0
    8.3035    2.4704   26.4382 C   0  0  0  0  0  0  0  0  0  0  0  0
    8.5835    1.6792   25.3104 C   0  0  0  0  0  0  0  0  0  0  0  0
    9.2235    2.2650   24.1837 N   0  0  0  0  0  0  0  0  0  0  0  0
   10.2280    3.1602   24.3662 N   0  0  0  0  0  0  0  0  0  0  0  0
   10.5902    3.4588   23.1299 C   0  0  0  0  0  0  0  0  0  0  0  0
   11.7076    4.3832   22.7770 C   0  0  0  0  0  0  0  0  0  0  0  0
   11.8124    5.6923   23.6191 C   0  0  0  0  0  0  0  0  0  0  0  0
   12.9277    5.0356   24.4487 C   0  0  0  0  0  0  0  0  0  0  0  0
   13.1138    3.9831   23.3338 C   0  0  0  0  0  0  0  0  0  0  0  0
   13.8948    4.2579   22.6126 H   0  0  0  0  0  0  0  0  0  0  0  0
   13.2790    2.9354   23.6189 H   0  0  0  0  0  0  0  0  0  0  0  0
   12.4897    4.6003   25.3481 H   0  0  0  0  0  0  0  0  0  0  0  0
   13.8057    5.6283   24.7194 H   0  0  0  0  0  0  0  0  0  0  0  0
   12.1980    6.5141   23.0147 H   0  0  0  0  0  0  0  0  0  0  0  0
   10.9208    6.0180   24.1664 H   0  0  0  0  0  0  0  0  0  0  0  0
   11.6767    4.5327   21.6950 H   0  0  0  0  0  0  0  0  0  0  0  0
    9.8682    2.8369   22.1679 N   0  0  0  0  0  0  0  0  0  0  0  0
    9.0058    2.1050   22.8426 C   0  0  0  0  0  0  0  0  0  0  0  0
    7.9442    1.2942   22.1716 C   0  0  0  0  0  0  0  0  0  0  0  0
    8.4461   -0.0139   21.5228 C   0  0  0  0  0  0  0  0  0  0  0  0
    7.3289   -0.8505   20.8717 C   0  0  0  0  0  0  0  0  0  0  0  0
    6.5956   -0.1172   19.7685 C   0  0  0  0  0  0  0  0  0  0  0  0
    5.4057    0.5773   20.0164 C   0  0  0  0  0  0  0  0  0  0  0  0
    4.8128    1.3095   18.9849 C   0  0  0  0  0  0  0  0  0  0  0  0
    5.4386    1.3287   17.7334 C   0  0  0  0  0  0  0  0  0  0  0  0
    6.5726    0.6637   17.4667 N   0  0  0  0  0  0  0  0  0  0  0  0
    7.1251   -0.0345   18.4686 C   0  0  0  0  0  0  0  0  0  0  0  0
    8.0445   -0.5690   18.2219 H   0  0  0  0  0  0  0  0  0  0  0  0
    5.0105    1.8976   16.9114 H   0  0  0  0  0  0  0  0  0  0  0  0
    3.8968    1.8675   19.1382 H   0  0  0  0  0  0  0  0  0  0  0  0
    4.9670    0.5586   21.0182 H   0  0  0  0  0  0  0  0  0  0  0  0
    6.6077   -1.1580   21.6422 H   0  0  0  0  0  0  0  0  0  0  0  0
    7.7608   -1.7763   20.4701 H   0  0  0  0  0  0  0  0  0  0  0  0
    8.9637   -0.6400   22.2659 H   0  0  0  0  0  0  0  0  0  0  0  0
    9.1958    0.2428   20.7639 H   0  0  0  0  0  0  0  0  0  0  0  0
    7.1228    1.0949   22.8666 H   0  0  0  0  0  0  0  0  0  0  0  0
    7.5322    1.9462   21.3905 H   0  0  0  0  0  0  0  0  0  0  0  0
    8.1991    0.3357   25.3229 C   0  0  0  0  0  0  0  0  0  0  0  0
    8.4609   -0.3300   24.4982 H   0  0  0  0  0  0  0  0  0  0  0  0
    8.6438    3.4991   26.5020 H   0  0  0  0  0  0  0  0  0  0  0  0
    6.5837    0.4143   28.3020 H   0  0  0  0  0  0  0  0  0  0  0  0
    6.0217   -1.6860   25.8555 H   0  0  0  0  0  0  0  0  0  0  0  0
    7.6986   -2.2362   25.9299 H   0  0  0  0  0  0  0  0  0  0  0  0
    6.7920   -1.9547   27.4210 H   0  0  0  0  0  0  0  0  0  0  0  0
  1  2  1  0
  2  3  2  0
  3  4  1  0
  4  5  2  0
  5  6  1  0
  6  7  1  0
  7  8  1  0
  8  9  2  0
  9 10  1  0
 10 11  1  0
 11 12  1  0
 12 13  1  0
 13 14  1  0
 13 15  1  0
 12 16  1  0
 12 17  1  0
 11 18  1  0
 11 19  1  0
 10 20  1  0
  9 21  1  0
 21 22  2  0
 22 23  1  0
 23 24  1  0
 24 25  1  0
 25 26  1  0
 26 27  2  0
 27 28  1  0
 28 29  2  0
 29 30  1  0
 30 31  2  0
 31 32  1  0
 29 33  1  0
 28 34  1  0
 27 35  1  0
 25 36  1  0
 25 37  1  0
 24 38  1  0
 24 39  1  0
 23 40  1  0
 23 41  1  0
  6 42  2  0
 42 43  1  0
  5 44  1  0
  3 45  1  0
  1 46  1  0
  1 47  1  0
  1 48  1  0
 42  2  1  0
 22  7  1  0
 31 26  1  0
 13 10  1  0
M  END
>  <cnnaffinity>  (1) 
-5.92013

>  <filename>  (1) 
Cc1cncc(-n2nc(C3CCC3)nc2CCCc2cccnc2)c1

$$$$
