
     RDKit          3D

 46 49  0  0  0  0  0  0  0  0999 V2000
   11.1748   -1.3747   21.5856 C   0  0  0  0  0  0  0  0  0  0  0  0
   11.7338    0.0110   21.6789 C   0  0  0  0  0  0  0  0  0  0  0  0
   11.1531    1.2485   21.4697 C   0  0  0  0  0  0  0  0  0  0  0  0
    9.7246    1.4921   21.0261 C   0  0  0  0  0  0  0  0  0  0  0  0
    8.7186    1.1876   22.0922 C   0  0  0  0  0  0  0  0  0  0  0  0
    8.6430    1.8853   23.2036 N   0  0  0  0  0  0  0  0  0  0  0  0
    7.6224    1.3019   23.8823 C   0  0  0  0  0  0  0  0  0  0  0  0
    7.1955    1.8050   25.2005 C   0  0  0  0  0  0  0  0  0  0  0  0
    7.9233    2.8450   25.8141 C   0  0  0  0  0  0  0  0  0  0  0  0
    7.5412    3.3390   27.0590 C   0  0  0  0  0  0  0  0  0  0  0  0
    6.4243    2.7890   27.6956 C   0  0  0  0  0  0  0  0  0  0  0  0
    5.9551    3.3891   29.2572 Cl  0  0  0  0  0  0  0  0  0  0  0  0
    5.6837    1.7630   27.1014 C   0  0  0  0  0  0  0  0  0  0  0  0
    6.0672    1.2732   25.8536 C   0  0  0  0  0  0  0  0  0  0  0  0
    5.5005    0.4747   25.3775 H   0  0  0  0  0  0  0  0  0  0  0  0
    4.8243    1.3492   27.6171 H   0  0  0  0  0  0  0  0  0  0  0  0
    8.1001    4.1366   27.5355 H   0  0  0  0  0  0  0  0  0  0  0  0
    8.7902    3.2591   25.3003 H   0  0  0  0  0  0  0  0  0  0  0  0
    7.0619    0.2904   23.2377 N   0  0  0  0  0  0  0  0  0  0  0  0
    7.7685    0.2241   22.0859 N   0  0  0  0  0  0  0  0  0  0  0  0
    7.3621   -0.6953   21.0271 C   0  0  0  0  0  0  0  0  0  0  0  0
    6.6486   -0.0075   19.8791 C   0  0  0  0  0  0  0  0  0  0  0  0
    5.4409    0.6572   20.1247 C   0  0  0  0  0  0  0  0  0  0  0  0
    4.8135    1.3136   19.0652 C   0  0  0  0  0  0  0  0  0  0  0  0
    5.4154    1.2954   17.8034 C   0  0  0  0  0  0  0  0  0  0  0  0
    6.5626    0.6514   17.5462 N   0  0  0  0  0  0  0  0  0  0  0  0
    7.1524    0.0197   18.5698 C   0  0  0  0  0  0  0  0  0  0  0  0
    8.0818   -0.4985   18.3254 H   0  0  0  0  0  0  0  0  0  0  0  0
    4.9556    1.8179   16.9646 H   0  0  0  0  0  0  0  0  0  0  0  0
    3.8822    1.8478   19.2069 H   0  0  0  0  0  0  0  0  0  0  0  0
    5.0151    0.6674   21.1316 H   0  0  0  0  0  0  0  0  0  0  0  0
    8.2379   -1.2540   20.6760 H   0  0  0  0  0  0  0  0  0  0  0  0
    6.6938   -1.4135   21.5114 H   0  0  0  0  0  0  0  0  0  0  0  0
    9.5714    2.5515   20.7901 H   0  0  0  0  0  0  0  0  0  0  0  0
    9.4774    0.9147   20.1259 H   0  0  0  0  0  0  0  0  0  0  0  0
   12.1249    2.1697   21.9310 C   0  0  0  0  0  0  0  0  0  0  0  0
   13.2202    1.5604   22.3565 N   0  0  0  0  0  0  0  0  0  0  0  0
   12.9768    0.2545   22.1832 N   0  0  0  0  0  0  0  0  0  0  0  0
   14.0619   -0.6869   22.3659 C   0  0  0  0  0  0  0  0  0  0  0  0
   14.6947   -0.3073   23.1626 H   0  0  0  0  0  0  0  0  0  0  0  0
   14.6388   -0.8071   21.4469 H   0  0  0  0  0  0  0  0  0  0  0  0
   13.6625   -1.6600   22.6381 H   0  0  0  0  0  0  0  0  0  0  0  0
   12.0501    3.2546   21.9625 H   0  0  0  0  0  0  0  0  0  0  0  0
   10.6593   -1.6596   22.5119 H   0  0  0  0  0  0  0  0  0  0  0  0
   11.9622   -2.1064   21.3754 H   0  0  0  0  0  0  0  0  0  0  0  0
   10.4248   -1.4408   20.7964 H   0  0  0  0  0  0  0  0  0  0  0  0
  1  2  1  0
  2  3  2  0
  3  4  1  0
  4  5  1  0
  5  6  2  0
  6  7  1  0
  7  8  1  0
  8  9  2  0
  9 10  1  0
 10 11  2  0
 11 12  1  0
 11 13  1  0
 13 14  2  0
 14 15  1  0
 13 16  1  0
 10 17  1  0
  9 18  1  0
  7 19  2  0
 19 20  1  0
 20 21  1  0
 21 22  1  0
 22 23  2  0
 23 24  1  0
 24 25  2  0
 25 26  1  0
 26 27  2  0
 27 28  1  0
 25 29  1  0
 24 30  1  0
 23 31  1  0
 21 32  1  0
 21 33  1  0
  4 34  1  0
  4 35  1  0
  3 36  1  0
 36 37  2  0
 37 38  1  0
 38 39  1  0
 39 40  1  0
 39 41  1  0
 39 42  1  0
 36 43  1  0
  1 44  1  0
  1 45  1  0
  1 46  1  0
 38  2  1  0
 20  5  1  0
 27 22  1  0
 14  8  1  0
M  END
>  <cnnaffinity>  (1) 
-6.388

>  <filename>  (1) 
Cc1c(Cc2nc(-c3ccc(Cl)cc3)nn2Cc2cccnc2)cnn1C

$$$$
