
     RDKit          3D

 43 46  0  0  0  0  0  0  0  0999 V2000
    5.4720    0.2506   26.9661 C   0  0  0  0  0  0  0  0  0  0  0  0
    5.5090    0.9814   25.6450 C   0  0  0  0  0  0  0  0  0  0  0  0
    4.5156    1.9037   25.2698 C   0  0  0  0  0  0  0  0  0  0  0  0
    4.5217    2.5849   24.1167 N   0  0  0  0  0  0  0  0  0  0  0  0
    5.5455    2.3848   23.2753 C   0  0  0  0  0  0  0  0  0  0  0  0
    6.5929    1.4907   23.5354 C   0  0  0  0  0  0  0  0  0  0  0  0
    7.7360    1.2570   22.5566 C   0  0  0  0  0  0  0  0  0  0  0  0
    7.8566   -0.1608   22.1010 C   0  0  0  0  0  0  0  0  0  0  0  0
    8.4679   -1.1237   22.7609 N   0  0  0  0  0  0  0  0  0  0  0  0
    8.2995   -2.1985   21.9573 C   0  0  0  0  0  0  0  0  0  0  0  0
    8.9047   -3.5181   22.2916 C   0  0  0  0  0  0  0  0  0  0  0  0
    8.1525   -4.7419   21.6947 C   0  0  0  0  0  0  0  0  0  0  0  0
    8.4889   -5.8849   22.6610 C   0  0  0  0  0  0  0  0  0  0  0  0
    8.9729   -5.2847   23.8525 O   0  0  0  0  0  0  0  0  0  0  0  0
    8.9485   -3.8681   23.7895 C   0  0  0  0  0  0  0  0  0  0  0  0
    8.0941   -3.4482   24.3479 H   0  0  0  0  0  0  0  0  0  0  0  0
    9.8598   -3.5059   24.2796 H   0  0  0  0  0  0  0  0  0  0  0  0
    7.6240   -6.5171   22.9009 H   0  0  0  0  0  0  0  0  0  0  0  0
    9.2466   -6.5670   22.2544 H   0  0  0  0  0  0  0  0  0  0  0  0
    7.0749   -4.5366   21.7183 H   0  0  0  0  0  0  0  0  0  0  0  0
    8.3971   -4.9685   20.6510 H   0  0  0  0  0  0  0  0  0  0  0  0
    9.9453   -3.3696   21.9709 H   0  0  0  0  0  0  0  0  0  0  0  0
    7.6765   -1.9565   20.8201 N   0  0  0  0  0  0  0  0  0  0  0  0
    7.3666   -0.6421   20.9270 N   0  0  0  0  0  0  0  0  0  0  0  0
    6.6494    0.0112   19.8979 C   0  0  0  0  0  0  0  0  0  0  0  0
    5.4358    0.6526   20.1574 C   0  0  0  0  0  0  0  0  0  0  0  0
    4.8041    1.3122   19.1025 C   0  0  0  0  0  0  0  0  0  0  0  0
    5.4032    1.2915   17.8385 C   0  0  0  0  0  0  0  0  0  0  0  0
    6.5627    0.6583   17.5838 N   0  0  0  0  0  0  0  0  0  0  0  0
    7.1669    0.0275   18.5919 C   0  0  0  0  0  0  0  0  0  0  0  0
    8.1140   -0.4594   18.3747 H   0  0  0  0  0  0  0  0  0  0  0  0
    4.9385    1.7926   16.9941 H   0  0  0  0  0  0  0  0  0  0  0  0
    3.8725    1.8456   19.2499 H   0  0  0  0  0  0  0  0  0  0  0  0
    5.0129    0.6241   21.1606 H   0  0  0  0  0  0  0  0  0  0  0  0
    7.6328    1.9009   21.6803 H   0  0  0  0  0  0  0  0  0  0  0  0
    8.6937    1.4981   23.0335 H   0  0  0  0  0  0  0  0  0  0  0  0
    6.5566    0.7813   24.7412 C   0  0  0  0  0  0  0  0  0  0  0  0
    7.3413    0.0490   24.9505 H   0  0  0  0  0  0  0  0  0  0  0  0
    5.5180    2.9462   22.3375 H   0  0  0  0  0  0  0  0  0  0  0  0
    3.6751    2.1075   25.9358 H   0  0  0  0  0  0  0  0  0  0  0  0
    5.9351   -0.7392   26.8831 H   0  0  0  0  0  0  0  0  0  0  0  0
    4.4465    0.1129   27.3254 H   0  0  0  0  0  0  0  0  0  0  0  0
    6.0231    0.8033   27.7365 H   0  0  0  0  0  0  0  0  0  0  0  0
  1  2  1  0
  2  3  2  0
  3  4  1  0
  4  5  2  0
  5  6  1  0
  6  7  1  0
  7  8  1  0
  8  9  2  0
  9 10  1  0
 10 11  1  0
 11 12  1  0
 12 13  1  0
 13 14  1  0
 14 15  1  0
 15 16  1  0
 15 17  1  0
 13 18  1  0
 13 19  1  0
 12 20  1  0
 12 21  1  0
 11 22  1  0
 10 23  2  0
 23 24  1  0
 24 25  1  0
 25 26  2  0
 26 27  1  0
 27 28  2  0
 28 29  1  0
 29 30  2  0
 30 31  1  0
 28 32  1  0
 27 33  1  0
 26 34  1  0
  7 35  1  0
  7 36  1  0
  6 37  2  0
 37 38  1  0
  5 39  1  0
  3 40  1  0
  1 41  1  0
  1 42  1  0
  1 43  1  0
 37  2  1  0
 24  8  1  0
 30 25  1  0
 15 11  1  0
M  END
>  <cnnaffinity>  (1) 
-5.77303

>  <filename>  (1) 
Cc1cncc(Cc2nc(C3CCOC3)nn2-c2cccnc2)c1

$$$$
