
     RDKit          3D

 46 49  0  0  0  0  0  0  0  0999 V2000
   14.7113    0.9035   22.5893 C   0  0  0  0  0  0  0  0  0  0  0  0
   13.7243   -0.0979   22.0600 C   0  0  0  0  0  0  0  0  0  0  0  0
   14.0512   -1.2151   21.2628 C   0  0  0  0  0  0  0  0  0  0  0  0
   13.0593   -2.0417   20.7423 C   0  0  0  0  0  0  0  0  0  0  0  0
   11.7331   -1.8158   21.0838 C   0  0  0  0  0  0  0  0  0  0  0  0
   11.3794   -0.6823   21.8107 C   0  0  0  0  0  0  0  0  0  0  0  0
    9.9677   -0.3006   21.8619 C   0  0  0  0  0  0  0  0  0  0  0  0
    8.9685   -1.0983   21.5194 N   0  0  0  0  0  0  0  0  0  0  0  0
    7.8788   -0.3067   21.6486 N   0  0  0  0  0  0  0  0  0  0  0  0
    6.5882   -0.7622   21.1384 C   0  0  0  0  0  0  0  0  0  0  0  0
    6.1131    0.0541   19.9565 C   0  0  0  0  0  0  0  0  0  0  0  0
    4.9894    0.8827   20.0362 C   0  0  0  0  0  0  0  0  0  0  0  0
    4.5981    1.5936   18.8975 C   0  0  0  0  0  0  0  0  0  0  0  0
    5.3621    1.4697   17.7328 C   0  0  0  0  0  0  0  0  0  0  0  0
    6.4653    0.7093   17.6488 N   0  0  0  0  0  0  0  0  0  0  0  0
    6.8294    0.0336   18.7457 C   0  0  0  0  0  0  0  0  0  0  0  0
    7.7420   -0.5589   18.6576 H   0  0  0  0  0  0  0  0  0  0  0  0
    5.0776    2.0041   16.8270 H   0  0  0  0  0  0  0  0  0  0  0  0
    3.7310    2.2448   18.9049 H   0  0  0  0  0  0  0  0  0  0  0  0
    4.4511    0.9739   20.9863 H   0  0  0  0  0  0  0  0  0  0  0  0
    6.7437   -1.8127   20.8655 H   0  0  0  0  0  0  0  0  0  0  0  0
    5.8621   -0.7151   21.9540 H   0  0  0  0  0  0  0  0  0  0  0  0
    8.2765    0.9231   22.0458 C   0  0  0  0  0  0  0  0  0  0  0  0
    7.4199    1.9664   22.6770 C   0  0  0  0  0  0  0  0  0  0  0  0
    6.9518    1.4495   23.9619 N   0  0  0  0  0  0  0  0  0  0  0  0
    5.7298    0.8877   23.9525 N   0  0  0  0  0  0  0  0  0  0  0  0
    5.6527    0.1889   25.0757 C   0  0  0  0  0  0  0  0  0  0  0  0
    6.8673    0.2363   25.7892 C   0  0  0  0  0  0  0  0  0  0  0  0
    7.6964    1.0451   25.0411 C   0  0  0  0  0  0  0  0  0  0  0  0
    9.1449    1.3729   25.2861 C   0  0  0  0  0  0  0  0  0  0  0  0
    9.3436    1.4054   26.3597 H   0  0  0  0  0  0  0  0  0  0  0  0
    9.4447    2.3236   24.8360 H   0  0  0  0  0  0  0  0  0  0  0  0
    9.7867    0.5939   24.8569 H   0  0  0  0  0  0  0  0  0  0  0  0
    7.1246   -0.2650   26.7128 H   0  0  0  0  0  0  0  0  0  0  0  0
    4.7407   -0.3456   25.3113 H   0  0  0  0  0  0  0  0  0  0  0  0
    8.0318    2.8602   22.8333 H   0  0  0  0  0  0  0  0  0  0  0  0
    6.5435    2.2108   22.0782 H   0  0  0  0  0  0  0  0  0  0  0  0
    9.5857    0.9654   22.1598 N   0  0  0  0  0  0  0  0  0  0  0  0
   12.3762    0.1509   22.3221 C   0  0  0  0  0  0  0  0  0  0  0  0
   12.0999    1.0345   22.8953 H   0  0  0  0  0  0  0  0  0  0  0  0
   10.9031   -2.4329   20.7602 H   0  0  0  0  0  0  0  0  0  0  0  0
   13.3424   -2.8300   20.0456 H   0  0  0  0  0  0  0  0  0  0  0  0
   15.0589   -1.4685   20.9766 H   0  0  0  0  0  0  0  0  0  0  0  0
   14.9401    0.6596   23.6263 H   0  0  0  0  0  0  0  0  0  0  0  0
   15.6307    0.9509   21.9989 H   0  0  0  0  0  0  0  0  0  0  0  0
   14.2766    1.9119   22.6027 H   0  0  0  0  0  0  0  0  0  0  0  0
  1  2  1  0
  2  3  2  0
  3  4  1  0
  4  5  2  0
  5  6  1  0
  6  7  1  0
  7  8  2  0
  8  9  1  0
  9 10  1  0
 10 11  1  0
 11 12  2  0
 12 13  1  0
 13 14  2  0
 14 15  1  0
 15 16  2  0
 16 17  1  0
 14 18  1  0
 13 19  1  0
 12 20  1  0
 10 21  1  0
 10 22  1  0
  9 23  1  0
 23 24  1  0
 24 25  1  0
 25 26  1  0
 26 27  2  0
 27 28  1  0
 28 29  2  0
 29 30  1  0
 30 31  1  0
 30 32  1  0
 30 33  1  0
 28 34  1  0
 27 35  1  0
 24 36  1  0
 24 37  1  0
 23 38  2  0
  6 39  2  0
 39 40  1  0
  5 41  1  0
  4 42  1  0
  3 43  1  0
  1 44  1  0
  1 45  1  0
  1 46  1  0
 39  2  1  0
 38  7  1  0
 16 11  1  0
 29 25  1  0
M  END
>  <cnnaffinity>  (1) 
-6.37242

>  <filename>  (1) 
Cc1cccc(-c2nc(Cn3nccc3C)n(Cc3cccnc3)n2)c1

$$$$
