
     RDKit          3D

 48 51  0  0  0  0  0  0  0  0999 V2000
    5.1452   -2.8737   25.0894 C   0  0  0  0  0  0  0  0  0  0  0  0
    6.1959   -1.8059   25.1125 C   0  0  0  0  0  0  0  0  0  0  0  0
    7.5531   -1.9346   25.2175 C   0  0  0  0  0  0  0  0  0  0  0  0
    8.0486   -0.6460   25.1622 N   0  0  0  0  0  0  0  0  0  0  0  0
    6.9897    0.1911   24.9857 C   0  0  0  0  0  0  0  0  0  0  0  0
    7.2153    1.6545   24.6970 C   0  0  0  0  0  0  0  0  0  0  0  0
    7.4638    1.9797   23.1864 C   0  0  0  0  0  0  0  0  0  0  0  0
    8.4496    1.0500   22.5523 C   0  0  0  0  0  0  0  0  0  0  0  0
    9.7506    1.0317   22.8003 N   0  0  0  0  0  0  0  0  0  0  0  0
   10.1659   -0.1117   22.2017 C   0  0  0  0  0  0  0  0  0  0  0  0
   11.5576   -0.5623   22.0323 C   0  0  0  0  0  0  0  0  0  0  0  0
   12.7113    0.1538   22.4147 C   0  0  0  0  0  0  0  0  0  0  0  0
   13.9646   -0.1869   21.8893 C   0  0  0  0  0  0  0  0  0  0  0  0
   14.0542   -1.1977   20.9047 C   0  0  0  0  0  0  0  0  0  0  0  0
   15.0594   -1.3467   19.9657 N   0  0  0  0  0  0  0  0  0  0  0  0
   15.0169   -2.2433   19.5095 H   0  0  0  0  0  0  0  0  0  0  0  0
   16.0041   -1.1030   20.2112 H   0  0  0  0  0  0  0  0  0  0  0  0
   12.9320   -1.9942   20.6624 C   0  0  0  0  0  0  0  0  0  0  0  0
   11.7194   -1.7167   21.2499 C   0  0  0  0  0  0  0  0  0  0  0  0
   10.8451   -2.3278   21.0333 H   0  0  0  0  0  0  0  0  0  0  0  0
   13.0145   -2.7512   19.8922 H   0  0  0  0  0  0  0  0  0  0  0  0
   14.8232    0.4228   22.1558 H   0  0  0  0  0  0  0  0  0  0  0  0
   12.6263    0.9937   23.1031 H   0  0  0  0  0  0  0  0  0  0  0  0
    9.1787   -0.7955   21.6230 N   0  0  0  0  0  0  0  0  0  0  0  0
    8.0854   -0.0565   21.8682 N   0  0  0  0  0  0  0  0  0  0  0  0
    6.7797   -0.4826   21.3738 C   0  0  0  0  0  0  0  0  0  0  0  0
    6.3396    0.2126   20.0993 C   0  0  0  0  0  0  0  0  0  0  0  0
    5.1125    0.8766   19.9751 C   0  0  0  0  0  0  0  0  0  0  0  0
    4.7927    1.4813   18.7555 C   0  0  0  0  0  0  0  0  0  0  0  0
    5.7031    1.3964   17.7006 C   0  0  0  0  0  0  0  0  0  0  0  0
    6.8714    0.7391   17.7887 N   0  0  0  0  0  0  0  0  0  0  0  0
    7.1674    0.1639   18.9606 C   0  0  0  0  0  0  0  0  0  0  0  0
    8.1147   -0.3787   18.9995 H   0  0  0  0  0  0  0  0  0  0  0  0
    5.4827    1.8628   16.7394 H   0  0  0  0  0  0  0  0  0  0  0  0
    3.8622    2.0220   18.6142 H   0  0  0  0  0  0  0  0  0  0  0  0
    4.4061    0.9114   20.8090 H   0  0  0  0  0  0  0  0  0  0  0  0
    6.8794   -1.5584   21.1996 H   0  0  0  0  0  0  0  0  0  0  0  0
    6.0554   -0.3557   22.1855 H   0  0  0  0  0  0  0  0  0  0  0  0
    6.5165    1.9413   22.6347 H   0  0  0  0  0  0  0  0  0  0  0  0
    7.8620    2.9927   23.0799 H   0  0  0  0  0  0  0  0  0  0  0  0
    8.0950    1.9601   25.2760 H   0  0  0  0  0  0  0  0  0  0  0  0
    6.3510    2.2173   25.0580 H   0  0  0  0  0  0  0  0  0  0  0  0
    5.8612   -0.4713   24.9666 N   0  0  0  0  0  0  0  0  0  0  0  0
    9.0025   -0.3411   25.0283 H   0  0  0  0  0  0  0  0  0  0  0  0
    8.1763   -2.8175   25.3067 H   0  0  0  0  0  0  0  0  0  0  0  0
    5.5045   -3.7968   25.5528 H   0  0  0  0  0  0  0  0  0  0  0  0
    4.2500   -2.5363   25.6177 H   0  0  0  0  0  0  0  0  0  0  0  0
    4.8581   -3.1037   24.0561 H   0  0  0  0  0  0  0  0  0  0  0  0
  1  2  1  0
  2  3  2  0
  3  4  1  0
  4  5  1  0
  5  6  1  0
  6  7  1  0
  7  8  1  0
  8  9  2  0
  9 10  1  0
 10 11  1  0
 11 12  2  0
 12 13  1  0
 13 14  2  0
 14 15  1  0
 15 16  1  0
 15 17  1  0
 14 18  1  0
 18 19  2  0
 19 20  1  0
 18 21  1  0
 13 22  1  0
 12 23  1  0
 10 24  2  0
 24 25  1  0
 25 26  1  0
 26 27  1  0
 27 28  2  0
 28 29  1  0
 29 30  2  0
 30 31  1  0
 31 32  2  0
 32 33  1  0
 30 34  1  0
 29 35  1  0
 28 36  1  0
 26 37  1  0
 26 38  1  0
  7 39  1  0
  7 40  1  0
  6 41  1  0
  6 42  1  0
  5 43  2  0
  4 44  1  0
  3 45  1  0
  1 46  1  0
  1 47  1  0
  1 48  1  0
 43  2  1  0
 25  8  1  0
 32 27  1  0
 19 11  1  0
M  END
>  <cnnaffinity>  (1) 
-6.78526

>  <filename>  (1) 
Cc1c[nH]c(CCc2nc(-c3ccc(N)cc3)nn2Cc2cccnc2)n1

$$$$
