
     RDKit          3D

 53 56  0  0  0  0  0  0  0  0999 V2000
    5.2780   -5.5690   26.5177 C   0  0  0  0  0  0  0  0  0  0  0  0
    5.5614   -4.5757   25.3858 C   0  0  0  0  0  0  0  0  0  0  0  0
    6.3258   -5.2470   24.2288 C   0  0  0  0  0  0  0  0  0  0  0  0
    6.6275   -4.2675   23.0881 C   0  0  0  0  0  0  0  0  0  0  0  0
    7.3902   -3.0208   23.5954 C   0  0  0  0  0  0  0  0  0  0  0  0
    7.6508   -2.0423   22.4881 C   0  0  0  0  0  0  0  0  0  0  0  0
    6.7094   -1.6219   21.6601 N   0  0  0  0  0  0  0  0  0  0  0  0
    7.3533   -0.6796   20.9248 N   0  0  0  0  0  0  0  0  0  0  0  0
    6.6548    0.0024   19.8937 C   0  0  0  0  0  0  0  0  0  0  0  0
    5.4381    0.6375   20.1567 C   0  0  0  0  0  0  0  0  0  0  0  0
    4.8060    1.3094   19.1064 C   0  0  0  0  0  0  0  0  0  0  0  0
    5.3940    1.2964   17.8342 C   0  0  0  0  0  0  0  0  0  0  0  0
    6.5484    0.6662   17.5702 N   0  0  0  0  0  0  0  0  0  0  0  0
    7.1601    0.0427   18.5825 C   0  0  0  0  0  0  0  0  0  0  0  0
    8.1039   -0.4464   18.3496 H   0  0  0  0  0  0  0  0  0  0  0  0
    4.9264    1.8011   16.9926 H   0  0  0  0  0  0  0  0  0  0  0  0
    3.8746    1.8430   19.2573 H   0  0  0  0  0  0  0  0  0  0  0  0
    5.0185    0.6072   21.1652 H   0  0  0  0  0  0  0  0  0  0  0  0
    8.6313   -0.5454   21.3902 C   0  0  0  0  0  0  0  0  0  0  0  0
    9.5968    0.5100   20.9795 C   0  0  0  0  0  0  0  0  0  0  0  0
    9.6523    1.7275   21.9334 C   0  0  0  0  0  0  0  0  0  0  0  0
    8.3191    2.5026   22.0076 C   0  0  0  0  0  0  0  0  0  0  0  0
    7.6778    2.0835   23.3434 C   0  0  0  0  0  0  0  0  0  0  0  0
    8.8023    1.4362   24.1326 C   0  0  0  0  0  0  0  0  0  0  0  0
    8.7471    1.0622   25.2889 O   0  0  0  0  0  0  0  0  0  0  0  0
    9.8961    1.3568   23.3223 N   0  0  0  0  0  0  0  0  0  0  0  0
   11.1093    0.6919   23.7654 C   0  0  0  0  0  0  0  0  0  0  0  0
   11.5600    1.2485   24.5970 H   0  0  0  0  0  0  0  0  0  0  0  0
   11.8158    0.6647   22.9302 H   0  0  0  0  0  0  0  0  0  0  0  0
   10.8998   -0.3366   24.0933 H   0  0  0  0  0  0  0  0  0  0  0  0
    6.8760    1.3442   23.2385 H   0  0  0  0  0  0  0  0  0  0  0  0
    7.2841    2.9169   23.9298 H   0  0  0  0  0  0  0  0  0  0  0  0
    8.5271    3.5764   21.9753 H   0  0  0  0  0  0  0  0  0  0  0  0
    7.6820    2.2882   21.1414 H   0  0  0  0  0  0  0  0  0  0  0  0
   10.4706    2.3734   21.5794 H   0  0  0  0  0  0  0  0  0  0  0  0
    9.3441    0.8612   19.9807 H   0  0  0  0  0  0  0  0  0  0  0  0
   10.5807    0.0399   20.9258 H   0  0  0  0  0  0  0  0  0  0  0  0
    8.8537   -1.4341   22.3367 N   0  0  0  0  0  0  0  0  0  0  0  0
    6.6399   -2.3383   24.7751 C   0  0  0  0  0  0  0  0  0  0  0  0
    6.3294   -3.3398   25.8973 C   0  0  0  0  0  0  0  0  0  0  0  0
    5.7480   -2.8468   26.6893 H   0  0  0  0  0  0  0  0  0  0  0  0
    7.2694   -3.6739   26.3689 H   0  0  0  0  0  0  0  0  0  0  0  0
    7.2289   -1.4944   25.1603 H   0  0  0  0  0  0  0  0  0  0  0  0
    5.6995   -1.9114   24.3931 H   0  0  0  0  0  0  0  0  0  0  0  0
    8.3856   -3.3193   23.9524 H   0  0  0  0  0  0  0  0  0  0  0  0
    7.2089   -4.7659   22.3018 H   0  0  0  0  0  0  0  0  0  0  0  0
    5.6901   -3.9310   22.6173 H   0  0  0  0  0  0  0  0  0  0  0  0
    7.2696   -5.6653   24.6187 H   0  0  0  0  0  0  0  0  0  0  0  0
    5.7471   -6.0991   23.8460 H   0  0  0  0  0  0  0  0  0  0  0  0
    4.5986   -4.2180   24.9783 H   0  0  0  0  0  0  0  0  0  0  0  0
    4.7086   -5.1012   27.3293 H   0  0  0  0  0  0  0  0  0  0  0  0
    6.2172   -5.9454   26.9453 H   0  0  0  0  0  0  0  0  0  0  0  0
    4.7082   -6.4346   26.1597 H   0  0  0  0  0  0  0  0  0  0  0  0
  1  2  1  0
  2  3  1  0
  3  4  1  0
  4  5  1  0
  5  6  1  0
  6  7  2  0
  7  8  1  0
  8  9  1  0
  9 10  2  0
 10 11  1  0
 11 12  2  0
 12 13  1  0
 13 14  2  0
 14 15  1  0
 12 16  1  0
 11 17  1  0
 10 18  1  0
  8 19  1  0
 19 20  1  0
 20 21  1  0
 21 22  1  0
 22 23  1  0
 23 24  1  0
 24 25  2  0
 24 26  1  0
 26 27  1  0
 27 28  1  0
 27 29  1  0
 27 30  1  0
 23 31  1  0
 23 32  1  0
 22 33  1  0
 22 34  1  0
 21 35  1  0
 20 36  1  0
 20 37  1  0
 19 38  2  0
  5 39  1  0
 39 40  1  0
 40 41  1  0
 40 42  1  0
 39 43  1  0
 39 44  1  0
  5 45  1  0
  4 46  1  0
  4 47  1  0
  3 48  1  0
  3 49  1  0
  2 50  1  0
  1 51  1  0
  1 52  1  0
  1 53  1  0
 40  2  1  0
 38  6  1  0
 14  9  1  0
 26 21  1  0
M  END
>  <cnnaffinity>  (1) 
-5.94331

>  <filename>  (1) 
CC1CCC(c2nc(CC3CCC(=O)N3C)n(-c3cccnc3)n2)CC1

$$$$
