
     RDKit          3D

 44 47  0  0  0  0  0  0  0  0999 V2000
   14.0697    0.6573   23.4373 C   0  0  0  0  0  0  0  0  0  0  0  0
   12.9743   -0.0627   22.6861 C   0  0  0  0  0  0  0  0  0  0  0  0
   11.6159    0.2665   22.7989 C   0  0  0  0  0  0  0  0  0  0  0  0
   10.6176   -0.4277   22.0718 C   0  0  0  0  0  0  0  0  0  0  0  0
    9.1848   -0.0652   22.1401 C   0  0  0  0  0  0  0  0  0  0  0  0
    8.2123   -0.7732   21.5737 N   0  0  0  0  0  0  0  0  0  0  0  0
    7.0884   -0.0648   21.8591 N   0  0  0  0  0  0  0  0  0  0  0  0
    5.8297   -0.3160   21.1446 C   0  0  0  0  0  0  0  0  0  0  0  0
    5.6802    0.3475   19.7796 C   0  0  0  0  0  0  0  0  0  0  0  0
    4.5688    1.1444   19.4763 C   0  0  0  0  0  0  0  0  0  0  0  0
    4.5020    1.7654   18.2286 C   0  0  0  0  0  0  0  0  0  0  0  0
    5.5286    1.5358   17.3117 C   0  0  0  0  0  0  0  0  0  0  0  0
    6.5775    0.7366   17.5564 N   0  0  0  0  0  0  0  0  0  0  0  0
    6.6408    0.1689   18.7680 C   0  0  0  0  0  0  0  0  0  0  0  0
    7.5010   -0.4732   18.9530 H   0  0  0  0  0  0  0  0  0  0  0  0
    5.5104    2.0119   16.3350 H   0  0  0  0  0  0  0  0  0  0  0  0
    3.6837    2.4269   17.9644 H   0  0  0  0  0  0  0  0  0  0  0  0
    3.7712    1.2939   20.2060 H   0  0  0  0  0  0  0  0  0  0  0  0
    5.6999   -1.3986   21.0680 H   0  0  0  0  0  0  0  0  0  0  0  0
    5.0287    0.0448   21.7871 H   0  0  0  0  0  0  0  0  0  0  0  0
    7.4346    0.9984   22.6208 C   0  0  0  0  0  0  0  0  0  0  0  0
    6.4923    1.9081   23.3419 C   0  0  0  0  0  0  0  0  0  0  0  0
    6.2902    1.4394   24.7660 C   0  0  0  0  0  0  0  0  0  0  0  0
    7.2773    1.4643   25.7157 C   0  0  0  0  0  0  0  0  0  0  0  0
    6.7893    0.8960   26.8593 N   0  0  0  0  0  0  0  0  0  0  0  0
    5.5017    0.4784   26.6457 C   0  0  0  0  0  0  0  0  0  0  0  0
    5.1656    0.7948   25.3500 C   0  0  0  0  0  0  0  0  0  0  0  0
    4.2322    0.5580   24.8537 H   0  0  0  0  0  0  0  0  0  0  0  0
    4.9323   -0.0084   27.4251 H   0  0  0  0  0  0  0  0  0  0  0  0
    7.3251    0.7745   27.7040 H   0  0  0  0  0  0  0  0  0  0  0  0
    8.3093    1.7675   25.6037 H   0  0  0  0  0  0  0  0  0  0  0  0
    5.5393    2.0167   22.8149 H   0  0  0  0  0  0  0  0  0  0  0  0
    6.9664    2.8944   23.3230 H   0  0  0  0  0  0  0  0  0  0  0  0
    8.7426    1.0432   22.7812 N   0  0  0  0  0  0  0  0  0  0  0  0
   11.0075   -1.4668   21.2150 C   0  0  0  0  0  0  0  0  0  0  0  0
   12.3547   -1.7852   21.0655 C   0  0  0  0  0  0  0  0  0  0  0  0
   13.2994   -1.1328   21.8410 C   0  0  0  0  0  0  0  0  0  0  0  0
   14.5761   -1.5461   21.7608 F   0  0  0  0  0  0  0  0  0  0  0  0
   12.7072   -2.5072   20.3442 H   0  0  0  0  0  0  0  0  0  0  0  0
   10.2340   -2.0086   20.6734 H   0  0  0  0  0  0  0  0  0  0  0  0
   11.3317    1.0593   23.4923 H   0  0  0  0  0  0  0  0  0  0  0  0
   14.5919   -0.0494   24.0872 H   0  0  0  0  0  0  0  0  0  0  0  0
   14.8340    1.0595   22.7629 H   0  0  0  0  0  0  0  0  0  0  0  0
   13.6786    1.4825   24.0421 H   0  0  0  0  0  0  0  0  0  0  0  0
  1  2  1  0
  2  3  2  0
  3  4  1  0
  4  5  1  0
  5  6  2  0
  6  7  1  0
  7  8  1  0
  8  9  1  0
  9 10  2  0
 10 11  1  0
 11 12  2  0
 12 13  1  0
 13 14  2  0
 14 15  1  0
 12 16  1  0
 11 17  1  0
 10 18  1  0
  8 19  1  0
  8 20  1  0
  7 21  1  0
 21 22  1  0
 22 23  1  0
 23 24  2  0
 24 25  1  0
 25 26  1  0
 26 27  2  0
 27 28  1  0
 26 29  1  0
 25 30  1  0
 24 31  1  0
 22 32  1  0
 22 33  1  0
 21 34  2  0
  4 35  2  0
 35 36  1  0
 36 37  2  0
 37 38  1  0
 36 39  1  0
 35 40  1  0
  3 41  1  0
  1 42  1  0
  1 43  1  0
  1 44  1  0
 37  2  1  0
 34  5  1  0
 14  9  1  0
 27 23  1  0
M  END
>  <cnnaffinity>  (1) 
-6.27055

>  <filename>  (1) 
Cc1cc(-c2nc(Cc3cc[nH]c3)n(Cc3cccnc3)n2)ccc1F

$$$$
