
     RDKit          3D

 35 38  0  0  0  0  0  0  0  0999 V2000
    6.9240    3.5053   23.3071 C   0  0  0  0  0  0  0  0  0  0  0  0
    6.2018    3.0854   24.5663 C   0  0  0  0  0  0  0  0  0  0  0  0
    5.4445    4.0244   25.2946 C   0  0  0  0  0  0  0  0  0  0  0  0
    5.2135    5.8232   24.6816 Br  0  0  0  0  0  0  0  0  0  0  0  0
    4.8161    3.6476   26.4836 C   0  0  0  0  0  0  0  0  0  0  0  0
    4.9295    2.3431   26.9617 C   0  0  0  0  0  0  0  0  0  0  0  0
    5.6546    1.3987   26.2347 C   0  0  0  0  0  0  0  0  0  0  0  0
    6.2785    1.7490   25.0224 C   0  0  0  0  0  0  0  0  0  0  0  0
    6.9621    0.7063   24.2392 C   0  0  0  0  0  0  0  0  0  0  0  0
    6.7430    0.6218   22.9361 N   0  0  0  0  0  0  0  0  0  0  0  0
    7.3743   -0.4009   22.2567 N   0  0  0  0  0  0  0  0  0  0  0  0
    7.3895   -0.6959   20.9072 C   0  0  0  0  0  0  0  0  0  0  0  0
    6.6532    0.0030   19.8746 C   0  0  0  0  0  0  0  0  0  0  0  0
    5.4488    0.6524   20.1627 C   0  0  0  0  0  0  0  0  0  0  0  0
    4.8220    1.3080   19.1071 C   0  0  0  0  0  0  0  0  0  0  0  0
    5.4029    1.2949   17.8308 C   0  0  0  0  0  0  0  0  0  0  0  0
    6.5682    0.6739   17.5670 N   0  0  0  0  0  0  0  0  0  0  0  0
    7.1796    0.0427   18.5795 C   0  0  0  0  0  0  0  0  0  0  0  0
    8.1323   -0.4439   18.3923 H   0  0  0  0  0  0  0  0  0  0  0  0
    4.8893    1.7940   17.0160 H   0  0  0  0  0  0  0  0  0  0  0  0
    3.8858    1.8312   19.2622 H   0  0  0  0  0  0  0  0  0  0  0  0
    5.0091    0.6410   21.1658 H   0  0  0  0  0  0  0  0  0  0  0  0
    8.2010   -1.7032   20.6747 N   0  0  0  0  0  0  0  0  0  0  0  0
    8.7285   -2.1063   21.8745 N   0  0  0  0  0  0  0  0  0  0  0  0
    8.2429   -1.3180   22.8053 C   0  0  0  0  0  0  0  0  0  0  0  0
    8.4978   -1.2673   24.2300 C   0  0  0  0  0  0  0  0  0  0  0  0
    7.8527   -0.2631   24.9353 C   0  0  0  0  0  0  0  0  0  0  0  0
    8.0200   -0.1676   26.0030 H   0  0  0  0  0  0  0  0  0  0  0  0
    9.1834   -1.9871   24.6824 H   0  0  0  0  0  0  0  0  0  0  0  0
    5.6998    0.3798   26.6120 H   0  0  0  0  0  0  0  0  0  0  0  0
    4.4364    2.0616   27.8871 H   0  0  0  0  0  0  0  0  0  0  0  0
    4.2318    4.3789   27.0338 H   0  0  0  0  0  0  0  0  0  0  0  0
    6.2878    3.3459   22.4356 H   0  0  0  0  0  0  0  0  0  0  0  0
    7.1919    4.5652   23.3471 H   0  0  0  0  0  0  0  0  0  0  0  0
    7.8420    2.9251   23.1711 H   0  0  0  0  0  0  0  0  0  0  0  0
  1  2  1  0
  2  3  2  0
  3  4  1  0
  3  5  1  0
  5  6  2  0
  6  7  1  0
  7  8  2  0
  8  9  1  0
  9 10  2  0
 10 11  1  0
 11 12  1  0
 12 13  1  0
 13 14  2  0
 14 15  1  0
 15 16  2  0
 16 17  1  0
 17 18  2  0
 18 19  1  0
 16 20  1  0
 15 21  1  0
 14 22  1  0
 12 23  2  0
 23 24  1  0
 24 25  2  0
 25 26  1  0
 26 27  2  0
 27 28  1  0
 26 29  1  0
  7 30  1  0
  6 31  1  0
  5 32  1  0
  1 33  1  0
  1 34  1  0
  1 35  1  0
  8  2  1  0
 27  9  1  0
 25 11  1  0
 18 13  1  0
M  END
>  <cnnaffinity>  (1) 
-5.49556

>  <filename>  (1) 
Cc1c(Br)cccc1-c1ccc2nnc(-c3cccnc3)n2n1

$$$$
