
     RDKit          3D

 43 46  0  0  0  0  0  0  0  0999 V2000
    9.4041    1.2413   25.1962 C   0  0  0  0  0  0  0  0  0  0  0  0
    7.9401    1.0246   24.9627 C   0  0  0  0  0  0  0  0  0  0  0  0
    7.0559    0.2964   25.7321 C   0  0  0  0  0  0  0  0  0  0  0  0
    7.4154   -0.4458   27.2489 Cl  0  0  0  0  0  0  0  0  0  0  0  0
    5.8389    0.2790   25.0298 C   0  0  0  0  0  0  0  0  0  0  0  0
    5.9544    0.9490   23.8913 N   0  0  0  0  0  0  0  0  0  0  0  0
    7.2128    1.4217   23.8756 N   0  0  0  0  0  0  0  0  0  0  0  0
    7.7036    2.0140   22.6322 C   0  0  0  0  0  0  0  0  0  0  0  0
    8.6733    1.0848   21.9900 C   0  0  0  0  0  0  0  0  0  0  0  0
    9.9855    1.1787   22.1266 N   0  0  0  0  0  0  0  0  0  0  0  0
   10.4210   -0.0588   21.7918 C   0  0  0  0  0  0  0  0  0  0  0  0
   11.8332   -0.4950   21.7518 C   0  0  0  0  0  0  0  0  0  0  0  0
   12.9345    0.2733   22.1841 C   0  0  0  0  0  0  0  0  0  0  0  0
   14.2311   -0.0933   21.7897 C   0  0  0  0  0  0  0  0  0  0  0  0
   14.4099   -1.2104   20.9494 C   0  0  0  0  0  0  0  0  0  0  0  0
   13.3344   -2.0322   20.6384 C   0  0  0  0  0  0  0  0  0  0  0  0
   12.0683   -1.7109   21.0984 C   0  0  0  0  0  0  0  0  0  0  0  0
   11.2021   -2.3277   20.8850 H   0  0  0  0  0  0  0  0  0  0  0  0
   13.4894   -2.8995   20.0029 H   0  0  0  0  0  0  0  0  0  0  0  0
   15.3253   -1.4053   20.4059 H   0  0  0  0  0  0  0  0  0  0  0  0
   15.0674    0.5593   22.0492 H   0  0  0  0  0  0  0  0  0  0  0  0
   12.7840    1.1758   22.7677 H   0  0  0  0  0  0  0  0  0  0  0  0
    9.4473   -0.8777   21.4089 N   0  0  0  0  0  0  0  0  0  0  0  0
    8.3322   -0.1380   21.5284 N   0  0  0  0  0  0  0  0  0  0  0  0
    7.0596   -0.6950   21.0713 C   0  0  0  0  0  0  0  0  0  0  0  0
    6.4209    0.0649   19.9331 C   0  0  0  0  0  0  0  0  0  0  0  0
    5.2308    0.7831   20.1007 C   0  0  0  0  0  0  0  0  0  0  0  0
    4.6900    1.4514   18.9981 C   0  0  0  0  0  0  0  0  0  0  0  0
    5.3639    1.3792   17.7746 C   0  0  0  0  0  0  0  0  0  0  0  0
    6.5045    0.6945   17.5959 N   0  0  0  0  0  0  0  0  0  0  0  0
    7.0124    0.0617   18.6593 C   0  0  0  0  0  0  0  0  0  0  0  0
    7.9393   -0.4853   18.4866 H   0  0  0  0  0  0  0  0  0  0  0  0
    4.9752    1.8921   16.8971 H   0  0  0  0  0  0  0  0  0  0  0  0
    3.7758    2.0312   19.0720 H   0  0  0  0  0  0  0  0  0  0  0  0
    4.7552    0.8232   21.0870 H   0  0  0  0  0  0  0  0  0  0  0  0
    7.2950   -1.7214   20.7705 H   0  0  0  0  0  0  0  0  0  0  0  0
    6.3759   -0.7494   21.9200 H   0  0  0  0  0  0  0  0  0  0  0  0
    8.2002    2.9634   22.8419 H   0  0  0  0  0  0  0  0  0  0  0  0
    6.8390    2.1901   21.9970 H   0  0  0  0  0  0  0  0  0  0  0  0
    4.9167   -0.2203   25.2982 H   0  0  0  0  0  0  0  0  0  0  0  0
    9.7719    2.1714   24.7545 H   0  0  0  0  0  0  0  0  0  0  0  0
    9.6213    1.2292   26.2656 H   0  0  0  0  0  0  0  0  0  0  0  0
    9.9736    0.4253   24.7339 H   0  0  0  0  0  0  0  0  0  0  0  0
  1  2  1  0
  2  3  2  0
  3  4  1  0
  3  5  1  0
  5  6  2  0
  6  7  1  0
  7  8  1  0
  8  9  1  0
  9 10  2  0
 10 11  1  0
 11 12  1  0
 12 13  2  0
 13 14  1  0
 14 15  2  0
 15 16  1  0
 16 17  2  0
 17 18  1  0
 16 19  1  0
 15 20  1  0
 14 21  1  0
 13 22  1  0
 11 23  2  0
 23 24  1  0
 24 25  1  0
 25 26  1  0
 26 27  2  0
 27 28  1  0
 28 29  2  0
 29 30  1  0
 30 31  2  0
 31 32  1  0
 29 33  1  0
 28 34  1  0
 27 35  1  0
 25 36  1  0
 25 37  1  0
  8 38  1  0
  8 39  1  0
  5 40  1  0
  1 41  1  0
  1 42  1  0
  1 43  1  0
  7  2  1  0
 24  9  1  0
 31 26  1  0
 17 12  1  0
M  END
>  <cnnaffinity>  (1) 
-6.64463

>  <filename>  (1) 
Cc1c(Cl)cnn1Cc1nc(-c2ccccc2)nn1Cc1cccnc1

$$$$
