
     RDKit          3D

 31 33  0  0  0  0  0  0  0  0999 V2000
    5.6738   -2.6117   21.1628 C   0  0  0  0  0  0  0  0  0  0  0  0
    6.9791   -1.9168   21.4370 C   0  0  0  0  0  0  0  0  0  0  0  0
    7.8448   -2.3736   22.4296 C   0  0  0  0  0  0  0  0  0  0  0  0
    8.9317   -1.7230   22.8278 N   0  0  0  0  0  0  0  0  0  0  0  0
    9.2567   -0.5970   22.1716 C   0  0  0  0  0  0  0  0  0  0  0  0
   10.5602    0.1243   22.5341 C   0  0  0  0  0  0  0  0  0  0  0  0
   11.1122    0.9046   21.5784 N   0  0  0  0  0  0  0  0  0  0  0  0
   12.3022    1.4623   21.7663 C   0  0  0  0  0  0  0  0  0  0  0  0
   13.0704    1.2355   22.9137 C   0  0  0  0  0  0  0  0  0  0  0  0
   12.5195    0.4748   23.9430 C   0  0  0  0  0  0  0  0  0  0  0  0
   11.2092   -0.0038   23.7942 C   0  0  0  0  0  0  0  0  0  0  0  0
   10.4341   -0.6154   25.2139 Cl  0  0  0  0  0  0  0  0  0  0  0  0
   13.0923    0.2416   24.8416 H   0  0  0  0  0  0  0  0  0  0  0  0
   14.0522    1.6778   23.0060 H   0  0  0  0  0  0  0  0  0  0  0  0
   12.6262    2.1046   20.9521 H   0  0  0  0  0  0  0  0  0  0  0  0
    8.5301   -0.1008   21.1580 N   0  0  0  0  0  0  0  0  0  0  0  0
    7.4010   -0.7176   20.8288 C   0  0  0  0  0  0  0  0  0  0  0  0
    6.6317   -0.0327   19.7715 C   0  0  0  0  0  0  0  0  0  0  0  0
    5.4231    0.6152   20.0269 C   0  0  0  0  0  0  0  0  0  0  0  0
    4.8100    1.3144   18.9885 C   0  0  0  0  0  0  0  0  0  0  0  0
    5.4220    1.3239   17.7318 C   0  0  0  0  0  0  0  0  0  0  0  0
    6.5899    0.7105   17.4794 N   0  0  0  0  0  0  0  0  0  0  0  0
    7.1938    0.0856   18.4959 C   0  0  0  0  0  0  0  0  0  0  0  0
    8.1694   -0.3445   18.2689 H   0  0  0  0  0  0  0  0  0  0  0  0
    4.9616    1.8542   16.8988 H   0  0  0  0  0  0  0  0  0  0  0  0
    3.8938    1.8672   19.1496 H   0  0  0  0  0  0  0  0  0  0  0  0
    4.9875    0.6026   21.0280 H   0  0  0  0  0  0  0  0  0  0  0  0
    7.6508   -3.3168   22.9410 H   0  0  0  0  0  0  0  0  0  0  0  0
    4.8733   -1.9475   21.4832 H   0  0  0  0  0  0  0  0  0  0  0  0
    5.5289   -2.8346   20.1030 H   0  0  0  0  0  0  0  0  0  0  0  0
    5.5727   -3.5373   21.7333 H   0  0  0  0  0  0  0  0  0  0  0  0
  1  2  1  0
  2  3  2  0
  3  4  1  0
  4  5  2  0
  5  6  1  0
  6  7  2  0
  7  8  1  0
  8  9  2  0
  9 10  1  0
 10 11  2  0
 11 12  1  0
 10 13  1  0
  9 14  1  0
  8 15  1  0
  5 16  1  0
 16 17  2  0
 17 18  1  0
 18 19  2  0
 19 20  1  0
 20 21  2  0
 21 22  1  0
 22 23  2  0
 23 24  1  0
 21 25  1  0
 20 26  1  0
 19 27  1  0
  3 28  1  0
  1 29  1  0
  1 30  1  0
  1 31  1  0
 17  2  1  0
 23 18  1  0
 11  6  1  0
M  END
>  <cnnaffinity>  (1) 
-4.8903

>  <filename>  (1) 
Cc1cnc(-c2ncccc2Cl)nc1-c1cccnc1

$$$$
