
     RDKit          3D

 45 48  0  0  0  0  0  0  0  0999 V2000
   14.4998    0.9559   22.9900 C   0  0  0  0  0  0  0  0  0  0  0  0
   13.4809    0.1000   22.3072 C   0  0  0  0  0  0  0  0  0  0  0  0
   13.8564   -1.0467   21.5942 C   0  0  0  0  0  0  0  0  0  0  0  0
   12.8928   -1.8296   20.9641 C   0  0  0  0  0  0  0  0  0  0  0  0
   11.5459   -1.5420   21.1361 C   0  0  0  0  0  0  0  0  0  0  0  0
   11.1640   -0.3393   21.7479 C   0  0  0  0  0  0  0  0  0  0  0  0
    9.7487    0.0328   21.7661 C   0  0  0  0  0  0  0  0  0  0  0  0
    8.8036   -0.7749   21.3099 N   0  0  0  0  0  0  0  0  0  0  0  0
    7.6666   -0.1192   21.6125 N   0  0  0  0  0  0  0  0  0  0  0  0
    6.3808   -0.6022   21.1348 C   0  0  0  0  0  0  0  0  0  0  0  0
    5.9221    0.0854   19.8694 C   0  0  0  0  0  0  0  0  0  0  0  0
    4.7687    0.8700   19.8073 C   0  0  0  0  0  0  0  0  0  0  0  0
    4.5059    1.5827   18.6368 C   0  0  0  0  0  0  0  0  0  0  0  0
    5.3983    1.4678   17.5684 C   0  0  0  0  0  0  0  0  0  0  0  0
    6.4860    0.6825   17.5892 N   0  0  0  0  0  0  0  0  0  0  0  0
    6.7330    0.0216   18.7246 C   0  0  0  0  0  0  0  0  0  0  0  0
    7.6430   -0.5755   18.7586 H   0  0  0  0  0  0  0  0  0  0  0  0
    5.2345    2.0373   16.6575 H   0  0  0  0  0  0  0  0  0  0  0  0
    3.6542    2.2482   18.5552 H   0  0  0  0  0  0  0  0  0  0  0  0
    4.1024    0.9494   20.6684 H   0  0  0  0  0  0  0  0  0  0  0  0
    5.6603   -0.4422   21.9363 H   0  0  0  0  0  0  0  0  0  0  0  0
    6.5045   -1.6792   20.9988 H   0  0  0  0  0  0  0  0  0  0  0  0
    7.9680    1.0459   22.2188 C   0  0  0  0  0  0  0  0  0  0  0  0
    6.9425    1.8447   22.9637 C   0  0  0  0  0  0  0  0  0  0  0  0
    6.6058    1.2538   24.3217 C   0  0  0  0  0  0  0  0  0  0  0  0
    5.4472    0.7761   24.8358 C   0  0  0  0  0  0  0  0  0  0  0  0
    5.6221    0.3369   26.0891 O   0  0  0  0  0  0  0  0  0  0  0  0
    6.9392    0.5138   26.4408 N   0  0  0  0  0  0  0  0  0  0  0  0
    7.5324    1.0567   25.4087 C   0  0  0  0  0  0  0  0  0  0  0  0
    8.9932    1.3715   25.4784 C   0  0  0  0  0  0  0  0  0  0  0  0
    9.2149    2.3404   25.0228 H   0  0  0  0  0  0  0  0  0  0  0  0
    9.3310    1.3738   26.5156 H   0  0  0  0  0  0  0  0  0  0  0  0
    9.5695    0.6256   24.9222 H   0  0  0  0  0  0  0  0  0  0  0  0
    4.4374    0.6849   24.4594 H   0  0  0  0  0  0  0  0  0  0  0  0
    6.0537    1.9571   22.3346 H   0  0  0  0  0  0  0  0  0  0  0  0
    7.3656    2.8441   23.0946 H   0  0  0  0  0  0  0  0  0  0  0  0
    9.2762    1.1969   22.2875 N   0  0  0  0  0  0  0  0  0  0  0  0
   12.1416    0.4843   22.3236 C   0  0  0  0  0  0  0  0  0  0  0  0
   11.8634    1.4445   22.7634 H   0  0  0  0  0  0  0  0  0  0  0  0
   10.7759   -2.2351   20.8027 H   0  0  0  0  0  0  0  0  0  0  0  0
   13.2080   -2.6207   20.2936 H   0  0  0  0  0  0  0  0  0  0  0  0
   14.8953   -1.3298   21.5045 H   0  0  0  0  0  0  0  0  0  0  0  0
   14.0993    1.9604   23.1509 H   0  0  0  0  0  0  0  0  0  0  0  0
   15.3856    1.0349   22.3564 H   0  0  0  0  0  0  0  0  0  0  0  0
   14.7744    0.5245   23.9581 H   0  0  0  0  0  0  0  0  0  0  0  0
  1  2  1  0
  2  3  2  0
  3  4  1  0
  4  5  2  0
  5  6  1  0
  6  7  1  0
  7  8  2  0
  8  9  1  0
  9 10  1  0
 10 11  1  0
 11 12  2  0
 12 13  1  0
 13 14  2  0
 14 15  1  0
 15 16  2  0
 16 17  1  0
 14 18  1  0
 13 19  1  0
 12 20  1  0
 10 21  1  0
 10 22  1  0
  9 23  1  0
 23 24  1  0
 24 25  1  0
 25 26  2  0
 26 27  1  0
 27 28  1  0
 28 29  2  0
 29 30  1  0
 30 31  1  0
 30 32  1  0
 30 33  1  0
 26 34  1  0
 24 35  1  0
 24 36  1  0
 23 37  2  0
  6 38  2  0
 38 39  1  0
  5 40  1  0
  4 41  1  0
  3 42  1  0
  1 43  1  0
  1 44  1  0
  1 45  1  0
 38  2  1  0
 37  7  1  0
 16 11  1  0
 29 25  1  0
M  END
>  <cnnaffinity>  (1) 
-6.37208

>  <filename>  (1) 
Cc1cccc(-c2nc(Cc3conc3C)n(Cc3cccnc3)n2)c1

$$$$
