
     RDKit          3D

 48 51  0  0  0  0  0  0  0  0999 V2000
    9.2536    4.3667   25.3820 C   0  0  0  0  0  0  0  0  0  0  0  0
    9.5795    3.3550   24.3106 C   0  0  0  0  0  0  0  0  0  0  0  0
    8.6304    2.9669   23.3641 C   0  0  0  0  0  0  0  0  0  0  0  0
    8.9425    2.0228   22.3815 C   0  0  0  0  0  0  0  0  0  0  0  0
   10.2092    1.4315   22.3381 C   0  0  0  0  0  0  0  0  0  0  0  0
   10.5691    0.4842   21.4120 O   0  0  0  0  0  0  0  0  0  0  0  0
    9.5713   -0.0474   20.5634 C   0  0  0  0  0  0  0  0  0  0  0  0
    8.5058   -0.8352   21.2692 C   0  0  0  0  0  0  0  0  0  0  0  0
    8.6954   -1.6046   22.3135 N   0  0  0  0  0  0  0  0  0  0  0  0
    7.4507   -2.0738   22.5864 C   0  0  0  0  0  0  0  0  0  0  0  0
    7.2473   -2.9453   23.7737 C   0  0  0  0  0  0  0  0  0  0  0  0
    7.5885   -2.3041   25.1505 C   0  0  0  0  0  0  0  0  0  0  0  0
    7.9392   -3.5325   26.0168 C   0  0  0  0  0  0  0  0  0  0  0  0
    8.1272   -4.6219   25.1198 O   0  0  0  0  0  0  0  0  0  0  0  0
    8.2323   -4.1236   23.8027 C   0  0  0  0  0  0  0  0  0  0  0  0
    7.9919   -4.9356   23.1096 H   0  0  0  0  0  0  0  0  0  0  0  0
    9.2542   -3.7633   23.5862 H   0  0  0  0  0  0  0  0  0  0  0  0
    7.1383   -3.8078   26.7134 H   0  0  0  0  0  0  0  0  0  0  0  0
    8.8549   -3.3730   26.6062 H   0  0  0  0  0  0  0  0  0  0  0  0
    6.7949   -1.6752   25.5705 H   0  0  0  0  0  0  0  0  0  0  0  0
    8.4791   -1.6689   25.0379 H   0  0  0  0  0  0  0  0  0  0  0  0
    6.2175   -3.3165   23.7540 H   0  0  0  0  0  0  0  0  0  0  0  0
    6.5149   -1.6782   21.7484 N   0  0  0  0  0  0  0  0  0  0  0  0
    7.1998   -0.8873   20.8771 N   0  0  0  0  0  0  0  0  0  0  0  0
    6.5340   -0.1856   19.8327 C   0  0  0  0  0  0  0  0  0  0  0  0
    5.3681    0.5448   20.0944 C   0  0  0  0  0  0  0  0  0  0  0  0
    4.8234    1.3117   19.0596 C   0  0  0  0  0  0  0  0  0  0  0  0
    5.4437    1.3019   17.8038 C   0  0  0  0  0  0  0  0  0  0  0  0
    6.5269    0.5597   17.5313 N   0  0  0  0  0  0  0  0  0  0  0  0
    7.0496   -0.1700   18.5229 C   0  0  0  0  0  0  0  0  0  0  0  0
    7.9297   -0.7599   18.2694 H   0  0  0  0  0  0  0  0  0  0  0  0
    5.0541    1.8993   16.9826 H   0  0  0  0  0  0  0  0  0  0  0  0
    3.9413    1.9247   19.2138 H   0  0  0  0  0  0  0  0  0  0  0  0
    4.9275    0.5090   21.0918 H   0  0  0  0  0  0  0  0  0  0  0  0
    9.1398    0.7573   19.9598 H   0  0  0  0  0  0  0  0  0  0  0  0
   10.0999   -0.7289   19.9044 H   0  0  0  0  0  0  0  0  0  0  0  0
   11.1901    1.7937   23.2807 C   0  0  0  0  0  0  0  0  0  0  0  0
   12.5521    1.1479   23.3094 C   0  0  0  0  0  0  0  0  0  0  0  0
   13.1326    1.3403   22.4037 H   0  0  0  0  0  0  0  0  0  0  0  0
   12.4857    0.0603   23.4022 H   0  0  0  0  0  0  0  0  0  0  0  0
   13.1252    1.5213   24.1604 H   0  0  0  0  0  0  0  0  0  0  0  0
   10.8520    2.7608   24.2264 C   0  0  0  0  0  0  0  0  0  0  0  0
   11.6355    3.0558   24.9138 H   0  0  0  0  0  0  0  0  0  0  0  0
    8.2013    1.7348   21.6490 H   0  0  0  0  0  0  0  0  0  0  0  0
    7.6285    3.3924   23.3863 H   0  0  0  0  0  0  0  0  0  0  0  0
    9.2583    3.9199   26.3825 H   0  0  0  0  0  0  0  0  0  0  0  0
    8.2624    4.8020   25.2352 H   0  0  0  0  0  0  0  0  0  0  0  0
    9.9698    5.1955   25.3752 H   0  0  0  0  0  0  0  0  0  0  0  0
  1  2  1  0
  2  3  2  0
  3  4  1  0
  4  5  2  0
  5  6  1  0
  6  7  1  0
  7  8  1  0
  8  9  2  0
  9 10  1  0
 10 11  1  0
 11 12  1  0
 12 13  1  0
 13 14  1  0
 14 15  1  0
 15 16  1  0
 15 17  1  0
 13 18  1  0
 13 19  1  0
 12 20  1  0
 12 21  1  0
 11 22  1  0
 10 23  2  0
 23 24  1  0
 24 25  1  0
 25 26  2  0
 26 27  1  0
 27 28  2  0
 28 29  1  0
 29 30  2  0
 30 31  1  0
 28 32  1  0
 27 33  1  0
 26 34  1  0
  7 35  1  0
  7 36  1  0
  5 37  1  0
 37 38  1  0
 38 39  1  0
 38 40  1  0
 38 41  1  0
 37 42  2  0
 42 43  1  0
  4 44  1  0
  3 45  1  0
  1 46  1  0
  1 47  1  0
  1 48  1  0
 42  2  1  0
 24  8  1  0
 30 25  1  0
 15 11  1  0
M  END
>  <cnnaffinity>  (1) 
-6.06809

>  <filename>  (1) 
Cc1ccc(OCc2nc(C3CCOC3)nn2-c2cccnc2)c(C)c1

$$$$
