
     RDKit          3D

 42 45  0  0  0  0  0  0  0  0999 V2000
    8.3050    2.7577   22.0541 C   0  0  0  0  0  0  0  0  0  0  0  0
    9.6542    2.2807   22.4986 C   0  0  0  0  0  0  0  0  0  0  0  0
   10.3117    2.9181   23.5484 C   0  0  0  0  0  0  0  0  0  0  0  0
   11.5517    2.4448   23.9678 C   0  0  0  0  0  0  0  0  0  0  0  0
   12.1731    1.3919   23.4330 N   0  0  0  0  0  0  0  0  0  0  0  0
   11.5417    0.7924   22.4159 C   0  0  0  0  0  0  0  0  0  0  0  0
   10.3122    1.1958   21.8886 C   0  0  0  0  0  0  0  0  0  0  0  0
    9.6281    0.3794   20.8085 C   0  0  0  0  0  0  0  0  0  0  0  0
    8.6178   -0.5774   21.3565 C   0  0  0  0  0  0  0  0  0  0  0  0
    8.8609   -1.4341   22.3205 N   0  0  0  0  0  0  0  0  0  0  0  0
    7.6546   -2.0214   22.5262 C   0  0  0  0  0  0  0  0  0  0  0  0
    7.4297   -3.0407   23.5844 C   0  0  0  0  0  0  0  0  0  0  0  0
    8.4796   -3.4378   24.4391 C   0  0  0  0  0  0  0  0  0  0  0  0
    8.2195   -4.3957   25.4143 C   0  0  0  0  0  0  0  0  0  0  0  0
    9.2116   -4.7766   26.2279 F   0  0  0  0  0  0  0  0  0  0  0  0
    6.9704   -4.9845   25.5897 C   0  0  0  0  0  0  0  0  0  0  0  0
    5.9597   -4.5664   24.7304 C   0  0  0  0  0  0  0  0  0  0  0  0
    4.7455   -5.1108   24.8704 F   0  0  0  0  0  0  0  0  0  0  0  0
    6.1516   -3.6146   23.7363 C   0  0  0  0  0  0  0  0  0  0  0  0
    5.3209   -3.3229   23.0985 H   0  0  0  0  0  0  0  0  0  0  0  0
    6.7931   -5.7300   26.3580 H   0  0  0  0  0  0  0  0  0  0  0  0
    9.4804   -3.0180   24.3602 H   0  0  0  0  0  0  0  0  0  0  0  0
    6.6965   -1.5994   21.7129 N   0  0  0  0  0  0  0  0  0  0  0  0
    7.3308   -0.6978   20.9307 N   0  0  0  0  0  0  0  0  0  0  0  0
    6.6460   -0.0034   19.8968 C   0  0  0  0  0  0  0  0  0  0  0  0
    5.4372    0.6443   20.1660 C   0  0  0  0  0  0  0  0  0  0  0  0
    4.8111    1.3131   19.1103 C   0  0  0  0  0  0  0  0  0  0  0  0
    5.4013    1.2958   17.8401 C   0  0  0  0  0  0  0  0  0  0  0  0
    6.5599    0.6734   17.5791 N   0  0  0  0  0  0  0  0  0  0  0  0
    7.1661    0.0484   18.5922 C   0  0  0  0  0  0  0  0  0  0  0  0
    8.1160   -0.4328   18.3691 H   0  0  0  0  0  0  0  0  0  0  0  0
    4.9154    1.7822   16.9963 H   0  0  0  0  0  0  0  0  0  0  0  0
    3.8783    1.8420   19.2632 H   0  0  0  0  0  0  0  0  0  0  0  0
    5.0130    0.6126   21.1730 H   0  0  0  0  0  0  0  0  0  0  0  0
    9.1623    1.0415   20.0745 H   0  0  0  0  0  0  0  0  0  0  0  0
   10.3367   -0.2705   20.2938 H   0  0  0  0  0  0  0  0  0  0  0  0
   12.0295   -0.0802   21.9888 H   0  0  0  0  0  0  0  0  0  0  0  0
   12.0629    2.9400   24.7799 H   0  0  0  0  0  0  0  0  0  0  0  0
    9.8593    3.7772   24.0293 H   0  0  0  0  0  0  0  0  0  0  0  0
    7.5488    1.9679   22.1139 H   0  0  0  0  0  0  0  0  0  0  0  0
    8.3521    3.0827   21.0158 H   0  0  0  0  0  0  0  0  0  0  0  0
    7.9623    3.6041   22.6530 H   0  0  0  0  0  0  0  0  0  0  0  0
  1  2  1  0
  2  3  2  0
  3  4  1  0
  4  5  2  0
  5  6  1  0
  6  7  2  0
  7  8  1  0
  8  9  1  0
  9 10  2  0
 10 11  1  0
 11 12  1  0
 12 13  2  0
 13 14  1  0
 14 15  1  0
 14 16  2  0
 16 17  1  0
 17 18  1  0
 17 19  2  0
 19 20  1  0
 16 21  1  0
 13 22  1  0
 11 23  2  0
 23 24  1  0
 24 25  1  0
 25 26  2  0
 26 27  1  0
 27 28  2  0
 28 29  1  0
 29 30  2  0
 30 31  1  0
 28 32  1  0
 27 33  1  0
 26 34  1  0
  8 35  1  0
  8 36  1  0
  6 37  1  0
  4 38  1  0
  3 39  1  0
  1 40  1  0
  1 41  1  0
  1 42  1  0
  7  2  1  0
 24  9  1  0
 30 25  1  0
 19 12  1  0
M  END
>  <cnnaffinity>  (1) 
-6.25715

>  <filename>  (1) 
Cc1ccncc1Cc1nc(-c2cc(F)cc(F)c2)nn1-c1cccnc1

$$$$
