
     RDKit          3D

 49 52  0  0  0  0  0  0  0  0999 V2000
    9.3598   -4.5626   26.5457 C   0  0  0  0  0  0  0  0  0  0  0  0
    8.2727   -4.2531   25.5434 C   0  0  0  0  0  0  0  0  0  0  0  0
    7.0311   -4.9012   25.6181 C   0  0  0  0  0  0  0  0  0  0  0  0
    6.0130   -4.5988   24.7084 C   0  0  0  0  0  0  0  0  0  0  0  0
    6.2187   -3.6464   23.7128 C   0  0  0  0  0  0  0  0  0  0  0  0
    7.4587   -2.9810   23.6196 C   0  0  0  0  0  0  0  0  0  0  0  0
    7.6812   -1.9607   22.5671 C   0  0  0  0  0  0  0  0  0  0  0  0
    6.7519   -1.6040   21.6954 N   0  0  0  0  0  0  0  0  0  0  0  0
    7.3689   -0.6648   20.9426 N   0  0  0  0  0  0  0  0  0  0  0  0
    6.6628    0.0102   19.9043 C   0  0  0  0  0  0  0  0  0  0  0  0
    5.4418    0.6429   20.1681 C   0  0  0  0  0  0  0  0  0  0  0  0
    4.8128    1.3093   19.1102 C   0  0  0  0  0  0  0  0  0  0  0  0
    5.4014    1.2959   17.8382 C   0  0  0  0  0  0  0  0  0  0  0  0
    6.5613    0.6744   17.5770 N   0  0  0  0  0  0  0  0  0  0  0  0
    7.1709    0.0563   18.5946 C   0  0  0  0  0  0  0  0  0  0  0  0
    8.1137   -0.4351   18.3695 H   0  0  0  0  0  0  0  0  0  0  0  0
    4.9191    1.7849   16.9939 H   0  0  0  0  0  0  0  0  0  0  0  0
    3.8794    1.8397   19.2607 H   0  0  0  0  0  0  0  0  0  0  0  0
    5.0169    0.6084   21.1747 H   0  0  0  0  0  0  0  0  0  0  0  0
    8.6334   -0.4778   21.4232 C   0  0  0  0  0  0  0  0  0  0  0  0
    9.5334    0.6053   20.9351 C   0  0  0  0  0  0  0  0  0  0  0  0
    9.0500    2.0183   21.3042 C   0  0  0  0  0  0  0  0  0  0  0  0
    8.9630    2.2398   22.8149 C   0  0  0  0  0  0  0  0  0  0  0  0
    8.5265    3.5783   23.1604 N   0  0  0  0  0  0  0  0  0  0  0  0
    7.2109    4.0011   23.2044 C   0  0  0  0  0  0  0  0  0  0  0  0
    7.2661    5.3437   23.4300 C   0  0  0  0  0  0  0  0  0  0  0  0
    8.5698    5.7670   23.5147 N   0  0  0  0  0  0  0  0  0  0  0  0
    9.3011    4.6944   23.3319 C   0  0  0  0  0  0  0  0  0  0  0  0
   10.7944    4.6713   23.3339 C   0  0  0  0  0  0  0  0  0  0  0  0
   11.1912    4.2362   22.4090 H   0  0  0  0  0  0  0  0  0  0  0  0
   11.1647    5.6940   23.4245 H   0  0  0  0  0  0  0  0  0  0  0  0
   11.1816    4.0834   24.1737 H   0  0  0  0  0  0  0  0  0  0  0  0
    6.4388    6.0323   23.5417 H   0  0  0  0  0  0  0  0  0  0  0  0
    6.3785    3.3281   23.0509 H   0  0  0  0  0  0  0  0  0  0  0  0
    8.2650    1.5309   23.2683 H   0  0  0  0  0  0  0  0  0  0  0  0
    9.9282    2.0411   23.2912 H   0  0  0  0  0  0  0  0  0  0  0  0
    8.0692    2.2064   20.8491 H   0  0  0  0  0  0  0  0  0  0  0  0
    9.7430    2.7522   20.8824 H   0  0  0  0  0  0  0  0  0  0  0  0
    9.6219    0.5265   19.8489 H   0  0  0  0  0  0  0  0  0  0  0  0
   10.5249    0.4134   21.3559 H   0  0  0  0  0  0  0  0  0  0  0  0
    8.8604   -1.2924   22.4275 N   0  0  0  0  0  0  0  0  0  0  0  0
    8.4744   -3.2942   24.5438 C   0  0  0  0  0  0  0  0  0  0  0  0
    9.4351   -2.7807   24.4911 H   0  0  0  0  0  0  0  0  0  0  0  0
    5.4276   -3.4029   23.0061 H   0  0  0  0  0  0  0  0  0  0  0  0
    5.0548   -5.1047   24.7817 H   0  0  0  0  0  0  0  0  0  0  0  0
    6.8673   -5.6407   26.3998 H   0  0  0  0  0  0  0  0  0  0  0  0
    9.2899   -3.8974   27.4122 H   0  0  0  0  0  0  0  0  0  0  0  0
   10.3586   -4.4362   26.1174 H   0  0  0  0  0  0  0  0  0  0  0  0
    9.2863   -5.5875   26.9204 H   0  0  0  0  0  0  0  0  0  0  0  0
  1  2  1  0
  2  3  2  0
  3  4  1  0
  4  5  2  0
  5  6  1  0
  6  7  1  0
  7  8  2  0
  8  9  1  0
  9 10  1  0
 10 11  2  0
 11 12  1  0
 12 13  2  0
 13 14  1  0
 14 15  2  0
 15 16  1  0
 13 17  1  0
 12 18  1  0
 11 19  1  0
  9 20  1  0
 20 21  1  0
 21 22  1  0
 22 23  1  0
 23 24  1  0
 24 25  1  0
 25 26  2  0
 26 27  1  0
 27 28  2  0
 28 29  1  0
 29 30  1  0
 29 31  1  0
 29 32  1  0
 26 33  1  0
 25 34  1  0
 23 35  1  0
 23 36  1  0
 22 37  1  0
 22 38  1  0
 21 39  1  0
 21 40  1  0
 20 41  2  0
  6 42  2  0
 42 43  1  0
  5 44  1  0
  4 45  1  0
  3 46  1  0
  1 47  1  0
  1 48  1  0
  1 49  1  0
 42  2  1  0
 41  7  1  0
 15 10  1  0
 28 24  1  0
M  END
>  <cnnaffinity>  (1) 
-6.04275

>  <filename>  (1) 
Cc1cccc(-c2nc(CCCn3ccnc3C)n(-c3cccnc3)n2)c1

$$$$
