
     RDKit          3D

 48 51  0  0  0  0  0  0  0  0999 V2000
    7.8596    3.8665   27.1864 C   0  0  0  0  0  0  0  0  0  0  0  0
    7.8991    3.9621   25.6808 C   0  0  0  0  0  0  0  0  0  0  0  0
    7.5218    5.1672   25.0576 C   0  0  0  0  0  0  0  0  0  0  0  0
    7.6594    5.3353   23.6821 C   0  0  0  0  0  0  0  0  0  0  0  0
    8.1584    4.2970   22.8930 C   0  0  0  0  0  0  0  0  0  0  0  0
    8.4915    3.0811   23.4949 C   0  0  0  0  0  0  0  0  0  0  0  0
    8.9758    2.0097   22.8180 O   0  0  0  0  0  0  0  0  0  0  0  0
    9.0318    2.0227   21.3980 C   0  0  0  0  0  0  0  0  0  0  0  0
    9.5336    0.6389   21.0019 C   0  0  0  0  0  0  0  0  0  0  0  0
    8.6166   -0.4380   21.4680 C   0  0  0  0  0  0  0  0  0  0  0  0
    8.8212   -1.2548   22.4796 N   0  0  0  0  0  0  0  0  0  0  0  0
    7.6429   -1.9294   22.5790 C   0  0  0  0  0  0  0  0  0  0  0  0
    7.3976   -2.9510   23.6494 C   0  0  0  0  0  0  0  0  0  0  0  0
    6.4416   -4.1135   23.2941 C   0  0  0  0  0  0  0  0  0  0  0  0
    6.9137   -5.2297   24.2387 C   0  0  0  0  0  0  0  0  0  0  0  0
    8.2404   -4.9155   24.6365 O   0  0  0  0  0  0  0  0  0  0  0  0
    8.6753   -3.6959   24.0667 C   0  0  0  0  0  0  0  0  0  0  0  0
    9.2626   -3.1528   24.8149 H   0  0  0  0  0  0  0  0  0  0  0  0
    9.3342   -3.8711   23.2015 H   0  0  0  0  0  0  0  0  0  0  0  0
    6.8993   -6.2111   23.7534 H   0  0  0  0  0  0  0  0  0  0  0  0
    6.2895   -5.3096   25.1385 H   0  0  0  0  0  0  0  0  0  0  0  0
    5.3863   -3.8654   23.4465 H   0  0  0  0  0  0  0  0  0  0  0  0
    6.5701   -4.4044   22.2433 H   0  0  0  0  0  0  0  0  0  0  0  0
    7.0036   -2.4100   24.5198 H   0  0  0  0  0  0  0  0  0  0  0  0
    6.7343   -1.5903   21.6883 N   0  0  0  0  0  0  0  0  0  0  0  0
    7.3697   -0.6455   20.9469 N   0  0  0  0  0  0  0  0  0  0  0  0
    6.6724    0.0074   19.8934 C   0  0  0  0  0  0  0  0  0  0  0  0
    5.4503    0.6408   20.1438 C   0  0  0  0  0  0  0  0  0  0  0  0
    4.8310    1.3160   19.0886 C   0  0  0  0  0  0  0  0  0  0  0  0
    5.4360    1.3112   17.8241 C   0  0  0  0  0  0  0  0  0  0  0  0
    6.5815    0.6617   17.5668 N   0  0  0  0  0  0  0  0  0  0  0  0
    7.1727    0.0206   18.5799 C   0  0  0  0  0  0  0  0  0  0  0  0
    8.0778   -0.5312   18.3396 H   0  0  0  0  0  0  0  0  0  0  0  0
    4.9798    1.8295   16.9840 H   0  0  0  0  0  0  0  0  0  0  0  0
    3.8926    1.8394   19.2304 H   0  0  0  0  0  0  0  0  0  0  0  0
    5.0067    0.5840   21.1396 H   0  0  0  0  0  0  0  0  0  0  0  0
    9.6348    0.5912   19.9167 H   0  0  0  0  0  0  0  0  0  0  0  0
   10.5142    0.4743   21.4612 H   0  0  0  0  0  0  0  0  0  0  0  0
    9.7308    2.7915   21.0488 H   0  0  0  0  0  0  0  0  0  0  0  0
    8.0424    2.2444   20.9693 H   0  0  0  0  0  0  0  0  0  0  0  0
    8.3323    2.9025   24.8825 C   0  0  0  0  0  0  0  0  0  0  0  0
    8.5395    1.9267   25.3094 H   0  0  0  0  0  0  0  0  0  0  0  0
    8.2701    4.4161   21.8182 H   0  0  0  0  0  0  0  0  0  0  0  0
    7.3752    6.2753   23.2069 H   0  0  0  0  0  0  0  0  0  0  0  0
    7.1076    5.9630   25.6640 H   0  0  0  0  0  0  0  0  0  0  0  0
    8.5050    4.6446   27.6175 H   0  0  0  0  0  0  0  0  0  0  0  0
    6.8462    4.0459   27.5654 H   0  0  0  0  0  0  0  0  0  0  0  0
    8.1996    2.8858   27.5362 H   0  0  0  0  0  0  0  0  0  0  0  0
  1  2  1  0
  2  3  2  0
  3  4  1  0
  4  5  2  0
  5  6  1  0
  6  7  1  0
  7  8  1  0
  8  9  1  0
  9 10  1  0
 10 11  2  0
 11 12  1  0
 12 13  1  0
 13 14  1  0
 14 15  1  0
 15 16  1  0
 16 17  1  0
 17 18  1  0
 17 19  1  0
 15 20  1  0
 15 21  1  0
 14 22  1  0
 14 23  1  0
 13 24  1  0
 12 25  2  0
 25 26  1  0
 26 27  1  0
 27 28  2  0
 28 29  1  0
 29 30  2  0
 30 31  1  0
 31 32  2  0
 32 33  1  0
 30 34  1  0
 29 35  1  0
 28 36  1  0
  9 37  1  0
  9 38  1  0
  8 39  1  0
  8 40  1  0
  6 41  2  0
 41 42  1  0
  5 43  1  0
  4 44  1  0
  3 45  1  0
  1 46  1  0
  1 47  1  0
  1 48  1  0
 41  2  1  0
 26 10  1  0
 32 27  1  0
 17 13  1  0
M  END
>  <cnnaffinity>  (1) 
-6.00381

>  <filename>  (1) 
Cc1cccc(OCCc2nc(C3CCOC3)nn2-c2cccnc2)c1

$$$$
