
     RDKit          3D

 48 51  0  0  0  0  0  0  0  0999 V2000
    6.9765    3.3536   27.2382 C   0  0  0  0  0  0  0  0  0  0  0  0
    7.3632    3.6171   25.7950 C   0  0  0  0  0  0  0  0  0  0  0  0
    7.1246    4.8922   25.2587 C   0  0  0  0  0  0  0  0  0  0  0  0
    7.4541    5.1784   23.9357 C   0  0  0  0  0  0  0  0  0  0  0  0
    8.0237    4.1968   23.1205 C   0  0  0  0  0  0  0  0  0  0  0  0
    8.2682    2.9185   23.6410 C   0  0  0  0  0  0  0  0  0  0  0  0
    8.8376    1.9120   22.9058 O   0  0  0  0  0  0  0  0  0  0  0  0
    9.0192    2.0089   21.4991 C   0  0  0  0  0  0  0  0  0  0  0  0
    9.5085    0.6430   21.0007 C   0  0  0  0  0  0  0  0  0  0  0  0
    8.6279   -0.4633   21.4511 C   0  0  0  0  0  0  0  0  0  0  0  0
    8.8545   -1.2811   22.4625 N   0  0  0  0  0  0  0  0  0  0  0  0
    7.6683   -1.9230   22.5991 C   0  0  0  0  0  0  0  0  0  0  0  0
    7.3927   -2.8462   23.7395 C   0  0  0  0  0  0  0  0  0  0  0  0
    6.6010   -4.1256   23.3649 C   0  0  0  0  0  0  0  0  0  0  0  0
    5.2198   -3.6713   24.4688 S   0  0  0  0  0  0  0  0  0  0  0  0
    6.3676   -2.2849   24.7718 C   0  0  0  0  0  0  0  0  0  0  0  0
    6.7295   -2.2426   25.8046 H   0  0  0  0  0  0  0  0  0  0  0  0
    5.9313   -1.3195   24.4954 H   0  0  0  0  0  0  0  0  0  0  0  0
    7.0862   -5.0619   23.6557 H   0  0  0  0  0  0  0  0  0  0  0  0
    6.3013   -4.1763   22.3130 H   0  0  0  0  0  0  0  0  0  0  0  0
    8.3559   -3.0609   24.1973 H   0  0  0  0  0  0  0  0  0  0  0  0
    6.7473   -1.5903   21.7187 N   0  0  0  0  0  0  0  0  0  0  0  0
    7.3719   -0.6585   20.9519 N   0  0  0  0  0  0  0  0  0  0  0  0
    6.6621    0.0081   19.9072 C   0  0  0  0  0  0  0  0  0  0  0  0
    5.4407    0.6401   20.1692 C   0  0  0  0  0  0  0  0  0  0  0  0
    4.8141    1.3076   19.1114 C   0  0  0  0  0  0  0  0  0  0  0  0
    5.4009    1.2955   17.8390 C   0  0  0  0  0  0  0  0  0  0  0  0
    6.5600    0.6716   17.5781 N   0  0  0  0  0  0  0  0  0  0  0  0
    7.1692    0.0516   18.5955 C   0  0  0  0  0  0  0  0  0  0  0  0
    8.1124   -0.4367   18.3658 H   0  0  0  0  0  0  0  0  0  0  0  0
    4.9216    1.7866   16.9944 H   0  0  0  0  0  0  0  0  0  0  0  0
    3.8819    1.8378   19.2602 H   0  0  0  0  0  0  0  0  0  0  0  0
    5.0156    0.6079   21.1771 H   0  0  0  0  0  0  0  0  0  0  0  0
   10.5128    0.4267   21.3653 H   0  0  0  0  0  0  0  0  0  0  0  0
    9.5624    0.6657   19.9102 H   0  0  0  0  0  0  0  0  0  0  0  0
    9.7711    2.7730   21.2642 H   0  0  0  0  0  0  0  0  0  0  0  0
    8.0765    2.2731   20.9972 H   0  0  0  0  0  0  0  0  0  0  0  0
    7.9565    2.6137   24.9937 C   0  0  0  0  0  0  0  0  0  0  0  0
    8.2095    1.2319   25.5767 C   0  0  0  0  0  0  0  0  0  0  0  0
    8.6036    1.2859   26.5991 H   0  0  0  0  0  0  0  0  0  0  0  0
    7.2772    0.6552   25.6420 H   0  0  0  0  0  0  0  0  0  0  0  0
    8.8992    0.6516   24.9572 H   0  0  0  0  0  0  0  0  0  0  0  0
    8.2758    4.4164   22.0864 H   0  0  0  0  0  0  0  0  0  0  0  0
    7.2588    6.1680   23.5292 H   0  0  0  0  0  0  0  0  0  0  0  0
    6.6703    5.6512   25.8942 H   0  0  0  0  0  0  0  0  0  0  0  0
    7.8520    3.2522   27.8880 H   0  0  0  0  0  0  0  0  0  0  0  0
    6.3739    4.1664   27.6516 H   0  0  0  0  0  0  0  0  0  0  0  0
    6.3955    2.4329   27.3521 H   0  0  0  0  0  0  0  0  0  0  0  0
  1  2  1  0
  2  3  2  0
  3  4  1  0
  4  5  2  0
  5  6  1  0
  6  7  1  0
  7  8  1  0
  8  9  1  0
  9 10  1  0
 10 11  2  0
 11 12  1  0
 12 13  1  0
 13 14  1  0
 14 15  1  0
 15 16  1  0
 16 17  1  0
 16 18  1  0
 14 19  1  0
 14 20  1  0
 13 21  1  0
 12 22  2  0
 22 23  1  0
 23 24  1  0
 24 25  2  0
 25 26  1  0
 26 27  2  0
 27 28  1  0
 28 29  2  0
 29 30  1  0
 27 31  1  0
 26 32  1  0
 25 33  1  0
  9 34  1  0
  9 35  1  0
  8 36  1  0
  8 37  1  0
  6 38  2  0
 38 39  1  0
 39 40  1  0
 39 41  1  0
 39 42  1  0
  5 43  1  0
  4 44  1  0
  3 45  1  0
  1 46  1  0
  1 47  1  0
  1 48  1  0
 38  2  1  0
 23 10  1  0
 29 24  1  0
 16 13  1  0
M  END
>  <cnnaffinity>  (1) 
-6.01862

>  <filename>  (1) 
Cc1cccc(OCCc2nc(C3CSC3)nn2-c2cccnc2)c1C

$$$$
