
     RDKit          3D

 44 47  0  0  0  0  0  0  0  0999 V2000
    3.4403    5.4384   26.2475 C   0  0  0  0  0  0  0  0  0  0  0  0
    4.1234    4.3132   25.5110 C   0  0  0  0  0  0  0  0  0  0  0  0
    3.5774    3.0166   25.4776 C   0  0  0  0  0  0  0  0  0  0  0  0
    4.1643    2.0054   24.7105 C   0  0  0  0  0  0  0  0  0  0  0  0
    5.3207    2.2856   23.9685 C   0  0  0  0  0  0  0  0  0  0  0  0
    5.7677    1.3039   23.1302 O   0  0  0  0  0  0  0  0  0  0  0  0
    7.1300    1.3429   22.6990 C   0  0  0  0  0  0  0  0  0  0  0  0
    7.5175   -0.0093   22.2359 C   0  0  0  0  0  0  0  0  0  0  0  0
    8.2231   -0.8633   22.9413 N   0  0  0  0  0  0  0  0  0  0  0  0
    8.3228   -1.9378   22.1185 C   0  0  0  0  0  0  0  0  0  0  0  0
    9.0796   -3.1684   22.5077 C   0  0  0  0  0  0  0  0  0  0  0  0
   10.4317   -2.9357   23.2578 C   0  0  0  0  0  0  0  0  0  0  0  0
   10.0060   -3.9134   24.3685 C   0  0  0  0  0  0  0  0  0  0  0  0
    8.6058   -4.0323   23.7239 C   0  0  0  0  0  0  0  0  0  0  0  0
    7.7773   -3.5847   24.2792 H   0  0  0  0  0  0  0  0  0  0  0  0
    8.3172   -5.0574   23.4797 H   0  0  0  0  0  0  0  0  0  0  0  0
   10.0279   -3.5075   25.3835 H   0  0  0  0  0  0  0  0  0  0  0  0
   10.5828   -4.8452   24.3956 H   0  0  0  0  0  0  0  0  0  0  0  0
   11.3663   -3.1600   22.7319 H   0  0  0  0  0  0  0  0  0  0  0  0
   10.4705   -1.9064   23.6184 H   0  0  0  0  0  0  0  0  0  0  0  0
    9.1153   -3.7566   21.5930 H   0  0  0  0  0  0  0  0  0  0  0  0
    7.7635   -1.7717   20.9325 N   0  0  0  0  0  0  0  0  0  0  0  0
    7.2196   -0.5264   21.0121 N   0  0  0  0  0  0  0  0  0  0  0  0
    6.5370    0.0747   19.9109 C   0  0  0  0  0  0  0  0  0  0  0  0
    5.3575    0.8156   20.0846 C   0  0  0  0  0  0  0  0  0  0  0  0
    4.7983    1.4369   18.9613 C   0  0  0  0  0  0  0  0  0  0  0  0
    5.4260    1.2953   17.7216 C   0  0  0  0  0  0  0  0  0  0  0  0
    6.5342    0.5538   17.5486 N   0  0  0  0  0  0  0  0  0  0  0  0
    7.0630   -0.0541   18.6142 C   0  0  0  0  0  0  0  0  0  0  0  0
    7.9492   -0.6651   18.4462 H   0  0  0  0  0  0  0  0  0  0  0  0
    5.0230    1.7752   16.8296 H   0  0  0  0  0  0  0  0  0  0  0  0
    3.8951    2.0341   19.0370 H   0  0  0  0  0  0  0  0  0  0  0  0
    4.8936    0.9028   21.0632 H   0  0  0  0  0  0  0  0  0  0  0  0
    7.2602    2.0629   21.8810 H   0  0  0  0  0  0  0  0  0  0  0  0
    7.7836    1.6069   23.5379 H   0  0  0  0  0  0  0  0  0  0  0  0
    5.9339    3.5369   24.0782 C   0  0  0  0  0  0  0  0  0  0  0  0
    5.3301    4.5405   24.8403 C   0  0  0  0  0  0  0  0  0  0  0  0
    5.8124    5.5150   24.9129 H   0  0  0  0  0  0  0  0  0  0  0  0
    6.8730    3.7144   23.5678 H   0  0  0  0  0  0  0  0  0  0  0  0
    3.7551    1.0000   24.6821 H   0  0  0  0  0  0  0  0  0  0  0  0
    2.6823    2.8106   26.0664 H   0  0  0  0  0  0  0  0  0  0  0  0
    3.6632    6.4047   25.7802 H   0  0  0  0  0  0  0  0  0  0  0  0
    3.7718    5.4866   27.2909 H   0  0  0  0  0  0  0  0  0  0  0  0
    2.3524    5.3172   26.2443 H   0  0  0  0  0  0  0  0  0  0  0  0
  1  2  1  0
  2  3  2  0
  3  4  1  0
  4  5  2  0
  5  6  1  0
  6  7  1  0
  7  8  1  0
  8  9  2  0
  9 10  1  0
 10 11  1  0
 11 12  1  0
 12 13  1  0
 13 14  1  0
 14 15  1  0
 14 16  1  0
 13 17  1  0
 13 18  1  0
 12 19  1  0
 12 20  1  0
 11 21  1  0
 10 22  2  0
 22 23  1  0
 23 24  1  0
 24 25  2  0
 25 26  1  0
 26 27  2  0
 27 28  1  0
 28 29  2  0
 29 30  1  0
 27 31  1  0
 26 32  1  0
 25 33  1  0
  7 34  1  0
  7 35  1  0
  5 36  1  0
 36 37  2  0
 37 38  1  0
 36 39  1  0
  4 40  1  0
  3 41  1  0
  1 42  1  0
  1 43  1  0
  1 44  1  0
 37  2  1  0
 23  8  1  0
 29 24  1  0
 14 11  1  0
M  END
>  <cnnaffinity>  (1) 
-5.80496

>  <filename>  (1) 
Cc1ccc(OCc2nc(C3CCC3)nn2-c2cccnc2)cc1

$$$$
