
     RDKit          3D

 51 54  0  0  0  0  0  0  0  0999 V2000
    6.6547    1.8708   23.8071 C   0  0  0  0  0  0  0  0  0  0  0  0
    7.0796    3.2724   23.4229 C   0  0  0  0  0  0  0  0  0  0  0  0
    6.2533    4.3707   23.7184 C   0  0  0  0  0  0  0  0  0  0  0  0
    6.6127    5.6816   23.3768 C   0  0  0  0  0  0  0  0  0  0  0  0
    7.8349    5.9138   22.7470 C   0  0  0  0  0  0  0  0  0  0  0  0
    8.6861    4.8346   22.5060 C   0  0  0  0  0  0  0  0  0  0  0  0
    8.3217    3.5145   22.7966 C   0  0  0  0  0  0  0  0  0  0  0  0
    9.2765    2.3916   22.4444 C   0  0  0  0  0  0  0  0  0  0  0  0
    8.9835    1.8999   21.1318 O   0  0  0  0  0  0  0  0  0  0  0  0
    9.5212    0.6070   20.8974 C   0  0  0  0  0  0  0  0  0  0  0  0
    8.6330   -0.4738   21.4253 C   0  0  0  0  0  0  0  0  0  0  0  0
    8.8506   -1.2575   22.4630 N   0  0  0  0  0  0  0  0  0  0  0  0
    7.6518   -1.8836   22.6245 C   0  0  0  0  0  0  0  0  0  0  0  0
    7.3988   -2.7778   23.7986 C   0  0  0  0  0  0  0  0  0  0  0  0
    7.2562   -1.9581   25.1085 C   0  0  0  0  0  0  0  0  0  0  0  0
    7.0254   -2.8851   26.3286 C   0  0  0  0  0  0  0  0  0  0  0  0
    7.2489   -4.2551   26.0402 O   0  0  0  0  0  0  0  0  0  0  0  0
    8.4831   -4.4678   25.3868 C   0  0  0  0  0  0  0  0  0  0  0  0
    8.4959   -3.8633   23.9628 C   0  0  0  0  0  0  0  0  0  0  0  0
    9.4874   -3.4408   23.7633 H   0  0  0  0  0  0  0  0  0  0  0  0
    8.3313   -4.6490   23.2165 H   0  0  0  0  0  0  0  0  0  0  0  0
    9.2975   -4.0323   25.9918 H   0  0  0  0  0  0  0  0  0  0  0  0
    8.6347   -5.5490   25.3673 H   0  0  0  0  0  0  0  0  0  0  0  0
    5.9931   -2.8443   26.6827 H   0  0  0  0  0  0  0  0  0  0  0  0
    7.6804   -2.5768   27.1623 H   0  0  0  0  0  0  0  0  0  0  0  0
    8.1673   -1.3608   25.2591 H   0  0  0  0  0  0  0  0  0  0  0  0
    6.4282   -1.2427   25.0193 H   0  0  0  0  0  0  0  0  0  0  0  0
    6.4437   -3.2662   23.5943 H   0  0  0  0  0  0  0  0  0  0  0  0
    6.7290   -1.5481   21.7469 N   0  0  0  0  0  0  0  0  0  0  0  0
    7.3661   -0.6471   20.9526 N   0  0  0  0  0  0  0  0  0  0  0  0
    6.6673    0.0228   19.9082 C   0  0  0  0  0  0  0  0  0  0  0  0
    5.4428    0.6480   20.1640 C   0  0  0  0  0  0  0  0  0  0  0  0
    4.8115    1.3096   19.1069 C   0  0  0  0  0  0  0  0  0  0  0  0
    5.3983    1.2950   17.8360 C   0  0  0  0  0  0  0  0  0  0  0  0
    6.5532    0.6644   17.5738 N   0  0  0  0  0  0  0  0  0  0  0  0
    7.1671    0.0530   18.5946 C   0  0  0  0  0  0  0  0  0  0  0  0
    8.1087   -0.4382   18.3602 H   0  0  0  0  0  0  0  0  0  0  0  0
    4.9265    1.7892   16.9899 H   0  0  0  0  0  0  0  0  0  0  0  0
    3.8808    1.8380   19.2589 H   0  0  0  0  0  0  0  0  0  0  0  0
    5.0192    0.6079   21.1725 H   0  0  0  0  0  0  0  0  0  0  0  0
    9.6056    0.5169   19.8148 H   0  0  0  0  0  0  0  0  0  0  0  0
   10.5153    0.4856   21.3529 H   0  0  0  0  0  0  0  0  0  0  0  0
    9.2246    1.5715   23.1844 H   0  0  0  0  0  0  0  0  0  0  0  0
   10.3153    2.7564   22.4487 H   0  0  0  0  0  0  0  0  0  0  0  0
    9.6857    5.0462   22.1509 H   0  0  0  0  0  0  0  0  0  0  0  0
    8.1540    6.9123   22.4517 H   0  0  0  0  0  0  0  0  0  0  0  0
    5.9557    6.5175   23.6090 H   0  0  0  0  0  0  0  0  0  0  0  0
    5.3060    4.1806   24.2171 H   0  0  0  0  0  0  0  0  0  0  0  0
    7.2582    1.4782   24.6348 H   0  0  0  0  0  0  0  0  0  0  0  0
    5.6126    1.8592   24.1326 H   0  0  0  0  0  0  0  0  0  0  0  0
    6.7678    1.1608   22.9758 H   0  0  0  0  0  0  0  0  0  0  0  0
  1  2  1  0
  2  3  2  0
  3  4  1  0
  4  5  2  0
  5  6  1  0
  6  7  2  0
  7  8  1  0
  8  9  1  0
  9 10  1  0
 10 11  1  0
 11 12  2  0
 12 13  1  0
 13 14  1  0
 14 15  1  0
 15 16  1  0
 16 17  1  0
 17 18  1  0
 18 19  1  0
 19 20  1  0
 19 21  1  0
 18 22  1  0
 18 23  1  0
 16 24  1  0
 16 25  1  0
 15 26  1  0
 15 27  1  0
 14 28  1  0
 13 29  2  0
 29 30  1  0
 30 31  1  0
 31 32  2  0
 32 33  1  0
 33 34  2  0
 34 35  1  0
 35 36  2  0
 36 37  1  0
 34 38  1  0
 33 39  1  0
 32 40  1  0
 10 41  1  0
 10 42  1  0
  8 43  1  0
  8 44  1  0
  6 45  1  0
  5 46  1  0
  4 47  1  0
  3 48  1  0
  1 49  1  0
  1 50  1  0
  1 51  1  0
  7  2  1  0
 30 11  1  0
 36 31  1  0
 19 14  1  0
M  END
>  <cnnaffinity>  (1) 
-5.78862

>  <filename>  (1) 
Cc1ccccc1COCc1nc(C2CCOCC2)nn1-c1cccnc1

$$$$
