
     RDKit          3D

 52 55  0  0  0  0  0  0  0  0999 V2000
    7.7305    2.8706   21.8358 C   0  0  0  0  0  0  0  0  0  0  0  0
    9.0702    2.4703   22.3884 C   0  0  0  0  0  0  0  0  0  0  0  0
    9.9226    1.4575   21.9862 C   0  0  0  0  0  0  0  0  0  0  0  0
    9.6241    0.4219   20.9205 C   0  0  0  0  0  0  0  0  0  0  0  0
    8.6083   -0.5878   21.3654 C   0  0  0  0  0  0  0  0  0  0  0  0
    8.8369   -1.4648   22.3239 N   0  0  0  0  0  0  0  0  0  0  0  0
    7.6240   -2.0500   22.5024 C   0  0  0  0  0  0  0  0  0  0  0  0
    7.3868   -3.0572   23.5937 C   0  0  0  0  0  0  0  0  0  0  0  0
    8.2855   -4.3132   23.3692 C   0  0  0  0  0  0  0  0  0  0  0  0
    8.5157   -5.0813   24.6792 C   0  0  0  0  0  0  0  0  0  0  0  0
    9.2892   -4.2383   25.7337 C   0  0  0  0  0  0  0  0  0  0  0  0
    8.9918   -4.7509   27.1527 C   0  0  0  0  0  0  0  0  0  0  0  0
    9.1840   -5.8262   27.2413 H   0  0  0  0  0  0  0  0  0  0  0  0
    7.9407   -4.5811   27.4241 H   0  0  0  0  0  0  0  0  0  0  0  0
    9.6141   -4.2440   27.8960 H   0  0  0  0  0  0  0  0  0  0  0  0
    9.0013   -2.7149   25.5831 C   0  0  0  0  0  0  0  0  0  0  0  0
    7.5940   -2.4322   25.0189 C   0  0  0  0  0  0  0  0  0  0  0  0
    6.8473   -2.8642   25.7044 H   0  0  0  0  0  0  0  0  0  0  0  0
    7.4016   -1.3504   24.9959 H   0  0  0  0  0  0  0  0  0  0  0  0
    9.7378   -2.2540   24.9071 H   0  0  0  0  0  0  0  0  0  0  0  0
    9.1301   -2.2207   26.5563 H   0  0  0  0  0  0  0  0  0  0  0  0
   10.3660   -4.3707   25.5412 H   0  0  0  0  0  0  0  0  0  0  0  0
    7.5354   -5.3712   25.0921 H   0  0  0  0  0  0  0  0  0  0  0  0
    9.0576   -6.0181   24.4894 H   0  0  0  0  0  0  0  0  0  0  0  0
    9.2569   -3.9951   22.9586 H   0  0  0  0  0  0  0  0  0  0  0  0
    7.8226   -4.9583   22.6112 H   0  0  0  0  0  0  0  0  0  0  0  0
    6.3283   -3.3311   23.4963 H   0  0  0  0  0  0  0  0  0  0  0  0
    6.6821   -1.6292   21.6888 N   0  0  0  0  0  0  0  0  0  0  0  0
    7.3243   -0.7023   20.9266 N   0  0  0  0  0  0  0  0  0  0  0  0
    6.6377   -0.0169   19.8866 C   0  0  0  0  0  0  0  0  0  0  0  0
    5.4295    0.6332   20.1489 C   0  0  0  0  0  0  0  0  0  0  0  0
    4.8007    1.3163   19.1024 C   0  0  0  0  0  0  0  0  0  0  0  0
    5.3950    1.3031   17.8329 C   0  0  0  0  0  0  0  0  0  0  0  0
    6.5443    0.6656   17.5691 N   0  0  0  0  0  0  0  0  0  0  0  0
    7.1512    0.0326   18.5795 C   0  0  0  0  0  0  0  0  0  0  0  0
    8.0965   -0.4535   18.3456 H   0  0  0  0  0  0  0  0  0  0  0  0
    4.9299    1.8181   16.9946 H   0  0  0  0  0  0  0  0  0  0  0  0
    3.8679    1.8540   19.2511 H   0  0  0  0  0  0  0  0  0  0  0  0
    5.0077    0.5912   21.1550 H   0  0  0  0  0  0  0  0  0  0  0  0
   10.5258   -0.1429   20.6768 H   0  0  0  0  0  0  0  0  0  0  0  0
    9.2672    0.8907   20.0013 H   0  0  0  0  0  0  0  0  0  0  0  0
   10.9660    1.4777   22.9362 C   0  0  0  0  0  0  0  0  0  0  0  0
   10.7875    2.4239   23.8455 N   0  0  0  0  0  0  0  0  0  0  0  0
    9.6340    3.0162   23.5018 N   0  0  0  0  0  0  0  0  0  0  0  0
    9.1365    4.1163   24.3013 C   0  0  0  0  0  0  0  0  0  0  0  0
    9.1229    5.0364   23.7063 H   0  0  0  0  0  0  0  0  0  0  0  0
    9.8130    4.2313   25.1499 H   0  0  0  0  0  0  0  0  0  0  0  0
    8.1241    3.8935   24.6568 H   0  0  0  0  0  0  0  0  0  0  0  0
   11.8178    0.8101   23.0251 H   0  0  0  0  0  0  0  0  0  0  0  0
    7.5196    3.9435   21.9306 H   0  0  0  0  0  0  0  0  0  0  0  0
    7.6941    2.5979   20.7792 H   0  0  0  0  0  0  0  0  0  0  0  0
    6.9083    2.3309   22.3270 H   0  0  0  0  0  0  0  0  0  0  0  0
  1  2  1  0
  2  3  2  0
  3  4  1  0
  4  5  1  0
  5  6  2  0
  6  7  1  0
  7  8  1  0
  8  9  1  0
  9 10  1  0
 10 11  1  0
 11 12  1  0
 12 13  1  0
 12 14  1  0
 12 15  1  0
 11 16  1  0
 16 17  1  0
 17 18  1  0
 17 19  1  0
 16 20  1  0
 16 21  1  0
 11 22  1  0
 10 23  1  0
 10 24  1  0
  9 25  1  0
  9 26  1  0
  8 27  1  0
  7 28  2  0
 28 29  1  0
 29 30  1  0
 30 31  2  0
 31 32  1  0
 32 33  2  0
 33 34  1  0
 34 35  2  0
 35 36  1  0
 33 37  1  0
 32 38  1  0
 31 39  1  0
  4 40  1  0
  4 41  1  0
  3 42  1  0
 42 43  2  0
 43 44  1  0
 44 45  1  0
 45 46  1  0
 45 47  1  0
 45 48  1  0
 42 49  1  0
  1 50  1  0
  1 51  1  0
  1 52  1  0
 44  2  1  0
 29  5  1  0
 35 30  1  0
 17  8  1  0
M  END
>  <cnnaffinity>  (1) 
-6.56127

>  <filename>  (1) 
Cc1c(Cc2nc(C3CCC(C)CC3)nn2-c2cccnc2)cnn1C

$$$$
