
     RDKit          3D

 47 50  0  0  0  0  0  0  0  0999 V2000
    9.6076   -4.0330   26.5367 C   0  0  0  0  0  0  0  0  0  0  0  0
    8.2041   -4.5214   26.1464 C   0  0  0  0  0  0  0  0  0  0  0  0
    8.2311   -5.2127   24.7647 C   0  0  0  0  0  0  0  0  0  0  0  0
    8.4501   -4.2089   23.6262 C   0  0  0  0  0  0  0  0  0  0  0  0
    7.3677   -3.1062   23.6235 C   0  0  0  0  0  0  0  0  0  0  0  0
    7.6404   -2.1369   22.5192 C   0  0  0  0  0  0  0  0  0  0  0  0
    6.7316   -1.6597   21.7003 N   0  0  0  0  0  0  0  0  0  0  0  0
    7.4234   -0.7269   20.9847 N   0  0  0  0  0  0  0  0  0  0  0  0
    6.7554   -0.0374   19.9294 C   0  0  0  0  0  0  0  0  0  0  0  0
    5.5348    0.6039   20.1811 C   0  0  0  0  0  0  0  0  0  0  0  0
    4.9017    1.2700   19.1302 C   0  0  0  0  0  0  0  0  0  0  0  0
    5.4958    1.2655   17.8623 C   0  0  0  0  0  0  0  0  0  0  0  0
    6.6478    0.6239   17.6069 N   0  0  0  0  0  0  0  0  0  0  0  0
    7.2536   -0.0144   18.6161 C   0  0  0  0  0  0  0  0  0  0  0  0
    8.1715   -0.5443   18.3633 H   0  0  0  0  0  0  0  0  0  0  0  0
    5.0283    1.7842   17.0248 H   0  0  0  0  0  0  0  0  0  0  0  0
    3.9633    1.7948   19.2806 H   0  0  0  0  0  0  0  0  0  0  0  0
    5.1077    0.5665   21.1844 H   0  0  0  0  0  0  0  0  0  0  0  0
    8.6962   -0.6585   21.4766 C   0  0  0  0  0  0  0  0  0  0  0  0
    9.6367    0.4934   21.2615 C   0  0  0  0  0  0  0  0  0  0  0  0
    9.1220    1.8071   21.8015 C   0  0  0  0  0  0  0  0  0  0  0  0
    8.2280    2.5970   21.1853 C   0  0  0  0  0  0  0  0  0  0  0  0
    7.8325    3.6933   21.9614 N   0  0  0  0  0  0  0  0  0  0  0  0
    8.6226    3.5994   23.1290 N   0  0  0  0  0  0  0  0  0  0  0  0
    9.3690    2.4025   23.1282 C   0  0  0  0  0  0  0  0  0  0  0  0
   10.0007    2.0290   24.0944 O   0  0  0  0  0  0  0  0  0  0  0  0
    8.1266    3.6767   24.0194 H   0  0  0  0  0  0  0  0  0  0  0  0
    7.9776    4.5864   21.4767 H   0  0  0  0  0  0  0  0  0  0  0  0
    7.7732    2.4144   20.2172 H   0  0  0  0  0  0  0  0  0  0  0  0
   10.5905    0.2168   21.7200 H   0  0  0  0  0  0  0  0  0  0  0  0
    9.8026    0.5949   20.1880 H   0  0  0  0  0  0  0  0  0  0  0  0
    8.8825   -1.5979   22.3727 N   0  0  0  0  0  0  0  0  0  0  0  0
    7.3380   -2.3825   25.0029 C   0  0  0  0  0  0  0  0  0  0  0  0
    7.1597   -3.3799   26.1606 C   0  0  0  0  0  0  0  0  0  0  0  0
    7.2080   -2.8454   27.1200 H   0  0  0  0  0  0  0  0  0  0  0  0
    6.1494   -3.8147   26.0979 H   0  0  0  0  0  0  0  0  0  0  0  0
    6.5315   -1.6368   25.0211 H   0  0  0  0  0  0  0  0  0  0  0  0
    8.2782   -1.8186   25.1346 H   0  0  0  0  0  0  0  0  0  0  0  0
    6.3758   -3.5391   23.4263 H   0  0  0  0  0  0  0  0  0  0  0  0
    8.4727   -4.7180   22.6553 H   0  0  0  0  0  0  0  0  0  0  0  0
    9.4335   -3.7239   23.7386 H   0  0  0  0  0  0  0  0  0  0  0  0
    9.0265   -5.9705   24.7472 H   0  0  0  0  0  0  0  0  0  0  0  0
    7.2822   -5.7450   24.5945 H   0  0  0  0  0  0  0  0  0  0  0  0
    7.8901   -5.2657   26.8922 H   0  0  0  0  0  0  0  0  0  0  0  0
    9.6007   -3.5511   27.5155 H   0  0  0  0  0  0  0  0  0  0  0  0
    9.9881   -3.3006   25.8149 H   0  0  0  0  0  0  0  0  0  0  0  0
   10.3179   -4.8682   26.5681 H   0  0  0  0  0  0  0  0  0  0  0  0
  1  2  1  0
  2  3  1  0
  3  4  1  0
  4  5  1  0
  5  6  1  0
  6  7  2  0
  7  8  1  0
  8  9  1  0
  9 10  2  0
 10 11  1  0
 11 12  2  0
 12 13  1  0
 13 14  2  0
 14 15  1  0
 12 16  1  0
 11 17  1  0
 10 18  1  0
  8 19  1  0
 19 20  1  0
 20 21  1  0
 21 22  2  0
 22 23  1  0
 23 24  1  0
 24 25  1  0
 25 26  2  0
 24 27  1  0
 23 28  1  0
 22 29  1  0
 20 30  1  0
 20 31  1  0
 19 32  2  0
  5 33  1  0
 33 34  1  0
 34 35  1  0
 34 36  1  0
 33 37  1  0
 33 38  1  0
  5 39  1  0
  4 40  1  0
  4 41  1  0
  3 42  1  0
  3 43  1  0
  2 44  1  0
  1 45  1  0
  1 46  1  0
  1 47  1  0
 34  2  1  0
 32  6  1  0
 14  9  1  0
 25 21  1  0
M  END
>  <cnnaffinity>  (1) 
-6.18179

>  <filename>  (1) 
CC1CCC(c2nc(Cc3c[nH][nH]c3=O)n(-c3cccnc3)n2)CC1

$$$$
