
     RDKit          3D

 46 49  0  0  0  0  0  0  0  0999 V2000
    9.0407    2.6328   22.5481 C   0  0  0  0  0  0  0  0  0  0  0  0
   10.2994    1.8136   22.5540 C   0  0  0  0  0  0  0  0  0  0  0  0
   11.4287    1.8964   23.3458 C   0  0  0  0  0  0  0  0  0  0  0  0
   12.2958    0.8967   22.8452 C   0  0  0  0  0  0  0  0  0  0  0  0
   13.6981    0.5488   23.2880 C   0  0  0  0  0  0  0  0  0  0  0  0
   13.7577    0.4763   24.6357 F   0  0  0  0  0  0  0  0  0  0  0  0
   14.5792    1.4883   22.9027 F   0  0  0  0  0  0  0  0  0  0  0  0
   14.1251   -0.6169   22.7912 F   0  0  0  0  0  0  0  0  0  0  0  0
   11.7313    0.2432   21.8440 N   0  0  0  0  0  0  0  0  0  0  0  0
   10.5257    0.7879   21.6786 N   0  0  0  0  0  0  0  0  0  0  0  0
    9.6227    0.1605   20.7327 C   0  0  0  0  0  0  0  0  0  0  0  0
    8.5599   -0.6406   21.4010 C   0  0  0  0  0  0  0  0  0  0  0  0
    8.7312   -1.4354   22.4358 N   0  0  0  0  0  0  0  0  0  0  0  0
    7.4986   -1.9813   22.6210 C   0  0  0  0  0  0  0  0  0  0  0  0
    7.2190   -2.9865   23.6970 C   0  0  0  0  0  0  0  0  0  0  0  0
    7.2534   -4.4299   23.1640 C   0  0  0  0  0  0  0  0  0  0  0  0
    8.6459   -4.9310   22.7059 C   0  0  0  0  0  0  0  0  0  0  0  0
    8.6445   -5.9963   23.8235 C   0  0  0  0  0  0  0  0  0  0  0  0
    7.2041   -5.5815   24.2028 C   0  0  0  0  0  0  0  0  0  0  0  0
    6.4459   -6.3285   23.9435 H   0  0  0  0  0  0  0  0  0  0  0  0
    7.0629   -5.2913   25.2512 H   0  0  0  0  0  0  0  0  0  0  0  0
    8.7588   -7.0204   23.4587 H   0  0  0  0  0  0  0  0  0  0  0  0
    9.3775   -5.8173   24.6172 H   0  0  0  0  0  0  0  0  0  0  0  0
    9.4458   -4.1781   22.7655 H   0  0  0  0  0  0  0  0  0  0  0  0
    8.6270   -5.3850   21.7097 H   0  0  0  0  0  0  0  0  0  0  0  0
    6.4745   -4.5571   22.3980 H   0  0  0  0  0  0  0  0  0  0  0  0
    7.9780   -2.8356   24.4762 H   0  0  0  0  0  0  0  0  0  0  0  0
    6.2358   -2.7759   24.1335 H   0  0  0  0  0  0  0  0  0  0  0  0
    6.5893   -1.5817   21.7521 N   0  0  0  0  0  0  0  0  0  0  0  0
    7.2807   -0.7422   20.9400 N   0  0  0  0  0  0  0  0  0  0  0  0
    6.6163   -0.0472   19.8883 C   0  0  0  0  0  0  0  0  0  0  0  0
    5.4150    0.6222   20.1437 C   0  0  0  0  0  0  0  0  0  0  0  0
    4.8161    1.3148   19.0918 C   0  0  0  0  0  0  0  0  0  0  0  0
    5.4156    1.3063   17.8272 C   0  0  0  0  0  0  0  0  0  0  0  0
    6.5572    0.6467   17.5700 N   0  0  0  0  0  0  0  0  0  0  0  0
    7.1333   -0.0099   18.5827 C   0  0  0  0  0  0  0  0  0  0  0  0
    8.0668   -0.5233   18.3540 H   0  0  0  0  0  0  0  0  0  0  0  0
    4.9685    1.8348   16.9887 H   0  0  0  0  0  0  0  0  0  0  0  0
    3.8880    1.8557   19.2365 H   0  0  0  0  0  0  0  0  0  0  0  0
    4.9815    0.5939   21.1455 H   0  0  0  0  0  0  0  0  0  0  0  0
   10.2261   -0.5362   20.1495 H   0  0  0  0  0  0  0  0  0  0  0  0
    9.2054    0.9112   20.0612 H   0  0  0  0  0  0  0  0  0  0  0  0
   11.5927    2.5580   24.1859 H   0  0  0  0  0  0  0  0  0  0  0  0
    8.1457    2.0055   22.6581 H   0  0  0  0  0  0  0  0  0  0  0  0
    9.0555    3.3482   23.3755 H   0  0  0  0  0  0  0  0  0  0  0  0
    8.9361    3.2082   21.6184 H   0  0  0  0  0  0  0  0  0  0  0  0
  1  2  1  0
  2  3  2  0
  3  4  1  0
  4  5  1  0
  5  6  1  0
  5  7  1  0
  5  8  1  0
  4  9  2  0
  9 10  1  0
 10 11  1  0
 11 12  1  0
 12 13  2  0
 13 14  1  0
 14 15  1  0
 15 16  1  0
 16 17  1  0
 17 18  1  0
 18 19  1  0
 19 20  1  0
 19 21  1  0
 18 22  1  0
 18 23  1  0
 17 24  1  0
 17 25  1  0
 16 26  1  0
 15 27  1  0
 15 28  1  0
 14 29  2  0
 29 30  1  0
 30 31  1  0
 31 32  2  0
 32 33  1  0
 33 34  2  0
 34 35  1  0
 35 36  2  0
 36 37  1  0
 34 38  1  0
 33 39  1  0
 32 40  1  0
 11 41  1  0
 11 42  1  0
  3 43  1  0
  1 44  1  0
  1 45  1  0
  1 46  1  0
 10  2  1  0
 30 12  1  0
 36 31  1  0
 19 16  1  0
M  END
>  <cnnaffinity>  (1) 
-6.69684

>  <filename>  (1) 
Cc1cc(C(F)(F)F)nn1Cc1nc(CC2CCC2)nn1-c1cccnc1

$$$$
