
     RDKit          3D

 43 46  0  0  0  0  0  0  0  0999 V2000
    9.3571   -4.8385   26.3526 C   0  0  0  0  0  0  0  0  0  0  0  0
    8.2356   -4.4072   25.4336 C   0  0  0  0  0  0  0  0  0  0  0  0
    6.9659   -4.9936   25.5388 C   0  0  0  0  0  0  0  0  0  0  0  0
    5.9301   -4.6158   24.6777 C   0  0  0  0  0  0  0  0  0  0  0  0
    6.1466   -3.6484   23.6989 C   0  0  0  0  0  0  0  0  0  0  0  0
    7.4178   -3.0517   23.5697 C   0  0  0  0  0  0  0  0  0  0  0  0
    7.6568   -2.0284   22.5256 C   0  0  0  0  0  0  0  0  0  0  0  0
    6.7139   -1.6068   21.6966 N   0  0  0  0  0  0  0  0  0  0  0  0
    7.3488   -0.6886   20.9330 N   0  0  0  0  0  0  0  0  0  0  0  0
    6.6531   -0.0009   19.8997 C   0  0  0  0  0  0  0  0  0  0  0  0
    5.4386    0.6414   20.1670 C   0  0  0  0  0  0  0  0  0  0  0  0
    4.8130    1.3112   19.1089 C   0  0  0  0  0  0  0  0  0  0  0  0
    5.3996    1.2969   17.8362 C   0  0  0  0  0  0  0  0  0  0  0  0
    6.5550    0.6691   17.5720 N   0  0  0  0  0  0  0  0  0  0  0  0
    7.1638    0.0472   18.5891 C   0  0  0  0  0  0  0  0  0  0  0  0
    8.1104   -0.4349   18.3620 H   0  0  0  0  0  0  0  0  0  0  0  0
    4.9228    1.7893   16.9916 H   0  0  0  0  0  0  0  0  0  0  0  0
    3.8804    1.8396   19.2584 H   0  0  0  0  0  0  0  0  0  0  0  0
    5.0142    0.6043   21.1758 H   0  0  0  0  0  0  0  0  0  0  0  0
    8.6270   -0.5511   21.3989 C   0  0  0  0  0  0  0  0  0  0  0  0
    9.6147    0.4411   20.9068 C   0  0  0  0  0  0  0  0  0  0  0  0
   10.0172    1.3688   21.9433 N   0  0  0  0  0  0  0  0  0  0  0  0
   11.1781    1.1893   22.5946 N   0  0  0  0  0  0  0  0  0  0  0  0
   11.1717    2.0876   23.5662 C   0  0  0  0  0  0  0  0  0  0  0  0
    9.9839    2.8470   23.5576 C   0  0  0  0  0  0  0  0  0  0  0  0
    9.2531    2.3441   22.5074 C   0  0  0  0  0  0  0  0  0  0  0  0
    7.8728    2.7099   22.0596 C   0  0  0  0  0  0  0  0  0  0  0  0
    7.6024    3.6728   22.4950 H   0  0  0  0  0  0  0  0  0  0  0  0
    7.7909    2.7777   20.9744 H   0  0  0  0  0  0  0  0  0  0  0  0
    7.1263    1.9761   22.3846 H   0  0  0  0  0  0  0  0  0  0  0  0
    9.6780    3.6578   24.2034 H   0  0  0  0  0  0  0  0  0  0  0  0
   12.0109    2.1570   24.2445 H   0  0  0  0  0  0  0  0  0  0  0  0
   10.5015   -0.1054   20.6014 H   0  0  0  0  0  0  0  0  0  0  0  0
    9.2107    1.0065   20.0708 H   0  0  0  0  0  0  0  0  0  0  0  0
    8.8603   -1.4158   22.3536 N   0  0  0  0  0  0  0  0  0  0  0  0
    8.4508   -3.4383   24.4458 C   0  0  0  0  0  0  0  0  0  0  0  0
    9.4364   -2.9796   24.3550 H   0  0  0  0  0  0  0  0  0  0  0  0
    5.3431   -3.3403   23.0318 H   0  0  0  0  0  0  0  0  0  0  0  0
    4.9520   -5.0784   24.7730 H   0  0  0  0  0  0  0  0  0  0  0  0
    6.7992   -5.7510   26.3035 H   0  0  0  0  0  0  0  0  0  0  0  0
   10.0618   -4.0254   26.5484 H   0  0  0  0  0  0  0  0  0  0  0  0
    9.9309   -5.6629   25.9164 H   0  0  0  0  0  0  0  0  0  0  0  0
    8.9827   -5.1900   27.3185 H   0  0  0  0  0  0  0  0  0  0  0  0
  1  2  1  0
  2  3  2  0
  3  4  1  0
  4  5  2  0
  5  6  1  0
  6  7  1  0
  7  8  2  0
  8  9  1  0
  9 10  1  0
 10 11  2  0
 11 12  1  0
 12 13  2  0
 13 14  1  0
 14 15  2  0
 15 16  1  0
 13 17  1  0
 12 18  1  0
 11 19  1  0
  9 20  1  0
 20 21  1  0
 21 22  1  0
 22 23  1  0
 23 24  2  0
 24 25  1  0
 25 26  2  0
 26 27  1  0
 27 28  1  0
 27 29  1  0
 27 30  1  0
 25 31  1  0
 24 32  1  0
 21 33  1  0
 21 34  1  0
 20 35  2  0
  6 36  2  0
 36 37  1  0
  5 38  1  0
  4 39  1  0
  3 40  1  0
  1 41  1  0
  1 42  1  0
  1 43  1  0
 36  2  1  0
 35  7  1  0
 15 10  1  0
 26 22  1  0
M  END
>  <cnnaffinity>  (1) 
-5.9867

>  <filename>  (1) 
Cc1cccc(-c2nc(Cn3nccc3C)n(-c3cccnc3)n2)c1

$$$$
