
     RDKit          3D

 47 50  0  0  0  0  0  0  0  0999 V2000
    9.3865   -4.8536   26.3381 C   0  0  0  0  0  0  0  0  0  0  0  0
    8.2458   -4.4038   25.4453 C   0  0  0  0  0  0  0  0  0  0  0  0
    6.9574   -4.9436   25.5973 C   0  0  0  0  0  0  0  0  0  0  0  0
    5.8979   -4.5456   24.7709 C   0  0  0  0  0  0  0  0  0  0  0  0
    6.1058   -3.5972   23.7744 C   0  0  0  0  0  0  0  0  0  0  0  0
    7.3880   -3.0476   23.5967 C   0  0  0  0  0  0  0  0  0  0  0  0
    7.6031   -2.0427   22.5407 C   0  0  0  0  0  0  0  0  0  0  0  0
    6.6541   -1.6107   21.7224 N   0  0  0  0  0  0  0  0  0  0  0  0
    7.3007   -0.7076   20.9488 N   0  0  0  0  0  0  0  0  0  0  0  0
    6.6289   -0.0255   19.8935 C   0  0  0  0  0  0  0  0  0  0  0  0
    5.4212    0.6280   20.1518 C   0  0  0  0  0  0  0  0  0  0  0  0
    4.7998    1.3102   19.1014 C   0  0  0  0  0  0  0  0  0  0  0  0
    5.3955    1.2969   17.8343 C   0  0  0  0  0  0  0  0  0  0  0  0
    6.5429    0.6531   17.5721 N   0  0  0  0  0  0  0  0  0  0  0  0
    7.1454    0.0182   18.5841 C   0  0  0  0  0  0  0  0  0  0  0  0
    8.0938   -0.4617   18.3447 H   0  0  0  0  0  0  0  0  0  0  0  0
    4.9360    1.8180   16.9965 H   0  0  0  0  0  0  0  0  0  0  0  0
    3.8724    1.8534   19.2535 H   0  0  0  0  0  0  0  0  0  0  0  0
    5.0054    0.5897   21.1587 H   0  0  0  0  0  0  0  0  0  0  0  0
    8.5923   -0.6116   21.3661 C   0  0  0  0  0  0  0  0  0  0  0  0
    9.6269    0.3008   20.7789 C   0  0  0  0  0  0  0  0  0  0  0  0
   10.4570    1.0576   21.8065 C   0  0  0  0  0  0  0  0  0  0  0  0
    9.9488    2.1790   22.4729 C   0  0  0  0  0  0  0  0  0  0  0  0
    8.6077    2.7504   22.1226 C   0  0  0  0  0  0  0  0  0  0  0  0
    7.8335    1.9780   22.1665 H   0  0  0  0  0  0  0  0  0  0  0  0
    8.3527    3.5471   22.8202 H   0  0  0  0  0  0  0  0  0  0  0  0
    8.6121    3.1535   21.1062 H   0  0  0  0  0  0  0  0  0  0  0  0
   10.6059    2.7704   23.4731 N   0  0  0  0  0  0  0  0  0  0  0  0
   11.7700    2.2290   23.8189 C   0  0  0  0  0  0  0  0  0  0  0  0
   12.3362    1.1532   23.2887 N   0  0  0  0  0  0  0  0  0  0  0  0
   11.6546    0.5410   22.3172 C   0  0  0  0  0  0  0  0  0  0  0  0
   12.1821   -0.7890   21.8506 C   0  0  0  0  0  0  0  0  0  0  0  0
   13.1821   -0.9533   22.2629 H   0  0  0  0  0  0  0  0  0  0  0  0
   11.4915   -1.5659   22.2083 H   0  0  0  0  0  0  0  0  0  0  0  0
   12.2105   -0.8711   20.7542 H   0  0  0  0  0  0  0  0  0  0  0  0
   12.2934    2.6997   24.6455 H   0  0  0  0  0  0  0  0  0  0  0  0
    9.1384    0.9983   20.0974 H   0  0  0  0  0  0  0  0  0  0  0  0
   10.2501   -0.3755   20.1870 H   0  0  0  0  0  0  0  0  0  0  0  0
    8.8144   -1.4641   22.3397 N   0  0  0  0  0  0  0  0  0  0  0  0
    8.4437   -3.4489   24.4406 C   0  0  0  0  0  0  0  0  0  0  0  0
    9.4290   -3.0007   24.3173 H   0  0  0  0  0  0  0  0  0  0  0  0
    5.2954   -3.2575   23.1293 H   0  0  0  0  0  0  0  0  0  0  0  0
    4.9074   -4.9714   24.9035 H   0  0  0  0  0  0  0  0  0  0  0  0
    6.7892   -5.6788   26.3788 H   0  0  0  0  0  0  0  0  0  0  0  0
   10.1141   -4.0525   26.5052 H   0  0  0  0  0  0  0  0  0  0  0  0
    9.0243   -5.1756   27.3197 H   0  0  0  0  0  0  0  0  0  0  0  0
    9.9323   -5.7000   25.9034 H   0  0  0  0  0  0  0  0  0  0  0  0
  1  2  1  0
  2  3  2  0
  3  4  1  0
  4  5  2  0
  5  6  1  0
  6  7  1  0
  7  8  2  0
  8  9  1  0
  9 10  1  0
 10 11  2  0
 11 12  1  0
 12 13  2  0
 13 14  1  0
 14 15  2  0
 15 16  1  0
 13 17  1  0
 12 18  1  0
 11 19  1  0
  9 20  1  0
 20 21  1  0
 21 22  1  0
 22 23  2  0
 23 24  1  0
 24 25  1  0
 24 26  1  0
 24 27  1  0
 23 28  1  0
 28 29  2  0
 29 30  1  0
 30 31  2  0
 31 32  1  0
 32 33  1  0
 32 34  1  0
 32 35  1  0
 29 36  1  0
 21 37  1  0
 21 38  1  0
 20 39  2  0
  6 40  2  0
 40 41  1  0
  5 42  1  0
  4 43  1  0
  3 44  1  0
  1 45  1  0
  1 46  1  0
  1 47  1  0
 40  2  1  0
 39  7  1  0
 15 10  1  0
 31 22  1  0
M  END
>  <cnnaffinity>  (1) 
-6.53359

>  <filename>  (1) 
Cc1cccc(-c2nc(Cc3c(C)ncnc3C)n(-c3cccnc3)n2)c1

$$$$
