
     RDKit          3D

 42 45  0  0  0  0  0  0  0  0999 V2000
    7.8933   -0.4171   27.6208 C   0  0  0  0  0  0  0  0  0  0  0  0
    7.4115    0.1602   26.3293 C   0  0  0  0  0  0  0  0  0  0  0  0
    6.2063   -0.0198   25.7181 C   0  0  0  0  0  0  0  0  0  0  0  0
    6.1091    0.6584   24.4643 C   0  0  0  0  0  0  0  0  0  0  0  0
    7.2455    1.3282   24.1267 C   0  0  0  0  0  0  0  0  0  0  0  0
    7.6567    1.9325   22.8017 C   0  0  0  0  0  0  0  0  0  0  0  0
    8.6487    1.0403   22.1199 C   0  0  0  0  0  0  0  0  0  0  0  0
    9.9587    1.1213   22.2301 N   0  0  0  0  0  0  0  0  0  0  0  0
   10.3844   -0.0791   21.7371 C   0  0  0  0  0  0  0  0  0  0  0  0
   11.8098   -0.5335   21.6423 C   0  0  0  0  0  0  0  0  0  0  0  0
   12.8842    0.2134   22.1848 C   0  0  0  0  0  0  0  0  0  0  0  0
   14.1849   -0.1502   21.8287 C   0  0  0  0  0  0  0  0  0  0  0  0
   14.3515   -1.2389   20.9626 C   0  0  0  0  0  0  0  0  0  0  0  0
   13.2463   -1.9947   20.5943 C   0  0  0  0  0  0  0  0  0  0  0  0
   12.0145   -1.6759   20.9635 N   0  0  0  0  0  0  0  0  0  0  0  0
   13.3387   -2.8681   19.9461 H   0  0  0  0  0  0  0  0  0  0  0  0
   15.2772   -1.5007   20.4906 H   0  0  0  0  0  0  0  0  0  0  0  0
   15.0215    0.4789   22.1284 H   0  0  0  0  0  0  0  0  0  0  0  0
   12.7074    1.0880   22.7996 H   0  0  0  0  0  0  0  0  0  0  0  0
    9.3999   -0.8424   21.2868 N   0  0  0  0  0  0  0  0  0  0  0  0
    8.2978   -0.1269   21.5338 N   0  0  0  0  0  0  0  0  0  0  0  0
    7.0089   -0.6608   21.0983 C   0  0  0  0  0  0  0  0  0  0  0  0
    6.3811    0.0788   19.9380 C   0  0  0  0  0  0  0  0  0  0  0  0
    5.1595    0.7510   20.0429 C   0  0  0  0  0  0  0  0  0  0  0  0
    4.6559    1.4167   18.9221 C   0  0  0  0  0  0  0  0  0  0  0  0
    5.3908    1.3716   17.7325 C   0  0  0  0  0  0  0  0  0  0  0  0
    6.5526    0.7114   17.6025 N   0  0  0  0  0  0  0  0  0  0  0  0
    7.0285    0.0912   18.6892 C   0  0  0  0  0  0  0  0  0  0  0  0
    7.9729   -0.4393   18.5643 H   0  0  0  0  0  0  0  0  0  0  0  0
    5.0365    1.8898   16.8436 H   0  0  0  0  0  0  0  0  0  0  0  0
    3.7260    1.9741   18.9592 H   0  0  0  0  0  0  0  0  0  0  0  0
    4.6069    0.7489   20.9870 H   0  0  0  0  0  0  0  0  0  0  0  0
    7.2164   -1.6984   20.8204 H   0  0  0  0  0  0  0  0  0  0  0  0
    6.3368   -0.6909   21.9598 H   0  0  0  0  0  0  0  0  0  0  0  0
    6.7912    2.0599   22.1447 H   0  0  0  0  0  0  0  0  0  0  0  0
    8.1390    2.9025   22.9492 H   0  0  0  0  0  0  0  0  0  0  0  0
    8.4200    1.2087   25.3960 S   0  0  0  0  0  0  0  0  0  0  0  0
    5.2212    0.6463   23.8426 H   0  0  0  0  0  0  0  0  0  0  0  0
    5.4191   -0.6329   26.1405 H   0  0  0  0  0  0  0  0  0  0  0  0
    7.7907    0.3123   28.4334 H   0  0  0  0  0  0  0  0  0  0  0  0
    8.9464   -0.7111   27.5708 H   0  0  0  0  0  0  0  0  0  0  0  0
    7.2936   -1.2944   27.8826 H   0  0  0  0  0  0  0  0  0  0  0  0
  1  2  1  0
  2  3  2  0
  3  4  1  0
  4  5  2  0
  5  6  1  0
  6  7  1  0
  7  8  2  0
  8  9  1  0
  9 10  1  0
 10 11  2  0
 11 12  1  0
 12 13  2  0
 13 14  1  0
 14 15  2  0
 14 16  1  0
 13 17  1  0
 12 18  1  0
 11 19  1  0
  9 20  2  0
 20 21  1  0
 21 22  1  0
 22 23  1  0
 23 24  2  0
 24 25  1  0
 25 26  2  0
 26 27  1  0
 27 28  2  0
 28 29  1  0
 26 30  1  0
 25 31  1  0
 24 32  1  0
 22 33  1  0
 22 34  1  0
  6 35  1  0
  6 36  1  0
  5 37  1  0
  4 38  1  0
  3 39  1  0
  1 40  1  0
  1 41  1  0
  1 42  1  0
 37  2  1  0
 21  7  1  0
 28 23  1  0
 15 10  1  0
M  END
>  <cnnaffinity>  (1) 
-6.56558

>  <filename>  (1) 
Cc1ccc(Cc2nc(-c3ccccn3)nn2Cc2cccnc2)s1

$$$$
