
     RDKit          3D

 45 48  0  0  0  0  0  0  0  0999 V2000
   11.1019    1.3921   23.3793 C   0  0  0  0  0  0  0  0  0  0  0  0
   10.5615    2.8121   23.4411 C   0  0  0  0  0  0  0  0  0  0  0  0
   11.1594    3.7397   24.3006 C   0  0  0  0  0  0  0  0  0  0  0  0
   10.6969    5.0528   24.4294 C   0  0  0  0  0  0  0  0  0  0  0  0
    9.5987    5.4733   23.6741 C   0  0  0  0  0  0  0  0  0  0  0  0
    8.9822    4.5624   22.8114 C   0  0  0  0  0  0  0  0  0  0  0  0
    9.5006    3.2659   22.6286 C   0  0  0  0  0  0  0  0  0  0  0  0
    8.8996    2.4205   21.5190 C   0  0  0  0  0  0  0  0  0  0  0  0
    7.4916    2.2902   21.6823 O   0  0  0  0  0  0  0  0  0  0  0  0
    7.1152    1.3907   22.7108 C   0  0  0  0  0  0  0  0  0  0  0  0
    7.4036   -0.0389   22.3516 C   0  0  0  0  0  0  0  0  0  0  0  0
    8.0692   -0.9184   23.0829 N   0  0  0  0  0  0  0  0  0  0  0  0
    8.3104   -1.9238   22.2041 C   0  0  0  0  0  0  0  0  0  0  0  0
    9.1312   -3.1174   22.5236 C   0  0  0  0  0  0  0  0  0  0  0  0
   10.5659   -2.7823   23.0227 C   0  0  0  0  0  0  0  0  0  0  0  0
   10.3304   -3.7355   24.5551 S   0  0  0  0  0  0  0  0  0  0  0  0
    8.7079   -3.9648   23.7517 C   0  0  0  0  0  0  0  0  0  0  0  0
    7.8721   -3.5603   24.3306 H   0  0  0  0  0  0  0  0  0  0  0  0
    8.5035   -5.0131   23.5161 H   0  0  0  0  0  0  0  0  0  0  0  0
   10.7426   -1.7195   23.2248 H   0  0  0  0  0  0  0  0  0  0  0  0
   11.3755   -3.1592   22.3953 H   0  0  0  0  0  0  0  0  0  0  0  0
    9.1028   -3.7005   21.6047 H   0  0  0  0  0  0  0  0  0  0  0  0
    7.8389   -1.7272   20.9902 N   0  0  0  0  0  0  0  0  0  0  0  0
    7.2136   -0.5261   21.0909 N   0  0  0  0  0  0  0  0  0  0  0  0
    6.5586    0.0503   19.9706 C   0  0  0  0  0  0  0  0  0  0  0  0
    5.3486    0.7417   20.1075 C   0  0  0  0  0  0  0  0  0  0  0  0
    4.8110    1.3505   18.9707 C   0  0  0  0  0  0  0  0  0  0  0  0
    5.4844    1.2403   17.7518 C   0  0  0  0  0  0  0  0  0  0  0  0
    6.6230    0.5370   17.6063 N   0  0  0  0  0  0  0  0  0  0  0  0
    7.1341   -0.0540   18.6898 C   0  0  0  0  0  0  0  0  0  0  0  0
    8.0466   -0.6312   18.5482 H   0  0  0  0  0  0  0  0  0  0  0  0
    5.0937    1.7202   16.8561 H   0  0  0  0  0  0  0  0  0  0  0  0
    3.8900    1.9202   19.0295 H   0  0  0  0  0  0  0  0  0  0  0  0
    4.8429    0.8071   21.0697 H   0  0  0  0  0  0  0  0  0  0  0  0
    7.6291    1.6229   23.6551 H   0  0  0  0  0  0  0  0  0  0  0  0
    6.0471    1.5445   22.8734 H   0  0  0  0  0  0  0  0  0  0  0  0
    9.0121    2.9091   20.5457 H   0  0  0  0  0  0  0  0  0  0  0  0
    9.3822    1.4340   21.4247 H   0  0  0  0  0  0  0  0  0  0  0  0
    8.1100    4.8394   22.2231 H   0  0  0  0  0  0  0  0  0  0  0  0
    9.2621    6.5102   23.6866 H   0  0  0  0  0  0  0  0  0  0  0  0
   11.2085    5.7316   25.1091 H   0  0  0  0  0  0  0  0  0  0  0  0
   12.0234    3.4076   24.8600 H   0  0  0  0  0  0  0  0  0  0  0  0
   10.3042    0.6379   23.4281 H   0  0  0  0  0  0  0  0  0  0  0  0
   11.6687    1.2251   22.4556 H   0  0  0  0  0  0  0  0  0  0  0  0
   11.7988    1.1966   24.2032 H   0  0  0  0  0  0  0  0  0  0  0  0
  1  2  1  0
  2  3  2  0
  3  4  1  0
  4  5  2  0
  5  6  1  0
  6  7  2  0
  7  8  1  0
  8  9  1  0
  9 10  1  0
 10 11  1  0
 11 12  2  0
 12 13  1  0
 13 14  1  0
 14 15  1  0
 15 16  1  0
 16 17  1  0
 17 18  1  0
 17 19  1  0
 15 20  1  0
 15 21  1  0
 14 22  1  0
 13 23  2  0
 23 24  1  0
 24 25  1  0
 25 26  2  0
 26 27  1  0
 27 28  2  0
 28 29  1  0
 29 30  2  0
 30 31  1  0
 28 32  1  0
 27 33  1  0
 26 34  1  0
 10 35  1  0
 10 36  1  0
  8 37  1  0
  8 38  1  0
  6 39  1  0
  5 40  1  0
  4 41  1  0
  3 42  1  0
  1 43  1  0
  1 44  1  0
  1 45  1  0
  7  2  1  0
 24 11  1  0
 30 25  1  0
 17 14  1  0
M  END
>  <cnnaffinity>  (1) 
-5.9308

>  <filename>  (1) 
Cc1ccccc1COCc1nc(C2CSC2)nn1-c1cccnc1

$$$$
