
     RDKit          3D

 42 45  0  0  0  0  0  0  0  0999 V2000
    7.4827   -0.3354   27.6471 C   0  0  0  0  0  0  0  0  0  0  0  0
    6.9062    0.1884   26.3763 C   0  0  0  0  0  0  0  0  0  0  0  0
    5.6955   -0.1211   25.9806 N   0  0  0  0  0  0  0  0  0  0  0  0
    5.5302    0.5061   24.7548 O   0  0  0  0  0  0  0  0  0  0  0  0
    6.6425    1.1757   24.4482 C   0  0  0  0  0  0  0  0  0  0  0  0
    6.7591    1.8008   23.0904 C   0  0  0  0  0  0  0  0  0  0  0  0
    7.7906    1.0248   22.3327 C   0  0  0  0  0  0  0  0  0  0  0  0
    9.0807    1.1951   22.5216 N   0  0  0  0  0  0  0  0  0  0  0  0
    9.6353    0.0941   21.9510 C   0  0  0  0  0  0  0  0  0  0  0  0
   11.0970   -0.1734   21.9942 C   0  0  0  0  0  0  0  0  0  0  0  0
   11.9755    0.6839   22.6899 C   0  0  0  0  0  0  0  0  0  0  0  0
   13.3200    0.3407   22.7915 C   0  0  0  0  0  0  0  0  0  0  0  0
   14.1332    1.1514   23.4842 F   0  0  0  0  0  0  0  0  0  0  0  0
   13.8380   -0.8002   22.1834 C   0  0  0  0  0  0  0  0  0  0  0  0
   12.9737   -1.6288   21.4681 C   0  0  0  0  0  0  0  0  0  0  0  0
   11.6124   -1.3281   21.3742 C   0  0  0  0  0  0  0  0  0  0  0  0
   10.9321   -1.9783   20.8399 H   0  0  0  0  0  0  0  0  0  0  0  0
   13.3799   -2.5081   20.9825 H   0  0  0  0  0  0  0  0  0  0  0  0
   14.8833   -1.0593   22.2891 H   0  0  0  0  0  0  0  0  0  0  0  0
   11.6557    1.6229   23.1323 H   0  0  0  0  0  0  0  0  0  0  0  0
    8.7458   -0.7329   21.4144 N   0  0  0  0  0  0  0  0  0  0  0  0
    7.5623   -0.1285   21.6704 N   0  0  0  0  0  0  0  0  0  0  0  0
    6.3190   -0.6341   21.0891 C   0  0  0  0  0  0  0  0  0  0  0  0
    5.9276    0.0689   19.8041 C   0  0  0  0  0  0  0  0  0  0  0  0
    4.7450    0.8058   19.6839 C   0  0  0  0  0  0  0  0  0  0  0  0
    4.5331    1.5518   18.5203 C   0  0  0  0  0  0  0  0  0  0  0  0
    5.4990    1.5095   17.5106 C   0  0  0  0  0  0  0  0  0  0  0  0
    6.6052    0.7521   17.5789 N   0  0  0  0  0  0  0  0  0  0  0  0
    6.7993    0.0497   18.7019 C   0  0  0  0  0  0  0  0  0  0  0  0
    7.6927   -0.5773   18.7359 H   0  0  0  0  0  0  0  0  0  0  0  0
    5.3817    2.1046   16.6041 H   0  0  0  0  0  0  0  0  0  0  0  0
    3.6463    2.1624   18.3891 H   0  0  0  0  0  0  0  0  0  0  0  0
    4.0027    0.7989   20.4871 H   0  0  0  0  0  0  0  0  0  0  0  0
    5.5374   -0.4962   21.8384 H   0  0  0  0  0  0  0  0  0  0  0  0
    6.4556   -1.7104   20.9440 H   0  0  0  0  0  0  0  0  0  0  0  0
    5.7915    1.8444   22.5905 H   0  0  0  0  0  0  0  0  0  0  0  0
    7.1514    2.8118   23.1927 H   0  0  0  0  0  0  0  0  0  0  0  0
    7.5553    1.0273   25.4358 C   0  0  0  0  0  0  0  0  0  0  0  0
    8.5788    1.3727   25.4265 H   0  0  0  0  0  0  0  0  0  0  0  0
    7.8065    0.4914   28.2863 H   0  0  0  0  0  0  0  0  0  0  0  0
    6.7474   -0.9407   28.1789 H   0  0  0  0  0  0  0  0  0  0  0  0
    8.3622   -0.9520   27.4348 H   0  0  0  0  0  0  0  0  0  0  0  0
  1  2  1  0
  2  3  2  0
  3  4  1  0
  4  5  1  0
  5  6  1  0
  6  7  1  0
  7  8  2  0
  8  9  1  0
  9 10  1  0
 10 11  2  0
 11 12  1  0
 12 13  1  0
 12 14  2  0
 14 15  1  0
 15 16  2  0
 16 17  1  0
 15 18  1  0
 14 19  1  0
 11 20  1  0
  9 21  2  0
 21 22  1  0
 22 23  1  0
 23 24  1  0
 24 25  2  0
 25 26  1  0
 26 27  2  0
 27 28  1  0
 28 29  2  0
 29 30  1  0
 27 31  1  0
 26 32  1  0
 25 33  1  0
 23 34  1  0
 23 35  1  0
  6 36  1  0
  6 37  1  0
  5 38  2  0
 38 39  1  0
  1 40  1  0
  1 41  1  0
  1 42  1  0
 38  2  1  0
 22  7  1  0
 29 24  1  0
 16 10  1  0
M  END
>  <cnnaffinity>  (1) 
-6.11998

>  <filename>  (1) 
Cc1cc(Cc2nc(-c3cccc(F)c3)nn2Cc2cccnc2)on1

$$$$
