
     RDKit          3D

 46 49  0  0  0  0  0  0  0  0999 V2000
   13.9245    0.7392   23.6030 C   0  0  0  0  0  0  0  0  0  0  0  0
   12.8671    0.0153   22.8069 C   0  0  0  0  0  0  0  0  0  0  0  0
   11.5199    0.3826   22.8340 C   0  0  0  0  0  0  0  0  0  0  0  0
   10.5431   -0.3129   22.0965 C   0  0  0  0  0  0  0  0  0  0  0  0
    9.1376    0.1151   22.1895 C   0  0  0  0  0  0  0  0  0  0  0  0
    8.1480   -0.5187   21.5751 N   0  0  0  0  0  0  0  0  0  0  0  0
    7.0633    0.2292   21.8697 N   0  0  0  0  0  0  0  0  0  0  0  0
    5.7883   -0.0521   21.2248 C   0  0  0  0  0  0  0  0  0  0  0  0
    5.6054    0.6329   19.8885 C   0  0  0  0  0  0  0  0  0  0  0  0
    4.6705    1.6510   19.6755 C   0  0  0  0  0  0  0  0  0  0  0  0
    4.5494    2.1912   18.3935 C   0  0  0  0  0  0  0  0  0  0  0  0
    5.3832    1.7090   17.3811 C   0  0  0  0  0  0  0  0  0  0  0  0
    6.3044    0.7520   17.5688 N   0  0  0  0  0  0  0  0  0  0  0  0
    6.4101    0.2476   18.8011 C   0  0  0  0  0  0  0  0  0  0  0  0
    7.1783   -0.5104   18.9545 H   0  0  0  0  0  0  0  0  0  0  0  0
    5.3106    2.1061   16.3723 H   0  0  0  0  0  0  0  0  0  0  0  0
    3.8454    2.9847   18.1707 H   0  0  0  0  0  0  0  0  0  0  0  0
    4.0629    2.0348   20.4990 H   0  0  0  0  0  0  0  0  0  0  0  0
    5.0000    0.2470   21.9178 H   0  0  0  0  0  0  0  0  0  0  0  0
    5.7603   -1.1400   21.1143 H   0  0  0  0  0  0  0  0  0  0  0  0
    7.4448    1.2766   22.6249 C   0  0  0  0  0  0  0  0  0  0  0  0
    6.5193    2.2738   23.2102 C   0  0  0  0  0  0  0  0  0  0  0  0
    6.0020    1.7387   24.4547 N   0  0  0  0  0  0  0  0  0  0  0  0
    4.8742    1.0187   24.3896 N   0  0  0  0  0  0  0  0  0  0  0  0
    4.7808    0.4091   25.5641 C   0  0  0  0  0  0  0  0  0  0  0  0
    5.8737    0.7302   26.3944 C   0  0  0  0  0  0  0  0  0  0  0  0
    6.6531    1.5902   25.6454 C   0  0  0  0  0  0  0  0  0  0  0  0
    7.9605    2.2481   25.9861 C   0  0  0  0  0  0  0  0  0  0  0  0
    7.9613    2.5586   27.0337 H   0  0  0  0  0  0  0  0  0  0  0  0
    8.8010    1.5582   25.8409 H   0  0  0  0  0  0  0  0  0  0  0  0
    8.1548    3.1261   25.3626 H   0  0  0  0  0  0  0  0  0  0  0  0
    6.0900    0.3776   27.3942 H   0  0  0  0  0  0  0  0  0  0  0  0
    3.9266   -0.2207   25.7765 H   0  0  0  0  0  0  0  0  0  0  0  0
    5.6722    2.4853   22.5532 H   0  0  0  0  0  0  0  0  0  0  0  0
    7.0732    3.1957   23.4038 H   0  0  0  0  0  0  0  0  0  0  0  0
    8.7329    1.2181   22.8740 N   0  0  0  0  0  0  0  0  0  0  0  0
   10.9279   -1.3796   21.2620 C   0  0  0  0  0  0  0  0  0  0  0  0
   12.2796   -1.7147   21.1685 C   0  0  0  0  0  0  0  0  0  0  0  0
   13.2064   -1.0470   21.9585 C   0  0  0  0  0  0  0  0  0  0  0  0
   14.4934   -1.4281   21.8888 F   0  0  0  0  0  0  0  0  0  0  0  0
   12.6625   -2.4642   20.4891 H   0  0  0  0  0  0  0  0  0  0  0  0
   10.1683   -1.9124   20.6886 H   0  0  0  0  0  0  0  0  0  0  0  0
   11.2018    1.2519   23.4084 H   0  0  0  0  0  0  0  0  0  0  0  0
   14.7402    1.0663   22.9501 H   0  0  0  0  0  0  0  0  0  0  0  0
   13.5076    1.6175   24.1030 H   0  0  0  0  0  0  0  0  0  0  0  0
   14.3589    0.0906   24.3698 H   0  0  0  0  0  0  0  0  0  0  0  0
  1  2  1  0
  2  3  2  0
  3  4  1  0
  4  5  1  0
  5  6  2  0
  6  7  1  0
  7  8  1  0
  8  9  1  0
  9 10  2  0
 10 11  1  0
 11 12  2  0
 12 13  1  0
 13 14  2  0
 14 15  1  0
 12 16  1  0
 11 17  1  0
 10 18  1  0
  8 19  1  0
  8 20  1  0
  7 21  1  0
 21 22  1  0
 22 23  1  0
 23 24  1  0
 24 25  2  0
 25 26  1  0
 26 27  2  0
 27 28  1  0
 28 29  1  0
 28 30  1  0
 28 31  1  0
 26 32  1  0
 25 33  1  0
 22 34  1  0
 22 35  1  0
 21 36  2  0
  4 37  2  0
 37 38  1  0
 38 39  2  0
 39 40  1  0
 38 41  1  0
 37 42  1  0
  3 43  1  0
  1 44  1  0
  1 45  1  0
  1 46  1  0
 39  2  1  0
 36  5  1  0
 14  9  1  0
 27 23  1  0
M  END
>  <cnnaffinity>  (1) 
-6.24362

>  <filename>  (1) 
Cc1cc(-c2nc(Cn3nccc3C)n(Cc3cccnc3)n2)ccc1F

$$$$
