
     RDKit          3D

 47 50  0  0  0  0  0  0  0  0999 V2000
   11.1175    1.3801   23.3705 C   0  0  0  0  0  0  0  0  0  0  0  0
   10.5829    2.8022   23.4286 C   0  0  0  0  0  0  0  0  0  0  0  0
   11.1777    3.7297   24.2930 C   0  0  0  0  0  0  0  0  0  0  0  0
   10.7259    5.0495   24.4008 C   0  0  0  0  0  0  0  0  0  0  0  0
    9.6240    5.4681   23.6527 C   0  0  0  0  0  0  0  0  0  0  0  0
    8.9897    4.5490   22.8109 C   0  0  0  0  0  0  0  0  0  0  0  0
    9.5184    3.2570   22.6241 C   0  0  0  0  0  0  0  0  0  0  0  0
    8.9127    2.4173   21.5160 C   0  0  0  0  0  0  0  0  0  0  0  0
    7.5043    2.2902   21.6736 O   0  0  0  0  0  0  0  0  0  0  0  0
    7.1185    1.3892   22.6964 C   0  0  0  0  0  0  0  0  0  0  0  0
    7.4094   -0.0383   22.3323 C   0  0  0  0  0  0  0  0  0  0  0  0
    8.0818   -0.9152   23.0548 N   0  0  0  0  0  0  0  0  0  0  0  0
    8.3162   -1.9230   22.1724 C   0  0  0  0  0  0  0  0  0  0  0  0
    9.1469   -3.1118   22.4878 C   0  0  0  0  0  0  0  0  0  0  0  0
    8.8579   -3.9509   23.7739 C   0  0  0  0  0  0  0  0  0  0  0  0
   10.3087   -3.7007   24.2530 C   0  0  0  0  0  0  0  0  0  0  0  0
   10.5865   -2.8125   23.0202 C   0  0  0  0  0  0  0  0  0  0  0  0
   10.7661   -1.7549   23.2593 H   0  0  0  0  0  0  0  0  0  0  0  0
   11.3969   -3.1314   22.3606 H   0  0  0  0  0  0  0  0  0  0  0  0
   10.3911   -3.1891   25.2146 H   0  0  0  0  0  0  0  0  0  0  0  0
   10.9324   -4.5980   24.3066 H   0  0  0  0  0  0  0  0  0  0  0  0
    8.0739   -3.5266   24.4143 H   0  0  0  0  0  0  0  0  0  0  0  0
    8.6275   -5.0058   23.5780 H   0  0  0  0  0  0  0  0  0  0  0  0
    9.1025   -3.7045   21.5738 H   0  0  0  0  0  0  0  0  0  0  0  0
    7.8260   -1.7223   20.9629 N   0  0  0  0  0  0  0  0  0  0  0  0
    7.2005   -0.5238   21.0749 N   0  0  0  0  0  0  0  0  0  0  0  0
    6.5436    0.0546   19.9567 C   0  0  0  0  0  0  0  0  0  0  0  0
    5.3338    0.7465   20.0981 C   0  0  0  0  0  0  0  0  0  0  0  0
    4.7978    1.3612   18.9636 C   0  0  0  0  0  0  0  0  0  0  0  0
    5.4724    1.2550   17.7452 C   0  0  0  0  0  0  0  0  0  0  0  0
    6.6097    0.5500   17.5940 N   0  0  0  0  0  0  0  0  0  0  0  0
    7.1195   -0.0457   18.6757 C   0  0  0  0  0  0  0  0  0  0  0  0
    8.0359   -0.6180   18.5322 H   0  0  0  0  0  0  0  0  0  0  0  0
    5.0815    1.7408   16.8537 H   0  0  0  0  0  0  0  0  0  0  0  0
    3.8783    1.9335   19.0269 H   0  0  0  0  0  0  0  0  0  0  0  0
    4.8303    0.8100   21.0615 H   0  0  0  0  0  0  0  0  0  0  0  0
    7.6308    1.6064   23.6451 H   0  0  0  0  0  0  0  0  0  0  0  0
    6.0486    1.5423   22.8516 H   0  0  0  0  0  0  0  0  0  0  0  0
    9.0211    2.9091   20.5449 H   0  0  0  0  0  0  0  0  0  0  0  0
    9.3954    1.4319   21.4240 H   0  0  0  0  0  0  0  0  0  0  0  0
    8.0896    4.8167   22.2597 H   0  0  0  0  0  0  0  0  0  0  0  0
    9.2703    6.4961   23.7096 H   0  0  0  0  0  0  0  0  0  0  0  0
   11.2476    5.7390   25.0608 H   0  0  0  0  0  0  0  0  0  0  0  0
   12.0232    3.3951   24.8774 H   0  0  0  0  0  0  0  0  0  0  0  0
   11.6824    1.2093   22.4448 H   0  0  0  0  0  0  0  0  0  0  0  0
   11.8025    1.1910   24.2049 H   0  0  0  0  0  0  0  0  0  0  0  0
   10.3179    0.6275   23.4250 H   0  0  0  0  0  0  0  0  0  0  0  0
  1  2  1  0
  2  3  2  0
  3  4  1  0
  4  5  2  0
  5  6  1  0
  6  7  2  0
  7  8  1  0
  8  9  1  0
  9 10  1  0
 10 11  1  0
 11 12  2  0
 12 13  1  0
 13 14  1  0
 14 15  1  0
 15 16  1  0
 16 17  1  0
 17 18  1  0
 17 19  1  0
 16 20  1  0
 16 21  1  0
 15 22  1  0
 15 23  1  0
 14 24  1  0
 13 25  2  0
 25 26  1  0
 26 27  1  0
 27 28  2  0
 28 29  1  0
 29 30  2  0
 30 31  1  0
 31 32  2  0
 32 33  1  0
 30 34  1  0
 29 35  1  0
 28 36  1  0
 10 37  1  0
 10 38  1  0
  8 39  1  0
  8 40  1  0
  6 41  1  0
  5 42  1  0
  4 43  1  0
  3 44  1  0
  1 45  1  0
  1 46  1  0
  1 47  1  0
  7  2  1  0
 26 11  1  0
 32 27  1  0
 17 14  1  0
M  END
>  <cnnaffinity>  (1) 
-6.06223

>  <filename>  (1) 
Cc1ccccc1COCc1nc(C2CCC2)nn1-c1cccnc1

$$$$
