
     RDKit          3D

 44 47  0  0  0  0  0  0  0  0999 V2000
    5.0246    1.7815   16.9885 H   0  0  0  0  0  0  0  0  0  0  0  0
    5.4808    1.3119   17.8579 C   0  0  0  0  0  0  0  0  0  0  0  0
    6.6427    0.6754   17.6512 N   0  0  0  0  0  0  0  0  0  0  0  0
    7.2207    0.0817   18.7042 C   0  0  0  0  0  0  0  0  0  0  0  0
    8.1469   -0.4487   18.4879 H   0  0  0  0  0  0  0  0  0  0  0  0
    6.6974    0.0883   20.0335 C   0  0  0  0  0  0  0  0  0  0  0  0
    7.2750   -0.6183   21.0965 N   0  0  0  0  0  0  0  0  0  0  0  0
    7.3613   -0.1472   22.4874 C   0  0  1  0  0  0  0  0  0  0  0  0
    6.4003    0.2519   22.8288 H   0  0  0  0  0  0  0  0  0  0  0  0
    7.7315   -1.4559   23.2374 C   0  0  0  0  0  0  0  0  0  0  0  0
    6.8338   -1.9352   23.6383 H   0  0  0  0  0  0  0  0  0  0  0  0
    8.3922   -1.2479   24.0855 H   0  0  0  0  0  0  0  0  0  0  0  0
    8.4003   -2.3366   22.1588 C   0  0  0  0  0  0  0  0  0  0  0  0
    9.3812   -2.7295   22.4408 H   0  0  0  0  0  0  0  0  0  0  0  0
    7.7651   -3.1921   21.9112 H   0  0  0  0  0  0  0  0  0  0  0  0
    8.4842   -1.4145   20.9331 C   0  0  2  0  0  0  0  0  0  0  0  0
    8.4374   -1.9785   20.0065 H   0  0  0  0  0  0  0  0  0  0  0  0
    9.7382   -0.5220   20.9019 C   0  0  0  0  0  0  0  0  0  0  0  0
    9.9931   -0.3719   19.8511 H   0  0  0  0  0  0  0  0  0  0  0  0
   10.5731   -1.0516   21.3664 H   0  0  0  0  0  0  0  0  0  0  0  0
    9.5795    0.8593   21.5697 C   0  0  2  0  0  0  0  0  0  0  0  0
    9.3265    1.5896   20.7919 H   0  0  0  0  0  0  0  0  0  0  0  0
   10.8730    1.1547   22.1068 O   0  0  0  0  0  0  0  0  0  0  0  0
   11.2759    2.4229   22.3812 C   0  0  0  0  0  0  0  0  0  0  0  0
   12.6608    2.5674   22.5728 C   0  0  0  0  0  0  0  0  0  0  0  0
   13.2785    1.6810   22.4776 H   0  0  0  0  0  0  0  0  0  0  0  0
   13.1803    3.8245   22.8655 C   0  0  0  0  0  0  0  0  0  0  0  0
   14.2509    3.9314   23.0175 H   0  0  0  0  0  0  0  0  0  0  0  0
   12.3331    4.9377   22.9731 C   0  0  0  0  0  0  0  0  0  0  0  0
   12.7433    5.9111   23.2238 H   0  0  0  0  0  0  0  0  0  0  0  0
   10.9544    4.8068   22.7614 C   0  0  0  0  0  0  0  0  0  0  0  0
   10.0219    6.0017   22.7792 C   0  0  0  0  0  0  0  0  0  0  0  0
   10.2006    6.6677   21.9300 H   0  0  0  0  0  0  0  0  0  0  0  0
   10.1149    6.5990   23.6903 H   0  0  0  0  0  0  0  0  0  0  0  0
    8.9743    5.6991   22.7227 H   0  0  0  0  0  0  0  0  0  0  0  0
   10.4327    3.5300   22.5060 C   0  0  0  0  0  0  0  0  0  0  0  0
    9.3623    3.3853   22.4372 H   0  0  0  0  0  0  0  0  0  0  0  0
    8.4690    0.9271   22.6506 C   0  0  0  0  0  0  0  0  0  0  0  0
    8.9387    0.8172   23.6312 H   0  0  0  0  0  0  0  0  0  0  0  0
    8.0011    1.9162   22.6325 H   0  0  0  0  0  0  0  0  0  0  0  0
    5.4751    0.7666   20.2103 C   0  0  0  0  0  0  0  0  0  0  0  0
    5.0217    0.7818   21.2005 H   0  0  0  0  0  0  0  0  0  0  0  0
    4.8626    1.3743   19.1106 C   0  0  0  0  0  0  0  0  0  0  0  0
    3.9152    1.8936   19.2210 H   0  0  0  0  0  0  0  0  0  0  0  0
  1  2  1  0
  2  3  2  0
  3  4  1  0
  4  5  1  0
  4  6  2  0
  6  7  1  0
  7  8  1  0
  8  9  1  1
  8 10  1  0
 10 11  1  0
 10 12  1  0
 10 13  1  0
 13 14  1  0
 13 15  1  0
 13 16  1  0
 16 17  1  6
 16 18  1  0
 18 19  1  0
 18 20  1  0
 18 21  1  0
 21 22  1  6
 21 23  1  0
 23 24  1  0
 24 25  2  0
 25 26  1  0
 25 27  1  0
 27 28  1  0
 27 29  2  0
 29 30  1  0
 29 31  1  0
 31 32  1  0
 32 33  1  0
 32 34  1  0
 32 35  1  0
 31 36  2  0
 36 37  1  0
 21 38  1  0
 38 39  1  0
 38 40  1  0
  6 41  1  0
 41 42  1  0
 41 43  2  0
 43 44  1  0
 43  2  1  0
 16  7  1  0
 36 24  1  0
 38  8  1  0
M  END
>  <cnnaffinity>  (1) 
-5.51916

>  <filename>  (1) 
Cc1cccc(O[C@H]2C[C@H]3CC[C@@H](C2)N3c2cccnc2)c1

$$$$
