
     RDKit          3D

 50 53  0  0  0  0  0  0  0  0999 V2000
    2.3305    2.0842   25.3874 C   0  0  0  0  0  0  0  0  0  0  0  0
    3.7656    2.5082   25.5791 C   0  0  0  0  0  0  0  0  0  0  0  0
    4.1228    3.6426   26.3303 C   0  0  0  0  0  0  0  0  0  0  0  0
    5.3798    4.0662   26.5068 N   0  0  0  0  0  0  0  0  0  0  0  0
    6.3588    3.3553   25.9355 C   0  0  0  0  0  0  0  0  0  0  0  0
    6.1391    2.2028   25.1677 C   0  0  0  0  0  0  0  0  0  0  0  0
    7.2681    1.4650   24.5107 C   0  0  0  0  0  0  0  0  0  0  0  0
    7.5564    1.9221   23.0622 C   0  0  0  0  0  0  0  0  0  0  0  0
    8.5445    1.0046   22.4412 C   0  0  0  0  0  0  0  0  0  0  0  0
    9.8543    1.0212   22.6221 N   0  0  0  0  0  0  0  0  0  0  0  0
   10.2572   -0.1342   22.0409 C   0  0  0  0  0  0  0  0  0  0  0  0
   11.6389   -0.5887   21.8728 C   0  0  0  0  0  0  0  0  0  0  0  0
   11.8240   -1.7317   21.0791 C   0  0  0  0  0  0  0  0  0  0  0  0
   13.0601   -2.0221   20.5525 C   0  0  0  0  0  0  0  0  0  0  0  0
   14.1599   -1.2176   20.8458 C   0  0  0  0  0  0  0  0  0  0  0  0
   15.1863   -1.3117   19.9276 N   0  0  0  0  0  0  0  0  0  0  0  0
   16.1021   -1.0162   20.2317 H   0  0  0  0  0  0  0  0  0  0  0  0
   15.2339   -2.2337   19.5180 H   0  0  0  0  0  0  0  0  0  0  0  0
   14.0441   -0.2319   21.8521 C   0  0  0  0  0  0  0  0  0  0  0  0
   12.7730    0.1079   22.3298 C   0  0  0  0  0  0  0  0  0  0  0  0
   12.6599    0.9655   22.9912 H   0  0  0  0  0  0  0  0  0  0  0  0
   14.9163    0.3368   22.1578 H   0  0  0  0  0  0  0  0  0  0  0  0
   13.1803   -2.8057   19.8101 H   0  0  0  0  0  0  0  0  0  0  0  0
   10.9442   -2.3096   20.8101 H   0  0  0  0  0  0  0  0  0  0  0  0
    9.2649   -0.8527   21.5314 N   0  0  0  0  0  0  0  0  0  0  0  0
    8.1725   -0.1306   21.8091 N   0  0  0  0  0  0  0  0  0  0  0  0
    6.8827   -0.5906   21.3166 C   0  0  0  0  0  0  0  0  0  0  0  0
    6.4166    0.1298   20.0724 C   0  0  0  0  0  0  0  0  0  0  0  0
    5.2106    0.8321   20.0231 C   0  0  0  0  0  0  0  0  0  0  0  0
    4.8645    1.4952   18.8427 C   0  0  0  0  0  0  0  0  0  0  0  0
    5.7395    1.4227   17.7549 C   0  0  0  0  0  0  0  0  0  0  0  0
    6.8947    0.7402   17.7763 N   0  0  0  0  0  0  0  0  0  0  0  0
    7.2181    0.1184   18.9167 C   0  0  0  0  0  0  0  0  0  0  0  0
    8.1677   -0.4183   18.9228 H   0  0  0  0  0  0  0  0  0  0  0  0
    5.5064    1.9411   16.8256 H   0  0  0  0  0  0  0  0  0  0  0  0
    3.9486    2.0705   18.7605 H   0  0  0  0  0  0  0  0  0  0  0  0
    4.5535    0.8612   20.8967 H   0  0  0  0  0  0  0  0  0  0  0  0
    7.0259   -1.6574   21.1226 H   0  0  0  0  0  0  0  0  0  0  0  0
    6.1468   -0.4980   22.1206 H   0  0  0  0  0  0  0  0  0  0  0  0
    7.9475    2.9405   23.0422 H   0  0  0  0  0  0  0  0  0  0  0  0
    6.6458    1.9276   22.4545 H   0  0  0  0  0  0  0  0  0  0  0  0
    7.0422    0.3892   24.4936 H   0  0  0  0  0  0  0  0  0  0  0  0
    8.1960    1.5699   25.0867 H   0  0  0  0  0  0  0  0  0  0  0  0
    4.8132    1.7830   25.0039 C   0  0  0  0  0  0  0  0  0  0  0  0
    4.5983    0.8656   24.4487 H   0  0  0  0  0  0  0  0  0  0  0  0
    7.3736    3.7174   26.1086 H   0  0  0  0  0  0  0  0  0  0  0  0
    3.3517    4.2395   26.8168 H   0  0  0  0  0  0  0  0  0  0  0  0
    2.2504    0.9930   25.3562 H   0  0  0  0  0  0  0  0  0  0  0  0
    1.6913    2.4429   26.1992 H   0  0  0  0  0  0  0  0  0  0  0  0
    1.9152    2.4702   24.4491 H   0  0  0  0  0  0  0  0  0  0  0  0
  1  2  1  0
  2  3  2  0
  3  4  1  0
  4  5  2  0
  5  6  1  0
  6  7  1  0
  7  8  1  0
  8  9  1  0
  9 10  2  0
 10 11  1  0
 11 12  1  0
 12 13  2  0
 13 14  1  0
 14 15  2  0
 15 16  1  0
 16 17  1  0
 16 18  1  0
 15 19  1  0
 19 20  2  0
 20 21  1  0
 19 22  1  0
 14 23  1  0
 13 24  1  0
 11 25  2  0
 25 26  1  0
 26 27  1  0
 27 28  1  0
 28 29  2  0
 29 30  1  0
 30 31  2  0
 31 32  1  0
 32 33  2  0
 33 34  1  0
 31 35  1  0
 30 36  1  0
 29 37  1  0
 27 38  1  0
 27 39  1  0
  8 40  1  0
  8 41  1  0
  7 42  1  0
  7 43  1  0
  6 44  2  0
 44 45  1  0
  5 46  1  0
  3 47  1  0
  1 48  1  0
  1 49  1  0
  1 50  1  0
 44  2  1  0
 26  9  1  0
 33 28  1  0
 20 12  1  0
M  END
>  <cnnaffinity>  (1) 
-6.60163

>  <filename>  (1) 
Cc1cncc(CCc2nc(-c3ccc(N)cc3)nn2Cc2cccnc2)c1

$$$$
