
     RDKit          3D

 45 48  0  0  0  0  0  0  0  0999 V2000
   14.5454    1.0338   22.8086 C   0  0  0  0  0  0  0  0  0  0  0  0
   13.5242    0.0706   22.2719 C   0  0  0  0  0  0  0  0  0  0  0  0
   13.9129   -1.0895   21.5904 C   0  0  0  0  0  0  0  0  0  0  0  0
   12.9678   -1.8757   20.9345 C   0  0  0  0  0  0  0  0  0  0  0  0
   11.6142   -1.6156   21.1153 C   0  0  0  0  0  0  0  0  0  0  0  0
   11.1997   -0.4720   21.8068 C   0  0  0  0  0  0  0  0  0  0  0  0
    9.7733   -0.1211   21.8407 C   0  0  0  0  0  0  0  0  0  0  0  0
    8.8183   -0.9234   21.3881 N   0  0  0  0  0  0  0  0  0  0  0  0
    7.6877   -0.2360   21.6533 N   0  0  0  0  0  0  0  0  0  0  0  0
    6.3990   -0.6927   21.1463 C   0  0  0  0  0  0  0  0  0  0  0  0
    5.9630    0.0543   19.8995 C   0  0  0  0  0  0  0  0  0  0  0  0
    4.7928    0.8205   19.8444 C   0  0  0  0  0  0  0  0  0  0  0  0
    4.5131    1.5409   18.6783 C   0  0  0  0  0  0  0  0  0  0  0  0
    5.4072    1.4578   17.6067 C   0  0  0  0  0  0  0  0  0  0  0  0
    6.5213    0.7099   17.6285 N   0  0  0  0  0  0  0  0  0  0  0  0
    6.7831    0.0364   18.7553 C   0  0  0  0  0  0  0  0  0  0  0  0
    7.7017   -0.5510   18.7600 H   0  0  0  0  0  0  0  0  0  0  0  0
    5.2250    2.0172   16.6893 H   0  0  0  0  0  0  0  0  0  0  0  0
    3.6396    2.1809   18.5973 H   0  0  0  0  0  0  0  0  0  0  0  0
    4.1124    0.8678   20.7002 H   0  0  0  0  0  0  0  0  0  0  0  0
    5.6826   -0.5502   21.9574 H   0  0  0  0  0  0  0  0  0  0  0  0
    6.5007   -1.7702   20.9741 H   0  0  0  0  0  0  0  0  0  0  0  0
    8.0115    0.9417   22.2294 C   0  0  0  0  0  0  0  0  0  0  0  0
    7.0925    1.8655   22.9545 C   0  0  0  0  0  0  0  0  0  0  0  0
    6.9465    1.3415   24.3524 C   0  0  0  0  0  0  0  0  0  0  0  0
    7.6830    1.5093   25.4768 C   0  0  0  0  0  0  0  0  0  0  0  0
    7.2148    0.6283   26.4147 O   0  0  0  0  0  0  0  0  0  0  0  0
    6.2234   -0.0482   25.7918 C   0  0  0  0  0  0  0  0  0  0  0  0
    5.5426   -1.1075   26.5777 C   0  0  0  0  0  0  0  0  0  0  0  0
    4.9312   -0.6578   27.3651 H   0  0  0  0  0  0  0  0  0  0  0  0
    6.2890   -1.7534   27.0463 H   0  0  0  0  0  0  0  0  0  0  0  0
    4.9055   -1.6966   25.9203 H   0  0  0  0  0  0  0  0  0  0  0  0
    6.0232    0.3282   24.5701 N   0  0  0  0  0  0  0  0  0  0  0  0
    8.5165    2.1321   25.7677 H   0  0  0  0  0  0  0  0  0  0  0  0
    7.5537    2.8555   22.9305 H   0  0  0  0  0  0  0  0  0  0  0  0
    6.1120    1.8962   22.4740 H   0  0  0  0  0  0  0  0  0  0  0  0
    9.3136    1.0504   22.3484 N   0  0  0  0  0  0  0  0  0  0  0  0
   12.1642    0.3509   22.4099 C   0  0  0  0  0  0  0  0  0  0  0  0
   11.8483    1.2043   23.0071 H   0  0  0  0  0  0  0  0  0  0  0  0
   10.8463   -2.2726   20.7205 H   0  0  0  0  0  0  0  0  0  0  0  0
   13.2927   -2.6671   20.2664 H   0  0  0  0  0  0  0  0  0  0  0  0
   14.9444   -1.4056   21.5860 H   0  0  0  0  0  0  0  0  0  0  0  0
   15.4610    1.0200   22.2093 H   0  0  0  0  0  0  0  0  0  0  0  0
   14.7785    0.7669   23.8393 H   0  0  0  0  0  0  0  0  0  0  0  0
   14.1660    2.0605   22.7956 H   0  0  0  0  0  0  0  0  0  0  0  0
  1  2  1  0
  2  3  2  0
  3  4  1  0
  4  5  2  0
  5  6  1  0
  6  7  1  0
  7  8  2  0
  8  9  1  0
  9 10  1  0
 10 11  1  0
 11 12  2  0
 12 13  1  0
 13 14  2  0
 14 15  1  0
 15 16  2  0
 16 17  1  0
 14 18  1  0
 13 19  1  0
 12 20  1  0
 10 21  1  0
 10 22  1  0
  9 23  1  0
 23 24  1  0
 24 25  1  0
 25 26  2  0
 26 27  1  0
 27 28  1  0
 28 29  1  0
 29 30  1  0
 29 31  1  0
 29 32  1  0
 28 33  2  0
 26 34  1  0
 24 35  1  0
 24 36  1  0
 23 37  2  0
  6 38  2  0
 38 39  1  0
  5 40  1  0
  4 41  1  0
  3 42  1  0
  1 43  1  0
  1 44  1  0
  1 45  1  0
 38  2  1  0
 37  7  1  0
 16 11  1  0
 33 25  1  0
M  END
>  <cnnaffinity>  (1) 
-6.37308

>  <filename>  (1) 
Cc1cccc(-c2nc(Cc3coc(C)n3)n(Cc3cccnc3)n2)c1

$$$$
