
     RDKit          3D

 46 49  0  0  0  0  0  0  0  0999 V2000
   16.0266   -0.2941   19.6534 C   0  0  0  0  0  0  0  0  0  0  0  0
   14.7228   -0.7789   20.5384 C   0  0  0  0  0  0  0  0  0  0  0  0
   14.4376    0.1144   21.6375 C   0  0  0  0  0  0  0  0  0  0  0  0
   13.1611    0.3064   22.1520 C   0  0  0  0  0  0  0  0  0  0  0  0
   12.1148   -0.4906   21.6333 C   0  0  0  0  0  0  0  0  0  0  0  0
   10.6723   -0.1087   21.6993 C   0  0  0  0  0  0  0  0  0  0  0  0
    9.7059   -0.8821   21.2170 N   0  0  0  0  0  0  0  0  0  0  0  0
    8.5813   -0.1665   21.4243 N   0  0  0  0  0  0  0  0  0  0  0  0
    7.2824   -0.7126   21.0253 C   0  0  0  0  0  0  0  0  0  0  0  0
    6.5706    0.0395   19.9163 C   0  0  0  0  0  0  0  0  0  0  0  0
    5.3431    0.6858   20.1000 C   0  0  0  0  0  0  0  0  0  0  0  0
    4.7525    1.3509   19.0218 C   0  0  0  0  0  0  0  0  0  0  0  0
    5.4085    1.3356   17.7881 C   0  0  0  0  0  0  0  0  0  0  0  0
    6.5744    0.7039   17.5835 N   0  0  0  0  0  0  0  0  0  0  0  0
    7.1316    0.0788   18.6279 C   0  0  0  0  0  0  0  0  0  0  0  0
    8.0712   -0.4332   18.4257 H   0  0  0  0  0  0  0  0  0  0  0  0
    4.9742    1.8388   16.9248 H   0  0  0  0  0  0  0  0  0  0  0  0
    3.8126    1.8808   19.1230 H   0  0  0  0  0  0  0  0  0  0  0  0
    4.8471    0.6711   21.0732 H   0  0  0  0  0  0  0  0  0  0  0  0
    7.4957   -1.7375   20.7114 H   0  0  0  0  0  0  0  0  0  0  0  0
    6.6389   -0.7751   21.9107 H   0  0  0  0  0  0  0  0  0  0  0  0
    8.9011    0.9958   22.0275 C   0  0  0  0  0  0  0  0  0  0  0  0
    7.8751    1.8486   22.7275 C   0  0  0  0  0  0  0  0  0  0  0  0
    7.4856    1.2197   24.0536 C   0  0  0  0  0  0  0  0  0  0  0  0
    6.3282    0.6010   24.4269 C   0  0  0  0  0  0  0  0  0  0  0  0
    6.5322    0.0454   25.6674 N   0  0  0  0  0  0  0  0  0  0  0  0
    5.5707   -0.7277   26.4095 C   0  0  0  0  0  0  0  0  0  0  0  0
    5.7137   -0.5127   27.7313 F   0  0  0  0  0  0  0  0  0  0  0  0
    5.7245   -2.0565   26.1681 F   0  0  0  0  0  0  0  0  0  0  0  0
    4.5667   -0.4323   26.0984 H   0  0  0  0  0  0  0  0  0  0  0  0
    7.7902    0.2820   26.1037 N   0  0  0  0  0  0  0  0  0  0  0  0
    8.3625    0.9787   25.1498 C   0  0  0  0  0  0  0  0  0  0  0  0
    9.4074    1.2525   25.2210 H   0  0  0  0  0  0  0  0  0  0  0  0
    5.3849    0.4846   23.9065 H   0  0  0  0  0  0  0  0  0  0  0  0
    8.3164    2.8385   22.8746 H   0  0  0  0  0  0  0  0  0  0  0  0
    6.9930    1.9846   22.0917 H   0  0  0  0  0  0  0  0  0  0  0  0
   10.2130    1.0737   22.1949 N   0  0  0  0  0  0  0  0  0  0  0  0
   12.4917   -1.6246   20.8898 C   0  0  0  0  0  0  0  0  0  0  0  0
   13.7836   -1.7999   20.3584 C   0  0  0  0  0  0  0  0  0  0  0  0
   14.0086   -2.7072   19.8039 H   0  0  0  0  0  0  0  0  0  0  0  0
   11.6942   -2.3252   20.7135 H   0  0  0  0  0  0  0  0  0  0  0  0
   12.9811    1.1182   22.8582 H   0  0  0  0  0  0  0  0  0  0  0  0
   15.2243    0.7814   21.9788 H   0  0  0  0  0  0  0  0  0  0  0  0
   16.3688    0.5923   20.1661 H   0  0  0  0  0  0  0  0  0  0  0  0
   15.9449    0.1366   18.6441 H   0  0  0  0  0  0  0  0  0  0  0  0
   16.8455   -1.0127   19.6500 H   0  0  0  0  0  0  0  0  0  0  0  0
  1  2  1  0
  2  3  2  0
  3  4  1  0
  4  5  2  0
  5  6  1  0
  6  7  2  0
  7  8  1  0
  8  9  1  0
  9 10  1  0
 10 11  2  0
 11 12  1  0
 12 13  2  0
 13 14  1  0
 14 15  2  0
 15 16  1  0
 13 17  1  0
 12 18  1  0
 11 19  1  0
  9 20  1  0
  9 21  1  0
  8 22  1  0
 22 23  1  0
 23 24  1  0
 24 25  2  0
 25 26  1  0
 26 27  1  0
 27 28  1  0
 27 29  1  0
 27 30  1  0
 26 31  1  0
 31 32  2  0
 32 33  1  0
 25 34  1  0
 23 35  1  0
 23 36  1  0
 22 37  2  0
  5 38  1  0
 38 39  2  0
 39 40  1  0
 38 41  1  0
  4 42  1  0
  3 43  1  0
  1 44  1  0
  1 45  1  0
  1 46  1  0
 39  2  1  0
 37  6  1  0
 15 10  1  0
 32 24  1  0
M  END
>  <cnnaffinity>  (1) 
-6.54385

>  <filename>  (1) 
Cc1ccc(-c2nc(Cc3cnn(C(F)F)c3)n(Cc3cccnc3)n2)cc1

$$$$
