
     RDKit          3D

 40 43  0  0  0  0  0  0  0  0999 V2000
    7.7365   -4.8433   21.1814 C   0  0  0  0  0  0  0  0  0  0  0  0
    8.3754   -4.8879   22.5370 C   0  0  0  0  0  0  0  0  0  0  0  0
    8.2850   -5.8883   23.4746 C   0  0  0  0  0  0  0  0  0  0  0  0
    9.1617   -5.5034   24.5163 C   0  0  0  0  0  0  0  0  0  0  0  0
    9.7594   -4.3573   24.2301 N   0  0  0  0  0  0  0  0  0  0  0  0
    9.2552   -3.9665   23.0444 N   0  0  0  0  0  0  0  0  0  0  0  0
    9.7579   -2.7096   22.4744 C   0  0  0  0  0  0  0  0  0  0  0  0
    8.6884   -1.7761   22.0105 C   0  0  0  0  0  0  0  0  0  0  0  0
    8.4674   -1.3199   20.7974 N   0  0  0  0  0  0  0  0  0  0  0  0
    7.3015   -0.6263   20.9398 C   0  0  0  0  0  0  0  0  0  0  0  0
    6.6038    0.0484   19.8529 C   0  0  0  0  0  0  0  0  0  0  0  0
    5.3787    0.7135   20.0558 C   0  0  0  0  0  0  0  0  0  0  0  0
    4.8042    1.3516   18.9632 C   0  0  0  0  0  0  0  0  0  0  0  0
    5.4647    1.2983   17.7292 C   0  0  0  0  0  0  0  0  0  0  0  0
    6.6184    0.6442   17.5242 N   0  0  0  0  0  0  0  0  0  0  0  0
    7.1720    0.0301   18.5741 C   0  0  0  0  0  0  0  0  0  0  0  0
    8.1064   -0.4992   18.3848 H   0  0  0  0  0  0  0  0  0  0  0  0
    5.0474    1.8021   16.8643 H   0  0  0  0  0  0  0  0  0  0  0  0
    3.8721    1.8993   19.0572 H   0  0  0  0  0  0  0  0  0  0  0  0
    4.9134    0.7223   21.0466 H   0  0  0  0  0  0  0  0  0  0  0  0
    6.8079   -0.6347   22.1628 N   0  0  0  0  0  0  0  0  0  0  0  0
    7.7309   -1.3298   22.8587 N   0  0  0  0  0  0  0  0  0  0  0  0
    7.5716   -1.6695   24.2321 C   0  0  0  0  0  0  0  0  0  0  0  0
    8.6124   -1.4306   25.1403 C   0  0  0  0  0  0  0  0  0  0  0  0
    8.5281   -2.0337   26.3890 C   0  0  0  0  0  0  0  0  0  0  0  0
    9.5247   -1.8539   27.2677 F   0  0  0  0  0  0  0  0  0  0  0  0
    7.4479   -2.8288   26.7490 C   0  0  0  0  0  0  0  0  0  0  0  0
    6.3688   -2.9625   25.8698 C   0  0  0  0  0  0  0  0  0  0  0  0
    6.4148   -2.3571   24.6159 C   0  0  0  0  0  0  0  0  0  0  0  0
    5.5733   -2.4088   23.9316 H   0  0  0  0  0  0  0  0  0  0  0  0
    5.5013   -3.5422   26.1803 H   0  0  0  0  0  0  0  0  0  0  0  0
    7.4651   -3.3370   27.6975 H   0  0  0  0  0  0  0  0  0  0  0  0
    9.4863   -0.8385   24.8943 H   0  0  0  0  0  0  0  0  0  0  0  0
   10.3328   -2.2386   23.2729 H   0  0  0  0  0  0  0  0  0  0  0  0
   10.4505   -2.8750   21.6515 H   0  0  0  0  0  0  0  0  0  0  0  0
    9.4405   -6.0338   25.4211 H   0  0  0  0  0  0  0  0  0  0  0  0
    7.6897   -6.7860   23.3789 H   0  0  0  0  0  0  0  0  0  0  0  0
    6.9207   -4.1157   21.1179 H   0  0  0  0  0  0  0  0  0  0  0  0
    8.4781   -4.5760   20.4336 H   0  0  0  0  0  0  0  0  0  0  0  0
    7.3371   -5.8266   20.9114 H   0  0  0  0  0  0  0  0  0  0  0  0
  1  2  1  0
  2  3  2  0
  3  4  1  0
  4  5  2  0
  5  6  1  0
  6  7  1  0
  7  8  1  0
  8  9  2  0
  9 10  1  0
 10 11  1  0
 11 12  2  0
 12 13  1  0
 13 14  2  0
 14 15  1  0
 15 16  2  0
 16 17  1  0
 14 18  1  0
 13 19  1  0
 12 20  1  0
 10 21  2  0
 21 22  1  0
 22 23  1  0
 23 24  2  0
 24 25  1  0
 25 26  1  0
 25 27  2  0
 27 28  1  0
 28 29  2  0
 29 30  1  0
 28 31  1  0
 27 32  1  0
 24 33  1  0
  7 34  1  0
  7 35  1  0
  4 36  1  0
  3 37  1  0
  1 38  1  0
  1 39  1  0
  1 40  1  0
  6  2  1  0
 22  8  1  0
 29 23  1  0
 16 11  1  0
M  END
>  <cnnaffinity>  (1) 
-6.10827

>  <filename>  (1) 
Cc1ccnn1Cc1nc(-c2cccnc2)nn1-c1cccc(F)c1

$$$$
