
     RDKit          3D

 48 51  0  0  0  0  0  0  0  0999 V2000
    8.6906    0.0770   27.3263 C   0  0  0  0  0  0  0  0  0  0  0  0
    9.4081    0.5915   26.1019 C   0  0  0  0  0  0  0  0  0  0  0  0
   10.8044    0.6083   26.0743 C   0  0  0  0  0  0  0  0  0  0  0  0
   11.5048    1.1135   24.9815 C   0  0  0  0  0  0  0  0  0  0  0  0
   10.8128    1.5989   23.8698 C   0  0  0  0  0  0  0  0  0  0  0  0
    9.4128    1.5740   23.8715 C   0  0  0  0  0  0  0  0  0  0  0  0
    8.6130    2.0057   22.8526 O   0  0  0  0  0  0  0  0  0  0  0  0
    9.0794    2.0023   21.5142 C   0  0  0  0  0  0  0  0  0  0  0  0
    9.5295    0.6274   20.9880 C   0  0  0  0  0  0  0  0  0  0  0  0
    8.6269   -0.4773   21.4118 C   0  0  0  0  0  0  0  0  0  0  0  0
    8.8707   -1.3345   22.3819 N   0  0  0  0  0  0  0  0  0  0  0  0
    7.6489   -1.8944   22.6155 C   0  0  0  0  0  0  0  0  0  0  0  0
    7.3898   -2.9030   23.7322 C   0  0  0  0  0  0  0  0  0  0  0  0
    8.3734   -4.1084   23.7138 C   0  0  0  0  0  0  0  0  0  0  0  0
    8.7029   -4.3348   25.1930 C   0  0  0  0  0  0  0  0  0  0  0  0
    8.5463   -2.9358   25.7806 C   0  0  0  0  0  0  0  0  0  0  0  0
    7.4663   -2.3568   25.0565 O   0  0  0  0  0  0  0  0  0  0  0  0
    9.4556   -2.3214   25.6551 H   0  0  0  0  0  0  0  0  0  0  0  0
    8.2656   -2.9545   26.8402 H   0  0  0  0  0  0  0  0  0  0  0  0
    9.7067   -4.7361   25.3518 H   0  0  0  0  0  0  0  0  0  0  0  0
    7.9881   -5.0193   25.6661 H   0  0  0  0  0  0  0  0  0  0  0  0
    9.2826   -3.8231   23.1710 H   0  0  0  0  0  0  0  0  0  0  0  0
    7.9416   -4.9911   23.2289 H   0  0  0  0  0  0  0  0  0  0  0  0
    6.3493   -3.2099   23.5814 H   0  0  0  0  0  0  0  0  0  0  0  0
    6.7066   -1.5150   21.7728 N   0  0  0  0  0  0  0  0  0  0  0  0
    7.3458   -0.6217   20.9668 N   0  0  0  0  0  0  0  0  0  0  0  0
    6.6566    0.0143   19.8891 C   0  0  0  0  0  0  0  0  0  0  0  0
    5.4322    0.6452   20.1364 C   0  0  0  0  0  0  0  0  0  0  0  0
    4.8107    1.3167   19.0811 C   0  0  0  0  0  0  0  0  0  0  0  0
    5.4101    1.3100   17.8155 C   0  0  0  0  0  0  0  0  0  0  0  0
    6.5570    0.6649   17.5549 N   0  0  0  0  0  0  0  0  0  0  0  0
    7.1597    0.0328   18.5703 C   0  0  0  0  0  0  0  0  0  0  0  0
    8.0864   -0.4838   18.3208 H   0  0  0  0  0  0  0  0  0  0  0  0
    4.9444    1.8295   16.9802 H   0  0  0  0  0  0  0  0  0  0  0  0
    3.8776    1.8466   19.2295 H   0  0  0  0  0  0  0  0  0  0  0  0
    5.0020    0.6048   21.1390 H   0  0  0  0  0  0  0  0  0  0  0  0
    9.5875    0.6850   19.9020 H   0  0  0  0  0  0  0  0  0  0  0  0
   10.5262    0.3786   21.3553 H   0  0  0  0  0  0  0  0  0  0  0  0
    8.2173    2.3616   20.9500 H   0  0  0  0  0  0  0  0  0  0  0  0
    9.8834    2.7401   21.3955 H   0  0  0  0  0  0  0  0  0  0  0  0
    8.7207    1.0962   24.9922 C   0  0  0  0  0  0  0  0  0  0  0  0
    7.6351    1.1375   24.9423 H   0  0  0  0  0  0  0  0  0  0  0  0
   11.3578    1.9807   23.0133 H   0  0  0  0  0  0  0  0  0  0  0  0
   12.5925    1.1048   25.0004 H   0  0  0  0  0  0  0  0  0  0  0  0
   11.3264    0.2496   26.9505 H   0  0  0  0  0  0  0  0  0  0  0  0
    8.2878    0.9149   27.9043 H   0  0  0  0  0  0  0  0  0  0  0  0
    9.3707   -0.5086   27.9627 H   0  0  0  0  0  0  0  0  0  0  0  0
    7.8355   -0.5453   27.0535 H   0  0  0  0  0  0  0  0  0  0  0  0
  1  2  1  0
  2  3  2  0
  3  4  1  0
  4  5  2  0
  5  6  1  0
  6  7  1  0
  7  8  1  0
  8  9  1  0
  9 10  1  0
 10 11  2  0
 11 12  1  0
 12 13  1  0
 13 14  1  0
 14 15  1  0
 15 16  1  0
 16 17  1  0
 16 18  1  0
 16 19  1  0
 15 20  1  0
 15 21  1  0
 14 22  1  0
 14 23  1  0
 13 24  1  0
 12 25  2  0
 25 26  1  0
 26 27  1  0
 27 28  2  0
 28 29  1  0
 29 30  2  0
 30 31  1  0
 31 32  2  0
 32 33  1  0
 30 34  1  0
 29 35  1  0
 28 36  1  0
  9 37  1  0
  9 38  1  0
  8 39  1  0
  8 40  1  0
  6 41  2  0
 41 42  1  0
  5 43  1  0
  4 44  1  0
  3 45  1  0
  1 46  1  0
  1 47  1  0
  1 48  1  0
 41  2  1  0
 26 10  1  0
 32 27  1  0
 17 13  1  0
M  END
>  <cnnaffinity>  (1) 
-6.15287

>  <filename>  (1) 
Cc1cccc(OCCc2nc(C3CCCO3)nn2-c2cccnc2)c1

$$$$
