
     RDKit          3D

 48 51  0  0  0  0  0  0  0  0999 V2000
   14.3567    0.8676   22.7611 C   0  0  0  0  0  0  0  0  0  0  0  0
   13.3224   -0.1443   22.3586 C   0  0  0  0  0  0  0  0  0  0  0  0
   12.0208   -0.0724   22.8736 C   0  0  0  0  0  0  0  0  0  0  0  0
   10.9960   -0.8887   22.3694 C   0  0  0  0  0  0  0  0  0  0  0  0
    9.5772   -0.5830   22.5995 C   0  0  0  0  0  0  0  0  0  0  0  0
    8.6493   -1.2977   21.9857 N   0  0  0  0  0  0  0  0  0  0  0  0
    7.5352   -0.5557   22.1104 N   0  0  0  0  0  0  0  0  0  0  0  0
    6.3930   -0.9352   21.2890 C   0  0  0  0  0  0  0  0  0  0  0  0
    6.1009   -0.0325   20.1151 C   0  0  0  0  0  0  0  0  0  0  0  0
    4.9598    0.7718   20.0404 C   0  0  0  0  0  0  0  0  0  0  0  0
    4.7522    1.5399   18.8901 C   0  0  0  0  0  0  0  0  0  0  0  0
    5.6948    1.4679   17.8580 C   0  0  0  0  0  0  0  0  0  0  0  0
    6.8008    0.7092   17.9168 N   0  0  0  0  0  0  0  0  0  0  0  0
    6.9907   -0.0063   19.0310 C   0  0  0  0  0  0  0  0  0  0  0  0
    7.9040   -0.6003   19.0750 H   0  0  0  0  0  0  0  0  0  0  0  0
    5.5572    2.0456   16.9457 H   0  0  0  0  0  0  0  0  0  0  0  0
    3.8871    2.1899   18.7863 H   0  0  0  0  0  0  0  0  0  0  0  0
    4.2580    0.8205   20.8771 H   0  0  0  0  0  0  0  0  0  0  0  0
    6.6191   -1.9438   20.9389 H   0  0  0  0  0  0  0  0  0  0  0  0
    5.5228   -1.0256   21.9118 H   0  0  0  0  0  0  0  0  0  0  0  0
    7.8333    0.5683   22.8109 C   0  0  0  0  0  0  0  0  0  0  0  0
    6.9737    1.7730   22.9796 C   0  0  0  0  0  0  0  0  0  0  0  0
    7.2272    2.8428   21.8771 C   0  0  0  0  0  0  0  0  0  0  0  0
    6.3109    4.0223   22.0294 C   0  0  0  0  0  0  0  0  0  0  0  0
    5.0739    3.8450   21.6589 N   0  0  0  0  0  0  0  0  0  0  0  0
    4.2104    4.8822   21.8802 N   0  0  0  0  0  0  0  0  0  0  0  0
    4.4700    6.1114   22.4618 C   0  0  0  0  0  0  0  0  0  0  0  0
    3.5762    6.9322   22.6019 O   0  0  0  0  0  0  0  0  0  0  0  0
    5.8769    6.2680   22.8549 C   0  0  0  0  0  0  0  0  0  0  0  0
    6.7669    5.2683   22.6367 C   0  0  0  0  0  0  0  0  0  0  0  0
    7.8205    5.3630   22.9007 H   0  0  0  0  0  0  0  0  0  0  0  0
    6.1185    7.2241   23.3058 H   0  0  0  0  0  0  0  0  0  0  0  0
    3.2833    4.8160   21.4917 H   0  0  0  0  0  0  0  0  0  0  0  0
    7.0644    2.3921   20.8933 H   0  0  0  0  0  0  0  0  0  0  0  0
    8.2755    3.1617   21.8980 H   0  0  0  0  0  0  0  0  0  0  0  0
    7.1799    2.1965   23.9689 H   0  0  0  0  0  0  0  0  0  0  0  0
    5.9222    1.4753   22.9607 H   0  0  0  0  0  0  0  0  0  0  0  0
    9.1059    0.5570   23.1606 N   0  0  0  0  0  0  0  0  0  0  0  0
   11.2984   -1.8806   21.4208 C   0  0  0  0  0  0  0  0  0  0  0  0
   12.5764   -1.9616   20.9003 C   0  0  0  0  0  0  0  0  0  0  0  0
   13.5577   -1.1163   21.3818 C   0  0  0  0  0  0  0  0  0  0  0  0
   14.7273   -1.2056   20.7327 F   0  0  0  0  0  0  0  0  0  0  0  0
   12.8521   -2.5985   20.0703 H   0  0  0  0  0  0  0  0  0  0  0  0
   10.5078   -2.5298   21.0510 H   0  0  0  0  0  0  0  0  0  0  0  0
   11.7793    0.6662   23.6390 H   0  0  0  0  0  0  0  0  0  0  0  0
   14.6358    0.7410   23.8071 H   0  0  0  0  0  0  0  0  0  0  0  0
   15.2468    0.7966   22.1359 H   0  0  0  0  0  0  0  0  0  0  0  0
   13.9453    1.8759   22.6605 H   0  0  0  0  0  0  0  0  0  0  0  0
  1  2  1  0
  2  3  2  0
  3  4  1  0
  4  5  1  0
  5  6  2  0
  6  7  1  0
  7  8  1  0
  8  9  1  0
  9 10  2  0
 10 11  1  0
 11 12  2  0
 12 13  1  0
 13 14  2  0
 14 15  1  0
 12 16  1  0
 11 17  1  0
 10 18  1  0
  8 19  1  0
  8 20  1  0
  7 21  1  0
 21 22  1  0
 22 23  1  0
 23 24  1  0
 24 25  2  0
 25 26  1  0
 26 27  1  0
 27 28  2  0
 27 29  1  0
 29 30  2  0
 30 31  1  0
 29 32  1  0
 26 33  1  0
 23 34  1  0
 23 35  1  0
 22 36  1  0
 22 37  1  0
 21 38  2  0
  4 39  2  0
 39 40  1  0
 40 41  2  0
 41 42  1  0
 40 43  1  0
 39 44  1  0
  3 45  1  0
  1 46  1  0
  1 47  1  0
  1 48  1  0
 41  2  1  0
 38  5  1  0
 14  9  1  0
 30 24  1  0
M  END
>  <cnnaffinity>  (1) 
-6.49215

>  <filename>  (1) 
Cc1cc(-c2nc(CCc3ccc(=O)[nH]n3)n(Cc3cccnc3)n2)ccc1F

$$$$
