
     RDKit          3D

 48 51  0  0  0  0  0  0  0  0999 V2000
    5.3011   -5.3809   26.6806 C   0  0  0  0  0  0  0  0  0  0  0  0
    5.5798   -4.4280   25.5140 C   0  0  0  0  0  0  0  0  0  0  0  0
    6.3010   -3.1520   25.9898 C   0  0  0  0  0  0  0  0  0  0  0  0
    6.6026   -2.1908   24.8301 C   0  0  0  0  0  0  0  0  0  0  0  0
    7.4036   -2.8947   23.6933 C   0  0  0  0  0  0  0  0  0  0  0  0
    7.6711   -1.9643   22.5464 C   0  0  0  0  0  0  0  0  0  0  0  0
    6.7276   -1.5808   21.7035 N   0  0  0  0  0  0  0  0  0  0  0  0
    7.3674   -0.6735   20.9244 N   0  0  0  0  0  0  0  0  0  0  0  0
    6.6613   -0.0009   19.8921 C   0  0  0  0  0  0  0  0  0  0  0  0
    5.4447    0.6347   20.1599 C   0  0  0  0  0  0  0  0  0  0  0  0
    4.8117    1.3058   19.1092 C   0  0  0  0  0  0  0  0  0  0  0  0
    5.3988    1.2951   17.8372 C   0  0  0  0  0  0  0  0  0  0  0  0
    6.5536    0.6667   17.5721 N   0  0  0  0  0  0  0  0  0  0  0  0
    7.1657    0.0422   18.5819 C   0  0  0  0  0  0  0  0  0  0  0  0
    8.1088   -0.4462   18.3483 H   0  0  0  0  0  0  0  0  0  0  0  0
    4.9301    1.8015   16.9964 H   0  0  0  0  0  0  0  0  0  0  0  0
    3.8796    1.8400   19.2582 H   0  0  0  0  0  0  0  0  0  0  0  0
    5.0246    0.5992   21.1672 H   0  0  0  0  0  0  0  0  0  0  0  0
    8.6473   -0.5250   21.3731 C   0  0  0  0  0  0  0  0  0  0  0  0
    9.5357    0.6015   20.9452 C   0  0  0  0  0  0  0  0  0  0  0  0
    9.0643    2.0010   21.4537 C   0  0  0  0  0  0  0  0  0  0  0  0
    8.9365    2.0992   22.9548 C   0  0  0  0  0  0  0  0  0  0  0  0
    7.8426    1.9729   23.6662 N   0  0  0  0  0  0  0  0  0  0  0  0
    8.1956    1.9235   24.9948 N   0  0  0  0  0  0  0  0  0  0  0  0
    9.4911    2.0311   25.0528 C   0  0  0  0  0  0  0  0  0  0  0  0
   10.0119    2.1620   23.7987 N   0  0  0  0  0  0  0  0  0  0  0  0
   10.9736    2.2442   23.5272 H   0  0  0  0  0  0  0  0  0  0  0  0
   10.0749    2.0406   25.9611 H   0  0  0  0  0  0  0  0  0  0  0  0
    8.0878    2.2438   21.0238 H   0  0  0  0  0  0  0  0  0  0  0  0
    9.7614    2.7644   21.0975 H   0  0  0  0  0  0  0  0  0  0  0  0
   10.5428    0.3661   21.3023 H   0  0  0  0  0  0  0  0  0  0  0  0
    9.5724    0.5974   19.8548 H   0  0  0  0  0  0  0  0  0  0  0  0
    8.8793   -1.3680   22.3618 N   0  0  0  0  0  0  0  0  0  0  0  0
    6.6857   -4.1834   23.2249 C   0  0  0  0  0  0  0  0  0  0  0  0
    6.3892   -5.1228   24.4015 C   0  0  0  0  0  0  0  0  0  0  0  0
    7.3385   -5.4930   24.8275 H   0  0  0  0  0  0  0  0  0  0  0  0
    5.8444   -6.0074   24.0432 H   0  0  0  0  0  0  0  0  0  0  0  0
    5.7491   -3.8934   22.7206 H   0  0  0  0  0  0  0  0  0  0  0  0
    7.2989   -4.6971   22.4732 H   0  0  0  0  0  0  0  0  0  0  0  0
    8.3984   -3.1467   24.0866 H   0  0  0  0  0  0  0  0  0  0  0  0
    7.1602   -1.3205   25.2017 H   0  0  0  0  0  0  0  0  0  0  0  0
    5.6581   -1.8032   24.4167 H   0  0  0  0  0  0  0  0  0  0  0  0
    5.6891   -2.6409   26.7476 H   0  0  0  0  0  0  0  0  0  0  0  0
    7.2421   -3.4353   26.4935 H   0  0  0  0  0  0  0  0  0  0  0  0
    4.6173   -4.1128   25.0706 H   0  0  0  0  0  0  0  0  0  0  0  0
    6.2425   -5.7097   27.1425 H   0  0  0  0  0  0  0  0  0  0  0  0
    4.7644   -6.2768   26.3470 H   0  0  0  0  0  0  0  0  0  0  0  0
    4.7010   -4.8956   27.4594 H   0  0  0  0  0  0  0  0  0  0  0  0
  1  2  1  0
  2  3  1  0
  3  4  1  0
  4  5  1  0
  5  6  1  0
  6  7  2  0
  7  8  1  0
  8  9  1  0
  9 10  2  0
 10 11  1  0
 11 12  2  0
 12 13  1  0
 13 14  2  0
 14 15  1  0
 12 16  1  0
 11 17  1  0
 10 18  1  0
  8 19  1  0
 19 20  1  0
 20 21  1  0
 21 22  1  0
 22 23  2  0
 23 24  1  0
 24 25  2  0
 25 26  1  0
 26 27  1  0
 25 28  1  0
 21 29  1  0
 21 30  1  0
 20 31  1  0
 20 32  1  0
 19 33  2  0
  5 34  1  0
 34 35  1  0
 35 36  1  0
 35 37  1  0
 34 38  1  0
 34 39  1  0
  5 40  1  0
  4 41  1  0
  4 42  1  0
  3 43  1  0
  3 44  1  0
  2 45  1  0
  1 46  1  0
  1 47  1  0
  1 48  1  0
 35  2  1  0
 33  6  1  0
 14  9  1  0
 26 22  1  0
M  END
>  <cnnaffinity>  (1) 
-5.89739

>  <filename>  (1) 
CC1CCC(c2nc(CCc3nnc[nH]3)n(-c3cccnc3)n2)CC1

$$$$
