
     RDKit          3D

 46 49  0  0  0  0  0  0  0  0999 V2000
   16.0246   -0.3074   19.6595 C   0  0  0  0  0  0  0  0  0  0  0  0
   14.7241   -0.7941   20.5301 C   0  0  0  0  0  0  0  0  0  0  0  0
   14.4348    0.0782   21.6390 C   0  0  0  0  0  0  0  0  0  0  0  0
   13.1587    0.2468   22.1673 C   0  0  0  0  0  0  0  0  0  0  0  0
   12.1148   -0.5479   21.6458 C   0  0  0  0  0  0  0  0  0  0  0  0
   10.6705   -0.1742   21.7102 C   0  0  0  0  0  0  0  0  0  0  0  0
    9.6926   -0.9604   21.2738 N   0  0  0  0  0  0  0  0  0  0  0  0
    8.5776   -0.2141   21.4327 N   0  0  0  0  0  0  0  0  0  0  0  0
    7.2709   -0.7333   21.0329 C   0  0  0  0  0  0  0  0  0  0  0  0
    6.5762    0.0396   19.9270 C   0  0  0  0  0  0  0  0  0  0  0  0
    5.3706    0.7217   20.1386 C   0  0  0  0  0  0  0  0  0  0  0  0
    4.7665    1.3752   19.0581 C   0  0  0  0  0  0  0  0  0  0  0  0
    5.3999    1.3342   17.8125 C   0  0  0  0  0  0  0  0  0  0  0  0
    6.5561    0.6906   17.5924 N   0  0  0  0  0  0  0  0  0  0  0  0
    7.1218    0.0665   18.6331 C   0  0  0  0  0  0  0  0  0  0  0  0
    8.0552   -0.4554   18.4238 H   0  0  0  0  0  0  0  0  0  0  0  0
    4.9583    1.8326   16.9504 H   0  0  0  0  0  0  0  0  0  0  0  0
    3.8349    1.9188   19.1650 H   0  0  0  0  0  0  0  0  0  0  0  0
    4.9277    0.7504   21.1390 H   0  0  0  0  0  0  0  0  0  0  0  0
    7.4565   -1.7675   20.7311 H   0  0  0  0  0  0  0  0  0  0  0  0
    6.6301   -0.7521   21.9178 H   0  0  0  0  0  0  0  0  0  0  0  0
    8.9148    0.9758   21.9682 C   0  0  0  0  0  0  0  0  0  0  0  0
    7.9168    1.9054   22.5819 C   0  0  0  0  0  0  0  0  0  0  0  0
    7.3795    1.3250   23.8090 N   0  0  0  0  0  0  0  0  0  0  0  0
    6.0993    0.9182   23.8107 N   0  0  0  0  0  0  0  0  0  0  0  0
    5.9250    0.3028   24.9722 C   0  0  0  0  0  0  0  0  0  0  0  0
    7.1215    0.2992   25.7068 C   0  0  0  0  0  0  0  0  0  0  0  0
    7.4038   -0.3878   27.2640 Cl  0  0  0  0  0  0  0  0  0  0  0  0
    8.0560    0.9591   24.9361 C   0  0  0  0  0  0  0  0  0  0  0  0
    9.5137    1.1793   25.2019 C   0  0  0  0  0  0  0  0  0  0  0  0
    9.7078    1.1706   26.2758 H   0  0  0  0  0  0  0  0  0  0  0  0
   10.1058    0.3753   24.7478 H   0  0  0  0  0  0  0  0  0  0  0  0
    9.8772    2.1182   24.7729 H   0  0  0  0  0  0  0  0  0  0  0  0
    4.9729   -0.1308   25.2420 H   0  0  0  0  0  0  0  0  0  0  0  0
    7.0641    2.0857   21.9258 H   0  0  0  0  0  0  0  0  0  0  0  0
    8.4013    2.8612   22.7968 H   0  0  0  0  0  0  0  0  0  0  0  0
   10.2268    1.0497   22.1177 N   0  0  0  0  0  0  0  0  0  0  0  0
   12.5009   -1.6618   20.8845 C   0  0  0  0  0  0  0  0  0  0  0  0
   13.7840   -1.8096   20.3249 C   0  0  0  0  0  0  0  0  0  0  0  0
   14.0191   -2.7076   19.7646 H   0  0  0  0  0  0  0  0  0  0  0  0
   11.7026   -2.3545   20.7041 H   0  0  0  0  0  0  0  0  0  0  0  0
   12.9933    1.0212   22.9100 H   0  0  0  0  0  0  0  0  0  0  0  0
   15.2040    0.7682   21.9713 H   0  0  0  0  0  0  0  0  0  0  0  0
   15.9394    0.1208   18.6572 H   0  0  0  0  0  0  0  0  0  0  0  0
   16.3843    0.5827   20.1604 H   0  0  0  0  0  0  0  0  0  0  0  0
   16.8407   -1.0285   19.6475 H   0  0  0  0  0  0  0  0  0  0  0  0
  1  2  1  0
  2  3  2  0
  3  4  1  0
  4  5  2  0
  5  6  1  0
  6  7  2  0
  7  8  1  0
  8  9  1  0
  9 10  1  0
 10 11  2  0
 11 12  1  0
 12 13  2  0
 13 14  1  0
 14 15  2  0
 15 16  1  0
 13 17  1  0
 12 18  1  0
 11 19  1  0
  9 20  1  0
  9 21  1  0
  8 22  1  0
 22 23  1  0
 23 24  1  0
 24 25  1  0
 25 26  2  0
 26 27  1  0
 27 28  1  0
 27 29  2  0
 29 30  1  0
 30 31  1  0
 30 32  1  0
 30 33  1  0
 26 34  1  0
 23 35  1  0
 23 36  1  0
 22 37  2  0
  5 38  1  0
 38 39  2  0
 39 40  1  0
 38 41  1  0
  4 42  1  0
  3 43  1  0
  1 44  1  0
  1 45  1  0
  1 46  1  0
 39  2  1  0
 37  6  1  0
 15 10  1  0
 29 24  1  0
M  END
>  <cnnaffinity>  (1) 
-6.71071

>  <filename>  (1) 
Cc1ccc(-c2nc(Cn3ncc(Cl)c3C)n(Cc3cccnc3)n2)cc1

$$$$
