
     RDKit          3D

 47 50  0  0  0  0  0  0  0  0999 V2000
   11.9820    2.6154   24.5508 C   0  0  0  0  0  0  0  0  0  0  0  0
   11.0310    2.2870   23.4630 C   0  0  0  0  0  0  0  0  0  0  0  0
    9.8642    2.9015   23.3436 N   0  0  0  0  0  0  0  0  0  0  0  0
    9.2486    2.3018   22.3020 N   0  0  0  0  0  0  0  0  0  0  0  0
    7.8695    2.6737   22.0241 C   0  0  0  0  0  0  0  0  0  0  0  0
    7.7083    2.7314   20.9494 H   0  0  0  0  0  0  0  0  0  0  0  0
    7.7032    3.6583   22.4669 H   0  0  0  0  0  0  0  0  0  0  0  0
    7.1454    1.9634   22.4456 H   0  0  0  0  0  0  0  0  0  0  0  0
   10.0089    1.3025   21.7708 C   0  0  0  0  0  0  0  0  0  0  0  0
    9.5730    0.2765   20.7640 C   0  0  0  0  0  0  0  0  0  0  0  0
    8.5382   -0.6662   21.2894 C   0  0  0  0  0  0  0  0  0  0  0  0
    8.7563   -1.5124   22.2779 N   0  0  0  0  0  0  0  0  0  0  0  0
    7.5399   -2.0805   22.4735 C   0  0  0  0  0  0  0  0  0  0  0  0
    7.3257   -3.0684   23.5752 C   0  0  0  0  0  0  0  0  0  0  0  0
    6.5519   -2.4334   24.7631 C   0  0  0  0  0  0  0  0  0  0  0  0
    6.0546   -3.4604   25.7472 C   0  0  0  0  0  0  0  0  0  0  0  0
    6.0501   -4.7740   25.5141 C   0  0  0  0  0  0  0  0  0  0  0  0
    6.5238   -5.3962   24.2212 C   0  0  0  0  0  0  0  0  0  0  0  0
    6.6576   -4.3712   23.0828 C   0  0  0  0  0  0  0  0  0  0  0  0
    7.2395   -4.8045   22.2594 H   0  0  0  0  0  0  0  0  0  0  0  0
    5.6662   -4.1205   22.6829 H   0  0  0  0  0  0  0  0  0  0  0  0
    5.8261   -6.1881   23.9235 H   0  0  0  0  0  0  0  0  0  0  0  0
    7.4853   -5.9025   24.3998 H   0  0  0  0  0  0  0  0  0  0  0  0
    5.7145   -5.4534   26.2978 H   0  0  0  0  0  0  0  0  0  0  0  0
    5.6554   -3.0753   26.6853 H   0  0  0  0  0  0  0  0  0  0  0  0
    7.2036   -1.7162   25.2812 H   0  0  0  0  0  0  0  0  0  0  0  0
    5.7004   -1.8439   24.3962 H   0  0  0  0  0  0  0  0  0  0  0  0
    8.3328   -3.3070   23.9363 H   0  0  0  0  0  0  0  0  0  0  0  0
    6.5896   -1.6574   21.6549 N   0  0  0  0  0  0  0  0  0  0  0  0
    7.2523   -0.7790   20.8578 N   0  0  0  0  0  0  0  0  0  0  0  0
    6.5672   -0.0788   19.8317 C   0  0  0  0  0  0  0  0  0  0  0  0
    5.3834    0.6063   20.1146 C   0  0  0  0  0  0  0  0  0  0  0  0
    4.7857    1.3235   19.0723 C   0  0  0  0  0  0  0  0  0  0  0  0
    5.3754    1.3227   17.8025 C   0  0  0  0  0  0  0  0  0  0  0  0
    6.4963    0.6404   17.5203 N   0  0  0  0  0  0  0  0  0  0  0  0
    7.0670   -0.0427   18.5190 C   0  0  0  0  0  0  0  0  0  0  0  0
    7.9820   -0.5821   18.2793 H   0  0  0  0  0  0  0  0  0  0  0  0
    4.9361    1.8881   16.9812 H   0  0  0  0  0  0  0  0  0  0  0  0
    3.8713    1.8818   19.2348 H   0  0  0  0  0  0  0  0  0  0  0  0
    4.9618    0.5742   21.1220 H   0  0  0  0  0  0  0  0  0  0  0  0
    9.2563    0.7376   19.8290 H   0  0  0  0  0  0  0  0  0  0  0  0
   10.4375   -0.3508   20.5377 H   0  0  0  0  0  0  0  0  0  0  0  0
   11.1743    1.2762   22.5019 C   0  0  0  0  0  0  0  0  0  0  0  0
   12.0077    0.5993   22.3814 H   0  0  0  0  0  0  0  0  0  0  0  0
   12.9645    2.1817   24.3389 H   0  0  0  0  0  0  0  0  0  0  0  0
   12.0771    3.7031   24.6674 H   0  0  0  0  0  0  0  0  0  0  0  0
   11.6316    2.1590   25.4844 H   0  0  0  0  0  0  0  0  0  0  0  0
  1  2  1  0
  2  3  2  0
  3  4  1  0
  4  5  1  0
  5  6  1  0
  5  7  1  0
  5  8  1  0
  4  9  1  0
  9 10  1  0
 10 11  1  0
 11 12  2  0
 12 13  1  0
 13 14  1  0
 14 15  1  0
 15 16  1  0
 16 17  2  0
 17 18  1  0
 18 19  1  0
 19 20  1  0
 19 21  1  0
 18 22  1  0
 18 23  1  0
 17 24  1  0
 16 25  1  0
 15 26  1  0
 15 27  1  0
 14 28  1  0
 13 29  2  0
 29 30  1  0
 30 31  1  0
 31 32  2  0
 32 33  1  0
 33 34  2  0
 34 35  1  0
 35 36  2  0
 36 37  1  0
 34 38  1  0
 33 39  1  0
 32 40  1  0
 10 41  1  0
 10 42  1  0
  9 43  2  0
 43 44  1  0
  1 45  1  0
  1 46  1  0
  1 47  1  0
 43  2  1  0
 30 11  1  0
 36 31  1  0
 19 14  1  0
M  END
>  <cnnaffinity>  (1) 
-6.33304

>  <filename>  (1) 
Cc1cc(Cc2nc(C3CC=CCC3)nn2-c2cccnc2)n(C)n1

$$$$
