
     RDKit          3D

 42 45  0  0  0  0  0  0  0  0999 V2000
   16.0212   -0.3146   19.6537 C   0  0  0  0  0  0  0  0  0  0  0  0
   14.7179   -0.7821   20.5328 C   0  0  0  0  0  0  0  0  0  0  0  0
   14.4490    0.0946   21.6469 C   0  0  0  0  0  0  0  0  0  0  0  0
   13.1725    0.3016   22.1559 C   0  0  0  0  0  0  0  0  0  0  0  0
   12.1179   -0.4844   21.6429 C   0  0  0  0  0  0  0  0  0  0  0  0
   10.6836   -0.1047   21.7482 C   0  0  0  0  0  0  0  0  0  0  0  0
    9.7238   -0.8830   21.2641 N   0  0  0  0  0  0  0  0  0  0  0  0
    8.5970   -0.1724   21.4705 N   0  0  0  0  0  0  0  0  0  0  0  0
    7.3025   -0.6999   21.0401 C   0  0  0  0  0  0  0  0  0  0  0  0
    6.5966    0.0661   19.9314 C   0  0  0  0  0  0  0  0  0  0  0  0
    5.3576    0.6997   20.1044 C   0  0  0  0  0  0  0  0  0  0  0  0
    4.7651    1.3506   19.0186 C   0  0  0  0  0  0  0  0  0  0  0  0
    5.4268    1.3356   17.7883 C   0  0  0  0  0  0  0  0  0  0  0  0
    6.6013    0.7146   17.5913 N   0  0  0  0  0  0  0  0  0  0  0  0
    7.1605    0.1062   18.6436 C   0  0  0  0  0  0  0  0  0  0  0  0
    8.1051   -0.4007   18.4489 H   0  0  0  0  0  0  0  0  0  0  0  0
    4.9973    1.8379   16.9230 H   0  0  0  0  0  0  0  0  0  0  0  0
    3.8187    1.8742   19.1111 H   0  0  0  0  0  0  0  0  0  0  0  0
    4.8516    0.6828   21.0726 H   0  0  0  0  0  0  0  0  0  0  0  0
    7.5168   -1.7193   20.7118 H   0  0  0  0  0  0  0  0  0  0  0  0
    6.6479   -0.7836   21.9132 H   0  0  0  0  0  0  0  0  0  0  0  0
    8.9076    0.9720   22.1096 C   0  0  0  0  0  0  0  0  0  0  0  0
    7.8450    1.8038   22.7844 C   0  0  0  0  0  0  0  0  0  0  0  0
    7.4070    1.1612   24.0967 C   0  0  0  0  0  0  0  0  0  0  0  0
    6.2645    0.5598   24.5133 C   0  0  0  0  0  0  0  0  0  0  0  0
    6.4473   -0.0325   25.7055 O   0  0  0  0  0  0  0  0  0  0  0  0
    7.7389    0.1746   26.1245 N   0  0  0  0  0  0  0  0  0  0  0  0
    8.2979    0.8808   25.1826 C   0  0  0  0  0  0  0  0  0  0  0  0
    9.3426    1.1624   25.2539 H   0  0  0  0  0  0  0  0  0  0  0  0
    5.2665    0.4522   24.1106 H   0  0  0  0  0  0  0  0  0  0  0  0
    8.2781    2.7920   22.9638 H   0  0  0  0  0  0  0  0  0  0  0  0
    6.9933    1.9462   22.1077 H   0  0  0  0  0  0  0  0  0  0  0  0
   10.2181    1.0578   22.2848 N   0  0  0  0  0  0  0  0  0  0  0  0
   12.4737   -1.6134   20.8805 C   0  0  0  0  0  0  0  0  0  0  0  0
   13.7600   -1.7844   20.3354 C   0  0  0  0  0  0  0  0  0  0  0  0
   13.9786   -2.7041   19.7976 H   0  0  0  0  0  0  0  0  0  0  0  0
   11.6722   -2.3099   20.6885 H   0  0  0  0  0  0  0  0  0  0  0  0
   13.0036    1.1300   22.8425 H   0  0  0  0  0  0  0  0  0  0  0  0
   15.2354    0.7493   22.0143 H   0  0  0  0  0  0  0  0  0  0  0  0
   16.8095   -1.0627   19.6500 H   0  0  0  0  0  0  0  0  0  0  0  0
   16.4249    0.5552   20.1519 H   0  0  0  0  0  0  0  0  0  0  0  0
   15.9582    0.1418   18.6579 H   0  0  0  0  0  0  0  0  0  0  0  0
  1  2  1  0
  2  3  2  0
  3  4  1  0
  4  5  2  0
  5  6  1  0
  6  7  2  0
  7  8  1  0
  8  9  1  0
  9 10  1  0
 10 11  2  0
 11 12  1  0
 12 13  2  0
 13 14  1  0
 14 15  2  0
 15 16  1  0
 13 17  1  0
 12 18  1  0
 11 19  1  0
  9 20  1  0
  9 21  1  0
  8 22  1  0
 22 23  1  0
 23 24  1  0
 24 25  2  0
 25 26  1  0
 26 27  1  0
 27 28  2  0
 28 29  1  0
 25 30  1  0
 23 31  1  0
 23 32  1  0
 22 33  2  0
  5 34  1  0
 34 35  2  0
 35 36  1  0
 34 37  1  0
  4 38  1  0
  3 39  1  0
  1 40  1  0
  1 41  1  0
  1 42  1  0
 35  2  1  0
 33  6  1  0
 15 10  1  0
 28 24  1  0
M  END
>  <cnnaffinity>  (1) 
-6.29265

>  <filename>  (1) 
Cc1ccc(-c2nc(Cc3cnoc3)n(Cc3cccnc3)n2)cc1

$$$$
