
     RDKit          3D

 42 44  0  0  0  0  0  0  0  0999 V2000
    8.3114    2.7501   22.0630 C   0  0  0  0  0  0  0  0  0  0  0  0
    9.6713    2.2696   22.5109 C   0  0  0  0  0  0  0  0  0  0  0  0
   10.3188    2.9193   23.5683 C   0  0  0  0  0  0  0  0  0  0  0  0
   11.5651    2.4844   24.0278 C   0  0  0  0  0  0  0  0  0  0  0  0
   12.1892    1.3861   23.4383 C   0  0  0  0  0  0  0  0  0  0  0  0
   11.5564    0.7366   22.3741 C   0  0  0  0  0  0  0  0  0  0  0  0
   10.3184    1.1767   21.8951 C   0  0  0  0  0  0  0  0  0  0  0  0
    9.6199    0.3746   20.8154 C   0  0  0  0  0  0  0  0  0  0  0  0
    8.6097   -0.5667   21.3718 C   0  0  0  0  0  0  0  0  0  0  0  0
    8.8520   -1.4372   22.3274 N   0  0  0  0  0  0  0  0  0  0  0  0
    7.6413   -2.0220   22.5212 C   0  0  0  0  0  0  0  0  0  0  0  0
    7.4232   -3.0331   23.6107 C   0  0  0  0  0  0  0  0  0  0  0  0
    8.3551   -4.2471   23.4421 C   0  0  0  0  0  0  0  0  0  0  0  0
    8.1354   -5.0028   24.2040 H   0  0  0  0  0  0  0  0  0  0  0  0
    8.2331   -4.7115   22.4583 H   0  0  0  0  0  0  0  0  0  0  0  0
    9.4059   -3.9520   23.5474 H   0  0  0  0  0  0  0  0  0  0  0  0
    7.5895   -2.3954   25.0061 C   0  0  0  0  0  0  0  0  0  0  0  0
    7.3677   -3.1276   25.7901 H   0  0  0  0  0  0  0  0  0  0  0  0
    8.6167   -2.0396   25.1516 H   0  0  0  0  0  0  0  0  0  0  0  0
    6.9160   -1.5422   25.1413 H   0  0  0  0  0  0  0  0  0  0  0  0
    6.3852   -3.3552   23.4920 H   0  0  0  0  0  0  0  0  0  0  0  0
    6.6880   -1.6056   21.7124 N   0  0  0  0  0  0  0  0  0  0  0  0
    7.3255   -0.6939   20.9320 N   0  0  0  0  0  0  0  0  0  0  0  0
    6.6424   -0.0042   19.8967 C   0  0  0  0  0  0  0  0  0  0  0  0
    5.4343    0.6455   20.1637 C   0  0  0  0  0  0  0  0  0  0  0  0
    4.8116    1.3143   19.1078 C   0  0  0  0  0  0  0  0  0  0  0  0
    5.3990    1.2977   17.8365 C   0  0  0  0  0  0  0  0  0  0  0  0
    6.5553    0.6709   17.5730 N   0  0  0  0  0  0  0  0  0  0  0  0
    7.1608    0.0451   18.5887 C   0  0  0  0  0  0  0  0  0  0  0  0
    8.1119   -0.4330   18.3642 H   0  0  0  0  0  0  0  0  0  0  0  0
    4.9201    1.7877   16.9929 H   0  0  0  0  0  0  0  0  0  0  0  0
    3.8798    1.8415   19.2602 H   0  0  0  0  0  0  0  0  0  0  0  0
    5.0138    0.6091   21.1724 H   0  0  0  0  0  0  0  0  0  0  0  0
    9.1564    1.0388   20.0844 H   0  0  0  0  0  0  0  0  0  0  0  0
   10.3253   -0.2815   20.3058 H   0  0  0  0  0  0  0  0  0  0  0  0
   12.0089   -0.1415   21.9153 H   0  0  0  0  0  0  0  0  0  0  0  0
   13.1543    1.0350   23.7951 H   0  0  0  0  0  0  0  0  0  0  0  0
   12.0311    3.0114   24.8475 H   0  0  0  0  0  0  0  0  0  0  0  0
    9.8292    3.7759   24.0288 H   0  0  0  0  0  0  0  0  0  0  0  0
    7.9612    3.5935   22.6629 H   0  0  0  0  0  0  0  0  0  0  0  0
    7.5506    1.9621   22.1120 H   0  0  0  0  0  0  0  0  0  0  0  0
    8.3507    3.0792   21.0247 H   0  0  0  0  0  0  0  0  0  0  0  0
  1  2  1  0
  2  3  2  0
  3  4  1  0
  4  5  2  0
  5  6  1  0
  6  7  2  0
  7  8  1  0
  8  9  1  0
  9 10  2  0
 10 11  1  0
 11 12  1  0
 12 13  1  0
 13 14  1  0
 13 15  1  0
 13 16  1  0
 12 17  1  0
 17 18  1  0
 17 19  1  0
 17 20  1  0
 12 21  1  0
 11 22  2  0
 22 23  1  0
 23 24  1  0
 24 25  2  0
 25 26  1  0
 26 27  2  0
 27 28  1  0
 28 29  2  0
 29 30  1  0
 27 31  1  0
 26 32  1  0
 25 33  1  0
  8 34  1  0
  8 35  1  0
  6 36  1  0
  5 37  1  0
  4 38  1  0
  3 39  1  0
  1 40  1  0
  1 41  1  0
  1 42  1  0
  7  2  1  0
 23  9  1  0
 29 24  1  0
M  END
>  <cnnaffinity>  (1) 
-5.95528

>  <filename>  (1) 
Cc1ccccc1Cc1nc(C(C)C)nn1-c1cccnc1

$$$$
