
     RDKit          3D

 48 51  0  0  0  0  0  0  0  0999 V2000
   11.9534   -0.0657   23.7881 C   0  0  0  0  0  0  0  0  0  0  0  0
   11.4490    1.3262   23.5404 C   0  0  0  0  0  0  0  0  0  0  0  0
   12.1956    2.3881   24.0353 C   0  0  0  0  0  0  0  0  0  0  0  0
   11.7029    3.6976   24.0134 C   0  0  0  0  0  0  0  0  0  0  0  0
   10.4605    3.9824   23.4409 C   0  0  0  0  0  0  0  0  0  0  0  0
    9.9135    5.3882   23.3939 C   0  0  0  0  0  0  0  0  0  0  0  0
   10.5448    6.0876   23.9517 H   0  0  0  0  0  0  0  0  0  0  0  0
    8.8933    5.4250   23.7940 H   0  0  0  0  0  0  0  0  0  0  0  0
    9.8436    5.7266   22.3540 H   0  0  0  0  0  0  0  0  0  0  0  0
    9.7298    2.9056   22.8774 C   0  0  0  0  0  0  0  0  0  0  0  0
    8.5021    3.2415   22.3640 O   0  0  0  0  0  0  0  0  0  0  0  0
    7.7264    2.3014   21.6435 C   0  0  0  0  0  0  0  0  0  0  0  0
    6.9898    1.3064   22.5867 C   0  0  0  0  0  0  0  0  0  0  0  0
    7.2064   -0.1289   22.2418 C   0  0  0  0  0  0  0  0  0  0  0  0
    7.8493   -1.0155   22.9749 N   0  0  0  0  0  0  0  0  0  0  0  0
    7.9982   -2.0733   22.1311 C   0  0  0  0  0  0  0  0  0  0  0  0
    8.8193   -3.2648   22.4869 C   0  0  0  0  0  0  0  0  0  0  0  0
    8.5244   -3.8353   23.9028 C   0  0  0  0  0  0  0  0  0  0  0  0
   10.0493   -3.0946   24.5799 S   0  0  0  0  0  0  0  0  0  0  0  0
   10.2881   -2.8421   22.7962 C   0  0  0  0  0  0  0  0  0  0  0  0
   11.0929   -3.4667   22.4226 H   0  0  0  0  0  0  0  0  0  0  0  0
   10.5266   -1.8143   22.5154 H   0  0  0  0  0  0  0  0  0  0  0  0
    7.6116   -3.4730   24.3873 H   0  0  0  0  0  0  0  0  0  0  0  0
    8.5472   -4.9280   23.9344 H   0  0  0  0  0  0  0  0  0  0  0  0
    8.6963   -3.9825   21.6746 H   0  0  0  0  0  0  0  0  0  0  0  0
    7.4831   -1.9053   20.9337 N   0  0  0  0  0  0  0  0  0  0  0  0
    6.9333   -0.6587   21.0146 N   0  0  0  0  0  0  0  0  0  0  0  0
    6.3640   -0.0436   19.8678 C   0  0  0  0  0  0  0  0  0  0  0  0
    5.1967    0.7298   19.9313 C   0  0  0  0  0  0  0  0  0  0  0  0
    4.7836    1.3738   18.7616 C   0  0  0  0  0  0  0  0  0  0  0  0
    5.5311    1.2181   17.5909 C   0  0  0  0  0  0  0  0  0  0  0  0
    6.6319    0.4463   17.5193 N   0  0  0  0  0  0  0  0  0  0  0  0
    7.0232   -0.1771   18.6327 C   0  0  0  0  0  0  0  0  0  0  0  0
    7.9129   -0.8023   18.5685 H   0  0  0  0  0  0  0  0  0  0  0  0
    5.2372    1.7224   16.6740 H   0  0  0  0  0  0  0  0  0  0  0  0
    3.9065    2.0128   18.7578 H   0  0  0  0  0  0  0  0  0  0  0  0
    4.6252    0.8243   20.8561 H   0  0  0  0  0  0  0  0  0  0  0  0
    7.3474    1.4511   23.6081 H   0  0  0  0  0  0  0  0  0  0  0  0
    5.9122    1.5057   22.6004 H   0  0  0  0  0  0  0  0  0  0  0  0
    6.9910    2.9024   21.1035 H   0  0  0  0  0  0  0  0  0  0  0  0
    8.3451    1.8065   20.8774 H   0  0  0  0  0  0  0  0  0  0  0  0
   10.2279    1.5973   22.8965 C   0  0  0  0  0  0  0  0  0  0  0  0
    9.6475    0.7927   22.4491 H   0  0  0  0  0  0  0  0  0  0  0  0
   12.2762    4.5146   24.4476 H   0  0  0  0  0  0  0  0  0  0  0  0
   13.1755    2.1337   24.4278 H   0  0  0  0  0  0  0  0  0  0  0  0
   11.1709   -0.6912   24.2437 H   0  0  0  0  0  0  0  0  0  0  0  0
   12.8005   -0.0495   24.4865 H   0  0  0  0  0  0  0  0  0  0  0  0
   12.2985   -0.5590   22.8710 H   0  0  0  0  0  0  0  0  0  0  0  0
  1  2  1  0
  2  3  2  0
  3  4  1  0
  4  5  2  0
  5  6  1  0
  6  7  1  0
  6  8  1  0
  6  9  1  0
  5 10  1  0
 10 11  1  0
 11 12  1  0
 12 13  1  0
 13 14  1  0
 14 15  2  0
 15 16  1  0
 16 17  1  0
 17 18  1  0
 18 19  1  0
 19 20  1  0
 20 21  1  0
 20 22  1  0
 18 23  1  0
 18 24  1  0
 17 25  1  0
 16 26  2  0
 26 27  1  0
 27 28  1  0
 28 29  2  0
 29 30  1  0
 30 31  2  0
 31 32  1  0
 32 33  2  0
 33 34  1  0
 31 35  1  0
 30 36  1  0
 29 37  1  0
 13 38  1  0
 13 39  1  0
 12 40  1  0
 12 41  1  0
 10 42  2  0
 42 43  1  0
  4 44  1  0
  3 45  1  0
  1 46  1  0
  1 47  1  0
  1 48  1  0
 42  2  1  0
 27 14  1  0
 33 28  1  0
 20 17  1  0
M  END
>  <cnnaffinity>  (1) 
-6.42501

>  <filename>  (1) 
Cc1ccc(C)c(OCCc2nc(C3CSC3)nn2-c2cccnc2)c1

$$$$
