
     RDKit          3D

 45 48  0  0  0  0  0  0  0  0999 V2000
    7.3616    5.9266   26.6504 C   0  0  0  0  0  0  0  0  0  0  0  0
    7.8287    4.8711   25.6697 C   0  0  0  0  0  0  0  0  0  0  0  0
    8.2392    3.6005   26.1046 C   0  0  0  0  0  0  0  0  0  0  0  0
    8.6417    2.6139   25.2030 C   0  0  0  0  0  0  0  0  0  0  0  0
    8.6450    2.8792   23.8197 C   0  0  0  0  0  0  0  0  0  0  0  0
    9.0611    1.8586   23.0172 O   0  0  0  0  0  0  0  0  0  0  0  0
    9.0585    1.9887   21.5993 C   0  0  0  0  0  0  0  0  0  0  0  0
    9.4975    0.6431   21.0190 C   0  0  0  0  0  0  0  0  0  0  0  0
    8.6078   -0.4702   21.4495 C   0  0  0  0  0  0  0  0  0  0  0  0
    8.8384   -1.3004   22.4406 N   0  0  0  0  0  0  0  0  0  0  0  0
    7.6609   -1.9640   22.5705 C   0  0  0  0  0  0  0  0  0  0  0  0
    7.4392   -2.9312   23.6825 C   0  0  0  0  0  0  0  0  0  0  0  0
    7.5004   -2.2884   25.1015 C   0  0  0  0  0  0  0  0  0  0  0  0
    8.8939   -3.3558   25.5961 S   0  0  0  0  0  0  0  0  0  0  0  0
    8.5895   -3.9516   23.8981 C   0  0  0  0  0  0  0  0  0  0  0  0
    8.2723   -4.9982   23.8747 H   0  0  0  0  0  0  0  0  0  0  0  0
    9.4550   -3.8148   23.2412 H   0  0  0  0  0  0  0  0  0  0  0  0
    6.6057   -2.4501   25.7103 H   0  0  0  0  0  0  0  0  0  0  0  0
    7.7587   -1.2221   25.1126 H   0  0  0  0  0  0  0  0  0  0  0  0
    6.4810   -3.4114   23.4893 H   0  0  0  0  0  0  0  0  0  0  0  0
    6.7332   -1.6297   21.7002 N   0  0  0  0  0  0  0  0  0  0  0  0
    7.3514   -0.6731   20.9482 N   0  0  0  0  0  0  0  0  0  0  0  0
    6.6577    0.0066   19.9043 C   0  0  0  0  0  0  0  0  0  0  0  0
    5.4396    0.6448   20.1658 C   0  0  0  0  0  0  0  0  0  0  0  0
    4.8127    1.3111   19.1087 C   0  0  0  0  0  0  0  0  0  0  0  0
    5.4009    1.2961   17.8377 C   0  0  0  0  0  0  0  0  0  0  0  0
    6.5593    0.6712   17.5774 N   0  0  0  0  0  0  0  0  0  0  0  0
    7.1685    0.0504   18.5937 C   0  0  0  0  0  0  0  0  0  0  0  0
    8.1129   -0.4376   18.3644 H   0  0  0  0  0  0  0  0  0  0  0  0
    4.9214    1.7864   16.9930 H   0  0  0  0  0  0  0  0  0  0  0  0
    3.8798    1.8401   19.2591 H   0  0  0  0  0  0  0  0  0  0  0  0
    5.0146    0.6085   21.1726 H   0  0  0  0  0  0  0  0  0  0  0  0
   10.5150    0.4086   21.3342 H   0  0  0  0  0  0  0  0  0  0  0  0
    9.5137    0.7193   19.9308 H   0  0  0  0  0  0  0  0  0  0  0  0
    9.7528    2.7793   21.2824 H   0  0  0  0  0  0  0  0  0  0  0  0
    8.0540    2.2480   21.2337 H   0  0  0  0  0  0  0  0  0  0  0  0
    8.2373    4.1412   23.3677 C   0  0  0  0  0  0  0  0  0  0  0  0
    7.8355    5.1160   24.2927 C   0  0  0  0  0  0  0  0  0  0  0  0
    7.5118    6.0911   23.9340 H   0  0  0  0  0  0  0  0  0  0  0  0
    8.2308    4.3684   22.3056 H   0  0  0  0  0  0  0  0  0  0  0  0
    8.9483    1.6341   25.5567 H   0  0  0  0  0  0  0  0  0  0  0  0
    8.2293    3.3925   27.1729 H   0  0  0  0  0  0  0  0  0  0  0  0
    7.5562    6.9408   26.2842 H   0  0  0  0  0  0  0  0  0  0  0  0
    7.8494    5.8324   27.6268 H   0  0  0  0  0  0  0  0  0  0  0  0
    6.2814    5.8567   26.8264 H   0  0  0  0  0  0  0  0  0  0  0  0
  1  2  1  0
  2  3  2  0
  3  4  1  0
  4  5  2  0
  5  6  1  0
  6  7  1  0
  7  8  1  0
  8  9  1  0
  9 10  2  0
 10 11  1  0
 11 12  1  0
 12 13  1  0
 13 14  1  0
 14 15  1  0
 15 16  1  0
 15 17  1  0
 13 18  1  0
 13 19  1  0
 12 20  1  0
 11 21  2  0
 21 22  1  0
 22 23  1  0
 23 24  2  0
 24 25  1  0
 25 26  2  0
 26 27  1  0
 27 28  2  0
 28 29  1  0
 26 30  1  0
 25 31  1  0
 24 32  1  0
  8 33  1  0
  8 34  1  0
  7 35  1  0
  7 36  1  0
  5 37  1  0
 37 38  2  0
 38 39  1  0
 37 40  1  0
  4 41  1  0
  3 42  1  0
  1 43  1  0
  1 44  1  0
  1 45  1  0
 38  2  1  0
 22  9  1  0
 28 23  1  0
 15 12  1  0
M  END
>  <cnnaffinity>  (1) 
-5.95549

>  <filename>  (1) 
Cc1ccc(OCCc2nc(C3CSC3)nn2-c2cccnc2)cc1

$$$$
