
     RDKit          3D

 46 49  0  0  0  0  0  0  0  0999 V2000
    4.0738   -4.1566   23.6071 C   0  0  0  0  0  0  0  0  0  0  0  0
    4.4946   -4.0623   23.6372 C   0  0  0  0  0  0  0  0  0  0  0  0
    5.1410   -4.7104   24.5883 C   0  0  0  0  0  0  0  0  0  0  0  0
    5.8557   -6.0472   24.3714 C   0  0  0  0  0  0  0  0  0  0  0  0
    6.0140   -6.5373   23.1412 C   0  0  0  0  0  0  0  0  0  0  0  0
    5.8896   -5.8020   21.9569 N   0  0  0  0  0  0  0  0  0  0  0  0
    5.5372   -4.5909   22.0206 C   0  0  0  0  0  0  0  0  0  0  0  0
    5.6794   -3.6685   20.8850 C   0  0  0  0  0  0  0  0  0  0  0  0
    6.9723   -2.8235   20.7203 C   0  0  0  0  0  0  0  0  0  0  0  0
    7.2784   -1.6998   21.6507 C   0  0  0  0  0  0  0  0  0  0  0  0
    7.9390   -1.8457   22.7788 N   0  0  0  0  0  0  0  0  0  0  0  0
    8.0551   -0.5783   23.2466 C   0  0  0  0  0  0  0  0  0  0  0  0
    8.7180   -0.2890   24.5541 C   0  0  0  0  0  0  0  0  0  0  0  0
    8.9861   -1.5332   25.4385 C   0  0  0  0  0  0  0  0  0  0  0  0
    8.7710   -1.0138   26.8745 C   0  0  0  0  0  0  0  0  0  0  0  0
    8.4999    0.3741   26.7600 O   0  0  0  0  0  0  0  0  0  0  0  0
    7.8928    0.5884   25.5056 C   0  0  0  0  0  0  0  0  0  0  0  0
    6.8351    0.2741   25.5092 H   0  0  0  0  0  0  0  0  0  0  0  0
    7.9412    1.6572   25.2772 H   0  0  0  0  0  0  0  0  0  0  0  0
    9.6378   -1.1315   27.5335 H   0  0  0  0  0  0  0  0  0  0  0  0
    7.9152   -1.5251   27.3450 H   0  0  0  0  0  0  0  0  0  0  0  0
    9.9754   -1.9620   25.2598 H   0  0  0  0  0  0  0  0  0  0  0  0
    8.2508   -2.3134   25.2199 H   0  0  0  0  0  0  0  0  0  0  0  0
    9.6555    0.2356   24.3407 H   0  0  0  0  0  0  0  0  0  0  0  0
    7.5523    0.3512   22.4563 N   0  0  0  0  0  0  0  0  0  0  0  0
    7.0718   -0.3688   21.4075 N   0  0  0  0  0  0  0  0  0  0  0  0
    6.5636    0.3056   20.2511 C   0  0  0  0  0  0  0  0  0  0  0  0
    5.3641    1.0245   20.3002 C   0  0  0  0  0  0  0  0  0  0  0  0
    4.9179    1.6383   19.1224 C   0  0  0  0  0  0  0  0  0  0  0  0
    5.6845    1.5264   17.9580 C   0  0  0  0  0  0  0  0  0  0  0  0
    6.8493    0.8629   17.9128 N   0  0  0  0  0  0  0  0  0  0  0  0
    7.2764    0.2796   19.0386 C   0  0  0  0  0  0  0  0  0  0  0  0
    8.2355   -0.2356   18.9850 H   0  0  0  0  0  0  0  0  0  0  0  0
    5.3640    1.9835   17.0238 H   0  0  0  0  0  0  0  0  0  0  0  0
    4.0025    2.2191   19.0984 H   0  0  0  0  0  0  0  0  0  0  0  0
    4.8126    1.1092   21.2370 H   0  0  0  0  0  0  0  0  0  0  0  0
    7.8408   -3.4889   20.7655 H   0  0  0  0  0  0  0  0  0  0  0  0
    6.9318   -2.3902   19.7144 H   0  0  0  0  0  0  0  0  0  0  0  0
    5.6063   -4.2875   19.9778 H   0  0  0  0  0  0  0  0  0  0  0  0
    4.8400   -2.9944   20.8744 H   0  0  0  0  0  0  0  0  0  0  0  0
    6.3398   -7.5652   22.9606 H   0  0  0  0  0  0  0  0  0  0  0  0
    6.2023   -6.5098   25.2905 H   0  0  0  0  0  0  0  0  0  0  0  0
    5.2631   -4.3206   25.5884 H   0  0  0  0  0  0  0  0  0  0  0  0
    3.3990   -4.9941   23.0116 H   0  0  0  0  0  0  0  0  0  0  0  0
    4.2573   -3.0886   23.0294 H   0  0  0  0  0  0  0  0  0  0  0  0
    2.7547   -3.8536   24.1718 H   0  0  0  0  0  0  0  0  0  0  0  0
  1  2  1  0
  2  3  2  0
  3  4  1  0
  4  5  2  0
  5  6  1  0
  6  7  2  0
  7  8  1  0
  8  9  1  0
  9 10  1  0
 10 11  2  0
 11 12  1  0
 12 13  1  0
 13 14  1  0
 14 15  1  0
 15 16  1  0
 16 17  1  0
 17 18  1  0
 17 19  1  0
 15 20  1  0
 15 21  1  0
 14 22  1  0
 14 23  1  0
 13 24  1  0
 12 25  2  0
 25 26  1  0
 26 27  1  0
 27 28  2  0
 28 29  1  0
 29 30  2  0
 30 31  1  0
 31 32  2  0
 32 33  1  0
 30 34  1  0
 29 35  1  0
 28 36  1  0
  9 37  1  0
  9 38  1  0
  8 39  1  0
  8 40  1  0
  5 41  1  0
  4 42  1  0
  3 43  1  0
  1 44  1  0
  1 45  1  0
  1 46  1  0
  7  2  1  0
 26 10  1  0
 32 27  1  0
 17 13  1  0
M  END
>  <cnnaffinity>  (1) 
-5.82925

>  <filename>  (1) 
Cc1cccnc1CCc1nc(C2CCOC2)nn1-c1cccnc1

$$$$
