
     RDKit          3D

 47 51  0  0  0  0  0  0  0  0999 V2000
   14.3933    0.9671   22.8432 C   0  0  0  0  0  0  0  0  0  0  0  0
   13.3534   -0.0028   22.3621 C   0  0  0  0  0  0  0  0  0  0  0  0
   13.7454   -1.1139   21.6064 C   0  0  0  0  0  0  0  0  0  0  0  0
   12.8009   -1.9037   20.9628 C   0  0  0  0  0  0  0  0  0  0  0  0
   11.4403   -1.6853   21.1772 C   0  0  0  0  0  0  0  0  0  0  0  0
   11.0266   -0.6106   21.9748 C   0  0  0  0  0  0  0  0  0  0  0  0
    9.5960   -0.2785   22.0810 C   0  0  0  0  0  0  0  0  0  0  0  0
    8.6480   -0.9279   21.4224 N   0  0  0  0  0  0  0  0  0  0  0  0
    7.5257   -0.2545   21.7444 N   0  0  0  0  0  0  0  0  0  0  0  0
    6.2656   -0.6374   21.1275 C   0  0  0  0  0  0  0  0  0  0  0  0
    5.9245    0.1392   19.8765 C   0  0  0  0  0  0  0  0  0  0  0  0
    4.7491    0.8867   19.7703 C   0  0  0  0  0  0  0  0  0  0  0  0
    4.5097    1.5991   18.5949 C   0  0  0  0  0  0  0  0  0  0  0  0
    5.4564    1.5380   17.5697 C   0  0  0  0  0  0  0  0  0  0  0  0
    6.5847    0.8156   17.6476 N   0  0  0  0  0  0  0  0  0  0  0  0
    6.8059    0.1440   18.7832 C   0  0  0  0  0  0  0  0  0  0  0  0
    7.7352   -0.4223   18.8429 H   0  0  0  0  0  0  0  0  0  0  0  0
    5.3039    2.0855   16.6413 H   0  0  0  0  0  0  0  0  0  0  0  0
    3.6206    2.2050   18.4664 H   0  0  0  0  0  0  0  0  0  0  0  0
    4.0371    0.9213   20.5979 H   0  0  0  0  0  0  0  0  0  0  0  0
    6.3357   -1.7120   20.9308 H   0  0  0  0  0  0  0  0  0  0  0  0
    5.4769   -0.4940   21.8593 H   0  0  0  0  0  0  0  0  0  0  0  0
    7.8428    0.7757   22.5703 C   0  0  0  0  0  0  0  0  0  0  0  0
    6.8425    1.7081   23.2070 C   0  0  0  0  0  0  0  0  0  0  0  0
    6.5004    1.3412   24.6915 C   0  0  0  0  0  0  0  0  0  0  0  0
    7.3189    2.3081   25.5846 C   0  0  0  0  0  0  0  0  0  0  0  0
    7.6900    3.4030   24.6392 C   0  0  0  0  0  0  0  0  0  0  0  0
    8.3400    4.5348   24.7206 N   0  0  0  0  0  0  0  0  0  0  0  0
    8.4799    4.9343   23.4052 C   0  0  0  0  0  0  0  0  0  0  0  0
    7.9026    4.0356   22.5471 C   0  0  0  0  0  0  0  0  0  0  0  0
    7.3786    3.0586   23.3659 N   0  0  0  0  0  0  0  0  0  0  0  0
    7.8307    3.9984   21.4717 H   0  0  0  0  0  0  0  0  0  0  0  0
    9.0112    5.8425   23.1441 H   0  0  0  0  0  0  0  0  0  0  0  0
    8.2396    1.8505   25.9671 H   0  0  0  0  0  0  0  0  0  0  0  0
    6.7496    2.6718   26.4427 H   0  0  0  0  0  0  0  0  0  0  0  0
    6.7198    0.2904   24.9051 H   0  0  0  0  0  0  0  0  0  0  0  0
    5.4292    1.4975   24.8445 H   0  0  0  0  0  0  0  0  0  0  0  0
    5.9444    1.7497   22.5819 H   0  0  0  0  0  0  0  0  0  0  0  0
    9.1350    0.7574   22.8243 N   0  0  0  0  0  0  0  0  0  0  0  0
   11.9895    0.2089   22.5904 C   0  0  0  0  0  0  0  0  0  0  0  0
   11.6510    1.0311   23.2180 H   0  0  0  0  0  0  0  0  0  0  0  0
   10.6788   -2.3220   20.7281 H   0  0  0  0  0  0  0  0  0  0  0  0
   13.1297   -2.6421   20.2412 H   0  0  0  0  0  0  0  0  0  0  0  0
   14.8023   -1.3411   21.5047 H   0  0  0  0  0  0  0  0  0  0  0  0
   14.6387    0.7848   23.8863 H   0  0  0  0  0  0  0  0  0  0  0  0
   15.3074    0.8717   22.2542 H   0  0  0  0  0  0  0  0  0  0  0  0
   14.0647    2.0074   22.7491 H   0  0  0  0  0  0  0  0  0  0  0  0
  1  2  1  0
  2  3  2  0
  3  4  1  0
  4  5  2  0
  5  6  1  0
  6  7  1  0
  7  8  2  0
  8  9  1  0
  9 10  1  0
 10 11  1  0
 11 12  2  0
 12 13  1  0
 13 14  2  0
 14 15  1  0
 15 16  2  0
 16 17  1  0
 14 18  1  0
 13 19  1  0
 12 20  1  0
 10 21  1  0
 10 22  1  0
  9 23  1  0
 23 24  1  0
 24 25  1  0
 25 26  1  0
 26 27  1  0
 27 28  2  0
 28 29  1  0
 29 30  2  0
 30 31  1  0
 30 32  1  0
 29 33  1  0
 26 34  1  0
 26 35  1  0
 25 36  1  0
 25 37  1  0
 24 38  1  0
 23 39  2  0
  6 40  2  0
 40 41  1  0
  5 42  1  0
  4 43  1  0
  3 44  1  0
  1 45  1  0
  1 46  1  0
  1 47  1  0
 40  2  1  0
 39  7  1  0
 16 11  1  0
 31 24  1  0
 31 27  1  0
M  END
>  <cnnaffinity>  (1) 
-6.58089

>  <filename>  (1) 
Cc1cccc(-c2nc(C3CCc4nccn43)n(Cc3cccnc3)n2)c1

$$$$
