
     RDKit          3D

 36 38  0  0  0  0  0  0  0  0999 V2000
    4.9203    1.7977   16.9833 H   0  0  0  0  0  0  0  0  0  0  0  0
    5.3976    1.3031   17.8252 C   0  0  0  0  0  0  0  0  0  0  0  0
    6.5627    0.6899   17.5609 N   0  0  0  0  0  0  0  0  0  0  0  0
    7.1829    0.0807   18.5782 C   0  0  0  0  0  0  0  0  0  0  0  0
    8.1247   -0.4199   18.3479 H   0  0  0  0  0  0  0  0  0  0  0  0
    6.6613    0.0225   19.8860 C   0  0  0  0  0  0  0  0  0  0  0  0
    7.3520   -0.6844   20.9383 N   0  0  0  0  0  0  0  0  0  0  0  0
    8.6467   -0.2925   21.2757 C   0  0  0  0  0  0  0  0  0  0  0  0
    9.0526    0.5473   20.7110 H   0  0  0  0  0  0  0  0  0  0  0  0
    9.3734   -0.8845   22.2517 C   0  0  0  0  0  0  0  0  0  0  0  0
   10.6868   -0.4651   22.5327 N   0  0  0  0  0  0  0  0  0  0  0  0
   11.3336   -1.1207   22.9507 H   0  0  0  0  0  0  0  0  0  0  0  0
   11.1416    0.8613   22.5413 C   0  0  0  0  0  0  0  0  0  0  0  0
   12.5111    1.0919   22.3596 C   0  0  0  0  0  0  0  0  0  0  0  0
   13.1615    0.2397   22.1709 H   0  0  0  0  0  0  0  0  0  0  0  0
   13.0073    2.3987   22.3871 C   0  0  0  0  0  0  0  0  0  0  0  0
   14.0806    2.5881   22.3494 H   0  0  0  0  0  0  0  0  0  0  0  0
   12.1485    3.5048   22.5048 C   0  0  0  0  0  0  0  0  0  0  0  0
   12.7001    4.9098   22.4407 C   0  0  0  0  0  0  0  0  0  0  0  0
   13.0464    5.2274   23.4287 H   0  0  0  0  0  0  0  0  0  0  0  0
   11.9469    5.6288   22.1056 H   0  0  0  0  0  0  0  0  0  0  0  0
   13.5550    4.9817   21.7598 H   0  0  0  0  0  0  0  0  0  0  0  0
   10.7856    3.2568   22.7376 C   0  0  0  0  0  0  0  0  0  0  0  0
   10.1094    4.1003   22.8938 H   0  0  0  0  0  0  0  0  0  0  0  0
   10.2867    1.9472   22.7800 C   0  0  0  0  0  0  0  0  0  0  0  0
    9.2420    1.7476   23.0077 H   0  0  0  0  0  0  0  0  0  0  0  0
    8.7434   -2.0260   22.9932 C   0  0  0  0  0  0  0  0  0  0  0  0
    9.2111   -2.7169   23.8762 O   0  0  0  0  0  0  0  0  0  0  0  0
    7.4680   -2.3169   22.5921 N   0  0  0  0  0  0  0  0  0  0  0  0
    7.0305   -3.0832   23.0593 H   0  0  0  0  0  0  0  0  0  0  0  0
    6.7206   -1.7571   21.6105 C   0  0  0  0  0  0  0  0  0  0  0  0
    5.6285   -2.2122   21.3681 O   0  0  0  0  0  0  0  0  0  0  0  0
    5.4444    0.6562   20.1486 C   0  0  0  0  0  0  0  0  0  0  0  0
    5.0193    0.6088   21.1501 H   0  0  0  0  0  0  0  0  0  0  0  0
    4.8093    1.3191   19.0940 C   0  0  0  0  0  0  0  0  0  0  0  0
    3.8732    1.8423   19.2468 H   0  0  0  0  0  0  0  0  0  0  0  0
  1  2  1  0
  2  3  2  0
  3  4  1  0
  4  5  1  0
  4  6  2  0
  6  7  1  0
  7  8  1  0
  8  9  1  0
  8 10  2  0
 10 11  1  0
 11 12  1  0
 11 13  1  0
 13 14  2  0
 14 15  1  0
 14 16  1  0
 16 17  1  0
 16 18  2  0
 18 19  1  0
 19 20  1  0
 19 21  1  0
 19 22  1  0
 18 23  1  0
 23 24  1  0
 23 25  2  0
 25 26  1  0
 10 27  1  0
 27 28  2  0
 27 29  1  0
 29 30  1  0
 29 31  1  0
 31 32  2  0
  6 33  1  0
 33 34  1  0
 33 35  2  0
 35 36  1  0
 35  2  1  0
 31  7  1  0
 25 13  1  0
M  END
>  <cnnaffinity>  (1) 
-5.30711

>  <filename>  (1) 
Cc1ccc(Nc2cn(-c3cccnc3)c(=O)[nH]c2=O)cc1

$$$$
