
     RDKit          3D

 50 53  0  0  0  0  0  0  0  0999 V2000
    4.7537    3.2489   22.6528 C   0  0  0  0  0  0  0  0  0  0  0  0
    5.6609    3.6333   23.8050 C   0  0  0  0  0  0  0  0  0  0  0  0
    5.6036    4.9363   24.3228 C   0  0  0  0  0  0  0  0  0  0  0  0
    6.4276    5.3390   25.3797 C   0  0  0  0  0  0  0  0  0  0  0  0
    7.3341    4.4389   25.9388 C   0  0  0  0  0  0  0  0  0  0  0  0
    7.4046    3.1394   25.4351 C   0  0  0  0  0  0  0  0  0  0  0  0
    6.5756    2.7203   24.3804 C   0  0  0  0  0  0  0  0  0  0  0  0
    6.7415    1.3256   23.8358 C   0  0  0  0  0  0  0  0  0  0  0  0
    7.6980    1.2526   22.6161 C   0  0  0  0  0  0  0  0  0  0  0  0
    9.1178    1.7866   22.9175 C   0  0  0  0  0  0  0  0  0  0  0  0
    9.7820    1.6545   22.0570 H   0  0  0  0  0  0  0  0  0  0  0  0
    9.5668    1.2622   23.7692 H   0  0  0  0  0  0  0  0  0  0  0  0
    9.0933    2.8549   23.1593 H   0  0  0  0  0  0  0  0  0  0  0  0
    7.7313   -0.1654   22.1347 C   0  0  0  0  0  0  0  0  0  0  0  0
    8.2388   -1.1521   22.8477 N   0  0  0  0  0  0  0  0  0  0  0  0
    8.1587   -2.2137   22.0151 C   0  0  0  0  0  0  0  0  0  0  0  0
    8.7663   -3.5206   22.3908 C   0  0  0  0  0  0  0  0  0  0  0  0
    8.7485   -3.9072   23.8915 C   0  0  0  0  0  0  0  0  0  0  0  0
    8.6426   -5.4478   23.8560 C   0  0  0  0  0  0  0  0  0  0  0  0
    8.5916   -5.8273   22.4892 O   0  0  0  0  0  0  0  0  0  0  0  0
    8.1049   -4.7385   21.7369 C   0  0  0  0  0  0  0  0  0  0  0  0
    7.0064   -4.6607   21.8150 H   0  0  0  0  0  0  0  0  0  0  0  0
    8.3980   -4.9098   20.6947 H   0  0  0  0  0  0  0  0  0  0  0  0
    7.7324   -5.7838   24.3798 H   0  0  0  0  0  0  0  0  0  0  0  0
    9.5087   -5.9520   24.2936 H   0  0  0  0  0  0  0  0  0  0  0  0
    9.6365   -3.5505   24.4242 H   0  0  0  0  0  0  0  0  0  0  0  0
    7.8844   -3.4703   24.3978 H   0  0  0  0  0  0  0  0  0  0  0  0
    9.8109   -3.4290   22.0932 H   0  0  0  0  0  0  0  0  0  0  0  0
    7.6307   -1.9586   20.8302 N   0  0  0  0  0  0  0  0  0  0  0  0
    7.3137   -0.6396   20.9251 N   0  0  0  0  0  0  0  0  0  0  0  0
    6.6112    0.0155   19.8762 C   0  0  0  0  0  0  0  0  0  0  0  0
    5.4059    0.6876   20.1156 C   0  0  0  0  0  0  0  0  0  0  0  0
    4.7889    1.3528   19.0528 C   0  0  0  0  0  0  0  0  0  0  0  0
    5.3971    1.3195   17.7949 C   0  0  0  0  0  0  0  0  0  0  0  0
    6.5373    0.6462   17.5492 N   0  0  0  0  0  0  0  0  0  0  0  0
    7.1193    0.0021   18.5650 C   0  0  0  0  0  0  0  0  0  0  0  0
    8.0442   -0.5325   18.3501 H   0  0  0  0  0  0  0  0  0  0  0  0
    4.9617    1.8566   16.9532 H   0  0  0  0  0  0  0  0  0  0  0  0
    3.8653    1.9037   19.1916 H   0  0  0  0  0  0  0  0  0  0  0  0
    4.9531    0.6585   21.1072 H   0  0  0  0  0  0  0  0  0  0  0  0
    7.2778    1.8874   21.8304 H   0  0  0  0  0  0  0  0  0  0  0  0
    5.7709    0.9103   23.5374 H   0  0  0  0  0  0  0  0  0  0  0  0
    7.1163    0.6586   24.6210 H   0  0  0  0  0  0  0  0  0  0  0  0
    8.1349    2.4388   25.8399 H   0  0  0  0  0  0  0  0  0  0  0  0
    7.9849    4.7421   26.7521 H   0  0  0  0  0  0  0  0  0  0  0  0
    6.3676    6.3545   25.7567 H   0  0  0  0  0  0  0  0  0  0  0  0
    4.9017    5.6440   23.8862 H   0  0  0  0  0  0  0  0  0  0  0  0
    5.3164    3.0349   21.7359 H   0  0  0  0  0  0  0  0  0  0  0  0
    4.1579    2.3597   22.8850 H   0  0  0  0  0  0  0  0  0  0  0  0
    4.0521    4.0515   22.4115 H   0  0  0  0  0  0  0  0  0  0  0  0
  1  2  1  0
  2  3  2  0
  3  4  1  0
  4  5  2  0
  5  6  1  0
  6  7  2  0
  7  8  1  0
  8  9  1  0
  9 10  1  0
 10 11  1  0
 10 12  1  0
 10 13  1  0
  9 14  1  0
 14 15  2  0
 15 16  1  0
 16 17  1  0
 17 18  1  0
 18 19  1  0
 19 20  1  0
 20 21  1  0
 21 22  1  0
 21 23  1  0
 19 24  1  0
 19 25  1  0
 18 26  1  0
 18 27  1  0
 17 28  1  0
 16 29  2  0
 29 30  1  0
 30 31  1  0
 31 32  2  0
 32 33  1  0
 33 34  2  0
 34 35  1  0
 35 36  2  0
 36 37  1  0
 34 38  1  0
 33 39  1  0
 32 40  1  0
  9 41  1  0
  8 42  1  0
  8 43  1  0
  6 44  1  0
  5 45  1  0
  4 46  1  0
  3 47  1  0
  1 48  1  0
  1 49  1  0
  1 50  1  0
  7  2  1  0
 30 14  1  0
 36 31  1  0
 21 17  1  0
M  END
>  <cnnaffinity>  (1) 
-5.9785

>  <filename>  (1) 
Cc1ccccc1CC(C)c1nc(C2CCOC2)nn1-c1cccnc1

$$$$
