
     RDKit          3D

 43 46  0  0  0  0  0  0  0  0999 V2000
    7.4444    0.0034   24.9225 C   0  0  0  0  0  0  0  0  0  0  0  0
    7.9689    1.4039   25.0516 C   0  0  0  0  0  0  0  0  0  0  0  0
    8.5605    2.0173   26.1283 C   0  0  0  0  0  0  0  0  0  0  0  0
    8.8978    3.3108   25.6729 C   0  0  0  0  0  0  0  0  0  0  0  0
    8.5590    3.4754   24.4068 N   0  0  0  0  0  0  0  0  0  0  0  0
    7.9800    2.3183   24.0333 N   0  0  0  0  0  0  0  0  0  0  0  0
    7.7895    2.0620   22.6097 C   0  0  0  0  0  0  0  0  0  0  0  0
    8.7590    1.0223   22.1308 C   0  0  0  0  0  0  0  0  0  0  0  0
   10.0564    1.0457   22.3703 N   0  0  0  0  0  0  0  0  0  0  0  0
   10.4835   -0.1521   21.9107 C   0  0  0  0  0  0  0  0  0  0  0  0
   11.8841   -0.6011   21.8360 C   0  0  0  0  0  0  0  0  0  0  0  0
   12.1055   -1.8118   21.1580 C   0  0  0  0  0  0  0  0  0  0  0  0
   13.3304   -2.0840   20.5700 C   0  0  0  0  0  0  0  0  0  0  0  0
   14.3597   -1.1868   20.7968 C   0  0  0  0  0  0  0  0  0  0  0  0
   15.3717   -1.2284   19.9246 F   0  0  0  0  0  0  0  0  0  0  0  0
   14.2654   -0.1469   21.7362 C   0  0  0  0  0  0  0  0  0  0  0  0
   12.9946    0.1763   22.2173 C   0  0  0  0  0  0  0  0  0  0  0  0
   12.8762    1.0717   22.8222 H   0  0  0  0  0  0  0  0  0  0  0  0
   15.0980    0.5244   21.9340 H   0  0  0  0  0  0  0  0  0  0  0  0
   13.5037   -2.9096   19.8823 H   0  0  0  0  0  0  0  0  0  0  0  0
   11.2362   -2.4409   21.0241 H   0  0  0  0  0  0  0  0  0  0  0  0
    9.5143   -0.8985   21.3924 N   0  0  0  0  0  0  0  0  0  0  0  0
    8.4203   -0.1305   21.5014 N   0  0  0  0  0  0  0  0  0  0  0  0
    7.1446   -0.6810   21.0497 C   0  0  0  0  0  0  0  0  0  0  0  0
    6.4864    0.0710   19.9143 C   0  0  0  0  0  0  0  0  0  0  0  0
    5.2615    0.7300   20.0663 C   0  0  0  0  0  0  0  0  0  0  0  0
    4.7116    1.3895   18.9646 C   0  0  0  0  0  0  0  0  0  0  0  0
    5.4069    1.3629   17.7525 C   0  0  0  0  0  0  0  0  0  0  0  0
    6.5787    0.7294   17.5837 N   0  0  0  0  0  0  0  0  0  0  0  0
    7.0980    0.1083   18.6490 C   0  0  0  0  0  0  0  0  0  0  0  0
    8.0462   -0.4055   18.4861 H   0  0  0  0  0  0  0  0  0  0  0  0
    5.0092    1.8688   16.8753 H   0  0  0  0  0  0  0  0  0  0  0  0
    3.7715    1.9262   19.0363 H   0  0  0  0  0  0  0  0  0  0  0  0
    4.7449    0.7243   21.0307 H   0  0  0  0  0  0  0  0  0  0  0  0
    6.4679   -0.7548   21.9075 H   0  0  0  0  0  0  0  0  0  0  0  0
    7.3736   -1.7081   20.7453 H   0  0  0  0  0  0  0  0  0  0  0  0
    6.7551    1.7623   22.4228 H   0  0  0  0  0  0  0  0  0  0  0  0
    7.9634    3.0108   22.0989 H   0  0  0  0  0  0  0  0  0  0  0  0
    9.4038    4.1154   26.1938 H   0  0  0  0  0  0  0  0  0  0  0  0
    8.7460    1.5688   27.0959 H   0  0  0  0  0  0  0  0  0  0  0  0
    8.0743   -0.5917   24.2512 H   0  0  0  0  0  0  0  0  0  0  0  0
    7.4503   -0.4796   25.9018 H   0  0  0  0  0  0  0  0  0  0  0  0
    6.4213   -0.0188   24.5307 H   0  0  0  0  0  0  0  0  0  0  0  0
  1  2  1  0
  2  3  2  0
  3  4  1  0
  4  5  2  0
  5  6  1  0
  6  7  1  0
  7  8  1  0
  8  9  2  0
  9 10  1  0
 10 11  1  0
 11 12  2  0
 12 13  1  0
 13 14  2  0
 14 15  1  0
 14 16  1  0
 16 17  2  0
 17 18  1  0
 16 19  1  0
 13 20  1  0
 12 21  1  0
 10 22  2  0
 22 23  1  0
 23 24  1  0
 24 25  1  0
 25 26  2  0
 26 27  1  0
 27 28  2  0
 28 29  1  0
 29 30  2  0
 30 31  1  0
 28 32  1  0
 27 33  1  0
 26 34  1  0
 24 35  1  0
 24 36  1  0
  7 37  1  0
  7 38  1  0
  4 39  1  0
  3 40  1  0
  1 41  1  0
  1 42  1  0
  1 43  1  0
  6  2  1  0
 23  8  1  0
 30 25  1  0
 17 11  1  0
M  END
>  <cnnaffinity>  (1) 
-6.52089

>  <filename>  (1) 
Cc1ccnn1Cc1nc(-c2ccc(F)cc2)nn1Cc1cccnc1

$$$$
