
     RDKit          3D

 45 48  0  0  0  0  0  0  0  0999 V2000
    2.7878    1.8513   25.1138 C   0  0  0  0  0  0  0  0  0  0  0  0
    4.2198    2.2727   25.3475 C   0  0  0  0  0  0  0  0  0  0  0  0
    4.5378    3.3726   26.1592 C   0  0  0  0  0  0  0  0  0  0  0  0
    5.8672    3.7616   26.3574 C   0  0  0  0  0  0  0  0  0  0  0  0
    6.8999    3.0561   25.7363 C   0  0  0  0  0  0  0  0  0  0  0  0
    6.6079    1.9662   24.9041 C   0  0  0  0  0  0  0  0  0  0  0  0
    7.6797    1.2686   24.1154 C   0  0  0  0  0  0  0  0  0  0  0  0
    7.8468    1.8533   22.6870 C   0  0  0  0  0  0  0  0  0  0  0  0
    8.8011    1.0052   21.9205 C   0  0  0  0  0  0  0  0  0  0  0  0
   10.1089    1.1055   22.0387 N   0  0  0  0  0  0  0  0  0  0  0  0
   10.5715   -0.0777   21.5315 C   0  0  0  0  0  0  0  0  0  0  0  0
   12.0136   -0.4463   21.6296 C   0  0  0  0  0  0  0  0  0  0  0  0
   12.8947    0.2548   22.4097 C   0  0  0  0  0  0  0  0  0  0  0  0
   14.4429   -0.4465   22.3428 S   0  0  0  0  0  0  0  0  0  0  0  0
   13.8271   -1.6461   21.2648 C   0  0  0  0  0  0  0  0  0  0  0  0
   12.5778   -1.5279   20.9584 N   0  0  0  0  0  0  0  0  0  0  0  0
   14.4443   -2.4701   20.9224 H   0  0  0  0  0  0  0  0  0  0  0  0
   12.6774    1.1385   22.9947 H   0  0  0  0  0  0  0  0  0  0  0  0
    9.6065   -0.8689   21.0882 N   0  0  0  0  0  0  0  0  0  0  0  0
    8.4841   -0.1767   21.3412 N   0  0  0  0  0  0  0  0  0  0  0  0
    7.1913   -0.7495   20.9796 C   0  0  0  0  0  0  0  0  0  0  0  0
    6.4838    0.0004   19.8741 C   0  0  0  0  0  0  0  0  0  0  0  0
    5.2737    0.6732   20.0699 C   0  0  0  0  0  0  0  0  0  0  0  0
    4.7017    1.3592   18.9971 C   0  0  0  0  0  0  0  0  0  0  0  0
    5.3562    1.3426   17.7624 C   0  0  0  0  0  0  0  0  0  0  0  0
    6.5122    0.6917   17.5505 N   0  0  0  0  0  0  0  0  0  0  0  0
    7.0574    0.0548   18.5924 C   0  0  0  0  0  0  0  0  0  0  0  0
    8.0069   -0.4465   18.4026 H   0  0  0  0  0  0  0  0  0  0  0  0
    4.9451    1.8806   16.9103 H   0  0  0  0  0  0  0  0  0  0  0  0
    3.7847    1.9264   19.1109 H   0  0  0  0  0  0  0  0  0  0  0  0
    4.7957    0.6686   21.0516 H   0  0  0  0  0  0  0  0  0  0  0  0
    6.5649   -0.8041   21.8787 H   0  0  0  0  0  0  0  0  0  0  0  0
    7.4151   -1.7769   20.6740 H   0  0  0  0  0  0  0  0  0  0  0  0
    6.8858    1.9187   22.1655 H   0  0  0  0  0  0  0  0  0  0  0  0
    8.2600    2.8637   22.7483 H   0  0  0  0  0  0  0  0  0  0  0  0
    7.4368    0.1997   24.0250 H   0  0  0  0  0  0  0  0  0  0  0  0
    8.6490    1.3146   24.6318 H   0  0  0  0  0  0  0  0  0  0  0  0
    5.2714    1.5771   24.7388 C   0  0  0  0  0  0  0  0  0  0  0  0
    5.0461    0.7056   24.1243 H   0  0  0  0  0  0  0  0  0  0  0  0
    7.9356    3.3510   25.8961 H   0  0  0  0  0  0  0  0  0  0  0  0
    6.0984    4.6142   26.9918 H   0  0  0  0  0  0  0  0  0  0  0  0
    3.7346    3.9223   26.6443 H   0  0  0  0  0  0  0  0  0  0  0  0
    2.1437    2.1206   25.9566 H   0  0  0  0  0  0  0  0  0  0  0  0
    2.7125    0.7669   24.9743 H   0  0  0  0  0  0  0  0  0  0  0  0
    2.3716    2.3320   24.2193 H   0  0  0  0  0  0  0  0  0  0  0  0
  1  2  1  0
  2  3  2  0
  3  4  1  0
  4  5  2  0
  5  6  1  0
  6  7  1  0
  7  8  1  0
  8  9  1  0
  9 10  2  0
 10 11  1  0
 11 12  1  0
 12 13  2  0
 13 14  1  0
 14 15  1  0
 15 16  2  0
 15 17  1  0
 13 18  1  0
 11 19  2  0
 19 20  1  0
 20 21  1  0
 21 22  1  0
 22 23  2  0
 23 24  1  0
 24 25  2  0
 25 26  1  0
 26 27  2  0
 27 28  1  0
 25 29  1  0
 24 30  1  0
 23 31  1  0
 21 32  1  0
 21 33  1  0
  8 34  1  0
  8 35  1  0
  7 36  1  0
  7 37  1  0
  6 38  2  0
 38 39  1  0
  5 40  1  0
  4 41  1  0
  3 42  1  0
  1 43  1  0
  1 44  1  0
  1 45  1  0
 38  2  1  0
 20  9  1  0
 27 22  1  0
 16 12  1  0
M  END
>  <cnnaffinity>  (1) 
-6.51639

>  <filename>  (1) 
Cc1cccc(CCc2nc(-c3cscn3)nn2Cc2cccnc2)c1

$$$$
