
     RDKit          3D

 43 46  0  0  0  0  0  0  0  0999 V2000
    7.0154    1.3877   25.9003 C   0  0  0  0  0  0  0  0  0  0  0  0
    8.0749    1.7379   24.9154 C   0  0  0  0  0  0  0  0  0  0  0  0
    9.3607    2.1162   25.1308 C   0  0  0  0  0  0  0  0  0  0  0  0
    9.9386    2.3321   23.8399 C   0  0  0  0  0  0  0  0  0  0  0  0
    8.9574    2.0913   22.9335 C   0  0  0  0  0  0  0  0  0  0  0  0
    9.0247    2.0048   21.4411 C   0  0  0  0  0  0  0  0  0  0  0  0
    9.5180    0.6137   20.9431 C   0  0  0  0  0  0  0  0  0  0  0  0
    8.6439   -0.5034   21.4040 C   0  0  0  0  0  0  0  0  0  0  0  0
    8.8844   -1.3282   22.4046 N   0  0  0  0  0  0  0  0  0  0  0  0
    7.6847   -1.9328   22.5870 C   0  0  0  0  0  0  0  0  0  0  0  0
    7.4114   -2.8315   23.7433 C   0  0  0  0  0  0  0  0  0  0  0  0
    6.3845   -2.2773   24.7857 C   0  0  0  0  0  0  0  0  0  0  0  0
    5.4370   -3.4522   24.4564 C   0  0  0  0  0  0  0  0  0  0  0  0
    6.4654   -4.0313   23.4579 C   0  0  0  0  0  0  0  0  0  0  0  0
    6.8769   -5.0069   23.7277 H   0  0  0  0  0  0  0  0  0  0  0  0
    6.1250   -4.0839   22.4191 H   0  0  0  0  0  0  0  0  0  0  0  0
    5.1966   -4.0995   25.3030 H   0  0  0  0  0  0  0  0  0  0  0  0
    4.4890   -3.1544   23.9992 H   0  0  0  0  0  0  0  0  0  0  0  0
    5.9943   -1.2813   24.5385 H   0  0  0  0  0  0  0  0  0  0  0  0
    6.7493   -2.2500   25.8180 H   0  0  0  0  0  0  0  0  0  0  0  0
    8.3779   -3.0986   24.1716 H   0  0  0  0  0  0  0  0  0  0  0  0
    6.7466   -1.5793   21.7268 N   0  0  0  0  0  0  0  0  0  0  0  0
    7.3706   -0.6664   20.9441 N   0  0  0  0  0  0  0  0  0  0  0  0
    6.6592    0.0033   19.9042 C   0  0  0  0  0  0  0  0  0  0  0  0
    5.4407    0.6403   20.1708 C   0  0  0  0  0  0  0  0  0  0  0  0
    4.8144    1.3083   19.1111 C   0  0  0  0  0  0  0  0  0  0  0  0
    5.4016    1.2956   17.8381 C   0  0  0  0  0  0  0  0  0  0  0  0
    6.5602    0.6718   17.5749 N   0  0  0  0  0  0  0  0  0  0  0  0
    7.1669    0.0515   18.5933 C   0  0  0  0  0  0  0  0  0  0  0  0
    8.1116   -0.4344   18.3667 H   0  0  0  0  0  0  0  0  0  0  0  0
    4.9198    1.7859   16.9938 H   0  0  0  0  0  0  0  0  0  0  0  0
    3.8809    1.8392   19.2609 H   0  0  0  0  0  0  0  0  0  0  0  0
    5.0173    0.6104   21.1791 H   0  0  0  0  0  0  0  0  0  0  0  0
   10.5193    0.3936   21.3217 H   0  0  0  0  0  0  0  0  0  0  0  0
    9.5779    0.6173   19.8524 H   0  0  0  0  0  0  0  0  0  0  0  0
    8.0573    2.2491   20.9891 H   0  0  0  0  0  0  0  0  0  0  0  0
    9.7423    2.7621   21.1203 H   0  0  0  0  0  0  0  0  0  0  0  0
    7.8203    1.6988   23.5785 O   0  0  0  0  0  0  0  0  0  0  0  0
   10.9579    2.6008   23.6022 H   0  0  0  0  0  0  0  0  0  0  0  0
    9.8228    2.2334   26.0996 H   0  0  0  0  0  0  0  0  0  0  0  0
    7.2680    0.4441   26.3983 H   0  0  0  0  0  0  0  0  0  0  0  0
    7.0092    2.1356   26.6987 H   0  0  0  0  0  0  0  0  0  0  0  0
    6.0141    1.3151   25.4688 H   0  0  0  0  0  0  0  0  0  0  0  0
  1  2  1  0
  2  3  2  0
  3  4  1  0
  4  5  2  0
  5  6  1  0
  6  7  1  0
  7  8  1  0
  8  9  2  0
  9 10  1  0
 10 11  1  0
 11 12  1  0
 12 13  1  0
 13 14  1  0
 14 15  1  0
 14 16  1  0
 13 17  1  0
 13 18  1  0
 12 19  1  0
 12 20  1  0
 11 21  1  0
 10 22  2  0
 22 23  1  0
 23 24  1  0
 24 25  2  0
 25 26  1  0
 26 27  2  0
 27 28  1  0
 28 29  2  0
 29 30  1  0
 27 31  1  0
 26 32  1  0
 25 33  1  0
  7 34  1  0
  7 35  1  0
  6 36  1  0
  6 37  1  0
  5 38  1  0
  4 39  1  0
  3 40  1  0
  1 41  1  0
  1 42  1  0
  1 43  1  0
 38  2  1  0
 23  8  1  0
 29 24  1  0
 14 11  1  0
M  END
>  <cnnaffinity>  (1) 
-5.78165

>  <filename>  (1) 
Cc1ccc(CCc2nc(C3CCC3)nn2-c2cccnc2)o1

$$$$
