
     RDKit          3D

 47 50  0  0  0  0  0  0  0  0999 V2000
    5.2239   -3.9082   22.5801 C   0  0  0  0  0  0  0  0  0  0  0  0
    6.2704   -3.8860   23.6696 C   0  0  0  0  0  0  0  0  0  0  0  0
    6.1346   -4.7506   24.7637 C   0  0  0  0  0  0  0  0  0  0  0  0
    7.0807   -4.8035   25.7905 C   0  0  0  0  0  0  0  0  0  0  0  0
    8.2053   -3.9753   25.7405 C   0  0  0  0  0  0  0  0  0  0  0  0
    8.3630   -3.0969   24.6724 C   0  0  0  0  0  0  0  0  0  0  0  0
    7.3989   -3.0264   23.6430 C   0  0  0  0  0  0  0  0  0  0  0  0
    7.5833   -2.0376   22.5596 C   0  0  0  0  0  0  0  0  0  0  0  0
    6.6450   -1.5994   21.7248 N   0  0  0  0  0  0  0  0  0  0  0  0
    7.3029   -0.7116   20.9452 N   0  0  0  0  0  0  0  0  0  0  0  0
    6.6337   -0.0278   19.8921 C   0  0  0  0  0  0  0  0  0  0  0  0
    5.4255    0.6235   20.1531 C   0  0  0  0  0  0  0  0  0  0  0  0
    4.8026    1.3076   19.1043 C   0  0  0  0  0  0  0  0  0  0  0  0
    5.3962    1.2963   17.8370 C   0  0  0  0  0  0  0  0  0  0  0  0
    6.5448    0.6550   17.5733 N   0  0  0  0  0  0  0  0  0  0  0  0
    7.1501    0.0190   18.5828 C   0  0  0  0  0  0  0  0  0  0  0  0
    8.0980   -0.4612   18.3416 H   0  0  0  0  0  0  0  0  0  0  0  0
    4.9340    1.8177   17.0010 H   0  0  0  0  0  0  0  0  0  0  0  0
    3.8748    1.8496   19.2586 H   0  0  0  0  0  0  0  0  0  0  0  0
    5.0093    0.5847   21.1586 H   0  0  0  0  0  0  0  0  0  0  0  0
    8.5902   -0.6234   21.3733 C   0  0  0  0  0  0  0  0  0  0  0  0
    9.6294    0.2852   20.7876 C   0  0  0  0  0  0  0  0  0  0  0  0
   10.4490    1.0457   21.8209 C   0  0  0  0  0  0  0  0  0  0  0  0
    9.9374    2.1720   22.4765 C   0  0  0  0  0  0  0  0  0  0  0  0
    8.5969    2.7420   22.1137 C   0  0  0  0  0  0  0  0  0  0  0  0
    8.6065    3.1410   21.0947 H   0  0  0  0  0  0  0  0  0  0  0  0
    7.8221    1.9691   22.1587 H   0  0  0  0  0  0  0  0  0  0  0  0
    8.3372    3.5427   22.8062 H   0  0  0  0  0  0  0  0  0  0  0  0
   10.5880    2.7716   23.4771 N   0  0  0  0  0  0  0  0  0  0  0  0
   11.7530    2.2348   23.8329 C   0  0  0  0  0  0  0  0  0  0  0  0
   12.3217    1.1570   23.3081 N   0  0  0  0  0  0  0  0  0  0  0  0
   11.6483    0.5346   22.3347 C   0  0  0  0  0  0  0  0  0  0  0  0
   12.1812   -0.7942   21.8735 C   0  0  0  0  0  0  0  0  0  0  0  0
   11.4860   -1.5699   22.2266 H   0  0  0  0  0  0  0  0  0  0  0  0
   12.2172   -0.8794   20.7799 H   0  0  0  0  0  0  0  0  0  0  0  0
   13.1765   -0.9572   22.2975 H   0  0  0  0  0  0  0  0  0  0  0  0
   12.2714    2.7100   24.6619 H   0  0  0  0  0  0  0  0  0  0  0  0
   10.2581   -0.3897   20.1995 H   0  0  0  0  0  0  0  0  0  0  0  0
    9.1437    0.9798   20.1008 H   0  0  0  0  0  0  0  0  0  0  0  0
    8.7965   -1.4619   22.3594 N   0  0  0  0  0  0  0  0  0  0  0  0
    9.2383   -2.4501   24.6235 H   0  0  0  0  0  0  0  0  0  0  0  0
    8.9545   -4.0148   26.5290 H   0  0  0  0  0  0  0  0  0  0  0  0
    6.9449   -5.4905   26.6218 H   0  0  0  0  0  0  0  0  0  0  0  0
    5.2587   -5.3947   24.8019 H   0  0  0  0  0  0  0  0  0  0  0  0
    4.6596   -2.9747   22.5595 H   0  0  0  0  0  0  0  0  0  0  0  0
    5.6725   -4.0037   21.5869 H   0  0  0  0  0  0  0  0  0  0  0  0
    4.5245   -4.7342   22.7293 H   0  0  0  0  0  0  0  0  0  0  0  0
  1  2  1  0
  2  3  2  0
  3  4  1  0
  4  5  2  0
  5  6  1  0
  6  7  2  0
  7  8  1  0
  8  9  2  0
  9 10  1  0
 10 11  1  0
 11 12  2  0
 12 13  1  0
 13 14  2  0
 14 15  1  0
 15 16  2  0
 16 17  1  0
 14 18  1  0
 13 19  1  0
 12 20  1  0
 10 21  1  0
 21 22  1  0
 22 23  1  0
 23 24  2  0
 24 25  1  0
 25 26  1  0
 25 27  1  0
 25 28  1  0
 24 29  1  0
 29 30  2  0
 30 31  1  0
 31 32  2  0
 32 33  1  0
 33 34  1  0
 33 35  1  0
 33 36  1  0
 30 37  1  0
 22 38  1  0
 22 39  1  0
 21 40  2  0
  6 41  1  0
  5 42  1  0
  4 43  1  0
  3 44  1  0
  1 45  1  0
  1 46  1  0
  1 47  1  0
  7  2  1  0
 40  8  1  0
 16 11  1  0
 32 23  1  0
M  END
>  <cnnaffinity>  (1) 
-6.3436

>  <filename>  (1) 
Cc1ccccc1-c1nc(Cc2c(C)ncnc2C)n(-c2cccnc2)n1

$$$$
