
     RDKit          3D

 50 54  0  0  0  0  0  0  0  0999 V2000
   16.0168   -0.3193   19.6555 C   0  0  0  0  0  0  0  0  0  0  0  0
   14.7142   -0.7980   20.5427 C   0  0  0  0  0  0  0  0  0  0  0  0
   14.4397    0.0825   21.6527 C   0  0  0  0  0  0  0  0  0  0  0  0
   13.1658    0.2654   22.1896 C   0  0  0  0  0  0  0  0  0  0  0  0
   12.1126   -0.5301   21.6864 C   0  0  0  0  0  0  0  0  0  0  0  0
   10.6682   -0.1573   21.7720 C   0  0  0  0  0  0  0  0  0  0  0  0
    9.7038   -0.9005   21.2375 N   0  0  0  0  0  0  0  0  0  0  0  0
    8.5866   -0.1637   21.4206 N   0  0  0  0  0  0  0  0  0  0  0  0
    7.2776   -0.6946   21.0394 C   0  0  0  0  0  0  0  0  0  0  0  0
    6.5731    0.0554   19.9229 C   0  0  0  0  0  0  0  0  0  0  0  0
    5.3391    0.6938   20.0958 C   0  0  0  0  0  0  0  0  0  0  0  0
    4.7525    1.3501   19.0096 C   0  0  0  0  0  0  0  0  0  0  0  0
    5.4196    1.3357   17.7817 C   0  0  0  0  0  0  0  0  0  0  0  0
    6.5933    0.7136   17.5871 N   0  0  0  0  0  0  0  0  0  0  0  0
    7.1461    0.0985   18.6395 C   0  0  0  0  0  0  0  0  0  0  0  0
    8.0935   -0.4049   18.4496 H   0  0  0  0  0  0  0  0  0  0  0  0
    4.9941    1.8414   16.9162 H   0  0  0  0  0  0  0  0  0  0  0  0
    3.8084    1.8756   19.1033 H   0  0  0  0  0  0  0  0  0  0  0  0
    4.8370    0.6791   21.0659 H   0  0  0  0  0  0  0  0  0  0  0  0
    6.6359   -0.7334   21.9269 H   0  0  0  0  0  0  0  0  0  0  0  0
    7.4705   -1.7285   20.7408 H   0  0  0  0  0  0  0  0  0  0  0  0
    8.9108    0.9850   22.0471 C   0  0  0  0  0  0  0  0  0  0  0  0
    7.8638    1.9186   22.6052 C   0  0  0  0  0  0  0  0  0  0  0  0
    7.3183    1.3760   23.9003 C   0  0  0  0  0  0  0  0  0  0  0  0
    6.1026    0.9385   24.3730 C   0  0  0  0  0  0  0  0  0  0  0  0
    6.2532    0.3079   25.5798 N   0  0  0  0  0  0  0  0  0  0  0  0
    7.5408    0.3379   25.8463 C   0  0  0  0  0  0  0  0  0  0  0  0
    8.2203   -0.3583   26.9616 C   0  0  0  0  0  0  0  0  0  0  0  0
    8.3127   -1.8685   26.9483 C   0  0  0  0  0  0  0  0  0  0  0  0
    9.5458   -1.0415   26.7619 C   0  0  0  0  0  0  0  0  0  0  0  0
   10.2573   -0.9854   27.5791 H   0  0  0  0  0  0  0  0  0  0  0  0
    9.9994   -1.0282   25.7704 H   0  0  0  0  0  0  0  0  0  0  0  0
    7.9086   -2.3911   26.0844 H   0  0  0  0  0  0  0  0  0  0  0  0
    8.1624   -2.3978   27.8797 H   0  0  0  0  0  0  0  0  0  0  0  0
    8.0626    0.1205   27.9257 H   0  0  0  0  0  0  0  0  0  0  0  0
    8.2097    1.0236   24.8822 N   0  0  0  0  0  0  0  0  0  0  0  0
    9.2148    1.0855   24.7818 H   0  0  0  0  0  0  0  0  0  0  0  0
    5.1301    0.9880   23.8968 H   0  0  0  0  0  0  0  0  0  0  0  0
    7.0452    2.0534   21.8937 H   0  0  0  0  0  0  0  0  0  0  0  0
    8.3376    2.8922   22.7660 H   0  0  0  0  0  0  0  0  0  0  0  0
   10.2116    1.0213   22.2875 N   0  0  0  0  0  0  0  0  0  0  0  0
   12.4868   -1.6431   20.9124 C   0  0  0  0  0  0  0  0  0  0  0  0
   13.7624   -1.8057   20.3477 C   0  0  0  0  0  0  0  0  0  0  0  0
   13.9530   -2.7138   19.7778 H   0  0  0  0  0  0  0  0  0  0  0  0
   11.7031   -2.3421   20.6915 H   0  0  0  0  0  0  0  0  0  0  0  0
   12.9988    1.0632   22.9150 H   0  0  0  0  0  0  0  0  0  0  0  0
   15.2179    0.7714   21.9741 H   0  0  0  0  0  0  0  0  0  0  0  0
   15.9387    0.1142   18.6467 H   0  0  0  0  0  0  0  0  0  0  0  0
   16.8162   -1.0538   19.6426 H   0  0  0  0  0  0  0  0  0  0  0  0
   16.4166    0.5532   20.1534 H   0  0  0  0  0  0  0  0  0  0  0  0
  1  2  1  0
  2  3  2  0
  3  4  1  0
  4  5  2  0
  5  6  1  0
  6  7  2  0
  7  8  1  0
  8  9  1  0
  9 10  1  0
 10 11  2  0
 11 12  1  0
 12 13  2  0
 13 14  1  0
 14 15  2  0
 15 16  1  0
 13 17  1  0
 12 18  1  0
 11 19  1  0
  9 20  1  0
  9 21  1  0
  8 22  1  0
 22 23  1  0
 23 24  1  0
 24 25  2  0
 25 26  1  0
 26 27  2  0
 27 28  1  0
 28 29  1  0
 29 30  1  0
 30 31  1  0
 30 32  1  0
 29 33  1  0
 29 34  1  0
 28 35  1  0
 27 36  1  0
 36 37  1  0
 25 38  1  0
 23 39  1  0
 23 40  1  0
 22 41  2  0
  5 42  1  0
 42 43  2  0
 43 44  1  0
 42 45  1  0
  4 46  1  0
  3 47  1  0
  1 48  1  0
  1 49  1  0
  1 50  1  0
 43  2  1  0
 41  6  1  0
 15 10  1  0
 36 24  1  0
 30 28  1  0
M  END
>  <cnnaffinity>  (1) 
-6.85366

>  <filename>  (1) 
Cc1ccc(-c2nc(Cc3cnc(C4CC4)[nH]3)n(Cc3cccnc3)n2)cc1

$$$$
