
     RDKit          3D

 43 45  0  0  0  0  0  0  0  0999 V2000
    8.8120    3.3413   25.5888 C   0  0  0  0  0  0  0  0  0  0  0  0
    8.7036    3.1825   24.0918 C   0  0  0  0  0  0  0  0  0  0  0  0
    8.0456    4.1486   23.3183 C   0  0  0  0  0  0  0  0  0  0  0  0
    7.7772    3.9309   21.9610 C   0  0  0  0  0  0  0  0  0  0  0  0
    8.2558    2.7635   21.3469 C   0  0  0  0  0  0  0  0  0  0  0  0
    9.0185    1.8474   22.0720 C   0  0  0  0  0  0  0  0  0  0  0  0
    9.5479    0.6109   21.3773 C   0  0  0  0  0  0  0  0  0  0  0  0
    8.6440   -0.5360   21.5020 N   0  0  0  0  0  0  0  0  0  0  0  0
    8.8652   -1.3792   22.5410 N   0  0  0  0  0  0  0  0  0  0  0  0
    7.7240   -2.0116   22.6820 C   0  0  0  0  0  0  0  0  0  0  0  0
    7.4750   -2.8877   23.8668 C   0  0  0  0  0  0  0  0  0  0  0  0
    6.7334   -2.1317   24.9987 C   0  0  0  0  0  0  0  0  0  0  0  0
    7.4335   -0.8727   25.5238 C   0  0  0  0  0  0  0  0  0  0  0  0
    8.7053   -1.1426   26.0881 O   0  0  0  0  0  0  0  0  0  0  0  0
    8.5655   -1.7074   26.8583 H   0  0  0  0  0  0  0  0  0  0  0  0
    6.7716   -0.3763   26.2532 H   0  0  0  0  0  0  0  0  0  0  0  0
    7.6133   -0.1453   24.7201 H   0  0  0  0  0  0  0  0  0  0  0  0
    5.7342   -1.8394   24.6462 H   0  0  0  0  0  0  0  0  0  0  0  0
    6.5793   -2.8175   25.8443 H   0  0  0  0  0  0  0  0  0  0  0  0
    6.8859   -3.7496   23.5355 H   0  0  0  0  0  0  0  0  0  0  0  0
    8.4559   -3.2247   24.2192 H   0  0  0  0  0  0  0  0  0  0  0  0
    6.7668   -1.6463   21.7925 N   0  0  0  0  0  0  0  0  0  0  0  0
    7.3647   -0.7131   21.0748 C   0  0  0  0  0  0  0  0  0  0  0  0
    6.7190    0.0140   19.9699 C   0  0  0  0  0  0  0  0  0  0  0  0
    5.4827    0.6527   20.1518 C   0  0  0  0  0  0  0  0  0  0  0  0
    4.8982    1.3012   19.0658 C   0  0  0  0  0  0  0  0  0  0  0  0
    5.5539    1.2689   17.8313 C   0  0  0  0  0  0  0  0  0  0  0  0
    6.7203    0.6322   17.6374 N   0  0  0  0  0  0  0  0  0  0  0  0
    7.2843    0.0284   18.6896 C   0  0  0  0  0  0  0  0  0  0  0  0
    8.2195   -0.4966   18.4817 H   0  0  0  0  0  0  0  0  0  0  0  0
    5.1182    1.7633   16.9626 H   0  0  0  0  0  0  0  0  0  0  0  0
    3.9555    1.8318   19.1591 H   0  0  0  0  0  0  0  0  0  0  0  0
    4.9992    0.6320   21.1295 H   0  0  0  0  0  0  0  0  0  0  0  0
    9.7069    0.8146   20.3162 H   0  0  0  0  0  0  0  0  0  0  0  0
   10.4912    0.2779   21.8211 H   0  0  0  0  0  0  0  0  0  0  0  0
    9.2219    2.0513   23.4406 C   0  0  0  0  0  0  0  0  0  0  0  0
    9.8092    1.3282   24.0066 H   0  0  0  0  0  0  0  0  0  0  0  0
    8.0603    2.5051   20.3063 H   0  0  0  0  0  0  0  0  0  0  0  0
    7.1863    4.6611   21.4070 H   0  0  0  0  0  0  0  0  0  0  0  0
    7.7583    5.0768   23.8113 H   0  0  0  0  0  0  0  0  0  0  0  0
    8.8997    4.3910   25.8884 H   0  0  0  0  0  0  0  0  0  0  0  0
    7.9171    2.9440   26.0856 H   0  0  0  0  0  0  0  0  0  0  0  0
    9.6714    2.7920   25.9796 H   0  0  0  0  0  0  0  0  0  0  0  0
  1  2  1  0
  2  3  2  0
  3  4  1  0
  4  5  2  0
  5  6  1  0
  6  7  1  0
  7  8  1  0
  8  9  1  0
  9 10  2  0
 10 11  1  0
 11 12  1  0
 12 13  1  0
 13 14  1  0
 14 15  1  0
 13 16  1  0
 13 17  1  0
 12 18  1  0
 12 19  1  0
 11 20  1  0
 11 21  1  0
 10 22  1  0
 22 23  2  0
 23 24  1  0
 24 25  2  0
 25 26  1  0
 26 27  2  0
 27 28  1  0
 28 29  2  0
 29 30  1  0
 27 31  1  0
 26 32  1  0
 25 33  1  0
  7 34  1  0
  7 35  1  0
  6 36  2  0
 36 37  1  0
  5 38  1  0
  4 39  1  0
  3 40  1  0
  1 41  1  0
  1 42  1  0
  1 43  1  0
 36  2  1  0
 23  8  1  0
 29 24  1  0
M  END
>  <cnnaffinity>  (1) 
-5.27976

>  <filename>  (1) 
Cc1cccc(Cn2nc(CCCO)nc2-c2cccnc2)c1

$$$$
