
     RDKit          3D

 47 50  0  0  0  0  0  0  0  0999 V2000
    7.2570    6.6219   23.2859 C   0  0  0  0  0  0  0  0  0  0  0  0
    7.5939    5.2508   23.8183 C   0  0  0  0  0  0  0  0  0  0  0  0
    7.3726    4.9668   25.1688 C   0  0  0  0  0  0  0  0  0  0  0  0
    7.7219    3.7271   25.7198 C   0  0  0  0  0  0  0  0  0  0  0  0
    7.5809    3.5329   27.2109 C   0  0  0  0  0  0  0  0  0  0  0  0
    8.1242    4.3233   27.7404 H   0  0  0  0  0  0  0  0  0  0  0  0
    7.9812    2.5745   27.5493 H   0  0  0  0  0  0  0  0  0  0  0  0
    6.5334    3.6127   27.5255 H   0  0  0  0  0  0  0  0  0  0  0  0
    8.2138    2.7296   24.8758 C   0  0  0  0  0  0  0  0  0  0  0  0
    8.4449    2.9981   23.5136 C   0  0  0  0  0  0  0  0  0  0  0  0
    9.0014    1.9794   22.7993 O   0  0  0  0  0  0  0  0  0  0  0  0
    9.0395    1.9989   21.3768 C   0  0  0  0  0  0  0  0  0  0  0  0
    9.5238    0.6128   20.9615 C   0  0  0  0  0  0  0  0  0  0  0  0
    8.6115   -0.4644   21.4311 C   0  0  0  0  0  0  0  0  0  0  0  0
    8.8285   -1.2672   22.4454 N   0  0  0  0  0  0  0  0  0  0  0  0
    7.6434   -1.9217   22.5775 C   0  0  0  0  0  0  0  0  0  0  0  0
    7.4203   -2.9229   23.6497 C   0  0  0  0  0  0  0  0  0  0  0  0
    6.2754   -2.7921   24.6246 C   0  0  0  0  0  0  0  0  0  0  0  0
    7.6879   -2.5706   25.0947 C   0  0  0  0  0  0  0  0  0  0  0  0
    8.1648   -3.3218   25.7235 H   0  0  0  0  0  0  0  0  0  0  0  0
    7.9941   -1.5425   25.3046 H   0  0  0  0  0  0  0  0  0  0  0  0
    5.6248   -1.9225   24.5271 H   0  0  0  0  0  0  0  0  0  0  0  0
    5.7597   -3.7056   24.9162 H   0  0  0  0  0  0  0  0  0  0  0  0
    7.6884   -3.9274   23.3203 H   0  0  0  0  0  0  0  0  0  0  0  0
    6.7339   -1.6136   21.6743 N   0  0  0  0  0  0  0  0  0  0  0  0
    7.3611   -0.6734   20.9207 N   0  0  0  0  0  0  0  0  0  0  0  0
    6.6664   -0.0202   19.8629 C   0  0  0  0  0  0  0  0  0  0  0  0
    5.4498    0.6254   20.1185 C   0  0  0  0  0  0  0  0  0  0  0  0
    4.8395    1.3196   19.0701 C   0  0  0  0  0  0  0  0  0  0  0  0
    5.4410    1.3139   17.8053 C   0  0  0  0  0  0  0  0  0  0  0  0
    6.5745    0.6471   17.5407 N   0  0  0  0  0  0  0  0  0  0  0  0
    7.1629   -0.0096   18.5471 C   0  0  0  0  0  0  0  0  0  0  0  0
    8.0664   -0.5656   18.3001 H   0  0  0  0  0  0  0  0  0  0  0  0
    4.9954    1.8539   16.9719 H   0  0  0  0  0  0  0  0  0  0  0  0
    3.9118    1.8626   19.2169 H   0  0  0  0  0  0  0  0  0  0  0  0
    5.0047    0.5674   21.1118 H   0  0  0  0  0  0  0  0  0  0  0  0
   10.5048    0.4214   21.3977 H   0  0  0  0  0  0  0  0  0  0  0  0
    9.6103    0.5556   19.8771 H   0  0  0  0  0  0  0  0  0  0  0  0
    8.0464    2.2041   20.9465 H   0  0  0  0  0  0  0  0  0  0  0  0
    9.7428    2.7636   21.0197 H   0  0  0  0  0  0  0  0  0  0  0  0
    8.1316    4.2517   22.9838 C   0  0  0  0  0  0  0  0  0  0  0  0
    8.3059    4.4566   21.9291 H   0  0  0  0  0  0  0  0  0  0  0  0
    8.4007    1.7266   25.2496 H   0  0  0  0  0  0  0  0  0  0  0  0
    6.9240    5.7247   25.8118 H   0  0  0  0  0  0  0  0  0  0  0  0
    7.4608    7.3921   24.0405 H   0  0  0  0  0  0  0  0  0  0  0  0
    6.1950    6.7010   23.0151 H   0  0  0  0  0  0  0  0  0  0  0  0
    7.8462    6.8665   22.3959 H   0  0  0  0  0  0  0  0  0  0  0  0
  1  2  1  0
  2  3  2  0
  3  4  1  0
  4  5  1  0
  5  6  1  0
  5  7  1  0
  5  8  1  0
  4  9  2  0
  9 10  1  0
 10 11  1  0
 11 12  1  0
 12 13  1  0
 13 14  1  0
 14 15  2  0
 15 16  1  0
 16 17  1  0
 17 18  1  0
 18 19  1  0
 19 20  1  0
 19 21  1  0
 18 22  1  0
 18 23  1  0
 17 24  1  0
 16 25  2  0
 25 26  1  0
 26 27  1  0
 27 28  2  0
 28 29  1  0
 29 30  2  0
 30 31  1  0
 31 32  2  0
 32 33  1  0
 30 34  1  0
 29 35  1  0
 28 36  1  0
 13 37  1  0
 13 38  1  0
 12 39  1  0
 12 40  1  0
 10 41  2  0
 41 42  1  0
  9 43  1  0
  3 44  1  0
  1 45  1  0
  1 46  1  0
  1 47  1  0
 41  2  1  0
 26 14  1  0
 32 27  1  0
 19 17  1  0
M  END
>  <cnnaffinity>  (1) 
-6.00404

>  <filename>  (1) 
Cc1cc(C)cc(OCCc2nc(C3CC3)nn2-c2cccnc2)c1

$$$$
