
     RDKit          3D

 46 49  0  0  0  0  0  0  0  0999 V2000
   16.0206   -0.3133   19.6529 C   0  0  0  0  0  0  0  0  0  0  0  0
   14.7201   -0.8003   20.5359 C   0  0  0  0  0  0  0  0  0  0  0  0
   14.4391    0.0775   21.6494 C   0  0  0  0  0  0  0  0  0  0  0  0
   13.1619    0.2595   22.1672 C   0  0  0  0  0  0  0  0  0  0  0  0
   12.1158   -0.5288   21.6363 C   0  0  0  0  0  0  0  0  0  0  0  0
   10.6732   -0.1562   21.6963 C   0  0  0  0  0  0  0  0  0  0  0  0
    9.6938   -0.9468   21.2668 N   0  0  0  0  0  0  0  0  0  0  0  0
    8.5786   -0.2023   21.4326 N   0  0  0  0  0  0  0  0  0  0  0  0
    7.2734   -0.7258   21.0334 C   0  0  0  0  0  0  0  0  0  0  0  0
    6.5790    0.0425   19.9265 C   0  0  0  0  0  0  0  0  0  0  0  0
    5.3705    0.7199   20.1400 C   0  0  0  0  0  0  0  0  0  0  0  0
    4.7662    1.3711   19.0609 C   0  0  0  0  0  0  0  0  0  0  0  0
    5.3988    1.3319   17.8149 C   0  0  0  0  0  0  0  0  0  0  0  0
    6.5574    0.6905   17.5927 N   0  0  0  0  0  0  0  0  0  0  0  0
    7.1244    0.0700   18.6335 C   0  0  0  0  0  0  0  0  0  0  0  0
    8.0594   -0.4511   18.4251 H   0  0  0  0  0  0  0  0  0  0  0  0
    4.9568    1.8283   16.9535 H   0  0  0  0  0  0  0  0  0  0  0  0
    3.8324    1.9124   19.1689 H   0  0  0  0  0  0  0  0  0  0  0  0
    4.9289    0.7440   21.1414 H   0  0  0  0  0  0  0  0  0  0  0  0
    7.4620   -1.7597   20.7345 H   0  0  0  0  0  0  0  0  0  0  0  0
    6.6328   -0.7464   21.9178 H   0  0  0  0  0  0  0  0  0  0  0  0
    8.9141    0.9809   21.9782 C   0  0  0  0  0  0  0  0  0  0  0  0
    7.9126    1.9039   22.5998 C   0  0  0  0  0  0  0  0  0  0  0  0
    7.3721    1.3085   23.8173 N   0  0  0  0  0  0  0  0  0  0  0  0
    6.0881    0.9097   23.8210 N   0  0  0  0  0  0  0  0  0  0  0  0
    5.9197    0.2906   24.9818 C   0  0  0  0  0  0  0  0  0  0  0  0
    7.1124    0.2714   25.7274 C   0  0  0  0  0  0  0  0  0  0  0  0
    8.0375    0.9325   24.9468 C   0  0  0  0  0  0  0  0  0  0  0  0
    9.4968    1.1580   25.2070 C   0  0  0  0  0  0  0  0  0  0  0  0
   10.0927    0.3797   24.7183 H   0  0  0  0  0  0  0  0  0  0  0  0
    9.8472    2.1171   24.8150 H   0  0  0  0  0  0  0  0  0  0  0  0
    9.7005    1.1106   26.2777 H   0  0  0  0  0  0  0  0  0  0  0  0
    7.2910   -0.1626   26.7019 H   0  0  0  0  0  0  0  0  0  0  0  0
    4.9574   -0.1324   25.2371 H   0  0  0  0  0  0  0  0  0  0  0  0
    7.0634    2.0871   21.9400 H   0  0  0  0  0  0  0  0  0  0  0  0
    8.3910    2.8608   22.8269 H   0  0  0  0  0  0  0  0  0  0  0  0
   10.2255    1.0592   22.1231 N   0  0  0  0  0  0  0  0  0  0  0  0
   12.4934   -1.6548   20.8881 C   0  0  0  0  0  0  0  0  0  0  0  0
   13.7778   -1.8157   20.3349 C   0  0  0  0  0  0  0  0  0  0  0  0
   14.0118   -2.7193   19.7814 H   0  0  0  0  0  0  0  0  0  0  0  0
   11.7001   -2.3567   20.7149 H   0  0  0  0  0  0  0  0  0  0  0  0
   12.9893    1.0543   22.8929 H   0  0  0  0  0  0  0  0  0  0  0  0
   15.2125    0.7666   21.9856 H   0  0  0  0  0  0  0  0  0  0  0  0
   15.9454    0.1390   18.6505 H   0  0  0  0  0  0  0  0  0  0  0  0
   16.3701    0.5761   20.1554 H   0  0  0  0  0  0  0  0  0  0  0  0
   16.8447   -1.0269   19.6497 H   0  0  0  0  0  0  0  0  0  0  0  0
  1  2  1  0
  2  3  2  0
  3  4  1  0
  4  5  2  0
  5  6  1  0
  6  7  2  0
  7  8  1  0
  8  9  1  0
  9 10  1  0
 10 11  2  0
 11 12  1  0
 12 13  2  0
 13 14  1  0
 14 15  2  0
 15 16  1  0
 13 17  1  0
 12 18  1  0
 11 19  1  0
  9 20  1  0
  9 21  1  0
  8 22  1  0
 22 23  1  0
 23 24  1  0
 24 25  1  0
 25 26  2  0
 26 27  1  0
 27 28  2  0
 28 29  1  0
 29 30  1  0
 29 31  1  0
 29 32  1  0
 27 33  1  0
 26 34  1  0
 23 35  1  0
 23 36  1  0
 22 37  2  0
  5 38  1  0
 38 39  2  0
 39 40  1  0
 38 41  1  0
  4 42  1  0
  3 43  1  0
  1 44  1  0
  1 45  1  0
  1 46  1  0
 39  2  1  0
 37  6  1  0
 15 10  1  0
 28 24  1  0
M  END
>  <cnnaffinity>  (1) 
-6.46586

>  <filename>  (1) 
Cc1ccc(-c2nc(Cn3nccc3C)n(Cc3cccnc3)n2)cc1

$$$$
