
     RDKit          3D

 42 45  0  0  0  0  0  0  0  0999 V2000
    8.1248   -0.4190   27.4809 C   0  0  0  0  0  0  0  0  0  0  0  0
    7.6176    0.1252   26.1865 C   0  0  0  0  0  0  0  0  0  0  0  0
    6.4460   -0.1965   25.6922 N   0  0  0  0  0  0  0  0  0  0  0  0
    6.3732    0.4467   24.4606 O   0  0  0  0  0  0  0  0  0  0  0  0
    7.4997    1.1314   24.2504 C   0  0  0  0  0  0  0  0  0  0  0  0
    7.7582    1.7396   22.9060 C   0  0  0  0  0  0  0  0  0  0  0  0
    8.7955    0.9144   22.2114 C   0  0  0  0  0  0  0  0  0  0  0  0
   10.0951    1.0142   22.4050 N   0  0  0  0  0  0  0  0  0  0  0  0
   10.5799   -0.1131   21.8170 C   0  0  0  0  0  0  0  0  0  0  0  0
   12.0135   -0.4497   21.7087 C   0  0  0  0  0  0  0  0  0  0  0  0
   12.3866   -1.5740   20.9521 C   0  0  0  0  0  0  0  0  0  0  0  0
   13.6784   -1.7423   20.4462 C   0  0  0  0  0  0  0  0  0  0  0  0
   14.6058   -0.7566   20.7340 C   0  0  0  0  0  0  0  0  0  0  0  0
   16.0328   -0.3609   19.6435 Cl  0  0  0  0  0  0  0  0  0  0  0  0
   14.3417    0.1911   21.7492 C   0  0  0  0  0  0  0  0  0  0  0  0
   13.0379    0.3826   22.2045 C   0  0  0  0  0  0  0  0  0  0  0  0
   12.8313    1.2086   22.8821 H   0  0  0  0  0  0  0  0  0  0  0  0
   15.1111    0.9030   22.0204 H   0  0  0  0  0  0  0  0  0  0  0  0
   13.9495   -2.5962   19.8439 H   0  0  0  0  0  0  0  0  0  0  0  0
   11.6092   -2.2732   20.6959 H   0  0  0  0  0  0  0  0  0  0  0  0
    9.6438   -0.8800   21.2728 N   0  0  0  0  0  0  0  0  0  0  0  0
    8.5040   -0.2087   21.5295 N   0  0  0  0  0  0  0  0  0  0  0  0
    7.2065   -0.7286   21.1104 C   0  0  0  0  0  0  0  0  0  0  0  0
    6.5553    0.0470   19.9827 C   0  0  0  0  0  0  0  0  0  0  0  0
    5.3248    0.6998   20.1163 C   0  0  0  0  0  0  0  0  0  0  0  0
    4.7845    1.3589   19.0082 C   0  0  0  0  0  0  0  0  0  0  0  0
    5.4948    1.3396   17.8054 C   0  0  0  0  0  0  0  0  0  0  0  0
    6.6798    0.7267   17.6591 N   0  0  0  0  0  0  0  0  0  0  0  0
    7.1901    0.1113   18.7313 C   0  0  0  0  0  0  0  0  0  0  0  0
    8.1585   -0.3686   18.5925 H   0  0  0  0  0  0  0  0  0  0  0  0
    5.0959    1.8308   16.9194 H   0  0  0  0  0  0  0  0  0  0  0  0
    3.8408    1.8904   19.0654 H   0  0  0  0  0  0  0  0  0  0  0  0
    4.7982    0.6998   21.0735 H   0  0  0  0  0  0  0  0  0  0  0  0
    6.5482   -0.7511   21.9862 H   0  0  0  0  0  0  0  0  0  0  0  0
    7.3941   -1.7630   20.8098 H   0  0  0  0  0  0  0  0  0  0  0  0
    6.8401    1.8472   22.3241 H   0  0  0  0  0  0  0  0  0  0  0  0
    8.1847    2.7287   23.0458 H   0  0  0  0  0  0  0  0  0  0  0  0
    8.3230    0.9970   25.3173 C   0  0  0  0  0  0  0  0  0  0  0  0
    9.3131    1.4081   25.4419 H   0  0  0  0  0  0  0  0  0  0  0  0
    7.9901    0.3029   28.2917 H   0  0  0  0  0  0  0  0  0  0  0  0
    7.6153   -1.3467   27.7446 H   0  0  0  0  0  0  0  0  0  0  0  0
    9.1963   -0.6225   27.3991 H   0  0  0  0  0  0  0  0  0  0  0  0
  1  2  1  0
  2  3  2  0
  3  4  1  0
  4  5  1  0
  5  6  1  0
  6  7  1  0
  7  8  2  0
  8  9  1  0
  9 10  1  0
 10 11  2  0
 11 12  1  0
 12 13  2  0
 13 14  1  0
 13 15  1  0
 15 16  2  0
 16 17  1  0
 15 18  1  0
 12 19  1  0
 11 20  1  0
  9 21  2  0
 21 22  1  0
 22 23  1  0
 23 24  1  0
 24 25  2  0
 25 26  1  0
 26 27  2  0
 27 28  1  0
 28 29  2  0
 29 30  1  0
 27 31  1  0
 26 32  1  0
 25 33  1  0
 23 34  1  0
 23 35  1  0
  6 36  1  0
  6 37  1  0
  5 38  2  0
 38 39  1  0
  1 40  1  0
  1 41  1  0
  1 42  1  0
 38  2  1  0
 22  7  1  0
 29 24  1  0
 16 10  1  0
M  END
>  <cnnaffinity>  (1) 
-6.50277

>  <filename>  (1) 
Cc1cc(Cc2nc(-c3ccc(Cl)cc3)nn2Cc2cccnc2)on1

$$$$
