
     RDKit          3D

 46 49  0  0  0  0  0  0  0  0999 V2000
   16.0251   -0.2841   19.6555 C   0  0  0  0  0  0  0  0  0  0  0  0
   14.7228   -0.7810   20.5370 C   0  0  0  0  0  0  0  0  0  0  0  0
   14.4412    0.1121   21.6388 C   0  0  0  0  0  0  0  0  0  0  0  0
   13.1651    0.2909   22.1624 C   0  0  0  0  0  0  0  0  0  0  0  0
   12.1227   -0.5093   21.6421 C   0  0  0  0  0  0  0  0  0  0  0  0
   10.6817   -0.1357   21.7097 C   0  0  0  0  0  0  0  0  0  0  0  0
    9.7207   -0.9130   21.2242 N   0  0  0  0  0  0  0  0  0  0  0  0
    8.5952   -0.1922   21.4024 N   0  0  0  0  0  0  0  0  0  0  0  0
    7.2946   -0.7302   21.0073 C   0  0  0  0  0  0  0  0  0  0  0  0
    6.5911    0.0381   19.9086 C   0  0  0  0  0  0  0  0  0  0  0  0
    5.3827    0.7075   20.1360 C   0  0  0  0  0  0  0  0  0  0  0  0
    4.7647    1.3628   19.0654 C   0  0  0  0  0  0  0  0  0  0  0  0
    5.3864    1.3303   17.8130 C   0  0  0  0  0  0  0  0  0  0  0  0
    6.5447    0.6948   17.5782 N   0  0  0  0  0  0  0  0  0  0  0  0
    7.1253    0.0707   18.6100 C   0  0  0  0  0  0  0  0  0  0  0  0
    8.0579   -0.4470   18.3865 H   0  0  0  0  0  0  0  0  0  0  0  0
    4.9319    1.8283   16.9580 H   0  0  0  0  0  0  0  0  0  0  0  0
    3.8288    1.8962   19.1866 H   0  0  0  0  0  0  0  0  0  0  0  0
    4.9476    0.7150   21.1421 H   0  0  0  0  0  0  0  0  0  0  0  0
    7.4943   -1.7575   20.6929 H   0  0  0  0  0  0  0  0  0  0  0  0
    6.6482   -0.7708   21.8913 H   0  0  0  0  0  0  0  0  0  0  0  0
    8.9186    0.9827   21.9773 C   0  0  0  0  0  0  0  0  0  0  0  0
    7.9018    1.9042   22.5658 C   0  0  0  0  0  0  0  0  0  0  0  0
    7.3803    1.3149   23.7928 N   0  0  0  0  0  0  0  0  0  0  0  0
    8.1186    0.9827   24.8753 C   0  0  0  0  0  0  0  0  0  0  0  0
    7.2783    0.3542   25.7553 C   0  0  0  0  0  0  0  0  0  0  0  0
    6.0254    0.3499   25.1036 C   0  0  0  0  0  0  0  0  0  0  0  0
    4.7465   -0.1899   25.6864 C   0  0  0  0  0  0  0  0  0  0  0  0
    4.5470   -1.5026   25.3583 F   0  0  0  0  0  0  0  0  0  0  0  0
    3.6590    0.5077   25.2683 F   0  0  0  0  0  0  0  0  0  0  0  0
    4.7892   -0.1378   26.7803 H   0  0  0  0  0  0  0  0  0  0  0  0
    6.1142    0.9182   23.8966 N   0  0  0  0  0  0  0  0  0  0  0  0
    7.5380   -0.0614   26.7227 H   0  0  0  0  0  0  0  0  0  0  0  0
    9.1825    1.1922   24.8846 H   0  0  0  0  0  0  0  0  0  0  0  0
    8.3863    2.8568   22.7947 H   0  0  0  0  0  0  0  0  0  0  0  0
    7.0604    2.0716   21.8919 H   0  0  0  0  0  0  0  0  0  0  0  0
   10.2207    1.0573   22.1778 N   0  0  0  0  0  0  0  0  0  0  0  0
   12.4964   -1.6355   20.8901 C   0  0  0  0  0  0  0  0  0  0  0  0
   13.7844   -1.8047   20.3510 C   0  0  0  0  0  0  0  0  0  0  0  0
   13.9995   -2.7241   19.8119 H   0  0  0  0  0  0  0  0  0  0  0  0
   11.6933   -2.3307   20.7144 H   0  0  0  0  0  0  0  0  0  0  0  0
   12.9776    1.0974   22.8706 H   0  0  0  0  0  0  0  0  0  0  0  0
   15.2261    0.7961   21.9589 H   0  0  0  0  0  0  0  0  0  0  0  0
   16.8576   -0.9820   19.6718 H   0  0  0  0  0  0  0  0  0  0  0  0
   16.3672    0.6121   20.1529 H   0  0  0  0  0  0  0  0  0  0  0  0
   15.9440    0.1287   18.6415 H   0  0  0  0  0  0  0  0  0  0  0  0
  1  2  1  0
  2  3  2  0
  3  4  1  0
  4  5  2  0
  5  6  1  0
  6  7  2  0
  7  8  1  0
  8  9  1  0
  9 10  1  0
 10 11  2  0
 11 12  1  0
 12 13  2  0
 13 14  1  0
 14 15  2  0
 15 16  1  0
 13 17  1  0
 12 18  1  0
 11 19  1  0
  9 20  1  0
  9 21  1  0
  8 22  1  0
 22 23  1  0
 23 24  1  0
 24 25  1  0
 25 26  2  0
 26 27  1  0
 27 28  1  0
 28 29  1  0
 28 30  1  0
 28 31  1  0
 27 32  2  0
 26 33  1  0
 25 34  1  0
 23 35  1  0
 23 36  1  0
 22 37  2  0
  5 38  1  0
 38 39  2  0
 39 40  1  0
 38 41  1  0
  4 42  1  0
  3 43  1  0
  1 44  1  0
  1 45  1  0
  1 46  1  0
 39  2  1  0
 37  6  1  0
 15 10  1  0
 32 24  1  0
M  END
>  <cnnaffinity>  (1) 
-6.52721

>  <filename>  (1) 
Cc1ccc(-c2nc(Cn3ccc(C(F)F)n3)n(Cc3cccnc3)n2)cc1

$$$$
