
     RDKit          3D

 45 48  0  0  0  0  0  0  0  0999 V2000
   12.1963   -1.3572   21.1506 C   0  0  0  0  0  0  0  0  0  0  0  0
   11.8868   -0.0820   21.8949 C   0  0  0  0  0  0  0  0  0  0  0  0
   12.7479    0.4011   22.8923 C   0  0  0  0  0  0  0  0  0  0  0  0
   12.5482    1.5047   23.6200 N   0  0  0  0  0  0  0  0  0  0  0  0
   11.4304    2.1922   23.3708 C   0  0  0  0  0  0  0  0  0  0  0  0
   10.5019    1.8185   22.4006 C   0  0  0  0  0  0  0  0  0  0  0  0
   10.7368    0.6784   21.6302 C   0  0  0  0  0  0  0  0  0  0  0  0
    9.6685    0.2230   20.6675 C   0  0  0  0  0  0  0  0  0  0  0  0
    8.6415   -0.6194   21.3342 C   0  0  0  0  0  0  0  0  0  0  0  0
    8.8597   -1.4671   22.3161 N   0  0  0  0  0  0  0  0  0  0  0  0
    7.6324   -1.9844   22.5626 C   0  0  0  0  0  0  0  0  0  0  0  0
    7.3855   -2.9545   23.6793 C   0  0  0  0  0  0  0  0  0  0  0  0
    8.3110   -4.1921   23.5986 C   0  0  0  0  0  0  0  0  0  0  0  0
    9.5630   -3.8570   24.4388 C   0  0  0  0  0  0  0  0  0  0  0  0
    9.1798   -2.6768   25.3601 C   0  0  0  0  0  0  0  0  0  0  0  0
    7.7004   -2.3453   25.0696 C   0  0  0  0  0  0  0  0  0  0  0  0
    7.0478   -2.8029   25.8225 H   0  0  0  0  0  0  0  0  0  0  0  0
    7.5023   -1.2670   25.1031 H   0  0  0  0  0  0  0  0  0  0  0  0
    9.3237   -2.9158   26.4197 H   0  0  0  0  0  0  0  0  0  0  0  0
    9.8113   -1.8096   25.1438 H   0  0  0  0  0  0  0  0  0  0  0  0
    9.8940   -4.7329   25.0073 H   0  0  0  0  0  0  0  0  0  0  0  0
   10.3967   -3.5733   23.7878 H   0  0  0  0  0  0  0  0  0  0  0  0
    7.7888   -5.0606   24.0165 H   0  0  0  0  0  0  0  0  0  0  0  0
    8.5631   -4.4508   22.5637 H   0  0  0  0  0  0  0  0  0  0  0  0
    6.3327   -3.2234   23.5877 H   0  0  0  0  0  0  0  0  0  0  0  0
    6.6800   -1.5460   21.7622 N   0  0  0  0  0  0  0  0  0  0  0  0
    7.3360   -0.6844   20.9381 N   0  0  0  0  0  0  0  0  0  0  0  0
    6.6506    0.0031   19.9015 C   0  0  0  0  0  0  0  0  0  0  0  0
    5.4362    0.6461   20.1643 C   0  0  0  0  0  0  0  0  0  0  0  0
    4.8109    1.3120   19.1088 C   0  0  0  0  0  0  0  0  0  0  0  0
    5.4000    1.2957   17.8375 C   0  0  0  0  0  0  0  0  0  0  0  0
    6.5597    0.6733   17.5782 N   0  0  0  0  0  0  0  0  0  0  0  0
    7.1668    0.0511   18.5936 C   0  0  0  0  0  0  0  0  0  0  0  0
    8.1138   -0.4310   18.3639 H   0  0  0  0  0  0  0  0  0  0  0  0
    4.9203    1.7843   16.9936 H   0  0  0  0  0  0  0  0  0  0  0  0
    3.8792    1.8413   19.2598 H   0  0  0  0  0  0  0  0  0  0  0  0
    5.0164    0.6101   21.1726 H   0  0  0  0  0  0  0  0  0  0  0  0
   10.0523   -0.3983   19.8508 H   0  0  0  0  0  0  0  0  0  0  0  0
    9.1938    1.1010   20.2284 H   0  0  0  0  0  0  0  0  0  0  0  0
    9.5989    2.3999   22.2570 H   0  0  0  0  0  0  0  0  0  0  0  0
   11.2699    3.0838   23.9705 H   0  0  0  0  0  0  0  0  0  0  0  0
   13.6614   -0.1515   23.1042 H   0  0  0  0  0  0  0  0  0  0  0  0
   11.3393   -2.0398   21.1643 H   0  0  0  0  0  0  0  0  0  0  0  0
   12.4406   -1.1598   20.1042 H   0  0  0  0  0  0  0  0  0  0  0  0
   13.0602   -1.8805   21.5684 H   0  0  0  0  0  0  0  0  0  0  0  0
  1  2  1  0
  2  3  2  0
  3  4  1  0
  4  5  2  0
  5  6  1  0
  6  7  2  0
  7  8  1  0
  8  9  1  0
  9 10  2  0
 10 11  1  0
 11 12  1  0
 12 13  1  0
 13 14  1  0
 14 15  1  0
 15 16  1  0
 16 17  1  0
 16 18  1  0
 15 19  1  0
 15 20  1  0
 14 21  1  0
 14 22  1  0
 13 23  1  0
 13 24  1  0
 12 25  1  0
 11 26  2  0
 26 27  1  0
 27 28  1  0
 28 29  2  0
 29 30  1  0
 30 31  2  0
 31 32  1  0
 32 33  2  0
 33 34  1  0
 31 35  1  0
 30 36  1  0
 29 37  1  0
  8 38  1  0
  8 39  1  0
  6 40  1  0
  5 41  1  0
  3 42  1  0
  1 43  1  0
  1 44  1  0
  1 45  1  0
  7  2  1  0
 27  9  1  0
 33 28  1  0
 16 12  1  0
M  END
>  <cnnaffinity>  (1) 
-6.65864

>  <filename>  (1) 
Cc1cnccc1Cc1nc(C2CCCC2)nn1-c1cccnc1

$$$$
