
     RDKit          3D

 47 50  0  0  0  0  0  0  0  0999 V2000
    6.4108    3.8651   21.8079 C   0  0  0  0  0  0  0  0  0  0  0  0
    5.9175    2.9029   22.8635 C   0  0  0  0  0  0  0  0  0  0  0  0
    4.7442    3.2041   23.5719 C   0  0  0  0  0  0  0  0  0  0  0  0
    4.2590    2.3601   24.5776 C   0  0  0  0  0  0  0  0  0  0  0  0
    4.9588    1.1945   24.8927 C   0  0  0  0  0  0  0  0  0  0  0  0
    6.1218    0.8742   24.1878 C   0  0  0  0  0  0  0  0  0  0  0  0
    6.5986    1.6967   23.1560 C   0  0  0  0  0  0  0  0  0  0  0  0
    7.9017    1.3065   22.4315 C   0  0  0  0  0  0  0  0  0  0  0  0
    9.1336    1.6788   23.2714 C   0  0  0  0  0  0  0  0  0  0  0  0
   10.0552    1.4077   22.7456 H   0  0  0  0  0  0  0  0  0  0  0  0
    9.1226    1.1436   24.2283 H   0  0  0  0  0  0  0  0  0  0  0  0
    9.1549    2.7543   23.4789 H   0  0  0  0  0  0  0  0  0  0  0  0
    7.9268   -0.1522   22.0657 C   0  0  0  0  0  0  0  0  0  0  0  0
    8.4838   -1.1328   22.7478 N   0  0  0  0  0  0  0  0  0  0  0  0
    8.2164   -2.2222   21.9948 C   0  0  0  0  0  0  0  0  0  0  0  0
    8.7409   -3.5531   22.3919 C   0  0  0  0  0  0  0  0  0  0  0  0
    8.8497   -3.8469   23.8998 C   0  0  0  0  0  0  0  0  0  0  0  0
    8.7114   -5.3710   23.9813 C   0  0  0  0  0  0  0  0  0  0  0  0
    8.1429   -5.8061   22.7547 O   0  0  0  0  0  0  0  0  0  0  0  0
    7.8941   -4.7260   21.8766 C   0  0  0  0  0  0  0  0  0  0  0  0
    8.1424   -5.0499   20.8580 H   0  0  0  0  0  0  0  0  0  0  0  0
    6.8246   -4.4499   21.8840 H   0  0  0  0  0  0  0  0  0  0  0  0
    9.6754   -5.8743   24.1259 H   0  0  0  0  0  0  0  0  0  0  0  0
    8.0796   -5.6813   24.8235 H   0  0  0  0  0  0  0  0  0  0  0  0
    8.0391   -3.3459   24.4371 H   0  0  0  0  0  0  0  0  0  0  0  0
    9.8029   -3.5058   24.3145 H   0  0  0  0  0  0  0  0  0  0  0  0
    9.7544   -3.4964   22.0071 H   0  0  0  0  0  0  0  0  0  0  0  0
    7.5923   -1.9835   20.8563 N   0  0  0  0  0  0  0  0  0  0  0  0
    7.3596   -0.6500   20.9303 N   0  0  0  0  0  0  0  0  0  0  0  0
    6.6484    0.0116   19.8994 C   0  0  0  0  0  0  0  0  0  0  0  0
    5.4379    0.6571   20.1635 C   0  0  0  0  0  0  0  0  0  0  0  0
    4.8038    1.3111   19.1063 C   0  0  0  0  0  0  0  0  0  0  0  0
    5.4013    1.2933   17.8403 C   0  0  0  0  0  0  0  0  0  0  0  0
    6.5658    0.6703   17.5855 N   0  0  0  0  0  0  0  0  0  0  0  0
    7.1689    0.0370   18.5950 C   0  0  0  0  0  0  0  0  0  0  0  0
    8.1206   -0.4421   18.3771 H   0  0  0  0  0  0  0  0  0  0  0  0
    4.9213    1.7832   16.9967 H   0  0  0  0  0  0  0  0  0  0  0  0
    3.8719    1.8440   19.2564 H   0  0  0  0  0  0  0  0  0  0  0  0
    5.0181    0.6294   21.1705 H   0  0  0  0  0  0  0  0  0  0  0  0
    7.9506    1.8501   21.4795 H   0  0  0  0  0  0  0  0  0  0  0  0
    6.6806   -0.0295   24.4291 H   0  0  0  0  0  0  0  0  0  0  0  0
    4.6069    0.5332   25.6800 H   0  0  0  0  0  0  0  0  0  0  0  0
    3.3500    2.6202   25.1151 H   0  0  0  0  0  0  0  0  0  0  0  0
    4.2169    4.1236   23.3245 H   0  0  0  0  0  0  0  0  0  0  0  0
    7.4616    4.1399   21.9603 H   0  0  0  0  0  0  0  0  0  0  0  0
    5.8280    4.7898   21.8009 H   0  0  0  0  0  0  0  0  0  0  0  0
    6.3256    3.4233   20.8107 H   0  0  0  0  0  0  0  0  0  0  0  0
  1  2  1  0
  2  3  2  0
  3  4  1  0
  4  5  2  0
  5  6  1  0
  6  7  2  0
  7  8  1  0
  8  9  1  0
  9 10  1  0
  9 11  1  0
  9 12  1  0
  8 13  1  0
 13 14  2  0
 14 15  1  0
 15 16  1  0
 16 17  1  0
 17 18  1  0
 18 19  1  0
 19 20  1  0
 20 21  1  0
 20 22  1  0
 18 23  1  0
 18 24  1  0
 17 25  1  0
 17 26  1  0
 16 27  1  0
 15 28  2  0
 28 29  1  0
 29 30  1  0
 30 31  2  0
 31 32  1  0
 32 33  2  0
 33 34  1  0
 34 35  2  0
 35 36  1  0
 33 37  1  0
 32 38  1  0
 31 39  1  0
  8 40  1  0
  6 41  1  0
  5 42  1  0
  4 43  1  0
  3 44  1  0
  1 45  1  0
  1 46  1  0
  1 47  1  0
  7  2  1  0
 29 13  1  0
 35 30  1  0
 20 16  1  0
M  END
>  <cnnaffinity>  (1) 
-5.88457

>  <filename>  (1) 
Cc1ccccc1C(C)c1nc(C2CCOC2)nn1-c1cccnc1

$$$$
