
     RDKit          3D

 42 45  0  0  0  0  0  0  0  0999 V2000
    5.5049   -0.6422   26.5887 C   0  0  0  0  0  0  0  0  0  0  0  0
    6.4247    0.1076   25.6824 C   0  0  0  0  0  0  0  0  0  0  0  0
    7.6614    0.3449   26.0372 N   0  0  0  0  0  0  0  0  0  0  0  0
    8.2284    1.0457   24.9918 O   0  0  0  0  0  0  0  0  0  0  0  0
    7.3236    1.2248   24.0223 C   0  0  0  0  0  0  0  0  0  0  0  0
    7.7956    1.8756   22.7544 C   0  0  0  0  0  0  0  0  0  0  0  0
    8.7950    0.9687   22.1318 C   0  0  0  0  0  0  0  0  0  0  0  0
   10.0864    1.0281   22.3744 N   0  0  0  0  0  0  0  0  0  0  0  0
   10.5326   -0.1588   21.9026 C   0  0  0  0  0  0  0  0  0  0  0  0
   11.9318   -0.6000   21.8488 C   0  0  0  0  0  0  0  0  0  0  0  0
   13.0291    0.1775   22.2589 C   0  0  0  0  0  0  0  0  0  0  0  0
   14.2979   -0.0960   21.7349 C   0  0  0  0  0  0  0  0  0  0  0  0
   14.4025   -1.1164   20.7703 C   0  0  0  0  0  0  0  0  0  0  0  0
   15.4164   -1.1648   19.8996 F   0  0  0  0  0  0  0  0  0  0  0  0
   13.3943   -2.0430   20.5677 C   0  0  0  0  0  0  0  0  0  0  0  0
   12.1647   -1.7816   21.1345 C   0  0  0  0  0  0  0  0  0  0  0  0
   11.3076   -2.4164   20.9705 H   0  0  0  0  0  0  0  0  0  0  0  0
   13.5740   -2.8892   19.9166 H   0  0  0  0  0  0  0  0  0  0  0  0
   15.1328    0.5652   21.9587 H   0  0  0  0  0  0  0  0  0  0  0  0
   12.8703    1.0250   22.9205 H   0  0  0  0  0  0  0  0  0  0  0  0
    9.5816   -0.9265   21.3836 N   0  0  0  0  0  0  0  0  0  0  0  0
    8.4696   -0.1891   21.5161 N   0  0  0  0  0  0  0  0  0  0  0  0
    7.1910   -0.7274   21.0551 C   0  0  0  0  0  0  0  0  0  0  0  0
    6.5400    0.0447   19.9286 C   0  0  0  0  0  0  0  0  0  0  0  0
    5.3142    0.6998   20.0797 C   0  0  0  0  0  0  0  0  0  0  0  0
    4.7566    1.3624   18.9852 C   0  0  0  0  0  0  0  0  0  0  0  0
    5.4490    1.3469   17.7725 C   0  0  0  0  0  0  0  0  0  0  0  0
    6.6219    0.7173   17.6038 N   0  0  0  0  0  0  0  0  0  0  0  0
    7.1503    0.0960   18.6642 C   0  0  0  0  0  0  0  0  0  0  0  0
    8.1056   -0.4029   18.4985 H   0  0  0  0  0  0  0  0  0  0  0  0
    5.0484    1.8536   16.8965 H   0  0  0  0  0  0  0  0  0  0  0  0
    3.8200    1.8999   19.0608 H   0  0  0  0  0  0  0  0  0  0  0  0
    4.8024    0.6882   21.0441 H   0  0  0  0  0  0  0  0  0  0  0  0
    6.5198   -0.7848   21.9175 H   0  0  0  0  0  0  0  0  0  0  0  0
    7.4088   -1.7534   20.7363 H   0  0  0  0  0  0  0  0  0  0  0  0
    8.2933    2.8218   22.9728 H   0  0  0  0  0  0  0  0  0  0  0  0
    6.9478    2.0457   22.0887 H   0  0  0  0  0  0  0  0  0  0  0  0
    6.1476    0.6602   24.3970 C   0  0  0  0  0  0  0  0  0  0  0  0
    5.2209    0.6323   23.8502 H   0  0  0  0  0  0  0  0  0  0  0  0
    4.7954   -1.2393   26.0101 H   0  0  0  0  0  0  0  0  0  0  0  0
    6.0749   -1.3037   27.2466 H   0  0  0  0  0  0  0  0  0  0  0  0
    4.9339    0.0563   27.2095 H   0  0  0  0  0  0  0  0  0  0  0  0
  1  2  1  0
  2  3  2  0
  3  4  1  0
  4  5  1  0
  5  6  1  0
  6  7  1  0
  7  8  2  0
  8  9  1  0
  9 10  1  0
 10 11  2  0
 11 12  1  0
 12 13  2  0
 13 14  1  0
 13 15  1  0
 15 16  2  0
 16 17  1  0
 15 18  1  0
 12 19  1  0
 11 20  1  0
  9 21  2  0
 21 22  1  0
 22 23  1  0
 23 24  1  0
 24 25  2  0
 25 26  1  0
 26 27  2  0
 27 28  1  0
 28 29  2  0
 29 30  1  0
 27 31  1  0
 26 32  1  0
 25 33  1  0
 23 34  1  0
 23 35  1  0
  6 36  1  0
  6 37  1  0
  5 38  2  0
 38 39  1  0
  1 40  1  0
  1 41  1  0
  1 42  1  0
 38  2  1  0
 22  7  1  0
 29 24  1  0
 16 10  1  0
M  END
>  <cnnaffinity>  (1) 
-6.50774

>  <filename>  (1) 
Cc1cc(Cc2nc(-c3ccc(F)cc3)nn2Cc2cccnc2)on1

$$$$
