
     RDKit          3D

 49 52  0  0  0  0  0  0  0  0999 V2000
    7.4951    1.4277   26.2480 C   0  0  0  0  0  0  0  0  0  0  0  0
    8.4078    1.6867   25.0975 C   0  0  0  0  0  0  0  0  0  0  0  0
    9.7636    1.8448   25.1401 C   0  0  0  0  0  0  0  0  0  0  0  0
   10.1488    2.0564   23.8266 N   0  0  0  0  0  0  0  0  0  0  0  0
    9.0183    2.0102   23.0630 C   0  0  0  0  0  0  0  0  0  0  0  0
    9.0730    1.9971   21.5588 C   0  0  0  0  0  0  0  0  0  0  0  0
    9.5126    0.6163   20.9615 C   0  0  0  0  0  0  0  0  0  0  0  0
    8.6302   -0.5237   21.3781 C   0  0  0  0  0  0  0  0  0  0  0  0
    8.8650   -1.3550   22.3735 N   0  0  0  0  0  0  0  0  0  0  0  0
    7.6576   -1.9597   22.5638 C   0  0  0  0  0  0  0  0  0  0  0  0
    7.4067   -2.8785   23.7233 C   0  0  0  0  0  0  0  0  0  0  0  0
    8.4611   -4.0245   23.7792 C   0  0  0  0  0  0  0  0  0  0  0  0
    8.6601   -4.6059   25.2011 C   0  0  0  0  0  0  0  0  0  0  0  0
    7.4133   -4.4680   26.0608 C   0  0  0  0  0  0  0  0  0  0  0  0
    6.3961   -5.1925   25.4784 F   0  0  0  0  0  0  0  0  0  0  0  0
    7.6342   -5.0402   27.2858 F   0  0  0  0  0  0  0  0  0  0  0  0
    6.9571   -3.0136   26.2448 C   0  0  0  0  0  0  0  0  0  0  0  0
    7.3478   -2.0921   25.0623 C   0  0  0  0  0  0  0  0  0  0  0  0
    8.3387   -1.6454   25.2418 H   0  0  0  0  0  0  0  0  0  0  0  0
    6.6393   -1.2555   24.9851 H   0  0  0  0  0  0  0  0  0  0  0  0
    5.8730   -3.0482   26.3904 H   0  0  0  0  0  0  0  0  0  0  0  0
    7.3963   -2.6408   27.1772 H   0  0  0  0  0  0  0  0  0  0  0  0
    8.9418   -5.6614   25.1716 H   0  0  0  0  0  0  0  0  0  0  0  0
    9.4604   -4.0749   25.7311 H   0  0  0  0  0  0  0  0  0  0  0  0
    9.4282   -3.6629   23.4073 H   0  0  0  0  0  0  0  0  0  0  0  0
    8.1374   -4.8165   23.0925 H   0  0  0  0  0  0  0  0  0  0  0  0
    6.4172   -3.3123   23.5419 H   0  0  0  0  0  0  0  0  0  0  0  0
    6.7187   -1.5925   21.7197 N   0  0  0  0  0  0  0  0  0  0  0  0
    7.3531   -0.6835   20.9281 N   0  0  0  0  0  0  0  0  0  0  0  0
    6.6511   -0.0022   19.8951 C   0  0  0  0  0  0  0  0  0  0  0  0
    5.4379    0.6409   20.1618 C   0  0  0  0  0  0  0  0  0  0  0  0
    4.8122    1.3106   19.1067 C   0  0  0  0  0  0  0  0  0  0  0  0
    5.3977    1.2967   17.8361 C   0  0  0  0  0  0  0  0  0  0  0  0
    6.5547    0.6698   17.5735 N   0  0  0  0  0  0  0  0  0  0  0  0
    7.1624    0.0449   18.5874 C   0  0  0  0  0  0  0  0  0  0  0  0
    8.1110   -0.4389   18.3580 H   0  0  0  0  0  0  0  0  0  0  0  0
    4.9254    1.7920   16.9913 H   0  0  0  0  0  0  0  0  0  0  0  0
    3.8823    1.8397   19.2567 H   0  0  0  0  0  0  0  0  0  0  0  0
    5.0205    0.6048   21.1712 H   0  0  0  0  0  0  0  0  0  0  0  0
    9.5298    0.6788   19.8711 H   0  0  0  0  0  0  0  0  0  0  0  0
   10.5302    0.3767   21.2810 H   0  0  0  0  0  0  0  0  0  0  0  0
    9.7510    2.7844   21.2087 H   0  0  0  0  0  0  0  0  0  0  0  0
    8.0707    2.2541   21.2004 H   0  0  0  0  0  0  0  0  0  0  0  0
    7.9538    1.8132   23.8013 N   0  0  0  0  0  0  0  0  0  0  0  0
   11.0750    2.1787   23.4558 H   0  0  0  0  0  0  0  0  0  0  0  0
   10.4439    1.8605   25.9797 H   0  0  0  0  0  0  0  0  0  0  0  0
    7.8311    0.5569   26.8243 H   0  0  0  0  0  0  0  0  0  0  0  0
    6.4683    1.2547   25.9158 H   0  0  0  0  0  0  0  0  0  0  0  0
    7.4939    2.2817   26.9304 H   0  0  0  0  0  0  0  0  0  0  0  0
  1  2  1  0
  2  3  2  0
  3  4  1  0
  4  5  1  0
  5  6  1  0
  6  7  1  0
  7  8  1  0
  8  9  2  0
  9 10  1  0
 10 11  1  0
 11 12  1  0
 12 13  1  0
 13 14  1  0
 14 15  1  0
 14 16  1  0
 14 17  1  0
 17 18  1  0
 18 19  1  0
 18 20  1  0
 17 21  1  0
 17 22  1  0
 13 23  1  0
 13 24  1  0
 12 25  1  0
 12 26  1  0
 11 27  1  0
 10 28  2  0
 28 29  1  0
 29 30  1  0
 30 31  2  0
 31 32  1  0
 32 33  2  0
 33 34  1  0
 34 35  2  0
 35 36  1  0
 33 37  1  0
 32 38  1  0
 31 39  1  0
  7 40  1  0
  7 41  1  0
  6 42  1  0
  6 43  1  0
  5 44  2  0
  4 45  1  0
  3 46  1  0
  1 47  1  0
  1 48  1  0
  1 49  1  0
 44  2  1  0
 29  8  1  0
 35 30  1  0
 18 11  1  0
M  END
>  <cnnaffinity>  (1) 
-6.29598

>  <filename>  (1) 
Cc1c[nH]c(CCc2nc(C3CCC(F)(F)CC3)nn2-c2cccnc2)n1

$$$$
