
     RDKit          3D

 50 54  0  0  0  0  0  0  0  0999 V2000
   14.1803    1.0889   23.3746 C   0  0  0  0  0  0  0  0  0  0  0  0
   13.2304    0.3007   22.5217 C   0  0  0  0  0  0  0  0  0  0  0  0
   13.6920   -0.8473   21.8573 C   0  0  0  0  0  0  0  0  0  0  0  0
   12.8042   -1.6857   21.1870 C   0  0  0  0  0  0  0  0  0  0  0  0
   11.4341   -1.4257   21.2133 C   0  0  0  0  0  0  0  0  0  0  0  0
   10.9756   -0.2198   21.7736 C   0  0  0  0  0  0  0  0  0  0  0  0
    9.5450    0.1236   21.7283 C   0  0  0  0  0  0  0  0  0  0  0  0
    8.6425   -0.5971   21.0826 N   0  0  0  0  0  0  0  0  0  0  0  0
    7.4776    0.0113   21.3918 N   0  0  0  0  0  0  0  0  0  0  0  0
    6.2322   -0.5297   20.8634 C   0  0  0  0  0  0  0  0  0  0  0  0
    5.7904    0.1437   19.5825 C   0  0  0  0  0  0  0  0  0  0  0  0
    4.6354    0.9204   19.4817 C   0  0  0  0  0  0  0  0  0  0  0  0
    4.4210    1.6569   18.3119 C   0  0  0  0  0  0  0  0  0  0  0  0
    5.3535    1.5549   17.2774 C   0  0  0  0  0  0  0  0  0  0  0  0
    6.4192    0.7442   17.3189 N   0  0  0  0  0  0  0  0  0  0  0  0
    6.6237    0.0642   18.4536 C   0  0  0  0  0  0  0  0  0  0  0  0
    7.5072   -0.5712   18.4846 H   0  0  0  0  0  0  0  0  0  0  0  0
    5.2404    2.1441   16.3685 H   0  0  0  0  0  0  0  0  0  0  0  0
    3.5747    2.3225   18.2006 H   0  0  0  0  0  0  0  0  0  0  0  0
    3.9217    0.9759   20.3060 H   0  0  0  0  0  0  0  0  0  0  0  0
    5.4688   -0.4393   21.6394 H   0  0  0  0  0  0  0  0  0  0  0  0
    6.4227   -1.5956   20.7140 H   0  0  0  0  0  0  0  0  0  0  0  0
    7.7253    1.0822   22.1750 C   0  0  0  0  0  0  0  0  0  0  0  0
    6.6665    1.8630   22.8973 C   0  0  0  0  0  0  0  0  0  0  0  0
    6.4155    1.3208   24.2858 C   0  0  0  0  0  0  0  0  0  0  0  0
    5.3351    1.2348   25.1254 C   0  0  0  0  0  0  0  0  0  0  0  0
    5.6916    0.6591   26.3143 N   0  0  0  0  0  0  0  0  0  0  0  0
    6.9750    0.3850   26.2135 C   0  0  0  0  0  0  0  0  0  0  0  0
    7.7383   -0.3832   27.2120 C   0  0  0  0  0  0  0  0  0  0  0  0
    8.3250   -1.7352   26.8449 C   0  0  0  0  0  0  0  0  0  0  0  0
    9.2339   -0.5898   27.1690 C   0  0  0  0  0  0  0  0  0  0  0  0
    9.7637   -0.6048   28.1195 H   0  0  0  0  0  0  0  0  0  0  0  0
    9.8082   -0.1370   26.3590 H   0  0  0  0  0  0  0  0  0  0  0  0
    8.2433   -2.0373   25.8007 H   0  0  0  0  0  0  0  0  0  0  0  0
    8.2133   -2.5536   27.5508 H   0  0  0  0  0  0  0  0  0  0  0  0
    7.2743   -0.2884   28.1895 H   0  0  0  0  0  0  0  0  0  0  0  0
    7.4566    0.7946   25.0107 N   0  0  0  0  0  0  0  0  0  0  0  0
    8.4118    0.7901   24.6800 H   0  0  0  0  0  0  0  0  0  0  0  0
    4.3163    1.5501   24.9491 H   0  0  0  0  0  0  0  0  0  0  0  0
    5.7421    1.8929   22.3143 H   0  0  0  0  0  0  0  0  0  0  0  0
    7.0333    2.8901   22.9791 H   0  0  0  0  0  0  0  0  0  0  0  0
    9.0197    1.1800   22.4072 N   0  0  0  0  0  0  0  0  0  0  0  0
   11.8823    0.6491   22.4062 C   0  0  0  0  0  0  0  0  0  0  0  0
   11.5156    1.5994   22.7988 H   0  0  0  0  0  0  0  0  0  0  0  0
   10.7093   -2.1288   20.8048 H   0  0  0  0  0  0  0  0  0  0  0  0
   13.2075   -2.5223   20.6291 H   0  0  0  0  0  0  0  0  0  0  0  0
   14.7488   -1.0916   21.8770 H   0  0  0  0  0  0  0  0  0  0  0  0
   15.0810    1.3522   22.8137 H   0  0  0  0  0  0  0  0  0  0  0  0
   14.4790    0.4836   24.2372 H   0  0  0  0  0  0  0  0  0  0  0  0
   13.7472    2.0153   23.7608 H   0  0  0  0  0  0  0  0  0  0  0  0
  1  2  1  0
  2  3  2  0
  3  4  1  0
  4  5  2  0
  5  6  1  0
  6  7  1  0
  7  8  2  0
  8  9  1  0
  9 10  1  0
 10 11  1  0
 11 12  2  0
 12 13  1  0
 13 14  2  0
 14 15  1  0
 15 16  2  0
 16 17  1  0
 14 18  1  0
 13 19  1  0
 12 20  1  0
 10 21  1  0
 10 22  1  0
  9 23  1  0
 23 24  1  0
 24 25  1  0
 25 26  2  0
 26 27  1  0
 27 28  2  0
 28 29  1  0
 29 30  1  0
 30 31  1  0
 31 32  1  0
 31 33  1  0
 30 34  1  0
 30 35  1  0
 29 36  1  0
 28 37  1  0
 37 38  1  0
 26 39  1  0
 24 40  1  0
 24 41  1  0
 23 42  2  0
  6 43  2  0
 43 44  1  0
  5 45  1  0
  4 46  1  0
  3 47  1  0
  1 48  1  0
  1 49  1  0
  1 50  1  0
 43  2  1  0
 42  7  1  0
 16 11  1  0
 37 25  1  0
 31 29  1  0
M  END
>  <cnnaffinity>  (1) 
-6.75372

>  <filename>  (1) 
Cc1cccc(-c2nc(Cc3cnc(C4CC4)[nH]3)n(Cc3cccnc3)n2)c1

$$$$
