
     RDKit          3D

 47 50  0  0  0  0  0  0  0  0999 V2000
   13.6319    0.7953   23.5343 C   0  0  0  0  0  0  0  0  0  0  0  0
   12.2655    1.0226   22.9696 C   0  0  0  0  0  0  0  0  0  0  0  0
   11.7905    0.3477   21.9308 N   0  0  0  0  0  0  0  0  0  0  0  0
   10.5498    0.8349   21.7251 N   0  0  0  0  0  0  0  0  0  0  0  0
    9.6700    0.2380   20.7450 C   0  0  0  0  0  0  0  0  0  0  0  0
    8.6295   -0.6112   21.3694 C   0  0  0  0  0  0  0  0  0  0  0  0
    8.8490   -1.4648   22.3388 N   0  0  0  0  0  0  0  0  0  0  0  0
    7.6185   -1.9973   22.5630 C   0  0  0  0  0  0  0  0  0  0  0  0
    7.3906   -2.9698   23.6715 C   0  0  0  0  0  0  0  0  0  0  0  0
    8.1826   -4.2865   23.4296 C   0  0  0  0  0  0  0  0  0  0  0  0
    8.1527   -5.1953   24.6360 C   0  0  0  0  0  0  0  0  0  0  0  0
    7.8504   -4.7744   25.8674 C   0  0  0  0  0  0  0  0  0  0  0  0
    7.4310   -3.3543   26.1825 C   0  0  0  0  0  0  0  0  0  0  0  0
    7.7821   -2.3703   25.0510 C   0  0  0  0  0  0  0  0  0  0  0  0
    7.2722   -1.4126   25.2185 H   0  0  0  0  0  0  0  0  0  0  0  0
    8.8620   -2.1483   25.0439 H   0  0  0  0  0  0  0  0  0  0  0  0
    6.3434   -3.3366   26.3642 H   0  0  0  0  0  0  0  0  0  0  0  0
    7.8844   -3.0333   27.1288 H   0  0  0  0  0  0  0  0  0  0  0  0
    7.8734   -5.4780   26.7014 H   0  0  0  0  0  0  0  0  0  0  0  0
    8.4217   -6.2385   24.4689 H   0  0  0  0  0  0  0  0  0  0  0  0
    9.2295   -4.0447   23.1759 H   0  0  0  0  0  0  0  0  0  0  0  0
    7.7834   -4.8185   22.5564 H   0  0  0  0  0  0  0  0  0  0  0  0
    6.3106   -3.1757   23.6605 H   0  0  0  0  0  0  0  0  0  0  0  0
    6.6735   -1.5582   21.7580 N   0  0  0  0  0  0  0  0  0  0  0  0
    7.3314   -0.6823   20.9520 N   0  0  0  0  0  0  0  0  0  0  0  0
    6.6546    0.0009   19.9041 C   0  0  0  0  0  0  0  0  0  0  0  0
    5.4383    0.6429   20.1576 C   0  0  0  0  0  0  0  0  0  0  0  0
    4.8096    1.3119   19.1063 C   0  0  0  0  0  0  0  0  0  0  0  0
    5.3973    1.2952   17.8349 C   0  0  0  0  0  0  0  0  0  0  0  0
    6.5519    0.6656   17.5767 N   0  0  0  0  0  0  0  0  0  0  0  0
    7.1650    0.0422   18.5898 C   0  0  0  0  0  0  0  0  0  0  0  0
    8.1107   -0.4396   18.3515 H   0  0  0  0  0  0  0  0  0  0  0  0
    4.9301    1.7989   16.9921 H   0  0  0  0  0  0  0  0  0  0  0  0
    3.8779    1.8429   19.2542 H   0  0  0  0  0  0  0  0  0  0  0  0
    5.0186    0.5997   21.1628 H   0  0  0  0  0  0  0  0  0  0  0  0
   10.2638   -0.4227   20.1149 H   0  0  0  0  0  0  0  0  0  0  0  0
    9.2046    1.0357   20.1639 H   0  0  0  0  0  0  0  0  0  0  0  0
   10.2279    1.8198   22.6093 C   0  0  0  0  0  0  0  0  0  0  0  0
    8.9137    2.5398   22.6345 C   0  0  0  0  0  0  0  0  0  0  0  0
    8.0801    1.8649   22.8630 H   0  0  0  0  0  0  0  0  0  0  0  0
    8.9494    3.3029   23.4140 H   0  0  0  0  0  0  0  0  0  0  0  0
    8.6925    3.0386   21.6839 H   0  0  0  0  0  0  0  0  0  0  0  0
   11.3188    1.9621   23.4313 C   0  0  0  0  0  0  0  0  0  0  0  0
   11.4249    2.6484   24.2628 H   0  0  0  0  0  0  0  0  0  0  0  0
   13.6016    0.9459   24.6189 H   0  0  0  0  0  0  0  0  0  0  0  0
   14.3326    1.5262   23.1125 H   0  0  0  0  0  0  0  0  0  0  0  0
   13.9999   -0.2128   23.3197 H   0  0  0  0  0  0  0  0  0  0  0  0
  1  2  1  0
  2  3  2  0
  3  4  1  0
  4  5  1  0
  5  6  1  0
  6  7  2  0
  7  8  1  0
  8  9  1  0
  9 10  1  0
 10 11  1  0
 11 12  2  0
 12 13  1  0
 13 14  1  0
 14 15  1  0
 14 16  1  0
 13 17  1  0
 13 18  1  0
 12 19  1  0
 11 20  1  0
 10 21  1  0
 10 22  1  0
  9 23  1  0
  8 24  2  0
 24 25  1  0
 25 26  1  0
 26 27  2  0
 27 28  1  0
 28 29  2  0
 29 30  1  0
 30 31  2  0
 31 32  1  0
 29 33  1  0
 28 34  1  0
 27 35  1  0
  5 36  1  0
  5 37  1  0
  4 38  1  0
 38 39  1  0
 39 40  1  0
 39 41  1  0
 39 42  1  0
 38 43  2  0
 43 44  1  0
  1 45  1  0
  1 46  1  0
  1 47  1  0
 43  2  1  0
 25  6  1  0
 31 26  1  0
 14  9  1  0
M  END
>  <cnnaffinity>  (1) 
-6.63878

>  <filename>  (1) 
Cc1cc(C)n(Cc2nc(C3CC=CCC3)nn2-c2cccnc2)n1

$$$$
