
     RDKit          3D

 45 48  0  0  0  0  0  0  0  0999 V2000
    8.6903    3.9173   24.3380 C   0  0  0  0  0  0  0  0  0  0  0  0
    7.8806    2.8427   25.0230 C   0  0  0  0  0  0  0  0  0  0  0  0
    7.9767    2.7024   26.4128 C   0  0  0  0  0  0  0  0  0  0  0  0
    7.2474    1.7131   27.0638 C   0  0  0  0  0  0  0  0  0  0  0  0
    7.3634    1.5896   28.3963 F   0  0  0  0  0  0  0  0  0  0  0  0
    6.3844    0.8635   26.3787 C   0  0  0  0  0  0  0  0  0  0  0  0
    6.2849    1.0071   24.9918 C   0  0  0  0  0  0  0  0  0  0  0  0
    7.0270    1.9737   24.3028 C   0  0  0  0  0  0  0  0  0  0  0  0
    7.0527    1.9398   22.7813 C   0  0  0  0  0  0  0  0  0  0  0  0
    8.0685    0.9351   22.3165 C   0  0  0  0  0  0  0  0  0  0  0  0
    9.3743    1.0054   22.5221 N   0  0  0  0  0  0  0  0  0  0  0  0
    9.8295   -0.1894   22.0733 C   0  0  0  0  0  0  0  0  0  0  0  0
   11.2493   -0.5433   22.0161 C   0  0  0  0  0  0  0  0  0  0  0  0
   11.6861   -1.5894   21.1799 C   0  0  0  0  0  0  0  0  0  0  0  0
   13.0515   -1.7568   21.0316 C   0  0  0  0  0  0  0  0  0  0  0  0
   13.5771   -2.5797   20.1136 F   0  0  0  0  0  0  0  0  0  0  0  0
   13.9244   -1.0156   21.8277 C   0  0  0  0  0  0  0  0  0  0  0  0
   13.5093   -0.0651   22.6749 N   0  0  0  0  0  0  0  0  0  0  0  0
   12.1937    0.1937   22.7458 C   0  0  0  0  0  0  0  0  0  0  0  0
   11.8981    0.9963   23.4166 H   0  0  0  0  0  0  0  0  0  0  0  0
   14.9743   -1.2575   21.7697 H   0  0  0  0  0  0  0  0  0  0  0  0
   10.9412   -2.2377   20.7240 H   0  0  0  0  0  0  0  0  0  0  0  0
    8.8851   -0.9739   21.5811 N   0  0  0  0  0  0  0  0  0  0  0  0
    7.7590   -0.2423   21.7281 N   0  0  0  0  0  0  0  0  0  0  0  0
    6.5024   -0.6949   21.1275 C   0  0  0  0  0  0  0  0  0  0  0  0
    6.0739    0.0856   19.8945 C   0  0  0  0  0  0  0  0  0  0  0  0
    4.8575    0.7663   19.7604 C   0  0  0  0  0  0  0  0  0  0  0  0
    4.6149    1.4878   18.5854 C   0  0  0  0  0  0  0  0  0  0  0  0
    5.5740    1.4618   17.5715 C   0  0  0  0  0  0  0  0  0  0  0  0
    6.7171    0.7664   17.6541 N   0  0  0  0  0  0  0  0  0  0  0  0
    6.9484    0.1102   18.7951 C   0  0  0  0  0  0  0  0  0  0  0  0
    7.8765   -0.4557   18.8420 H   0  0  0  0  0  0  0  0  0  0  0  0
    5.4195    2.0125   16.6457 H   0  0  0  0  0  0  0  0  0  0  0  0
    3.7135    2.0737   18.4406 H   0  0  0  0  0  0  0  0  0  0  0  0
    4.0980    0.7316   20.5441 H   0  0  0  0  0  0  0  0  0  0  0  0
    6.6740   -1.7408   20.8560 H   0  0  0  0  0  0  0  0  0  0  0  0
    5.7267   -0.6767   21.8970 H   0  0  0  0  0  0  0  0  0  0  0  0
    7.3239    2.9153   22.3643 H   0  0  0  0  0  0  0  0  0  0  0  0
    6.0641    1.6941   22.3807 H   0  0  0  0  0  0  0  0  0  0  0  0
    5.6224    0.3459   24.4324 H   0  0  0  0  0  0  0  0  0  0  0  0
    5.8248    0.1198   26.9330 H   0  0  0  0  0  0  0  0  0  0  0  0
    8.6128    3.3656   26.9890 H   0  0  0  0  0  0  0  0  0  0  0  0
    9.3971    3.4810   23.6227 H   0  0  0  0  0  0  0  0  0  0  0  0
    8.0488    4.6194   23.7925 H   0  0  0  0  0  0  0  0  0  0  0  0
    9.2583    4.4965   25.0710 H   0  0  0  0  0  0  0  0  0  0  0  0
  1  2  1  0
  2  3  2  0
  3  4  1  0
  4  5  1  0
  4  6  2  0
  6  7  1  0
  7  8  2  0
  8  9  1  0
  9 10  1  0
 10 11  2  0
 11 12  1  0
 12 13  1  0
 13 14  2  0
 14 15  1  0
 15 16  1  0
 15 17  2  0
 17 18  1  0
 18 19  2  0
 19 20  1  0
 17 21  1  0
 14 22  1  0
 12 23  2  0
 23 24  1  0
 24 25  1  0
 25 26  1  0
 26 27  2  0
 27 28  1  0
 28 29  2  0
 29 30  1  0
 30 31  2  0
 31 32  1  0
 29 33  1  0
 28 34  1  0
 27 35  1  0
 25 36  1  0
 25 37  1  0
  9 38  1  0
  9 39  1  0
  7 40  1  0
  6 41  1  0
  3 42  1  0
  1 43  1  0
  1 44  1  0
  1 45  1  0
  8  2  1  0
 24 10  1  0
 31 26  1  0
 19 13  1  0
M  END
>  <cnnaffinity>  (1) 
-6.65888

>  <filename>  (1) 
Cc1cc(F)ccc1Cc1nc(-c2cncc(F)c2)nn1Cc1cccnc1

$$$$
