
     RDKit          3D

 45 48  0  0  0  0  0  0  0  0999 V2000
    9.8001    1.8386   25.4222 C   0  0  0  0  0  0  0  0  0  0  0  0
    8.7642    2.9296   25.2858 C   0  0  0  0  0  0  0  0  0  0  0  0
    8.7879    4.0646   26.0938 C   0  0  0  0  0  0  0  0  0  0  0  0
    7.8097    5.0571   25.9845 C   0  0  0  0  0  0  0  0  0  0  0  0
    7.8945    6.4537   27.0212 Cl  0  0  0  0  0  0  0  0  0  0  0  0
    6.7825    4.9284   25.0550 C   0  0  0  0  0  0  0  0  0  0  0  0
    6.7473    3.8077   24.2121 C   0  0  0  0  0  0  0  0  0  0  0  0
    7.7363    2.8253   24.3164 C   0  0  0  0  0  0  0  0  0  0  0  0
    7.8346    1.7434   23.5026 O   0  0  0  0  0  0  0  0  0  0  0  0
    6.7422    1.2632   22.7508 C   0  0  0  0  0  0  0  0  0  0  0  0
    7.1117   -0.1149   22.2832 C   0  0  0  0  0  0  0  0  0  0  0  0
    7.7225   -1.0409   23.0014 N   0  0  0  0  0  0  0  0  0  0  0  0
    8.0842   -1.9646   22.0817 C   0  0  0  0  0  0  0  0  0  0  0  0
    9.0382   -3.0845   22.3774 C   0  0  0  0  0  0  0  0  0  0  0  0
    8.5969   -4.1067   23.4576 C   0  0  0  0  0  0  0  0  0  0  0  0
    9.2002   -3.5450   24.7718 C   0  0  0  0  0  0  0  0  0  0  0  0
    9.9853   -2.4275   24.4038 O   0  0  0  0  0  0  0  0  0  0  0  0
   10.3200   -2.5419   23.0396 C   0  0  0  0  0  0  0  0  0  0  0  0
   11.1638   -3.2366   22.8919 H   0  0  0  0  0  0  0  0  0  0  0  0
   10.6321   -1.5528   22.6971 H   0  0  0  0  0  0  0  0  0  0  0  0
    9.8246   -4.2930   25.2864 H   0  0  0  0  0  0  0  0  0  0  0  0
    8.4398   -3.1942   25.4785 H   0  0  0  0  0  0  0  0  0  0  0  0
    7.5116   -4.2239   23.5144 H   0  0  0  0  0  0  0  0  0  0  0  0
    9.0356   -5.0908   23.2411 H   0  0  0  0  0  0  0  0  0  0  0  0
    9.2020   -3.5223   21.3982 H   0  0  0  0  0  0  0  0  0  0  0  0
    7.6877   -1.6963   20.8484 N   0  0  0  0  0  0  0  0  0  0  0  0
    7.0040   -0.5284   20.9905 N   0  0  0  0  0  0  0  0  0  0  0  0
    6.4038    0.1109   19.8734 C   0  0  0  0  0  0  0  0  0  0  0  0
    5.2144    0.8498   19.9591 C   0  0  0  0  0  0  0  0  0  0  0  0
    4.7495    1.4838   18.8008 C   0  0  0  0  0  0  0  0  0  0  0  0
    5.4694    1.3450   17.6119 C   0  0  0  0  0  0  0  0  0  0  0  0
    6.5947    0.6143   17.5217 N   0  0  0  0  0  0  0  0  0  0  0  0
    7.0415    0.0130   18.6256 C   0  0  0  0  0  0  0  0  0  0  0  0
    7.9595   -0.5652   18.5404 H   0  0  0  0  0  0  0  0  0  0  0  0
    5.1233    1.8247   16.6972 H   0  0  0  0  0  0  0  0  0  0  0  0
    3.8611    2.1054   18.8229 H   0  0  0  0  0  0  0  0  0  0  0  0
    4.6579    0.9302   20.8935 H   0  0  0  0  0  0  0  0  0  0  0  0
    6.5641    1.9400   21.9043 H   0  0  0  0  0  0  0  0  0  0  0  0
    5.8227    1.2036   23.3512 H   0  0  0  0  0  0  0  0  0  0  0  0
    5.9588    3.7088   23.4711 H   0  0  0  0  0  0  0  0  0  0  0  0
    6.0188    5.6931   24.9895 H   0  0  0  0  0  0  0  0  0  0  0  0
    9.5771    4.1985   26.8201 H   0  0  0  0  0  0  0  0  0  0  0  0
   10.4172    1.7690   24.5220 H   0  0  0  0  0  0  0  0  0  0  0  0
   10.4625    2.0064   26.2656 H   0  0  0  0  0  0  0  0  0  0  0  0
    9.3319    0.8626   25.5817 H   0  0  0  0  0  0  0  0  0  0  0  0
  1  2  1  0
  2  3  2  0
  3  4  1  0
  4  5  1  0
  4  6  2  0
  6  7  1  0
  7  8  2  0
  8  9  1  0
  9 10  1  0
 10 11  1  0
 11 12  2  0
 12 13  1  0
 13 14  1  0
 14 15  1  0
 15 16  1  0
 16 17  1  0
 17 18  1  0
 18 19  1  0
 18 20  1  0
 16 21  1  0
 16 22  1  0
 15 23  1  0
 15 24  1  0
 14 25  1  0
 13 26  2  0
 26 27  1  0
 27 28  1  0
 28 29  2  0
 29 30  1  0
 30 31  2  0
 31 32  1  0
 32 33  2  0
 33 34  1  0
 31 35  1  0
 30 36  1  0
 29 37  1  0
 10 38  1  0
 10 39  1  0
  7 40  1  0
  6 41  1  0
  3 42  1  0
  1 43  1  0
  1 44  1  0
  1 45  1  0
  8  2  1  0
 27 11  1  0
 33 28  1  0
 18 14  1  0
M  END
>  <cnnaffinity>  (1) 
-5.88461

>  <filename>  (1) 
Cc1cc(Cl)ccc1OCc1nc(C2CCOC2)nn1-c1cccnc1

$$$$
