
     RDKit          3D

 43 46  0  0  0  0  0  0  0  0999 V2000
    5.6370   -0.8702   26.7197 C   0  0  0  0  0  0  0  0  0  0  0  0
    6.3464    0.1673   25.9026 C   0  0  0  0  0  0  0  0  0  0  0  0
    6.1076    0.6657   24.6351 C   0  0  0  0  0  0  0  0  0  0  0  0
    7.2051    1.4968   24.3281 C   0  0  0  0  0  0  0  0  0  0  0  0
    7.5994    2.0686   22.9975 C   0  0  0  0  0  0  0  0  0  0  0  0
    8.5269    1.0979   22.3398 C   0  0  0  0  0  0  0  0  0  0  0  0
    9.8358    1.1345   22.4796 N   0  0  0  0  0  0  0  0  0  0  0  0
   10.2428   -0.0666   22.0115 C   0  0  0  0  0  0  0  0  0  0  0  0
   11.6371   -0.5356   21.9246 C   0  0  0  0  0  0  0  0  0  0  0  0
   11.8725   -1.6826   21.1472 C   0  0  0  0  0  0  0  0  0  0  0  0
   13.1434   -2.0135   20.7138 C   0  0  0  0  0  0  0  0  0  0  0  0
   14.2281   -1.2889   21.1839 C   0  0  0  0  0  0  0  0  0  0  0  0
   14.0543   -0.2484   22.0969 C   0  0  0  0  0  0  0  0  0  0  0  0
   12.7577    0.1192   22.4779 C   0  0  0  0  0  0  0  0  0  0  0  0
   12.6136    1.3684   23.6711 Cl  0  0  0  0  0  0  0  0  0  0  0  0
   14.8951    0.2819   22.5352 H   0  0  0  0  0  0  0  0  0  0  0  0
   15.1822   -1.5841   20.7952 H   0  0  0  0  0  0  0  0  0  0  0  0
   13.3111   -2.8322   20.0198 H   0  0  0  0  0  0  0  0  0  0  0  0
   11.0133   -2.2802   20.8691 H   0  0  0  0  0  0  0  0  0  0  0  0
    9.2502   -0.8148   21.5441 N   0  0  0  0  0  0  0  0  0  0  0  0
    8.1533   -0.0662   21.7604 N   0  0  0  0  0  0  0  0  0  0  0  0
    6.8634   -0.5647   21.2903 C   0  0  0  0  0  0  0  0  0  0  0  0
    6.3394    0.1689   20.0742 C   0  0  0  0  0  0  0  0  0  0  0  0
    5.1228    0.8564   20.0648 C   0  0  0  0  0  0  0  0  0  0  0  0
    4.7105    1.4820   18.8850 C   0  0  0  0  0  0  0  0  0  0  0  0
    5.5369    1.4028   17.7605 C   0  0  0  0  0  0  0  0  0  0  0  0
    6.7153    0.7602   17.7504 N   0  0  0  0  0  0  0  0  0  0  0  0
    7.1027    0.1781   18.8915 C   0  0  0  0  0  0  0  0  0  0  0  0
    8.0736   -0.3169   18.8707 H   0  0  0  0  0  0  0  0  0  0  0  0
    5.2435    1.8819   16.8279 H   0  0  0  0  0  0  0  0  0  0  0  0
    3.7847    2.0440   18.8323 H   0  0  0  0  0  0  0  0  0  0  0  0
    4.5117    0.9184   20.9688 H   0  0  0  0  0  0  0  0  0  0  0  0
    7.0452   -1.6221   21.0658 H   0  0  0  0  0  0  0  0  0  0  0  0
    6.1542   -0.5297   22.1216 H   0  0  0  0  0  0  0  0  0  0  0  0
    8.1543    2.9962   23.1377 H   0  0  0  0  0  0  0  0  0  0  0  0
    6.7194    2.2580   22.3785 H   0  0  0  0  0  0  0  0  0  0  0  0
    8.0335    1.5756   25.3573 N   0  0  0  0  0  0  0  0  0  0  0  0
    7.5007    0.7685   26.2882 N   0  0  0  0  0  0  0  0  0  0  0  0
    8.0001    0.6441   27.1567 H   0  0  0  0  0  0  0  0  0  0  0  0
    5.2403    0.5072   24.0144 H   0  0  0  0  0  0  0  0  0  0  0  0
    5.8690   -0.7997   27.7873 H   0  0  0  0  0  0  0  0  0  0  0  0
    5.9101   -1.8791   26.3894 H   0  0  0  0  0  0  0  0  0  0  0  0
    4.5552   -0.7742   26.6019 H   0  0  0  0  0  0  0  0  0  0  0  0
  1  2  1  0
  2  3  2  0
  3  4  1  0
  4  5  1  0
  5  6  1  0
  6  7  2  0
  7  8  1  0
  8  9  1  0
  9 10  2  0
 10 11  1  0
 11 12  2  0
 12 13  1  0
 13 14  2  0
 14 15  1  0
 13 16  1  0
 12 17  1  0
 11 18  1  0
 10 19  1  0
  8 20  2  0
 20 21  1  0
 21 22  1  0
 22 23  1  0
 23 24  2  0
 24 25  1  0
 25 26  2  0
 26 27  1  0
 27 28  2  0
 28 29  1  0
 26 30  1  0
 25 31  1  0
 24 32  1  0
 22 33  1  0
 22 34  1  0
  5 35  1  0
  5 36  1  0
  4 37  2  0
 37 38  1  0
 38 39  1  0
  3 40  1  0
  1 41  1  0
  1 42  1  0
  1 43  1  0
 38  2  1  0
 21  6  1  0
 28 23  1  0
 14  9  1  0
M  END
>  <cnnaffinity>  (1) 
-6.61903

>  <filename>  (1) 
Cc1cc(Cc2nc(-c3ccccc3Cl)nn2Cc2cccnc2)n[nH]1

$$$$
