
     RDKit          3D

 43 46  0  0  0  0  0  0  0  0999 V2000
    5.8529   -1.2822   26.2589 C   0  0  0  0  0  0  0  0  0  0  0  0
    6.7157   -0.2115   25.6712 C   0  0  0  0  0  0  0  0  0  0  0  0
    6.4198    0.3396   24.4958 N   0  0  0  0  0  0  0  0  0  0  0  0
    7.3726    1.2535   24.2763 N   0  0  0  0  0  0  0  0  0  0  0  0
    7.4993    1.8729   22.9622 C   0  0  0  0  0  0  0  0  0  0  0  0
    8.5576    1.1427   22.2015 C   0  0  0  0  0  0  0  0  0  0  0  0
    9.8411    1.3856   22.3663 N   0  0  0  0  0  0  0  0  0  0  0  0
   10.4370    0.2621   21.8815 C   0  0  0  0  0  0  0  0  0  0  0  0
   11.8710    0.0360   22.0069 C   0  0  0  0  0  0  0  0  0  0  0  0
   12.5160   -1.1751   21.4867 C   0  0  0  0  0  0  0  0  0  0  0  0
   13.8434   -1.3280   21.3352 C   0  0  0  0  0  0  0  0  0  0  0  0
   14.3995   -2.6844   20.4021 Cl  0  0  0  0  0  0  0  0  0  0  0  0
   14.2128    0.8574   22.6585 C   0  0  0  0  0  0  0  0  0  0  0  0
   14.2753    0.6641   22.9241 C   0  0  0  0  0  0  0  0  0  0  0  0
   12.6114    1.0199   22.6260 C   0  0  0  0  0  0  0  0  0  0  0  0
   12.2314    2.0542   22.6654 H   0  0  0  0  0  0  0  0  0  0  0  0
   15.3357    1.2441   22.6970 H   0  0  0  0  0  0  0  0  0  0  0  0
   14.5407   -0.0622   21.9873 H   0  0  0  0  0  0  0  0  0  0  0  0
   11.8467   -1.9625   21.1239 H   0  0  0  0  0  0  0  0  0  0  0  0
    9.5872   -0.6139   21.3681 N   0  0  0  0  0  0  0  0  0  0  0  0
    8.3835   -0.0422   21.5842 N   0  0  0  0  0  0  0  0  0  0  0  0
    7.1573   -0.6796   21.1220 C   0  0  0  0  0  0  0  0  0  0  0  0
    6.5013    0.0505   19.9693 C   0  0  0  0  0  0  0  0  0  0  0  0
    5.2791    0.7192   20.0960 C   0  0  0  0  0  0  0  0  0  0  0  0
    4.7488    1.3723   18.9803 C   0  0  0  0  0  0  0  0  0  0  0  0
    5.4637    1.3360   17.7803 C   0  0  0  0  0  0  0  0  0  0  0  0
    6.6418    0.7090   17.6404 N   0  0  0  0  0  0  0  0  0  0  0  0
    7.1439    0.0984   18.7197 C   0  0  0  0  0  0  0  0  0  0  0  0
    8.1135   -0.3816   18.5867 H   0  0  0  0  0  0  0  0  0  0  0  0
    5.0757    1.8305   16.8915 H   0  0  0  0  0  0  0  0  0  0  0  0
    3.8121    1.9151   19.0330 H   0  0  0  0  0  0  0  0  0  0  0  0
    4.7546    0.7391   21.0548 H   0  0  0  0  0  0  0  0  0  0  0  0
    6.4739   -0.7544   21.9781 H   0  0  0  0  0  0  0  0  0  0  0  0
    7.4475   -1.6953   20.8367 H   0  0  0  0  0  0  0  0  0  0  0  0
    7.8127    2.9106   23.0914 H   0  0  0  0  0  0  0  0  0  0  0  0
    6.5262    1.8344   22.4702 H   0  0  0  0  0  0  0  0  0  0  0  0
    8.3111    1.2567   25.2537 C   0  0  0  0  0  0  0  0  0  0  0  0
    7.9148    0.3273   26.1864 C   0  0  0  0  0  0  0  0  0  0  0  0
    8.4172    0.0329   27.0995 H   0  0  0  0  0  0  0  0  0  0  0  0
    9.2020    1.8696   25.1497 H   0  0  0  0  0  0  0  0  0  0  0  0
    4.8458   -1.2337   25.8379 H   0  0  0  0  0  0  0  0  0  0  0  0
    6.2701   -2.2732   26.0457 H   0  0  0  0  0  0  0  0  0  0  0  0
    5.7891   -1.1796   27.3465 H   0  0  0  0  0  0  0  0  0  0  0  0
  1  2  1  0
  2  3  2  0
  3  4  1  0
  4  5  1  0
  5  6  1  0
  6  7  2  0
  7  8  1  0
  8  9  1  0
  9 10  2  0
 10 11  1  0
 11 12  1  0
 11 13  2  0
 13 14  1  0
 14 15  2  0
 15 16  1  0
 14 17  1  0
 13 18  1  0
 10 19  1  0
  8 20  2  0
 20 21  1  0
 21 22  1  0
 22 23  1  0
 23 24  2  0
 24 25  1  0
 25 26  2  0
 26 27  1  0
 27 28  2  0
 28 29  1  0
 26 30  1  0
 25 31  1  0
 24 32  1  0
 22 33  1  0
 22 34  1  0
  5 35  1  0
  5 36  1  0
  4 37  1  0
 37 38  2  0
 38 39  1  0
 37 40  1  0
  1 41  1  0
  1 42  1  0
  1 43  1  0
 38  2  1  0
 21  6  1  0
 28 23  1  0
 15  9  1  0
M  END
>  <cnnaffinity>  (1) 
-6.54802

>  <filename>  (1) 
Cc1ccn(Cc2nc(-c3cccc(Cl)c3)nn2Cc2cccnc2)n1

$$$$
