
     RDKit          3D

 45 48  0  0  0  0  0  0  0  0999 V2000
    3.9561   -3.9510   27.4360 C   0  0  0  0  0  0  0  0  0  0  0  0
    4.5637   -3.2106   26.2913 C   0  0  0  0  0  0  0  0  0  0  0  0
    5.2116   -1.8615   26.3585 C   0  0  0  0  0  0  0  0  0  0  0  0
    4.8040   -0.8842   25.4167 C   0  0  0  0  0  0  0  0  0  0  0  0
    4.2737    0.4883   25.5389 C   0  0  0  0  0  0  0  0  0  0  0  0
    3.2119    0.5316   25.2782 H   0  0  0  0  0  0  0  0  0  0  0  0
    4.8080    1.2099   24.9093 H   0  0  0  0  0  0  0  0  0  0  0  0
    4.3445    0.8363   26.5733 H   0  0  0  0  0  0  0  0  0  0  0  0
    5.8161   -1.6354   24.7345 C   0  0  0  0  0  0  0  0  0  0  0  0
    5.4258   -2.9211   24.0893 C   0  0  0  0  0  0  0  0  0  0  0  0
    5.7776   -3.4137   22.8844 O   0  0  0  0  0  0  0  0  0  0  0  0
    6.0403   -2.5661   21.7732 C   0  0  0  0  0  0  0  0  0  0  0  0
    7.3513   -1.8400   21.8074 C   0  0  0  0  0  0  0  0  0  0  0  0
    8.3981   -2.1008   22.5678 N   0  0  0  0  0  0  0  0  0  0  0  0
    9.3511   -1.2696   22.0883 C   0  0  0  0  0  0  0  0  0  0  0  0
   10.6776   -1.1614   22.7491 C   0  0  0  0  0  0  0  0  0  0  0  0
   11.0300    0.2453   23.2948 C   0  0  0  0  0  0  0  0  0  0  0  0
   12.7830    0.0160   22.8444 S   0  0  0  0  0  0  0  0  0  0  0  0
   11.9560   -1.3066   21.8883 C   0  0  0  0  0  0  0  0  0  0  0  0
   11.8150   -1.0201   20.8413 H   0  0  0  0  0  0  0  0  0  0  0  0
   12.4588   -2.2745   21.9419 H   0  0  0  0  0  0  0  0  0  0  0  0
   10.5678    1.0510   22.7121 H   0  0  0  0  0  0  0  0  0  0  0  0
   10.8420    0.4014   24.3586 H   0  0  0  0  0  0  0  0  0  0  0  0
   10.6831   -1.8968   23.5570 H   0  0  0  0  0  0  0  0  0  0  0  0
    8.9798   -0.5246   21.0656 N   0  0  0  0  0  0  0  0  0  0  0  0
    7.6732   -0.8677   20.8976 N   0  0  0  0  0  0  0  0  0  0  0  0
    6.8867   -0.1866   19.9235 C   0  0  0  0  0  0  0  0  0  0  0  0
    5.6456    0.3953   20.2273 C   0  0  0  0  0  0  0  0  0  0  0  0
    4.9654    1.0761   19.2124 C   0  0  0  0  0  0  0  0  0  0  0  0
    5.5384    1.1477   17.9401 C   0  0  0  0  0  0  0  0  0  0  0  0
    6.7263    0.5925   17.6432 N   0  0  0  0  0  0  0  0  0  0  0  0
    7.3892   -0.0372   18.6180 C   0  0  0  0  0  0  0  0  0  0  0  0
    8.3557   -0.4595   18.3527 H   0  0  0  0  0  0  0  0  0  0  0  0
    5.0280    1.6630   17.1281 H   0  0  0  0  0  0  0  0  0  0  0  0
    4.0108    1.5530   19.4060 H   0  0  0  0  0  0  0  0  0  0  0  0
    5.2405    0.3494   21.2401 H   0  0  0  0  0  0  0  0  0  0  0  0
    5.2281   -1.8551   21.6022 H   0  0  0  0  0  0  0  0  0  0  0  0
    6.0629   -3.2352   20.9090 H   0  0  0  0  0  0  0  0  0  0  0  0
    4.7310   -3.7335   25.0101 C   0  0  0  0  0  0  0  0  0  0  0  0
    4.3960   -4.7406   24.7538 H   0  0  0  0  0  0  0  0  0  0  0  0
    6.7791   -1.1700   24.4974 H   0  0  0  0  0  0  0  0  0  0  0  0
    5.7704   -1.5626   27.2552 H   0  0  0  0  0  0  0  0  0  0  0  0
    3.4591   -4.8644   27.0783 H   0  0  0  0  0  0  0  0  0  0  0  0
    3.2192   -3.3347   27.9717 H   0  0  0  0  0  0  0  0  0  0  0  0
    4.7134   -4.2623   28.1688 H   0  0  0  0  0  0  0  0  0  0  0  0
  1  2  1  0
  2  3  2  0
  3  4  1  0
  4  5  1  0
  5  6  1  0
  5  7  1  0
  5  8  1  0
  4  9  2  0
  9 10  1  0
 10 11  1  0
 11 12  1  0
 12 13  1  0
 13 14  2  0
 14 15  1  0
 15 16  1  0
 16 17  1  0
 17 18  1  0
 18 19  1  0
 19 20  1  0
 19 21  1  0
 17 22  1  0
 17 23  1  0
 16 24  1  0
 15 25  2  0
 25 26  1  0
 26 27  1  0
 27 28  2  0
 28 29  1  0
 29 30  2  0
 30 31  1  0
 31 32  2  0
 32 33  1  0
 30 34  1  0
 29 35  1  0
 28 36  1  0
 12 37  1  0
 12 38  1  0
 10 39  2  0
 39 40  1  0
  9 41  1  0
  3 42  1  0
  1 43  1  0
  1 44  1  0
  1 45  1  0
 39  2  1  0
 26 13  1  0
 32 27  1  0
 19 16  1  0
M  END
>  <cnnaffinity>  (1) 
-5.53225

>  <filename>  (1) 
Cc1cc(C)cc(OCc2nc(C3CSC3)nn2-c2cccnc2)c1

$$$$
