
     RDKit          3D

 42 45  0  0  0  0  0  0  0  0999 V2000
    6.1669    3.8490   28.8598 C   0  0  0  0  0  0  0  0  0  0  0  0
    6.5732    3.2095   27.5592 C   0  0  0  0  0  0  0  0  0  0  0  0
    7.7601    3.5815   26.9132 C   0  0  0  0  0  0  0  0  0  0  0  0
    8.1292    3.0012   25.7056 C   0  0  0  0  0  0  0  0  0  0  0  0
    7.3017    2.0374   25.0958 C   0  0  0  0  0  0  0  0  0  0  0  0
    7.7128    1.4689   23.7985 C   0  0  0  0  0  0  0  0  0  0  0  0
    7.1018    0.4603   23.1990 N   0  0  0  0  0  0  0  0  0  0  0  0
    7.8334    0.2715   22.0743 N   0  0  0  0  0  0  0  0  0  0  0  0
    7.3714   -0.6645   21.0496 C   0  0  0  0  0  0  0  0  0  0  0  0
    6.6776    0.0146   19.8839 C   0  0  0  0  0  0  0  0  0  0  0  0
    5.4661    0.6840   20.1054 C   0  0  0  0  0  0  0  0  0  0  0  0
    4.8413    1.3262   19.0364 C   0  0  0  0  0  0  0  0  0  0  0  0
    5.4610    1.2830   17.7844 C   0  0  0  0  0  0  0  0  0  0  0  0
    6.6080    0.6290   17.5432 N   0  0  0  0  0  0  0  0  0  0  0  0
    7.1887    0.0073   18.5785 C   0  0  0  0  0  0  0  0  0  0  0  0
    8.1024   -0.5470   18.3445 H   0  0  0  0  0  0  0  0  0  0  0  0
    5.0186    1.7940   16.9334 H   0  0  0  0  0  0  0  0  0  0  0  0
    3.8995    1.8549   19.1589 H   0  0  0  0  0  0  0  0  0  0  0  0
    5.0271    0.6897   21.1047 H   0  0  0  0  0  0  0  0  0  0  0  0
    8.2187   -1.2698   20.7181 H   0  0  0  0  0  0  0  0  0  0  0  0
    6.6670   -1.3194   21.5735 H   0  0  0  0  0  0  0  0  0  0  0  0
    8.8329    1.1803   22.0481 C   0  0  0  0  0  0  0  0  0  0  0  0
    9.9787    1.1708   21.1026 C   0  0  0  0  0  0  0  0  0  0  0  0
   10.9840    0.1432   21.5112 C   0  0  0  0  0  0  0  0  0  0  0  0
   12.0881    0.1576   22.2987 C   0  0  0  0  0  0  0  0  0  0  0  0
   12.5113   -1.2001   22.2662 C   0  0  0  0  0  0  0  0  0  0  0  0
   11.7187   -1.9482   21.5513 N   0  0  0  0  0  0  0  0  0  0  0  0
   10.7355   -1.1016   21.0901 O   0  0  0  0  0  0  0  0  0  0  0  0
   13.4016   -1.6428   22.6967 H   0  0  0  0  0  0  0  0  0  0  0  0
   12.5368    0.9860   22.8323 H   0  0  0  0  0  0  0  0  0  0  0  0
   10.4420    2.1540   21.1472 H   0  0  0  0  0  0  0  0  0  0  0  0
    9.6249    0.9629   20.0916 H   0  0  0  0  0  0  0  0  0  0  0  0
    8.7867    1.9474   23.1087 N   0  0  0  0  0  0  0  0  0  0  0  0
    6.1143    1.6440   25.7455 C   0  0  0  0  0  0  0  0  0  0  0  0
    5.7635    2.2330   26.9587 C   0  0  0  0  0  0  0  0  0  0  0  0
    4.8414    1.9425   27.4545 H   0  0  0  0  0  0  0  0  0  0  0  0
    5.4791    0.8738   25.3108 H   0  0  0  0  0  0  0  0  0  0  0  0
    9.0630    3.2805   25.2230 H   0  0  0  0  0  0  0  0  0  0  0  0
    8.3895    4.3466   27.3590 H   0  0  0  0  0  0  0  0  0  0  0  0
    5.5658    3.1675   29.4689 H   0  0  0  0  0  0  0  0  0  0  0  0
    7.0391    4.1390   29.4526 H   0  0  0  0  0  0  0  0  0  0  0  0
    5.5698    4.7525   28.6913 H   0  0  0  0  0  0  0  0  0  0  0  0
  1  2  1  0
  2  3  2  0
  3  4  1  0
  4  5  2  0
  5  6  1  0
  6  7  2  0
  7  8  1  0
  8  9  1  0
  9 10  1  0
 10 11  2  0
 11 12  1  0
 12 13  2  0
 13 14  1  0
 14 15  2  0
 15 16  1  0
 13 17  1  0
 12 18  1  0
 11 19  1  0
  9 20  1  0
  9 21  1  0
  8 22  1  0
 22 23  1  0
 23 24  1  0
 24 25  2  0
 25 26  1  0
 26 27  2  0
 27 28  1  0
 26 29  1  0
 25 30  1  0
 23 31  1  0
 23 32  1  0
 22 33  2  0
  5 34  1  0
 34 35  2  0
 35 36  1  0
 34 37  1  0
  4 38  1  0
  3 39  1  0
  1 40  1  0
  1 41  1  0
  1 42  1  0
 35  2  1  0
 33  6  1  0
 15 10  1  0
 28 24  1  0
M  END
>  <cnnaffinity>  (1) 
-6.00973

>  <filename>  (1) 
Cc1ccc(-c2nc(Cc3ccno3)n(Cc3cccnc3)n2)cc1

$$$$
