
     RDKit          3D

 43 46  0  0  0  0  0  0  0  0999 V2000
    6.3171    1.4852   25.6520 C   0  0  0  0  0  0  0  0  0  0  0  0
    7.6287    1.7584   24.9623 C   0  0  0  0  0  0  0  0  0  0  0  0
    8.8133    2.0122   25.6680 C   0  0  0  0  0  0  0  0  0  0  0  0
    9.9988    2.2681   25.0992 N   0  0  0  0  0  0  0  0  0  0  0  0
   10.0364    2.2762   23.7634 C   0  0  0  0  0  0  0  0  0  0  0  0
    8.9219    2.0705   22.9364 C   0  0  0  0  0  0  0  0  0  0  0  0
    9.0464    2.0127   21.4316 C   0  0  0  0  0  0  0  0  0  0  0  0
    9.5197    0.6174   20.9467 C   0  0  0  0  0  0  0  0  0  0  0  0
    8.6290   -0.4965   21.4113 C   0  0  0  0  0  0  0  0  0  0  0  0
    8.8493   -1.3039   22.4281 N   0  0  0  0  0  0  0  0  0  0  0  0
    7.6530   -1.9264   22.5980 C   0  0  0  0  0  0  0  0  0  0  0  0
    7.4289   -2.8651   23.7352 C   0  0  0  0  0  0  0  0  0  0  0  0
    7.5442   -2.2010   25.1367 C   0  0  0  0  0  0  0  0  0  0  0  0
    8.9067   -3.3071   25.6263 S   0  0  0  0  0  0  0  0  0  0  0  0
    8.5475   -3.9178   23.9450 C   0  0  0  0  0  0  0  0  0  0  0  0
    9.4043   -3.8133   23.2713 H   0  0  0  0  0  0  0  0  0  0  0  0
    8.1946   -4.9539   23.9465 H   0  0  0  0  0  0  0  0  0  0  0  0
    7.8455   -1.1446   25.1175 H   0  0  0  0  0  0  0  0  0  0  0  0
    6.6556   -2.3215   25.7651 H   0  0  0  0  0  0  0  0  0  0  0  0
    6.4534   -3.3233   23.5775 H   0  0  0  0  0  0  0  0  0  0  0  0
    6.7244   -1.5902   21.7305 N   0  0  0  0  0  0  0  0  0  0  0  0
    7.3568   -0.6746   20.9427 N   0  0  0  0  0  0  0  0  0  0  0  0
    6.6591    0.0033   19.9028 C   0  0  0  0  0  0  0  0  0  0  0  0
    5.4422    0.6448   20.1648 C   0  0  0  0  0  0  0  0  0  0  0  0
    4.8129    1.3110   19.1093 C   0  0  0  0  0  0  0  0  0  0  0  0
    5.4023    1.2956   17.8373 C   0  0  0  0  0  0  0  0  0  0  0  0
    6.5616    0.6738   17.5778 N   0  0  0  0  0  0  0  0  0  0  0  0
    7.1703    0.0538   18.5935 C   0  0  0  0  0  0  0  0  0  0  0  0
    8.1148   -0.4343   18.3714 H   0  0  0  0  0  0  0  0  0  0  0  0
    4.9166    1.7838   16.9937 H   0  0  0  0  0  0  0  0  0  0  0  0
    3.8786    1.8403   19.2631 H   0  0  0  0  0  0  0  0  0  0  0  0
    5.0112    0.6101   21.1695 H   0  0  0  0  0  0  0  0  0  0  0  0
    9.5870    0.6138   19.8552 H   0  0  0  0  0  0  0  0  0  0  0  0
   10.5230    0.4121   21.3286 H   0  0  0  0  0  0  0  0  0  0  0  0
    8.0827    2.2483   20.9611 H   0  0  0  0  0  0  0  0  0  0  0  0
    9.7556    2.7700   21.0781 H   0  0  0  0  0  0  0  0  0  0  0  0
    7.7036    1.7946   23.5709 C   0  0  0  0  0  0  0  0  0  0  0  0
    6.8153    1.5881   22.9733 H   0  0  0  0  0  0  0  0  0  0  0  0
   11.0094    2.4687   23.3226 H   0  0  0  0  0  0  0  0  0  0  0  0
    8.7957    2.0218   26.7520 H   0  0  0  0  0  0  0  0  0  0  0  0
    5.7375    2.4054   25.7876 H   0  0  0  0  0  0  0  0  0  0  0  0
    6.4628    1.0397   26.6419 H   0  0  0  0  0  0  0  0  0  0  0  0
    5.7002    0.7969   25.0609 H   0  0  0  0  0  0  0  0  0  0  0  0
  1  2  1  0
  2  3  2  0
  3  4  1  0
  4  5  2  0
  5  6  1  0
  6  7  1  0
  7  8  1  0
  8  9  1  0
  9 10  2  0
 10 11  1  0
 11 12  1  0
 12 13  1  0
 13 14  1  0
 14 15  1  0
 15 16  1  0
 15 17  1  0
 13 18  1  0
 13 19  1  0
 12 20  1  0
 11 21  2  0
 21 22  1  0
 22 23  1  0
 23 24  2  0
 24 25  1  0
 25 26  2  0
 26 27  1  0
 27 28  2  0
 28 29  1  0
 26 30  1  0
 25 31  1  0
 24 32  1  0
  8 33  1  0
  8 34  1  0
  7 35  1  0
  7 36  1  0
  6 37  2  0
 37 38  1  0
  5 39  1  0
  3 40  1  0
  1 41  1  0
  1 42  1  0
  1 43  1  0
 37  2  1  0
 22  9  1  0
 28 23  1  0
 15 12  1  0
M  END
>  <cnnaffinity>  (1) 
-5.95093

>  <filename>  (1) 
Cc1cncc(CCc2nc(C3CSC3)nn2-c2cccnc2)c1

$$$$
