
     RDKit          3D

 47 50  0  0  0  0  0  0  0  0999 V2000
    6.6604    1.8358   23.8166 C   0  0  0  0  0  0  0  0  0  0  0  0
    7.1046    3.2392   23.4599 C   0  0  0  0  0  0  0  0  0  0  0  0
    6.2880    4.3396   23.7698 C   0  0  0  0  0  0  0  0  0  0  0  0
    6.6654    5.6511   23.4541 C   0  0  0  0  0  0  0  0  0  0  0  0
    7.8899    5.8820   22.8291 C   0  0  0  0  0  0  0  0  0  0  0  0
    8.7253    4.7985   22.5568 C   0  0  0  0  0  0  0  0  0  0  0  0
    8.3501    3.4799   22.8398 C   0  0  0  0  0  0  0  0  0  0  0  0
    9.2935    2.3552   22.4729 C   0  0  0  0  0  0  0  0  0  0  0  0
    8.9913    1.8872   21.1540 O   0  0  0  0  0  0  0  0  0  0  0  0
    9.5253    0.5966   20.8998 C   0  0  0  0  0  0  0  0  0  0  0  0
    8.6394   -0.4883   21.4166 C   0  0  0  0  0  0  0  0  0  0  0  0
    8.8701   -1.2942   22.4344 N   0  0  0  0  0  0  0  0  0  0  0  0
    7.6700   -1.9157   22.5952 C   0  0  0  0  0  0  0  0  0  0  0  0
    7.3948   -2.8158   23.7373 C   0  0  2  0  0  0  0  0  0  0  0  0
    6.2449   -2.5029   24.6592 C   0  0  0  0  0  0  0  0  0  0  0  0
    7.6581   -2.3549   25.1448 C   0  0  1  0  0  0  0  0  0  0  0  0
    8.1808   -3.3177   26.1799 C   0  0  0  0  0  0  0  0  0  0  0  0
    9.2736   -3.3891   26.1688 H   0  0  0  0  0  0  0  0  0  0  0  0
    7.7744   -4.3162   25.9895 H   0  0  0  0  0  0  0  0  0  0  0  0
    7.8538   -3.0221   27.1837 H   0  0  0  0  0  0  0  0  0  0  0  0
    8.0251   -1.3317   25.2420 H   0  0  0  0  0  0  0  0  0  0  0  0
    5.6802   -1.6003   24.4306 H   0  0  0  0  0  0  0  0  0  0  0  0
    5.6494   -3.3247   25.0500 H   0  0  0  0  0  0  0  0  0  0  0  0
    7.6206   -3.8549   23.5139 H   0  0  0  0  0  0  0  0  0  0  0  0
    6.7460   -1.5825   21.7126 N   0  0  0  0  0  0  0  0  0  0  0  0
    7.3705   -0.6531   20.9466 N   0  0  0  0  0  0  0  0  0  0  0  0
    6.6674    0.0209   19.9086 C   0  0  0  0  0  0  0  0  0  0  0  0
    5.4431    0.6461   20.1661 C   0  0  0  0  0  0  0  0  0  0  0  0
    4.8120    1.3086   19.1092 C   0  0  0  0  0  0  0  0  0  0  0  0
    5.3992    1.2943   17.8379 C   0  0  0  0  0  0  0  0  0  0  0  0
    6.5552    0.6661   17.5763 N   0  0  0  0  0  0  0  0  0  0  0  0
    7.1684    0.0531   18.5957 C   0  0  0  0  0  0  0  0  0  0  0  0
    8.1098   -0.4378   18.3624 H   0  0  0  0  0  0  0  0  0  0  0  0
    4.9240    1.7868   16.9928 H   0  0  0  0  0  0  0  0  0  0  0  0
    3.8816    1.8380   19.2599 H   0  0  0  0  0  0  0  0  0  0  0  0
    5.0176    0.6102   21.1740 H   0  0  0  0  0  0  0  0  0  0  0  0
   10.5171    0.4614   21.3562 H   0  0  0  0  0  0  0  0  0  0  0  0
    9.6120    0.5170   19.8169 H   0  0  0  0  0  0  0  0  0  0  0  0
    9.2351    1.5267   23.2031 H   0  0  0  0  0  0  0  0  0  0  0  0
   10.3352    2.7114   22.4782 H   0  0  0  0  0  0  0  0  0  0  0  0
    9.7140    4.9952   22.1634 H   0  0  0  0  0  0  0  0  0  0  0  0
    8.2131    6.8857   22.5575 H   0  0  0  0  0  0  0  0  0  0  0  0
    6.0147    6.4875   23.6978 H   0  0  0  0  0  0  0  0  0  0  0  0
    5.3356    4.1530   24.2599 H   0  0  0  0  0  0  0  0  0  0  0  0
    5.6154    1.8317   24.1338 H   0  0  0  0  0  0  0  0  0  0  0  0
    6.7657    1.1436   22.9702 H   0  0  0  0  0  0  0  0  0  0  0  0
    7.2552    1.4193   24.6401 H   0  0  0  0  0  0  0  0  0  0  0  0
  1  2  1  0
  2  3  2  0
  3  4  1  0
  4  5  2  0
  5  6  1  0
  6  7  2  0
  7  8  1  0
  8  9  1  0
  9 10  1  0
 10 11  1  0
 11 12  2  0
 12 13  1  0
 13 14  1  0
 14 15  1  0
 15 16  1  0
 16 17  1  0
 17 18  1  0
 17 19  1  0
 17 20  1  0
 16 21  1  6
 15 22  1  0
 15 23  1  0
 14 24  1  6
 13 25  2  0
 25 26  1  0
 26 27  1  0
 27 28  2  0
 28 29  1  0
 29 30  2  0
 30 31  1  0
 31 32  2  0
 32 33  1  0
 30 34  1  0
 29 35  1  0
 28 36  1  0
 10 37  1  0
 10 38  1  0
  8 39  1  0
  8 40  1  0
  6 41  1  0
  5 42  1  0
  4 43  1  0
  3 44  1  0
  1 45  1  0
  1 46  1  0
  1 47  1  0
  7  2  1  0
 26 11  1  0
 32 27  1  0
 16 14  1  0
M  END
>  <cnnaffinity>  (1) 
-5.86125

>  <filename>  (1) 
Cc1ccccc1COCc1nc([C@@H]2C[C@H]2C)nn1-c1cccnc1

$$$$
