
     RDKit          3D

 42 44  0  0  0  0  0  0  0  0999 V2000
    8.2918   -5.0924   26.2426 C   0  0  0  0  0  0  0  0  0  0  0  0
    8.1844   -5.2170   24.7363 C   0  0  0  0  0  0  0  0  0  0  0  0
    8.8446   -6.2835   24.1153 C   0  0  0  0  0  0  0  0  0  0  0  0
    8.5969   -6.6309   22.7881 C   0  0  0  0  0  0  0  0  0  0  0  0
    7.7057   -5.8600   22.0404 C   0  0  0  0  0  0  0  0  0  0  0  0
    7.1244   -4.7223   22.6069 C   0  0  0  0  0  0  0  0  0  0  0  0
    7.3838   -4.3579   23.9385 C   0  0  0  0  0  0  0  0  0  0  0  0
    6.8063   -3.0768   24.4989 C   0  0  0  0  0  0  0  0  0  0  0  0
    7.6968   -1.8093   24.3322 C   0  0  0  0  0  0  0  0  0  0  0  0
    9.0290   -1.9468   25.0781 C   0  0  0  0  0  0  0  0  0  0  0  0
    9.5471   -2.8665   24.7900 H   0  0  0  0  0  0  0  0  0  0  0  0
    9.6987   -1.1032   24.8908 H   0  0  0  0  0  0  0  0  0  0  0  0
    8.8538   -1.9906   26.1605 H   0  0  0  0  0  0  0  0  0  0  0  0
    7.8179   -1.4223   22.8791 C   0  0  0  0  0  0  0  0  0  0  0  0
    6.8504   -0.8053   22.2241 N   0  0  0  0  0  0  0  0  0  0  0  0
    7.3537   -0.6528   20.9809 C   0  0  0  0  0  0  0  0  0  0  0  0
    6.6295    0.0147   19.9066 C   0  0  0  0  0  0  0  0  0  0  0  0
    5.4098    0.6761   20.1137 C   0  0  0  0  0  0  0  0  0  0  0  0
    4.8241    1.3172   19.0260 C   0  0  0  0  0  0  0  0  0  0  0  0
    5.4748    1.2776   17.7863 C   0  0  0  0  0  0  0  0  0  0  0  0
    6.6321    0.6324   17.5773 N   0  0  0  0  0  0  0  0  0  0  0  0
    7.1915    0.0171   18.6222 C   0  0  0  0  0  0  0  0  0  0  0  0
    8.1319   -0.4999   18.4335 H   0  0  0  0  0  0  0  0  0  0  0  0
    5.0484    1.7832   16.9231 H   0  0  0  0  0  0  0  0  0  0  0  0
    3.8876    1.8559   19.1241 H   0  0  0  0  0  0  0  0  0  0  0  0
    4.9474    0.6916   21.1044 H   0  0  0  0  0  0  0  0  0  0  0  0
    8.5636   -1.1630   20.8158 N   0  0  0  0  0  0  0  0  0  0  0  0
    8.8545   -1.6516   22.0412 N   0  0  0  0  0  0  0  0  0  0  0  0
   10.0681   -2.4315   22.1897 C   0  0  0  0  0  0  0  0  0  0  0  0
   10.7684   -1.9659   22.8899 H   0  0  0  0  0  0  0  0  0  0  0  0
    9.8246   -3.4447   22.5257 H   0  0  0  0  0  0  0  0  0  0  0  0
   10.5292   -2.4670   21.2043 H   0  0  0  0  0  0  0  0  0  0  0  0
    7.1363   -0.9740   24.7707 H   0  0  0  0  0  0  0  0  0  0  0  0
    5.8376   -2.8858   24.0251 H   0  0  0  0  0  0  0  0  0  0  0  0
    6.6007   -3.2096   25.5644 H   0  0  0  0  0  0  0  0  0  0  0  0
    6.4821   -4.0809   22.0045 H   0  0  0  0  0  0  0  0  0  0  0  0
    7.4746   -6.1249   21.0167 H   0  0  0  0  0  0  0  0  0  0  0  0
    9.0697   -7.5165   22.3679 H   0  0  0  0  0  0  0  0  0  0  0  0
    9.5338   -6.8732   24.7171 H   0  0  0  0  0  0  0  0  0  0  0  0
    8.9312   -5.8926   26.6371 H   0  0  0  0  0  0  0  0  0  0  0  0
    7.3015   -5.1988   26.7057 H   0  0  0  0  0  0  0  0  0  0  0  0
    8.7009   -4.1263   26.5626 H   0  0  0  0  0  0  0  0  0  0  0  0
  1  2  1  0
  2  3  2  0
  3  4  1  0
  4  5  2  0
  5  6  1  0
  6  7  2  0
  7  8  1  0
  8  9  1  0
  9 10  1  0
 10 11  1  0
 10 12  1  0
 10 13  1  0
  9 14  1  0
 14 15  2  0
 15 16  1  0
 16 17  1  0
 17 18  2  0
 18 19  1  0
 19 20  2  0
 20 21  1  0
 21 22  2  0
 22 23  1  0
 20 24  1  0
 19 25  1  0
 18 26  1  0
 16 27  2  0
 27 28  1  0
 28 29  1  0
 29 30  1  0
 29 31  1  0
 29 32  1  0
  9 33  1  0
  8 34  1  0
  8 35  1  0
  6 36  1  0
  5 37  1  0
  4 38  1  0
  3 39  1  0
  1 40  1  0
  1 41  1  0
  1 42  1  0
  7  2  1  0
 28 14  1  0
 22 17  1  0
M  END
>  <cnnaffinity>  (1) 
-5.88343

>  <filename>  (1) 
Cc1ccccc1CC(C)c1nc(-c2cccnc2)nn1C

$$$$
