
     RDKit          3D

 47 50  0  0  0  0  0  0  0  0999 V2000
    4.5757   -4.4348   22.5135 C   0  0  0  0  0  0  0  0  0  0  0  0
    5.0142   -4.3730   22.4626 C   0  0  0  0  0  0  0  0  0  0  0  0
    6.3296   -4.6484   23.6314 C   0  0  0  0  0  0  0  0  0  0  0  0
    6.9385   -5.7639   23.3013 C   0  0  0  0  0  0  0  0  0  0  0  0
    6.7242   -6.3980   21.9876 C   0  0  0  0  0  0  0  0  0  0  0  0
    6.1691   -5.7770   20.9296 C   0  0  0  0  0  0  0  0  0  0  0  0
    5.4784   -4.5430   21.0414 C   0  0  0  0  0  0  0  0  0  0  0  0
    6.0872   -3.3268   20.5211 C   0  0  0  0  0  0  0  0  0  0  0  0
    7.3199   -2.9013   21.3607 C   0  0  0  0  0  0  0  0  0  0  0  0
    7.1461   -1.7707   22.3378 C   0  0  0  0  0  0  0  0  0  0  0  0
    7.5364   -1.7546   23.6004 N   0  0  0  0  0  0  0  0  0  0  0  0
    7.3833   -0.4557   23.9766 C   0  0  0  0  0  0  0  0  0  0  0  0
    7.7158   -0.0056   25.3606 C   0  0  0  0  0  0  0  0  0  0  0  0
    9.1405   -0.3419   25.8905 C   0  0  0  0  0  0  0  0  0  0  0  0
    8.8913   -0.7548   27.3594 C   0  0  0  0  0  0  0  0  0  0  0  0
    7.5377   -0.4435   27.6345 O   0  0  0  0  0  0  0  0  0  0  0  0
    6.8163   -0.6331   26.4386 C   0  0  0  0  0  0  0  0  0  0  0  0
    6.6424   -1.7066   26.2592 H   0  0  0  0  0  0  0  0  0  0  0  0
    5.8498   -0.1310   26.5485 H   0  0  0  0  0  0  0  0  0  0  0  0
    9.5067   -0.2159   28.0853 H   0  0  0  0  0  0  0  0  0  0  0  0
    9.0764   -1.8329   27.4985 H   0  0  0  0  0  0  0  0  0  0  0  0
    9.8135    0.5181   25.8157 H   0  0  0  0  0  0  0  0  0  0  0  0
    9.5940   -1.1718   25.3390 H   0  0  0  0  0  0  0  0  0  0  0  0
    7.5653    1.0765   25.3872 H   0  0  0  0  0  0  0  0  0  0  0  0
    6.9002    0.3324   23.0441 N   0  0  0  0  0  0  0  0  0  0  0  0
    6.7707   -0.4995   21.9707 N   0  0  0  0  0  0  0  0  0  0  0  0
    6.3336    0.0288   20.7128 C   0  0  0  0  0  0  0  0  0  0  0  0
    5.0757    0.6330   20.5996 C   0  0  0  0  0  0  0  0  0  0  0  0
    4.6822    1.1194   19.3477 C   0  0  0  0  0  0  0  0  0  0  0  0
    5.5616    1.0040   18.2651 C   0  0  0  0  0  0  0  0  0  0  0  0
    6.7697    0.4337   18.3653 N   0  0  0  0  0  0  0  0  0  0  0  0
    7.1438   -0.0333   19.5629 C   0  0  0  0  0  0  0  0  0  0  0  0
    8.1357   -0.4815   19.6219 H   0  0  0  0  0  0  0  0  0  0  0  0
    5.2925    1.3842   17.2808 H   0  0  0  0  0  0  0  0  0  0  0  0
    3.7224    1.6036   19.2071 H   0  0  0  0  0  0  0  0  0  0  0  0
    4.4440    0.7239   21.4830 H   0  0  0  0  0  0  0  0  0  0  0  0
    8.1384   -2.5783   20.6992 H   0  0  0  0  0  0  0  0  0  0  0  0
    7.7117   -3.7550   21.9145 H   0  0  0  0  0  0  0  0  0  0  0  0
    6.3573   -3.5621   19.4874 H   0  0  0  0  0  0  0  0  0  0  0  0
    5.3771   -2.4877   20.4587 H   0  0  0  0  0  0  0  0  0  0  0  0
    6.3266   -6.1670   19.9208 H   0  0  0  0  0  0  0  0  0  0  0  0
    7.1453   -7.3925   21.8834 H   0  0  0  0  0  0  0  0  0  0  0  0
    7.6244   -6.2704   23.9833 H   0  0  0  0  0  0  0  0  0  0  0  0
    6.6589   -3.8296   24.2542 H   0  0  0  0  0  0  0  0  0  0  0  0
    4.4276   -5.5992   22.7410 H   0  0  0  0  0  0  0  0  0  0  0  0
    3.4794   -4.4503   22.2243 H   0  0  0  0  0  0  0  0  0  0  0  0
    4.0778   -4.0474   23.5870 H   0  0  0  0  0  0  0  0  0  0  0  0
  1  2  1  0
  2  3  2  0
  3  4  1  0
  4  5  2  0
  5  6  1  0
  6  7  2  0
  7  8  1  0
  8  9  1  0
  9 10  1  0
 10 11  2  0
 11 12  1  0
 12 13  1  0
 13 14  1  0
 14 15  1  0
 15 16  1  0
 16 17  1  0
 17 18  1  0
 17 19  1  0
 15 20  1  0
 15 21  1  0
 14 22  1  0
 14 23  1  0
 13 24  1  0
 12 25  2  0
 25 26  1  0
 26 27  1  0
 27 28  2  0
 28 29  1  0
 29 30  2  0
 30 31  1  0
 31 32  2  0
 32 33  1  0
 30 34  1  0
 29 35  1  0
 28 36  1  0
  9 37  1  0
  9 38  1  0
  8 39  1  0
  8 40  1  0
  6 41  1  0
  5 42  1  0
  4 43  1  0
  3 44  1  0
  1 45  1  0
  1 46  1  0
  1 47  1  0
  7  2  1  0
 26 10  1  0
 32 27  1  0
 17 13  1  0
M  END
>  <cnnaffinity>  (1) 
-5.85844

>  <filename>  (1) 
Cc1ccccc1CCc1nc(C2CCOC2)nn1-c1cccnc1

$$$$
