
     RDKit          3D

 43 46  0  0  0  0  0  0  0  0999 V2000
   12.0798    2.6497   24.0265 C   0  0  0  0  0  0  0  0  0  0  0  0
   11.5752    1.7264   22.9669 C   0  0  0  0  0  0  0  0  0  0  0  0
   10.3796    1.6342   22.2918 C   0  0  0  0  0  0  0  0  0  0  0  0
   10.5153    0.5146   21.4455 C   0  0  0  0  0  0  0  0  0  0  0  0
    9.5270   -0.0624   20.4921 C   0  0  0  0  0  0  0  0  0  0  0  0
    8.4587   -0.8214   21.1886 C   0  0  0  0  0  0  0  0  0  0  0  0
    8.6682   -1.6159   22.2139 N   0  0  0  0  0  0  0  0  0  0  0  0
    7.4388   -2.1079   22.4924 C   0  0  0  0  0  0  0  0  0  0  0  0
    7.2208   -3.0642   23.6320 C   0  0  0  0  0  0  0  0  0  0  0  0
    6.3030   -2.5731   24.7799 C   0  0  0  0  0  0  0  0  0  0  0  0
    5.7698   -3.8547   25.4571 C   0  0  0  0  0  0  0  0  0  0  0  0
    6.0022   -5.0195   24.4633 C   0  0  0  0  0  0  0  0  0  0  0  0
    6.5850   -4.3960   23.1865 C   0  0  0  0  0  0  0  0  0  0  0  0
    7.3194   -5.0400   22.6871 H   0  0  0  0  0  0  0  0  0  0  0  0
    5.7907   -4.1811   22.4628 H   0  0  0  0  0  0  0  0  0  0  0  0
    6.7024   -5.7473   24.8869 H   0  0  0  0  0  0  0  0  0  0  0  0
    5.0768   -5.5653   24.2526 H   0  0  0  0  0  0  0  0  0  0  0  0
    4.7108   -3.7502   25.7182 H   0  0  0  0  0  0  0  0  0  0  0  0
    6.2972   -4.0479   26.3972 H   0  0  0  0  0  0  0  0  0  0  0  0
    6.8330   -1.9192   25.4841 H   0  0  0  0  0  0  0  0  0  0  0  0
    5.4742   -1.9866   24.3773 H   0  0  0  0  0  0  0  0  0  0  0  0
    8.2177   -3.2524   24.0505 H   0  0  0  0  0  0  0  0  0  0  0  0
    6.4796   -1.6840   21.6804 N   0  0  0  0  0  0  0  0  0  0  0  0
    7.1442   -0.8695   20.8185 N   0  0  0  0  0  0  0  0  0  0  0  0
    6.4658   -0.1709   19.7800 C   0  0  0  0  0  0  0  0  0  0  0  0
    5.2954    0.5486   20.0570 C   0  0  0  0  0  0  0  0  0  0  0  0
    4.7440    1.3238   19.0307 C   0  0  0  0  0  0  0  0  0  0  0  0
    5.3512    1.3283   17.7691 C   0  0  0  0  0  0  0  0  0  0  0  0
    6.4371    0.5927   17.4791 N   0  0  0  0  0  0  0  0  0  0  0  0
    6.9696   -0.1368   18.4653 C   0  0  0  0  0  0  0  0  0  0  0  0
    7.8536   -0.7160   18.1993 H   0  0  0  0  0  0  0  0  0  0  0  0
    4.9567    1.9443   16.9624 H   0  0  0  0  0  0  0  0  0  0  0  0
    3.8657    1.9420   19.1993 H   0  0  0  0  0  0  0  0  0  0  0  0
    4.8497    0.5062   21.0511 H   0  0  0  0  0  0  0  0  0  0  0  0
    9.1183    0.7199   19.8546 H   0  0  0  0  0  0  0  0  0  0  0  0
   10.0574   -0.7617   19.8523 H   0  0  0  0  0  0  0  0  0  0  0  0
   11.6944   -0.0547   21.5882 N   0  0  0  0  0  0  0  0  0  0  0  0
   12.3210    0.6923   22.5118 N   0  0  0  0  0  0  0  0  0  0  0  0
   13.2088    0.3908   22.8792 H   0  0  0  0  0  0  0  0  0  0  0  0
    9.5074    2.2600   22.4100 H   0  0  0  0  0  0  0  0  0  0  0  0
   12.2139    2.0996   24.9639 H   0  0  0  0  0  0  0  0  0  0  0  0
   13.0417    3.0983   23.7538 H   0  0  0  0  0  0  0  0  0  0  0  0
   11.3654    3.4582   24.1927 H   0  0  0  0  0  0  0  0  0  0  0  0
  1  2  1  0
  2  3  2  0
  3  4  1  0
  4  5  1  0
  5  6  1  0
  6  7  2  0
  7  8  1  0
  8  9  1  0
  9 10  1  0
 10 11  1  0
 11 12  1  0
 12 13  1  0
 13 14  1  0
 13 15  1  0
 12 16  1  0
 12 17  1  0
 11 18  1  0
 11 19  1  0
 10 20  1  0
 10 21  1  0
  9 22  1  0
  8 23  2  0
 23 24  1  0
 24 25  1  0
 25 26  2  0
 26 27  1  0
 27 28  2  0
 28 29  1  0
 29 30  2  0
 30 31  1  0
 28 32  1  0
 27 33  1  0
 26 34  1  0
  5 35  1  0
  5 36  1  0
  4 37  2  0
 37 38  1  0
 38 39  1  0
  3 40  1  0
  1 41  1  0
  1 42  1  0
  1 43  1  0
 38  2  1  0
 24  6  1  0
 30 25  1  0
 13  9  1  0
M  END
>  <cnnaffinity>  (1) 
-6.2615

>  <filename>  (1) 
Cc1cc(Cc2nc(C3CCCC3)nn2-c2cccnc2)n[nH]1

$$$$
