
     RDKit          3D

 49 52  0  0  0  0  0  0  0  0999 V2000
    5.9370   -6.4344   21.8945 C   0  0  0  0  0  0  0  0  0  0  0  0
    5.4577   -5.2840   22.7556 C   0  0  0  0  0  0  0  0  0  0  0  0
    4.0869   -5.1078   23.0160 C   0  0  0  0  0  0  0  0  0  0  0  0
    3.5919   -4.1548   23.8177 N   0  0  0  0  0  0  0  0  0  0  0  0
    4.4460   -3.3072   24.3968 C   0  0  0  0  0  0  0  0  0  0  0  0
    5.8335   -3.3513   24.1763 C   0  0  0  0  0  0  0  0  0  0  0  0
    6.6650   -2.3659   24.8038 N   0  0  0  0  0  0  0  0  0  0  0  0
    6.4580   -1.9928   26.0941 N   0  0  0  0  0  0  0  0  0  0  0  0
    7.4108   -1.1048   26.3203 C   0  0  0  0  0  0  0  0  0  0  0  0
    7.5205   -0.4433   27.6743 C   0  0  0  0  0  0  0  0  0  0  0  0
    8.9324   -0.2856   28.2833 C   0  0  0  0  0  0  0  0  0  0  0  0
    8.6712    0.5700   29.5557 C   0  0  0  0  0  0  0  0  0  0  0  0
    7.5488    1.5511   29.1511 C   0  0  0  0  0  0  0  0  0  0  0  0
    6.9912    1.0172   27.8040 C   0  0  0  0  0  0  0  0  0  0  0  0
    7.3891    1.6118   26.9719 H   0  0  0  0  0  0  0  0  0  0  0  0
    5.9010    1.0792   27.7449 H   0  0  0  0  0  0  0  0  0  0  0  0
    6.7760    1.6007   29.9326 H   0  0  0  0  0  0  0  0  0  0  0  0
    7.9309    2.5698   29.0352 H   0  0  0  0  0  0  0  0  0  0  0  0
    9.5580    1.0564   29.9791 H   0  0  0  0  0  0  0  0  0  0  0  0
    8.3152   -0.0346   30.3990 H   0  0  0  0  0  0  0  0  0  0  0  0
    9.4721   -1.2113   28.5042 H   0  0  0  0  0  0  0  0  0  0  0  0
    9.5170    0.2303   27.5105 H   0  0  0  0  0  0  0  0  0  0  0  0
    6.8934   -1.0829   28.3014 H   0  0  0  0  0  0  0  0  0  0  0  0
    8.2011   -0.8500   25.2364 N   0  0  0  0  0  0  0  0  0  0  0  0
    7.7059   -1.6385   24.3014 C   0  0  0  0  0  0  0  0  0  0  0  0
    8.0564   -1.5974   22.8475 C   0  0  0  0  0  0  0  0  0  0  0  0
    6.9579   -0.8961   22.0393 C   0  0  0  0  0  0  0  0  0  0  0  0
    7.4189   -0.7886   20.6971 O   0  0  0  0  0  0  0  0  0  0  0  0
    6.6869   -0.0645   19.8009 C   0  0  0  0  0  0  0  0  0  0  0  0
    5.4859    0.6049   20.0644 C   0  0  0  0  0  0  0  0  0  0  0  0
    4.8688    1.3036   19.0132 C   0  0  0  0  0  0  0  0  0  0  0  0
    5.4579    1.3131   17.7474 C   0  0  0  0  0  0  0  0  0  0  0  0
    6.6102    0.6709   17.4791 N   0  0  0  0  0  0  0  0  0  0  0  0
    7.2007    0.0136   18.4829 C   0  0  0  0  0  0  0  0  0  0  0  0
    8.1344   -0.4933   18.2605 H   0  0  0  0  0  0  0  0  0  0  0  0
    4.9956    1.8483   16.9194 H   0  0  0  0  0  0  0  0  0  0  0  0
    3.9458    1.8499   19.1764 H   0  0  0  0  0  0  0  0  0  0  0  0
    5.0416    0.5858   21.0602 H   0  0  0  0  0  0  0  0  0  0  0  0
    6.0209   -1.4733   22.0654 H   0  0  0  0  0  0  0  0  0  0  0  0
    6.7607    0.1037   22.4543 H   0  0  0  0  0  0  0  0  0  0  0  0
    9.0105   -1.0800   22.7200 H   0  0  0  0  0  0  0  0  0  0  0  0
    8.1814   -2.6070   22.4491 H   0  0  0  0  0  0  0  0  0  0  0  0
    6.3449   -4.3753   23.3590 C   0  0  0  0  0  0  0  0  0  0  0  0
    7.4222   -4.4952   23.2220 H   0  0  0  0  0  0  0  0  0  0  0  0
    4.0232   -2.5619   25.0673 H   0  0  0  0  0  0  0  0  0  0  0  0
    3.3545   -5.7734   22.5578 H   0  0  0  0  0  0  0  0  0  0  0  0
    6.9036   -6.2183   21.4267 H   0  0  0  0  0  0  0  0  0  0  0  0
    6.0604   -7.3494   22.4887 H   0  0  0  0  0  0  0  0  0  0  0  0
    5.2211   -6.6627   21.0947 H   0  0  0  0  0  0  0  0  0  0  0  0
  1  2  1  0
  2  3  2  0
  3  4  1  0
  4  5  2  0
  5  6  1  0
  6  7  1  0
  7  8  1  0
  8  9  2  0
  9 10  1  0
 10 11  1  0
 11 12  1  0
 12 13  1  0
 13 14  1  0
 14 15  1  0
 14 16  1  0
 13 17  1  0
 13 18  1  0
 12 19  1  0
 12 20  1  0
 11 21  1  0
 11 22  1  0
 10 23  1  0
  9 24  1  0
 24 25  2  0
 25 26  1  0
 26 27  1  0
 27 28  1  0
 28 29  1  0
 29 30  2  0
 30 31  1  0
 31 32  2  0
 32 33  1  0
 33 34  2  0
 34 35  1  0
 32 36  1  0
 31 37  1  0
 30 38  1  0
 27 39  1  0
 27 40  1  0
 26 41  1  0
 26 42  1  0
  6 43  2  0
 43 44  1  0
  5 45  1  0
  3 46  1  0
  1 47  1  0
  1 48  1  0
  1 49  1  0
 43  2  1  0
 25  7  1  0
 34 29  1  0
 14 10  1  0
M  END
>  <cnnaffinity>  (1) 
-5.82088

>  <filename>  (1) 
Cc1cncc(-n2nc(C3CCCC3)nc2CCOc2cccnc2)c1

$$$$
