
     RDKit          3D

 45 48  0  0  0  0  0  0  0  0999 V2000
   16.0183   -0.3120   19.6566 C   0  0  0  0  0  0  0  0  0  0  0  0
   14.7124   -0.7799   20.5376 C   0  0  0  0  0  0  0  0  0  0  0  0
   13.7426   -1.7762   20.3514 C   0  0  0  0  0  0  0  0  0  0  0  0
   12.4505   -1.6190   20.8934 C   0  0  0  0  0  0  0  0  0  0  0  0
   12.0760   -0.4896   21.6449 C   0  0  0  0  0  0  0  0  0  0  0  0
   10.6351   -0.1147   21.7464 C   0  0  0  0  0  0  0  0  0  0  0  0
    9.6807   -0.8742   21.2228 N   0  0  0  0  0  0  0  0  0  0  0  0
    8.5476   -0.1896   21.4786 N   0  0  0  0  0  0  0  0  0  0  0  0
    7.2551   -0.7158   21.0455 C   0  0  0  0  0  0  0  0  0  0  0  0
    6.5720    0.0523   19.9268 C   0  0  0  0  0  0  0  0  0  0  0  0
    5.3399    0.6982   20.0949 C   0  0  0  0  0  0  0  0  0  0  0  0
    4.7597    1.3518   19.0030 C   0  0  0  0  0  0  0  0  0  0  0  0
    5.4315    1.3312   17.7774 C   0  0  0  0  0  0  0  0  0  0  0  0
    6.6040    0.7064   17.5896 N   0  0  0  0  0  0  0  0  0  0  0  0
    7.1521    0.0937   18.6468 C   0  0  0  0  0  0  0  0  0  0  0  0
    8.1023   -0.4061   18.4651 H   0  0  0  0  0  0  0  0  0  0  0  0
    5.0115    1.8365   16.9084 H   0  0  0  0  0  0  0  0  0  0  0  0
    3.8192    1.8856   19.0904 H   0  0  0  0  0  0  0  0  0  0  0  0
    4.8362    0.6932   21.0665 H   0  0  0  0  0  0  0  0  0  0  0  0
    7.4612   -1.7447   20.7345 H   0  0  0  0  0  0  0  0  0  0  0  0
    6.6093   -0.7519   21.9282 H   0  0  0  0  0  0  0  0  0  0  0  0
    8.8570    0.9379   22.1505 C   0  0  0  0  0  0  0  0  0  0  0  0
    7.8636    1.7888   22.8628 C   0  0  0  0  0  0  0  0  0  0  0  0
    7.6152    1.1532   24.2037 C   0  0  0  0  0  0  0  0  0  0  0  0
    8.5808    1.2336   25.2215 C   0  0  0  0  0  0  0  0  0  0  0  0
    8.3947    0.5248   26.4108 C   0  0  0  0  0  0  0  0  0  0  0  0
    7.2278   -0.2259   26.5182 C   0  0  0  0  0  0  0  0  0  0  0  0
    6.9944   -0.9431   27.6276 F   0  0  0  0  0  0  0  0  0  0  0  0
    6.3053   -0.2524   25.4692 C   0  0  0  0  0  0  0  0  0  0  0  0
    6.5045    0.4191   24.3203 N   0  0  0  0  0  0  0  0  0  0  0  0
    5.4025   -0.8508   25.5605 H   0  0  0  0  0  0  0  0  0  0  0  0
    9.1250    0.5175   27.2177 H   0  0  0  0  0  0  0  0  0  0  0  0
    9.4829    1.7998   25.0214 H   0  0  0  0  0  0  0  0  0  0  0  0
    8.2940    2.7859   22.9734 H   0  0  0  0  0  0  0  0  0  0  0  0
    6.9302    1.8587   22.3011 H   0  0  0  0  0  0  0  0  0  0  0  0
   10.1645    1.0318   22.3081 N   0  0  0  0  0  0  0  0  0  0  0  0
   13.1197    0.3085   22.1478 C   0  0  0  0  0  0  0  0  0  0  0  0
   14.3967    0.0937   21.6402 C   0  0  0  0  0  0  0  0  0  0  0  0
   15.3348    0.9192   22.1344 F   0  0  0  0  0  0  0  0  0  0  0  0
   12.9822    1.1224   22.8533 H   0  0  0  0  0  0  0  0  0  0  0  0
   11.6602   -2.3169   20.6895 H   0  0  0  0  0  0  0  0  0  0  0  0
   13.9589   -2.7000   19.8221 H   0  0  0  0  0  0  0  0  0  0  0  0
   16.8153   -1.0498   19.6443 H   0  0  0  0  0  0  0  0  0  0  0  0
   15.9442    0.1424   18.6631 H   0  0  0  0  0  0  0  0  0  0  0  0
   16.4144    0.5481   20.1695 H   0  0  0  0  0  0  0  0  0  0  0  0
  1  2  1  0
  2  3  2  0
  3  4  1  0
  4  5  2  0
  5  6  1  0
  6  7  2  0
  7  8  1  0
  8  9  1  0
  9 10  1  0
 10 11  2  0
 11 12  1  0
 12 13  2  0
 13 14  1  0
 14 15  2  0
 15 16  1  0
 13 17  1  0
 12 18  1  0
 11 19  1  0
  9 20  1  0
  9 21  1  0
  8 22  1  0
 22 23  1  0
 23 24  1  0
 24 25  2  0
 25 26  1  0
 26 27  2  0
 27 28  1  0
 27 29  1  0
 29 30  2  0
 29 31  1  0
 26 32  1  0
 25 33  1  0
 23 34  1  0
 23 35  1  0
 22 36  2  0
  5 37  1  0
 37 38  2  0
 38 39  1  0
 37 40  1  0
  4 41  1  0
  3 42  1  0
  1 43  1  0
  1 44  1  0
  1 45  1  0
 38  2  1  0
 36  6  1  0
 15 10  1  0
 30 24  1  0
M  END
>  <cnnaffinity>  (1) 
-6.91318

>  <filename>  (1) 
Cc1ccc(-c2nc(Cc3ccc(F)cn3)n(Cc3cccnc3)n2)cc1F

$$$$
