
     RDKit          3D

 49 52  0  0  0  0  0  0  0  0999 V2000
    9.3676   -4.5452   26.5527 C   0  0  0  0  0  0  0  0  0  0  0  0
    8.2815   -4.2394   25.5509 C   0  0  0  0  0  0  0  0  0  0  0  0
    7.0411   -4.8893   25.6289 C   0  0  0  0  0  0  0  0  0  0  0  0
    6.0232   -4.5892   24.7189 C   0  0  0  0  0  0  0  0  0  0  0  0
    6.2282   -3.6386   23.7215 C   0  0  0  0  0  0  0  0  0  0  0  0
    7.4664   -2.9705   23.6259 C   0  0  0  0  0  0  0  0  0  0  0  0
    7.6852   -1.9520   22.5708 C   0  0  0  0  0  0  0  0  0  0  0  0
    6.7542   -1.6010   21.6971 N   0  0  0  0  0  0  0  0  0  0  0  0
    7.3700   -0.6620   20.9415 N   0  0  0  0  0  0  0  0  0  0  0  0
    6.6624    0.0102   19.9033 C   0  0  0  0  0  0  0  0  0  0  0  0
    5.4418    0.6434   20.1683 C   0  0  0  0  0  0  0  0  0  0  0  0
    4.8120    1.3097   19.1106 C   0  0  0  0  0  0  0  0  0  0  0  0
    5.4023    1.2951   17.8390 C   0  0  0  0  0  0  0  0  0  0  0  0
    6.5637    0.6751   17.5780 N   0  0  0  0  0  0  0  0  0  0  0  0
    7.1725    0.0569   18.5957 C   0  0  0  0  0  0  0  0  0  0  0  0
    8.1154   -0.4353   18.3731 H   0  0  0  0  0  0  0  0  0  0  0  0
    4.9154    1.7818   16.9956 H   0  0  0  0  0  0  0  0  0  0  0  0
    3.8777    1.8415   19.2612 H   0  0  0  0  0  0  0  0  0  0  0  0
    5.0139    0.6109   21.1746 H   0  0  0  0  0  0  0  0  0  0  0  0
    8.6332   -0.4720   21.4202 C   0  0  0  0  0  0  0  0  0  0  0  0
    9.5349    0.6099   20.9272 C   0  0  0  0  0  0  0  0  0  0  0  0
    9.0357    2.0267   21.2626 C   0  0  0  0  0  0  0  0  0  0  0  0
    8.8955    2.2600   22.7679 C   0  0  0  0  0  0  0  0  0  0  0  0
    8.4037    3.6060   23.0727 N   0  0  0  0  0  0  0  0  0  0  0  0
    7.0437    3.8401   23.1149 C   0  0  0  0  0  0  0  0  0  0  0  0
    6.5402    5.0872   23.3259 C   0  0  0  0  0  0  0  0  0  0  0  0
    7.4360    6.1944   23.4786 C   0  0  0  0  0  0  0  0  0  0  0  0
    8.7777    5.9834   23.3986 C   0  0  0  0  0  0  0  0  0  0  0  0
    9.3521    4.6604   23.1671 C   0  0  0  0  0  0  0  0  0  0  0  0
   10.5585    4.4534   23.0920 O   0  0  0  0  0  0  0  0  0  0  0  0
    9.5182    6.7634   23.4984 H   0  0  0  0  0  0  0  0  0  0  0  0
    7.0313    7.1957   23.6505 H   0  0  0  0  0  0  0  0  0  0  0  0
    5.4658    5.2389   23.3707 H   0  0  0  0  0  0  0  0  0  0  0  0
    6.4024    2.9658   22.9707 H   0  0  0  0  0  0  0  0  0  0  0  0
    8.2162    1.5204   23.2107 H   0  0  0  0  0  0  0  0  0  0  0  0
    9.8592    2.1322   23.2640 H   0  0  0  0  0  0  0  0  0  0  0  0
    8.0689    2.2037   20.7770 H   0  0  0  0  0  0  0  0  0  0  0  0
    9.7419    2.7582   20.8646 H   0  0  0  0  0  0  0  0  0  0  0  0
   10.5182    0.4354   21.3746 H   0  0  0  0  0  0  0  0  0  0  0  0
    9.6458    0.5115   19.8445 H   0  0  0  0  0  0  0  0  0  0  0  0
    8.8616   -1.2805   22.4289 N   0  0  0  0  0  0  0  0  0  0  0  0
    8.4826   -3.2816   24.5503 C   0  0  0  0  0  0  0  0  0  0  0  0
    9.4428   -2.7668   24.4979 H   0  0  0  0  0  0  0  0  0  0  0  0
    5.4355   -3.4006   23.0154 H   0  0  0  0  0  0  0  0  0  0  0  0
    5.0656   -5.0962   24.7929 H   0  0  0  0  0  0  0  0  0  0  0  0
    6.8750   -5.6271   26.4120 H   0  0  0  0  0  0  0  0  0  0  0  0
    9.2954   -3.8740   27.4143 H   0  0  0  0  0  0  0  0  0  0  0  0
   10.3654   -4.4208   26.1216 H   0  0  0  0  0  0  0  0  0  0  0  0
    9.2936   -5.5688   26.9312 H   0  0  0  0  0  0  0  0  0  0  0  0
  1  2  1  0
  2  3  2  0
  3  4  1  0
  4  5  2  0
  5  6  1  0
  6  7  1  0
  7  8  2  0
  8  9  1  0
  9 10  1  0
 10 11  2  0
 11 12  1  0
 12 13  2  0
 13 14  1  0
 14 15  2  0
 15 16  1  0
 13 17  1  0
 12 18  1  0
 11 19  1  0
  9 20  1  0
 20 21  1  0
 21 22  1  0
 22 23  1  0
 23 24  1  0
 24 25  1  0
 25 26  2  0
 26 27  1  0
 27 28  2  0
 28 29  1  0
 29 30  2  0
 28 31  1  0
 27 32  1  0
 26 33  1  0
 25 34  1  0
 23 35  1  0
 23 36  1  0
 22 37  1  0
 22 38  1  0
 21 39  1  0
 21 40  1  0
 20 41  2  0
  6 42  2  0
 42 43  1  0
  5 44  1  0
  4 45  1  0
  3 46  1  0
  1 47  1  0
  1 48  1  0
  1 49  1  0
 42  2  1  0
 41  7  1  0
 15 10  1  0
 29 24  1  0
M  END
>  <cnnaffinity>  (1) 
-6.19048

>  <filename>  (1) 
Cc1cccc(-c2nc(CCCn3ccccc3=O)n(-c3cccnc3)n2)c1

$$$$
