
     RDKit          3D

 43 46  0  0  0  0  0  0  0  0999 V2000
    5.3015   -4.0054   22.4305 C   0  0  0  0  0  0  0  0  0  0  0  0
    6.3151   -3.9797   23.5503 C   0  0  0  0  0  0  0  0  0  0  0  0
    6.1622   -4.8809   24.6139 C   0  0  0  0  0  0  0  0  0  0  0  0
    7.0661   -4.9367   25.6761 C   0  0  0  0  0  0  0  0  0  0  0  0
    8.1603   -4.0700   25.6882 C   0  0  0  0  0  0  0  0  0  0  0  0
    8.3359   -3.1542   24.6515 C   0  0  0  0  0  0  0  0  0  0  0  0
    7.4181   -3.0831   23.5802 C   0  0  0  0  0  0  0  0  0  0  0  0
    7.6212   -2.0622   22.5168 C   0  0  0  0  0  0  0  0  0  0  0  0
    6.6920   -1.6168   21.6783 N   0  0  0  0  0  0  0  0  0  0  0  0
    7.3418   -0.6947   20.9288 N   0  0  0  0  0  0  0  0  0  0  0  0
    6.6518    0.0040   19.8986 C   0  0  0  0  0  0  0  0  0  0  0  0
    5.4332    0.6330   20.1671 C   0  0  0  0  0  0  0  0  0  0  0  0
    4.8103    1.3039   19.1081 C   0  0  0  0  0  0  0  0  0  0  0  0
    5.3976    1.2957   17.8365 C   0  0  0  0  0  0  0  0  0  0  0  0
    6.5532    0.6689   17.5719 N   0  0  0  0  0  0  0  0  0  0  0  0
    7.1627    0.0505   18.5887 C   0  0  0  0  0  0  0  0  0  0  0  0
    8.1090   -0.4332   18.3606 H   0  0  0  0  0  0  0  0  0  0  0  0
    4.9240    1.7906   16.9928 H   0  0  0  0  0  0  0  0  0  0  0  0
    3.8831    1.8392   19.2603 H   0  0  0  0  0  0  0  0  0  0  0  0
    5.0135    0.6003   21.1758 H   0  0  0  0  0  0  0  0  0  0  0  0
    8.6252   -0.5980   21.3771 C   0  0  0  0  0  0  0  0  0  0  0  0
    9.6263    0.4052   20.8984 C   0  0  0  0  0  0  0  0  0  0  0  0
    9.8866    1.4642   21.9296 C   0  0  0  0  0  0  0  0  0  0  0  0
    9.1192    2.5573   22.2676 C   0  0  0  0  0  0  0  0  0  0  0  0
    7.6265    3.0193   21.5610 Cl  0  0  0  0  0  0  0  0  0  0  0  0
    9.7131    3.1113   23.4119 C   0  0  0  0  0  0  0  0  0  0  0  0
   10.7599    2.3867   23.7913 N   0  0  0  0  0  0  0  0  0  0  0  0
   10.8330    1.3934   22.8922 N   0  0  0  0  0  0  0  0  0  0  0  0
   11.8399    0.3664   23.0055 C   0  0  0  0  0  0  0  0  0  0  0  0
   12.5002    0.3927   22.1381 H   0  0  0  0  0  0  0  0  0  0  0  0
   12.4121    0.5809   23.9000 H   0  0  0  0  0  0  0  0  0  0  0  0
   11.3664   -0.6169   23.0673 H   0  0  0  0  0  0  0  0  0  0  0  0
    9.3940    4.0056   23.9286 H   0  0  0  0  0  0  0  0  0  0  0  0
    9.2467    0.9057   20.0088 H   0  0  0  0  0  0  0  0  0  0  0  0
   10.5396   -0.1416   20.6395 H   0  0  0  0  0  0  0  0  0  0  0  0
    8.8310   -1.4589   22.3465 N   0  0  0  0  0  0  0  0  0  0  0  0
    9.1889   -2.4783   24.6644 H   0  0  0  0  0  0  0  0  0  0  0  0
    8.8765   -4.1105   26.5053 H   0  0  0  0  0  0  0  0  0  0  0  0
    6.9159   -5.6542   26.4816 H   0  0  0  0  0  0  0  0  0  0  0  0
    5.3045   -5.5497   24.5943 H   0  0  0  0  0  0  0  0  0  0  0  0
    4.7065   -3.0898   22.4151 H   0  0  0  0  0  0  0  0  0  0  0  0
    4.6260   -4.8619   22.5246 H   0  0  0  0  0  0  0  0  0  0  0  0
    5.7829   -4.0380   21.4499 H   0  0  0  0  0  0  0  0  0  0  0  0
  1  2  1  0
  2  3  2  0
  3  4  1  0
  4  5  2  0
  5  6  1  0
  6  7  2  0
  7  8  1  0
  8  9  2  0
  9 10  1  0
 10 11  1  0
 11 12  2  0
 12 13  1  0
 13 14  2  0
 14 15  1  0
 15 16  2  0
 16 17  1  0
 14 18  1  0
 13 19  1  0
 12 20  1  0
 10 21  1  0
 21 22  1  0
 22 23  1  0
 23 24  2  0
 24 25  1  0
 24 26  1  0
 26 27  2  0
 27 28  1  0
 28 29  1  0
 29 30  1  0
 29 31  1  0
 29 32  1  0
 26 33  1  0
 22 34  1  0
 22 35  1  0
 21 36  2  0
  6 37  1  0
  5 38  1  0
  4 39  1  0
  3 40  1  0
  1 41  1  0
  1 42  1  0
  1 43  1  0
  7  2  1  0
 36  8  1  0
 16 11  1  0
 28 23  1  0
M  END
>  <cnnaffinity>  (1) 
-6.61545

>  <filename>  (1) 
Cc1ccccc1-c1nc(Cc2c(Cl)cnn2C)n(-c2cccnc2)n1

$$$$
