
     RDKit          3D

 44 47  0  0  0  0  0  0  0  0999 V2000
    9.1165    1.9715   21.0414 C   0  0  0  0  0  0  0  0  0  0  0  0
    9.2444    1.9716   22.5385 C   0  0  0  0  0  0  0  0  0  0  0  0
   10.4782    2.3431   23.0878 C   0  0  0  0  0  0  0  0  0  0  0  0
   10.6893    2.2044   24.4532 C   0  0  0  0  0  0  0  0  0  0  0  0
   11.9216    2.4225   24.9295 F   0  0  0  0  0  0  0  0  0  0  0  0
    9.6784    1.8144   25.3229 C   0  0  0  0  0  0  0  0  0  0  0  0
    8.4157    1.5414   24.7778 C   0  0  0  0  0  0  0  0  0  0  0  0
    8.1900    1.5889   23.3969 C   0  0  0  0  0  0  0  0  0  0  0  0
    6.8697    1.0984   22.8050 C   0  0  0  0  0  0  0  0  0  0  0  0
    7.0388   -0.2769   22.2245 C   0  0  0  0  0  0  0  0  0  0  0  0
    7.5169   -1.2742   22.9424 N   0  0  0  0  0  0  0  0  0  0  0  0
    7.8222   -2.2170   22.0179 C   0  0  0  0  0  0  0  0  0  0  0  0
    8.4327   -3.5408   22.4049 C   0  0  0  0  0  0  0  0  0  0  0  0
    7.5257   -4.4047   23.3165 C   0  0  0  0  0  0  0  0  0  0  0  0
    8.5600   -5.2106   24.1054 C   0  0  0  0  0  0  0  0  0  0  0  0
    9.6480   -4.1612   24.3198 C   0  0  0  0  0  0  0  0  0  0  0  0
    9.6604   -3.3906   23.1230 O   0  0  0  0  0  0  0  0  0  0  0  0
    9.4217   -3.5128   25.1826 H   0  0  0  0  0  0  0  0  0  0  0  0
   10.6535   -4.5711   24.4479 H   0  0  0  0  0  0  0  0  0  0  0  0
    8.1906   -5.6403   25.0413 H   0  0  0  0  0  0  0  0  0  0  0  0
    8.9459   -6.0371   23.4996 H   0  0  0  0  0  0  0  0  0  0  0  0
    6.9684   -3.7458   23.9964 H   0  0  0  0  0  0  0  0  0  0  0  0
    6.8020   -5.0060   22.7536 H   0  0  0  0  0  0  0  0  0  0  0  0
    8.6482   -4.0477   21.4576 H   0  0  0  0  0  0  0  0  0  0  0  0
    7.5003   -1.9013   20.7784 N   0  0  0  0  0  0  0  0  0  0  0  0
    6.9635   -0.6580   20.9089 N   0  0  0  0  0  0  0  0  0  0  0  0
    6.3895   -0.0193   19.7778 C   0  0  0  0  0  0  0  0  0  0  0  0
    5.2070    0.7229   19.8798 C   0  0  0  0  0  0  0  0  0  0  0  0
    4.7572    1.3991   18.7416 C   0  0  0  0  0  0  0  0  0  0  0  0
    5.4777    1.2839   17.5498 C   0  0  0  0  0  0  0  0  0  0  0  0
    6.5813    0.5228   17.4298 N   0  0  0  0  0  0  0  0  0  0  0  0
    7.0198   -0.1169   18.5208 C   0  0  0  0  0  0  0  0  0  0  0  0
    7.9303   -0.7049   18.4048 H   0  0  0  0  0  0  0  0  0  0  0  0
    5.1505    1.8172   16.6587 H   0  0  0  0  0  0  0  0  0  0  0  0
    3.8796    2.0365   18.7861 H   0  0  0  0  0  0  0  0  0  0  0  0
    4.6628    0.7765   20.8243 H   0  0  0  0  0  0  0  0  0  0  0  0
    6.1136    1.0171   23.5908 H   0  0  0  0  0  0  0  0  0  0  0  0
    6.5123    1.7952   22.0408 H   0  0  0  0  0  0  0  0  0  0  0  0
    7.5878    1.2966   25.4412 H   0  0  0  0  0  0  0  0  0  0  0  0
    9.8852    1.7435   26.3841 H   0  0  0  0  0  0  0  0  0  0  0  0
   11.2522    2.7752   22.4598 H   0  0  0  0  0  0  0  0  0  0  0  0
    8.3537    2.6810   20.7121 H   0  0  0  0  0  0  0  0  0  0  0  0
   10.0836    2.2611   20.6239 H   0  0  0  0  0  0  0  0  0  0  0  0
    8.8460    0.9792   20.6562 H   0  0  0  0  0  0  0  0  0  0  0  0
  1  2  1  0
  2  3  2  0
  3  4  1  0
  4  5  1  0
  4  6  2  0
  6  7  1  0
  7  8  2  0
  8  9  1  0
  9 10  1  0
 10 11  2  0
 11 12  1  0
 12 13  1  0
 13 14  1  0
 14 15  1  0
 15 16  1  0
 16 17  1  0
 16 18  1  0
 16 19  1  0
 15 20  1  0
 15 21  1  0
 14 22  1  0
 14 23  1  0
 13 24  1  0
 12 25  2  0
 25 26  1  0
 26 27  1  0
 27 28  2  0
 28 29  1  0
 29 30  2  0
 30 31  1  0
 31 32  2  0
 32 33  1  0
 30 34  1  0
 29 35  1  0
 28 36  1  0
  9 37  1  0
  9 38  1  0
  7 39  1  0
  6 40  1  0
  3 41  1  0
  1 42  1  0
  1 43  1  0
  1 44  1  0
  8  2  1  0
 26 10  1  0
 32 27  1  0
 17 13  1  0
M  END
>  <cnnaffinity>  (1) 
-6.20472

>  <filename>  (1) 
Cc1cc(F)ccc1Cc1nc(C2CCCO2)nn1-c1cccnc1

$$$$
