
     RDKit          3D

 43 46  0  0  0  0  0  0  0  0999 V2000
   13.6678    2.1374   23.2225 C   0  0  0  0  0  0  0  0  0  0  0  0
   12.9361    0.9211   22.7259 C   0  0  0  0  0  0  0  0  0  0  0  0
   13.6302   -0.2484   22.3818 C   0  0  0  0  0  0  0  0  0  0  0  0
   12.9567   -1.3458   21.8384 C   0  0  0  0  0  0  0  0  0  0  0  0
   11.5747   -1.2925   21.6494 C   0  0  0  0  0  0  0  0  0  0  0  0
   10.8523   -0.1665   22.0863 C   0  0  0  0  0  0  0  0  0  0  0  0
    9.3794   -0.0914   22.0243 C   0  0  0  0  0  0  0  0  0  0  0  0
    8.5823   -1.0080   21.5026 N   0  0  0  0  0  0  0  0  0  0  0  0
    7.3384   -0.4816   21.6654 N   0  0  0  0  0  0  0  0  0  0  0  0
    6.2385   -1.0437   20.8729 C   0  0  0  0  0  0  0  0  0  0  0  0
    5.8443   -0.1714   19.6955 C   0  0  0  0  0  0  0  0  0  0  0  0
    4.6857    0.6132   19.6657 C   0  0  0  0  0  0  0  0  0  0  0  0
    4.4923    1.4865   18.5886 C   0  0  0  0  0  0  0  0  0  0  0  0
    5.4433    1.5155   17.5679 C   0  0  0  0  0  0  0  0  0  0  0  0
    6.5394    0.7421   17.5565 N   0  0  0  0  0  0  0  0  0  0  0  0
    6.7225   -0.0709   18.6039 C   0  0  0  0  0  0  0  0  0  0  0  0
    7.6197   -0.6901   18.5724 H   0  0  0  0  0  0  0  0  0  0  0  0
    5.3189    2.1842   16.7164 H   0  0  0  0  0  0  0  0  0  0  0  0
    3.6357    2.1496   18.5408 H   0  0  0  0  0  0  0  0  0  0  0  0
    3.9454    0.5423   20.4639 H   0  0  0  0  0  0  0  0  0  0  0  0
    5.3869   -1.2437   21.5247 H   0  0  0  0  0  0  0  0  0  0  0  0
    6.6145   -2.0085   20.5191 H   0  0  0  0  0  0  0  0  0  0  0  0
    7.4542    0.7270   22.2764 C   0  0  0  0  0  0  0  0  0  0  0  0
    6.3766    1.6102   22.8389 C   0  0  0  0  0  0  0  0  0  0  0  0
    6.1530    1.3069   24.2530 N   0  0  0  0  0  0  0  0  0  0  0  0
    5.2169    0.4978   24.8089 C   0  0  0  0  0  0  0  0  0  0  0  0
    5.6842    0.1680   26.0587 C   0  0  0  0  0  0  0  0  0  0  0  0
    4.9416   -0.8613   27.2224 Cl  0  0  0  0  0  0  0  0  0  0  0  0
    6.9083    0.8585   26.1865 C   0  0  0  0  0  0  0  0  0  0  0  0
    7.1667    1.5507   25.0920 N   0  0  0  0  0  0  0  0  0  0  0  0
    7.6022    0.8564   27.0183 H   0  0  0  0  0  0  0  0  0  0  0  0
    4.2795    0.3122   24.3092 H   0  0  0  0  0  0  0  0  0  0  0  0
    5.4385    1.5340   22.2889 H   0  0  0  0  0  0  0  0  0  0  0  0
    6.7559    2.6332   22.7982 H   0  0  0  0  0  0  0  0  0  0  0  0
    8.7176    0.9990   22.4878 N   0  0  0  0  0  0  0  0  0  0  0  0
   11.5498    0.9332   22.6105 C   0  0  0  0  0  0  0  0  0  0  0  0
   10.9957    1.8124   22.9378 H   0  0  0  0  0  0  0  0  0  0  0  0
   11.0462   -2.1107   21.1704 H   0  0  0  0  0  0  0  0  0  0  0  0
   13.5015   -2.2467   21.5651 H   0  0  0  0  0  0  0  0  0  0  0  0
   14.7050   -0.2829   22.5377 H   0  0  0  0  0  0  0  0  0  0  0  0
   13.1290    3.0707   23.0362 H   0  0  0  0  0  0  0  0  0  0  0  0
   13.8320    2.0678   24.2974 H   0  0  0  0  0  0  0  0  0  0  0  0
   14.6368    2.2193   22.7291 H   0  0  0  0  0  0  0  0  0  0  0  0
  1  2  1  0
  2  3  2  0
  3  4  1  0
  4  5  2  0
  5  6  1  0
  6  7  1  0
  7  8  2  0
  8  9  1  0
  9 10  1  0
 10 11  1  0
 11 12  2  0
 12 13  1  0
 13 14  2  0
 14 15  1  0
 15 16  2  0
 16 17  1  0
 14 18  1  0
 13 19  1  0
 12 20  1  0
 10 21  1  0
 10 22  1  0
  9 23  1  0
 23 24  1  0
 24 25  1  0
 25 26  1  0
 26 27  2  0
 27 28  1  0
 27 29  1  0
 29 30  2  0
 29 31  1  0
 26 32  1  0
 24 33  1  0
 24 34  1  0
 23 35  2  0
  6 36  2  0
 36 37  1  0
  5 38  1  0
  4 39  1  0
  3 40  1  0
  1 41  1  0
  1 42  1  0
  1 43  1  0
 36  2  1  0
 35  7  1  0
 16 11  1  0
 30 25  1  0
M  END
>  <cnnaffinity>  (1) 
-6.52596

>  <filename>  (1) 
Cc1cccc(-c2nc(Cn3cc(Cl)cn3)n(Cc3cccnc3)n2)c1

$$$$
