
     RDKit          3D

 42 45  0  0  0  0  0  0  0  0999 V2000
   11.9924    0.5406   23.4015 C   0  0  0  0  0  0  0  0  0  0  0  0
   12.0197   -0.1344   22.0543 C   0  0  0  0  0  0  0  0  0  0  0  0
   12.5272   -1.4754   21.7998 C   0  0  0  0  0  0  0  0  0  0  0  0
   11.9995   -2.0840   20.9144 O   0  0  0  0  0  0  0  0  0  0  0  0
   10.7939   -0.2353   21.2027 N   0  0  0  0  0  0  0  0  0  0  0  0
   10.7934   -0.2360   21.2027 C   0  0  0  0  0  0  0  0  0  0  0  0
    9.9700    1.0587   21.0570 C   0  0  0  0  0  0  0  0  0  0  0  0
    8.8947    1.0852   22.0393 C   0  0  0  0  0  0  0  0  0  0  0  0
    8.8619    1.8484   23.1150 N   0  0  0  0  0  0  0  0  0  0  0  0
    7.7742    1.3834   23.7788 C   0  0  0  0  0  0  0  0  0  0  0  0
    7.3721    1.9083   25.0926 C   0  0  0  0  0  0  0  0  0  0  0  0
    8.1424    2.9017   25.7313 C   0  0  0  0  0  0  0  0  0  0  0  0
    7.6894    3.4514   26.9287 C   0  0  0  0  0  0  0  0  0  0  0  0
    8.3244    4.5342   27.4124 F   0  0  0  0  0  0  0  0  0  0  0  0
    6.5726    2.9683   27.5968 C   0  0  0  0  0  0  0  0  0  0  0  0
    5.8058    1.9749   26.9788 C   0  0  0  0  0  0  0  0  0  0  0  0
    6.1898    1.4584   25.7232 C   0  0  0  0  0  0  0  0  0  0  0  0
    5.5704    0.7171   25.2325 H   0  0  0  0  0  0  0  0  0  0  0  0
    4.8881    1.6247   27.4488 H   0  0  0  0  0  0  0  0  0  0  0  0
    6.3185    3.3940   28.5696 H   0  0  0  0  0  0  0  0  0  0  0  0
    9.0725    3.2906   25.3185 H   0  0  0  0  0  0  0  0  0  0  0  0
    7.1357    0.3946   23.1509 N   0  0  0  0  0  0  0  0  0  0  0  0
    7.8753    0.1845   22.0338 N   0  0  0  0  0  0  0  0  0  0  0  0
    7.3554   -0.7151   20.9925 C   0  0  0  0  0  0  0  0  0  0  0  0
    6.6199   -0.0049   19.8727 C   0  0  0  0  0  0  0  0  0  0  0  0
    5.4235    0.6507   20.1295 C   0  0  0  0  0  0  0  0  0  0  0  0
    4.7901    1.3143   19.0794 C   0  0  0  0  0  0  0  0  0  0  0  0
    5.3881    1.3016   17.8108 C   0  0  0  0  0  0  0  0  0  0  0  0
    6.5400    0.6778   17.5442 N   0  0  0  0  0  0  0  0  0  0  0  0
    7.1411    0.0481   18.5615 C   0  0  0  0  0  0  0  0  0  0  0  0
    8.0923   -0.4224   18.3225 H   0  0  0  0  0  0  0  0  0  0  0  0
    4.9202    1.8157   16.9735 H   0  0  0  0  0  0  0  0  0  0  0  0
    3.8675    1.8491   19.2333 H   0  0  0  0  0  0  0  0  0  0  0  0
    5.0282    0.6440   21.1546 H   0  0  0  0  0  0  0  0  0  0  0  0
    8.1424   -1.3350   20.5872 H   0  0  0  0  0  0  0  0  0  0  0  0
    6.7006   -1.3816   21.5705 H   0  0  0  0  0  0  0  0  0  0  0  0
   10.4812    1.9819   21.0228 H   0  0  0  0  0  0  0  0  0  0  0  0
    9.3780    1.0374   20.1274 H   0  0  0  0  0  0  0  0  0  0  0  0
   13.2331   -1.9269   22.4810 H   0  0  0  0  0  0  0  0  0  0  0  0
   11.9449    1.6113   23.2504 H   0  0  0  0  0  0  0  0  0  0  0  0
   12.9531    0.3377   23.8590 H   0  0  0  0  0  0  0  0  0  0  0  0
   11.1828    0.2514   24.0451 H   0  0  0  0  0  0  0  0  0  0  0  0
  1  2  1  0
  2  3  2  0
  3  4  1  0
  4  5  1  0
  5  6  2  0
  6  7  1  0
  7  8  1  0
  8  9  2  0
  9 10  1  0
 10 11  1  0
 11 12  2  0
 12 13  1  0
 13 14  1  0
 13 15  2  0
 15 16  1  0
 16 17  2  0
 17 18  1  0
 16 19  1  0
 15 20  1  0
 12 21  1  0
 10 22  2  0
 22 23  1  0
 23 24  1  0
 24 25  1  0
 25 26  2  0
 26 27  1  0
 27 28  2  0
 28 29  1  0
 29 30  2  0
 30 31  1  0
 28 32  1  0
 27 33  1  0
 26 34  1  0
 24 35  1  0
 24 36  1  0
  7 37  1  0
  7 38  1  0
  3 39  1  0
  1 40  1  0
  1 41  1  0
  1 42  1  0
  6  2  1  0
 23  8  1  0
 30 25  1  0
 17 11  1  0
M  END
>  <cnnaffinity>  (1) 
-6.27639

>  <filename>  (1) 
Cc1conc1Cc1nc(-c2cccc(F)c2)nn1Cc1cccnc1

$$$$
