
     RDKit          3D

 40 43  0  0  0  0  0  0  0  0999 V2000
    7.8548    2.7058   22.0522 C   0  0  0  0  0  0  0  0  0  0  0  0
    9.2343    2.3435   22.4973 C   0  0  0  0  0  0  0  0  0  0  0  0
    9.9706    2.8289   23.5547 C   0  0  0  0  0  0  0  0  0  0  0  0
    9.4915    4.0946   24.6186 Cl  0  0  0  0  0  0  0  0  0  0  0  0
   11.1616    2.0801   23.5790 C   0  0  0  0  0  0  0  0  0  0  0  0
   11.1664    1.1888   22.6012 N   0  0  0  0  0  0  0  0  0  0  0  0
   10.0096    1.3701   21.9448 N   0  0  0  0  0  0  0  0  0  0  0  0
    9.6150    0.4411   20.9025 C   0  0  0  0  0  0  0  0  0  0  0  0
    8.6286   -0.5520   21.3947 C   0  0  0  0  0  0  0  0  0  0  0  0
    8.8624   -1.4134   22.3512 N   0  0  0  0  0  0  0  0  0  0  0  0
    7.6588   -2.0234   22.5209 C   0  0  0  0  0  0  0  0  0  0  0  0
    7.4275   -3.0489   23.5724 C   0  0  0  0  0  0  0  0  0  0  0  0
    8.4692   -3.4298   24.4445 C   0  0  0  0  0  0  0  0  0  0  0  0
    8.2077   -4.3930   25.4148 C   0  0  0  0  0  0  0  0  0  0  0  0
    9.1926   -4.7586   26.2434 F   0  0  0  0  0  0  0  0  0  0  0  0
    6.9670   -5.0029   25.5718 C   0  0  0  0  0  0  0  0  0  0  0  0
    5.9645   -4.5986   24.6971 C   0  0  0  0  0  0  0  0  0  0  0  0
    4.7575   -5.1630   24.8187 F   0  0  0  0  0  0  0  0  0  0  0  0
    6.1552   -3.6423   23.7065 C   0  0  0  0  0  0  0  0  0  0  0  0
    5.3261   -3.3652   23.0618 H   0  0  0  0  0  0  0  0  0  0  0  0
    6.7904   -5.7523   26.3371 H   0  0  0  0  0  0  0  0  0  0  0  0
    9.4639   -2.9954   24.3855 H   0  0  0  0  0  0  0  0  0  0  0  0
    6.7129   -1.6057   21.6954 N   0  0  0  0  0  0  0  0  0  0  0  0
    7.3487   -0.6866   20.9319 N   0  0  0  0  0  0  0  0  0  0  0  0
    6.6532   -0.0001   19.8998 C   0  0  0  0  0  0  0  0  0  0  0  0
    5.4383    0.6419   20.1660 C   0  0  0  0  0  0  0  0  0  0  0  0
    4.8125    1.3110   19.1094 C   0  0  0  0  0  0  0  0  0  0  0  0
    5.3986    1.2961   17.8381 C   0  0  0  0  0  0  0  0  0  0  0  0
    6.5560    0.6704   17.5756 N   0  0  0  0  0  0  0  0  0  0  0  0
    7.1658    0.0477   18.5909 C   0  0  0  0  0  0  0  0  0  0  0  0
    8.1131   -0.4366   18.3648 H   0  0  0  0  0  0  0  0  0  0  0  0
    4.9205    1.7872   16.9940 H   0  0  0  0  0  0  0  0  0  0  0  0
    3.8808    1.8395   19.2598 H   0  0  0  0  0  0  0  0  0  0  0  0
    5.0122    0.6065   21.1730 H   0  0  0  0  0  0  0  0  0  0  0  0
    9.2168    1.0074   20.0647 H   0  0  0  0  0  0  0  0  0  0  0  0
   10.5056   -0.0992   20.6002 H   0  0  0  0  0  0  0  0  0  0  0  0
   11.9818    2.1684   24.2790 H   0  0  0  0  0  0  0  0  0  0  0  0
    7.1112    1.9905   22.4282 H   0  0  0  0  0  0  0  0  0  0  0  0
    7.5961    3.6924   22.4430 H   0  0  0  0  0  0  0  0  0  0  0  0
    7.7616    2.7156   20.9634 H   0  0  0  0  0  0  0  0  0  0  0  0
  1  2  1  0
  2  3  2  0
  3  4  1  0
  3  5  1  0
  5  6  2  0
  6  7  1  0
  7  8  1  0
  8  9  1  0
  9 10  2  0
 10 11  1  0
 11 12  1  0
 12 13  2  0
 13 14  1  0
 14 15  1  0
 14 16  2  0
 16 17  1  0
 17 18  1  0
 17 19  2  0
 19 20  1  0
 16 21  1  0
 13 22  1  0
 11 23  2  0
 23 24  1  0
 24 25  1  0
 25 26  2  0
 26 27  1  0
 27 28  2  0
 28 29  1  0
 29 30  2  0
 30 31  1  0
 28 32  1  0
 27 33  1  0
 26 34  1  0
  8 35  1  0
  8 36  1  0
  5 37  1  0
  1 38  1  0
  1 39  1  0
  1 40  1  0
  7  2  1  0
 24  9  1  0
 30 25  1  0
 19 12  1  0
M  END
>  <cnnaffinity>  (1) 
-6.2701

>  <filename>  (1) 
Cc1c(Cl)cnn1Cc1nc(-c2cc(F)cc(F)c2)nn1-c1cccnc1

$$$$
