
     RDKit          3D

 35 37  0  0  0  0  0  0  0  0999 V2000
    8.5187   -5.0700   23.6699 C   0  0  0  0  0  0  0  0  0  0  0  0
    7.0577   -4.7168   23.8147 C   0  0  0  0  0  0  0  0  0  0  0  0
    6.2744   -5.5014   24.6769 C   0  0  0  0  0  0  0  0  0  0  0  0
    4.8914   -5.3424   24.7762 C   0  0  0  0  0  0  0  0  0  0  0  0
    4.2830   -4.3905   23.9643 C   0  0  0  0  0  0  0  0  0  0  0  0
    2.9546   -4.2176   24.0423 F   0  0  0  0  0  0  0  0  0  0  0  0
    5.0131   -3.5757   23.1140 C   0  0  0  0  0  0  0  0  0  0  0  0
    6.4207   -3.6416   23.1305 C   0  0  0  0  0  0  0  0  0  0  0  0
    7.1942   -2.5169   22.5096 C   0  0  0  0  0  0  0  0  0  0  0  0
    8.4342   -2.2727   22.9498 N   0  0  0  0  0  0  0  0  0  0  0  0
    9.0853   -1.2489   22.4085 C   0  0  0  0  0  0  0  0  0  0  0  0
    8.5724   -0.4534   21.3901 C   0  0  0  0  0  0  0  0  0  0  0  0
    9.3536    0.6808   20.7728 C   0  0  0  0  0  0  0  0  0  0  0  0
   10.2742    0.8956   21.3244 H   0  0  0  0  0  0  0  0  0  0  0  0
    9.6128    0.4431   19.7387 H   0  0  0  0  0  0  0  0  0  0  0  0
    8.7403    1.5859   20.7270 H   0  0  0  0  0  0  0  0  0  0  0  0
    7.2587   -0.7976   21.0132 C   0  0  0  0  0  0  0  0  0  0  0  0
    6.5443   -0.0698   19.9613 C   0  0  0  0  0  0  0  0  0  0  0  0
    5.3322    0.5936   20.1771 C   0  0  0  0  0  0  0  0  0  0  0  0
    4.7883    1.2974   19.1044 C   0  0  0  0  0  0  0  0  0  0  0  0
    5.4450    1.2734   17.8664 C   0  0  0  0  0  0  0  0  0  0  0  0
    6.5808    0.5962   17.6434 N   0  0  0  0  0  0  0  0  0  0  0  0
    7.1035   -0.0592   18.6827 C   0  0  0  0  0  0  0  0  0  0  0  0
    8.0308   -0.6003   18.4948 H   0  0  0  0  0  0  0  0  0  0  0  0
    5.0435    1.8161   17.0139 H   0  0  0  0  0  0  0  0  0  0  0  0
    3.8715    1.8654   19.2097 H   0  0  0  0  0  0  0  0  0  0  0  0
    4.8407    0.5529   21.1537 H   0  0  0  0  0  0  0  0  0  0  0  0
    6.5759   -1.7932   21.5708 N   0  0  0  0  0  0  0  0  0  0  0  0
   10.0826   -1.0527   22.8055 H   0  0  0  0  0  0  0  0  0  0  0  0
    4.4945   -2.8844   22.4509 H   0  0  0  0  0  0  0  0  0  0  0  0
    4.2911   -5.9444   25.4499 H   0  0  0  0  0  0  0  0  0  0  0  0
    6.7770   -6.2352   25.3035 H   0  0  0  0  0  0  0  0  0  0  0  0
    8.6931   -6.1156   23.9329 H   0  0  0  0  0  0  0  0  0  0  0  0
    9.1494   -4.4499   24.3109 H   0  0  0  0  0  0  0  0  0  0  0  0
    8.8839   -4.9019   22.6544 H   0  0  0  0  0  0  0  0  0  0  0  0
  1  2  1  0
  2  3  2  0
  3  4  1  0
  4  5  2  0
  5  6  1  0
  5  7  1  0
  7  8  2  0
  8  9  1  0
  9 10  2  0
 10 11  1  0
 11 12  2  0
 12 13  1  0
 13 14  1  0
 13 15  1  0
 13 16  1  0
 12 17  1  0
 17 18  1  0
 18 19  2  0
 19 20  1  0
 20 21  2  0
 21 22  1  0
 22 23  2  0
 23 24  1  0
 21 25  1  0
 20 26  1  0
 19 27  1  0
 17 28  2  0
 11 29  1  0
  7 30  1  0
  4 31  1  0
  3 32  1  0
  1 33  1  0
  1 34  1  0
  1 35  1  0
  8  2  1  0
 28  9  1  0
 23 18  1  0
M  END
>  <cnnaffinity>  (1) 
-5.48896

>  <filename>  (1) 
Cc1ccc(F)cc1-c1ncc(C)c(-c2cccnc2)n1

$$$$
