
     RDKit          3D

 33 36  0  0  0  0  0  0  0  0999 V2000
    4.9688    1.7977   16.9708 H   0  0  0  0  0  0  0  0  0  0  0  0
    5.4211    1.2893   17.8200 C   0  0  0  0  0  0  0  0  0  0  0  0
    6.5728    0.6429   17.5767 N   0  0  0  0  0  0  0  0  0  0  0  0
    7.1497    0.0212   18.6073 C   0  0  0  0  0  0  0  0  0  0  0  0
    8.0832   -0.5019   18.4017 H   0  0  0  0  0  0  0  0  0  0  0  0
    6.6279    0.0260   19.9139 C   0  0  0  0  0  0  0  0  0  0  0  0
    7.4119   -0.6640   20.9462 C   0  0  0  0  0  0  0  0  0  0  0  0
    8.3045   -1.5972   20.7197 N   0  0  0  0  0  0  0  0  0  0  0  0
    8.8441   -2.0162   21.9170 N   0  0  0  0  0  0  0  0  0  0  0  0
    8.2639   -1.2950   22.8398 C   0  0  0  0  0  0  0  0  0  0  0  0
    8.3684   -1.0220   24.5659 S   0  0  0  0  0  0  0  0  0  0  0  0
    7.1657    0.2656   24.3284 C   0  0  0  0  0  0  0  0  0  0  0  0
    6.7381    1.0774   25.2967 O   0  0  0  0  0  0  0  0  0  0  0  0
    6.6576    0.7073   26.6359 C   0  0  0  0  0  0  0  0  0  0  0  0
    6.2243   -0.5487   27.0659 C   0  0  0  0  0  0  0  0  0  0  0  0
    5.9830   -1.3383   26.3602 H   0  0  0  0  0  0  0  0  0  0  0  0
    6.0742   -0.7540   28.4429 C   0  0  0  0  0  0  0  0  0  0  0  0
    5.7032   -1.6986   28.8285 H   0  0  0  0  0  0  0  0  0  0  0  0
    6.3906    0.2465   29.3586 C   0  0  0  0  0  0  0  0  0  0  0  0
    6.2853    0.0565   30.4300 H   0  0  0  0  0  0  0  0  0  0  0  0
    6.8507    1.4983   28.9205 C   0  0  0  0  0  0  0  0  0  0  0  0
    7.2343    2.5334   29.9508 C   0  0  0  0  0  0  0  0  0  0  0  0
    8.3100    2.4937   30.1550 H   0  0  0  0  0  0  0  0  0  0  0  0
    6.9685    3.5550   29.6562 H   0  0  0  0  0  0  0  0  0  0  0  0
    6.7302    2.3140   30.8965 H   0  0  0  0  0  0  0  0  0  0  0  0
    6.9514    1.7312   27.5372 C   0  0  0  0  0  0  0  0  0  0  0  0
    7.2395    2.6884   27.1101 H   0  0  0  0  0  0  0  0  0  0  0  0
    6.7521    0.4774   23.1269 N   0  0  0  0  0  0  0  0  0  0  0  0
    7.3477   -0.4384   22.3075 N   0  0  0  0  0  0  0  0  0  0  0  0
    5.4127    0.6858   20.1547 C   0  0  0  0  0  0  0  0  0  0  0  0
    4.9683    0.7157   21.1537 H   0  0  0  0  0  0  0  0  0  0  0  0
    4.8045    1.3212   19.0746 C   0  0  0  0  0  0  0  0  0  0  0  0
    3.8630    1.8457   19.1907 H   0  0  0  0  0  0  0  0  0  0  0  0
  1  2  1  0
  2  3  2  0
  3  4  1  0
  4  5  1  0
  4  6  2  0
  6  7  1  0
  7  8  2  0
  8  9  1  0
  9 10  2  0
 10 11  1  0
 11 12  1  0
 12 13  1  0
 13 14  1  0
 14 15  2  0
 15 16  1  0
 15 17  1  0
 17 18  1  0
 17 19  2  0
 19 20  1  0
 19 21  1  0
 21 22  1  0
 22 23  1  0
 22 24  1  0
 22 25  1  0
 21 26  2  0
 26 27  1  0
 12 28  2  0
 28 29  1  0
  6 30  1  0
 30 31  1  0
 30 32  2  0
 32 33  1  0
 32  2  1  0
 29  7  1  0
 29 10  1  0
 26 14  1  0
M  END
>  <cnnaffinity>  (1) 
-5.2085

>  <filename>  (1) 
Cc1cccc(Oc2nn3c(-c4cccnc4)nnc3s2)c1

$$$$
