
     RDKit          3D

 41 44  0  0  0  0  0  0  0  0999 V2000
    7.2710    4.9828   22.4813 C   0  0  0  0  0  0  0  0  0  0  0  0
    7.1400    3.5445   22.8825 C   0  0  0  0  0  0  0  0  0  0  0  0
    7.3360    2.4575   22.0964 C   0  0  0  0  0  0  0  0  0  0  0  0
    7.1332    1.2059   22.7866 C   0  0  0  0  0  0  0  0  0  0  0  0
    7.3135   -0.1521   22.2722 C   0  0  0  0  0  0  0  0  0  0  0  0
    7.7799   -1.1693   22.9946 N   0  0  0  0  0  0  0  0  0  0  0  0
    8.0200   -2.1228   22.0711 C   0  0  0  0  0  0  0  0  0  0  0  0
    8.7438   -3.3802   22.4190 C   0  0  0  0  0  0  0  0  0  0  0  0
    7.9938   -4.3776   23.3463 C   0  0  0  0  0  0  0  0  0  0  0  0
    8.7230   -4.2233   24.6797 C   0  0  0  0  0  0  0  0  0  0  0  0
   10.0622   -3.9885   24.2950 O   0  0  0  0  0  0  0  0  0  0  0  0
   10.0305   -3.0615   23.2306 C   0  0  0  0  0  0  0  0  0  0  0  0
   10.9456   -3.1732   22.6367 H   0  0  0  0  0  0  0  0  0  0  0  0
    9.9973   -2.0337   23.6323 H   0  0  0  0  0  0  0  0  0  0  0  0
    8.3171   -3.3871   25.2778 H   0  0  0  0  0  0  0  0  0  0  0  0
    8.7178   -5.1193   25.3031 H   0  0  0  0  0  0  0  0  0  0  0  0
    8.1383   -5.3983   22.9799 H   0  0  0  0  0  0  0  0  0  0  0  0
    6.9198   -4.1941   23.4339 H   0  0  0  0  0  0  0  0  0  0  0  0
    8.9570   -3.8319   21.4496 H   0  0  0  0  0  0  0  0  0  0  0  0
    7.6791   -1.8142   20.8430 N   0  0  0  0  0  0  0  0  0  0  0  0
    7.1666   -0.5565   20.9712 N   0  0  0  0  0  0  0  0  0  0  0  0
    6.5179    0.0750   19.8729 C   0  0  0  0  0  0  0  0  0  0  0  0
    5.3353    0.8061   20.0405 C   0  0  0  0  0  0  0  0  0  0  0  0
    4.7825    1.4263   18.9178 C   0  0  0  0  0  0  0  0  0  0  0  0
    5.4222    1.2945   17.6819 C   0  0  0  0  0  0  0  0  0  0  0  0
    6.5465    0.5757   17.5127 N   0  0  0  0  0  0  0  0  0  0  0  0
    7.0680   -0.0315   18.5817 C   0  0  0  0  0  0  0  0  0  0  0  0
    7.9718   -0.6186   18.4302 H   0  0  0  0  0  0  0  0  0  0  0  0
    5.0232    1.7810   16.7941 H   0  0  0  0  0  0  0  0  0  0  0  0
    3.8743    2.0155   18.9897 H   0  0  0  0  0  0  0  0  0  0  0  0
    4.8819    0.9089   21.0284 H   0  0  0  0  0  0  0  0  0  0  0  0
    6.8302    1.3873   24.1152 C   0  0  0  0  0  0  0  0  0  0  0  0
    6.5872    0.3343   25.1509 C   0  0  0  0  0  0  0  0  0  0  0  0
    6.0833    0.7275   26.0337 H   0  0  0  0  0  0  0  0  0  0  0  0
    6.0036   -0.4911   24.7284 H   0  0  0  0  0  0  0  0  0  0  0  0
    7.5420   -0.1194   25.4441 H   0  0  0  0  0  0  0  0  0  0  0  0
    6.7500    3.0684   24.5057 S   0  0  0  0  0  0  0  0  0  0  0  0
    7.6142    2.5485   21.0466 H   0  0  0  0  0  0  0  0  0  0  0  0
    6.5771    5.6286   23.0264 H   0  0  0  0  0  0  0  0  0  0  0  0
    7.0843    5.0963   21.4076 H   0  0  0  0  0  0  0  0  0  0  0  0
    8.2899    5.3456   22.6707 H   0  0  0  0  0  0  0  0  0  0  0  0
  1  2  1  0
  2  3  2  0
  3  4  1  0
  4  5  1  0
  5  6  2  0
  6  7  1  0
  7  8  1  0
  8  9  1  0
  9 10  1  0
 10 11  1  0
 11 12  1  0
 12 13  1  0
 12 14  1  0
 10 15  1  0
 10 16  1  0
  9 17  1  0
  9 18  1  0
  8 19  1  0
  7 20  2  0
 20 21  1  0
 21 22  1  0
 22 23  2  0
 23 24  1  0
 24 25  2  0
 25 26  1  0
 26 27  2  0
 27 28  1  0
 25 29  1  0
 24 30  1  0
 23 31  1  0
  4 32  2  0
 32 33  1  0
 33 34  1  0
 33 35  1  0
 33 36  1  0
 32 37  1  0
  3 38  1  0
  1 39  1  0
  1 40  1  0
  1 41  1  0
 37  2  1  0
 21  5  1  0
 27 22  1  0
 12  8  1  0
M  END
>  <cnnaffinity>  (1) 
-5.87373

>  <filename>  (1) 
Cc1cc(-c2nc(C3CCOC3)nn2-c2cccnc2)c(C)s1

$$$$
