
     RDKit          3D

 50 53  0  0  0  0  0  0  0  0999 V2000
    5.4715   -4.4711   28.4082 C   0  0  0  0  0  0  0  0  0  0  0  0
    5.9296   -3.8432   27.0840 C   0  0  0  0  0  0  0  0  0  0  0  0
    6.7373   -4.8539   26.2461 C   0  0  0  0  0  0  0  0  0  0  0  0
    7.3467   -4.2754   24.9558 C   0  0  0  0  0  0  0  0  0  0  0  0
    8.1339   -2.9855   25.2558 C   0  0  0  0  0  0  0  0  0  0  0  0
    8.7344   -2.3153   24.0607 C   0  0  0  0  0  0  0  0  0  0  0  0
    9.9338   -1.7876   24.1452 N   0  0  0  0  0  0  0  0  0  0  0  0
   10.1003   -1.1931   22.9338 N   0  0  0  0  0  0  0  0  0  0  0  0
   11.4113   -0.7497   22.5506 C   0  0  0  0  0  0  0  0  0  0  0  0
   11.9909    0.2572   23.2534 C   0  0  0  0  0  0  0  0  0  0  0  0
   13.3844    0.5740   23.0623 C   0  0  0  0  0  0  0  0  0  0  0  0
   14.0121    1.4615   23.6046 O   0  0  0  0  0  0  0  0  0  0  0  0
   14.0600   -0.2391   22.1431 N   0  0  0  0  0  0  0  0  0  0  0  0
   13.4731   -1.2200   21.3912 C   0  0  0  0  0  0  0  0  0  0  0  0
   12.1461   -1.4729   21.5479 C   0  0  0  0  0  0  0  0  0  0  0  0
   11.6731   -2.2392   20.9506 H   0  0  0  0  0  0  0  0  0  0  0  0
   14.0972   -1.7642   20.6876 H   0  0  0  0  0  0  0  0  0  0  0  0
   15.0030    0.1056   22.0482 H   0  0  0  0  0  0  0  0  0  0  0  0
   11.4702    0.8221   24.0112 H   0  0  0  0  0  0  0  0  0  0  0  0
    8.9598   -1.3345   22.2164 C   0  0  0  0  0  0  0  0  0  0  0  0
    8.7081   -0.7677   20.8547 C   0  0  0  0  0  0  0  0  0  0  0  0
    7.5345    0.0441   20.8990 O   0  0  0  0  0  0  0  0  0  0  0  0
    6.9159    0.4116   19.7452 C   0  0  0  0  0  0  0  0  0  0  0  0
    5.6464    1.0000   19.8696 C   0  0  0  0  0  0  0  0  0  0  0  0
    4.9807    1.3974   18.7105 C   0  0  0  0  0  0  0  0  0  0  0  0
    5.5900    1.1974   17.4630 C   0  0  0  0  0  0  0  0  0  0  0  0
    6.8006    0.6418   17.3342 N   0  0  0  0  0  0  0  0  0  0  0  0
    7.4472    0.2650   18.4480 C   0  0  0  0  0  0  0  0  0  0  0  0
    8.4320   -0.1772   18.3078 H   0  0  0  0  0  0  0  0  0  0  0  0
    5.0918    1.4970   16.5433 H   0  0  0  0  0  0  0  0  0  0  0  0
    4.0079    1.8747   18.7575 H   0  0  0  0  0  0  0  0  0  0  0  0
    5.2233    1.1333   20.8653 H   0  0  0  0  0  0  0  0  0  0  0  0
    9.5617   -0.1717   20.5120 H   0  0  0  0  0  0  0  0  0  0  0  0
    8.5597   -1.6114   20.1692 H   0  0  0  0  0  0  0  0  0  0  0  0
    8.0951   -2.0793   22.8874 N   0  0  0  0  0  0  0  0  0  0  0  0
    7.2481   -1.9578   25.9989 C   0  0  0  0  0  0  0  0  0  0  0  0
    6.7690   -2.5766   27.3041 C   0  0  0  0  0  0  0  0  0  0  0  0
    6.2198   -1.8484   27.9156 H   0  0  0  0  0  0  0  0  0  0  0  0
    7.6935   -2.8625   27.8280 H   0  0  0  0  0  0  0  0  0  0  0  0
    7.8306   -1.0472   26.1964 H   0  0  0  0  0  0  0  0  0  0  0  0
    6.4041   -1.6893   25.3448 H   0  0  0  0  0  0  0  0  0  0  0  0
    8.9864   -3.2444   25.9057 H   0  0  0  0  0  0  0  0  0  0  0  0
    8.0057   -5.0291   24.5054 H   0  0  0  0  0  0  0  0  0  0  0  0
    6.5688   -4.0527   24.2121 H   0  0  0  0  0  0  0  0  0  0  0  0
    7.5576   -5.2263   26.8813 H   0  0  0  0  0  0  0  0  0  0  0  0
    6.1141   -5.7256   26.0141 H   0  0  0  0  0  0  0  0  0  0  0  0
    5.0348   -3.5489   26.5126 H   0  0  0  0  0  0  0  0  0  0  0  0
    6.3346   -4.8253   28.9887 H   0  0  0  0  0  0  0  0  0  0  0  0
    4.9284   -3.7509   29.0336 H   0  0  0  0  0  0  0  0  0  0  0  0
    4.8170   -5.3342   28.2300 H   0  0  0  0  0  0  0  0  0  0  0  0
  1  2  1  0
  2  3  1  0
  3  4  1  0
  4  5  1  0
  5  6  1  0
  6  7  2  0
  7  8  1  0
  8  9  1  0
  9 10  2  0
 10 11  1  0
 11 12  2  0
 11 13  1  0
 13 14  1  0
 14 15  2  0
 15 16  1  0
 14 17  1  0
 13 18  1  0
 10 19  1  0
  8 20  1  0
 20 21  1  0
 21 22  1  0
 22 23  1  0
 23 24  2  0
 24 25  1  0
 25 26  2  0
 26 27  1  0
 27 28  2  0
 28 29  1  0
 26 30  1  0
 25 31  1  0
 24 32  1  0
 21 33  1  0
 21 34  1  0
 20 35  2  0
  5 36  1  0
 36 37  1  0
 37 38  1  0
 37 39  1  0
 36 40  1  0
 36 41  1  0
  5 42  1  0
  4 43  1  0
  4 44  1  0
  3 45  1  0
  3 46  1  0
  2 47  1  0
  1 48  1  0
  1 49  1  0
  1 50  1  0
 37  2  1  0
 35  6  1  0
 15  9  1  0
 28 23  1  0
M  END
>  <cnnaffinity>  (1) 
-6.51153

>  <filename>  (1) 
CC1CCC(c2nc(COc3cccnc3)n(-c3cc[nH]c(=O)c3)n2)CC1

$$$$
