
     RDKit          3D

 40 44  0  0  0  0  0  0  0  0999 V2000
    6.0101    0.5167   25.4575 C   0  0  0  0  0  0  0  0  0  0  0  0
    6.2372    1.5938   24.4170 C   0  0  0  0  0  0  0  0  0  0  0  0
    6.1389    2.9718   24.7527 C   0  0  0  0  0  0  0  0  0  0  0  0
    5.5882    3.4418   26.3473 Cl  0  0  0  0  0  0  0  0  0  0  0  0
    6.4117    3.9922   23.9606 N   0  0  0  0  0  0  0  0  0  0  0  0
    6.8330    3.7074   22.7212 C   0  0  0  0  0  0  0  0  0  0  0  0
    6.9611    2.4069   22.2481 C   0  0  0  0  0  0  0  0  0  0  0  0
    6.6149    1.3126   23.0771 C   0  0  0  0  0  0  0  0  0  0  0  0
    6.7835   -0.0967   22.5883 C   0  0  0  0  0  0  0  0  0  0  0  0
    7.2849   -1.0895   23.3156 N   0  0  0  0  0  0  0  0  0  0  0  0
    7.5450   -2.0586   22.4141 C   0  0  0  0  0  0  0  0  0  0  0  0
    8.3970   -3.2447   22.6942 C   0  0  0  0  0  0  0  0  0  0  0  0
    7.9181   -4.6798   22.4832 C   0  0  0  0  0  0  0  0  0  0  0  0
    8.2508   -4.1681   23.8593 C   0  0  0  0  0  0  0  0  0  0  0  0
    7.6498   -4.1721   25.2193 C   0  0  0  0  0  0  0  0  0  0  0  0
    9.1316   -4.5241   25.0020 C   0  0  0  0  0  0  0  0  0  0  0  0
    9.4463   -5.5639   25.1023 H   0  0  0  0  0  0  0  0  0  0  0  0
    9.8811   -3.7870   25.2977 H   0  0  0  0  0  0  0  0  0  0  0  0
    6.9493   -4.9674   25.4602 H   0  0  0  0  0  0  0  0  0  0  0  0
    7.4142   -3.1929   25.6291 H   0  0  0  0  0  0  0  0  0  0  0  0
    6.8658   -4.8643   22.2749 H   0  0  0  0  0  0  0  0  0  0  0  0
    8.6078   -5.3727   22.0012 H   0  0  0  0  0  0  0  0  0  0  0  0
    9.4312   -3.0531   22.4002 H   0  0  0  0  0  0  0  0  0  0  0  0
    7.2012   -1.7626   21.1763 N   0  0  0  0  0  0  0  0  0  0  0  0
    6.6909   -0.5036   21.2739 N   0  0  0  0  0  0  0  0  0  0  0  0
    6.2845    0.1435   20.0662 C   0  0  0  0  0  0  0  0  0  0  0  0
    5.2907    1.1302   20.0174 C   0  0  0  0  0  0  0  0  0  0  0  0
    4.9757    1.6983   18.7772 C   0  0  0  0  0  0  0  0  0  0  0  0
    5.6415    1.2565   17.6316 C   0  0  0  0  0  0  0  0  0  0  0  0
    6.6012    0.3155   17.6699 N   0  0  0  0  0  0  0  0  0  0  0  0
    6.9037   -0.2272   18.8511 C   0  0  0  0  0  0  0  0  0  0  0  0
    7.6746   -0.9975   18.8528 H   0  0  0  0  0  0  0  0  0  0  0  0
    5.4063    1.6623   16.6489 H   0  0  0  0  0  0  0  0  0  0  0  0
    4.2583    2.5084   18.6992 H   0  0  0  0  0  0  0  0  0  0  0  0
    4.8149    1.4947   20.9281 H   0  0  0  0  0  0  0  0  0  0  0  0
    7.3237    2.2471   21.2397 H   0  0  0  0  0  0  0  0  0  0  0  0
    7.0674    4.5703   22.1021 H   0  0  0  0  0  0  0  0  0  0  0  0
    5.4522    0.8938   26.3168 H   0  0  0  0  0  0  0  0  0  0  0  0
    6.9782    0.1465   25.8146 H   0  0  0  0  0  0  0  0  0  0  0  0
    5.4759   -0.3389   25.0374 H   0  0  0  0  0  0  0  0  0  0  0  0
  1  2  1  0
  2  3  2  0
  3  4  1  0
  3  5  1  0
  5  6  2  0
  6  7  1  0
  7  8  2  0
  8  9  1  0
  9 10  2  0
 10 11  1  0
 11 12  1  0
 12 13  1  0
 13 14  1  0
 14 15  1  0
 15 16  1  0
 16 17  1  0
 16 18  1  0
 15 19  1  0
 15 20  1  0
 13 21  1  0
 13 22  1  0
 12 23  1  0
 11 24  2  0
 24 25  1  0
 25 26  1  0
 26 27  2  0
 27 28  1  0
 28 29  2  0
 29 30  1  0
 30 31  2  0
 31 32  1  0
 29 33  1  0
 28 34  1  0
 27 35  1  0
  7 36  1  0
  6 37  1  0
  1 38  1  0
  1 39  1  0
  1 40  1  0
  8  2  1  0
 25  9  1  0
 31 26  1  0
 14 12  1  0
 16 14  1  0
M  END
>  <cnnaffinity>  (1) 
-6.02148

>  <filename>  (1) 
Cc1c(-c2nc(C3CC34CC4)nn2-c2cccnc2)ccnc1Cl

$$$$
