
     RDKit          3D

 42 45  0  0  0  0  0  0  0  0999 V2000
    5.6231   -0.7298   26.5968 C   0  0  0  0  0  0  0  0  0  0  0  0
    6.4440    0.0856   25.6595 C   0  0  0  0  0  0  0  0  0  0  0  0
    6.2513    0.5530   24.3954 C   0  0  0  0  0  0  0  0  0  0  0  0
    7.4484    1.2497   24.0876 C   0  0  0  0  0  0  0  0  0  0  0  0
    7.8546    1.8858   22.7832 C   0  0  0  0  0  0  0  0  0  0  0  0
    8.8306    0.9963   22.0972 C   0  0  0  0  0  0  0  0  0  0  0  0
   10.1348    1.0668   22.2822 N   0  0  0  0  0  0  0  0  0  0  0  0
   10.5730   -0.1235   21.8206 C   0  0  0  0  0  0  0  0  0  0  0  0
   11.9690   -0.5700   21.7720 C   0  0  0  0  0  0  0  0  0  0  0  0
   13.0704    0.1881   22.2117 C   0  0  0  0  0  0  0  0  0  0  0  0
   14.3314   -0.1159   21.6909 C   0  0  0  0  0  0  0  0  0  0  0  0
   14.4432   -1.1432   20.7364 C   0  0  0  0  0  0  0  0  0  0  0  0
   15.4614   -1.1583   19.8674 F   0  0  0  0  0  0  0  0  0  0  0  0
   13.4314   -2.0615   20.5275 C   0  0  0  0  0  0  0  0  0  0  0  0
   12.1946   -1.7633   21.0668 C   0  0  0  0  0  0  0  0  0  0  0  0
   11.3198   -2.3732   20.8857 H   0  0  0  0  0  0  0  0  0  0  0  0
   13.5996   -2.9361   19.9069 H   0  0  0  0  0  0  0  0  0  0  0  0
   15.1632    0.5578   21.8551 H   0  0  0  0  0  0  0  0  0  0  0  0
   12.9577    1.0564   22.8622 H   0  0  0  0  0  0  0  0  0  0  0  0
    9.6138   -0.8928   21.3171 N   0  0  0  0  0  0  0  0  0  0  0  0
    8.4999   -0.1662   21.4854 N   0  0  0  0  0  0  0  0  0  0  0  0
    7.2214   -0.7182   21.0431 C   0  0  0  0  0  0  0  0  0  0  0  0
    6.5552    0.0413   19.9188 C   0  0  0  0  0  0  0  0  0  0  0  0
    5.3312    0.6956   20.0869 C   0  0  0  0  0  0  0  0  0  0  0  0
    4.7608    1.3587   18.9988 C   0  0  0  0  0  0  0  0  0  0  0  0
    5.4385    1.3434   17.7769 C   0  0  0  0  0  0  0  0  0  0  0  0
    6.6136    0.7201   17.5929 N   0  0  0  0  0  0  0  0  0  0  0  0
    7.1520    0.0948   18.6469 C   0  0  0  0  0  0  0  0  0  0  0  0
    8.1064   -0.4013   18.4678 H   0  0  0  0  0  0  0  0  0  0  0  0
    5.0202    1.8461   16.9061 H   0  0  0  0  0  0  0  0  0  0  0  0
    3.8187    1.8872   19.0868 H   0  0  0  0  0  0  0  0  0  0  0  0
    4.8320    0.6870   21.0582 H   0  0  0  0  0  0  0  0  0  0  0  0
    7.4486   -1.7415   20.7266 H   0  0  0  0  0  0  0  0  0  0  0  0
    6.5544   -0.7847   21.9092 H   0  0  0  0  0  0  0  0  0  0  0  0
    8.3516    2.8388   22.9725 H   0  0  0  0  0  0  0  0  0  0  0  0
    6.9749    2.0485   22.1540 H   0  0  0  0  0  0  0  0  0  0  0  0
    8.2759    1.2227   25.1018 N   0  0  0  0  0  0  0  0  0  0  0  0
    7.6531    0.4885   26.0832 O   0  0  0  0  0  0  0  0  0  0  0  0
    5.3761    0.4662   23.7772 H   0  0  0  0  0  0  0  0  0  0  0  0
    5.4937   -1.7471   26.2138 H   0  0  0  0  0  0  0  0  0  0  0  0
    4.6253   -0.2958   26.7007 H   0  0  0  0  0  0  0  0  0  0  0  0
    6.0998   -0.7784   27.5771 H   0  0  0  0  0  0  0  0  0  0  0  0
  1  2  1  0
  2  3  2  0
  3  4  1  0
  4  5  1  0
  5  6  1  0
  6  7  2  0
  7  8  1  0
  8  9  1  0
  9 10  2  0
 10 11  1  0
 11 12  2  0
 12 13  1  0
 12 14  1  0
 14 15  2  0
 15 16  1  0
 14 17  1  0
 11 18  1  0
 10 19  1  0
  8 20  2  0
 20 21  1  0
 21 22  1  0
 22 23  1  0
 23 24  2  0
 24 25  1  0
 25 26  2  0
 26 27  1  0
 27 28  2  0
 28 29  1  0
 26 30  1  0
 25 31  1  0
 24 32  1  0
 22 33  1  0
 22 34  1  0
  5 35  1  0
  5 36  1  0
  4 37  2  0
 37 38  1  0
  3 39  1  0
  1 40  1  0
  1 41  1  0
  1 42  1  0
 38  2  1  0
 21  6  1  0
 28 23  1  0
 15  9  1  0
M  END
>  <cnnaffinity>  (1) 
-6.51298

>  <filename>  (1) 
Cc1cc(Cc2nc(-c3ccc(F)cc3)nn2Cc2cccnc2)no1

$$$$
