
     RDKit          3D

 47 50  0  0  0  0  0  0  0  0999 V2000
    7.4339    5.6874   27.6768 C   0  0  0  0  0  0  0  0  0  0  0  0
    7.0821    4.4214   26.9376 C   0  0  0  0  0  0  0  0  0  0  0  0
    8.0474    3.4494   26.6331 C   0  0  0  0  0  0  0  0  0  0  0  0
    7.7023    2.2812   25.9440 C   0  0  0  0  0  0  0  0  0  0  0  0
    6.3722    2.0640   25.5444 C   0  0  0  0  0  0  0  0  0  0  0  0
    5.9545    0.8931   24.6836 C   0  0  0  0  0  0  0  0  0  0  0  0
    5.7756    1.3094   23.3176 O   0  0  0  0  0  0  0  0  0  0  0  0
    7.0205    1.4614   22.6331 C   0  0  0  0  0  0  0  0  0  0  0  0
    7.5602    0.1294   22.1902 C   0  0  0  0  0  0  0  0  0  0  0  0
    8.2830   -0.7002   22.9248 N   0  0  0  0  0  0  0  0  0  0  0  0
    8.3594   -1.8197   22.1522 C   0  0  0  0  0  0  0  0  0  0  0  0
    9.0835   -3.0690   22.5598 C   0  0  0  0  0  0  0  0  0  0  0  0
   10.4373   -2.8723   23.3108 C   0  0  0  0  0  0  0  0  0  0  0  0
   10.0013   -3.8731   24.4046 C   0  0  0  0  0  0  0  0  0  0  0  0
    8.5935   -3.9674   23.7580 C   0  0  0  0  0  0  0  0  0  0  0  0
    8.2966   -4.9849   23.4717 H   0  0  0  0  0  0  0  0  0  0  0  0
    7.7717   -3.5309   24.3360 H   0  0  0  0  0  0  0  0  0  0  0  0
   10.5556   -4.8201   24.3870 H   0  0  0  0  0  0  0  0  0  0  0  0
   10.0309   -3.4955   25.4359 H   0  0  0  0  0  0  0  0  0  0  0  0
   11.3354   -3.1274   22.7393 H   0  0  0  0  0  0  0  0  0  0  0  0
   10.5328   -1.8538   23.6984 H   0  0  0  0  0  0  0  0  0  0  0  0
    9.1388   -3.6513   21.6362 H   0  0  0  0  0  0  0  0  0  0  0  0
    7.7744   -1.7024   20.9732 N   0  0  0  0  0  0  0  0  0  0  0  0
    7.2285   -0.4583   21.0087 N   0  0  0  0  0  0  0  0  0  0  0  0
    6.5216    0.0931   19.8972 C   0  0  0  0  0  0  0  0  0  0  0  0
    5.3559    0.8540   20.0651 C   0  0  0  0  0  0  0  0  0  0  0  0
    4.7956    1.4554   18.9307 C   0  0  0  0  0  0  0  0  0  0  0  0
    5.4019    1.2622   17.6869 C   0  0  0  0  0  0  0  0  0  0  0  0
    6.4885    0.4895   17.5152 N   0  0  0  0  0  0  0  0  0  0  0  0
    7.0187   -0.0932   18.5954 C   0  0  0  0  0  0  0  0  0  0  0  0
    7.8836   -0.7309   18.4378 H   0  0  0  0  0  0  0  0  0  0  0  0
    5.0009    1.7321   16.7909 H   0  0  0  0  0  0  0  0  0  0  0  0
    3.9155    2.0857   19.0064 H   0  0  0  0  0  0  0  0  0  0  0  0
    4.9051    0.9780   21.0523 H   0  0  0  0  0  0  0  0  0  0  0  0
    6.8553    2.1281   21.7809 H   0  0  0  0  0  0  0  0  0  0  0  0
    7.7696    1.9394   23.2772 H   0  0  0  0  0  0  0  0  0  0  0  0
    6.6823    0.0704   24.7459 H   0  0  0  0  0  0  0  0  0  0  0  0
    4.9765    0.5083   24.9905 H   0  0  0  0  0  0  0  0  0  0  0  0
    5.4095    3.0315   25.8522 C   0  0  0  0  0  0  0  0  0  0  0  0
    5.7597    4.1951   26.5343 C   0  0  0  0  0  0  0  0  0  0  0  0
    5.0036    4.9445   26.7546 H   0  0  0  0  0  0  0  0  0  0  0  0
    4.3801    2.8679   25.5392 H   0  0  0  0  0  0  0  0  0  0  0  0
    8.4743    1.5484   25.7004 H   0  0  0  0  0  0  0  0  0  0  0  0
    9.0788    3.6154   26.9249 H   0  0  0  0  0  0  0  0  0  0  0  0
    6.5409    6.1444   28.1142 H   0  0  0  0  0  0  0  0  0  0  0  0
    7.8852    6.4282   27.0075 H   0  0  0  0  0  0  0  0  0  0  0  0
    8.1411    5.4958   28.4896 H   0  0  0  0  0  0  0  0  0  0  0  0
  1  2  1  0
  2  3  2  0
  3  4  1  0
  4  5  2  0
  5  6  1  0
  6  7  1  0
  7  8  1  0
  8  9  1  0
  9 10  2  0
 10 11  1  0
 11 12  1  0
 12 13  1  0
 13 14  1  0
 14 15  1  0
 15 16  1  0
 15 17  1  0
 14 18  1  0
 14 19  1  0
 13 20  1  0
 13 21  1  0
 12 22  1  0
 11 23  2  0
 23 24  1  0
 24 25  1  0
 25 26  2  0
 26 27  1  0
 27 28  2  0
 28 29  1  0
 29 30  2  0
 30 31  1  0
 28 32  1  0
 27 33  1  0
 26 34  1  0
  8 35  1  0
  8 36  1  0
  6 37  1  0
  6 38  1  0
  5 39  1  0
 39 40  2  0
 40 41  1  0
 39 42  1  0
  4 43  1  0
  3 44  1  0
  1 45  1  0
  1 46  1  0
  1 47  1  0
 40  2  1  0
 24  9  1  0
 30 25  1  0
 15 12  1  0
M  END
>  <cnnaffinity>  (1) 
-5.63643

>  <filename>  (1) 
Cc1ccc(COCc2nc(C3CCC3)nn2-c2cccnc2)cc1

$$$$
