
     RDKit          3D

 43 45  0  0  0  0  0  0  0  0999 V2000
   12.1652    0.0638   22.6400 C   0  0  0  0  0  0  0  0  0  0  0  0
   11.2018    1.1914   22.8458 C   0  0  0  0  0  0  0  0  0  0  0  0
   11.1865    2.1824   23.7911 C   0  0  0  0  0  0  0  0  0  0  0  0
    9.9852    2.9270   23.6140 C   0  0  0  0  0  0  0  0  0  0  0  0
    9.2980    2.3771   22.5605 C   0  0  0  0  0  0  0  0  0  0  0  0
    7.9451    2.7091   22.0096 C   0  0  0  0  0  0  0  0  0  0  0  0
    7.9345    2.7028   20.9181 H   0  0  0  0  0  0  0  0  0  0  0  0
    7.6114    3.6955   22.3417 H   0  0  0  0  0  0  0  0  0  0  0  0
    7.1951    1.9768   22.3323 H   0  0  0  0  0  0  0  0  0  0  0  0
   10.0692    1.3406   22.0613 N   0  0  0  0  0  0  0  0  0  0  0  0
    9.6604    0.4421   20.9992 C   0  0  0  0  0  0  0  0  0  0  0  0
    8.6156   -0.5264   21.4432 C   0  0  0  0  0  0  0  0  0  0  0  0
    8.8205   -1.3896   22.4130 N   0  0  0  0  0  0  0  0  0  0  0  0
    7.6283   -2.0279   22.5191 C   0  0  0  0  0  0  0  0  0  0  0  0
    7.3869   -3.0547   23.5923 C   0  0  0  0  0  0  0  0  0  0  0  0
    6.4808   -2.4973   24.7101 C   0  0  0  0  0  0  0  0  0  0  0  0
    5.4854   -2.2600   24.3227 H   0  0  0  0  0  0  0  0  0  0  0  0
    6.3645   -3.2351   25.5110 H   0  0  0  0  0  0  0  0  0  0  0  0
    6.8971   -1.5840   25.1492 H   0  0  0  0  0  0  0  0  0  0  0  0
    6.8428   -4.3817   23.0367 C   0  0  0  0  0  0  0  0  0  0  0  0
    7.5204   -4.8223   22.2975 H   0  0  0  0  0  0  0  0  0  0  0  0
    6.7135   -5.1078   23.8475 H   0  0  0  0  0  0  0  0  0  0  0  0
    5.8712   -4.2262   22.5561 H   0  0  0  0  0  0  0  0  0  0  0  0
    8.3790   -3.2300   24.0178 H   0  0  0  0  0  0  0  0  0  0  0  0
    6.7095   -1.6306   21.6572 N   0  0  0  0  0  0  0  0  0  0  0  0
    7.3571   -0.6757   20.9336 N   0  0  0  0  0  0  0  0  0  0  0  0
    6.6607   -0.0046   19.8862 C   0  0  0  0  0  0  0  0  0  0  0  0
    5.4390    0.6288   20.1476 C   0  0  0  0  0  0  0  0  0  0  0  0
    4.8100    1.3047   19.0964 C   0  0  0  0  0  0  0  0  0  0  0  0
    5.4029    1.2963   17.8286 C   0  0  0  0  0  0  0  0  0  0  0  0
    6.5447    0.6450   17.5571 N   0  0  0  0  0  0  0  0  0  0  0  0
    7.1562    0.0125   18.5687 C   0  0  0  0  0  0  0  0  0  0  0  0
    8.0760   -0.5204   18.3239 H   0  0  0  0  0  0  0  0  0  0  0  0
    4.9448    1.8360   17.0029 H   0  0  0  0  0  0  0  0  0  0  0  0
    3.8813    1.8400   19.2544 H   0  0  0  0  0  0  0  0  0  0  0  0
    5.0046    0.5710   21.1476 H   0  0  0  0  0  0  0  0  0  0  0  0
   10.5413   -0.1319   20.7080 H   0  0  0  0  0  0  0  0  0  0  0  0
    9.3325    1.0109   20.1341 H   0  0  0  0  0  0  0  0  0  0  0  0
    9.6495    3.7726   24.2014 H   0  0  0  0  0  0  0  0  0  0  0  0
   11.9512    2.3244   24.5444 H   0  0  0  0  0  0  0  0  0  0  0  0
   12.9103    0.0338   23.4395 H   0  0  0  0  0  0  0  0  0  0  0  0
   12.7268    0.1557   21.7086 H   0  0  0  0  0  0  0  0  0  0  0  0
   11.6342   -0.8965   22.6172 H   0  0  0  0  0  0  0  0  0  0  0  0
  1  2  1  0
  2  3  2  0
  3  4  1  0
  4  5  2  0
  5  6  1  0
  6  7  1  0
  6  8  1  0
  6  9  1  0
  5 10  1  0
 10 11  1  0
 11 12  1  0
 12 13  2  0
 13 14  1  0
 14 15  1  0
 15 16  1  0
 16 17  1  0
 16 18  1  0
 16 19  1  0
 15 20  1  0
 20 21  1  0
 20 22  1  0
 20 23  1  0
 15 24  1  0
 14 25  2  0
 25 26  1  0
 26 27  1  0
 27 28  2  0
 28 29  1  0
 29 30  2  0
 30 31  1  0
 31 32  2  0
 32 33  1  0
 30 34  1  0
 29 35  1  0
 28 36  1  0
 11 37  1  0
 11 38  1  0
  4 39  1  0
  3 40  1  0
  1 41  1  0
  1 42  1  0
  1 43  1  0
 10  2  1  0
 26 12  1  0
 32 27  1  0
M  END
>  <cnnaffinity>  (1) 
-5.95595

>  <filename>  (1) 
Cc1ccc(C)n1Cc1nc(C(C)C)nn1-c1cccnc1

$$$$
