
     RDKit          3D

 43 46  0  0  0  0  0  0  0  0999 V2000
   16.0103   -0.3133   19.6613 C   0  0  0  0  0  0  0  0  0  0  0  0
   14.7056   -0.8041   20.5497 C   0  0  0  0  0  0  0  0  0  0  0  0
   14.4245    0.0755   21.6618 C   0  0  0  0  0  0  0  0  0  0  0  0
   13.1530    0.2541   22.1855 C   0  0  0  0  0  0  0  0  0  0  0  0
   12.1107   -0.5526   21.6941 C   0  0  0  0  0  0  0  0  0  0  0  0
   10.6785   -0.1789   21.8312 C   0  0  0  0  0  0  0  0  0  0  0  0
    9.7046   -0.8925   21.2843 N   0  0  0  0  0  0  0  0  0  0  0  0
    8.5917   -0.1911   21.5678 N   0  0  0  0  0  0  0  0  0  0  0  0
    7.2925   -0.6881   21.1367 C   0  0  0  0  0  0  0  0  0  0  0  0
    6.6544    0.0952   20.0081 C   0  0  0  0  0  0  0  0  0  0  0  0
    5.4247    0.7452   20.1580 C   0  0  0  0  0  0  0  0  0  0  0  0
    4.8458    1.3637   19.0462 C   0  0  0  0  0  0  0  0  0  0  0  0
    5.5288    1.3206   17.8270 C   0  0  0  0  0  0  0  0  0  0  0  0
    6.7175    0.7194   17.6672 N   0  0  0  0  0  0  0  0  0  0  0  0
    7.2640    0.1360   18.7419 C   0  0  0  0  0  0  0  0  0  0  0  0
    8.2304   -0.3426   18.5861 H   0  0  0  0  0  0  0  0  0  0  0  0
    5.1030    1.7888   16.9395 H   0  0  0  0  0  0  0  0  0  0  0  0
    3.8986    1.8862   19.1155 H   0  0  0  0  0  0  0  0  0  0  0  0
    4.9238    0.7617   21.1310 H   0  0  0  0  0  0  0  0  0  0  0  0
    6.6318   -0.6952   22.0085 H   0  0  0  0  0  0  0  0  0  0  0  0
    7.4788   -1.7265   20.8404 H   0  0  0  0  0  0  0  0  0  0  0  0
    8.9323    0.9159   22.2561 C   0  0  0  0  0  0  0  0  0  0  0  0
    7.9356    1.8093   22.9213 C   0  0  0  0  0  0  0  0  0  0  0  0
    7.5494    1.2233   24.1968 N   0  0  0  0  0  0  0  0  0  0  0  0
    8.3391    1.0844   25.2838 C   0  0  0  0  0  0  0  0  0  0  0  0
    7.6902    0.2049   26.1158 C   0  0  0  0  0  0  0  0  0  0  0  0
    8.2870   -0.4033   27.6104 Cl  0  0  0  0  0  0  0  0  0  0  0  0
    6.4989   -0.1375   25.4449 C   0  0  0  0  0  0  0  0  0  0  0  0
    6.4461    0.4731   24.2649 N   0  0  0  0  0  0  0  0  0  0  0  0
    5.7069   -0.7978   25.7751 H   0  0  0  0  0  0  0  0  0  0  0  0
    9.2932    1.5869   25.3469 H   0  0  0  0  0  0  0  0  0  0  0  0
    8.3621    2.8003   23.0916 H   0  0  0  0  0  0  0  0  0  0  0  0
    7.0301    1.9082   22.3242 H   0  0  0  0  0  0  0  0  0  0  0  0
   10.2361    0.9579   22.4394 N   0  0  0  0  0  0  0  0  0  0  0  0
   12.4741   -1.6653   20.9150 C   0  0  0  0  0  0  0  0  0  0  0  0
   13.7559   -1.8188   20.3543 C   0  0  0  0  0  0  0  0  0  0  0  0
   13.9837   -2.7427   19.8266 H   0  0  0  0  0  0  0  0  0  0  0  0
   11.6712   -2.3518   20.7186 H   0  0  0  0  0  0  0  0  0  0  0  0
   12.9441    1.0834   22.8634 H   0  0  0  0  0  0  0  0  0  0  0  0
   15.2021    0.7525   22.0036 H   0  0  0  0  0  0  0  0  0  0  0  0
   16.3431    0.5882   20.1606 H   0  0  0  0  0  0  0  0  0  0  0  0
   16.8434   -1.0170   19.6684 H   0  0  0  0  0  0  0  0  0  0  0  0
   15.9368    0.1136   18.6526 H   0  0  0  0  0  0  0  0  0  0  0  0
  1  2  1  0
  2  3  2  0
  3  4  1  0
  4  5  2  0
  5  6  1  0
  6  7  2  0
  7  8  1  0
  8  9  1  0
  9 10  1  0
 10 11  2  0
 11 12  1  0
 12 13  2  0
 13 14  1  0
 14 15  2  0
 15 16  1  0
 13 17  1  0
 12 18  1  0
 11 19  1  0
  9 20  1  0
  9 21  1  0
  8 22  1  0
 22 23  1  0
 23 24  1  0
 24 25  1  0
 25 26  2  0
 26 27  1  0
 26 28  1  0
 28 29  2  0
 28 30  1  0
 25 31  1  0
 23 32  1  0
 23 33  1  0
 22 34  2  0
  5 35  1  0
 35 36  2  0
 36 37  1  0
 35 38  1  0
  4 39  1  0
  3 40  1  0
  1 41  1  0
  1 42  1  0
  1 43  1  0
 36  2  1  0
 34  6  1  0
 15 10  1  0
 29 24  1  0
M  END
>  <cnnaffinity>  (1) 
-6.56193

>  <filename>  (1) 
Cc1ccc(-c2nc(Cn3cc(Cl)cn3)n(Cc3cccnc3)n2)cc1

$$$$
