
     RDKit          3D

 49 52  0  0  0  0  0  0  0  0999 V2000
    5.4722   -4.0614   22.4521 C   0  0  0  0  0  0  0  0  0  0  0  0
    6.4206   -3.9312   23.6183 C   0  0  0  0  0  0  0  0  0  0  0  0
    6.2711   -4.8038   24.7064 C   0  0  0  0  0  0  0  0  0  0  0  0
    7.1226   -4.7623   25.8111 C   0  0  0  0  0  0  0  0  0  0  0  0
    8.1575   -3.8258   25.8426 C   0  0  0  0  0  0  0  0  0  0  0  0
    8.3261   -2.9362   24.7829 C   0  0  0  0  0  0  0  0  0  0  0  0
    7.4611   -2.9618   23.6667 C   0  0  0  0  0  0  0  0  0  0  0  0
    7.6581   -1.9636   22.5776 C   0  0  0  0  0  0  0  0  0  0  0  0
    6.7411   -1.5967   21.6900 N   0  0  0  0  0  0  0  0  0  0  0  0
    7.3705   -0.6646   20.9396 N   0  0  0  0  0  0  0  0  0  0  0  0
    6.6649    0.0119   19.9038 C   0  0  0  0  0  0  0  0  0  0  0  0
    5.4429    0.6409   20.1694 C   0  0  0  0  0  0  0  0  0  0  0  0
    4.8138    1.3079   19.1115 C   0  0  0  0  0  0  0  0  0  0  0  0
    5.4013    1.2955   17.8393 C   0  0  0  0  0  0  0  0  0  0  0  0
    6.5616    0.6748   17.5763 N   0  0  0  0  0  0  0  0  0  0  0  0
    7.1716    0.0570   18.5938 C   0  0  0  0  0  0  0  0  0  0  0  0
    8.1148   -0.4353   18.3700 H   0  0  0  0  0  0  0  0  0  0  0  0
    4.9177    1.7843   16.9957 H   0  0  0  0  0  0  0  0  0  0  0  0
    3.8808    1.8387   19.2624 H   0  0  0  0  0  0  0  0  0  0  0  0
    5.0157    0.6109   21.1745 H   0  0  0  0  0  0  0  0  0  0  0  0
    8.6317   -0.4878   21.4284 C   0  0  0  0  0  0  0  0  0  0  0  0
    9.5358    0.5942   20.9391 C   0  0  0  0  0  0  0  0  0  0  0  0
    9.0558    2.0082   21.3113 C   0  0  0  0  0  0  0  0  0  0  0  0
    8.9711    2.2251   22.8230 C   0  0  0  0  0  0  0  0  0  0  0  0
    8.5405    3.5651   23.1731 N   0  0  0  0  0  0  0  0  0  0  0  0
    7.2268    3.9931   23.2194 C   0  0  0  0  0  0  0  0  0  0  0  0
    7.2859    5.3341   23.4506 C   0  0  0  0  0  0  0  0  0  0  0  0
    8.5910    5.7530   23.5367 N   0  0  0  0  0  0  0  0  0  0  0  0
    9.3186    4.6788   23.3492 C   0  0  0  0  0  0  0  0  0  0  0  0
   10.8117    4.6500   23.3506 C   0  0  0  0  0  0  0  0  0  0  0  0
   11.1860    5.6709   23.4457 H   0  0  0  0  0  0  0  0  0  0  0  0
   11.1957    4.0566   24.1882 H   0  0  0  0  0  0  0  0  0  0  0  0
   11.2055    4.2174   22.4230 H   0  0  0  0  0  0  0  0  0  0  0  0
    6.4598    6.0239   23.5648 H   0  0  0  0  0  0  0  0  0  0  0  0
    6.3909    3.3255   23.0634 H   0  0  0  0  0  0  0  0  0  0  0  0
    8.2704    1.5167   23.2741 H   0  0  0  0  0  0  0  0  0  0  0  0
    9.9368    2.0212   23.2967 H   0  0  0  0  0  0  0  0  0  0  0  0
    9.7503    2.7420   20.8901 H   0  0  0  0  0  0  0  0  0  0  0  0
    8.0746    2.1996   20.8576 H   0  0  0  0  0  0  0  0  0  0  0  0
    9.6218    0.5213   19.8519 H   0  0  0  0  0  0  0  0  0  0  0  0
   10.5285    0.4013   21.3563 H   0  0  0  0  0  0  0  0  0  0  0  0
    8.8400   -1.2982   22.4407 N   0  0  0  0  0  0  0  0  0  0  0  0
    9.1357   -2.2080   24.8159 H   0  0  0  0  0  0  0  0  0  0  0  0
    8.8325   -3.7911   26.6939 H   0  0  0  0  0  0  0  0  0  0  0  0
    6.9809   -5.4579   26.6361 H   0  0  0  0  0  0  0  0  0  0  0  0
    5.4632   -5.5322   24.6782 H   0  0  0  0  0  0  0  0  0  0  0  0
    4.8570   -4.9626   22.5360 H   0  0  0  0  0  0  0  0  0  0  0  0
    4.8139   -3.1918   22.3871 H   0  0  0  0  0  0  0  0  0  0  0  0
    6.0116   -4.0921   21.5022 H   0  0  0  0  0  0  0  0  0  0  0  0
  1  2  1  0
  2  3  2  0
  3  4  1  0
  4  5  2  0
  5  6  1  0
  6  7  2  0
  7  8  1  0
  8  9  2  0
  9 10  1  0
 10 11  1  0
 11 12  2  0
 12 13  1  0
 13 14  2  0
 14 15  1  0
 15 16  2  0
 16 17  1  0
 14 18  1  0
 13 19  1  0
 12 20  1  0
 10 21  1  0
 21 22  1  0
 22 23  1  0
 23 24  1  0
 24 25  1  0
 25 26  1  0
 26 27  2  0
 27 28  1  0
 28 29  2  0
 29 30  1  0
 30 31  1  0
 30 32  1  0
 30 33  1  0
 27 34  1  0
 26 35  1  0
 24 36  1  0
 24 37  1  0
 23 38  1  0
 23 39  1  0
 22 40  1  0
 22 41  1  0
 21 42  2  0
  6 43  1  0
  5 44  1  0
  4 45  1  0
  3 46  1  0
  1 47  1  0
  1 48  1  0
  1 49  1  0
  7  2  1  0
 42  8  1  0
 16 11  1  0
 29 25  1  0
M  END
>  <cnnaffinity>  (1) 
-6.29196

>  <filename>  (1) 
Cc1ccccc1-c1nc(CCCn2ccnc2C)n(-c2cccnc2)n1

$$$$
