
     RDKit          3D

 40 43  0  0  0  0  0  0  0  0999 V2000
    7.8752    2.7119   22.0541 C   0  0  0  0  0  0  0  0  0  0  0  0
    9.2546    2.3455   22.5028 C   0  0  0  0  0  0  0  0  0  0  0  0
    9.9853    2.8500   23.5518 C   0  0  0  0  0  0  0  0  0  0  0  0
   11.1723    2.0898   23.5626 C   0  0  0  0  0  0  0  0  0  0  0  0
   11.1782    1.1889   22.5931 N   0  0  0  0  0  0  0  0  0  0  0  0
   10.0176    1.3679   21.9410 N   0  0  0  0  0  0  0  0  0  0  0  0
    9.6148    0.4388   20.9053 C   0  0  0  0  0  0  0  0  0  0  0  0
    8.6271   -0.5531   21.3990 C   0  0  0  0  0  0  0  0  0  0  0  0
    8.8606   -1.4171   22.3542 N   0  0  0  0  0  0  0  0  0  0  0  0
    7.6576   -2.0285   22.5256 C   0  0  0  0  0  0  0  0  0  0  0  0
    7.4284   -3.0511   23.5735 C   0  0  0  0  0  0  0  0  0  0  0  0
    6.1551   -3.6431   23.7078 C   0  0  0  0  0  0  0  0  0  0  0  0
    5.9518   -4.6036   24.6958 C   0  0  0  0  0  0  0  0  0  0  0  0
    4.3824   -5.3334   24.8506 Cl  0  0  0  0  0  0  0  0  0  0  0  0
    6.9741   -4.9956   25.5635 C   0  0  0  0  0  0  0  0  0  0  0  0
    8.2325   -4.3997   25.4278 C   0  0  0  0  0  0  0  0  0  0  0  0
    8.4686   -3.4342   24.4458 C   0  0  0  0  0  0  0  0  0  0  0  0
    9.4525   -2.9756   24.3544 H   0  0  0  0  0  0  0  0  0  0  0  0
    9.0332   -4.6966   26.0989 H   0  0  0  0  0  0  0  0  0  0  0  0
    6.7761   -5.7487   26.3237 H   0  0  0  0  0  0  0  0  0  0  0  0
    5.3329   -3.3542   23.0544 H   0  0  0  0  0  0  0  0  0  0  0  0
    6.7127   -1.6082   21.6989 N   0  0  0  0  0  0  0  0  0  0  0  0
    7.3482   -0.6901   20.9343 N   0  0  0  0  0  0  0  0  0  0  0  0
    6.6533   -0.0016   19.9006 C   0  0  0  0  0  0  0  0  0  0  0  0
    5.4388    0.6414   20.1674 C   0  0  0  0  0  0  0  0  0  0  0  0
    4.8132    1.3110   19.1092 C   0  0  0  0  0  0  0  0  0  0  0  0
    5.3997    1.2967   17.8367 C   0  0  0  0  0  0  0  0  0  0  0  0
    6.5554    0.6691   17.5730 N   0  0  0  0  0  0  0  0  0  0  0  0
    7.1641    0.0470   18.5900 C   0  0  0  0  0  0  0  0  0  0  0  0
    8.1107   -0.4350   18.3623 H   0  0  0  0  0  0  0  0  0  0  0  0
    4.9225    1.7888   16.9920 H   0  0  0  0  0  0  0  0  0  0  0  0
    3.8805    1.8395   19.2586 H   0  0  0  0  0  0  0  0  0  0  0  0
    5.0139    0.6046   21.1758 H   0  0  0  0  0  0  0  0  0  0  0  0
   10.5017   -0.1073   20.5992 H   0  0  0  0  0  0  0  0  0  0  0  0
    9.2117    1.0041   20.0687 H   0  0  0  0  0  0  0  0  0  0  0  0
   12.0108    2.1611   24.2417 H   0  0  0  0  0  0  0  0  0  0  0  0
    9.6800    3.6623   24.1964 H   0  0  0  0  0  0  0  0  0  0  0  0
    7.1282    1.9790   22.3801 H   0  0  0  0  0  0  0  0  0  0  0  0
    7.6054    3.6760   22.4878 H   0  0  0  0  0  0  0  0  0  0  0  0
    7.7945    2.7775   20.9689 H   0  0  0  0  0  0  0  0  0  0  0  0
  1  2  1  0
  2  3  2  0
  3  4  1  0
  4  5  2  0
  5  6  1  0
  6  7  1  0
  7  8  1  0
  8  9  2  0
  9 10  1  0
 10 11  1  0
 11 12  2  0
 12 13  1  0
 13 14  1  0
 13 15  2  0
 15 16  1  0
 16 17  2  0
 17 18  1  0
 16 19  1  0
 15 20  1  0
 12 21  1  0
 10 22  2  0
 22 23  1  0
 23 24  1  0
 24 25  2  0
 25 26  1  0
 26 27  2  0
 27 28  1  0
 28 29  2  0
 29 30  1  0
 27 31  1  0
 26 32  1  0
 25 33  1  0
  7 34  1  0
  7 35  1  0
  4 36  1  0
  3 37  1  0
  1 38  1  0
  1 39  1  0
  1 40  1  0
  6  2  1  0
 23  8  1  0
 29 24  1  0
 17 11  1  0
M  END
>  <cnnaffinity>  (1) 
-6.11065

>  <filename>  (1) 
Cc1ccnn1Cc1nc(-c2cccc(Cl)c2)nn1-c1cccnc1

$$$$
