
     RDKit          3D

 51 54  0  0  0  0  0  0  0  0999 V2000
   12.7579    1.0174   24.6036 C   0  0  0  0  0  0  0  0  0  0  0  0
   11.2840    1.2716   24.7834 C   0  0  0  0  0  0  0  0  0  0  0  0
   10.5922    0.9854   25.9610 C   0  0  0  0  0  0  0  0  0  0  0  0
    9.2049    1.1562   26.0404 C   0  0  0  0  0  0  0  0  0  0  0  0
    8.4795    1.5496   24.9182 C   0  0  0  0  0  0  0  0  0  0  0  0
    9.1717    1.8396   23.7322 C   0  0  0  0  0  0  0  0  0  0  0  0
    8.4189    2.1275   22.6357 O   0  0  0  0  0  0  0  0  0  0  0  0
    9.0022    2.0308   21.3400 C   0  0  0  0  0  0  0  0  0  0  0  0
    9.5315    0.6259   20.9787 C   0  0  0  0  0  0  0  0  0  0  0  0
    8.6298   -0.4610   21.4426 C   0  0  0  0  0  0  0  0  0  0  0  0
    8.8585   -1.3029   22.4297 N   0  0  0  0  0  0  0  0  0  0  0  0
    7.6623   -1.9273   22.5857 C   0  0  0  0  0  0  0  0  0  0  0  0
    7.4019   -2.8585   23.7435 C   0  0  0  0  0  0  0  0  0  0  0  0
    6.7233   -2.1008   24.9222 C   0  0  0  0  0  0  0  0  0  0  0  0
    6.3481   -3.0619   26.0502 C   0  0  0  0  0  0  0  0  0  0  0  0
    5.5468   -4.1320   25.5795 O   0  0  0  0  0  0  0  0  0  0  0  0
    6.1922   -4.9154   24.5911 C   0  0  0  0  0  0  0  0  0  0  0  0
    6.5522   -4.0906   23.3535 C   0  0  0  0  0  0  0  0  0  0  0  0
    5.6298   -3.7487   22.8639 H   0  0  0  0  0  0  0  0  0  0  0  0
    7.0930   -4.7231   22.6392 H   0  0  0  0  0  0  0  0  0  0  0  0
    5.4930   -5.7161   24.3350 H   0  0  0  0  0  0  0  0  0  0  0  0
    7.1013   -5.3833   25.0130 H   0  0  0  0  0  0  0  0  0  0  0  0
    7.2586   -3.4556   26.5383 H   0  0  0  0  0  0  0  0  0  0  0  0
    5.7548   -2.5512   26.8143 H   0  0  0  0  0  0  0  0  0  0  0  0
    7.3893   -1.3191   25.3086 H   0  0  0  0  0  0  0  0  0  0  0  0
    5.8097   -1.6083   24.5620 H   0  0  0  0  0  0  0  0  0  0  0  0
    8.3990   -3.1863   24.0707 H   0  0  0  0  0  0  0  0  0  0  0  0
    6.7282   -1.5546   21.7285 N   0  0  0  0  0  0  0  0  0  0  0  0
    7.3634   -0.6253   20.9681 N   0  0  0  0  0  0  0  0  0  0  0  0
    6.6734    0.0204   19.9051 C   0  0  0  0  0  0  0  0  0  0  0  0
    5.4495    0.6472   20.1565 C   0  0  0  0  0  0  0  0  0  0  0  0
    4.8196    1.3099   19.1017 C   0  0  0  0  0  0  0  0  0  0  0  0
    5.4164    1.3003   17.8342 C   0  0  0  0  0  0  0  0  0  0  0  0
    6.5715    0.6682   17.5774 N   0  0  0  0  0  0  0  0  0  0  0  0
    7.1806    0.0444   18.5932 C   0  0  0  0  0  0  0  0  0  0  0  0
    8.1095   -0.4713   18.3550 H   0  0  0  0  0  0  0  0  0  0  0  0
    4.9457    1.8060   16.9950 H   0  0  0  0  0  0  0  0  0  0  0  0
    3.8827    1.8340   19.2498 H   0  0  0  0  0  0  0  0  0  0  0  0
    5.0229    0.6052   21.1606 H   0  0  0  0  0  0  0  0  0  0  0  0
   10.5190    0.4255   21.4088 H   0  0  0  0  0  0  0  0  0  0  0  0
    9.6375    0.5722   19.8969 H   0  0  0  0  0  0  0  0  0  0  0  0
    9.8109    2.7662   21.2386 H   0  0  0  0  0  0  0  0  0  0  0  0
    8.1921    2.3160   20.6614 H   0  0  0  0  0  0  0  0  0  0  0  0
   10.5665    1.8015   23.7077 C   0  0  0  0  0  0  0  0  0  0  0  0
   11.0934    2.1665   22.8345 H   0  0  0  0  0  0  0  0  0  0  0  0
    7.3964    1.6315   24.9307 H   0  0  0  0  0  0  0  0  0  0  0  0
    8.6937    0.9661   26.9803 H   0  0  0  0  0  0  0  0  0  0  0  0
   11.1183    0.6084   26.8302 H   0  0  0  0  0  0  0  0  0  0  0  0
   12.9348    0.1893   23.8980 H   0  0  0  0  0  0  0  0  0  0  0  0
   13.2356    0.7900   25.5559 H   0  0  0  0  0  0  0  0  0  0  0  0
   13.2554    1.8989   24.1860 H   0  0  0  0  0  0  0  0  0  0  0  0
  1  2  1  0
  2  3  2  0
  3  4  1  0
  4  5  2  0
  5  6  1  0
  6  7  1  0
  7  8  1  0
  8  9  1  0
  9 10  1  0
 10 11  2  0
 11 12  1  0
 12 13  1  0
 13 14  1  0
 14 15  1  0
 15 16  1  0
 16 17  1  0
 17 18  1  0
 18 19  1  0
 18 20  1  0
 17 21  1  0
 17 22  1  0
 15 23  1  0
 15 24  1  0
 14 25  1  0
 14 26  1  0
 13 27  1  0
 12 28  2  0
 28 29  1  0
 29 30  1  0
 30 31  2  0
 31 32  1  0
 32 33  2  0
 33 34  1  0
 34 35  2  0
 35 36  1  0
 33 37  1  0
 32 38  1  0
 31 39  1  0
  9 40  1  0
  9 41  1  0
  8 42  1  0
  8 43  1  0
  6 44  2  0
 44 45  1  0
  5 46  1  0
  4 47  1  0
  3 48  1  0
  1 49  1  0
  1 50  1  0
  1 51  1  0
 44  2  1  0
 29 10  1  0
 35 30  1  0
 18 13  1  0
M  END
>  <cnnaffinity>  (1) 
-6.08104

>  <filename>  (1) 
Cc1cccc(OCCc2nc(C3CCOCC3)nn2-c2cccnc2)c1

$$$$
