
     RDKit          3D

 42 45  0  0  0  0  0  0  0  0999 V2000
    8.2847    2.7567   22.0508 C   0  0  0  0  0  0  0  0  0  0  0  0
    9.6422    2.2762   22.5033 C   0  0  0  0  0  0  0  0  0  0  0  0
   10.3237    2.9128   23.5541 C   0  0  0  0  0  0  0  0  0  0  0  0
   11.5154    2.5379   24.0339 N   0  0  0  0  0  0  0  0  0  0  0  0
   12.1069    1.4850   23.4614 C   0  0  0  0  0  0  0  0  0  0  0  0
   11.5334    0.7817   22.3964 C   0  0  0  0  0  0  0  0  0  0  0  0
   10.2935    1.1842   21.9034 C   0  0  0  0  0  0  0  0  0  0  0  0
    9.6225    0.3655   20.8266 C   0  0  0  0  0  0  0  0  0  0  0  0
    8.5938   -0.5452   21.3900 C   0  0  0  0  0  0  0  0  0  0  0  0
    8.8241   -1.3918   22.3686 N   0  0  0  0  0  0  0  0  0  0  0  0
    7.6252   -2.0057   22.5299 C   0  0  0  0  0  0  0  0  0  0  0  0
    7.4431   -3.0529   23.5559 C   0  0  2  0  0  0  0  0  0  0  0  0
    8.3436   -4.2699   23.5531 C   0  0  0  0  0  0  0  0  0  0  0  0
    6.8936   -4.3989   23.1605 C   0  0  1  0  0  0  0  0  0  0  0  0
    5.9307   -5.1069   24.0859 C   0  0  0  0  0  0  0  0  0  0  0  0
    5.9755   -6.1902   23.9281 H   0  0  0  0  0  0  0  0  0  0  0  0
    6.1853   -4.9109   25.1358 H   0  0  0  0  0  0  0  0  0  0  0  0
    4.8963   -4.7798   23.9236 H   0  0  0  0  0  0  0  0  0  0  0  0
    6.6756   -4.5048   22.0932 H   0  0  0  0  0  0  0  0  0  0  0  0
    9.1227   -4.3158   22.7917 H   0  0  0  0  0  0  0  0  0  0  0  0
    8.6517   -4.6842   24.5140 H   0  0  0  0  0  0  0  0  0  0  0  0
    7.1482   -2.6231   24.5177 H   0  0  0  0  0  0  0  0  0  0  0  0
    6.6671   -1.5896   21.7180 N   0  0  0  0  0  0  0  0  0  0  0  0
    7.3135   -0.6817   20.9437 N   0  0  0  0  0  0  0  0  0  0  0  0
    6.6364   -0.0099   19.8909 C   0  0  0  0  0  0  0  0  0  0  0  0
    5.4305    0.6387   20.1542 C   0  0  0  0  0  0  0  0  0  0  0  0
    4.8055    1.3146   19.1042 C   0  0  0  0  0  0  0  0  0  0  0  0
    5.3955    1.2981   17.8342 C   0  0  0  0  0  0  0  0  0  0  0  0
    6.5473    0.6630   17.5706 N   0  0  0  0  0  0  0  0  0  0  0  0
    7.1538    0.0323   18.5837 C   0  0  0  0  0  0  0  0  0  0  0  0
    8.1044   -0.4447   18.3507 H   0  0  0  0  0  0  0  0  0  0  0  0
    4.9283    1.8034   16.9928 H   0  0  0  0  0  0  0  0  0  0  0  0
    3.8747    1.8487   19.2559 H   0  0  0  0  0  0  0  0  0  0  0  0
    5.0146    0.6006   21.1639 H   0  0  0  0  0  0  0  0  0  0  0  0
   10.3475   -0.2962   20.3514 H   0  0  0  0  0  0  0  0  0  0  0  0
    9.1644    1.0067   20.0747 H   0  0  0  0  0  0  0  0  0  0  0  0
   12.0313   -0.0866   21.9801 H   0  0  0  0  0  0  0  0  0  0  0  0
   13.0700    1.1855   23.8750 H   0  0  0  0  0  0  0  0  0  0  0  0
    9.8633    3.7776   24.0415 H   0  0  0  0  0  0  0  0  0  0  0  0
    7.5257    1.9672   22.1100 H   0  0  0  0  0  0  0  0  0  0  0  0
    8.3324    3.0652   21.0060 H   0  0  0  0  0  0  0  0  0  0  0  0
    7.9387    3.6083   22.6433 H   0  0  0  0  0  0  0  0  0  0  0  0
  1  2  1  0
  2  3  2  0
  3  4  1  0
  4  5  2  0
  5  6  1  0
  6  7  2  0
  7  8  1  0
  8  9  1  0
  9 10  2  0
 10 11  1  0
 11 12  1  0
 12 13  1  0
 13 14  1  0
 14 15  1  0
 15 16  1  0
 15 17  1  0
 15 18  1  0
 14 19  1  6
 13 20  1  0
 13 21  1  0
 12 22  1  1
 11 23  2  0
 23 24  1  0
 24 25  1  0
 25 26  2  0
 26 27  1  0
 27 28  2  0
 28 29  1  0
 29 30  2  0
 30 31  1  0
 28 32  1  0
 27 33  1  0
 26 34  1  0
  8 35  1  0
  8 36  1  0
  6 37  1  0
  5 38  1  0
  3 39  1  0
  1 40  1  0
  1 41  1  0
  1 42  1  0
  7  2  1  0
 24  9  1  0
 30 25  1  0
 14 12  1  0
M  END
>  <cnnaffinity>  (1) 
-6.1533

>  <filename>  (1) 
Cc1cnccc1Cc1nc([C@@H]2C[C@H]2C)nn1-c1cccnc1

$$$$
