
     RDKit          3D

 45 47  0  0  0  0  0  0  0  0999 V2000
    9.6706    2.3027   21.1391 C   0  0  0  0  0  0  0  0  0  0  0  0
    9.7587    2.2668   22.6376 C   0  0  0  0  0  0  0  0  0  0  0  0
   10.9397    2.6477   23.2932 C   0  0  0  0  0  0  0  0  0  0  0  0
   11.1710    2.4907   24.6004 N   0  0  0  0  0  0  0  0  0  0  0  0
   10.1755    1.9854   25.3388 C   0  0  0  0  0  0  0  0  0  0  0  0
    8.9256    1.6641   24.8085 C   0  0  0  0  0  0  0  0  0  0  0  0
    8.6996    1.8045   23.4377 C   0  0  0  0  0  0  0  0  0  0  0  0
    7.3895    1.3325   22.8199 C   0  0  0  0  0  0  0  0  0  0  0  0
    7.5467   -0.0104   22.1738 C   0  0  0  0  0  0  0  0  0  0  0  0
    8.0915   -1.0278   22.8098 N   0  0  0  0  0  0  0  0  0  0  0  0
    8.1274   -2.0042   21.8719 C   0  0  0  0  0  0  0  0  0  0  0  0
    8.6610   -3.3802   22.1221 C   0  0  0  0  0  0  0  0  0  0  0  0
    7.7454   -4.1166   22.9136 O   0  0  0  0  0  0  0  0  0  0  0  0
    8.0723   -5.4513   23.2738 C   0  0  0  0  0  0  0  0  0  0  0  0
    7.5465   -5.6460   24.6982 C   0  0  0  0  0  0  0  0  0  0  0  0
    7.6954   -4.7287   25.2792 H   0  0  0  0  0  0  0  0  0  0  0  0
    8.0599   -6.4601   25.2168 H   0  0  0  0  0  0  0  0  0  0  0  0
    6.4732   -5.8690   24.7011 H   0  0  0  0  0  0  0  0  0  0  0  0
    7.4314   -6.3880   22.2502 C   0  0  0  0  0  0  0  0  0  0  0  0
    6.3419   -6.2729   22.2934 H   0  0  0  0  0  0  0  0  0  0  0  0
    7.7588   -6.1127   21.2385 H   0  0  0  0  0  0  0  0  0  0  0  0
    7.6780   -7.4397   22.4356 H   0  0  0  0  0  0  0  0  0  0  0  0
    9.1653   -5.5863   23.2679 H   0  0  0  0  0  0  0  0  0  0  0  0
    8.8070   -3.8296   21.1310 H   0  0  0  0  0  0  0  0  0  0  0  0
    9.6437   -3.2930   22.6115 H   0  0  0  0  0  0  0  0  0  0  0  0
    7.6698   -1.6547   20.6880 N   0  0  0  0  0  0  0  0  0  0  0  0
    7.2450   -0.3811   20.8827 N   0  0  0  0  0  0  0  0  0  0  0  0
    6.5487    0.2757   19.8245 C   0  0  0  0  0  0  0  0  0  0  0  0
    5.3326    0.9441   20.0130 C   0  0  0  0  0  0  0  0  0  0  0  0
    4.7065    1.5013   18.8878 C   0  0  0  0  0  0  0  0  0  0  0  0
    5.3280    1.4010   17.6380 C   0  0  0  0  0  0  0  0  0  0  0  0
    6.4877    0.7482   17.4510 N   0  0  0  0  0  0  0  0  0  0  0  0
    7.0630    0.1854   18.5172 C   0  0  0  0  0  0  0  0  0  0  0  0
    7.9677   -0.3841   18.3308 H   0  0  0  0  0  0  0  0  0  0  0  0
    4.8951    1.8655   16.7535 H   0  0  0  0  0  0  0  0  0  0  0  0
    3.7624    2.0304   18.9697 H   0  0  0  0  0  0  0  0  0  0  0  0
    4.8666    1.0053   20.9990 H   0  0  0  0  0  0  0  0  0  0  0  0
    6.6472    1.2111   23.6140 H   0  0  0  0  0  0  0  0  0  0  0  0
    7.0049    2.0527   22.0942 H   0  0  0  0  0  0  0  0  0  0  0  0
    8.1479    1.2851   25.4626 H   0  0  0  0  0  0  0  0  0  0  0  0
   10.3946    1.8301   26.3921 H   0  0  0  0  0  0  0  0  0  0  0  0
   11.7563    3.0773   22.7120 H   0  0  0  0  0  0  0  0  0  0  0  0
   10.6255    2.5988   20.6950 H   0  0  0  0  0  0  0  0  0  0  0  0
    8.8993    3.0054   20.8088 H   0  0  0  0  0  0  0  0  0  0  0  0
    9.4015    1.3157   20.7432 H   0  0  0  0  0  0  0  0  0  0  0  0
  1  2  1  0
  2  3  2  0
  3  4  1  0
  4  5  2  0
  5  6  1  0
  6  7  2  0
  7  8  1  0
  8  9  1  0
  9 10  2  0
 10 11  1  0
 11 12  1  0
 12 13  1  0
 13 14  1  0
 14 15  1  0
 15 16  1  0
 15 17  1  0
 15 18  1  0
 14 19  1  0
 19 20  1  0
 19 21  1  0
 19 22  1  0
 14 23  1  0
 12 24  1  0
 12 25  1  0
 11 26  2  0
 26 27  1  0
 27 28  1  0
 28 29  2  0
 29 30  1  0
 30 31  2  0
 31 32  1  0
 32 33  2  0
 33 34  1  0
 31 35  1  0
 30 36  1  0
 29 37  1  0
  8 38  1  0
  8 39  1  0
  6 40  1  0
  5 41  1  0
  3 42  1  0
  1 43  1  0
  1 44  1  0
  1 45  1  0
  7  2  1  0
 27  9  1  0
 33 28  1  0
M  END
>  <cnnaffinity>  (1) 
-5.87165

>  <filename>  (1) 
Cc1cnccc1Cc1nc(COC(C)C)nn1-c1cccnc1

$$$$
