
     RDKit          3D

 45 48  0  0  0  0  0  0  0  0999 V2000
    6.0407    6.0030   23.7929 C   0  0  0  0  0  0  0  0  0  0  0  0
    7.3126    5.2610   23.5875 C   0  0  0  0  0  0  0  0  0  0  0  0
    8.6035    5.6455   23.6669 C   0  0  0  0  0  0  0  0  0  0  0  0
    9.4389    4.5643   23.4527 N   0  0  0  0  0  0  0  0  0  0  0  0
    8.6247    3.5820   23.2470 C   0  0  0  0  0  0  0  0  0  0  0  0
    8.9903    2.2004   22.8596 C   0  0  0  0  0  0  0  0  0  0  0  0
    9.0464    2.0122   21.3318 C   0  0  0  0  0  0  0  0  0  0  0  0
    9.5322    0.6095   20.9378 C   0  0  0  0  0  0  0  0  0  0  0  0
    8.6405   -0.4744   21.4255 C   0  0  0  0  0  0  0  0  0  0  0  0
    8.8775   -1.2919   22.4325 N   0  0  0  0  0  0  0  0  0  0  0  0
    7.7029   -1.9553   22.5634 C   0  0  0  0  0  0  0  0  0  0  0  0
    7.4613   -2.9639   23.6341 C   0  0  0  0  0  0  0  0  0  0  0  0
    6.7759   -4.2850   23.1750 C   0  0  0  0  0  0  0  0  0  0  0  0
    5.5584   -3.9551   24.0690 C   0  0  0  0  0  0  0  0  0  0  0  0
    6.2487   -2.6669   24.5708 C   0  0  0  0  0  0  0  0  0  0  0  0
    6.4847   -2.6444   25.6379 H   0  0  0  0  0  0  0  0  0  0  0  0
    5.7320   -1.7325   24.3358 H   0  0  0  0  0  0  0  0  0  0  0  0
    5.3421   -4.6922   24.8468 H   0  0  0  0  0  0  0  0  0  0  0  0
    4.6320   -3.7787   23.5146 H   0  0  0  0  0  0  0  0  0  0  0  0
    6.5682   -4.3223   22.1008 H   0  0  0  0  0  0  0  0  0  0  0  0
    7.3190   -5.1944   23.4456 H   0  0  0  0  0  0  0  0  0  0  0  0
    8.4050   -3.1030   24.1631 H   0  0  0  0  0  0  0  0  0  0  0  0
    6.7678   -1.6107   21.6956 N   0  0  0  0  0  0  0  0  0  0  0  0
    7.3776   -0.6644   20.9406 N   0  0  0  0  0  0  0  0  0  0  0  0
    6.6629    0.0063   19.9055 C   0  0  0  0  0  0  0  0  0  0  0  0
    5.4420    0.6401   20.1705 C   0  0  0  0  0  0  0  0  0  0  0  0
    4.8143    1.3078   19.1115 C   0  0  0  0  0  0  0  0  0  0  0  0
    5.4013    1.2956   17.8385 C   0  0  0  0  0  0  0  0  0  0  0  0
    6.5610    0.6736   17.5762 N   0  0  0  0  0  0  0  0  0  0  0  0
    7.1693    0.0547   18.5947 C   0  0  0  0  0  0  0  0  0  0  0  0
    8.1130   -0.4343   18.3695 H   0  0  0  0  0  0  0  0  0  0  0  0
    4.9193    1.7853   16.9945 H   0  0  0  0  0  0  0  0  0  0  0  0
    3.8812    1.8386   19.2616 H   0  0  0  0  0  0  0  0  0  0  0  0
    5.0153    0.6100   21.1765 H   0  0  0  0  0  0  0  0  0  0  0  0
    9.6116    0.5436   19.8513 H   0  0  0  0  0  0  0  0  0  0  0  0
   10.5236    0.4105   21.3533 H   0  0  0  0  0  0  0  0  0  0  0  0
    9.7366    2.7452   20.9024 H   0  0  0  0  0  0  0  0  0  0  0  0
    8.0615    2.2009   20.8857 H   0  0  0  0  0  0  0  0  0  0  0  0
    9.9815    2.0219   23.2834 H   0  0  0  0  0  0  0  0  0  0  0  0
    8.3087    1.4791   23.3196 H   0  0  0  0  0  0  0  0  0  0  0  0
    7.3127    3.9214   23.3098 O   0  0  0  0  0  0  0  0  0  0  0  0
    8.9726    6.6375   23.8888 H   0  0  0  0  0  0  0  0  0  0  0  0
    5.8990    6.2306   24.8563 H   0  0  0  0  0  0  0  0  0  0  0  0
    6.1188    6.9734   23.2944 H   0  0  0  0  0  0  0  0  0  0  0  0
    5.1578    5.4783   23.4212 H   0  0  0  0  0  0  0  0  0  0  0  0
  1  2  1  0
  2  3  2  0
  3  4  1  0
  4  5  2  0
  5  6  1  0
  6  7  1  0
  7  8  1  0
  8  9  1  0
  9 10  2  0
 10 11  1  0
 11 12  1  0
 12 13  1  0
 13 14  1  0
 14 15  1  0
 15 16  1  0
 15 17  1  0
 14 18  1  0
 14 19  1  0
 13 20  1  0
 13 21  1  0
 12 22  1  0
 11 23  2  0
 23 24  1  0
 24 25  1  0
 25 26  2  0
 26 27  1  0
 27 28  2  0
 28 29  1  0
 29 30  2  0
 30 31  1  0
 28 32  1  0
 27 33  1  0
 26 34  1  0
  8 35  1  0
  8 36  1  0
  7 37  1  0
  7 38  1  0
  6 39  1  0
  6 40  1  0
  5 41  1  0
  3 42  1  0
  1 43  1  0
  1 44  1  0
  1 45  1  0
 41  2  1  0
 24  9  1  0
 30 25  1  0
 15 12  1  0
M  END
>  <cnnaffinity>  (1) 
-6.12955

>  <filename>  (1) 
Cc1cnc(CCCc2nc(C3CCC3)nn2-c2cccnc2)o1

$$$$
