
     RDKit          3D

 49 52  0  0  0  0  0  0  0  0999 V2000
    7.7159    2.8760   21.7682 C   0  0  0  0  0  0  0  0  0  0  0  0
    9.0486    2.4942   22.3490 C   0  0  0  0  0  0  0  0  0  0  0  0
    9.9137    1.4817   21.9748 C   0  0  0  0  0  0  0  0  0  0  0  0
    9.6372    0.4296   20.9190 C   0  0  0  0  0  0  0  0  0  0  0  0
    8.6205   -0.5790   21.3644 C   0  0  0  0  0  0  0  0  0  0  0  0
    8.8454   -1.4583   22.3192 N   0  0  0  0  0  0  0  0  0  0  0  0
    7.6378   -2.0507   22.4852 C   0  0  0  0  0  0  0  0  0  0  0  0
    7.3996   -3.0581   23.5690 C   0  0  0  0  0  0  0  0  0  0  0  0
    6.4626   -2.4911   24.6787 C   0  0  0  0  0  0  0  0  0  0  0  0
    6.1730   -3.5392   25.7662 C   0  0  0  0  0  0  0  0  0  0  0  0
    5.6532   -4.8341   25.1634 C   0  0  0  0  0  0  0  0  0  0  0  0
    5.4827   -5.7632   26.1544 F   0  0  0  0  0  0  0  0  0  0  0  0
    4.4049   -4.6095   24.6251 F   0  0  0  0  0  0  0  0  0  0  0  0
    6.5560   -5.4100   24.0856 C   0  0  0  0  0  0  0  0  0  0  0  0
    6.8451   -4.3823   22.9820 C   0  0  0  0  0  0  0  0  0  0  0  0
    7.5577   -4.7976   22.2576 H   0  0  0  0  0  0  0  0  0  0  0  0
    5.9253   -4.1579   22.4233 H   0  0  0  0  0  0  0  0  0  0  0  0
    7.4870   -5.7206   24.5777 H   0  0  0  0  0  0  0  0  0  0  0  0
    6.0697   -6.3079   23.6899 H   0  0  0  0  0  0  0  0  0  0  0  0
    5.4275   -3.1862   26.4879 H   0  0  0  0  0  0  0  0  0  0  0  0
    7.0848   -3.7842   26.3263 H   0  0  0  0  0  0  0  0  0  0  0  0
    5.5168   -2.1748   24.2213 H   0  0  0  0  0  0  0  0  0  0  0  0
    6.9056   -1.5931   25.1310 H   0  0  0  0  0  0  0  0  0  0  0  0
    8.3922   -3.2343   24.0080 H   0  0  0  0  0  0  0  0  0  0  0  0
    6.6931   -1.6259   21.6644 N   0  0  0  0  0  0  0  0  0  0  0  0
    7.3377   -0.6892   20.9217 N   0  0  0  0  0  0  0  0  0  0  0  0
    6.6459   -0.0096   19.8869 C   0  0  0  0  0  0  0  0  0  0  0  0
    5.4312    0.6295   20.1532 C   0  0  0  0  0  0  0  0  0  0  0  0
    4.8005    1.3116   19.1066 C   0  0  0  0  0  0  0  0  0  0  0  0
    5.3947    1.3015   17.8377 C   0  0  0  0  0  0  0  0  0  0  0  0
    6.5444    0.6659   17.5696 N   0  0  0  0  0  0  0  0  0  0  0  0
    7.1538    0.0352   18.5784 C   0  0  0  0  0  0  0  0  0  0  0  0
    8.0980   -0.4555   18.3450 H   0  0  0  0  0  0  0  0  0  0  0  0
    4.9292    1.8190   17.0012 H   0  0  0  0  0  0  0  0  0  0  0  0
    3.8688    1.8504   19.2565 H   0  0  0  0  0  0  0  0  0  0  0  0
    5.0073    0.5904   21.1573 H   0  0  0  0  0  0  0  0  0  0  0  0
    9.2887    0.8824   19.9895 H   0  0  0  0  0  0  0  0  0  0  0  0
   10.5445   -0.1363   20.6981 H   0  0  0  0  0  0  0  0  0  0  0  0
   10.9376    1.5167   22.9449 C   0  0  0  0  0  0  0  0  0  0  0  0
   10.7411    2.4762   23.8353 N   0  0  0  0  0  0  0  0  0  0  0  0
    9.5923    3.0610   23.4626 N   0  0  0  0  0  0  0  0  0  0  0  0
    9.0892    4.1833   24.2291 C   0  0  0  0  0  0  0  0  0  0  0  0
    9.7483    4.3090   25.0907 H   0  0  0  0  0  0  0  0  0  0  0  0
    8.0669    3.9775   24.5655 H   0  0  0  0  0  0  0  0  0  0  0  0
    9.0994    5.0911   23.6152 H   0  0  0  0  0  0  0  0  0  0  0  0
   11.7871    0.8490   23.0612 H   0  0  0  0  0  0  0  0  0  0  0  0
    6.8847    2.3673   22.2783 H   0  0  0  0  0  0  0  0  0  0  0  0
    7.6897    2.5609   20.7230 H   0  0  0  0  0  0  0  0  0  0  0  0
    7.5144    3.9535   21.8121 H   0  0  0  0  0  0  0  0  0  0  0  0
  1  2  1  0
  2  3  2  0
  3  4  1  0
  4  5  1  0
  5  6  2  0
  6  7  1  0
  7  8  1  0
  8  9  1  0
  9 10  1  0
 10 11  1  0
 11 12  1  0
 11 13  1  0
 11 14  1  0
 14 15  1  0
 15 16  1  0
 15 17  1  0
 14 18  1  0
 14 19  1  0
 10 20  1  0
 10 21  1  0
  9 22  1  0
  9 23  1  0
  8 24  1  0
  7 25  2  0
 25 26  1  0
 26 27  1  0
 27 28  2  0
 28 29  1  0
 29 30  2  0
 30 31  1  0
 31 32  2  0
 32 33  1  0
 30 34  1  0
 29 35  1  0
 28 36  1  0
  4 37  1  0
  4 38  1  0
  3 39  1  0
 39 40  2  0
 40 41  1  0
 41 42  1  0
 42 43  1  0
 42 44  1  0
 42 45  1  0
 39 46  1  0
  1 47  1  0
  1 48  1  0
  1 49  1  0
 41  2  1  0
 26  5  1  0
 32 27  1  0
 15  8  1  0
M  END
>  <cnnaffinity>  (1) 
-6.18163

>  <filename>  (1) 
Cc1c(Cc2nc(C3CCC(F)(F)CC3)nn2-c2cccnc2)cnn1C

$$$$
