
     RDKit          3D

 35 36  0  0  0  0  0  0  0  0999 V2000
    5.4492   -4.4302   23.6384 C   0  0  0  0  0  0  0  0  0  0  0  0
    5.5023   -4.9126   22.2022 C   0  0  0  0  0  0  0  0  0  0  0  0
    5.2823   -6.2568   21.8992 C   0  0  0  0  0  0  0  0  0  0  0  0
    5.2487   -6.6897   20.5730 C   0  0  0  0  0  0  0  0  0  0  0  0
    5.4492   -5.8038   19.5181 C   0  0  0  0  0  0  0  0  0  0  0  0
    5.6616   -4.4564   19.8144 C   0  0  0  0  0  0  0  0  0  0  0  0
    5.7112   -3.3278   18.4875 Cl  0  0  0  0  0  0  0  0  0  0  0  0
    5.7177   -3.9970   21.1413 C   0  0  0  0  0  0  0  0  0  0  0  0
    6.0316   -2.5471   21.4298 C   0  0  0  0  0  0  0  0  0  0  0  0
    7.4328   -2.2096   21.1024 N   0  0  0  0  0  0  0  0  0  0  0  0
    8.4632   -3.0391   21.7506 C   0  0  0  0  0  0  0  0  0  0  0  0
    8.2979   -4.0896   21.4864 H   0  0  0  0  0  0  0  0  0  0  0  0
    9.4441   -2.7523   21.3649 H   0  0  0  0  0  0  0  0  0  0  0  0
    8.4555   -2.9560   22.8491 H   0  0  0  0  0  0  0  0  0  0  0  0
    7.7255   -0.5623   21.3087 S   0  0  0  0  0  0  0  0  0  0  0  0
    9.1170   -0.3161   20.9868 O   0  0  0  0  0  0  0  0  0  0  0  0
    7.1406   -0.1401   22.5688 O   0  0  0  0  0  0  0  0  0  0  0  0
    6.7590    0.0580   20.0303 C   0  0  0  0  0  0  0  0  0  0  0  0
    5.5469    0.7277   20.2160 C   0  0  0  0  0  0  0  0  0  0  0  0
    4.9605    1.2508   19.0683 C   0  0  0  0  0  0  0  0  0  0  0  0
    5.6142    1.0919   17.8396 C   0  0  0  0  0  0  0  0  0  0  0  0
    6.7550    0.4020   17.6928 N   0  0  0  0  0  0  0  0  0  0  0  0
    7.3163   -0.1266   18.7776 C   0  0  0  0  0  0  0  0  0  0  0  0
    8.2415   -0.6793   18.6200 H   0  0  0  0  0  0  0  0  0  0  0  0
    5.2056    1.5404   16.9387 H   0  0  0  0  0  0  0  0  0  0  0  0
    4.0382    1.8156   19.1167 H   0  0  0  0  0  0  0  0  0  0  0  0
    5.0958    0.8538   21.2050 H   0  0  0  0  0  0  0  0  0  0  0  0
    5.3675   -1.9349   20.8107 H   0  0  0  0  0  0  0  0  0  0  0  0
    5.8115   -2.3003   22.4752 H   0  0  0  0  0  0  0  0  0  0  0  0
    5.4103   -6.1578   18.4918 H   0  0  0  0  0  0  0  0  0  0  0  0
    4.9833   -7.7102   20.3246 H   0  0  0  0  0  0  0  0  0  0  0  0
    5.1038   -6.9539   22.7170 H   0  0  0  0  0  0  0  0  0  0  0  0
    6.3921   -3.9587   23.9434 H   0  0  0  0  0  0  0  0  0  0  0  0
    4.6598   -3.6788   23.7641 H   0  0  0  0  0  0  0  0  0  0  0  0
    5.2511   -5.2431   24.3418 H   0  0  0  0  0  0  0  0  0  0  0  0
  1  2  1  0
  2  3  2  0
  3  4  1  0
  4  5  2  0
  5  6  1  0
  6  7  1  0
  6  8  2  0
  8  9  1  0
  9 10  1  0
 10 11  1  0
 11 12  1  0
 11 13  1  0
 11 14  1  0
 10 15  1  0
 15 16  2  0
 15 17  2  0
 15 18  1  0
 18 19  2  0
 19 20  1  0
 20 21  2  0
 21 22  1  0
 22 23  2  0
 23 24  1  0
 21 25  1  0
 20 26  1  0
 19 27  1  0
  9 28  1  0
  9 29  1  0
  5 30  1  0
  4 31  1  0
  3 32  1  0
  1 33  1  0
  1 34  1  0
  1 35  1  0
  8  2  1  0
 23 18  1  0
M  END
>  <cnnaffinity>  (1) 
-4.92657

>  <filename>  (1) 
Cc1cccc(Cl)c1CN(C)S(=O)(=O)c1cccnc1

$$$$
