
     RDKit          3D

 40 44  0  0  0  0  0  0  0  0999 V2000
    5.0063    2.6955   25.8592 C   0  0  0  0  0  0  0  0  0  0  0  0
    5.8322    2.5642   24.6004 C   0  0  0  0  0  0  0  0  0  0  0  0
    6.4332    3.6646   23.9723 C   0  0  0  0  0  0  0  0  0  0  0  0
    7.2204    3.5810   22.8966 N   0  0  0  0  0  0  0  0  0  0  0  0
    7.4444    2.3861   22.3858 C   0  0  0  0  0  0  0  0  0  0  0  0
    8.5189    2.3382   21.0317 Cl  0  0  0  0  0  0  0  0  0  0  0  0
    6.8839    1.1972   22.8881 C   0  0  0  0  0  0  0  0  0  0  0  0
    7.2150   -0.1360   22.3704 C   0  0  0  0  0  0  0  0  0  0  0  0
    7.7295   -1.0791   23.1305 N   0  0  0  0  0  0  0  0  0  0  0  0
    8.0019   -2.0803   22.2592 C   0  0  0  0  0  0  0  0  0  0  0  0
    8.7390   -3.2998   22.6860 C   0  0  0  0  0  0  0  0  0  0  0  0
    8.4624   -3.9666   24.0411 C   0  0  0  0  0  0  0  0  0  0  0  0
    8.0861   -4.6459   22.7530 C   0  0  0  0  0  0  0  0  0  0  0  0
    8.1898   -5.9196   21.9962 C   0  0  0  0  0  0  0  0  0  0  0  0
    6.8570   -5.1718   22.1120 C   0  0  0  0  0  0  0  0  0  0  0  0
    6.1085   -5.6153   22.7712 H   0  0  0  0  0  0  0  0  0  0  0  0
    6.5030   -4.5805   21.2665 H   0  0  0  0  0  0  0  0  0  0  0  0
    8.2830   -6.8574   22.5412 H   0  0  0  0  0  0  0  0  0  0  0  0
    8.7376   -5.8857   21.0577 H   0  0  0  0  0  0  0  0  0  0  0  0
    9.3245   -4.3043   24.6210 H   0  0  0  0  0  0  0  0  0  0  0  0
    7.6149   -3.6029   24.6233 H   0  0  0  0  0  0  0  0  0  0  0  0
    9.7752   -3.2939   22.3496 H   0  0  0  0  0  0  0  0  0  0  0  0
    7.6560   -1.8300   21.0060 N   0  0  0  0  0  0  0  0  0  0  0  0
    7.1094   -0.5811   21.0792 N   0  0  0  0  0  0  0  0  0  0  0  0
    6.5527    0.0600   19.9377 C   0  0  0  0  0  0  0  0  0  0  0  0
    5.4719    0.9466   20.0590 C   0  0  0  0  0  0  0  0  0  0  0  0
    4.9949    1.5653   18.8998 C   0  0  0  0  0  0  0  0  0  0  0  0
    5.5959    1.2714   17.6715 C   0  0  0  0  0  0  0  0  0  0  0  0
    6.6344    0.4251   17.5512 N   0  0  0  0  0  0  0  0  0  0  0  0
    7.0945   -0.1681   18.6576 C   0  0  0  0  0  0  0  0  0  0  0  0
    7.9399   -0.8420   18.5292 H   0  0  0  0  0  0  0  0  0  0  0  0
    5.2387    1.7339   16.7542 H   0  0  0  0  0  0  0  0  0  0  0  0
    4.1845    2.2904   18.9387 H   0  0  0  0  0  0  0  0  0  0  0  0
    5.0169    1.1508   21.0292 H   0  0  0  0  0  0  0  0  0  0  0  0
    6.0838    1.3132   24.0284 C   0  0  0  0  0  0  0  0  0  0  0  0
    5.6750    0.4115   24.4840 H   0  0  0  0  0  0  0  0  0  0  0  0
    6.3042    4.6703   24.3688 H   0  0  0  0  0  0  0  0  0  0  0  0
    4.1846    1.9752   25.8729 H   0  0  0  0  0  0  0  0  0  0  0  0
    4.5712    3.6921   25.9810 H   0  0  0  0  0  0  0  0  0  0  0  0
    5.6096    2.4987   26.7510 H   0  0  0  0  0  0  0  0  0  0  0  0
  1  2  1  0
  2  3  2  0
  3  4  1  0
  4  5  2  0
  5  6  1  0
  5  7  1  0
  7  8  1  0
  8  9  2  0
  9 10  1  0
 10 11  1  0
 11 12  1  0
 12 13  1  0
 13 14  1  0
 14 15  1  0
 15 16  1  0
 15 17  1  0
 14 18  1  0
 14 19  1  0
 12 20  1  0
 12 21  1  0
 11 22  1  0
 10 23  2  0
 23 24  1  0
 24 25  1  0
 25 26  2  0
 26 27  1  0
 27 28  2  0
 28 29  1  0
 29 30  2  0
 30 31  1  0
 28 32  1  0
 27 33  1  0
 26 34  1  0
  7 35  2  0
 35 36  1  0
  3 37  1  0
  1 38  1  0
  1 39  1  0
  1 40  1  0
 35  2  1  0
 24  8  1  0
 30 25  1  0
 13 11  1  0
 15 13  1  0
M  END
>  <cnnaffinity>  (1) 
-5.82621

>  <filename>  (1) 
Cc1cnc(Cl)c(-c2nc(C3CC34CC4)nn2-c2cccnc2)c1

$$$$
