
     RDKit          3D

 45 48  0  0  0  0  0  0  0  0999 V2000
    6.1404    6.3524   23.6042 C   0  0  0  0  0  0  0  0  0  0  0  0
    7.2688    5.4007   23.4259 C   0  0  0  0  0  0  0  0  0  0  0  0
    8.5201    5.7545   23.5665 N   0  0  0  0  0  0  0  0  0  0  0  0
    9.2589    4.5999   23.3567 O   0  0  0  0  0  0  0  0  0  0  0  0
    8.4258    3.5812   23.1180 C   0  0  0  0  0  0  0  0  0  0  0  0
    8.9618    2.2389   22.7948 C   0  0  0  0  0  0  0  0  0  0  0  0
    9.0532    2.0153   21.2783 C   0  0  0  0  0  0  0  0  0  0  0  0
    9.5409    0.6078   20.9257 C   0  0  0  0  0  0  0  0  0  0  0  0
    8.6432   -0.4668   21.4257 C   0  0  0  0  0  0  0  0  0  0  0  0
    8.8811   -1.2787   22.4373 N   0  0  0  0  0  0  0  0  0  0  0  0
    7.7056   -1.9397   22.5742 C   0  0  0  0  0  0  0  0  0  0  0  0
    7.4633   -2.9373   23.6538 C   0  0  0  0  0  0  0  0  0  0  0  0
    6.7624   -4.2549   23.2118 C   0  0  0  0  0  0  0  0  0  0  0  0
    5.5562   -3.9062   24.1111 C   0  0  0  0  0  0  0  0  0  0  0  0
    6.2607   -2.6212   24.5958 C   0  0  0  0  0  0  0  0  0  0  0  0
    6.5049   -2.5938   25.6608 H   0  0  0  0  0  0  0  0  0  0  0  0
    5.7498   -1.6858   24.3539 H   0  0  0  0  0  0  0  0  0  0  0  0
    5.3425   -4.6339   24.8976 H   0  0  0  0  0  0  0  0  0  0  0  0
    4.6282   -3.7254   23.5615 H   0  0  0  0  0  0  0  0  0  0  0  0
    6.5447   -4.2975   22.1404 H   0  0  0  0  0  0  0  0  0  0  0  0
    7.2981   -5.1666   23.4884 H   0  0  0  0  0  0  0  0  0  0  0  0
    8.4066   -3.0844   24.1803 H   0  0  0  0  0  0  0  0  0  0  0  0
    6.7693   -1.5991   21.7053 N   0  0  0  0  0  0  0  0  0  0  0  0
    7.3803   -0.6594   20.9440 N   0  0  0  0  0  0  0  0  0  0  0  0
    6.6637    0.0076   19.9059 C   0  0  0  0  0  0  0  0  0  0  0  0
    5.4422    0.6406   20.1707 C   0  0  0  0  0  0  0  0  0  0  0  0
    4.8137    1.3080   19.1111 C   0  0  0  0  0  0  0  0  0  0  0  0
    5.4020    1.2955   17.8384 C   0  0  0  0  0  0  0  0  0  0  0  0
    6.5622    0.6740   17.5760 N   0  0  0  0  0  0  0  0  0  0  0  0
    7.1699    0.0557   18.5950 C   0  0  0  0  0  0  0  0  0  0  0  0
    8.1132   -0.4343   18.3708 H   0  0  0  0  0  0  0  0  0  0  0  0
    4.9175    1.7844   16.9944 H   0  0  0  0  0  0  0  0  0  0  0  0
    3.8795    1.8395   19.2622 H   0  0  0  0  0  0  0  0  0  0  0  0
    5.0141    0.6098   21.1759 H   0  0  0  0  0  0  0  0  0  0  0  0
   10.5235    0.4252   21.3652 H   0  0  0  0  0  0  0  0  0  0  0  0
    9.6332    0.5164   19.8427 H   0  0  0  0  0  0  0  0  0  0  0  0
    8.0771    2.1950   20.8069 H   0  0  0  0  0  0  0  0  0  0  0  0
    9.7463    2.7460   20.8560 H   0  0  0  0  0  0  0  0  0  0  0  0
    8.2726    1.5076   23.2290 H   0  0  0  0  0  0  0  0  0  0  0  0
    9.9337    2.0779   23.2717 H   0  0  0  0  0  0  0  0  0  0  0  0
    7.1454    4.0198   23.1322 C   0  0  0  0  0  0  0  0  0  0  0  0
    6.2459    3.4578   22.9425 H   0  0  0  0  0  0  0  0  0  0  0  0
    5.3220    6.0931   22.9300 H   0  0  0  0  0  0  0  0  0  0  0  0
    5.7541    6.2732   24.6230 H   0  0  0  0  0  0  0  0  0  0  0  0
    6.4438    7.3828   23.4181 H   0  0  0  0  0  0  0  0  0  0  0  0
  1  2  1  0
  2  3  2  0
  3  4  1  0
  4  5  1  0
  5  6  1  0
  6  7  1  0
  7  8  1  0
  8  9  1  0
  9 10  2  0
 10 11  1  0
 11 12  1  0
 12 13  1  0
 13 14  1  0
 14 15  1  0
 15 16  1  0
 15 17  1  0
 14 18  1  0
 14 19  1  0
 13 20  1  0
 13 21  1  0
 12 22  1  0
 11 23  2  0
 23 24  1  0
 24 25  1  0
 25 26  2  0
 26 27  1  0
 27 28  2  0
 28 29  1  0
 29 30  2  0
 30 31  1  0
 28 32  1  0
 27 33  1  0
 26 34  1  0
  8 35  1  0
  8 36  1  0
  7 37  1  0
  7 38  1  0
  6 39  1  0
  6 40  1  0
  5 41  2  0
 41 42  1  0
  1 43  1  0
  1 44  1  0
  1 45  1  0
 41  2  1  0
 24  9  1  0
 30 25  1  0
 15 12  1  0
M  END
>  <cnnaffinity>  (1) 
-6.04632

>  <filename>  (1) 
Cc1cc(CCCc2nc(C3CCC3)nn2-c2cccnc2)on1

$$$$
