
     RDKit          3D

 53 56  0  0  0  0  0  0  0  0999 V2000
    9.2007    7.0578   23.9345 C   0  0  0  0  0  0  0  0  0  0  0  0
    8.5046    5.7267   23.9851 C   0  0  0  0  0  0  0  0  0  0  0  0
    7.1910    5.6176   24.4508 C   0  0  0  0  0  0  0  0  0  0  0  0
    6.5406    4.3825   24.4592 C   0  0  0  0  0  0  0  0  0  0  0  0
    7.1819    3.2214   24.0093 C   0  0  0  0  0  0  0  0  0  0  0  0
    6.4476    1.9020   24.0309 C   0  0  0  0  0  0  0  0  0  0  0  0
    6.8504    1.2439   24.8096 H   0  0  0  0  0  0  0  0  0  0  0  0
    6.5320    1.3579   23.0816 H   0  0  0  0  0  0  0  0  0  0  0  0
    5.3864    2.0456   24.2476 H   0  0  0  0  0  0  0  0  0  0  0  0
    8.5189    3.3183   23.5613 C   0  0  0  0  0  0  0  0  0  0  0  0
    9.2549    2.1250   23.0003 C   0  0  0  0  0  0  0  0  0  0  0  0
    9.0640    1.9847   21.4818 C   0  0  0  0  0  0  0  0  0  0  0  0
    9.5208    0.6156   20.9507 C   0  0  0  0  0  0  0  0  0  0  0  0
    8.6271   -0.4872   21.4255 C   0  0  0  0  0  0  0  0  0  0  0  0
    8.8355   -1.2910   22.4485 N   0  0  0  0  0  0  0  0  0  0  0  0
    7.6415   -1.9328   22.5831 C   0  0  0  0  0  0  0  0  0  0  0  0
    7.4026   -2.8740   23.7084 C   0  0  0  0  0  0  0  0  0  0  0  0
    8.5116   -3.9150   23.9495 C   0  0  0  0  0  0  0  0  0  0  0  0
    8.4076   -4.1948   25.4505 C   0  0  0  0  0  0  0  0  0  0  0  0
    7.7289   -3.0912   26.0293 O   0  0  0  0  0  0  0  0  0  0  0  0
    7.3222   -2.1481   25.0602 C   0  0  0  0  0  0  0  0  0  0  0  0
    7.9805   -1.2621   25.0963 H   0  0  0  0  0  0  0  0  0  0  0  0
    6.3005   -1.8209   25.3079 H   0  0  0  0  0  0  0  0  0  0  0  0
    9.3943   -4.3065   25.9269 H   0  0  0  0  0  0  0  0  0  0  0  0
    7.8323   -5.1093   25.6645 H   0  0  0  0  0  0  0  0  0  0  0  0
    8.3782   -4.8221   23.3537 H   0  0  0  0  0  0  0  0  0  0  0  0
    9.4900   -3.4872   23.7023 H   0  0  0  0  0  0  0  0  0  0  0  0
    6.4502   -3.3710   23.5132 H   0  0  0  0  0  0  0  0  0  0  0  0
    6.7201   -1.5852   21.7138 N   0  0  0  0  0  0  0  0  0  0  0  0
    7.3581   -0.6607   20.9448 N   0  0  0  0  0  0  0  0  0  0  0  0
    6.6615    0.0107   19.9035 C   0  0  0  0  0  0  0  0  0  0  0  0
    5.4424    0.6464   20.1644 C   0  0  0  0  0  0  0  0  0  0  0  0
    4.8130    1.3111   19.1093 C   0  0  0  0  0  0  0  0  0  0  0  0
    5.4022    1.2964   17.8370 C   0  0  0  0  0  0  0  0  0  0  0  0
    6.5596    0.6721   17.5771 N   0  0  0  0  0  0  0  0  0  0  0  0
    7.1689    0.0535   18.5921 C   0  0  0  0  0  0  0  0  0  0  0  0
    8.1133   -0.4339   18.3711 H   0  0  0  0  0  0  0  0  0  0  0  0
    4.9176    1.7849   16.9934 H   0  0  0  0  0  0  0  0  0  0  0  0
    3.8790    1.8397   19.2633 H   0  0  0  0  0  0  0  0  0  0  0  0
    5.0111    0.6068   21.1682 H   0  0  0  0  0  0  0  0  0  0  0  0
   10.5363    0.3930   21.2905 H   0  0  0  0  0  0  0  0  0  0  0  0
    9.5488    0.6330   19.8575 H   0  0  0  0  0  0  0  0  0  0  0  0
    9.6172    2.7827   20.9771 H   0  0  0  0  0  0  0  0  0  0  0  0
    8.0109    2.1443   21.2166 H   0  0  0  0  0  0  0  0  0  0  0  0
   10.3272    2.2154   23.2113 H   0  0  0  0  0  0  0  0  0  0  0  0
    8.9454    1.2002   23.5029 H   0  0  0  0  0  0  0  0  0  0  0  0
    9.1477    4.5679   23.5385 C   0  0  0  0  0  0  0  0  0  0  0  0
   10.1608    4.6401   23.1440 H   0  0  0  0  0  0  0  0  0  0  0  0
    5.5164    4.3119   24.8188 H   0  0  0  0  0  0  0  0  0  0  0  0
    6.6745    6.5082   24.8000 H   0  0  0  0  0  0  0  0  0  0  0  0
    8.8309    7.7344   24.7103 H   0  0  0  0  0  0  0  0  0  0  0  0
    9.0284    7.5403   22.9684 H   0  0  0  0  0  0  0  0  0  0  0  0
   10.2829    6.9557   24.0612 H   0  0  0  0  0  0  0  0  0  0  0  0
  1  2  1  0
  2  3  2  0
  3  4  1  0
  4  5  2  0
  5  6  1  0
  6  7  1  0
  6  8  1  0
  6  9  1  0
  5 10  1  0
 10 11  1  0
 11 12  1  0
 12 13  1  0
 13 14  1  0
 14 15  2  0
 15 16  1  0
 16 17  1  0
 17 18  1  0
 18 19  1  0
 19 20  1  0
 20 21  1  0
 21 22  1  0
 21 23  1  0
 19 24  1  0
 19 25  1  0
 18 26  1  0
 18 27  1  0
 17 28  1  0
 16 29  2  0
 29 30  1  0
 30 31  1  0
 31 32  2  0
 32 33  1  0
 33 34  2  0
 34 35  1  0
 35 36  2  0
 36 37  1  0
 34 38  1  0
 33 39  1  0
 32 40  1  0
 13 41  1  0
 13 42  1  0
 12 43  1  0
 12 44  1  0
 11 45  1  0
 11 46  1  0
 10 47  2  0
 47 48  1  0
  4 49  1  0
  3 50  1  0
  1 51  1  0
  1 52  1  0
  1 53  1  0
 47  2  1  0
 30 14  1  0
 36 31  1  0
 21 17  1  0
M  END
>  <cnnaffinity>  (1) 
-6.10862

>  <filename>  (1) 
Cc1ccc(C)c(CCCc2nc(C3CCOC3)nn2-c2cccnc2)c1

$$$$
