
     RDKit          3D

 45 48  0  0  0  0  0  0  0  0999 V2000
    6.1698    3.4549   29.1190 C   0  0  0  0  0  0  0  0  0  0  0  0
    6.5307    2.9229   27.7580 C   0  0  0  0  0  0  0  0  0  0  0  0
    5.7595    1.9187   27.1484 C   0  0  0  0  0  0  0  0  0  0  0  0
    6.1057    1.3933   25.9039 C   0  0  0  0  0  0  0  0  0  0  0  0
    7.2448    1.8743   25.2277 C   0  0  0  0  0  0  0  0  0  0  0  0
    7.6397    1.3658   23.8960 C   0  0  0  0  0  0  0  0  0  0  0  0
    7.0116    0.4201   23.2147 N   0  0  0  0  0  0  0  0  0  0  0  0
    7.7663    0.2819   22.0983 N   0  0  0  0  0  0  0  0  0  0  0  0
    7.3841   -0.6481   21.0350 C   0  0  0  0  0  0  0  0  0  0  0  0
    6.6649    0.0174   19.8782 C   0  0  0  0  0  0  0  0  0  0  0  0
    5.4476    0.6723   20.1047 C   0  0  0  0  0  0  0  0  0  0  0  0
    4.8256    1.3183   19.0346 C   0  0  0  0  0  0  0  0  0  0  0  0
    5.4449    1.2841   17.7808 C   0  0  0  0  0  0  0  0  0  0  0  0
    6.5929    0.6337   17.5359 N   0  0  0  0  0  0  0  0  0  0  0  0
    7.1749    0.0127   18.5713 C   0  0  0  0  0  0  0  0  0  0  0  0
    8.1001   -0.5266   18.3479 H   0  0  0  0  0  0  0  0  0  0  0  0
    4.9942    1.7910   16.9300 H   0  0  0  0  0  0  0  0  0  0  0  0
    3.8902    1.8540   19.1630 H   0  0  0  0  0  0  0  0  0  0  0  0
    5.0150    0.6859   21.1072 H   0  0  0  0  0  0  0  0  0  0  0  0
    6.7332   -1.3901   21.5068 H   0  0  0  0  0  0  0  0  0  0  0  0
    8.2884   -1.1676   20.6960 H   0  0  0  0  0  0  0  0  0  0  0  0
    8.7844    1.1671   22.1422 C   0  0  0  0  0  0  0  0  0  0  0  0
    9.9302    1.2484   21.1971 C   0  0  0  0  0  0  0  0  0  0  0  0
   11.0159    0.2973   21.6102 C   0  0  0  0  0  0  0  0  0  0  0  0
   11.8764    0.2523   22.6646 C   0  0  0  0  0  0  0  0  0  0  0  0
   12.1459    1.0121   23.9199 C   0  0  0  0  0  0  0  0  0  0  0  0
   13.1134    0.6959   24.3213 H   0  0  0  0  0  0  0  0  0  0  0  0
   12.1417    2.0891   23.7406 H   0  0  0  0  0  0  0  0  0  0  0  0
   11.3749    0.7741   24.6650 H   0  0  0  0  0  0  0  0  0  0  0  0
   12.5840   -0.9197   22.5525 O   0  0  0  0  0  0  0  0  0  0  0  0
   12.0952   -1.5222   21.4597 C   0  0  0  0  0  0  0  0  0  0  0  0
   11.1567   -0.8653   20.8724 N   0  0  0  0  0  0  0  0  0  0  0  0
   12.5327   -2.4749   21.1956 H   0  0  0  0  0  0  0  0  0  0  0  0
    9.5976    0.9591   20.1984 H   0  0  0  0  0  0  0  0  0  0  0  0
   10.2702    2.2908   21.1634 H   0  0  0  0  0  0  0  0  0  0  0  0
    8.7457    1.8512   23.2619 N   0  0  0  0  0  0  0  0  0  0  0  0
    8.0272    2.8734   25.8439 C   0  0  0  0  0  0  0  0  0  0  0  0
    7.6627    3.3981   27.0794 C   0  0  0  0  0  0  0  0  0  0  0  0
    8.2560    4.1978   27.5170 H   0  0  0  0  0  0  0  0  0  0  0  0
    8.9234    3.2306   25.3404 H   0  0  0  0  0  0  0  0  0  0  0  0
    5.5005    0.6086   25.4527 H   0  0  0  0  0  0  0  0  0  0  0  0
    4.8712    1.5509   27.6572 H   0  0  0  0  0  0  0  0  0  0  0  0
    6.6292    2.8521   29.9111 H   0  0  0  0  0  0  0  0  0  0  0  0
    5.0880    3.4360   29.2776 H   0  0  0  0  0  0  0  0  0  0  0  0
    6.5085    4.4869   29.2510 H   0  0  0  0  0  0  0  0  0  0  0  0
  1  2  1  0
  2  3  2  0
  3  4  1  0
  4  5  2  0
  5  6  1  0
  6  7  2  0
  7  8  1  0
  8  9  1  0
  9 10  1  0
 10 11  2  0
 11 12  1  0
 12 13  2  0
 13 14  1  0
 14 15  2  0
 15 16  1  0
 13 17  1  0
 12 18  1  0
 11 19  1  0
  9 20  1  0
  9 21  1  0
  8 22  1  0
 22 23  1  0
 23 24  1  0
 24 25  2  0
 25 26  1  0
 26 27  1  0
 26 28  1  0
 26 29  1  0
 25 30  1  0
 30 31  1  0
 31 32  2  0
 31 33  1  0
 23 34  1  0
 23 35  1  0
 22 36  2  0
  5 37  1  0
 37 38  2  0
 38 39  1  0
 37 40  1  0
  4 41  1  0
  3 42  1  0
  1 43  1  0
  1 44  1  0
  1 45  1  0
 38  2  1  0
 36  6  1  0
 15 10  1  0
 32 24  1  0
M  END
>  <cnnaffinity>  (1) 
-6.00528

>  <filename>  (1) 
Cc1ccc(-c2nc(Cc3ncoc3C)n(Cc3cccnc3)n2)cc1

$$$$
