
     RDKit          3D

 43 46  0  0  0  0  0  0  0  0999 V2000
    9.4109    1.2143   25.2064 C   0  0  0  0  0  0  0  0  0  0  0  0
    7.9449    0.9979   24.9676 C   0  0  0  0  0  0  0  0  0  0  0  0
    7.0636    0.2728   25.7400 C   0  0  0  0  0  0  0  0  0  0  0  0
    5.8536    0.2765   25.0223 C   0  0  0  0  0  0  0  0  0  0  0  0
    5.9719    0.9465   23.8836 N   0  0  0  0  0  0  0  0  0  0  0  0
    7.2333    1.4125   23.8749 N   0  0  0  0  0  0  0  0  0  0  0  0
    7.7282    2.0121   22.6365 C   0  0  0  0  0  0  0  0  0  0  0  0
    8.6993    1.0848   21.9903 C   0  0  0  0  0  0  0  0  0  0  0  0
   10.0115    1.1882   22.1225 N   0  0  0  0  0  0  0  0  0  0  0  0
   10.4583   -0.0458   21.7756 C   0  0  0  0  0  0  0  0  0  0  0  0
   11.8689   -0.4837   21.7330 C   0  0  0  0  0  0  0  0  0  0  0  0
   12.1063   -1.6957   21.0683 C   0  0  0  0  0  0  0  0  0  0  0  0
   13.3702   -2.0221   20.6056 C   0  0  0  0  0  0  0  0  0  0  0  0
   14.4276   -1.1741   20.8998 C   0  0  0  0  0  0  0  0  0  0  0  0
   14.2542   -0.0842   21.7731 C   0  0  0  0  0  0  0  0  0  0  0  0
   12.9672    0.2739   22.1905 C   0  0  0  0  0  0  0  0  0  0  0  0
   12.8391    1.1811   22.7781 H   0  0  0  0  0  0  0  0  0  0  0  0
   15.0883    0.5760   22.0022 H   0  0  0  0  0  0  0  0  0  0  0  0
   15.3369   -1.3433   20.3385 H   0  0  0  0  0  0  0  0  0  0  0  0
   13.5218   -2.8968   19.9784 H   0  0  0  0  0  0  0  0  0  0  0  0
   11.2395   -2.3129   20.8684 H   0  0  0  0  0  0  0  0  0  0  0  0
    9.4868   -0.8655   21.3900 N   0  0  0  0  0  0  0  0  0  0  0  0
    8.3653   -0.1367   21.5202 N   0  0  0  0  0  0  0  0  0  0  0  0
    7.0925   -0.7009   21.0693 C   0  0  0  0  0  0  0  0  0  0  0  0
    6.4474    0.0550   19.9300 C   0  0  0  0  0  0  0  0  0  0  0  0
    5.2556    0.7664   20.1083 C   0  0  0  0  0  0  0  0  0  0  0  0
    4.7012    1.4301   19.0092 C   0  0  0  0  0  0  0  0  0  0  0  0
    5.3687    1.3652   17.7814 C   0  0  0  0  0  0  0  0  0  0  0  0
    6.5150    0.6929   17.5924 N   0  0  0  0  0  0  0  0  0  0  0  0
    7.0352    0.0636   18.6529 C   0  0  0  0  0  0  0  0  0  0  0  0
    7.9668   -0.4740   18.4748 H   0  0  0  0  0  0  0  0  0  0  0  0
    4.9692    1.8774   16.9090 H   0  0  0  0  0  0  0  0  0  0  0  0
    3.7825    2.0005   19.0925 H   0  0  0  0  0  0  0  0  0  0  0  0
    4.7902    0.8024   21.0996 H   0  0  0  0  0  0  0  0  0  0  0  0
    7.3282   -1.7281   20.7703 H   0  0  0  0  0  0  0  0  0  0  0  0
    6.4111   -0.7506   21.9225 H   0  0  0  0  0  0  0  0  0  0  0  0
    6.8651    2.1859   21.9943 H   0  0  0  0  0  0  0  0  0  0  0  0
    8.2330    2.9579   22.8520 H   0  0  0  0  0  0  0  0  0  0  0  0
    4.9150   -0.2007   25.2726 H   0  0  0  0  0  0  0  0  0  0  0  0
    7.2848   -0.2005   26.6880 H   0  0  0  0  0  0  0  0  0  0  0  0
    9.7719    2.1614   24.7972 H   0  0  0  0  0  0  0  0  0  0  0  0
    9.9863    0.4187   24.7186 H   0  0  0  0  0  0  0  0  0  0  0  0
    9.6245    1.1687   26.2760 H   0  0  0  0  0  0  0  0  0  0  0  0
  1  2  1  0
  2  3  2  0
  3  4  1  0
  4  5  2  0
  5  6  1  0
  6  7  1  0
  7  8  1  0
  8  9  2  0
  9 10  1  0
 10 11  1  0
 11 12  2  0
 12 13  1  0
 13 14  2  0
 14 15  1  0
 15 16  2  0
 16 17  1  0
 15 18  1  0
 14 19  1  0
 13 20  1  0
 12 21  1  0
 10 22  2  0
 22 23  1  0
 23 24  1  0
 24 25  1  0
 25 26  2  0
 26 27  1  0
 27 28  2  0
 28 29  1  0
 29 30  2  0
 30 31  1  0
 28 32  1  0
 27 33  1  0
 26 34  1  0
 24 35  1  0
 24 36  1  0
  7 37  1  0
  7 38  1  0
  4 39  1  0
  3 40  1  0
  1 41  1  0
  1 42  1  0
  1 43  1  0
  6  2  1  0
 23  8  1  0
 30 25  1  0
 16 11  1  0
M  END
>  <cnnaffinity>  (1) 
-6.38221

>  <filename>  (1) 
Cc1ccnn1Cc1nc(-c2ccccc2)nn1Cc1cccnc1

$$$$
