
     RDKit          3D

 50 53  0  0  0  0  0  0  0  0999 V2000
    7.8632   -5.3822   27.5560 C   0  0  0  0  0  0  0  0  0  0  0  0
    8.0887   -4.4549   26.3577 C   0  0  0  0  0  0  0  0  0  0  0  0
    6.9915   -3.3803   26.2618 C   0  0  0  0  0  0  0  0  0  0  0  0
    7.1991   -2.4330   25.0759 C   0  0  0  0  0  0  0  0  0  0  0  0
    7.3580   -3.1870   23.7272 C   0  0  0  0  0  0  0  0  0  0  0  0
    7.6707   -2.2063   22.6343 C   0  0  0  0  0  0  0  0  0  0  0  0
    6.7952   -1.8405   21.7192 N   0  0  0  0  0  0  0  0  0  0  0  0
    7.4595   -0.8724   21.0232 N   0  0  0  0  0  0  0  0  0  0  0  0
    6.8512   -0.2475   19.9016 C   0  0  0  0  0  0  0  0  0  0  0  0
    5.5301    0.2189   19.9658 C   0  0  0  0  0  0  0  0  0  0  0  0
    5.0130    0.9040   18.8609 C   0  0  0  0  0  0  0  0  0  0  0  0
    5.8267    1.1047   17.7417 C   0  0  0  0  0  0  0  0  0  0  0  0
    7.0682    0.6034   17.6479 N   0  0  0  0  0  0  0  0  0  0  0  0
    7.5482   -0.0814   18.6898 C   0  0  0  0  0  0  0  0  0  0  0  0
    8.5337   -0.5325   18.5536 H   0  0  0  0  0  0  0  0  0  0  0  0
    5.4711    1.6748   16.8861 H   0  0  0  0  0  0  0  0  0  0  0  0
    3.9895    1.2690   18.8426 H   0  0  0  0  0  0  0  0  0  0  0  0
    4.9288    0.0123   20.8542 H   0  0  0  0  0  0  0  0  0  0  0  0
    8.6942   -0.6913   21.5884 C   0  0  0  0  0  0  0  0  0  0  0  0
    9.6367    0.3984   21.1983 C   0  0  0  0  0  0  0  0  0  0  0  0
    9.1050    1.9393   21.6881 C   0  0  0  0  0  0  0  0  0  0  0  0
    7.6109    2.6021   21.3017 C   0  0  0  0  0  0  0  0  0  0  0  0
    6.5140    2.1773   22.5538 C   0  0  0  0  0  0  0  0  0  0  0  0
    5.9119    2.8493   23.4640 N   0  0  0  0  0  0  0  0  0  0  0  0
    6.4786    4.2084   23.4757 C   0  0  0  0  0  0  0  0  0  0  0  0
    7.3842    4.6616   22.7527 N   0  0  0  0  0  0  0  0  0  0  0  0
    7.6624    2.6232   21.7120 C   0  0  0  0  0  0  0  0  0  0  0  0
    7.2019    2.3839   20.3487 H   0  0  0  0  0  0  0  0  0  0  0  0
    5.9811    4.8232   24.2526 H   0  0  0  0  0  0  0  0  0  0  0  0
    6.1628    1.1398   22.4760 H   0  0  0  0  0  0  0  0  0  0  0  0
    9.9370    2.5275   21.2193 H   0  0  0  0  0  0  0  0  0  0  0  0
    9.4678    1.9242   22.7461 H   0  0  0  0  0  0  0  0  0  0  0  0
   10.6104    0.2282   21.6561 H   0  0  0  0  0  0  0  0  0  0  0  0
    9.7590    0.4012   20.1153 H   0  0  0  0  0  0  0  0  0  0  0  0
    8.8584   -1.5360   22.5854 N   0  0  0  0  0  0  0  0  0  0  0  0
    8.4222   -4.3063   23.8285 C   0  0  0  0  0  0  0  0  0  0  0  0
    8.1740   -5.2307   25.0302 C   0  0  0  0  0  0  0  0  0  0  0  0
    7.2318   -5.7842   24.8833 H   0  0  0  0  0  0  0  0  0  0  0  0
    8.9688   -5.9863   25.0904 H   0  0  0  0  0  0  0  0  0  0  0  0
    9.4147   -3.8424   23.9192 H   0  0  0  0  0  0  0  0  0  0  0  0
    8.4358   -4.8936   22.9016 H   0  0  0  0  0  0  0  0  0  0  0  0
    6.3925   -3.6374   23.4625 H   0  0  0  0  0  0  0  0  0  0  0  0
    6.3593   -1.7287   25.0074 H   0  0  0  0  0  0  0  0  0  0  0  0
    8.1047   -1.8307   25.2412 H   0  0  0  0  0  0  0  0  0  0  0  0
    6.0138   -3.8804   26.1680 H   0  0  0  0  0  0  0  0  0  0  0  0
    6.9545   -2.7997   27.1937 H   0  0  0  0  0  0  0  0  0  0  0  0
    9.0541   -3.9399   26.5043 H   0  0  0  0  0  0  0  0  0  0  0  0
    8.6673   -6.1208   27.6505 H   0  0  0  0  0  0  0  0  0  0  0  0
    6.9179   -5.9315   27.4554 H   0  0  0  0  0  0  0  0  0  0  0  0
    7.8165   -4.8150   28.4927 H   0  0  0  0  0  0  0  0  0  0  0  0
  1  2  1  0
  2  3  1  0
  3  4  1  0
  4  5  1  0
  5  6  1  0
  6  7  2  0
  7  8  1  0
  8  9  1  0
  9 10  2  0
 10 11  1  0
 11 12  2  0
 12 13  1  0
 13 14  2  0
 14 15  1  0
 12 16  1  0
 11 17  1  0
 10 18  1  0
  8 19  1  0
 19 20  1  0
 20 21  1  0
 21 22  1  0
 22 23  2  0
 23 24  1  0
 24 25  2  0
 25 26  1  0
 26 27  2  0
 27 28  1  0
 25 29  1  0
 23 30  1  0
 21 31  1  0
 21 32  1  0
 20 33  1  0
 20 34  1  0
 19 35  2  0
  5 36  1  0
 36 37  1  0
 37 38  1  0
 37 39  1  0
 36 40  1  0
 36 41  1  0
  5 42  1  0
  4 43  1  0
  4 44  1  0
  3 45  1  0
  3 46  1  0
  2 47  1  0
  1 48  1  0
  1 49  1  0
  1 50  1  0
 37  2  1  0
 35  6  1  0
 14  9  1  0
 27 22  1  0
M  END
>  <cnnaffinity>  (1) 
-6.27034

>  <filename>  (1) 
CC1CCC(c2nc(CCc3cncnc3)n(-c3cccnc3)n2)CC1

$$$$
