
     RDKit          3D

 45 48  0  0  0  0  0  0  0  0999 V2000
    6.7163    1.3994   24.6217 C   0  0  0  0  0  0  0  0  0  0  0  0
    8.2316    1.4497   24.7246 C   0  0  0  0  0  0  0  0  0  0  0  0
    8.9150    1.0434   25.8784 C   0  0  0  0  0  0  0  0  0  0  0  0
   10.3171    1.0692   25.9470 C   0  0  0  0  0  0  0  0  0  0  0  0
   11.0648    1.5664   24.8845 C   0  0  0  0  0  0  0  0  0  0  0  0
   10.4036    2.0263   23.7409 C   0  0  0  0  0  0  0  0  0  0  0  0
    9.0100    1.9083   23.6312 C   0  0  0  0  0  0  0  0  0  0  0  0
    8.3360    2.2045   22.4730 O   0  0  0  0  0  0  0  0  0  0  0  0
    8.9731    2.0249   21.2128 C   0  0  0  0  0  0  0  0  0  0  0  0
    9.5141    0.6024   20.9598 C   0  0  0  0  0  0  0  0  0  0  0  0
    8.6012   -0.4621   21.4569 C   0  0  0  0  0  0  0  0  0  0  0  0
    8.8268   -1.3117   22.4402 N   0  0  0  0  0  0  0  0  0  0  0  0
    7.6224   -1.9176   22.6005 C   0  0  0  0  0  0  0  0  0  0  0  0
    7.3873   -2.8825   23.7115 C   0  0  0  0  0  0  0  0  0  0  0  0
    6.2675   -2.4579   24.7071 C   0  0  0  0  0  0  0  0  0  0  0  0
    5.2712   -3.9350   24.3192 S   0  0  0  0  0  0  0  0  0  0  0  0
    6.7507   -4.2352   23.2930 C   0  0  0  0  0  0  0  0  0  0  0  0
    7.3197   -5.1087   23.6232 H   0  0  0  0  0  0  0  0  0  0  0  0
    6.5233   -4.3310   22.2262 H   0  0  0  0  0  0  0  0  0  0  0  0
    6.5848   -2.4113   25.7529 H   0  0  0  0  0  0  0  0  0  0  0  0
    5.7563   -1.5221   24.4534 H   0  0  0  0  0  0  0  0  0  0  0  0
    8.3532   -3.0046   24.2054 H   0  0  0  0  0  0  0  0  0  0  0  0
    6.6870   -1.5355   21.7511 N   0  0  0  0  0  0  0  0  0  0  0  0
    7.3338   -0.6126   20.9894 N   0  0  0  0  0  0  0  0  0  0  0  0
    6.6565    0.0209   19.9087 C   0  0  0  0  0  0  0  0  0  0  0  0
    5.4340    0.6524   20.1481 C   0  0  0  0  0  0  0  0  0  0  0  0
    4.8165    1.3165   19.0871 C   0  0  0  0  0  0  0  0  0  0  0  0
    5.4259    1.3022   17.8274 C   0  0  0  0  0  0  0  0  0  0  0  0
    6.5759    0.6566   17.5765 N   0  0  0  0  0  0  0  0  0  0  0  0
    7.1704    0.0286   18.5994 C   0  0  0  0  0  0  0  0  0  0  0  0
    8.0927   -0.5056   18.3673 H   0  0  0  0  0  0  0  0  0  0  0  0
    4.9697    1.8177   16.9848 H   0  0  0  0  0  0  0  0  0  0  0  0
    3.8789    1.8434   19.2316 H   0  0  0  0  0  0  0  0  0  0  0  0
    4.9955    0.6102   21.1464 H   0  0  0  0  0  0  0  0  0  0  0  0
    9.6604    0.4759   19.8864 H   0  0  0  0  0  0  0  0  0  0  0  0
   10.4795    0.4619   21.4538 H   0  0  0  0  0  0  0  0  0  0  0  0
    8.1912    2.2752   20.4949 H   0  0  0  0  0  0  0  0  0  0  0  0
    9.7809    2.7577   21.0799 H   0  0  0  0  0  0  0  0  0  0  0  0
   10.9681    2.4236   22.9069 H   0  0  0  0  0  0  0  0  0  0  0  0
   12.1549    1.5261   24.9131 H   0  0  0  0  0  0  0  0  0  0  0  0
   10.8365    0.6876   26.8192 H   0  0  0  0  0  0  0  0  0  0  0  0
    8.3307    0.6961   26.7319 H   0  0  0  0  0  0  0  0  0  0  0  0
    6.3211    2.4156   24.5141 H   0  0  0  0  0  0  0  0  0  0  0  0
    6.3688    0.8265   23.7517 H   0  0  0  0  0  0  0  0  0  0  0  0
    6.2637    0.9657   25.5214 H   0  0  0  0  0  0  0  0  0  0  0  0
  1  2  1  0
  2  3  2  0
  3  4  1  0
  4  5  2  0
  5  6  1  0
  6  7  2  0
  7  8  1  0
  8  9  1  0
  9 10  1  0
 10 11  1  0
 11 12  2  0
 12 13  1  0
 13 14  1  0
 14 15  1  0
 15 16  1  0
 16 17  1  0
 17 18  1  0
 17 19  1  0
 15 20  1  0
 15 21  1  0
 14 22  1  0
 13 23  2  0
 23 24  1  0
 24 25  1  0
 25 26  2  0
 26 27  1  0
 27 28  2  0
 28 29  1  0
 29 30  2  0
 30 31  1  0
 28 32  1  0
 27 33  1  0
 26 34  1  0
 10 35  1  0
 10 36  1  0
  9 37  1  0
  9 38  1  0
  6 39  1  0
  5 40  1  0
  4 41  1  0
  3 42  1  0
  1 43  1  0
  1 44  1  0
  1 45  1  0
  7  2  1  0
 24 11  1  0
 30 25  1  0
 17 14  1  0
M  END
>  <cnnaffinity>  (1) 
-5.89421

>  <filename>  (1) 
Cc1ccccc1OCCc1nc(C2CSC2)nn1-c1cccnc1

$$$$
