
     RDKit          3D

 32 34  0  0  0  0  0  0  0  0999 V2000
    9.4101    0.6937   20.7604 C   0  0  0  0  0  0  0  0  0  0  0  0
    8.6138   -0.3961   21.4226 C   0  0  0  0  0  0  0  0  0  0  0  0
    9.1435   -1.2286   22.4063 C   0  0  0  0  0  0  0  0  0  0  0  0
    8.4717   -2.2235   22.9671 N   0  0  0  0  0  0  0  0  0  0  0  0
    7.2077   -2.4153   22.5699 C   0  0  0  0  0  0  0  0  0  0  0  0
    6.4496   -3.4843   23.2711 C   0  0  0  0  0  0  0  0  0  0  0  0
    7.0554   -4.2586   24.2911 C   0  0  0  0  0  0  0  0  0  0  0  0
    6.3343   -5.2510   24.9368 C   0  0  0  0  0  0  0  0  0  0  0  0
    6.9440   -5.9806   25.8854 F   0  0  0  0  0  0  0  0  0  0  0  0
    5.0000   -5.5073   24.6250 C   0  0  0  0  0  0  0  0  0  0  0  0
    4.3870   -4.7481   23.6256 C   0  0  0  0  0  0  0  0  0  0  0  0
    5.1119   -3.7687   22.9472 C   0  0  0  0  0  0  0  0  0  0  0  0
    4.4734   -3.1520   21.9527 F   0  0  0  0  0  0  0  0  0  0  0  0
    3.3538   -4.8798   23.3215 H   0  0  0  0  0  0  0  0  0  0  0  0
    4.4853   -6.2961   25.1615 H   0  0  0  0  0  0  0  0  0  0  0  0
    8.0913   -4.1049   24.5883 H   0  0  0  0  0  0  0  0  0  0  0  0
    6.6135   -1.7195   21.5949 N   0  0  0  0  0  0  0  0  0  0  0  0
    7.3079   -0.7451   21.0233 C   0  0  0  0  0  0  0  0  0  0  0  0
    6.6100   -0.0338   19.9306 C   0  0  0  0  0  0  0  0  0  0  0  0
    5.3977    0.6229   20.1667 C   0  0  0  0  0  0  0  0  0  0  0  0
    4.7995    1.3091   19.1081 C   0  0  0  0  0  0  0  0  0  0  0  0
    5.4193    1.2841   17.8524 C   0  0  0  0  0  0  0  0  0  0  0  0
    6.5686    0.6400   17.6085 N   0  0  0  0  0  0  0  0  0  0  0  0
    7.1462    0.0060   18.6369 C   0  0  0  0  0  0  0  0  0  0  0  0
    8.0987   -0.4687   18.4010 H   0  0  0  0  0  0  0  0  0  0  0  0
    4.9754    1.7973   17.0006 H   0  0  0  0  0  0  0  0  0  0  0  0
    3.8721    1.8571   19.2360 H   0  0  0  0  0  0  0  0  0  0  0  0
    4.9515    0.5941   21.1640 H   0  0  0  0  0  0  0  0  0  0  0  0
   10.1761   -1.1081   22.7469 H   0  0  0  0  0  0  0  0  0  0  0  0
   10.2969    0.9787   21.3306 H   0  0  0  0  0  0  0  0  0  0  0  0
    8.7948    1.5806   20.5784 H   0  0  0  0  0  0  0  0  0  0  0  0
    9.7268    0.3203   19.7859 H   0  0  0  0  0  0  0  0  0  0  0  0
  1  2  1  0
  2  3  2  0
  3  4  1  0
  4  5  2  0
  5  6  1  0
  6  7  2  0
  7  8  1  0
  8  9  1  0
  8 10  2  0
 10 11  1  0
 11 12  2  0
 12 13  1  0
 11 14  1  0
 10 15  1  0
  7 16  1  0
  5 17  1  0
 17 18  2  0
 18 19  1  0
 19 20  2  0
 20 21  1  0
 21 22  2  0
 22 23  1  0
 23 24  2  0
 24 25  1  0
 22 26  1  0
 21 27  1  0
 20 28  1  0
  3 29  1  0
  1 30  1  0
  1 31  1  0
  1 32  1  0
 18  2  1  0
 24 19  1  0
 12  6  1  0
M  END
>  <cnnaffinity>  (1) 
-5.42455

>  <filename>  (1) 
Cc1cnc(-c2cc(F)ccc2F)nc1-c1cccnc1

$$$$
