
     RDKit          3D

 52 54  0  0  0  0  0  0  0  0999 V2000
   13.9784   -2.1219   20.8375 C   0  0  0  0  0  0  0  0  0  0  0  0
   13.2986   -1.0729   21.6890 C   0  0  0  0  0  0  0  0  0  0  0  0
   14.0096   -0.3149   22.6319 C   0  0  0  0  0  0  0  0  0  0  0  0
   13.3774    0.6662   23.4046 C   0  0  0  0  0  0  0  0  0  0  0  0
   12.0153    0.9086   23.2378 C   0  0  0  0  0  0  0  0  0  0  0  0
   11.2879    0.1656   22.2913 C   0  0  0  0  0  0  0  0  0  0  0  0
    9.8374    0.3263   22.1257 C   0  0  0  0  0  0  0  0  0  0  0  0
    9.0609   -0.6306   21.6382 N   0  0  0  0  0  0  0  0  0  0  0  0
    7.8210   -0.1286   21.7789 N   0  0  0  0  0  0  0  0  0  0  0  0
    6.7021   -0.7955   21.1209 C   0  0  0  0  0  0  0  0  0  0  0  0
    6.2428   -0.0347   19.9014 C   0  0  0  0  0  0  0  0  0  0  0  0
    5.0919    0.7555   19.9092 C   0  0  0  0  0  0  0  0  0  0  0  0
    4.8322    1.5631   18.7982 C   0  0  0  0  0  0  0  0  0  0  0  0
    5.7109    1.5095   17.7103 C   0  0  0  0  0  0  0  0  0  0  0  0
    6.8018    0.7280   17.6694 N   0  0  0  0  0  0  0  0  0  0  0  0
    7.0509   -0.0194   18.7505 C   0  0  0  0  0  0  0  0  0  0  0  0
    7.9326   -0.6606   18.7013 H   0  0  0  0  0  0  0  0  0  0  0  0
    5.5238    2.1075   16.8221 H   0  0  0  0  0  0  0  0  0  0  0  0
    3.9781    2.2309   18.7689 H   0  0  0  0  0  0  0  0  0  0  0  0
    4.4177    0.7421   20.7724 H   0  0  0  0  0  0  0  0  0  0  0  0
    5.8947   -0.9225   21.8472 H   0  0  0  0  0  0  0  0  0  0  0  0
    7.0635   -1.7926   20.8609 H   0  0  0  0  0  0  0  0  0  0  0  0
    7.8977    1.1076   22.3226 C   0  0  0  0  0  0  0  0  0  0  0  0
    6.6753    1.8689   22.7867 C   0  0  0  0  0  0  0  0  0  0  0  0
    6.9312    2.8372   23.8547 N   0  0  0  0  0  0  0  0  0  0  0  0
    7.5558    4.1015   23.4222 C   0  0  0  0  0  0  0  0  0  0  0  0
    7.5810    4.7902   24.2712 H   0  0  0  0  0  0  0  0  0  0  0  0
    8.5846    3.9362   23.0592 H   0  0  0  0  0  0  0  0  0  0  0  0
    6.9645    4.5502   22.6140 H   0  0  0  0  0  0  0  0  0  0  0  0
    7.1912    2.4119   25.1652 C   0  0  0  0  0  0  0  0  0  0  0  0
    7.3811    3.2193   26.0593 O   0  0  0  0  0  0  0  0  0  0  0  0
    7.2007    0.8919   25.4683 C   0  0  0  0  0  0  0  0  0  0  0  0
    5.9047    0.4821   26.1899 C   0  0  0  0  0  0  0  0  0  0  0  0
    5.8773   -0.6064   26.3261 H   0  0  0  0  0  0  0  0  0  0  0  0
    5.0131    0.7732   25.6213 H   0  0  0  0  0  0  0  0  0  0  0  0
    5.8463    0.9512   27.1799 H   0  0  0  0  0  0  0  0  0  0  0  0
    8.4473    0.4828   26.2682 C   0  0  0  0  0  0  0  0  0  0  0  0
    9.3765    0.7493   25.7485 H   0  0  0  0  0  0  0  0  0  0  0  0
    8.4632    0.9589   27.2547 H   0  0  0  0  0  0  0  0  0  0  0  0
    8.4549   -0.6043   26.4141 H   0  0  0  0  0  0  0  0  0  0  0  0
    7.2526    0.3402   24.5268 H   0  0  0  0  0  0  0  0  0  0  0  0
    6.2231    2.3793   21.9281 H   0  0  0  0  0  0  0  0  0  0  0  0
    5.9294    1.1397   23.1255 H   0  0  0  0  0  0  0  0  0  0  0  0
    9.1614    1.4277   22.5254 N   0  0  0  0  0  0  0  0  0  0  0  0
   11.9395   -0.8172   21.5309 C   0  0  0  0  0  0  0  0  0  0  0  0
   11.3533   -1.3912   20.8184 H   0  0  0  0  0  0  0  0  0  0  0  0
   11.5054    1.6568   23.8428 H   0  0  0  0  0  0  0  0  0  0  0  0
   13.9491    1.2234   24.1431 H   0  0  0  0  0  0  0  0  0  0  0  0
   15.0669   -0.4943   22.7508 H   0  0  0  0  0  0  0  0  0  0  0  0
   14.4040   -2.9263   21.4496 H   0  0  0  0  0  0  0  0  0  0  0  0
   13.2746   -2.5779   20.1337 H   0  0  0  0  0  0  0  0  0  0  0  0
   14.7817   -1.6733   20.2457 H   0  0  0  0  0  0  0  0  0  0  0  0
  1  2  1  0
  2  3  2  0
  3  4  1  0
  4  5  2  0
  5  6  1  0
  6  7  1  0
  7  8  2  0
  8  9  1  0
  9 10  1  0
 10 11  1  0
 11 12  2  0
 12 13  1  0
 13 14  2  0
 14 15  1  0
 15 16  2  0
 16 17  1  0
 14 18  1  0
 13 19  1  0
 12 20  1  0
 10 21  1  0
 10 22  1  0
  9 23  1  0
 23 24  1  0
 24 25  1  0
 25 26  1  0
 26 27  1  0
 26 28  1  0
 26 29  1  0
 25 30  1  0
 30 31  2  0
 30 32  1  0
 32 33  1  0
 33 34  1  0
 33 35  1  0
 33 36  1  0
 32 37  1  0
 37 38  1  0
 37 39  1  0
 37 40  1  0
 32 41  1  0
 24 42  1  0
 24 43  1  0
 23 44  2  0
  6 45  2  0
 45 46  1  0
  5 47  1  0
  4 48  1  0
  3 49  1  0
  1 50  1  0
  1 51  1  0
  1 52  1  0
 45  2  1  0
 44  7  1  0
 16 11  1  0
M  END
>  <cnnaffinity>  (1) 
-6.51463

>  <filename>  (1) 
Cc1cccc(-c2nc(CN(C)C(=O)C(C)C)n(Cc3cccnc3)n2)c1

$$$$
