
     RDKit          3D

 48 51  0  0  0  0  0  0  0  0999 V2000
    6.6090    5.9790   26.2117 C   0  0  0  0  0  0  0  0  0  0  0  0
    7.2242    4.9221   25.3210 C   0  0  0  0  0  0  0  0  0  0  0  0
    7.5029    5.1785   23.9777 C   0  0  0  0  0  0  0  0  0  0  0  0
    8.0434    4.1944   23.1384 C   0  0  0  0  0  0  0  0  0  0  0  0
    8.3128    2.9185   23.6446 C   0  0  0  0  0  0  0  0  0  0  0  0
    8.8644    1.9086   22.9061 O   0  0  0  0  0  0  0  0  0  0  0  0
    9.0248    2.0080   21.4985 C   0  0  0  0  0  0  0  0  0  0  0  0
    9.5084    0.6421   20.9989 C   0  0  0  0  0  0  0  0  0  0  0  0
    8.6271   -0.4672   21.4471 C   0  0  0  0  0  0  0  0  0  0  0  0
    8.8559   -1.2909   22.4531 N   0  0  0  0  0  0  0  0  0  0  0  0
    7.6695   -1.9322   22.5901 C   0  0  0  0  0  0  0  0  0  0  0  0
    7.3979   -2.8707   23.7197 C   0  0  0  0  0  0  0  0  0  0  0  0
    6.3389   -2.3494   24.7374 C   0  0  0  0  0  0  0  0  0  0  0  0
    5.2351   -3.7634   24.3970 S   0  0  0  0  0  0  0  0  0  0  0  0
    6.6507   -4.1688   23.3182 C   0  0  0  0  0  0  0  0  0  0  0  0
    6.3741   -4.2176   22.2600 H   0  0  0  0  0  0  0  0  0  0  0  0
    7.1569   -5.0938   23.6103 H   0  0  0  0  0  0  0  0  0  0  0  0
    6.6804   -2.3037   25.7771 H   0  0  0  0  0  0  0  0  0  0  0  0
    5.8820   -1.3921   24.4653 H   0  0  0  0  0  0  0  0  0  0  0  0
    8.3583   -3.0626   24.1938 H   0  0  0  0  0  0  0  0  0  0  0  0
    6.7465   -1.5965   21.7121 N   0  0  0  0  0  0  0  0  0  0  0  0
    7.3704   -0.6611   20.9497 N   0  0  0  0  0  0  0  0  0  0  0  0
    6.6616    0.0073   19.9062 C   0  0  0  0  0  0  0  0  0  0  0  0
    5.4405    0.6394   20.1691 C   0  0  0  0  0  0  0  0  0  0  0  0
    4.8134    1.3078   19.1114 C   0  0  0  0  0  0  0  0  0  0  0  0
    5.4010    1.2956   17.8392 C   0  0  0  0  0  0  0  0  0  0  0  0
    6.5600    0.6721   17.5783 N   0  0  0  0  0  0  0  0  0  0  0  0
    7.1695    0.0520   18.5952 C   0  0  0  0  0  0  0  0  0  0  0  0
    8.1128   -0.4360   18.3653 H   0  0  0  0  0  0  0  0  0  0  0  0
    4.9216    1.7864   16.9942 H   0  0  0  0  0  0  0  0  0  0  0  0
    3.8809    1.8385   19.2601 H   0  0  0  0  0  0  0  0  0  0  0  0
    5.0158    0.6067   21.1772 H   0  0  0  0  0  0  0  0  0  0  0  0
   10.5116    0.4227   21.3648 H   0  0  0  0  0  0  0  0  0  0  0  0
    9.5618    0.6653   19.9089 H   0  0  0  0  0  0  0  0  0  0  0  0
    9.7708    2.7760   21.2546 H   0  0  0  0  0  0  0  0  0  0  0  0
    8.0735    2.2718   21.0119 H   0  0  0  0  0  0  0  0  0  0  0  0
    8.0390    2.6225   25.0075 C   0  0  0  0  0  0  0  0  0  0  0  0
    8.3004    1.2535   25.5915 C   0  0  0  0  0  0  0  0  0  0  0  0
    8.0585    1.2166   26.6593 H   0  0  0  0  0  0  0  0  0  0  0  0
    7.7047    0.4855   25.0856 H   0  0  0  0  0  0  0  0  0  0  0  0
    9.3491    0.9630   25.4738 H   0  0  0  0  0  0  0  0  0  0  0  0
    7.5036    3.6365   25.8082 C   0  0  0  0  0  0  0  0  0  0  0  0
    7.2829    3.4175   26.8528 H   0  0  0  0  0  0  0  0  0  0  0  0
    8.2506    4.4214   22.0963 H   0  0  0  0  0  0  0  0  0  0  0  0
    7.2839    6.1647   23.5750 H   0  0  0  0  0  0  0  0  0  0  0  0
    6.9099    5.8705   27.2597 H   0  0  0  0  0  0  0  0  0  0  0  0
    6.8887    6.9888   25.8940 H   0  0  0  0  0  0  0  0  0  0  0  0
    5.5134    5.9334   26.1878 H   0  0  0  0  0  0  0  0  0  0  0  0
  1  2  1  0
  2  3  2  0
  3  4  1  0
  4  5  2  0
  5  6  1  0
  6  7  1  0
  7  8  1  0
  8  9  1  0
  9 10  2  0
 10 11  1  0
 11 12  1  0
 12 13  1  0
 13 14  1  0
 14 15  1  0
 15 16  1  0
 15 17  1  0
 13 18  1  0
 13 19  1  0
 12 20  1  0
 11 21  2  0
 21 22  1  0
 22 23  1  0
 23 24  2  0
 24 25  1  0
 25 26  2  0
 26 27  1  0
 27 28  2  0
 28 29  1  0
 26 30  1  0
 25 31  1  0
 24 32  1  0
  8 33  1  0
  8 34  1  0
  7 35  1  0
  7 36  1  0
  5 37  1  0
 37 38  1  0
 38 39  1  0
 38 40  1  0
 38 41  1  0
 37 42  2  0
 42 43  1  0
  4 44  1  0
  3 45  1  0
  1 46  1  0
  1 47  1  0
  1 48  1  0
 42  2  1  0
 22  9  1  0
 28 23  1  0
 15 12  1  0
M  END
>  <cnnaffinity>  (1) 
-6.01824

>  <filename>  (1) 
Cc1ccc(OCCc2nc(C3CSC3)nn2-c2cccnc2)c(C)c1

$$$$
