
     RDKit          3D

 51 54  0  0  0  0  0  0  0  0999 V2000
    8.2328    0.3840   27.1414 C   0  0  0  0  0  0  0  0  0  0  0  0
    9.0448    0.8459   25.9493 C   0  0  0  0  0  0  0  0  0  0  0  0
   10.4430    0.6756   25.9100 C   0  0  0  0  0  0  0  0  0  0  0  0
   11.1944    1.0608   24.7936 C   0  0  0  0  0  0  0  0  0  0  0  0
   12.6762    0.8118   24.6795 C   0  0  0  0  0  0  0  0  0  0  0  0
   13.2347    1.7363   24.4982 H   0  0  0  0  0  0  0  0  0  0  0  0
   12.8936    0.1561   23.8275 H   0  0  0  0  0  0  0  0  0  0  0  0
   13.0958    0.3372   25.5678 H   0  0  0  0  0  0  0  0  0  0  0  0
   10.5454    1.6635   23.7066 C   0  0  0  0  0  0  0  0  0  0  0  0
    9.1560    1.7573   23.6923 C   0  0  0  0  0  0  0  0  0  0  0  0
    8.4266    2.1640   22.6139 O   0  0  0  0  0  0  0  0  0  0  0  0
    8.9481    2.0348   21.2928 C   0  0  0  0  0  0  0  0  0  0  0  0
    9.4610    0.6233   20.9366 C   0  0  0  0  0  0  0  0  0  0  0  0
    8.5683   -0.4642   21.4223 C   0  0  0  0  0  0  0  0  0  0  0  0
    8.8302   -1.3256   22.3836 N   0  0  0  0  0  0  0  0  0  0  0  0
    7.6365   -1.9591   22.5621 C   0  0  0  0  0  0  0  0  0  0  0  0
    7.4412   -2.9358   23.6650 C   0  0  0  0  0  0  0  0  0  0  0  0
    8.4199   -4.1326   23.7006 C   0  0  0  0  0  0  0  0  0  0  0  0
    8.4463   -4.5067   25.1960 C   0  0  0  0  0  0  0  0  0  0  0  0
    7.8886   -3.4080   25.9102 O   0  0  0  0  0  0  0  0  0  0  0  0
    7.7055   -2.3067   25.0443 C   0  0  0  0  0  0  0  0  0  0  0  0
    6.8694   -1.7059   25.4249 H   0  0  0  0  0  0  0  0  0  0  0  0
    8.6102   -1.6704   25.0193 H   0  0  0  0  0  0  0  0  0  0  0  0
    7.8381   -5.3935   25.4140 H   0  0  0  0  0  0  0  0  0  0  0  0
    9.4656   -4.7041   25.5594 H   0  0  0  0  0  0  0  0  0  0  0  0
    8.1165   -4.9655   23.0559 H   0  0  0  0  0  0  0  0  0  0  0  0
    9.4145   -3.8030   23.3729 H   0  0  0  0  0  0  0  0  0  0  0  0
    6.4007   -3.2731   23.6202 H   0  0  0  0  0  0  0  0  0  0  0  0
    6.6797   -1.5822   21.7401 N   0  0  0  0  0  0  0  0  0  0  0  0
    7.2910   -0.6294   20.9850 N   0  0  0  0  0  0  0  0  0  0  0  0
    6.6130    0.0145   19.9133 C   0  0  0  0  0  0  0  0  0  0  0  0
    5.3963    0.6662   20.1389 C   0  0  0  0  0  0  0  0  0  0  0  0
    4.8056    1.3395   19.0653 C   0  0  0  0  0  0  0  0  0  0  0  0
    5.4317    1.3145   17.8118 C   0  0  0  0  0  0  0  0  0  0  0  0
    6.5748    0.6495   17.5805 N   0  0  0  0  0  0  0  0  0  0  0  0
    7.1442    0.0173   18.6116 C   0  0  0  0  0  0  0  0  0  0  0  0
    8.0710   -0.5189   18.4057 H   0  0  0  0  0  0  0  0  0  0  0  0
    4.9996    1.8345   16.9593 H   0  0  0  0  0  0  0  0  0  0  0  0
    3.8780    1.8895   19.1867 H   0  0  0  0  0  0  0  0  0  0  0  0
    4.9523    0.6386   21.1357 H   0  0  0  0  0  0  0  0  0  0  0  0
   10.4410    0.4456   21.3816 H   0  0  0  0  0  0  0  0  0  0  0  0
    9.5886    0.5469   19.8548 H   0  0  0  0  0  0  0  0  0  0  0  0
    9.7487    2.7699   21.1277 H   0  0  0  0  0  0  0  0  0  0  0  0
    8.1067    2.3060   20.6469 H   0  0  0  0  0  0  0  0  0  0  0  0
    8.4179    1.4056   24.8320 C   0  0  0  0  0  0  0  0  0  0  0  0
    7.3455    1.5670   24.7989 H   0  0  0  0  0  0  0  0  0  0  0  0
   11.1200    2.0372   22.8629 H   0  0  0  0  0  0  0  0  0  0  0  0
   10.9492    0.2592   26.7789 H   0  0  0  0  0  0  0  0  0  0  0  0
    7.2075    0.7649   27.0947 H   0  0  0  0  0  0  0  0  0  0  0  0
    8.6592    0.7164   28.0926 H   0  0  0  0  0  0  0  0  0  0  0  0
    8.1858   -0.7096   27.2038 H   0  0  0  0  0  0  0  0  0  0  0  0
  1  2  1  0
  2  3  2  0
  3  4  1  0
  4  5  1  0
  5  6  1  0
  5  7  1  0
  5  8  1  0
  4  9  2  0
  9 10  1  0
 10 11  1  0
 11 12  1  0
 12 13  1  0
 13 14  1  0
 14 15  2  0
 15 16  1  0
 16 17  1  0
 17 18  1  0
 18 19  1  0
 19 20  1  0
 20 21  1  0
 21 22  1  0
 21 23  1  0
 19 24  1  0
 19 25  1  0
 18 26  1  0
 18 27  1  0
 17 28  1  0
 16 29  2  0
 29 30  1  0
 30 31  1  0
 31 32  2  0
 32 33  1  0
 33 34  2  0
 34 35  1  0
 35 36  2  0
 36 37  1  0
 34 38  1  0
 33 39  1  0
 32 40  1  0
 13 41  1  0
 13 42  1  0
 12 43  1  0
 12 44  1  0
 10 45  2  0
 45 46  1  0
  9 47  1  0
  3 48  1  0
  1 49  1  0
  1 50  1  0
  1 51  1  0
 45  2  1  0
 30 14  1  0
 36 31  1  0
 21 17  1  0
M  END
>  <cnnaffinity>  (1) 
-6.10172

>  <filename>  (1) 
Cc1cc(C)cc(OCCc2nc(C3CCOC3)nn2-c2cccnc2)c1

$$$$
