
     RDKit          3D

 29 31  0  0  0  0  0  0  0  0999 V2000
    9.2520   -4.0442   23.8049 C   0  0  0  0  0  0  0  0  0  0  0  0
    8.6158   -3.0356   24.7222 C   0  0  0  0  0  0  0  0  0  0  0  0
    8.6622   -3.2015   26.1138 C   0  0  0  0  0  0  0  0  0  0  0  0
    9.5331   -4.5265   26.8498 Cl  0  0  0  0  0  0  0  0  0  0  0  0
    8.0283   -2.3221   26.9821 C   0  0  0  0  0  0  0  0  0  0  0  0
    7.3244   -1.2288   26.4904 C   0  0  0  0  0  0  0  0  0  0  0  0
    7.2881   -1.0016   25.1199 C   0  0  0  0  0  0  0  0  0  0  0  0
    7.9529   -1.8733   24.2357 C   0  0  0  0  0  0  0  0  0  0  0  0
    7.9601   -1.5322   22.7922 C   0  0  0  0  0  0  0  0  0  0  0  0
    8.9131   -1.8606   21.9546 N   0  0  0  0  0  0  0  0  0  0  0  0
    8.5082   -1.3019   20.7551 O   0  0  0  0  0  0  0  0  0  0  0  0
    7.3433   -0.6884   20.9845 C   0  0  0  0  0  0  0  0  0  0  0  0
    6.6486    0.0114   19.9080 C   0  0  0  0  0  0  0  0  0  0  0  0
    5.4284    0.6571   20.1641 C   0  0  0  0  0  0  0  0  0  0  0  0
    4.8035    1.3108   19.1057 C   0  0  0  0  0  0  0  0  0  0  0  0
    5.4099    1.2865   17.8431 C   0  0  0  0  0  0  0  0  0  0  0  0
    6.5720    0.6681   17.5886 N   0  0  0  0  0  0  0  0  0  0  0  0
    7.1797    0.0536   18.6081 C   0  0  0  0  0  0  0  0  0  0  0  0
    8.1258   -0.4275   18.3683 H   0  0  0  0  0  0  0  0  0  0  0  0
    4.9301    1.7767   16.9981 H   0  0  0  0  0  0  0  0  0  0  0  0
    3.8719    1.8452   19.2532 H   0  0  0  0  0  0  0  0  0  0  0  0
    5.0003    0.6364   21.1702 H   0  0  0  0  0  0  0  0  0  0  0  0
    6.9587   -0.7896   22.2200 N   0  0  0  0  0  0  0  0  0  0  0  0
    6.7496   -0.1405   24.7314 H   0  0  0  0  0  0  0  0  0  0  0  0
    6.8208   -0.5578   27.1813 H   0  0  0  0  0  0  0  0  0  0  0  0
    8.1176   -2.5168   28.0304 H   0  0  0  0  0  0  0  0  0  0  0  0
   10.2197   -3.6711   23.4658 H   0  0  0  0  0  0  0  0  0  0  0  0
    9.4052   -5.0042   24.3017 H   0  0  0  0  0  0  0  0  0  0  0  0
    8.6507   -4.1802   22.9044 H   0  0  0  0  0  0  0  0  0  0  0  0
  1  2  1  0
  2  3  2  0
  3  4  1  0
  3  5  1  0
  5  6  2  0
  6  7  1  0
  7  8  2  0
  8  9  1  0
  9 10  2  0
 10 11  1  0
 11 12  1  0
 12 13  1  0
 13 14  2  0
 14 15  1  0
 15 16  2  0
 16 17  1  0
 17 18  2  0
 18 19  1  0
 16 20  1  0
 15 21  1  0
 14 22  1  0
 12 23  2  0
  7 24  1  0
  6 25  1  0
  5 26  1  0
  1 27  1  0
  1 28  1  0
  1 29  1  0
  8  2  1  0
 23  9  1  0
 18 13  1  0
M  END
>  <cnnaffinity>  (1) 
-5.16778

>  <filename>  (1) 
Cc1c(Cl)cccc1-c1noc(-c2cccnc2)n1

$$$$
