
     RDKit          3D

 45 48  0  0  0  0  0  0  0  0999 V2000
    5.7057    1.2889   28.0984 C   0  0  0  0  0  0  0  0  0  0  0  0
    6.1651    1.3272   26.6606 C   0  0  0  0  0  0  0  0  0  0  0  0
    5.2660    1.4415   25.5818 C   0  0  0  0  0  0  0  0  0  0  0  0
    5.7600    1.4846   24.2776 C   0  0  0  0  0  0  0  0  0  0  0  0
    7.1398    1.3941   24.0600 C   0  0  0  0  0  0  0  0  0  0  0  0
    7.7231    1.3106   22.6509 C   0  0  0  0  0  0  0  0  0  0  0  0
    7.7561   -0.1007   22.1137 C   0  0  0  0  0  0  0  0  0  0  0  0
    8.3524   -1.0711   22.7817 N   0  0  0  0  0  0  0  0  0  0  0  0
    8.1808   -2.1601   21.9986 C   0  0  0  0  0  0  0  0  0  0  0  0
    8.6910   -3.5161   22.4125 C   0  0  0  0  0  0  0  0  0  0  0  0
    7.9485   -4.7175   21.7925 C   0  0  0  0  0  0  0  0  0  0  0  0
    8.3345   -5.9292   22.6498 C   0  0  0  0  0  0  0  0  0  0  0  0
    8.5768   -5.3602   24.0677 C   0  0  0  0  0  0  0  0  0  0  0  0
    8.6735   -3.8198   23.9285 C   0  0  0  0  0  0  0  0  0  0  0  0
    9.5674   -3.4359   24.4270 H   0  0  0  0  0  0  0  0  0  0  0  0
    7.8058   -3.3384   24.3914 H   0  0  0  0  0  0  0  0  0  0  0  0
    9.4725   -5.7919   24.5252 H   0  0  0  0  0  0  0  0  0  0  0  0
    7.7486   -5.6220   24.7360 H   0  0  0  0  0  0  0  0  0  0  0  0
    7.5636   -6.7112   22.6304 H   0  0  0  0  0  0  0  0  0  0  0  0
    9.2330   -6.4033   22.2360 H   0  0  0  0  0  0  0  0  0  0  0  0
    8.1933   -4.8578   20.7392 H   0  0  0  0  0  0  0  0  0  0  0  0
    6.8664   -4.5373   21.8562 H   0  0  0  0  0  0  0  0  0  0  0  0
    9.7488   -3.4823   22.1324 H   0  0  0  0  0  0  0  0  0  0  0  0
    7.5848   -1.9138   20.8423 N   0  0  0  0  0  0  0  0  0  0  0  0
    7.2810   -0.5902   20.9259 N   0  0  0  0  0  0  0  0  0  0  0  0
    6.5811    0.0372   19.8487 C   0  0  0  0  0  0  0  0  0  0  0  0
    5.3769    0.7215   20.0609 C   0  0  0  0  0  0  0  0  0  0  0  0
    4.7796    1.3707   18.9736 C   0  0  0  0  0  0  0  0  0  0  0  0
    5.4082    1.3272   17.7267 C   0  0  0  0  0  0  0  0  0  0  0  0
    6.5333    0.6229   17.5028 N   0  0  0  0  0  0  0  0  0  0  0  0
    7.0844   -0.0259   18.5357 C   0  0  0  0  0  0  0  0  0  0  0  0
    7.9703   -0.6165   18.3096 H   0  0  0  0  0  0  0  0  0  0  0  0
    4.9912    1.8635   16.8750 H   0  0  0  0  0  0  0  0  0  0  0  0
    3.8424    1.9032   19.0830 H   0  0  0  0  0  0  0  0  0  0  0  0
    4.9036    0.7224   21.0429 H   0  0  0  0  0  0  0  0  0  0  0  0
    8.7615    1.6661   22.6661 H   0  0  0  0  0  0  0  0  0  0  0  0
    7.1847    1.9732   21.9666 H   0  0  0  0  0  0  0  0  0  0  0  0
    7.9457    1.2597   25.2047 C   0  0  0  0  0  0  0  0  0  0  0  0
    7.4871    1.2361   26.4621 N   0  0  0  0  0  0  0  0  0  0  0  0
    9.0219    1.1344   25.0894 H   0  0  0  0  0  0  0  0  0  0  0  0
    5.0759    1.5889   23.4302 H   0  0  0  0  0  0  0  0  0  0  0  0
    4.1995    1.4918   25.7677 H   0  0  0  0  0  0  0  0  0  0  0  0
    6.5753    1.2642   28.7613 H   0  0  0  0  0  0  0  0  0  0  0  0
    5.0981    0.3979   28.2911 H   0  0  0  0  0  0  0  0  0  0  0  0
    5.0909    2.1583   28.3581 H   0  0  0  0  0  0  0  0  0  0  0  0
  1  2  1  0
  2  3  2  0
  3  4  1  0
  4  5  2  0
  5  6  1  0
  6  7  1  0
  7  8  2  0
  8  9  1  0
  9 10  1  0
 10 11  1  0
 11 12  1  0
 12 13  1  0
 13 14  1  0
 14 15  1  0
 14 16  1  0
 13 17  1  0
 13 18  1  0
 12 19  1  0
 12 20  1  0
 11 21  1  0
 11 22  1  0
 10 23  1  0
  9 24  2  0
 24 25  1  0
 25 26  1  0
 26 27  2  0
 27 28  1  0
 28 29  2  0
 29 30  1  0
 30 31  2  0
 31 32  1  0
 29 33  1  0
 28 34  1  0
 27 35  1  0
  6 36  1  0
  6 37  1  0
  5 38  1  0
 38 39  2  0
 38 40  1  0
  4 41  1  0
  3 42  1  0
  1 43  1  0
  1 44  1  0
  1 45  1  0
 39  2  1  0
 25  7  1  0
 31 26  1  0
 14 10  1  0
M  END
>  <cnnaffinity>  (1) 
-6.14094

>  <filename>  (1) 
Cc1ccc(Cc2nc(C3CCCC3)nn2-c2cccnc2)cn1

$$$$
