
     RDKit          3D

 45 48  0  0  0  0  0  0  0  0999 V2000
    8.8444    2.9896   25.8772 C   0  0  0  0  0  0  0  0  0  0  0  0
    7.3869    2.6096   26.0501 C   0  0  0  0  0  0  0  0  0  0  0  0
    6.7174    3.0980   27.1856 C   0  0  0  0  0  0  0  0  0  0  0  0
    5.3633    2.8572   27.4210 C   0  0  0  0  0  0  0  0  0  0  0  0
    4.6419    2.0866   26.5078 C   0  0  0  0  0  0  0  0  0  0  0  0
    5.2757    1.5645   25.3808 C   0  0  0  0  0  0  0  0  0  0  0  0
    6.6460    1.8092   25.1347 C   0  0  0  0  0  0  0  0  0  0  0  0
    7.2835    1.2615   23.9038 C   0  0  0  0  0  0  0  0  0  0  0  0
    6.7015    0.3733   23.1089 N   0  0  0  0  0  0  0  0  0  0  0  0
    7.5864    0.2180   22.0984 N   0  0  0  0  0  0  0  0  0  0  0  0
    7.3201   -0.6724   20.9700 C   0  0  0  0  0  0  0  0  0  0  0  0
    6.6593    0.0070   19.7784 C   0  0  0  0  0  0  0  0  0  0  0  0
    5.4487    0.6900   19.9505 C   0  0  0  0  0  0  0  0  0  0  0  0
    4.8868    1.3524   18.8582 C   0  0  0  0  0  0  0  0  0  0  0  0
    5.5310    1.2774   17.6210 C   0  0  0  0  0  0  0  0  0  0  0  0
    6.6683    0.5931   17.4251 N   0  0  0  0  0  0  0  0  0  0  0  0
    7.2102   -0.0181   18.4874 C   0  0  0  0  0  0  0  0  0  0  0  0
    8.1349   -0.5662   18.2858 H   0  0  0  0  0  0  0  0  0  0  0  0
    5.1196    1.7930   16.7536 H   0  0  0  0  0  0  0  0  0  0  0  0
    3.9828    1.9418   18.9619 H   0  0  0  0  0  0  0  0  0  0  0  0
    4.9771    0.7013   20.9344 H   0  0  0  0  0  0  0  0  0  0  0  0
    6.6947   -1.4837   21.3583 H   0  0  0  0  0  0  0  0  0  0  0  0
    8.2734   -1.1233   20.6741 H   0  0  0  0  0  0  0  0  0  0  0  0
    8.6360    1.0393   22.3037 C   0  0  0  0  0  0  0  0  0  0  0  0
    9.7508    1.2467   21.3504 C   0  0  0  0  0  0  0  0  0  0  0  0
   11.0143    0.5758   21.8099 C   0  0  0  0  0  0  0  0  0  0  0  0
   11.3852   -0.6811   21.3123 C   0  0  0  0  0  0  0  0  0  0  0  0
   12.6054   -1.2479   21.6874 C   0  0  0  0  0  0  0  0  0  0  0  0
   13.4012   -0.5367   22.5888 C   0  0  0  0  0  0  0  0  0  0  0  0
   12.9357    0.6963   23.0524 C   0  0  0  0  0  0  0  0  0  0  0  0
   11.7764    1.2552   22.6749 N   0  0  0  0  0  0  0  0  0  0  0  0
   13.5369    1.2754   23.7493 H   0  0  0  0  0  0  0  0  0  0  0  0
   14.3609   -0.9104   22.9360 H   0  0  0  0  0  0  0  0  0  0  0  0
   12.9361   -2.1945   21.2559 H   0  0  0  0  0  0  0  0  0  0  0  0
   10.7178   -1.1966   20.6350 H   0  0  0  0  0  0  0  0  0  0  0  0
    9.9365    2.3200   21.3014 H   0  0  0  0  0  0  0  0  0  0  0  0
    9.4438    0.9137   20.3546 H   0  0  0  0  0  0  0  0  0  0  0  0
    8.4998    1.6731   23.4389 N   0  0  0  0  0  0  0  0  0  0  0  0
    4.7171    0.9577   24.6700 H   0  0  0  0  0  0  0  0  0  0  0  0
    3.5878    1.8901   26.6735 H   0  0  0  0  0  0  0  0  0  0  0  0
    4.8744    3.2665   28.3036 H   0  0  0  0  0  0  0  0  0  0  0  0
    7.2808    3.6934   27.8986 H   0  0  0  0  0  0  0  0  0  0  0  0
    9.0019    3.5767   24.9658 H   0  0  0  0  0  0  0  0  0  0  0  0
    9.4938    2.1080   25.8185 H   0  0  0  0  0  0  0  0  0  0  0  0
    9.1785    3.5943   26.7240 H   0  0  0  0  0  0  0  0  0  0  0  0
  1  2  1  0
  2  3  2  0
  3  4  1  0
  4  5  2  0
  5  6  1  0
  6  7  2  0
  7  8  1  0
  8  9  2  0
  9 10  1  0
 10 11  1  0
 11 12  1  0
 12 13  2  0
 13 14  1  0
 14 15  2  0
 15 16  1  0
 16 17  2  0
 17 18  1  0
 15 19  1  0
 14 20  1  0
 13 21  1  0
 11 22  1  0
 11 23  1  0
 10 24  1  0
 24 25  1  0
 25 26  1  0
 26 27  2  0
 27 28  1  0
 28 29  2  0
 29 30  1  0
 30 31  2  0
 30 32  1  0
 29 33  1  0
 28 34  1  0
 27 35  1  0
 25 36  1  0
 25 37  1  0
 24 38  2  0
  6 39  1  0
  5 40  1  0
  4 41  1  0
  3 42  1  0
  1 43  1  0
  1 44  1  0
  1 45  1  0
  7  2  1  0
 38  8  1  0
 17 12  1  0
 31 26  1  0
M  END
>  <cnnaffinity>  (1) 
-5.70887

>  <filename>  (1) 
Cc1ccccc1-c1nc(Cc2ccccn2)n(Cc2cccnc2)n1

$$$$
