
     RDKit          3D

 48 51  0  0  0  0  0  0  0  0999 V2000
   16.0277   -0.3035   19.6531 C   0  0  0  0  0  0  0  0  0  0  0  0
   14.7238   -0.7854   20.5361 C   0  0  0  0  0  0  0  0  0  0  0  0
   13.7569   -1.7830   20.3382 C   0  0  0  0  0  0  0  0  0  0  0  0
   12.4680   -1.6302   20.8822 C   0  0  0  0  0  0  0  0  0  0  0  0
   12.1086   -0.5141   21.6539 C   0  0  0  0  0  0  0  0  0  0  0  0
   10.6782   -0.1428   21.7603 C   0  0  0  0  0  0  0  0  0  0  0  0
    9.7288   -0.8854   21.2119 N   0  0  0  0  0  0  0  0  0  0  0  0
    8.6014   -0.1996   21.4684 N   0  0  0  0  0  0  0  0  0  0  0  0
    7.3246   -0.7378   21.0137 C   0  0  0  0  0  0  0  0  0  0  0  0
    6.6357    0.0451   19.9134 C   0  0  0  0  0  0  0  0  0  0  0  0
    5.3992    0.6747   20.0977 C   0  0  0  0  0  0  0  0  0  0  0  0
    4.8062    1.3357   19.0181 C   0  0  0  0  0  0  0  0  0  0  0  0
    5.4703    1.3352   17.7881 C   0  0  0  0  0  0  0  0  0  0  0  0
    6.6519    0.7308   17.5869 N   0  0  0  0  0  0  0  0  0  0  0  0
    7.2122    0.1138   18.6339 C   0  0  0  0  0  0  0  0  0  0  0  0
    8.1671   -0.3735   18.4441 H   0  0  0  0  0  0  0  0  0  0  0  0
    5.0319    1.8303   16.9229 H   0  0  0  0  0  0  0  0  0  0  0  0
    3.8559    1.8506   19.1165 H   0  0  0  0  0  0  0  0  0  0  0  0
    4.8982    0.6472   21.0683 H   0  0  0  0  0  0  0  0  0  0  0  0
    6.6541   -0.8348   21.8744 H   0  0  0  0  0  0  0  0  0  0  0  0
    7.5507   -1.7527   20.6745 H   0  0  0  0  0  0  0  0  0  0  0  0
    8.9051    0.9116   22.1795 C   0  0  0  0  0  0  0  0  0  0  0  0
    7.8683    1.7410   22.8794 C   0  0  0  0  0  0  0  0  0  0  0  0
    7.5289    1.1231   24.2706 C   0  0  0  0  0  0  0  0  0  0  0  0
    6.4817    1.8166   25.1044 C   0  0  0  0  0  0  0  0  0  0  0  0
    5.2757    1.3264   25.0852 N   0  0  0  0  0  0  0  0  0  0  0  0
    4.3375    1.9549   25.8488 N   0  0  0  0  0  0  0  0  0  0  0  0
    4.4871    3.0642   26.6730 C   0  0  0  0  0  0  0  0  0  0  0  0
    3.5281    3.5059   27.2816 O   0  0  0  0  0  0  0  0  0  0  0  0
    5.8659    3.5683   26.6906 C   0  0  0  0  0  0  0  0  0  0  0  0
    6.8263    2.9639   25.9408 C   0  0  0  0  0  0  0  0  0  0  0  0
    7.8601    3.3008   25.9579 H   0  0  0  0  0  0  0  0  0  0  0  0
    6.0318    4.4292   27.3277 H   0  0  0  0  0  0  0  0  0  0  0  0
    3.3952    1.5895   25.8628 H   0  0  0  0  0  0  0  0  0  0  0  0
    8.4582    1.0750   24.8522 H   0  0  0  0  0  0  0  0  0  0  0  0
    7.1983    0.0897   24.1129 H   0  0  0  0  0  0  0  0  0  0  0  0
    6.9706    1.8081   22.2527 H   0  0  0  0  0  0  0  0  0  0  0  0
    8.2558    2.7582   22.9835 H   0  0  0  0  0  0  0  0  0  0  0  0
   10.2137    0.9868   22.3572 N   0  0  0  0  0  0  0  0  0  0  0  0
   13.1475    0.2741   22.1760 C   0  0  0  0  0  0  0  0  0  0  0  0
   14.4149    0.0827   21.6493 C   0  0  0  0  0  0  0  0  0  0  0  0
   15.3523    0.9138   22.1356 F   0  0  0  0  0  0  0  0  0  0  0  0
   12.9802    1.1110   22.8484 H   0  0  0  0  0  0  0  0  0  0  0  0
   11.6794   -2.3310   20.6858 H   0  0  0  0  0  0  0  0  0  0  0  0
   13.9668   -2.6849   19.7791 H   0  0  0  0  0  0  0  0  0  0  0  0
   15.9424    0.1203   18.6421 H   0  0  0  0  0  0  0  0  0  0  0  0
   16.3734    0.5887   20.1472 H   0  0  0  0  0  0  0  0  0  0  0  0
   16.8494   -1.0193   19.6529 H   0  0  0  0  0  0  0  0  0  0  0  0
  1  2  1  0
  2  3  2  0
  3  4  1  0
  4  5  2  0
  5  6  1  0
  6  7  2  0
  7  8  1  0
  8  9  1  0
  9 10  1  0
 10 11  2  0
 11 12  1  0
 12 13  2  0
 13 14  1  0
 14 15  2  0
 15 16  1  0
 13 17  1  0
 12 18  1  0
 11 19  1  0
  9 20  1  0
  9 21  1  0
  8 22  1  0
 22 23  1  0
 23 24  1  0
 24 25  1  0
 25 26  2  0
 26 27  1  0
 27 28  1  0
 28 29  2  0
 28 30  1  0
 30 31  2  0
 31 32  1  0
 30 33  1  0
 27 34  1  0
 24 35  1  0
 24 36  1  0
 23 37  1  0
 23 38  1  0
 22 39  2  0
  5 40  1  0
 40 41  2  0
 41 42  1  0
 40 43  1  0
  4 44  1  0
  3 45  1  0
  1 46  1  0
  1 47  1  0
  1 48  1  0
 41  2  1  0
 39  6  1  0
 15 10  1  0
 31 25  1  0
M  END
>  <cnnaffinity>  (1) 
-6.5199

>  <filename>  (1) 
Cc1ccc(-c2nc(CCc3ccc(=O)[nH]n3)n(Cc3cccnc3)n2)cc1F

$$$$
