
     RDKit          3D

 44 47  0  0  0  0  0  0  0  0999 V2000
    9.0976    7.0551   24.1199 C   0  0  0  0  0  0  0  0  0  0  0  0
    8.6859    5.8847   23.2881 C   0  0  0  0  0  0  0  0  0  0  0  0
    7.6462    5.8138   22.4137 C   0  0  0  0  0  0  0  0  0  0  0  0
    7.5201    4.5307   21.8082 C   0  0  0  0  0  0  0  0  0  0  0  0
    8.5000    3.6567   22.1736 C   0  0  0  0  0  0  0  0  0  0  0  0
    8.6031    2.2200   21.7706 C   0  0  0  0  0  0  0  0  0  0  0  0
    7.5716    1.3915   22.5781 C   0  0  0  0  0  0  0  0  0  0  0  0
    7.5704   -0.0535   22.2421 C   0  0  0  0  0  0  0  0  0  0  0  0
    8.0800   -0.9830   23.0227 N   0  0  0  0  0  0  0  0  0  0  0  0
    8.2520   -2.0295   22.1775 C   0  0  0  0  0  0  0  0  0  0  0  0
    8.9653   -3.2580   22.6297 C   0  0  0  0  0  0  0  0  0  0  0  0
    8.3441   -4.0057   23.8327 C   0  0  0  0  0  0  0  0  0  0  0  0
    9.5501   -4.6984   24.4939 C   0  0  0  0  0  0  0  0  0  0  0  0
   10.7170   -4.0820   23.9726 O   0  0  0  0  0  0  0  0  0  0  0  0
   10.3940   -2.9780   23.1507 C   0  0  0  0  0  0  0  0  0  0  0  0
   10.4141   -2.0490   23.7425 H   0  0  0  0  0  0  0  0  0  0  0  0
   11.1600   -2.8994   22.3628 H   0  0  0  0  0  0  0  0  0  0  0  0
    9.5554   -4.5942   25.5873 H   0  0  0  0  0  0  0  0  0  0  0  0
    9.5853   -5.7789   24.2920 H   0  0  0  0  0  0  0  0  0  0  0  0
    7.5573   -4.7165   23.5529 H   0  0  0  0  0  0  0  0  0  0  0  0
    7.9173   -3.2739   24.5266 H   0  0  0  0  0  0  0  0  0  0  0  0
    9.0065   -3.9048   21.7585 H   0  0  0  0  0  0  0  0  0  0  0  0
    7.8355   -1.8315   20.9432 N   0  0  0  0  0  0  0  0  0  0  0  0
    7.3416   -0.5594   20.9926 N   0  0  0  0  0  0  0  0  0  0  0  0
    6.6376    0.0370   19.8982 C   0  0  0  0  0  0  0  0  0  0  0  0
    5.4226    0.7092   20.1086 C   0  0  0  0  0  0  0  0  0  0  0  0
    4.8144    1.3493   19.0242 C   0  0  0  0  0  0  0  0  0  0  0  0
    5.4312    1.2967   17.7732 C   0  0  0  0  0  0  0  0  0  0  0  0
    6.5730    0.6221   17.5517 N   0  0  0  0  0  0  0  0  0  0  0  0
    7.1504   -0.0013   18.5865 C   0  0  0  0  0  0  0  0  0  0  0  0
    8.0631   -0.5474   18.3615 H   0  0  0  0  0  0  0  0  0  0  0  0
    4.9896    1.8037   16.9170 H   0  0  0  0  0  0  0  0  0  0  0  0
    3.8805    1.8891   19.1448 H   0  0  0  0  0  0  0  0  0  0  0  0
    4.9549    0.7134   21.0926 H   0  0  0  0  0  0  0  0  0  0  0  0
    6.5718    1.8052   22.4247 H   0  0  0  0  0  0  0  0  0  0  0  0
    7.8019    1.4709   23.6443 H   0  0  0  0  0  0  0  0  0  0  0  0
    9.6214    1.8405   21.9316 H   0  0  0  0  0  0  0  0  0  0  0  0
    8.3964    2.1345   20.6934 H   0  0  0  0  0  0  0  0  0  0  0  0
    9.5719    4.3954   23.3195 S   0  0  0  0  0  0  0  0  0  0  0  0
    6.7000    4.2610   21.1504 H   0  0  0  0  0  0  0  0  0  0  0  0
    6.9910    6.6510   22.1970 H   0  0  0  0  0  0  0  0  0  0  0  0
    9.4896    6.7550   25.0941 H   0  0  0  0  0  0  0  0  0  0  0  0
    8.2554    7.7348   24.2762 H   0  0  0  0  0  0  0  0  0  0  0  0
    9.8735    7.6185   23.5988 H   0  0  0  0  0  0  0  0  0  0  0  0
  1  2  1  0
  2  3  2  0
  3  4  1  0
  4  5  2  0
  5  6  1  0
  6  7  1  0
  7  8  1  0
  8  9  2  0
  9 10  1  0
 10 11  1  0
 11 12  1  0
 12 13  1  0
 13 14  1  0
 14 15  1  0
 15 16  1  0
 15 17  1  0
 13 18  1  0
 13 19  1  0
 12 20  1  0
 12 21  1  0
 11 22  1  0
 10 23  2  0
 23 24  1  0
 24 25  1  0
 25 26  2  0
 26 27  1  0
 27 28  2  0
 28 29  1  0
 29 30  2  0
 30 31  1  0
 28 32  1  0
 27 33  1  0
 26 34  1  0
  7 35  1  0
  7 36  1  0
  6 37  1  0
  6 38  1  0
  5 39  1  0
  4 40  1  0
  3 41  1  0
  1 42  1  0
  1 43  1  0
  1 44  1  0
 39  2  1  0
 24  8  1  0
 30 25  1  0
 15 11  1  0
M  END
>  <cnnaffinity>  (1) 
-6.1564

>  <filename>  (1) 
Cc1ccc(CCc2nc(C3CCOC3)nn2-c2cccnc2)s1

$$$$
