
     RDKit          3D

 39 42  0  0  0  0  0  0  0  0999 V2000
   10.8213   -0.0232   24.5507 C   0  0  0  0  0  0  0  0  0  0  0  0
   11.5559   -0.4166   23.3050 C   0  0  0  0  0  0  0  0  0  0  0  0
   12.7411    0.0264   22.8038 C   0  0  0  0  0  0  0  0  0  0  0  0
   13.1489   -0.7399   21.7866 O   0  0  0  0  0  0  0  0  0  0  0  0
   12.2026   -1.7048   21.5562 N   0  0  0  0  0  0  0  0  0  0  0  0
   11.2559   -1.5118   22.4315 C   0  0  0  0  0  0  0  0  0  0  0  0
   10.0481   -2.3919   22.3884 C   0  0  0  0  0  0  0  0  0  0  0  0
    8.8026   -1.6489   22.0854 C   0  0  0  0  0  0  0  0  0  0  0  0
    8.5509   -1.1463   20.8970 N   0  0  0  0  0  0  0  0  0  0  0  0
    7.3081   -0.6162   21.0423 C   0  0  0  0  0  0  0  0  0  0  0  0
    6.5841    0.0404   19.9622 C   0  0  0  0  0  0  0  0  0  0  0  0
    5.3543    0.6956   20.1490 C   0  0  0  0  0  0  0  0  0  0  0  0
    4.7874    1.3276   19.0461 C   0  0  0  0  0  0  0  0  0  0  0  0
    5.4552    1.2742   17.8148 C   0  0  0  0  0  0  0  0  0  0  0  0
    6.6160    0.6276   17.6275 N   0  0  0  0  0  0  0  0  0  0  0  0
    7.1616    0.0264   18.6897 C   0  0  0  0  0  0  0  0  0  0  0  0
    8.1037   -0.4977   18.5414 H   0  0  0  0  0  0  0  0  0  0  0  0
    5.0387    1.7690   16.9397 H   0  0  0  0  0  0  0  0  0  0  0  0
    3.8535    1.8729   19.1266 H   0  0  0  0  0  0  0  0  0  0  0  0
    4.8754    0.7116   21.1324 H   0  0  0  0  0  0  0  0  0  0  0  0
    6.7956   -0.7406   22.2487 N   0  0  0  0  0  0  0  0  0  0  0  0
    7.7498   -1.4362   22.9131 N   0  0  0  0  0  0  0  0  0  0  0  0
    7.6203   -1.7555   24.2925 C   0  0  0  0  0  0  0  0  0  0  0  0
    7.3536   -0.7318   25.2059 C   0  0  0  0  0  0  0  0  0  0  0  0
    7.2915   -1.0197   26.6568 C   0  0  0  0  0  0  0  0  0  0  0  0
    7.4772   -2.3416   27.0271 C   0  0  0  0  0  0  0  0  0  0  0  0
    7.4214   -2.1126   27.2588 F   0  0  0  0  0  0  0  0  0  0  0  0
    7.7331   -3.4593   26.0367 C   0  0  0  0  0  0  0  0  0  0  0  0
    7.9279   -4.7457   26.3840 F   0  0  0  0  0  0  0  0  0  0  0  0
    7.8043   -3.1118   24.7063 C   0  0  0  0  0  0  0  0  0  0  0  0
    7.9936   -3.8834   23.9552 H   0  0  0  0  0  0  0  0  0  0  0  0
    7.1010   -0.0289   27.2291 H   0  0  0  0  0  0  0  0  0  0  0  0
    7.1814    0.2823   24.8582 H   0  0  0  0  0  0  0  0  0  0  0  0
    9.9726   -2.9961   23.2919 H   0  0  0  0  0  0  0  0  0  0  0  0
   10.1711   -3.0528   21.5440 H   0  0  0  0  0  0  0  0  0  0  0  0
   13.3965    0.8487   23.0539 H   0  0  0  0  0  0  0  0  0  0  0  0
   10.5288   -0.9256   25.0999 H   0  0  0  0  0  0  0  0  0  0  0  0
    9.9009    0.5312   24.3311 H   0  0  0  0  0  0  0  0  0  0  0  0
   11.4377    0.5906   25.2145 H   0  0  0  0  0  0  0  0  0  0  0  0
  1  2  1  0
  2  3  2  0
  3  4  1  0
  4  5  1  0
  5  6  2  0
  6  7  1  0
  7  8  1  0
  8  9  2  0
  9 10  1  0
 10 11  1  0
 11 12  2  0
 12 13  1  0
 13 14  2  0
 14 15  1  0
 15 16  2  0
 16 17  1  0
 14 18  1  0
 13 19  1  0
 12 20  1  0
 10 21  2  0
 21 22  1  0
 22 23  1  0
 23 24  2  0
 24 25  1  0
 25 26  2  0
 26 27  1  0
 26 28  1  0
 28 29  1  0
 28 30  2  0
 30 31  1  0
 25 32  1  0
 24 33  1  0
  7 34  1  0
  7 35  1  0
  3 36  1  0
  1 37  1  0
  1 38  1  0
  1 39  1  0
  6  2  1  0
 22  8  1  0
 30 23  1  0
 16 11  1  0
M  END
>  <cnnaffinity>  (1) 
-6.81365

>  <filename>  (1) 
Cc1conc1Cc1nc(-c2cccnc2)nn1-c1ccc(F)c(F)c1

$$$$
