
     RDKit          3D

 46 49  0  0  0  0  0  0  0  0999 V2000
   16.0242   -0.2935   19.6513 C   0  0  0  0  0  0  0  0  0  0  0  0
   14.7206   -0.7805   20.5497 C   0  0  0  0  0  0  0  0  0  0  0  0
   13.7659   -1.7925   20.3702 C   0  0  0  0  0  0  0  0  0  0  0  0
   12.4718   -1.6300   20.9032 C   0  0  0  0  0  0  0  0  0  0  0  0
   12.0901   -0.4880   21.6321 C   0  0  0  0  0  0  0  0  0  0  0  0
   10.6461   -0.1196   21.7079 C   0  0  0  0  0  0  0  0  0  0  0  0
    9.6822   -0.8962   21.2259 N   0  0  0  0  0  0  0  0  0  0  0  0
    8.5564   -0.1858   21.4466 N   0  0  0  0  0  0  0  0  0  0  0  0
    7.2637   -0.7215   21.0238 C   0  0  0  0  0  0  0  0  0  0  0  0
    6.5632    0.0418   19.9137 C   0  0  0  0  0  0  0  0  0  0  0  0
    5.3351    0.6898   20.0939 C   0  0  0  0  0  0  0  0  0  0  0  0
    4.7490    1.3554   19.0130 C   0  0  0  0  0  0  0  0  0  0  0  0
    5.4117    1.3406   17.7825 C   0  0  0  0  0  0  0  0  0  0  0  0
    6.5793    0.7105   17.5806 N   0  0  0  0  0  0  0  0  0  0  0  0
    7.1324    0.0882   18.6292 C   0  0  0  0  0  0  0  0  0  0  0  0
    8.0757   -0.4192   18.4352 H   0  0  0  0  0  0  0  0  0  0  0  0
    4.9814    1.8438   16.9176 H   0  0  0  0  0  0  0  0  0  0  0  0
    3.8085    1.8876   19.1106 H   0  0  0  0  0  0  0  0  0  0  0  0
    4.8338    0.6765   21.0644 H   0  0  0  0  0  0  0  0  0  0  0  0
    6.6105   -0.7925   21.8988 H   0  0  0  0  0  0  0  0  0  0  0  0
    7.4753   -1.7447   20.7033 H   0  0  0  0  0  0  0  0  0  0  0  0
    8.8737    0.9667   22.0709 C   0  0  0  0  0  0  0  0  0  0  0  0
    7.8332    1.8047   22.7718 C   0  0  0  0  0  0  0  0  0  0  0  0
    7.4445    1.1709   24.0953 C   0  0  0  0  0  0  0  0  0  0  0  0
    8.3466    0.9184   25.1075 C   0  0  0  0  0  0  0  0  0  0  0  0
    7.6916    0.2319   26.0692 N   0  0  0  0  0  0  0  0  0  0  0  0
    8.2479   -0.2150   27.3275 C   0  0  0  0  0  0  0  0  0  0  0  0
    7.6512   -1.0534   27.6914 H   0  0  0  0  0  0  0  0  0  0  0  0
    9.2791   -0.5415   27.1680 H   0  0  0  0  0  0  0  0  0  0  0  0
    8.2374    0.5922   28.0672 H   0  0  0  0  0  0  0  0  0  0  0  0
    6.4075    0.0298   25.7616 N   0  0  0  0  0  0  0  0  0  0  0  0
    6.2480    0.5880   24.5634 C   0  0  0  0  0  0  0  0  0  0  0  0
    5.2775    0.5366   24.0820 H   0  0  0  0  0  0  0  0  0  0  0  0
    9.4098    1.1233   25.1633 H   0  0  0  0  0  0  0  0  0  0  0  0
    8.2753    2.7933   22.9276 H   0  0  0  0  0  0  0  0  0  0  0  0
    6.9582    1.9493   22.1287 H   0  0  0  0  0  0  0  0  0  0  0  0
   10.1855    1.0554   22.2183 N   0  0  0  0  0  0  0  0  0  0  0  0
   13.1303    0.3144   22.1493 C   0  0  0  0  0  0  0  0  0  0  0  0
   14.4068    0.0990   21.6548 C   0  0  0  0  0  0  0  0  0  0  0  0
   15.3405    0.9349   22.1467 F   0  0  0  0  0  0  0  0  0  0  0  0
   12.9978    1.1371   22.8497 H   0  0  0  0  0  0  0  0  0  0  0  0
   11.6859   -2.3330   20.7027 H   0  0  0  0  0  0  0  0  0  0  0  0
   14.0120   -2.7249   19.8667 H   0  0  0  0  0  0  0  0  0  0  0  0
   16.8371   -1.0219   19.6550 H   0  0  0  0  0  0  0  0  0  0  0  0
   16.3636    0.5996   20.1529 H   0  0  0  0  0  0  0  0  0  0  0  0
   15.9291    0.1293   18.6375 H   0  0  0  0  0  0  0  0  0  0  0  0
  1  2  1  0
  2  3  2  0
  3  4  1  0
  4  5  2  0
  5  6  1  0
  6  7  2  0
  7  8  1  0
  8  9  1  0
  9 10  1  0
 10 11  2  0
 11 12  1  0
 12 13  2  0
 13 14  1  0
 14 15  2  0
 15 16  1  0
 13 17  1  0
 12 18  1  0
 11 19  1  0
  9 20  1  0
  9 21  1  0
  8 22  1  0
 22 23  1  0
 23 24  1  0
 24 25  2  0
 25 26  1  0
 26 27  1  0
 27 28  1  0
 27 29  1  0
 27 30  1  0
 26 31  1  0
 31 32  2  0
 32 33  1  0
 25 34  1  0
 23 35  1  0
 23 36  1  0
 22 37  2  0
  5 38  1  0
 38 39  2  0
 39 40  1  0
 38 41  1  0
  4 42  1  0
  3 43  1  0
  1 44  1  0
  1 45  1  0
  1 46  1  0
 39  2  1  0
 37  6  1  0
 15 10  1  0
 32 24  1  0
M  END
>  <cnnaffinity>  (1) 
-6.66117

>  <filename>  (1) 
Cc1ccc(-c2nc(Cc3cnn(C)c3)n(Cc3cccnc3)n2)cc1F

$$$$
