
     RDKit          3D

 47 50  0  0  0  0  0  0  0  0999 V2000
   14.3961   -1.8302   22.0759 C   0  0  0  0  0  0  0  0  0  0  0  0
   13.1285   -1.0481   22.0359 C   0  0  0  0  0  0  0  0  0  0  0  0
   13.0349    0.2117   22.6425 C   0  0  0  0  0  0  0  0  0  0  0  0
   11.8997    0.9840   22.4083 C   0  0  0  0  0  0  0  0  0  0  0  0
   10.8873    0.4774   21.5802 C   0  0  0  0  0  0  0  0  0  0  0  0
    9.6685    1.3159   21.2372 C   0  0  0  0  0  0  0  0  0  0  0  0
    8.5972    1.2640   22.2818 C   0  0  0  0  0  0  0  0  0  0  0  0
    8.5558    1.9718   23.3850 N   0  0  0  0  0  0  0  0  0  0  0  0
    7.4612    1.4838   24.0338 C   0  0  0  0  0  0  0  0  0  0  0  0
    7.0445    2.0118   25.3430 C   0  0  0  0  0  0  0  0  0  0  0  0
    5.8961    1.5308   26.0014 C   0  0  0  0  0  0  0  0  0  0  0  0
    5.5164    2.0652   27.2288 C   0  0  0  0  0  0  0  0  0  0  0  0
    6.2792    3.0811   27.8269 C   0  0  0  0  0  0  0  0  0  0  0  0
    5.8638    3.6555   29.0192 N   0  0  0  0  0  0  0  0  0  0  0  0
    5.3139    3.0386   29.5958 H   0  0  0  0  0  0  0  0  0  0  0  0
    6.6094    4.0762   29.5483 H   0  0  0  0  0  0  0  0  0  0  0  0
    7.4299    3.5535   27.1833 C   0  0  0  0  0  0  0  0  0  0  0  0
    7.8124    3.0213   25.9606 C   0  0  0  0  0  0  0  0  0  0  0  0
    8.7161    3.3753   25.4679 H   0  0  0  0  0  0  0  0  0  0  0  0
    8.0008    4.3516   27.6457 H   0  0  0  0  0  0  0  0  0  0  0  0
    4.6215    1.7212   27.7307 H   0  0  0  0  0  0  0  0  0  0  0  0
    5.3142    0.7309   25.5456 H   0  0  0  0  0  0  0  0  0  0  0  0
    6.8414    0.5139   23.3782 N   0  0  0  0  0  0  0  0  0  0  0  0
    7.5768    0.3845   22.2534 N   0  0  0  0  0  0  0  0  0  0  0  0
    7.2196   -0.5461   21.1925 C   0  0  0  0  0  0  0  0  0  0  0  0
    6.6044    0.1099   19.9678 C   0  0  0  0  0  0  0  0  0  0  0  0
    5.4066    0.8226   20.0984 C   0  0  0  0  0  0  0  0  0  0  0  0
    4.8515    1.4129   18.9611 C   0  0  0  0  0  0  0  0  0  0  0  0
    5.5120    1.2706   17.7354 C   0  0  0  0  0  0  0  0  0  0  0  0
    6.6591    0.5925   17.5870 N   0  0  0  0  0  0  0  0  0  0  0  0
    7.1832    0.0370   18.6886 C   0  0  0  0  0  0  0  0  0  0  0  0
    8.1185   -0.5031   18.5378 H   0  0  0  0  0  0  0  0  0  0  0  0
    5.1036    1.7203   16.8324 H   0  0  0  0  0  0  0  0  0  0  0  0
    3.9308    1.9855   19.0118 H   0  0  0  0  0  0  0  0  0  0  0  0
    4.9234    0.9044   21.0760 H   0  0  0  0  0  0  0  0  0  0  0  0
    6.5305   -1.2619   21.6451 H   0  0  0  0  0  0  0  0  0  0  0  0
    8.1167   -1.1075   20.9135 H   0  0  0  0  0  0  0  0  0  0  0  0
    9.9411    2.3711   21.1348 H   0  0  0  0  0  0  0  0  0  0  0  0
    9.2421    1.0060   20.2773 H   0  0  0  0  0  0  0  0  0  0  0  0
   11.0423   -0.8388   21.1282 C   0  0  0  0  0  0  0  0  0  0  0  0
   12.1375   -1.5767   21.3106 N   0  0  0  0  0  0  0  0  0  0  0  0
   10.2472   -1.3025   20.5478 H   0  0  0  0  0  0  0  0  0  0  0  0
   11.7806    1.9660   22.8626 H   0  0  0  0  0  0  0  0  0  0  0  0
   13.8530    0.5700   23.2595 H   0  0  0  0  0  0  0  0  0  0  0  0
   14.9919   -1.5938   22.9600 H   0  0  0  0  0  0  0  0  0  0  0  0
   14.2003   -2.9022   22.0386 H   0  0  0  0  0  0  0  0  0  0  0  0
   14.9617   -1.5981   21.1714 H   0  0  0  0  0  0  0  0  0  0  0  0
  1  2  1  0
  2  3  2  0
  3  4  1  0
  4  5  2  0
  5  6  1  0
  6  7  1  0
  7  8  2  0
  8  9  1  0
  9 10  1  0
 10 11  2  0
 11 12  1  0
 12 13  2  0
 13 14  1  0
 14 15  1  0
 14 16  1  0
 13 17  1  0
 17 18  2  0
 18 19  1  0
 17 20  1  0
 12 21  1  0
 11 22  1  0
  9 23  2  0
 23 24  1  0
 24 25  1  0
 25 26  1  0
 26 27  2  0
 27 28  1  0
 28 29  2  0
 29 30  1  0
 30 31  2  0
 31 32  1  0
 29 33  1  0
 28 34  1  0
 27 35  1  0
 25 36  1  0
 25 37  1  0
  6 38  1  0
  6 39  1  0
  5 40  1  0
 40 41  2  0
 40 42  1  0
  4 43  1  0
  3 44  1  0
  1 45  1  0
  1 46  1  0
  1 47  1  0
 41  2  1  0
 24  7  1  0
 31 26  1  0
 18 10  1  0
M  END
>  <cnnaffinity>  (1) 
-6.52044

>  <filename>  (1) 
Cc1ccc(Cc2nc(-c3ccc(N)cc3)nn2Cc2cccnc2)cn1

$$$$
