
     RDKit          3D

 41 45  0  0  0  0  0  0  0  0999 V2000
    8.2981    2.2382   21.5340 C   0  0  0  0  0  0  0  0  0  0  0  0
    7.1755    2.2644   22.5482 C   0  0  0  0  0  0  0  0  0  0  0  0
    6.7928    3.4434   23.1133 C   0  0  0  0  0  0  0  0  0  0  0  0
    5.8743    3.5054   24.2338 C   0  0  0  0  0  0  0  0  0  0  0  0
    5.4499    4.4967   24.8046 O   0  0  0  0  0  0  0  0  0  0  0  0
    5.4626    2.2657   24.7135 N   0  0  0  0  0  0  0  0  0  0  0  0
    5.7712    1.0684   24.1510 C   0  0  0  0  0  0  0  0  0  0  0  0
    6.5375    1.0430   23.0176 C   0  0  0  0  0  0  0  0  0  0  0  0
    6.8221   -0.2829   22.4519 C   0  0  0  0  0  0  0  0  0  0  0  0
    7.3374   -1.2461   23.1933 N   0  0  0  0  0  0  0  0  0  0  0  0
    7.6085   -2.2214   22.2965 C   0  0  0  0  0  0  0  0  0  0  0  0
    8.4638   -3.3995   22.5917 C   0  0  0  0  0  0  0  0  0  0  0  0
    7.9730   -4.8411   22.4475 C   0  0  0  0  0  0  0  0  0  0  0  0
    8.3896   -4.2962   23.7834 C   0  0  0  0  0  0  0  0  0  0  0  0
    9.3568   -4.6956   24.8407 C   0  0  0  0  0  0  0  0  0  0  0  0
    7.9038   -4.3543   25.1890 C   0  0  0  0  0  0  0  0  0  0  0  0
    7.2117   -5.1570   25.4339 H   0  0  0  0  0  0  0  0  0  0  0  0
    7.7133   -3.4104   25.6906 H   0  0  0  0  0  0  0  0  0  0  0  0
   10.1218   -3.9756   25.1361 H   0  0  0  0  0  0  0  0  0  0  0  0
    9.6808   -5.7319   24.8652 H   0  0  0  0  0  0  0  0  0  0  0  0
    6.9106   -5.0178   22.2903 H   0  0  0  0  0  0  0  0  0  0  0  0
    8.6219   -5.5713   21.9614 H   0  0  0  0  0  0  0  0  0  0  0  0
    9.4813   -3.1923   22.2582 H   0  0  0  0  0  0  0  0  0  0  0  0
    7.2586   -1.9471   21.0504 N   0  0  0  0  0  0  0  0  0  0  0  0
    6.7154   -0.6979   21.1465 N   0  0  0  0  0  0  0  0  0  0  0  0
    6.2643   -0.0294   19.9710 C   0  0  0  0  0  0  0  0  0  0  0  0
    5.3283    1.0157   20.0002 C   0  0  0  0  0  0  0  0  0  0  0  0
    5.0501    1.6756   18.7965 C   0  0  0  0  0  0  0  0  0  0  0  0
    5.6761    1.2536   17.6210 C   0  0  0  0  0  0  0  0  0  0  0  0
    6.5522    0.2354   17.5812 N   0  0  0  0  0  0  0  0  0  0  0  0
    6.8187   -0.3920   18.7289 C   0  0  0  0  0  0  0  0  0  0  0  0
    7.5324   -1.2093   18.6958 H   0  0  0  0  0  0  0  0  0  0  0  0
    5.4736    1.7359   16.6690 H   0  0  0  0  0  0  0  0  0  0  0  0
    4.3641    2.5174   18.7572 H   0  0  0  0  0  0  0  0  0  0  0  0
    4.8591    1.3237   20.9330 H   0  0  0  0  0  0  0  0  0  0  0  0
    5.4253    0.1582   24.6451 H   0  0  0  0  0  0  0  0  0  0  0  0
    4.8863    2.4266   25.5279 H   0  0  0  0  0  0  0  0  0  0  0  0
    7.1812    4.3897   22.7661 H   0  0  0  0  0  0  0  0  0  0  0  0
    9.1492    1.6570   21.9028 H   0  0  0  0  0  0  0  0  0  0  0  0
    7.9902    1.7869   20.5907 H   0  0  0  0  0  0  0  0  0  0  0  0
    8.6544    3.2485   21.3290 H   0  0  0  0  0  0  0  0  0  0  0  0
  1  2  1  0
  2  3  2  0
  3  4  1  0
  4  5  2  0
  4  6  1  0
  6  7  1  0
  7  8  2  0
  8  9  1  0
  9 10  2  0
 10 11  1  0
 11 12  1  0
 12 13  1  0
 13 14  1  0
 14 15  1  0
 15 16  1  0
 16 17  1  0
 16 18  1  0
 15 19  1  0
 15 20  1  0
 13 21  1  0
 13 22  1  0
 12 23  1  0
 11 24  2  0
 24 25  1  0
 25 26  1  0
 26 27  2  0
 27 28  1  0
 28 29  2  0
 29 30  1  0
 30 31  2  0
 31 32  1  0
 29 33  1  0
 28 34  1  0
 27 35  1  0
  7 36  1  0
  6 37  1  0
  3 38  1  0
  1 39  1  0
  1 40  1  0
  1 41  1  0
  8  2  1  0
 25  9  1  0
 31 26  1  0
 14 12  1  0
 16 14  1  0
M  END
>  <cnnaffinity>  (1) 
-5.49601

>  <filename>  (1) 
Cc1cc(=O)[nH]cc1-c1nc(C2CC23CC3)nn1-c1cccnc1

$$$$
