
     RDKit          3D

 43 46  0  0  0  0  0  0  0  0999 V2000
    7.8280   -0.4785   27.4413 C   0  0  0  0  0  0  0  0  0  0  0  0
    7.2640    0.1786   26.2256 C   0  0  0  0  0  0  0  0  0  0  0  0
    7.6580    1.2950   25.5218 C   0  0  0  0  0  0  0  0  0  0  0  0
    6.8564    1.3093   24.3610 C   0  0  0  0  0  0  0  0  0  0  0  0
    7.1213    1.9986   23.0552 C   0  0  0  0  0  0  0  0  0  0  0  0
    8.0741    1.0955   22.3397 C   0  0  0  0  0  0  0  0  0  0  0  0
    9.3804    1.1727   22.4569 N   0  0  0  0  0  0  0  0  0  0  0  0
    9.8057   -0.0239   21.9699 C   0  0  0  0  0  0  0  0  0  0  0  0
   11.2229   -0.4090   21.8742 C   0  0  0  0  0  0  0  0  0  0  0  0
   12.2326    0.3859   22.4538 C   0  0  0  0  0  0  0  0  0  0  0  0
   13.5472   -0.0288   22.3250 C   0  0  0  0  0  0  0  0  0  0  0  0
   14.5233    0.6944   22.8933 F   0  0  0  0  0  0  0  0  0  0  0  0
   13.8941   -1.1604   21.5991 C   0  0  0  0  0  0  0  0  0  0  0  0
   12.9051   -1.8933   20.9552 C   0  0  0  0  0  0  0  0  0  0  0  0
   11.5634   -1.5731   21.1581 C   0  0  0  0  0  0  0  0  0  0  0  0
   10.7593   -2.1920   20.7633 H   0  0  0  0  0  0  0  0  0  0  0  0
   13.2115   -2.6832   20.2755 H   0  0  0  0  0  0  0  0  0  0  0  0
   14.9206   -1.4699   21.5403 H   0  0  0  0  0  0  0  0  0  0  0  0
   12.0276    1.3103   22.9925 H   0  0  0  0  0  0  0  0  0  0  0  0
    8.8263   -0.8191   21.5612 N   0  0  0  0  0  0  0  0  0  0  0  0
    7.7169   -0.0946   21.8122 N   0  0  0  0  0  0  0  0  0  0  0  0
    6.4091   -0.5223   21.3294 C   0  0  0  0  0  0  0  0  0  0  0  0
    6.0013    0.1507   20.0338 C   0  0  0  0  0  0  0  0  0  0  0  0
    4.8145    0.8760   19.8824 C   0  0  0  0  0  0  0  0  0  0  0  0
    4.5726    1.5239   18.6669 C   0  0  0  0  0  0  0  0  0  0  0  0
    5.5192    1.4148   17.6472 C   0  0  0  0  0  0  0  0  0  0  0  0
    6.6465    0.6981   17.7596 N   0  0  0  0  0  0  0  0  0  0  0  0
    6.8700    0.0917   18.9299 C   0  0  0  0  0  0  0  0  0  0  0  0
    7.8017   -0.4636   19.0181 H   0  0  0  0  0  0  0  0  0  0  0  0
    5.3781    1.9308   16.6995 H   0  0  0  0  0  0  0  0  0  0  0  0
    3.6864    2.1268   18.5046 H   0  0  0  0  0  0  0  0  0  0  0  0
    4.0915    0.9539   20.6972 H   0  0  0  0  0  0  0  0  0  0  0  0
    5.7016   -0.3073   22.1262 H   0  0  0  0  0  0  0  0  0  0  0  0
    6.4815   -1.6081   21.2304 H   0  0  0  0  0  0  0  0  0  0  0  0
    7.6029    2.9666   23.1887 H   0  0  0  0  0  0  0  0  0  0  0  0
    6.1979    2.1201   22.4859 H   0  0  0  0  0  0  0  0  0  0  0  0
    5.9761    0.3196   24.3717 N   0  0  0  0  0  0  0  0  0  0  0  0
    6.2415   -0.3511   25.5089 N   0  0  0  0  0  0  0  0  0  0  0  0
    5.7243   -1.1871   25.7268 H   0  0  0  0  0  0  0  0  0  0  0  0
    8.4522    1.9815   25.7770 H   0  0  0  0  0  0  0  0  0  0  0  0
    8.4802    0.2205   27.9681 H   0  0  0  0  0  0  0  0  0  0  0  0
    7.0370   -0.8051   28.1220 H   0  0  0  0  0  0  0  0  0  0  0  0
    8.4325   -1.3524   27.1713 H   0  0  0  0  0  0  0  0  0  0  0  0
  1  2  1  0
  2  3  2  0
  3  4  1  0
  4  5  1  0
  5  6  1  0
  6  7  2  0
  7  8  1  0
  8  9  1  0
  9 10  2  0
 10 11  1  0
 11 12  1  0
 11 13  2  0
 13 14  1  0
 14 15  2  0
 15 16  1  0
 14 17  1  0
 13 18  1  0
 10 19  1  0
  8 20  2  0
 20 21  1  0
 21 22  1  0
 22 23  1  0
 23 24  2  0
 24 25  1  0
 25 26  2  0
 26 27  1  0
 27 28  2  0
 28 29  1  0
 26 30  1  0
 25 31  1  0
 24 32  1  0
 22 33  1  0
 22 34  1  0
  5 35  1  0
  5 36  1  0
  4 37  2  0
 37 38  1  0
 38 39  1  0
  3 40  1  0
  1 41  1  0
  1 42  1  0
  1 43  1  0
 38  2  1  0
 21  6  1  0
 28 23  1  0
 15  9  1  0
M  END
>  <cnnaffinity>  (1) 
-6.49366

>  <filename>  (1) 
Cc1cc(Cc2nc(-c3cccc(F)c3)nn2Cc2cccnc2)n[nH]1

$$$$
