
     RDKit          3D

 47 49  0  0  0  0  0  0  0  0999 V2000
    6.3247    6.6746   21.2571 C   0  0  0  0  0  0  0  0  0  0  0  0
    7.3261    5.8067   21.9772 C   0  0  0  0  0  0  0  0  0  0  0  0
    8.2707    6.3306   22.8718 C   0  0  0  0  0  0  0  0  0  0  0  0
    9.2264    5.6040   23.4672 N   0  0  0  0  0  0  0  0  0  0  0  0
    9.3153    4.3070   23.1360 C   0  0  0  0  0  0  0  0  0  0  0  0
    8.4344    3.6541   22.2569 C   0  0  0  0  0  0  0  0  0  0  0  0
    8.5824    2.1995   21.8563 C   0  0  0  0  0  0  0  0  0  0  0  0
    7.6470    1.2565   22.6467 C   0  0  0  0  0  0  0  0  0  0  0  0
    7.7458   -0.1634   22.2000 C   0  0  0  0  0  0  0  0  0  0  0  0
    8.3306   -1.1394   22.8632 N   0  0  0  0  0  0  0  0  0  0  0  0
    8.3002   -2.1727   21.9822 C   0  0  0  0  0  0  0  0  0  0  0  0
    8.8418   -3.5187   22.3106 C   0  0  0  0  0  0  0  0  0  0  0  0
    8.0298   -4.2914   23.3690 C   0  0  0  0  0  0  0  0  0  0  0  0
    6.6530   -4.6345   22.7931 C   0  0  0  0  0  0  0  0  0  0  0  0
    6.0384   -5.1823   23.5163 H   0  0  0  0  0  0  0  0  0  0  0  0
    6.7661   -5.2713   21.9032 H   0  0  0  0  0  0  0  0  0  0  0  0
    6.1061   -3.7354   22.4843 H   0  0  0  0  0  0  0  0  0  0  0  0
    8.7808   -5.5494   23.8120 C   0  0  0  0  0  0  0  0  0  0  0  0
    8.2275   -6.0904   24.5887 H   0  0  0  0  0  0  0  0  0  0  0  0
    8.9271   -6.2394   22.9692 H   0  0  0  0  0  0  0  0  0  0  0  0
    9.7661   -5.3000   24.2267 H   0  0  0  0  0  0  0  0  0  0  0  0
    7.9034   -3.6423   24.2501 H   0  0  0  0  0  0  0  0  0  0  0  0
    8.8200   -4.0782   21.3750 H   0  0  0  0  0  0  0  0  0  0  0  0
    9.8790   -3.3872   22.6408 H   0  0  0  0  0  0  0  0  0  0  0  0
    7.7530   -1.8950   20.8187 N   0  0  0  0  0  0  0  0  0  0  0  0
    7.3623   -0.6039   20.9650 N   0  0  0  0  0  0  0  0  0  0  0  0
    6.6546    0.0446   19.9191 C   0  0  0  0  0  0  0  0  0  0  0  0
    5.4385    0.7014   20.1488 C   0  0  0  0  0  0  0  0  0  0  0  0
    4.8227    1.3364   19.0663 C   0  0  0  0  0  0  0  0  0  0  0  0
    5.4360    1.2938   17.8107 C   0  0  0  0  0  0  0  0  0  0  0  0
    6.5857    0.6338   17.5798 N   0  0  0  0  0  0  0  0  0  0  0  0
    7.1672    0.0107   18.6090 C   0  0  0  0  0  0  0  0  0  0  0  0
    8.0838   -0.5371   18.3997 H   0  0  0  0  0  0  0  0  0  0  0  0
    4.9876    1.7953   16.9550 H   0  0  0  0  0  0  0  0  0  0  0  0
    3.8843    1.8662   19.1913 H   0  0  0  0  0  0  0  0  0  0  0  0
    4.9802    0.6849   21.1389 H   0  0  0  0  0  0  0  0  0  0  0  0
    6.6109    1.5979   22.5495 H   0  0  0  0  0  0  0  0  0  0  0  0
    7.8953    1.2788   23.7099 H   0  0  0  0  0  0  0  0  0  0  0  0
    9.6227    1.8651   21.9812 H   0  0  0  0  0  0  0  0  0  0  0  0
    8.3555    2.0867   20.7866 H   0  0  0  0  0  0  0  0  0  0  0  0
    7.3955    4.4346   21.7323 C   0  0  0  0  0  0  0  0  0  0  0  0
    6.6464    3.9846   21.0725 H   0  0  0  0  0  0  0  0  0  0  0  0
   10.1321    3.7546   23.6047 H   0  0  0  0  0  0  0  0  0  0  0  0
    8.2383    7.3881   23.1292 H   0  0  0  0  0  0  0  0  0  0  0  0
    6.7232    7.0352   20.3017 H   0  0  0  0  0  0  0  0  0  0  0  0
    5.4129    6.1145   21.0355 H   0  0  0  0  0  0  0  0  0  0  0  0
    6.0435    7.5487   21.8488 H   0  0  0  0  0  0  0  0  0  0  0  0
  1  2  1  0
  2  3  2  0
  3  4  1  0
  4  5  2  0
  5  6  1  0
  6  7  1  0
  7  8  1  0
  8  9  1  0
  9 10  2  0
 10 11  1  0
 11 12  1  0
 12 13  1  0
 13 14  1  0
 14 15  1  0
 14 16  1  0
 14 17  1  0
 13 18  1  0
 18 19  1  0
 18 20  1  0
 18 21  1  0
 13 22  1  0
 12 23  1  0
 12 24  1  0
 11 25  2  0
 25 26  1  0
 26 27  1  0
 27 28  2  0
 28 29  1  0
 29 30  2  0
 30 31  1  0
 31 32  2  0
 32 33  1  0
 30 34  1  0
 29 35  1  0
 28 36  1  0
  8 37  1  0
  8 38  1  0
  7 39  1  0
  7 40  1  0
  6 41  2  0
 41 42  1  0
  5 43  1  0
  3 44  1  0
  1 45  1  0
  1 46  1  0
  1 47  1  0
 41  2  1  0
 26  9  1  0
 32 27  1  0
M  END
>  <cnnaffinity>  (1) 
-6.11604

>  <filename>  (1) 
Cc1cncc(CCc2nc(CC(C)C)nn2-c2cccnc2)c1

$$$$
