
     RDKit          3D

 47 50  0  0  0  0  0  0  0  0999 V2000
   14.1514   -0.6482   22.4649 C   0  0  0  0  0  0  0  0  0  0  0  0
   12.8894    0.1485   22.5307 C   0  0  0  0  0  0  0  0  0  0  0  0
   12.7236    1.2136   23.3711 C   0  0  0  0  0  0  0  0  0  0  0  0
   11.5344    1.9969   23.3324 C   0  0  0  0  0  0  0  0  0  0  0  0
   10.5669    1.7049   22.4197 C   0  0  0  0  0  0  0  0  0  0  0  0
   10.6819    0.6309   21.5697 N   0  0  0  0  0  0  0  0  0  0  0  0
    9.5315    0.2471   20.7432 C   0  0  0  0  0  0  0  0  0  0  0  0
    8.4690   -0.5449   21.4585 C   0  0  0  0  0  0  0  0  0  0  0  0
    8.5988   -1.2515   22.5581 N   0  0  0  0  0  0  0  0  0  0  0  0
    7.4024   -1.8872   22.6666 C   0  0  0  0  0  0  0  0  0  0  0  0
    7.0591   -2.8953   23.7390 C   0  0  0  0  0  0  0  0  0  0  0  0
    7.8542   -2.6563   25.0463 C   0  0  0  0  0  0  0  0  0  0  0  0
    9.2481   -3.2403   25.0164 C   0  0  0  0  0  0  0  0  0  0  0  0
    9.6948   -4.0567   24.0548 C   0  0  0  0  0  0  0  0  0  0  0  0
    8.7973   -4.5479   22.9358 C   0  0  0  0  0  0  0  0  0  0  0  0
    7.3074   -4.3482   23.2511 C   0  0  0  0  0  0  0  0  0  0  0  0
    6.7014   -4.5756   22.3661 H   0  0  0  0  0  0  0  0  0  0  0  0
    7.0042   -5.0449   24.0459 H   0  0  0  0  0  0  0  0  0  0  0  0
    9.0326   -3.9816   22.0234 H   0  0  0  0  0  0  0  0  0  0  0  0
    8.9949   -5.6047   22.7174 H   0  0  0  0  0  0  0  0  0  0  0  0
   10.7431   -4.3613   24.0513 H   0  0  0  0  0  0  0  0  0  0  0  0
    9.8884   -2.9702   25.8518 H   0  0  0  0  0  0  0  0  0  0  0  0
    7.3175   -3.1121   25.8907 H   0  0  0  0  0  0  0  0  0  0  0  0
    7.9170   -1.5845   25.2757 H   0  0  0  0  0  0  0  0  0  0  0  0
    5.9886   -2.7526   23.9126 H   0  0  0  0  0  0  0  0  0  0  0  0
    6.5390   -1.5917   21.7157 N   0  0  0  0  0  0  0  0  0  0  0  0
    7.2269   -0.7289   20.9207 N   0  0  0  0  0  0  0  0  0  0  0  0
    6.5672   -0.0573   19.8520 C   0  0  0  0  0  0  0  0  0  0  0  0
    5.3683    0.6223   20.0967 C   0  0  0  0  0  0  0  0  0  0  0  0
    4.7933    1.3351   19.0444 C   0  0  0  0  0  0  0  0  0  0  0  0
    5.4162    1.3202   17.7908 C   0  0  0  0  0  0  0  0  0  0  0  0
    6.5416    0.6349   17.5378 N   0  0  0  0  0  0  0  0  0  0  0  0
    7.0979   -0.0384   18.5510 C   0  0  0  0  0  0  0  0  0  0  0  0
    8.0151   -0.5841   18.3235 H   0  0  0  0  0  0  0  0  0  0  0  0
    4.9962    1.8704   16.9545 H   0  0  0  0  0  0  0  0  0  0  0  0
    3.8833    1.9057   19.1882 H   0  0  0  0  0  0  0  0  0  0  0  0
    4.9278    0.5780   21.0940 H   0  0  0  0  0  0  0  0  0  0  0  0
    9.8961   -0.3874   19.9328 H   0  0  0  0  0  0  0  0  0  0  0  0
    9.0733    1.1339   20.2931 H   0  0  0  0  0  0  0  0  0  0  0  0
   11.8010   -0.2492   21.6289 C   0  0  0  0  0  0  0  0  0  0  0  0
   11.8315   -1.2623   20.9446 O   0  0  0  0  0  0  0  0  0  0  0  0
    9.6516    2.2888   22.3312 H   0  0  0  0  0  0  0  0  0  0  0  0
   11.3943    2.8276   24.0129 H   0  0  0  0  0  0  0  0  0  0  0  0
   13.5151    1.4563   24.0847 H   0  0  0  0  0  0  0  0  0  0  0  0
   14.6487   -0.5131   21.5044 H   0  0  0  0  0  0  0  0  0  0  0  0
   14.8327   -0.3410   23.2577 H   0  0  0  0  0  0  0  0  0  0  0  0
   13.9909   -1.7255   22.5462 H   0  0  0  0  0  0  0  0  0  0  0  0
  1  2  1  0
  2  3  2  0
  3  4  1  0
  4  5  2  0
  5  6  1  0
  6  7  1  0
  7  8  1  0
  8  9  2  0
  9 10  1  0
 10 11  1  0
 11 12  1  0
 12 13  1  0
 13 14  2  0
 14 15  1  0
 15 16  1  0
 16 17  1  0
 16 18  1  0
 15 19  1  0
 15 20  1  0
 14 21  1  0
 13 22  1  0
 12 23  1  0
 12 24  1  0
 11 25  1  0
 10 26  2  0
 26 27  1  0
 27 28  1  0
 28 29  2  0
 29 30  1  0
 30 31  2  0
 31 32  1  0
 32 33  2  0
 33 34  1  0
 31 35  1  0
 30 36  1  0
 29 37  1  0
  7 38  1  0
  7 39  1  0
  6 40  1  0
 40 41  2  0
  5 42  1  0
  4 43  1  0
  3 44  1  0
  1 45  1  0
  1 46  1  0
  1 47  1  0
 40  2  1  0
 27  8  1  0
 33 28  1  0
 16 11  1  0
M  END
>  <cnnaffinity>  (1) 
-6.89579

>  <filename>  (1) 
Cc1cccn(Cc2nc(C3CC=CCC3)nn2-c2cccnc2)c1=O

$$$$
