
     RDKit          3D

 53 56  0  0  0  0  0  0  0  0999 V2000
    4.2527   -4.6712   24.8291 C   0  0  0  0  0  0  0  0  0  0  0  0
    5.7042   -4.7385   25.3238 C   0  0  0  0  0  0  0  0  0  0  0  0
    6.6593   -5.2850   24.2408 C   0  0  0  0  0  0  0  0  0  0  0  0
    6.9353   -4.2829   23.1136 C   0  0  0  0  0  0  0  0  0  0  0  0
    7.4447   -2.9343   23.6665 C   0  0  0  0  0  0  0  0  0  0  0  0
    7.6906   -1.9401   22.5697 C   0  0  0  0  0  0  0  0  0  0  0  0
    6.7578   -1.6001   21.6970 N   0  0  0  0  0  0  0  0  0  0  0  0
    7.3720   -0.6605   20.9387 N   0  0  0  0  0  0  0  0  0  0  0  0
    6.6620    0.0091   19.9027 C   0  0  0  0  0  0  0  0  0  0  0  0
    5.4412    0.6432   20.1666 C   0  0  0  0  0  0  0  0  0  0  0  0
    4.8113    1.3098   19.1110 C   0  0  0  0  0  0  0  0  0  0  0  0
    5.4009    1.2948   17.8401 C   0  0  0  0  0  0  0  0  0  0  0  0
    6.5627    0.6766   17.5806 N   0  0  0  0  0  0  0  0  0  0  0  0
    7.1734    0.0569   18.5948 C   0  0  0  0  0  0  0  0  0  0  0  0
    8.1180   -0.4349   18.3732 H   0  0  0  0  0  0  0  0  0  0  0  0
    4.9144    1.7813   16.9969 H   0  0  0  0  0  0  0  0  0  0  0  0
    3.8781    1.8407   19.2631 H   0  0  0  0  0  0  0  0  0  0  0  0
    5.0139    0.6120   21.1708 H   0  0  0  0  0  0  0  0  0  0  0  0
    8.6321   -0.4635   21.4224 C   0  0  0  0  0  0  0  0  0  0  0  0
    9.5314    0.6203   20.9352 C   0  0  0  0  0  0  0  0  0  0  0  0
    9.0307    2.0270   21.3018 C   0  0  0  0  0  0  0  0  0  0  0  0
    8.9304    2.2465   22.8207 C   0  0  0  0  0  0  0  0  0  0  0  0
    8.4575    3.6355   23.1513 C   0  0  0  0  0  0  0  0  0  0  0  0
    7.0789    3.9535   23.1419 C   0  0  0  0  0  0  0  0  0  0  0  0
    6.6020    5.1884   23.3885 N   0  0  0  0  0  0  0  0  0  0  0  0
    7.5415    6.1218   23.6234 C   0  0  0  0  0  0  0  0  0  0  0  0
    8.9140    5.8240   23.6210 C   0  0  0  0  0  0  0  0  0  0  0  0
    9.3865    4.5841   23.3908 N   0  0  0  0  0  0  0  0  0  0  0  0
    9.6474    6.6003   23.8156 H   0  0  0  0  0  0  0  0  0  0  0  0
    7.1946    7.1302   23.8268 H   0  0  0  0  0  0  0  0  0  0  0  0
    6.3442    3.1815   22.9340 H   0  0  0  0  0  0  0  0  0  0  0  0
    8.2495    1.4999   23.2516 H   0  0  0  0  0  0  0  0  0  0  0  0
    9.9088    2.0847   23.2846 H   0  0  0  0  0  0  0  0  0  0  0  0
    8.0555    2.2027   20.8261 H   0  0  0  0  0  0  0  0  0  0  0  0
    9.7279    2.7608   20.8878 H   0  0  0  0  0  0  0  0  0  0  0  0
    9.6335    0.5399   19.8503 H   0  0  0  0  0  0  0  0  0  0  0  0
   10.5174    0.4374   21.3729 H   0  0  0  0  0  0  0  0  0  0  0  0
    8.8630   -1.2715   22.4387 N   0  0  0  0  0  0  0  0  0  0  0  0
    6.4798   -2.3613   24.7322 C   0  0  0  0  0  0  0  0  0  0  0  0
    6.2015   -3.3740   25.8482 C   0  0  0  0  0  0  0  0  0  0  0  0
    7.1263   -3.5238   26.4228 H   0  0  0  0  0  0  0  0  0  0  0  0
    5.4675   -2.9540   26.5485 H   0  0  0  0  0  0  0  0  0  0  0  0
    6.8941   -1.4376   25.1570 H   0  0  0  0  0  0  0  0  0  0  0  0
    5.5406   -2.0812   24.2430 H   0  0  0  0  0  0  0  0  0  0  0  0
    8.4131   -3.1032   24.1501 H   0  0  0  0  0  0  0  0  0  0  0  0
    6.0211   -4.1036   22.5305 H   0  0  0  0  0  0  0  0  0  0  0  0
    7.6713   -4.7006   22.4150 H   0  0  0  0  0  0  0  0  0  0  0  0
    7.6154   -5.5589   24.7099 H   0  0  0  0  0  0  0  0  0  0  0  0
    6.2480   -6.2083   23.8135 H   0  0  0  0  0  0  0  0  0  0  0  0
    5.7203   -5.4432   26.1672 H   0  0  0  0  0  0  0  0  0  0  0  0
    3.5847   -4.3239   25.6244 H   0  0  0  0  0  0  0  0  0  0  0  0
    3.9054   -5.6568   24.5015 H   0  0  0  0  0  0  0  0  0  0  0  0
    4.1339   -3.9855   23.9823 H   0  0  0  0  0  0  0  0  0  0  0  0
  1  2  1  0
  2  3  1  0
  3  4  1  0
  4  5  1  0
  5  6  1  0
  6  7  2  0
  7  8  1  0
  8  9  1  0
  9 10  2  0
 10 11  1  0
 11 12  2  0
 12 13  1  0
 13 14  2  0
 14 15  1  0
 12 16  1  0
 11 17  1  0
 10 18  1  0
  8 19  1  0
 19 20  1  0
 20 21  1  0
 21 22  1  0
 22 23  1  0
 23 24  2  0
 24 25  1  0
 25 26  2  0
 26 27  1  0
 27 28  2  0
 27 29  1  0
 26 30  1  0
 24 31  1  0
 22 32  1  0
 22 33  1  0
 21 34  1  0
 21 35  1  0
 20 36  1  0
 20 37  1  0
 19 38  2  0
  5 39  1  0
 39 40  1  0
 40 41  1  0
 40 42  1  0
 39 43  1  0
 39 44  1  0
  5 45  1  0
  4 46  1  0
  4 47  1  0
  3 48  1  0
  3 49  1  0
  2 50  1  0
  1 51  1  0
  1 52  1  0
  1 53  1  0
 40  2  1  0
 38  6  1  0
 14  9  1  0
 28 23  1  0
M  END
>  <cnnaffinity>  (1) 
-6.33504

>  <filename>  (1) 
CC1CCC(c2nc(CCCc3cnccn3)n(-c3cccnc3)n2)CC1

$$$$
