
     RDKit          3D

 42 45  0  0  0  0  0  0  0  0999 V2000
    4.8808    2.0156   24.5491 C   0  0  0  0  0  0  0  0  0  0  0  0
    6.0679    2.5518   25.3089 C   0  0  0  0  0  0  0  0  0  0  0  0
    5.8490    3.2874   26.4833 C   0  0  0  0  0  0  0  0  0  0  0  0
    6.8914    3.9331   27.1548 C   0  0  0  0  0  0  0  0  0  0  0  0
    8.1941    3.8317   26.6593 C   0  0  0  0  0  0  0  0  0  0  0  0
    8.4484    3.0587   25.5302 C   0  0  0  0  0  0  0  0  0  0  0  0
    7.4058    2.3934   24.8525 C   0  0  0  0  0  0  0  0  0  0  0  0
    7.7679    1.6105   23.6424 C   0  0  0  0  0  0  0  0  0  0  0  0
    7.0648    0.6290   23.0829 N   0  0  0  0  0  0  0  0  0  0  0  0
    7.8128    0.2716   22.0081 N   0  0  0  0  0  0  0  0  0  0  0  0
    7.3101   -0.6966   21.0312 C   0  0  0  0  0  0  0  0  0  0  0  0
    6.6122   -0.0398   19.8575 C   0  0  0  0  0  0  0  0  0  0  0  0
    5.4040    0.6415   20.0551 C   0  0  0  0  0  0  0  0  0  0  0  0
    4.8298    1.3160   18.9775 C   0  0  0  0  0  0  0  0  0  0  0  0
    5.4715    1.2843   17.7377 C   0  0  0  0  0  0  0  0  0  0  0  0
    6.6128    0.6132   17.5200 N   0  0  0  0  0  0  0  0  0  0  0  0
    7.1540   -0.0290   18.5627 C   0  0  0  0  0  0  0  0  0  0  0  0
    8.0801   -0.5672   18.3482 H   0  0  0  0  0  0  0  0  0  0  0  0
    5.0439    1.8024   16.8801 H   0  0  0  0  0  0  0  0  0  0  0  0
    3.9067    1.8719   19.0845 H   0  0  0  0  0  0  0  0  0  0  0  0
    4.9349    0.6522   21.0413 H   0  0  0  0  0  0  0  0  0  0  0  0
    8.1587   -1.3154   20.7123 H   0  0  0  0  0  0  0  0  0  0  0  0
    6.6111   -1.3238   21.5932 H   0  0  0  0  0  0  0  0  0  0  0  0
    8.8888    1.0845   21.9470 C   0  0  0  0  0  0  0  0  0  0  0  0
    9.9752    1.0122   20.9451 C   0  0  0  0  0  0  0  0  0  0  0  0
   10.9143   -0.0730   21.3416 C   0  0  0  0  0  0  0  0  0  0  0  0
   10.5227   -1.3163   21.2181 N   0  0  0  0  0  0  0  0  0  0  0  0
   11.5509   -2.0918   21.6901 O   0  0  0  0  0  0  0  0  0  0  0  0
   12.5368   -1.2944   22.1216 C   0  0  0  0  0  0  0  0  0  0  0  0
   12.1969    0.0026   21.9423 C   0  0  0  0  0  0  0  0  0  0  0  0
   12.7490    0.8987   22.1813 H   0  0  0  0  0  0  0  0  0  0  0  0
   13.4124   -1.8034   22.5009 H   0  0  0  0  0  0  0  0  0  0  0  0
    9.5559    0.8101   19.9583 H   0  0  0  0  0  0  0  0  0  0  0  0
   10.4798    1.9808   20.9344 H   0  0  0  0  0  0  0  0  0  0  0  0
    8.9206    1.8901   22.9723 N   0  0  0  0  0  0  0  0  0  0  0  0
    9.4583    2.9805   25.1313 H   0  0  0  0  0  0  0  0  0  0  0  0
    9.0073    4.3690   27.1361 H   0  0  0  0  0  0  0  0  0  0  0  0
    6.6864    4.5138   28.0502 H   0  0  0  0  0  0  0  0  0  0  0  0
    4.8345    3.3579   26.8764 H   0  0  0  0  0  0  0  0  0  0  0  0
    3.9357    2.3526   24.9909 H   0  0  0  0  0  0  0  0  0  0  0  0
    4.9016    0.9236   24.5050 H   0  0  0  0  0  0  0  0  0  0  0  0
    4.9190    2.3636   23.5119 H   0  0  0  0  0  0  0  0  0  0  0  0
  1  2  1  0
  2  3  2  0
  3  4  1  0
  4  5  2  0
  5  6  1  0
  6  7  2  0
  7  8  1  0
  8  9  2  0
  9 10  1  0
 10 11  1  0
 11 12  1  0
 12 13  2  0
 13 14  1  0
 14 15  2  0
 15 16  1  0
 16 17  2  0
 17 18  1  0
 15 19  1  0
 14 20  1  0
 13 21  1  0
 11 22  1  0
 11 23  1  0
 10 24  1  0
 24 25  1  0
 25 26  1  0
 26 27  2  0
 27 28  1  0
 28 29  1  0
 29 30  2  0
 30 31  1  0
 29 32  1  0
 25 33  1  0
 25 34  1  0
 24 35  2  0
  6 36  1  0
  5 37  1  0
  4 38  1  0
  3 39  1  0
  1 40  1  0
  1 41  1  0
  1 42  1  0
  7  2  1  0
 35  8  1  0
 17 12  1  0
 30 26  1  0
M  END
>  <cnnaffinity>  (1) 
-6.13963

>  <filename>  (1) 
Cc1ccccc1-c1nc(Cc2ccon2)n(Cc2cccnc2)n1

$$$$
