
     RDKit          3D

 44 47  0  0  0  0  0  0  0  0999 V2000
   11.5617    3.1214   24.2053 C   0  0  0  0  0  0  0  0  0  0  0  0
   10.1774    2.5586   24.2875 C   0  0  0  0  0  0  0  0  0  0  0  0
    9.2738    2.3341   23.3002 C   0  0  0  0  0  0  0  0  0  0  0  0
    8.0761    1.6868   23.7466 C   0  0  0  0  0  0  0  0  0  0  0  0
    7.0117    1.2051   22.7877 C   0  0  0  0  0  0  0  0  0  0  0  0
    7.3562   -0.1482   22.2297 C   0  0  0  0  0  0  0  0  0  0  0  0
    7.8638   -1.1109   22.9639 N   0  0  0  0  0  0  0  0  0  0  0  0
    8.1769   -2.0775   22.0727 C   0  0  0  0  0  0  0  0  0  0  0  0
    8.8257   -3.3109   22.5958 C   0  0  0  0  0  0  0  0  0  0  0  0
    8.0229   -4.0545   23.6853 C   0  0  0  0  0  0  0  0  0  0  0  0
    9.1111   -4.7644   24.4994 C   0  0  0  0  0  0  0  0  0  0  0  0
   10.3058   -4.0260   24.2994 O   0  0  0  0  0  0  0  0  0  0  0  0
   10.1340   -2.9953   23.3466 C   0  0  0  0  0  0  0  0  0  0  0  0
   11.0152   -2.9712   22.6908 H   0  0  0  0  0  0  0  0  0  0  0  0
   10.0645   -2.0261   23.8648 H   0  0  0  0  0  0  0  0  0  0  0  0
    8.8556   -4.7806   25.5667 H   0  0  0  0  0  0  0  0  0  0  0  0
    9.2991   -5.8085   24.2035 H   0  0  0  0  0  0  0  0  0  0  0  0
    7.2760   -4.7453   23.2833 H   0  0  0  0  0  0  0  0  0  0  0  0
    7.5066   -3.3148   24.3145 H   0  0  0  0  0  0  0  0  0  0  0  0
    8.9956   -3.9778   21.7572 H   0  0  0  0  0  0  0  0  0  0  0  0
    7.8744   -1.8023   20.8218 N   0  0  0  0  0  0  0  0  0  0  0  0
    7.2874   -0.5697   20.9294 N   0  0  0  0  0  0  0  0  0  0  0  0
    6.5989    0.0300   19.8459 C   0  0  0  0  0  0  0  0  0  0  0  0
    5.3774    0.6875   20.0569 C   0  0  0  0  0  0  0  0  0  0  0  0
    4.7918    1.3433   18.9733 C   0  0  0  0  0  0  0  0  0  0  0  0
    5.4315    1.3120   17.7317 C   0  0  0  0  0  0  0  0  0  0  0  0
    6.5717    0.6335   17.5118 N   0  0  0  0  0  0  0  0  0  0  0  0
    7.1290   -0.0068   18.5447 C   0  0  0  0  0  0  0  0  0  0  0  0
    8.0380   -0.5659   18.3406 H   0  0  0  0  0  0  0  0  0  0  0  0
    5.0084    1.8400   16.8798 H   0  0  0  0  0  0  0  0  0  0  0  0
    3.8605    1.8834   19.0926 H   0  0  0  0  0  0  0  0  0  0  0  0
    4.8959    0.6839   21.0357 H   0  0  0  0  0  0  0  0  0  0  0  0
    6.0368    1.1353   23.2901 H   0  0  0  0  0  0  0  0  0  0  0  0
    6.8861    1.9285   21.9796 H   0  0  0  0  0  0  0  0  0  0  0  0
    8.1152    1.3703   25.0720 C   0  0  0  0  0  0  0  0  0  0  0  0
    7.1614    0.4953   25.8313 C   0  0  0  0  0  0  0  0  0  0  0  0
    7.0382   -0.4609   25.3032 H   0  0  0  0  0  0  0  0  0  0  0  0
    6.1655    0.9500   25.8863 H   0  0  0  0  0  0  0  0  0  0  0  0
    7.5175    0.2970   26.8445 H   0  0  0  0  0  0  0  0  0  0  0  0
    9.5602    1.9868   25.8037 S   0  0  0  0  0  0  0  0  0  0  0  0
    9.4569    2.5824   22.2588 H   0  0  0  0  0  0  0  0  0  0  0  0
   11.5949    4.1620   24.5529 H   0  0  0  0  0  0  0  0  0  0  0  0
   12.2248    2.5161   24.8281 H   0  0  0  0  0  0  0  0  0  0  0  0
   11.9394    3.1069   23.1785 H   0  0  0  0  0  0  0  0  0  0  0  0
  1  2  1  0
  2  3  2  0
  3  4  1  0
  4  5  1  0
  5  6  1  0
  6  7  2  0
  7  8  1  0
  8  9  1  0
  9 10  1  0
 10 11  1  0
 11 12  1  0
 12 13  1  0
 13 14  1  0
 13 15  1  0
 11 16  1  0
 11 17  1  0
 10 18  1  0
 10 19  1  0
  9 20  1  0
  8 21  2  0
 21 22  1  0
 22 23  1  0
 23 24  2  0
 24 25  1  0
 25 26  2  0
 26 27  1  0
 27 28  2  0
 28 29  1  0
 26 30  1  0
 25 31  1  0
 24 32  1  0
  5 33  1  0
  5 34  1  0
  4 35  2  0
 35 36  1  0
 36 37  1  0
 36 38  1  0
 36 39  1  0
 35 40  1  0
  3 41  1  0
  1 42  1  0
  1 43  1  0
  1 44  1  0
 40  2  1  0
 22  6  1  0
 28 23  1  0
 13  9  1  0
M  END
>  <cnnaffinity>  (1) 
-6.6037

>  <filename>  (1) 
Cc1cc(Cc2nc(C3CCOC3)nn2-c2cccnc2)c(C)s1

$$$$
