
     RDKit          3D

 44 47  0  0  0  0  0  0  0  0999 V2000
    8.9371    2.5575   25.7846 C   0  0  0  0  0  0  0  0  0  0  0  0
    7.4475    2.3950   25.9444 C   0  0  0  0  0  0  0  0  0  0  0  0
    6.8538    2.9667   27.0782 C   0  0  0  0  0  0  0  0  0  0  0  0
    5.4859    2.8752   27.3174 C   0  0  0  0  0  0  0  0  0  0  0  0
    4.6769    2.1952   26.4065 C   0  0  0  0  0  0  0  0  0  0  0  0
    5.2378    1.6215   25.2667 C   0  0  0  0  0  0  0  0  0  0  0  0
    6.6222    1.7235   25.0059 C   0  0  0  0  0  0  0  0  0  0  0  0
    7.2000    1.1970   23.7375 C   0  0  0  0  0  0  0  0  0  0  0  0
    6.6286    0.2507   23.0087 N   0  0  0  0  0  0  0  0  0  0  0  0
    7.4966    0.0736   21.9829 N   0  0  0  0  0  0  0  0  0  0  0  0
    7.2245   -0.8235   20.8659 C   0  0  0  0  0  0  0  0  0  0  0  0
    6.5989   -0.1212   19.6725 C   0  0  0  0  0  0  0  0  0  0  0  0
    5.4040    0.5922   19.8381 C   0  0  0  0  0  0  0  0  0  0  0  0
    4.8914    1.3029   18.7513 C   0  0  0  0  0  0  0  0  0  0  0  0
    5.5833    1.2649   17.5362 C   0  0  0  0  0  0  0  0  0  0  0  0
    6.7091    0.5596   17.3484 N   0  0  0  0  0  0  0  0  0  0  0  0
    7.1927   -0.1130   18.4016 C   0  0  0  0  0  0  0  0  0  0  0  0
    8.1139   -0.6730   18.2229 H   0  0  0  0  0  0  0  0  0  0  0  0
    5.2116    1.8085   16.6694 H   0  0  0  0  0  0  0  0  0  0  0  0
    3.9859    1.8968   18.8375 H   0  0  0  0  0  0  0  0  0  0  0  0
    4.9152    0.6046   20.8156 H   0  0  0  0  0  0  0  0  0  0  0  0
    8.1713   -1.2942   20.5765 H   0  0  0  0  0  0  0  0  0  0  0  0
    6.5656   -1.6097   21.2457 H   0  0  0  0  0  0  0  0  0  0  0  0
    8.5035    0.9617   22.0891 C   0  0  0  0  0  0  0  0  0  0  0  0
    9.6279    1.1249   21.1062 C   0  0  0  0  0  0  0  0  0  0  0  0
   10.9155    0.4454   21.5042 C   0  0  0  0  0  0  0  0  0  0  0  0
   11.8694    0.8443   22.4093 C   0  0  0  0  0  0  0  0  0  0  0  0
   12.8456   -0.1909   22.5031 C   0  0  0  0  0  0  0  0  0  0  0  0
   12.4575   -1.1889   21.6500 C   0  0  0  0  0  0  0  0  0  0  0  0
   11.2866   -0.7918   21.0463 N   0  0  0  0  0  0  0  0  0  0  0  0
   10.8444   -1.2988   20.2930 H   0  0  0  0  0  0  0  0  0  0  0  0
   12.9098   -2.1468   21.4187 H   0  0  0  0  0  0  0  0  0  0  0  0
   13.7276   -0.1920   23.1338 H   0  0  0  0  0  0  0  0  0  0  0  0
   11.8609    1.7770   22.9583 H   0  0  0  0  0  0  0  0  0  0  0  0
    9.3109    0.7944   20.1115 H   0  0  0  0  0  0  0  0  0  0  0  0
    9.8023    2.2025   21.0505 H   0  0  0  0  0  0  0  0  0  0  0  0
    8.3631    1.6669   23.1900 N   0  0  0  0  0  0  0  0  0  0  0  0
    4.6053    1.0947   24.5593 H   0  0  0  0  0  0  0  0  0  0  0  0
    3.6089    2.1335   26.5852 H   0  0  0  0  0  0  0  0  0  0  0  0
    5.0667    3.3254   28.2117 H   0  0  0  0  0  0  0  0  0  0  0  0
    7.4864    3.5141   27.7728 H   0  0  0  0  0  0  0  0  0  0  0  0
    9.1657    3.3535   25.0733 H   0  0  0  0  0  0  0  0  0  0  0  0
    9.4359    1.6488   25.4426 H   0  0  0  0  0  0  0  0  0  0  0  0
    9.3810    2.8466   26.7279 H   0  0  0  0  0  0  0  0  0  0  0  0
  1  2  1  0
  2  3  2  0
  3  4  1  0
  4  5  2  0
  5  6  1  0
  6  7  2  0
  7  8  1  0
  8  9  2  0
  9 10  1  0
 10 11  1  0
 11 12  1  0
 12 13  2  0
 13 14  1  0
 14 15  2  0
 15 16  1  0
 16 17  2  0
 17 18  1  0
 15 19  1  0
 14 20  1  0
 13 21  1  0
 11 22  1  0
 11 23  1  0
 10 24  1  0
 24 25  1  0
 25 26  1  0
 26 27  2  0
 27 28  1  0
 28 29  2  0
 29 30  1  0
 30 31  1  0
 29 32  1  0
 28 33  1  0
 27 34  1  0
 25 35  1  0
 25 36  1  0
 24 37  2  0
  6 38  1  0
  5 39  1  0
  4 40  1  0
  3 41  1  0
  1 42  1  0
  1 43  1  0
  1 44  1  0
  7  2  1  0
 37  8  1  0
 17 12  1  0
 30 26  1  0
M  END
>  <cnnaffinity>  (1) 
-6.48198

>  <filename>  (1) 
Cc1ccccc1-c1nc(Cc2ccc[nH]2)n(Cc2cccnc2)n1

$$$$
