
     RDKit          3D

 41 45  0  0  0  0  0  0  0  0999 V2000
    4.9032    3.7078   22.4968 C   0  0  0  0  0  0  0  0  0  0  0  0
    4.9669    2.5357   23.4289 C   0  0  0  0  0  0  0  0  0  0  0  0
    5.9743    1.6255   23.5441 C   0  0  0  0  0  0  0  0  0  0  0  0
    7.2769    1.4252   22.8332 C   0  0  0  0  0  0  0  0  0  0  0  0
    7.4539    0.0131   22.3859 C   0  0  0  0  0  0  0  0  0  0  0  0
    8.1888   -0.8572   23.0359 N   0  0  0  0  0  0  0  0  0  0  0  0
    8.0036   -2.0059   22.3322 C   0  0  0  0  0  0  0  0  0  0  0  0
    8.7508   -3.2488   22.6143 C   0  0  0  0  0  0  0  0  0  0  0  0
    8.0748   -4.6124   22.4179 C   0  0  0  0  0  0  0  0  0  0  0  0
    8.5068   -4.1590   23.7720 C   0  0  0  0  0  0  0  0  0  0  0  0
    7.9568   -4.1998   25.1499 C   0  0  0  0  0  0  0  0  0  0  0  0
    9.3958   -4.6481   24.8539 C   0  0  0  0  0  0  0  0  0  0  0  0
   10.1937   -3.9721   25.1671 H   0  0  0  0  0  0  0  0  0  0  0  0
    9.6334   -5.7104   24.8862 H   0  0  0  0  0  0  0  0  0  0  0  0
    7.7949   -3.2576   25.6770 H   0  0  0  0  0  0  0  0  0  0  0  0
    7.2232   -4.9937   25.3273 H   0  0  0  0  0  0  0  0  0  0  0  0
    7.0015   -4.5813   22.2184 H   0  0  0  0  0  0  0  0  0  0  0  0
    8.6162   -5.4364   21.9551 H   0  0  0  0  0  0  0  0  0  0  0  0
    9.8074   -3.1058   22.3740 H   0  0  0  0  0  0  0  0  0  0  0  0
    7.2439   -1.8841   21.2592 N   0  0  0  0  0  0  0  0  0  0  0  0
    6.8728   -0.5742   21.2922 N   0  0  0  0  0  0  0  0  0  0  0  0
    6.2674    0.0009   20.1417 C   0  0  0  0  0  0  0  0  0  0  0  0
    5.3927    1.0876   20.2335 C   0  0  0  0  0  0  0  0  0  0  0  0
    5.0512    1.7571   19.0497 C   0  0  0  0  0  0  0  0  0  0  0  0
    5.5242    1.2614   17.8338 C   0  0  0  0  0  0  0  0  0  0  0  0
    6.2567    0.1359   17.7357 N   0  0  0  0  0  0  0  0  0  0  0  0
    6.5953   -0.4927   18.8646 C   0  0  0  0  0  0  0  0  0  0  0  0
    7.1704   -1.4149   18.7742 H   0  0  0  0  0  0  0  0  0  0  0  0
    5.3017    1.7749   16.8984 H   0  0  0  0  0  0  0  0  0  0  0  0
    4.4464    2.6599   19.0586 H   0  0  0  0  0  0  0  0  0  0  0  0
    4.9806    1.3728   21.1965 H   0  0  0  0  0  0  0  0  0  0  0  0
    7.3425    2.1124   21.9901 H   0  0  0  0  0  0  0  0  0  0  0  0
    8.0960    1.6536   23.5217 H   0  0  0  0  0  0  0  0  0  0  0  0
    5.6981    0.7403   24.5316 O   0  0  0  0  0  0  0  0  0  0  0  0
    4.4975    1.0810   25.0608 C   0  0  0  0  0  0  0  0  0  0  0  0
    3.9977    2.1675   24.4249 C   0  0  0  0  0  0  0  0  0  0  0  0
    3.0681    2.6804   24.6401 H   0  0  0  0  0  0  0  0  0  0  0  0
    4.1271    0.4470   25.8545 H   0  0  0  0  0  0  0  0  0  0  0  0
    4.8303    3.4066   21.4439 H   0  0  0  0  0  0  0  0  0  0  0  0
    5.7942    4.3412   22.5879 H   0  0  0  0  0  0  0  0  0  0  0  0
    4.0256    4.3171   22.7207 H   0  0  0  0  0  0  0  0  0  0  0  0
  1  2  1  0
  2  3  2  0
  3  4  1  0
  4  5  1  0
  5  6  2  0
  6  7  1  0
  7  8  1  0
  8  9  1  0
  9 10  1  0
 10 11  1  0
 11 12  1  0
 12 13  1  0
 12 14  1  0
 11 15  1  0
 11 16  1  0
  9 17  1  0
  9 18  1  0
  8 19  1  0
  7 20  2  0
 20 21  1  0
 21 22  1  0
 22 23  2  0
 23 24  1  0
 24 25  2  0
 25 26  1  0
 26 27  2  0
 27 28  1  0
 25 29  1  0
 24 30  1  0
 23 31  1  0
  4 32  1  0
  4 33  1  0
  3 34  1  0
 34 35  1  0
 35 36  2  0
 36 37  1  0
 35 38  1  0
  1 39  1  0
  1 40  1  0
  1 41  1  0
 36  2  1  0
 21  5  1  0
 27 22  1  0
 10  8  1  0
 12 10  1  0
M  END
>  <cnnaffinity>  (1) 
-5.7344

>  <filename>  (1) 
Cc1ccoc1Cc1nc(C2CC23CC3)nn1-c1cccnc1

$$$$
