
     RDKit          3D

 46 49  0  0  0  0  0  0  0  0999 V2000
   11.1761   -1.3746   21.5837 C   0  0  0  0  0  0  0  0  0  0  0  0
   11.7338    0.0114   21.6792 C   0  0  0  0  0  0  0  0  0  0  0  0
   11.1503    1.2480   21.4722 C   0  0  0  0  0  0  0  0  0  0  0  0
    9.7215    1.4923   21.0291 C   0  0  0  0  0  0  0  0  0  0  0  0
    8.7139    1.1902   22.0953 C   0  0  0  0  0  0  0  0  0  0  0  0
    8.6381    1.8861   23.2080 N   0  0  0  0  0  0  0  0  0  0  0  0
    7.6187    1.3004   23.8863 C   0  0  0  0  0  0  0  0  0  0  0  0
    7.1927    1.8006   25.2032 C   0  0  0  0  0  0  0  0  0  0  0  0
    6.0643    1.2654   25.8552 C   0  0  0  0  0  0  0  0  0  0  0  0
    5.6801    1.7536   27.1029 C   0  0  0  0  0  0  0  0  0  0  0  0
    6.4258    2.7770   27.6860 C   0  0  0  0  0  0  0  0  0  0  0  0
    6.0620    3.2401   28.8910 F   0  0  0  0  0  0  0  0  0  0  0  0
    7.5400    3.3350   27.0608 C   0  0  0  0  0  0  0  0  0  0  0  0
    7.9218    2.8419   25.8158 C   0  0  0  0  0  0  0  0  0  0  0  0
    8.7884    3.2563   25.3002 H   0  0  0  0  0  0  0  0  0  0  0  0
    8.0876    4.1323   27.5502 H   0  0  0  0  0  0  0  0  0  0  0  0
    4.8240    1.3490   27.6307 H   0  0  0  0  0  0  0  0  0  0  0  0
    5.4988    0.4659   25.3769 H   0  0  0  0  0  0  0  0  0  0  0  0
    7.0597    0.2884   23.2412 N   0  0  0  0  0  0  0  0  0  0  0  0
    7.7654    0.2249   22.0885 N   0  0  0  0  0  0  0  0  0  0  0  0
    7.3616   -0.6939   21.0282 C   0  0  0  0  0  0  0  0  0  0  0  0
    6.6479   -0.0072   19.8799 C   0  0  0  0  0  0  0  0  0  0  0  0
    5.4392    0.6557   20.1246 C   0  0  0  0  0  0  0  0  0  0  0  0
    4.8128    1.3123   19.0650 C   0  0  0  0  0  0  0  0  0  0  0  0
    5.4153    1.2957   17.8036 C   0  0  0  0  0  0  0  0  0  0  0  0
    6.5632    0.6520   17.5466 N   0  0  0  0  0  0  0  0  0  0  0  0
    7.1522    0.0205   18.5709 C   0  0  0  0  0  0  0  0  0  0  0  0
    8.0823   -0.4976   18.3273 H   0  0  0  0  0  0  0  0  0  0  0  0
    4.9556    1.8183   16.9649 H   0  0  0  0  0  0  0  0  0  0  0  0
    3.8813    1.8461   19.2072 H   0  0  0  0  0  0  0  0  0  0  0  0
    5.0116    0.6648   21.1300 H   0  0  0  0  0  0  0  0  0  0  0  0
    6.6946   -1.4147   21.5103 H   0  0  0  0  0  0  0  0  0  0  0  0
    8.2389   -1.2503   20.6768 H   0  0  0  0  0  0  0  0  0  0  0  0
    9.5710    2.5515   20.7897 H   0  0  0  0  0  0  0  0  0  0  0  0
    9.4752    0.9152   20.1284 H   0  0  0  0  0  0  0  0  0  0  0  0
   12.1204    2.1704   21.9333 C   0  0  0  0  0  0  0  0  0  0  0  0
   13.2174    1.5631   22.3573 N   0  0  0  0  0  0  0  0  0  0  0  0
   12.9765    0.2566   22.1832 N   0  0  0  0  0  0  0  0  0  0  0  0
   14.0626   -0.6833   22.3682 C   0  0  0  0  0  0  0  0  0  0  0  0
   13.6649   -1.6567   22.6423 H   0  0  0  0  0  0  0  0  0  0  0  0
   14.6402   -0.8037   21.4496 H   0  0  0  0  0  0  0  0  0  0  0  0
   14.6947   -0.3011   23.1646 H   0  0  0  0  0  0  0  0  0  0  0  0
   12.0435    3.2552   21.9678 H   0  0  0  0  0  0  0  0  0  0  0  0
   11.9639   -2.1058   21.3730 H   0  0  0  0  0  0  0  0  0  0  0  0
   10.4271   -1.4394   20.7933 H   0  0  0  0  0  0  0  0  0  0  0  0
   10.6599   -1.6609   22.5091 H   0  0  0  0  0  0  0  0  0  0  0  0
  1  2  1  0
  2  3  2  0
  3  4  1  0
  4  5  1  0
  5  6  2  0
  6  7  1  0
  7  8  1  0
  8  9  2  0
  9 10  1  0
 10 11  2  0
 11 12  1  0
 11 13  1  0
 13 14  2  0
 14 15  1  0
 13 16  1  0
 10 17  1  0
  9 18  1  0
  7 19  2  0
 19 20  1  0
 20 21  1  0
 21 22  1  0
 22 23  2  0
 23 24  1  0
 24 25  2  0
 25 26  1  0
 26 27  2  0
 27 28  1  0
 25 29  1  0
 24 30  1  0
 23 31  1  0
 21 32  1  0
 21 33  1  0
  4 34  1  0
  4 35  1  0
  3 36  1  0
 36 37  2  0
 37 38  1  0
 38 39  1  0
 39 40  1  0
 39 41  1  0
 39 42  1  0
 36 43  1  0
  1 44  1  0
  1 45  1  0
  1 46  1  0
 38  2  1  0
 20  5  1  0
 27 22  1  0
 14  8  1  0
M  END
>  <cnnaffinity>  (1) 
-6.32833

>  <filename>  (1) 
Cc1c(Cc2nc(-c3ccc(F)cc3)nn2Cc2cccnc2)cnn1C

$$$$
