
     RDKit          3D

 44 47  0  0  0  0  0  0  0  0999 V2000
   11.0462    3.6539   23.9780 C   0  0  0  0  0  0  0  0  0  0  0  0
   11.3302    2.3510   23.2670 C   0  0  0  0  0  0  0  0  0  0  0  0
   12.5062    1.6273   23.5143 C   0  0  0  0  0  0  0  0  0  0  0  0
   12.7688    0.4754   22.7781 C   0  0  0  0  0  0  0  0  0  0  0  0
   13.9156   -0.1889   22.9968 F   0  0  0  0  0  0  0  0  0  0  0  0
   11.8823   -0.0139   21.8235 C   0  0  0  0  0  0  0  0  0  0  0  0
   10.6910    0.6816   21.5946 C   0  0  0  0  0  0  0  0  0  0  0  0
    9.6499    0.1338   20.6435 C   0  0  0  0  0  0  0  0  0  0  0  0
    8.5786   -0.6465   21.3336 C   0  0  0  0  0  0  0  0  0  0  0  0
    8.7622   -1.4328   22.3721 N   0  0  0  0  0  0  0  0  0  0  0  0
    7.5342   -1.9803   22.5784 C   0  0  0  0  0  0  0  0  0  0  0  0
    7.3760   -3.0772   23.6114 C   0  0  0  0  0  0  0  0  0  0  0  0
    7.4083   -4.5084   22.9945 C   0  0  0  0  0  0  0  0  0  0  0  0
    6.4730   -5.2994   23.9116 C   0  0  0  0  0  0  0  0  0  0  0  0
    5.4746   -4.2323   24.3546 C   0  0  0  0  0  0  0  0  0  0  0  0
    6.1890   -3.0023   24.3922 O   0  0  0  0  0  0  0  0  0  0  0  0
    5.0594   -4.4236   25.3497 H   0  0  0  0  0  0  0  0  0  0  0  0
    4.6424   -4.1436   23.6422 H   0  0  0  0  0  0  0  0  0  0  0  0
    7.0182   -5.7073   24.7725 H   0  0  0  0  0  0  0  0  0  0  0  0
    5.9792   -6.1314   23.3981 H   0  0  0  0  0  0  0  0  0  0  0  0
    7.0228   -4.4915   21.9658 H   0  0  0  0  0  0  0  0  0  0  0  0
    8.4268   -4.9115   22.9657 H   0  0  0  0  0  0  0  0  0  0  0  0
    8.2321   -2.9348   24.2832 H   0  0  0  0  0  0  0  0  0  0  0  0
    6.6062   -1.5944   21.7194 N   0  0  0  0  0  0  0  0  0  0  0  0
    7.2822   -0.7481   20.9015 N   0  0  0  0  0  0  0  0  0  0  0  0
    6.6049   -0.0536   19.8578 C   0  0  0  0  0  0  0  0  0  0  0  0
    5.4049    0.6149   20.1212 C   0  0  0  0  0  0  0  0  0  0  0  0
    4.8007    1.3179   19.0744 C   0  0  0  0  0  0  0  0  0  0  0  0
    5.3977    1.3168   17.8068 C   0  0  0  0  0  0  0  0  0  0  0  0
    6.5372    0.6612   17.5423 N   0  0  0  0  0  0  0  0  0  0  0  0
    7.1180   -0.0009   18.5494 C   0  0  0  0  0  0  0  0  0  0  0  0
    8.0481   -0.5101   18.3120 H   0  0  0  0  0  0  0  0  0  0  0  0
    4.9440    1.8482   16.9705 H   0  0  0  0  0  0  0  0  0  0  0  0
    3.8781    1.8672   19.2266 H   0  0  0  0  0  0  0  0  0  0  0  0
    4.9728    0.5803   21.1230 H   0  0  0  0  0  0  0  0  0  0  0  0
    9.2020    0.9497   20.0702 H   0  0  0  0  0  0  0  0  0  0  0  0
   10.0961   -0.5684   19.9317 H   0  0  0  0  0  0  0  0  0  0  0  0
   10.4219    1.8482   22.3175 C   0  0  0  0  0  0  0  0  0  0  0  0
    9.4826    2.3691   22.1416 H   0  0  0  0  0  0  0  0  0  0  0  0
   12.1417   -0.9119   21.2696 H   0  0  0  0  0  0  0  0  0  0  0  0
   13.2285    1.9459   24.2580 H   0  0  0  0  0  0  0  0  0  0  0  0
   10.9288    4.4770   23.2659 H   0  0  0  0  0  0  0  0  0  0  0  0
   11.8494    3.9170   24.6732 H   0  0  0  0  0  0  0  0  0  0  0  0
   10.1155    3.6033   24.5504 H   0  0  0  0  0  0  0  0  0  0  0  0
  1  2  1  0
  2  3  2  0
  3  4  1  0
  4  5  1  0
  4  6  2  0
  6  7  1  0
  7  8  1  0
  8  9  1  0
  9 10  2  0
 10 11  1  0
 11 12  1  0
 12 13  1  0
 13 14  1  0
 14 15  1  0
 15 16  1  0
 15 17  1  0
 15 18  1  0
 14 19  1  0
 14 20  1  0
 13 21  1  0
 13 22  1  0
 12 23  1  0
 11 24  2  0
 24 25  1  0
 25 26  1  0
 26 27  2  0
 27 28  1  0
 28 29  2  0
 29 30  1  0
 30 31  2  0
 31 32  1  0
 29 33  1  0
 28 34  1  0
 27 35  1  0
  8 36  1  0
  8 37  1  0
  7 38  2  0
 38 39  1  0
  6 40  1  0
  3 41  1  0
  1 42  1  0
  1 43  1  0
  1 44  1  0
 38  2  1  0
 25  9  1  0
 31 26  1  0
 16 12  1  0
M  END
>  <cnnaffinity>  (1) 
-6.48161

>  <filename>  (1) 
Cc1cc(F)cc(Cc2nc(C3CCCO3)nn2-c2cccnc2)c1

$$$$
