
     RDKit          3D

 45 48  0  0  0  0  0  0  0  0999 V2000
    3.0177    2.4672   26.3340 C   0  0  0  0  0  0  0  0  0  0  0  0
    4.4830    2.5057   26.0646 C   0  0  0  0  0  0  0  0  0  0  0  0
    5.4565    3.3144   26.5772 C   0  0  0  0  0  0  0  0  0  0  0  0
    6.6259    2.9137   25.9620 N   0  0  0  0  0  0  0  0  0  0  0  0
    6.3081    1.9007   25.1151 C   0  0  0  0  0  0  0  0  0  0  0  0
    7.2962    1.2087   24.2570 C   0  0  0  0  0  0  0  0  0  0  0  0
    7.3396    1.6653   22.7733 C   0  0  0  0  0  0  0  0  0  0  0  0
    8.3753    0.8628   22.0669 C   0  0  0  0  0  0  0  0  0  0  0  0
    9.6512    1.0824   22.2880 N   0  0  0  0  0  0  0  0  0  0  0  0
   10.2452   -0.0643   21.8732 C   0  0  0  0  0  0  0  0  0  0  0  0
   11.6893   -0.1738   22.0694 C   0  0  0  0  0  0  0  0  0  0  0  0
   12.5195   -1.1185   21.4470 C   0  0  0  0  0  0  0  0  0  0  0  0
   13.8848   -0.9417   21.6146 C   0  0  0  0  0  0  0  0  0  0  0  0
   14.7176   -1.7714   20.9817 F   0  0  0  0  0  0  0  0  0  0  0  0
   14.3718    0.1169   22.3939 C   0  0  0  0  0  0  0  0  0  0  0  0
   13.5746    0.9501   23.0681 N   0  0  0  0  0  0  0  0  0  0  0  0
   12.2605    0.7960   22.9174 C   0  0  0  0  0  0  0  0  0  0  0  0
   11.6147    1.4544   23.4904 H   0  0  0  0  0  0  0  0  0  0  0  0
   15.4260    0.3376   22.4368 H   0  0  0  0  0  0  0  0  0  0  0  0
   12.1481   -1.9008   20.7853 H   0  0  0  0  0  0  0  0  0  0  0  0
    9.4208   -0.9469   21.3407 N   0  0  0  0  0  0  0  0  0  0  0  0
    8.2065   -0.3401   21.4791 N   0  0  0  0  0  0  0  0  0  0  0  0
    6.9655   -0.8962   20.9374 C   0  0  0  0  0  0  0  0  0  0  0  0
    6.3635   -0.0533   19.8221 C   0  0  0  0  0  0  0  0  0  0  0  0
    5.1543    0.6450   19.9413 C   0  0  0  0  0  0  0  0  0  0  0  0
    4.6841    1.3882   18.8527 C   0  0  0  0  0  0  0  0  0  0  0  0
    5.4405    1.4107   17.6790 C   0  0  0  0  0  0  0  0  0  0  0  0
    6.6014    0.7524   17.5448 N   0  0  0  0  0  0  0  0  0  0  0  0
    7.0443    0.0577   18.5995 C   0  0  0  0  0  0  0  0  0  0  0  0
    7.9955   -0.4525   18.4595 H   0  0  0  0  0  0  0  0  0  0  0  0
    5.1095    1.9852   16.8130 H   0  0  0  0  0  0  0  0  0  0  0  0
    3.7684    1.9666   18.9077 H   0  0  0  0  0  0  0  0  0  0  0  0
    4.5828    0.6206   20.8711 H   0  0  0  0  0  0  0  0  0  0  0  0
    6.2326   -0.9964   21.7503 H   0  0  0  0  0  0  0  0  0  0  0  0
    7.2058   -1.9055   20.5889 H   0  0  0  0  0  0  0  0  0  0  0  0
    7.6621    2.7070   22.7177 H   0  0  0  0  0  0  0  0  0  0  0  0
    6.3636    1.5959   22.2824 H   0  0  0  0  0  0  0  0  0  0  0  0
    8.3014    1.3133   24.6872 H   0  0  0  0  0  0  0  0  0  0  0  0
    7.0517    0.1432   24.2900 H   0  0  0  0  0  0  0  0  0  0  0  0
    5.0280    1.6341   25.1512 N   0  0  0  0  0  0  0  0  0  0  0  0
    7.5571    3.2782   26.0859 H   0  0  0  0  0  0  0  0  0  0  0  0
    5.4144    4.1046   27.3134 H   0  0  0  0  0  0  0  0  0  0  0  0
    2.7720    2.8952   27.3085 H   0  0  0  0  0  0  0  0  0  0  0  0
    2.6715    1.4316   26.3014 H   0  0  0  0  0  0  0  0  0  0  0  0
    2.4750    3.0176   25.5586 H   0  0  0  0  0  0  0  0  0  0  0  0
  1  2  1  0
  2  3  2  0
  3  4  1  0
  4  5  1  0
  5  6  1  0
  6  7  1  0
  7  8  1  0
  8  9  2  0
  9 10  1  0
 10 11  1  0
 11 12  2  0
 12 13  1  0
 13 14  1  0
 13 15  2  0
 15 16  1  0
 16 17  2  0
 17 18  1  0
 15 19  1  0
 12 20  1  0
 10 21  2  0
 21 22  1  0
 22 23  1  0
 23 24  1  0
 24 25  2  0
 25 26  1  0
 26 27  2  0
 27 28  1  0
 28 29  2  0
 29 30  1  0
 27 31  1  0
 26 32  1  0
 25 33  1  0
 23 34  1  0
 23 35  1  0
  7 36  1  0
  7 37  1  0
  6 38  1  0
  6 39  1  0
  5 40  2  0
  4 41  1  0
  3 42  1  0
  1 43  1  0
  1 44  1  0
  1 45  1  0
 40  2  1  0
 22  8  1  0
 29 24  1  0
 17 11  1  0
M  END
>  <cnnaffinity>  (1) 
-6.59675

>  <filename>  (1) 
Cc1c[nH]c(CCc2nc(-c3cncc(F)c3)nn2Cc2cccnc2)n1

$$$$
