
     RDKit          3D

 45 48  0  0  0  0  0  0  0  0999 V2000
    5.6070   -5.6267   21.2906 C   0  0  0  0  0  0  0  0  0  0  0  0
    6.7163   -4.9828   22.0921 C   0  0  0  0  0  0  0  0  0  0  0  0
    7.9002   -5.6841   22.3962 C   0  0  0  0  0  0  0  0  0  0  0  0
    8.8891   -5.1860   23.1435 N   0  0  0  0  0  0  0  0  0  0  0  0
    8.7539   -3.9491   23.6364 C   0  0  0  0  0  0  0  0  0  0  0  0
    7.6124   -3.1639   23.4219 C   0  0  0  0  0  0  0  0  0  0  0  0
    7.4700   -1.9075   24.1018 N   0  0  0  0  0  0  0  0  0  0  0  0
    6.6329   -1.8565   25.1672 N   0  0  0  0  0  0  0  0  0  0  0  0
    6.8497   -0.6538   25.6705 C   0  0  0  0  0  0  0  0  0  0  0  0
    6.0878   -0.1348   26.8413 C   0  0  0  0  0  0  0  0  0  0  0  0
    5.0958    0.9997   26.6866 C   0  0  0  0  0  0  0  0  0  0  0  0
    4.6000   -0.3986   26.8856 C   0  0  0  0  0  0  0  0  0  0  0  0
    4.1984   -0.9278   26.0203 H   0  0  0  0  0  0  0  0  0  0  0  0
    4.1458   -0.6766   27.8331 H   0  0  0  0  0  0  0  0  0  0  0  0
    5.0157    1.4716   25.7093 H   0  0  0  0  0  0  0  0  0  0  0  0
    4.9958    1.6836   27.5259 H   0  0  0  0  0  0  0  0  0  0  0  0
    6.6724   -0.1478   27.7630 H   0  0  0  0  0  0  0  0  0  0  0  0
    7.7911    0.0705   25.0124 N   0  0  0  0  0  0  0  0  0  0  0  0
    8.1463   -0.7194   24.0163 C   0  0  0  0  0  0  0  0  0  0  0  0
    9.0709   -0.3109   22.9104 C   0  0  0  0  0  0  0  0  0  0  0  0
    8.3785    0.3119   21.6719 C   0  0  0  0  0  0  0  0  0  0  0  0
    7.3952   -0.6434   20.9732 C   0  0  0  0  0  0  0  0  0  0  0  0
    6.6455   -0.0007   19.8259 C   0  0  0  0  0  0  0  0  0  0  0  0
    5.4236    0.6561   20.0397 C   0  0  0  0  0  0  0  0  0  0  0  0
    4.8111    1.3282   18.9798 C   0  0  0  0  0  0  0  0  0  0  0  0
    5.4339    1.3180   17.7289 C   0  0  0  0  0  0  0  0  0  0  0  0
    6.5852    0.6738   17.4869 N   0  0  0  0  0  0  0  0  0  0  0  0
    7.1593    0.0337   18.5167 C   0  0  0  0  0  0  0  0  0  0  0  0
    8.0822   -0.4951   18.2732 H   0  0  0  0  0  0  0  0  0  0  0  0
    4.9888    1.8424   16.8840 H   0  0  0  0  0  0  0  0  0  0  0  0
    3.8774    1.8640   19.1132 H   0  0  0  0  0  0  0  0  0  0  0  0
    4.9562    0.6386   21.0268 H   0  0  0  0  0  0  0  0  0  0  0  0
    6.6655   -1.0055   21.7083 H   0  0  0  0  0  0  0  0  0  0  0  0
    7.9396   -1.5284   20.6165 H   0  0  0  0  0  0  0  0  0  0  0  0
    9.1534    0.6238   20.9579 H   0  0  0  0  0  0  0  0  0  0  0  0
    7.8467    1.2286   21.9670 H   0  0  0  0  0  0  0  0  0  0  0  0
    9.6652   -1.1840   22.6180 H   0  0  0  0  0  0  0  0  0  0  0  0
    9.7570    0.4241   23.3432 H   0  0  0  0  0  0  0  0  0  0  0  0
    6.5677   -3.7060   22.6632 C   0  0  0  0  0  0  0  0  0  0  0  0
    5.6377   -3.1496   22.5190 H   0  0  0  0  0  0  0  0  0  0  0  0
    9.5739   -3.5695   24.2425 H   0  0  0  0  0  0  0  0  0  0  0  0
    8.0409   -6.7033   22.0379 H   0  0  0  0  0  0  0  0  0  0  0  0
    4.7775   -4.9327   21.1479 H   0  0  0  0  0  0  0  0  0  0  0  0
    5.2110   -6.5044   21.8178 H   0  0  0  0  0  0  0  0  0  0  0  0
    5.9327   -5.9591   20.2980 H   0  0  0  0  0  0  0  0  0  0  0  0
  1  2  1  0
  2  3  2  0
  3  4  1  0
  4  5  2  0
  5  6  1  0
  6  7  1  0
  7  8  1  0
  8  9  2  0
  9 10  1  0
 10 11  1  0
 11 12  1  0
 12 13  1  0
 12 14  1  0
 11 15  1  0
 11 16  1  0
 10 17  1  0
  9 18  1  0
 18 19  2  0
 19 20  1  0
 20 21  1  0
 21 22  1  0
 22 23  1  0
 23 24  2  0
 24 25  1  0
 25 26  2  0
 26 27  1  0
 27 28  2  0
 28 29  1  0
 26 30  1  0
 25 31  1  0
 24 32  1  0
 22 33  1  0
 22 34  1  0
 21 35  1  0
 21 36  1  0
 20 37  1  0
 20 38  1  0
  6 39  2  0
 39 40  1  0
  5 41  1  0
  3 42  1  0
  1 43  1  0
  1 44  1  0
  1 45  1  0
 39  2  1  0
 19  7  1  0
 28 23  1  0
 12 10  1  0
M  END
>  <cnnaffinity>  (1) 
-6.16188

>  <filename>  (1) 
Cc1cncc(-n2nc(C3CC3)nc2CCCc2cccnc2)c1

$$$$
