
     RDKit          3D

 51 54  0  0  0  0  0  0  0  0999 V2000
    7.5194   -5.5359   27.2018 C   0  0  0  0  0  0  0  0  0  0  0  0
    7.3131   -4.6398   25.9802 C   0  0  0  0  0  0  0  0  0  0  0  0
    7.7520   -3.1913   26.2420 C   0  0  0  0  0  0  0  0  0  0  0  0
    7.4288   -2.2485   25.0616 C   0  0  0  0  0  0  0  0  0  0  0  0
    7.3478   -2.9786   23.6860 C   0  0  0  0  0  0  0  0  0  0  0  0
    7.5661   -2.0034   22.5700 C   0  0  0  0  0  0  0  0  0  0  0  0
    6.6382   -1.6091   21.7249 N   0  0  0  0  0  0  0  0  0  0  0  0
    7.2972   -0.7123   20.9414 N   0  0  0  0  0  0  0  0  0  0  0  0
    6.6216   -0.0412   19.8779 C   0  0  0  0  0  0  0  0  0  0  0  0
    5.4135    0.6168   20.1338 C   0  0  0  0  0  0  0  0  0  0  0  0
    4.7988    1.3099   19.0879 C   0  0  0  0  0  0  0  0  0  0  0  0
    5.4023    1.3029   17.8252 C   0  0  0  0  0  0  0  0  0  0  0  0
    6.5427    0.6473   17.5603 N   0  0  0  0  0  0  0  0  0  0  0  0
    7.1380   -0.0037   18.5683 C   0  0  0  0  0  0  0  0  0  0  0  0
    8.0796   -0.4969   18.3231 H   0  0  0  0  0  0  0  0  0  0  0  0
    4.9539    1.8437   16.9957 H   0  0  0  0  0  0  0  0  0  0  0  0
    3.8751    1.8580   19.2435 H   0  0  0  0  0  0  0  0  0  0  0  0
    4.9953    0.5809   21.1396 H   0  0  0  0  0  0  0  0  0  0  0  0
    8.5833   -0.5926   21.3967 C   0  0  0  0  0  0  0  0  0  0  0  0
    9.6279    0.2624   20.7612 C   0  0  0  0  0  0  0  0  0  0  0  0
   10.6803    0.7818   21.7486 C   0  0  0  0  0  0  0  0  0  0  0  0
   11.5618    1.9572   21.2560 C   0  0  0  0  0  0  0  0  0  0  0  0
   12.6153    2.2466   22.1683 O   0  0  0  0  0  0  0  0  0  0  0  0
   13.3873    1.1133   22.5263 C   0  0  0  0  0  0  0  0  0  0  0  0
   12.4966   -0.0277   23.0159 C   0  0  0  0  0  0  0  0  0  0  0  0
   11.5175   -0.3354   22.0398 O   0  0  0  0  0  0  0  0  0  0  0  0
   12.0322    0.2185   23.9856 H   0  0  0  0  0  0  0  0  0  0  0  0
   13.0948   -0.9304   23.1229 H   0  0  0  0  0  0  0  0  0  0  0  0
   13.9799    0.7330   21.6842 H   0  0  0  0  0  0  0  0  0  0  0  0
   14.0829    1.4585   23.2962 H   0  0  0  0  0  0  0  0  0  0  0  0
   11.9554    1.7484   20.2588 H   0  0  0  0  0  0  0  0  0  0  0  0
   10.9849    2.8796   21.2057 H   0  0  0  0  0  0  0  0  0  0  0  0
   10.1959    1.1276   22.6743 H   0  0  0  0  0  0  0  0  0  0  0  0
   10.1434   -0.4006   20.0617 H   0  0  0  0  0  0  0  0  0  0  0  0
    9.1325    1.0613   20.2037 H   0  0  0  0  0  0  0  0  0  0  0  0
    8.7771   -1.4125   22.4031 N   0  0  0  0  0  0  0  0  0  0  0  0
    8.3511   -4.1534   23.6437 C   0  0  0  0  0  0  0  0  0  0  0  0
    8.0311   -5.2085   24.7283 C   0  0  0  0  0  0  0  0  0  0  0  0
    7.3958   -5.9915   24.2966 H   0  0  0  0  0  0  0  0  0  0  0  0
    8.9651   -5.7037   25.0306 H   0  0  0  0  0  0  0  0  0  0  0  0
    8.3651   -4.6200   22.6524 H   0  0  0  0  0  0  0  0  0  0  0  0
    9.3587   -3.7444   23.7945 H   0  0  0  0  0  0  0  0  0  0  0  0
    6.3342   -3.3740   23.5529 H   0  0  0  0  0  0  0  0  0  0  0  0
    8.1967   -1.4660   25.0164 H   0  0  0  0  0  0  0  0  0  0  0  0
    6.4764   -1.7294   25.2243 H   0  0  0  0  0  0  0  0  0  0  0  0
    8.8367   -3.1934   26.4258 H   0  0  0  0  0  0  0  0  0  0  0  0
    7.2923   -2.8108   27.1626 H   0  0  0  0  0  0  0  0  0  0  0  0
    6.2357   -4.6146   25.7602 H   0  0  0  0  0  0  0  0  0  0  0  0
    7.1826   -6.5610   27.0123 H   0  0  0  0  0  0  0  0  0  0  0  0
    8.5811   -5.5817   27.4726 H   0  0  0  0  0  0  0  0  0  0  0  0
    6.9729   -5.1637   28.0758 H   0  0  0  0  0  0  0  0  0  0  0  0
  1  2  1  0
  2  3  1  0
  3  4  1  0
  4  5  1  0
  5  6  1  0
  6  7  2  0
  7  8  1  0
  8  9  1  0
  9 10  2  0
 10 11  1  0
 11 12  2  0
 12 13  1  0
 13 14  2  0
 14 15  1  0
 12 16  1  0
 11 17  1  0
 10 18  1  0
  8 19  1  0
 19 20  1  0
 20 21  1  0
 21 22  1  0
 22 23  1  0
 23 24  1  0
 24 25  1  0
 25 26  1  0
 25 27  1  0
 25 28  1  0
 24 29  1  0
 24 30  1  0
 22 31  1  0
 22 32  1  0
 21 33  1  0
 20 34  1  0
 20 35  1  0
 19 36  2  0
  5 37  1  0
 37 38  1  0
 38 39  1  0
 38 40  1  0
 37 41  1  0
 37 42  1  0
  5 43  1  0
  4 44  1  0
  4 45  1  0
  3 46  1  0
  3 47  1  0
  2 48  1  0
  1 49  1  0
  1 50  1  0
  1 51  1  0
 38  2  1  0
 36  6  1  0
 14  9  1  0
 26 21  1  0
M  END
>  <cnnaffinity>  (1) 
-6.20116

>  <filename>  (1) 
CC1CCC(c2nc(CC3COCCO3)n(-c3cccnc3)n2)CC1

$$$$
