
     RDKit          3D

 44 47  0  0  0  0  0  0  0  0999 V2000
   13.7965    0.1491   23.3038 C   0  0  0  0  0  0  0  0  0  0  0  0
   12.4577    0.6012   22.8003 C   0  0  0  0  0  0  0  0  0  0  0  0
   11.8392   -0.0112   21.7987 N   0  0  0  0  0  0  0  0  0  0  0  0
   10.6908    0.6559   21.6159 N   0  0  0  0  0  0  0  0  0  0  0  0
    9.6742    0.1882   20.6978 C   0  0  0  0  0  0  0  0  0  0  0  0
    8.6361   -0.6305   21.3674 C   0  0  0  0  0  0  0  0  0  0  0  0
    8.8415   -1.4801   22.3424 N   0  0  0  0  0  0  0  0  0  0  0  0
    7.6052   -1.9923   22.5728 C   0  0  0  0  0  0  0  0  0  0  0  0
    7.3770   -2.9709   23.6753 C   0  0  0  0  0  0  0  0  0  0  0  0
    8.1091   -4.3127   23.3804 C   0  0  0  0  0  0  0  0  0  0  0  0
    8.0891   -5.2411   24.5721 C   0  0  0  0  0  0  0  0  0  0  0  0
    7.8489   -4.8311   25.8207 C   0  0  0  0  0  0  0  0  0  0  0  0
    7.4999   -3.4011   26.1754 C   0  0  0  0  0  0  0  0  0  0  0  0
    7.8486   -2.4124   25.0475 C   0  0  0  0  0  0  0  0  0  0  0  0
    7.3880   -1.4372   25.2510 H   0  0  0  0  0  0  0  0  0  0  0  0
    8.9362   -2.2345   25.0003 H   0  0  0  0  0  0  0  0  0  0  0  0
    6.4213   -3.3416   26.3980 H   0  0  0  0  0  0  0  0  0  0  0  0
    8.0001   -3.1168   27.1099 H   0  0  0  0  0  0  0  0  0  0  0  0
    7.8725   -5.5501   26.6415 H   0  0  0  0  0  0  0  0  0  0  0  0
    8.3118   -6.2901   24.3764 H   0  0  0  0  0  0  0  0  0  0  0  0
    9.1549   -4.1065   23.0907 H   0  0  0  0  0  0  0  0  0  0  0  0
    7.6581   -4.8135   22.5140 H   0  0  0  0  0  0  0  0  0  0  0  0
    6.2894   -3.1346   23.7014 H   0  0  0  0  0  0  0  0  0  0  0  0
    6.6655   -1.5441   21.7677 N   0  0  0  0  0  0  0  0  0  0  0  0
    7.3329   -0.6804   20.9573 N   0  0  0  0  0  0  0  0  0  0  0  0
    6.6619    0.0046   19.9088 C   0  0  0  0  0  0  0  0  0  0  0  0
    5.4431    0.6441   20.1599 C   0  0  0  0  0  0  0  0  0  0  0  0
    4.8125    1.3104   19.1082 C   0  0  0  0  0  0  0  0  0  0  0  0
    5.4020    1.2942   17.8376 C   0  0  0  0  0  0  0  0  0  0  0  0
    6.5587    0.6669   17.5823 N   0  0  0  0  0  0  0  0  0  0  0  0
    7.1735    0.0455   18.5954 C   0  0  0  0  0  0  0  0  0  0  0  0
    8.1165   -0.4395   18.3532 H   0  0  0  0  0  0  0  0  0  0  0  0
    4.9358    1.7967   16.9936 H   0  0  0  0  0  0  0  0  0  0  0  0
    3.8795    1.8404   19.2539 H   0  0  0  0  0  0  0  0  0  0  0  0
    5.0207    0.5994   21.1639 H   0  0  0  0  0  0  0  0  0  0  0  0
   10.1451   -0.4542   19.9514 H   0  0  0  0  0  0  0  0  0  0  0  0
    9.2147    1.0616   20.2305 H   0  0  0  0  0  0  0  0  0  0  0  0
   10.5676    1.6938   22.4757 C   0  0  0  0  0  0  0  0  0  0  0  0
   11.6908    1.6934   23.2695 C   0  0  0  0  0  0  0  0  0  0  0  0
   11.9592    2.3539   24.0842 H   0  0  0  0  0  0  0  0  0  0  0  0
    9.6852    2.3211   22.4418 H   0  0  0  0  0  0  0  0  0  0  0  0
   13.9770   -0.9044   23.0687 H   0  0  0  0  0  0  0  0  0  0  0  0
   13.8564    0.3013   24.3884 H   0  0  0  0  0  0  0  0  0  0  0  0
   14.5982    0.7382   22.8432 H   0  0  0  0  0  0  0  0  0  0  0  0
  1  2  1  0
  2  3  2  0
  3  4  1  0
  4  5  1  0
  5  6  1  0
  6  7  2  0
  7  8  1  0
  8  9  1  0
  9 10  1  0
 10 11  1  0
 11 12  2  0
 12 13  1  0
 13 14  1  0
 14 15  1  0
 14 16  1  0
 13 17  1  0
 13 18  1  0
 12 19  1  0
 11 20  1  0
 10 21  1  0
 10 22  1  0
  9 23  1  0
  8 24  2  0
 24 25  1  0
 25 26  1  0
 26 27  2  0
 27 28  1  0
 28 29  2  0
 29 30  1  0
 30 31  2  0
 31 32  1  0
 29 33  1  0
 28 34  1  0
 27 35  1  0
  5 36  1  0
  5 37  1  0
  4 38  1  0
 38 39  2  0
 39 40  1  0
 38 41  1  0
  1 42  1  0
  1 43  1  0
  1 44  1  0
 39  2  1  0
 25  6  1  0
 31 26  1  0
 14  9  1  0
M  END
>  <cnnaffinity>  (1) 
-6.49922

>  <filename>  (1) 
Cc1ccn(Cc2nc(C3CC=CCC3)nn2-c2cccnc2)n1

$$$$
