
     RDKit          3D

 44 47  0  0  0  0  0  0  0  0999 V2000
    6.0163    3.7221   29.0990 C   0  0  0  0  0  0  0  0  0  0  0  0
    6.3394    3.1120   27.7556 C   0  0  0  0  0  0  0  0  0  0  0  0
    5.6477    2.0152   27.2096 C   0  0  0  0  0  0  0  0  0  0  0  0
    5.9903    1.4653   25.9656 C   0  0  0  0  0  0  0  0  0  0  0  0
    7.0482    2.0185   25.2125 C   0  0  0  0  0  0  0  0  0  0  0  0
    7.5089    1.4605   23.9107 C   0  0  0  0  0  0  0  0  0  0  0  0
    6.9274    0.4820   23.2345 N   0  0  0  0  0  0  0  0  0  0  0  0
    7.7422    0.3114   22.1632 N   0  0  0  0  0  0  0  0  0  0  0  0
    7.3853   -0.6188   21.0932 C   0  0  0  0  0  0  0  0  0  0  0  0
    6.6915    0.0487   19.9157 C   0  0  0  0  0  0  0  0  0  0  0  0
    5.4832    0.7279   20.1103 C   0  0  0  0  0  0  0  0  0  0  0  0
    4.8790    1.3427   19.0122 C   0  0  0  0  0  0  0  0  0  0  0  0
    5.5011    1.2607   17.7631 C   0  0  0  0  0  0  0  0  0  0  0  0
    6.6531    0.6098   17.5522 N   0  0  0  0  0  0  0  0  0  0  0  0
    7.2219    0.0246   18.6153 C   0  0  0  0  0  0  0  0  0  0  0  0
    8.1506   -0.5086   18.4116 H   0  0  0  0  0  0  0  0  0  0  0  0
    5.0566    1.7464   16.8971 H   0  0  0  0  0  0  0  0  0  0  0  0
    3.9530    1.8938   19.1127 H   0  0  0  0  0  0  0  0  0  0  0  0
    5.0366    0.7767   21.1064 H   0  0  0  0  0  0  0  0  0  0  0  0
    8.2942   -1.1329   20.7590 H   0  0  0  0  0  0  0  0  0  0  0  0
    6.7386   -1.3689   21.5622 H   0  0  0  0  0  0  0  0  0  0  0  0
    8.7714    1.1802   22.2456 C   0  0  0  0  0  0  0  0  0  0  0  0
    9.9338    1.2570   21.3053 C   0  0  0  0  0  0  0  0  0  0  0  0
   11.0897    0.3503   21.6275 C   0  0  0  0  0  0  0  0  0  0  0  0
   12.0636    0.5025   22.5847 C   0  0  0  0  0  0  0  0  0  0  0  0
   12.9691   -0.5934   22.4648 C   0  0  0  0  0  0  0  0  0  0  0  0
   12.5104   -1.3831   21.4439 C   0  0  0  0  0  0  0  0  0  0  0  0
   11.3570   -0.8118   20.9604 N   0  0  0  0  0  0  0  0  0  0  0  0
   10.8406   -1.1370   20.1563 H   0  0  0  0  0  0  0  0  0  0  0  0
   12.9251   -2.2772   20.9963 H   0  0  0  0  0  0  0  0  0  0  0  0
   13.8951   -0.7359   23.0099 H   0  0  0  0  0  0  0  0  0  0  0  0
   12.1354    1.3305   23.2770 H   0  0  0  0  0  0  0  0  0  0  0  0
    9.5798    1.0951   20.2868 H   0  0  0  0  0  0  0  0  0  0  0  0
   10.2759    2.2929   21.3614 H   0  0  0  0  0  0  0  0  0  0  0  0
    8.6432    1.9313   23.3128 N   0  0  0  0  0  0  0  0  0  0  0  0
    7.7453    3.1247   25.7436 C   0  0  0  0  0  0  0  0  0  0  0  0
    7.3870    3.6352   26.9791 C   0  0  0  0  0  0  0  0  0  0  0  0
    8.0856    4.6849   27.4541 F   0  0  0  0  0  0  0  0  0  0  0  0
    8.5747    3.5752   25.2033 H   0  0  0  0  0  0  0  0  0  0  0  0
    5.4539    0.5959   25.5917 H   0  0  0  0  0  0  0  0  0  0  0  0
    4.8275    1.5737   27.7778 H   0  0  0  0  0  0  0  0  0  0  0  0
    5.7391    4.7777   28.9968 H   0  0  0  0  0  0  0  0  0  0  0  0
    6.8857    3.6893   29.7661 H   0  0  0  0  0  0  0  0  0  0  0  0
    5.1921    3.2071   29.6015 H   0  0  0  0  0  0  0  0  0  0  0  0
  1  2  1  0
  2  3  2  0
  3  4  1  0
  4  5  2  0
  5  6  1  0
  6  7  2  0
  7  8  1  0
  8  9  1  0
  9 10  1  0
 10 11  2  0
 11 12  1  0
 12 13  2  0
 13 14  1  0
 14 15  2  0
 15 16  1  0
 13 17  1  0
 12 18  1  0
 11 19  1  0
  9 20  1  0
  9 21  1  0
  8 22  1  0
 22 23  1  0
 23 24  1  0
 24 25  2  0
 25 26  1  0
 26 27  2  0
 27 28  1  0
 28 29  1  0
 27 30  1  0
 26 31  1  0
 25 32  1  0
 23 33  1  0
 23 34  1  0
 22 35  2  0
  5 36  1  0
 36 37  2  0
 37 38  1  0
 36 39  1  0
  4 40  1  0
  3 41  1  0
  1 42  1  0
  1 43  1  0
  1 44  1  0
 37  2  1  0
 35  6  1  0
 15 10  1  0
 28 24  1  0
M  END
>  <cnnaffinity>  (1) 
-5.95693

>  <filename>  (1) 
Cc1ccc(-c2nc(Cc3ccc[nH]3)n(Cc3cccnc3)n2)cc1F

$$$$
