
     RDKit          3D

 47 50  0  0  0  0  0  0  0  0999 V2000
   11.5268    3.5978   22.7603 C   0  0  0  0  0  0  0  0  0  0  0  0
   10.4237    4.1577   23.6350 C   0  0  0  0  0  0  0  0  0  0  0  0
   10.7582    4.8233   24.8219 C   0  0  0  0  0  0  0  0  0  0  0  0
    9.7912    5.1226   25.7883 C   0  0  0  0  0  0  0  0  0  0  0  0
    8.4522    4.8209   25.5287 C   0  0  0  0  0  0  0  0  0  0  0  0
    8.0494    4.3330   24.2733 C   0  0  0  0  0  0  0  0  0  0  0  0
    6.5790    4.2136   23.9324 C   0  0  0  0  0  0  0  0  0  0  0  0
    5.9862    4.9413   24.4963 H   0  0  0  0  0  0  0  0  0  0  0  0
    6.4054    4.3899   22.8648 H   0  0  0  0  0  0  0  0  0  0  0  0
    6.1960    3.2192   24.1886 H   0  0  0  0  0  0  0  0  0  0  0  0
    9.0510    3.9777   23.3424 C   0  0  0  0  0  0  0  0  0  0  0  0
    8.6560    3.5376   22.0905 O   0  0  0  0  0  0  0  0  0  0  0  0
    8.7812    2.1481   21.8223 C   0  0  0  0  0  0  0  0  0  0  0  0
    7.7126    1.3322   22.5650 C   0  0  0  0  0  0  0  0  0  0  0  0
    7.7425   -0.1065   22.1796 C   0  0  0  0  0  0  0  0  0  0  0  0
    8.3505   -1.0461   22.8680 N   0  0  0  0  0  0  0  0  0  0  0  0
    8.2916   -2.1228   22.0405 C   0  0  0  0  0  0  0  0  0  0  0  0
    8.9069   -3.4198   22.4094 C   0  0  0  0  0  0  0  0  0  0  0  0
    8.4790   -4.2198   23.6161 C   0  0  0  0  0  0  0  0  0  0  0  0
    8.1604   -4.7205   22.2394 C   0  0  0  0  0  0  0  0  0  0  0  0
    7.1209   -4.6427   21.9206 H   0  0  0  0  0  0  0  0  0  0  0  0
    8.6939   -5.5872   21.8556 H   0  0  0  0  0  0  0  0  0  0  0  0
    7.6615   -3.8376   24.2252 H   0  0  0  0  0  0  0  0  0  0  0  0
    9.2719   -4.7238   24.1664 H   0  0  0  0  0  0  0  0  0  0  0  0
    9.9802   -3.3717   22.2374 H   0  0  0  0  0  0  0  0  0  0  0  0
    7.7219   -1.9008   20.8730 N   0  0  0  0  0  0  0  0  0  0  0  0
    7.3305   -0.6040   20.9741 N   0  0  0  0  0  0  0  0  0  0  0  0
    6.6296    0.0325   19.9094 C   0  0  0  0  0  0  0  0  0  0  0  0
    5.4187    0.6965   20.1336 C   0  0  0  0  0  0  0  0  0  0  0  0
    4.8098    1.3386   19.0525 C   0  0  0  0  0  0  0  0  0  0  0  0
    5.4274    1.3036   17.7994 C   0  0  0  0  0  0  0  0  0  0  0  0
    6.5772    0.6442   17.5724 N   0  0  0  0  0  0  0  0  0  0  0  0
    7.1507    0.0115   18.6017 C   0  0  0  0  0  0  0  0  0  0  0  0
    8.0678   -0.5297   18.3841 H   0  0  0  0  0  0  0  0  0  0  0  0
    4.9734    1.8056   16.9468 H   0  0  0  0  0  0  0  0  0  0  0  0
    3.8722    1.8665   19.1764 H   0  0  0  0  0  0  0  0  0  0  0  0
    4.9566    0.6932   21.1226 H   0  0  0  0  0  0  0  0  0  0  0  0
    6.7255    1.7621   22.3715 H   0  0  0  0  0  0  0  0  0  0  0  0
    7.9039    1.3820   23.6434 H   0  0  0  0  0  0  0  0  0  0  0  0
    8.6681    2.0454   20.7357 H   0  0  0  0  0  0  0  0  0  0  0  0
    9.7825    1.7838   22.0939 H   0  0  0  0  0  0  0  0  0  0  0  0
    7.6983    4.9995   26.2946 H   0  0  0  0  0  0  0  0  0  0  0  0
   10.0726    5.5896   26.7293 H   0  0  0  0  0  0  0  0  0  0  0  0
   11.8103    5.0250   25.0052 H   0  0  0  0  0  0  0  0  0  0  0  0
   11.7049    2.5344   22.9750 H   0  0  0  0  0  0  0  0  0  0  0  0
   12.4833    4.1043   22.9283 H   0  0  0  0  0  0  0  0  0  0  0  0
   11.2771    3.6729   21.7009 H   0  0  0  0  0  0  0  0  0  0  0  0
  1  2  1  0
  2  3  2  0
  3  4  1  0
  4  5  2  0
  5  6  1  0
  6  7  1  0
  7  8  1  0
  7  9  1  0
  7 10  1  0
  6 11  2  0
 11 12  1  0
 12 13  1  0
 13 14  1  0
 14 15  1  0
 15 16  2  0
 16 17  1  0
 17 18  1  0
 18 19  1  0
 19 20  1  0
 20 21  1  0
 20 22  1  0
 19 23  1  0
 19 24  1  0
 18 25  1  0
 17 26  2  0
 26 27  1  0
 27 28  1  0
 28 29  2  0
 29 30  1  0
 30 31  2  0
 31 32  1  0
 32 33  2  0
 33 34  1  0
 31 35  1  0
 30 36  1  0
 29 37  1  0
 14 38  1  0
 14 39  1  0
 13 40  1  0
 13 41  1  0
  5 42  1  0
  4 43  1  0
  3 44  1  0
  1 45  1  0
  1 46  1  0
  1 47  1  0
 11  2  1  0
 27 15  1  0
 33 28  1  0
 20 18  1  0
M  END
>  <cnnaffinity>  (1) 
-6.03704

>  <filename>  (1) 
Cc1cccc(C)c1OCCc1nc(C2CC2)nn1-c1cccnc1

$$$$
