
     RDKit          3D

 50 53  0  0  0  0  0  0  0  0999 V2000
    9.9432   -4.9324   27.3715 C   0  0  0  0  0  0  0  0  0  0  0  0
    9.3589   -4.3289   26.1110 C   0  0  0  0  0  0  0  0  0  0  0  0
    9.2374   -5.0943   24.9289 C   0  0  0  0  0  0  0  0  0  0  0  0
    8.6234   -4.6669   23.8186 N   0  0  0  0  0  0  0  0  0  0  0  0
    8.1121   -3.4326   23.8113 C   0  0  0  0  0  0  0  0  0  0  0  0
    8.2271   -2.5600   24.9070 C   0  0  0  0  0  0  0  0  0  0  0  0
    7.6984   -1.2407   24.8610 N   0  0  0  0  0  0  0  0  0  0  0  0
    6.8740   -0.8186   25.8523 N   0  0  0  0  0  0  0  0  0  0  0  0
    6.5800    0.4182   25.4905 C   0  0  0  0  0  0  0  0  0  0  0  0
    5.6980    1.3281   26.2933 C   0  0  0  0  0  0  0  0  0  0  0  0
    6.3894    1.7503   27.6243 C   0  0  0  0  0  0  0  0  0  0  0  0
    5.4464    2.4521   28.5744 C   0  0  0  0  0  0  0  0  0  0  0  0
    4.1150    2.4019   28.4669 C   0  0  0  0  0  0  0  0  0  0  0  0
    3.3988    1.6949   27.3368 C   0  0  0  0  0  0  0  0  0  0  0  0
    4.3081    0.7060   26.5803 C   0  0  0  0  0  0  0  0  0  0  0  0
    3.8230    0.3990   25.6450 H   0  0  0  0  0  0  0  0  0  0  0  0
    4.4647   -0.2112   27.1670 H   0  0  0  0  0  0  0  0  0  0  0  0
    2.5123    1.1770   27.7245 H   0  0  0  0  0  0  0  0  0  0  0  0
    2.9976    2.4507   26.6417 H   0  0  0  0  0  0  0  0  0  0  0  0
    3.4896    2.8993   29.2107 H   0  0  0  0  0  0  0  0  0  0  0  0
    5.9081    3.0008   29.3963 H   0  0  0  0  0  0  0  0  0  0  0  0
    7.2552    2.3959   27.4222 H   0  0  0  0  0  0  0  0  0  0  0  0
    6.8063    0.8550   28.1133 H   0  0  0  0  0  0  0  0  0  0  0  0
    5.5716    2.2149   25.6585 H   0  0  0  0  0  0  0  0  0  0  0  0
    7.1831    0.8334   24.3514 N   0  0  0  0  0  0  0  0  0  0  0  0
    7.8851   -0.2192   23.9718 C   0  0  0  0  0  0  0  0  0  0  0  0
    8.8388   -0.2534   22.8034 C   0  0  0  0  0  0  0  0  0  0  0  0
    8.2822    0.2027   21.5885 O   0  0  0  0  0  0  0  0  0  0  0  0
    7.4051   -0.7261   20.9659 C   0  0  0  0  0  0  0  0  0  0  0  0
    6.6391   -0.0065   19.8844 C   0  0  0  0  0  0  0  0  0  0  0  0
    5.4315    0.6543   20.1391 C   0  0  0  0  0  0  0  0  0  0  0  0
    4.7947    1.3190   19.0863 C   0  0  0  0  0  0  0  0  0  0  0  0
    5.3919    1.3044   17.8200 C   0  0  0  0  0  0  0  0  0  0  0  0
    6.5557    0.6901   17.5634 N   0  0  0  0  0  0  0  0  0  0  0  0
    7.1587    0.0692   18.5851 C   0  0  0  0  0  0  0  0  0  0  0  0
    8.1118   -0.4030   18.3505 H   0  0  0  0  0  0  0  0  0  0  0  0
    4.9266    1.8066   16.9717 H   0  0  0  0  0  0  0  0  0  0  0  0
    3.8629    1.8541   19.2279 H   0  0  0  0  0  0  0  0  0  0  0  0
    5.0092    0.6593   21.1480 H   0  0  0  0  0  0  0  0  0  0  0  0
    6.7046   -1.1435   21.7083 H   0  0  0  0  0  0  0  0  0  0  0  0
    7.9957   -1.5583   20.5444 H   0  0  0  0  0  0  0  0  0  0  0  0
    9.2450   -1.2671   22.7018 H   0  0  0  0  0  0  0  0  0  0  0  0
    9.6705    0.4246   23.0238 H   0  0  0  0  0  0  0  0  0  0  0  0
    8.8551   -3.0238   26.0739 C   0  0  0  0  0  0  0  0  0  0  0  0
    8.9414   -2.3603   26.9391 H   0  0  0  0  0  0  0  0  0  0  0  0
    7.6121   -3.1320   22.8885 H   0  0  0  0  0  0  0  0  0  0  0  0
    9.6345   -6.1053   24.8708 H   0  0  0  0  0  0  0  0  0  0  0  0
   10.2802   -4.1693   28.0801 H   0  0  0  0  0  0  0  0  0  0  0  0
    9.2141   -5.5550   27.8991 H   0  0  0  0  0  0  0  0  0  0  0  0
   10.7970   -5.5726   27.1379 H   0  0  0  0  0  0  0  0  0  0  0  0
  1  2  1  0
  2  3  2  0
  3  4  1  0
  4  5  2  0
  5  6  1  0
  6  7  1  0
  7  8  1  0
  8  9  2  0
  9 10  1  0
 10 11  1  0
 11 12  1  0
 12 13  2  0
 13 14  1  0
 14 15  1  0
 15 16  1  0
 15 17  1  0
 14 18  1  0
 14 19  1  0
 13 20  1  0
 12 21  1  0
 11 22  1  0
 11 23  1  0
 10 24  1  0
  9 25  1  0
 25 26  2  0
 26 27  1  0
 27 28  1  0
 28 29  1  0
 29 30  1  0
 30 31  2  0
 31 32  1  0
 32 33  2  0
 33 34  1  0
 34 35  2  0
 35 36  1  0
 33 37  1  0
 32 38  1  0
 31 39  1  0
 29 40  1  0
 29 41  1  0
 27 42  1  0
 27 43  1  0
  6 44  2  0
 44 45  1  0
  5 46  1  0
  3 47  1  0
  1 48  1  0
  1 49  1  0
  1 50  1  0
 44  2  1  0
 26  7  1  0
 35 30  1  0
 15 10  1  0
M  END
>  <cnnaffinity>  (1) 
-5.99814

>  <filename>  (1) 
Cc1cncc(-n2nc(C3CC=CCC3)nc2COCc2cccnc2)c1

$$$$
