
     RDKit          3D

 46 49  0  0  0  0  0  0  0  0999 V2000
    7.9701    4.8182   27.4204 C   0  0  0  0  0  0  0  0  0  0  0  0
    7.3851    3.5085   26.9302 C   0  0  0  0  0  0  0  0  0  0  0  0
    6.3166    2.8962   27.6057 C   0  0  0  0  0  0  0  0  0  0  0  0
    5.6507    1.7959   27.0511 C   0  0  0  0  0  0  0  0  0  0  0  0
    6.0465    1.2755   25.8198 C   0  0  0  0  0  0  0  0  0  0  0  0
    7.1617    1.8275   25.1583 C   0  0  0  0  0  0  0  0  0  0  0  0
    7.6276    1.2941   23.8579 C   0  0  0  0  0  0  0  0  0  0  0  0
    7.0563    0.2884   23.2125 N   0  0  0  0  0  0  0  0  0  0  0  0
    7.7836    0.1865   22.0778 N   0  0  0  0  0  0  0  0  0  0  0  0
    7.3637   -0.7202   21.0120 C   0  0  0  0  0  0  0  0  0  0  0  0
    6.6516   -0.0225   19.8707 C   0  0  0  0  0  0  0  0  0  0  0  0
    5.4454    0.6459   20.1193 C   0  0  0  0  0  0  0  0  0  0  0  0
    4.8218    1.3087   19.0623 C   0  0  0  0  0  0  0  0  0  0  0  0
    5.4271    1.2942   17.8010 C   0  0  0  0  0  0  0  0  0  0  0  0
    6.5756    0.6501   17.5397 N   0  0  0  0  0  0  0  0  0  0  0  0
    7.1601    0.0128   18.5628 C   0  0  0  0  0  0  0  0  0  0  0  0
    8.0877   -0.5109   18.3248 H   0  0  0  0  0  0  0  0  0  0  0  0
    4.9674    1.8194   16.9658 H   0  0  0  0  0  0  0  0  0  0  0  0
    3.8882    1.8453   19.2066 H   0  0  0  0  0  0  0  0  0  0  0  0
    5.0156    0.6532   21.1236 H   0  0  0  0  0  0  0  0  0  0  0  0
    8.2413   -1.2668   20.6559 H   0  0  0  0  0  0  0  0  0  0  0  0
    6.6896   -1.4385   21.4860 H   0  0  0  0  0  0  0  0  0  0  0  0
    8.7601    1.1221   22.0907 C   0  0  0  0  0  0  0  0  0  0  0  0
    9.8122    1.3733   21.0499 C   0  0  0  0  0  0  0  0  0  0  0  0
   11.2290    1.0762   21.5246 C   0  0  0  0  0  0  0  0  0  0  0  0
   12.0682    2.0929   21.9908 C   0  0  0  0  0  0  0  0  0  0  0  0
   13.2653    1.8960   22.5514 N   0  0  0  0  0  0  0  0  0  0  0  0
   13.7079    0.6419   22.6415 C   0  0  0  0  0  0  0  0  0  0  0  0
   12.9819   -0.4576   22.2004 C   0  0  0  0  0  0  0  0  0  0  0  0
   11.7193   -0.2241   21.6550 C   0  0  0  0  0  0  0  0  0  0  0  0
   10.9559   -1.2596   21.2445 O   0  0  0  0  0  0  0  0  0  0  0  0
   11.5022   -2.0403   21.3845 H   0  0  0  0  0  0  0  0  0  0  0  0
   13.3936   -1.4569   22.2605 H   0  0  0  0  0  0  0  0  0  0  0  0
   14.6966    0.5178   23.0816 H   0  0  0  0  0  0  0  0  0  0  0  0
   11.7557    3.1345   21.9129 H   0  0  0  0  0  0  0  0  0  0  0  0
    9.7319    2.4449   20.8245 H   0  0  0  0  0  0  0  0  0  0  0  0
    9.5635    0.8167   20.1450 H   0  0  0  0  0  0  0  0  0  0  0  0
    8.6822    1.8347   23.1946 N   0  0  0  0  0  0  0  0  0  0  0  0
    7.8324    2.9240   25.7384 C   0  0  0  0  0  0  0  0  0  0  0  0
    8.7006    3.3305   25.2202 H   0  0  0  0  0  0  0  0  0  0  0  0
    5.5138    0.4354   25.3767 H   0  0  0  0  0  0  0  0  0  0  0  0
    4.8253    1.3340   27.5860 H   0  0  0  0  0  0  0  0  0  0  0  0
    5.9936    3.2902   28.5665 H   0  0  0  0  0  0  0  0  0  0  0  0
    9.0236    4.9261   27.1419 H   0  0  0  0  0  0  0  0  0  0  0  0
    7.8792    4.9227   28.5059 H   0  0  0  0  0  0  0  0  0  0  0  0
    7.4422    5.6717   26.9785 H   0  0  0  0  0  0  0  0  0  0  0  0
  1  2  1  0
  2  3  2  0
  3  4  1  0
  4  5  2  0
  5  6  1  0
  6  7  1  0
  7  8  2  0
  8  9  1  0
  9 10  1  0
 10 11  1  0
 11 12  2  0
 12 13  1  0
 13 14  2  0
 14 15  1  0
 15 16  2  0
 16 17  1  0
 14 18  1  0
 13 19  1  0
 12 20  1  0
 10 21  1  0
 10 22  1  0
  9 23  1  0
 23 24  1  0
 24 25  1  0
 25 26  2  0
 26 27  1  0
 27 28  2  0
 28 29  1  0
 29 30  2  0
 30 31  1  0
 31 32  1  0
 29 33  1  0
 28 34  1  0
 26 35  1  0
 24 36  1  0
 24 37  1  0
 23 38  2  0
  6 39  2  0
 39 40  1  0
  5 41  1  0
  4 42  1  0
  3 43  1  0
  1 44  1  0
  1 45  1  0
  1 46  1  0
 39  2  1  0
 38  7  1  0
 16 11  1  0
 30 25  1  0
M  END
>  <cnnaffinity>  (1) 
-6.29201

>  <filename>  (1) 
Cc1cccc(-c2nc(Cc3cnccc3O)n(Cc3cccnc3)n2)c1

$$$$
