
     RDKit          3D

 51 54  0  0  0  0  0  0  0  0999 V2000
    8.6276    0.1914   27.3409 C   0  0  0  0  0  0  0  0  0  0  0  0
    9.3484    0.6627   26.0996 C   0  0  0  0  0  0  0  0  0  0  0  0
   10.7488    0.5884   26.0143 C   0  0  0  0  0  0  0  0  0  0  0  0
   11.4412    1.0012   24.8767 C   0  0  0  0  0  0  0  0  0  0  0  0
   12.9341    0.8298   24.7201 C   0  0  0  0  0  0  0  0  0  0  0  0
   13.4227    0.4766   25.6338 H   0  0  0  0  0  0  0  0  0  0  0  0
   13.3997    1.7772   24.4316 H   0  0  0  0  0  0  0  0  0  0  0  0
   13.1529    0.1084   23.9202 H   0  0  0  0  0  0  0  0  0  0  0  0
   10.7073    1.5567   23.8164 C   0  0  0  0  0  0  0  0  0  0  0  0
    9.3133    1.5875   23.8493 C   0  0  0  0  0  0  0  0  0  0  0  0
    8.5143    1.9881   22.8138 O   0  0  0  0  0  0  0  0  0  0  0  0
    9.0381    2.0014   21.4924 C   0  0  0  0  0  0  0  0  0  0  0  0
    9.5146    0.6284   20.9713 C   0  0  0  0  0  0  0  0  0  0  0  0
    8.6230   -0.4836   21.4012 C   0  0  0  0  0  0  0  0  0  0  0  0
    8.8705   -1.3365   22.3743 N   0  0  0  0  0  0  0  0  0  0  0  0
    7.6501   -1.8975   22.6138 C   0  0  0  0  0  0  0  0  0  0  0  0
    7.3900   -2.8990   23.7360 C   0  0  0  0  0  0  0  0  0  0  0  0
    8.3812   -4.0972   23.7255 C   0  0  0  0  0  0  0  0  0  0  0  0
    8.7082   -4.3138   25.2068 C   0  0  0  0  0  0  0  0  0  0  0  0
    8.5356   -2.9113   25.7887 C   0  0  0  0  0  0  0  0  0  0  0  0
    7.4592   -2.3384   25.0547 O   0  0  0  0  0  0  0  0  0  0  0  0
    9.4415   -2.2905   25.6747 H   0  0  0  0  0  0  0  0  0  0  0  0
    8.2495   -2.9333   26.8468 H   0  0  0  0  0  0  0  0  0  0  0  0
    9.7147   -4.7113   25.3689 H   0  0  0  0  0  0  0  0  0  0  0  0
    7.9939   -5.0022   25.6768 H   0  0  0  0  0  0  0  0  0  0  0  0
    7.9530   -4.9833   23.2431 H   0  0  0  0  0  0  0  0  0  0  0  0
    9.2908   -3.8109   23.1823 H   0  0  0  0  0  0  0  0  0  0  0  0
    6.3507   -3.2132   23.5865 H   0  0  0  0  0  0  0  0  0  0  0  0
    6.7032   -1.5163   21.7769 N   0  0  0  0  0  0  0  0  0  0  0  0
    7.3385   -0.6236   20.9689 N   0  0  0  0  0  0  0  0  0  0  0  0
    6.6545    0.0156   19.8913 C   0  0  0  0  0  0  0  0  0  0  0  0
    5.4324    0.6487   20.1379 C   0  0  0  0  0  0  0  0  0  0  0  0
    4.8094    1.3184   19.0824 C   0  0  0  0  0  0  0  0  0  0  0  0
    5.4088    1.3093   17.8180 C   0  0  0  0  0  0  0  0  0  0  0  0
    6.5582    0.6671   17.5602 N   0  0  0  0  0  0  0  0  0  0  0  0
    7.1624    0.0357   18.5761 C   0  0  0  0  0  0  0  0  0  0  0  0
    8.0907   -0.4781   18.3277 H   0  0  0  0  0  0  0  0  0  0  0  0
    4.9429    1.8262   16.9813 H   0  0  0  0  0  0  0  0  0  0  0  0
    3.8753    1.8476   19.2304 H   0  0  0  0  0  0  0  0  0  0  0  0
    5.0029    0.6092   21.1399 H   0  0  0  0  0  0  0  0  0  0  0  0
    9.5768    0.6788   19.8841 H   0  0  0  0  0  0  0  0  0  0  0  0
   10.5132    0.3922   21.3452 H   0  0  0  0  0  0  0  0  0  0  0  0
    8.1975    2.3538   20.8964 H   0  0  0  0  0  0  0  0  0  0  0  0
    9.8412    2.7481   21.4064 H   0  0  0  0  0  0  0  0  0  0  0  0
    8.6435    1.1547   24.9955 C   0  0  0  0  0  0  0  0  0  0  0  0
    7.5583    1.1896   24.9635 H   0  0  0  0  0  0  0  0  0  0  0  0
   11.2240    1.9498   22.9491 H   0  0  0  0  0  0  0  0  0  0  0  0
   11.2987    0.2154   26.8727 H   0  0  0  0  0  0  0  0  0  0  0  0
    9.2872   -0.4545   27.9340 H   0  0  0  0  0  0  0  0  0  0  0  0
    7.7254   -0.3746   27.0817 H   0  0  0  0  0  0  0  0  0  0  0  0
    8.3174    1.0365   27.9694 H   0  0  0  0  0  0  0  0  0  0  0  0
  1  2  1  0
  2  3  2  0
  3  4  1  0
  4  5  1  0
  5  6  1  0
  5  7  1  0
  5  8  1  0
  4  9  2  0
  9 10  1  0
 10 11  1  0
 11 12  1  0
 12 13  1  0
 13 14  1  0
 14 15  2  0
 15 16  1  0
 16 17  1  0
 17 18  1  0
 18 19  1  0
 19 20  1  0
 20 21  1  0
 20 22  1  0
 20 23  1  0
 19 24  1  0
 19 25  1  0
 18 26  1  0
 18 27  1  0
 17 28  1  0
 16 29  2  0
 29 30  1  0
 30 31  1  0
 31 32  2  0
 32 33  1  0
 33 34  2  0
 34 35  1  0
 35 36  2  0
 36 37  1  0
 34 38  1  0
 33 39  1  0
 32 40  1  0
 13 41  1  0
 13 42  1  0
 12 43  1  0
 12 44  1  0
 10 45  2  0
 45 46  1  0
  9 47  1  0
  3 48  1  0
  1 49  1  0
  1 50  1  0
  1 51  1  0
 45  2  1  0
 30 14  1  0
 36 31  1  0
 21 17  1  0
M  END
>  <cnnaffinity>  (1) 
-6.14756

>  <filename>  (1) 
Cc1cc(C)cc(OCCc2nc(C3CCCO3)nn2-c2cccnc2)c1

$$$$
