
     RDKit          3D

 48 51  0  0  0  0  0  0  0  0999 V2000
    6.4516    1.8807   23.7540 C   0  0  0  0  0  0  0  0  0  0  0  0
    7.4588    2.8987   24.2381 C   0  0  0  0  0  0  0  0  0  0  0  0
    7.0556    3.9474   25.0832 C   0  0  0  0  0  0  0  0  0  0  0  0
    7.9604    4.9047   25.5430 C   0  0  0  0  0  0  0  0  0  0  0  0
    9.3012    4.8056   25.1640 C   0  0  0  0  0  0  0  0  0  0  0  0
    9.7522    3.7791   24.3199 C   0  0  0  0  0  0  0  0  0  0  0  0
   11.2073    3.7005   23.9197 C   0  0  0  0  0  0  0  0  0  0  0  0
   11.5618    2.6651   23.9047 H   0  0  0  0  0  0  0  0  0  0  0  0
   11.8381    4.2847   24.5954 H   0  0  0  0  0  0  0  0  0  0  0  0
   11.3557    4.1021   22.9109 H   0  0  0  0  0  0  0  0  0  0  0  0
    8.8101    2.8420   23.8397 C   0  0  0  0  0  0  0  0  0  0  0  0
    9.2487    1.7928   23.0486 O   0  0  0  0  0  0  0  0  0  0  0  0
    9.1466    1.9515   21.6342 C   0  0  0  0  0  0  0  0  0  0  0  0
    9.5212    0.6119   20.9950 C   0  0  0  0  0  0  0  0  0  0  0  0
    8.6163   -0.4862   21.4383 C   0  0  0  0  0  0  0  0  0  0  0  0
    8.8377   -1.3114   22.4366 N   0  0  0  0  0  0  0  0  0  0  0  0
    7.6483   -1.9490   22.5852 C   0  0  0  0  0  0  0  0  0  0  0  0
    7.4135   -2.8945   23.7130 C   0  0  0  0  0  0  0  0  0  0  0  0
    7.4677   -2.2250   25.1210 C   0  0  0  0  0  0  0  0  0  0  0  0
    8.8511   -3.2921   25.6445 S   0  0  0  0  0  0  0  0  0  0  0  0
    8.5542   -3.9218   23.9564 C   0  0  0  0  0  0  0  0  0  0  0  0
    8.2303   -4.9669   23.9519 H   0  0  0  0  0  0  0  0  0  0  0  0
    9.4262   -3.8110   23.3030 H   0  0  0  0  0  0  0  0  0  0  0  0
    7.7358   -1.1617   25.1132 H   0  0  0  0  0  0  0  0  0  0  0  0
    6.5670   -2.3571   25.7280 H   0  0  0  0  0  0  0  0  0  0  0  0
    6.4533   -3.3692   23.5204 H   0  0  0  0  0  0  0  0  0  0  0  0
    6.7175   -1.6045   21.7201 N   0  0  0  0  0  0  0  0  0  0  0  0
    7.3517   -0.6728   20.9465 N   0  0  0  0  0  0  0  0  0  0  0  0
    6.6585    0.0062   19.9037 C   0  0  0  0  0  0  0  0  0  0  0  0
    5.4417    0.6453   20.1640 C   0  0  0  0  0  0  0  0  0  0  0  0
    4.8128    1.3120   19.1085 C   0  0  0  0  0  0  0  0  0  0  0  0
    5.3991    1.2975   17.8372 C   0  0  0  0  0  0  0  0  0  0  0  0
    6.5562    0.6697   17.5759 N   0  0  0  0  0  0  0  0  0  0  0  0
    7.1658    0.0487   18.5918 C   0  0  0  0  0  0  0  0  0  0  0  0
    8.1106   -0.4382   18.3639 H   0  0  0  0  0  0  0  0  0  0  0  0
    4.9220    1.7887   16.9920 H   0  0  0  0  0  0  0  0  0  0  0  0
    3.8801    1.8390   19.2606 H   0  0  0  0  0  0  0  0  0  0  0  0
    5.0179    0.6036   21.1713 H   0  0  0  0  0  0  0  0  0  0  0  0
    9.4969    0.6988   19.9065 H   0  0  0  0  0  0  0  0  0  0  0  0
   10.5431    0.3355   21.2623 H   0  0  0  0  0  0  0  0  0  0  0  0
    9.8229    2.7457   21.2855 H   0  0  0  0  0  0  0  0  0  0  0  0
    8.1244    2.2340   21.3427 H   0  0  0  0  0  0  0  0  0  0  0  0
   10.0217    5.5405   25.5157 H   0  0  0  0  0  0  0  0  0  0  0  0
    7.6251    5.7205   26.1816 H   0  0  0  0  0  0  0  0  0  0  0  0
    6.0083    4.0067   25.3717 H   0  0  0  0  0  0  0  0  0  0  0  0
    5.6177    1.7934   24.4575 H   0  0  0  0  0  0  0  0  0  0  0  0
    6.0281    2.1788   22.7874 H   0  0  0  0  0  0  0  0  0  0  0  0
    6.9026    0.8920   23.6195 H   0  0  0  0  0  0  0  0  0  0  0  0
  1  2  1  0
  2  3  2  0
  3  4  1  0
  4  5  2  0
  5  6  1  0
  6  7  1  0
  7  8  1  0
  7  9  1  0
  7 10  1  0
  6 11  2  0
 11 12  1  0
 12 13  1  0
 13 14  1  0
 14 15  1  0
 15 16  2  0
 16 17  1  0
 17 18  1  0
 18 19  1  0
 19 20  1  0
 20 21  1  0
 21 22  1  0
 21 23  1  0
 19 24  1  0
 19 25  1  0
 18 26  1  0
 17 27  2  0
 27 28  1  0
 28 29  1  0
 29 30  2  0
 30 31  1  0
 31 32  2  0
 32 33  1  0
 33 34  2  0
 34 35  1  0
 32 36  1  0
 31 37  1  0
 30 38  1  0
 14 39  1  0
 14 40  1  0
 13 41  1  0
 13 42  1  0
  5 43  1  0
  4 44  1  0
  3 45  1  0
  1 46  1  0
  1 47  1  0
  1 48  1  0
 11  2  1  0
 28 15  1  0
 34 29  1  0
 21 18  1  0
M  END
>  <cnnaffinity>  (1) 
-5.83821

>  <filename>  (1) 
Cc1cccc(C)c1OCCc1nc(C2CSC2)nn1-c1cccnc1

$$$$
