
     RDKit          3D

 41 45  0  0  0  0  0  0  0  0999 V2000
    5.9698   -4.3205   23.4989 C   0  0  0  0  0  0  0  0  0  0  0  0
    6.6309   -4.7475   22.1614 C   0  0  0  0  0  0  0  0  0  0  0  0
    6.4951   -6.1344   21.8626 C   0  0  0  0  0  0  0  0  0  0  0  0
    6.8431   -6.3462   21.8799 C   0  0  0  0  0  0  0  0  0  0  0  0
    7.6970   -4.0077   21.6130 N   0  0  0  0  0  0  0  0  0  0  0  0
    6.5816   -3.8098   20.9206 N   0  0  0  0  0  0  0  0  0  0  0  0
    5.9692   -2.4791   21.0266 C   0  0  0  0  0  0  0  0  0  0  0  0
    6.8595   -1.3776   21.5462 C   0  0  0  0  0  0  0  0  0  0  0  0
    7.4224   -1.4441   22.7244 N   0  0  0  0  0  0  0  0  0  0  0  0
    8.3841   -0.4878   22.6845 C   0  0  0  0  0  0  0  0  0  0  0  0
    9.3549   -0.4603   23.7952 C   0  0  0  0  0  0  0  0  0  0  0  0
   10.2716   -1.6780   23.9263 C   0  0  0  0  0  0  0  0  0  0  0  0
   10.8033   -0.3361   23.4982 C   0  0  0  0  0  0  0  0  0  0  0  0
   11.5283    0.3359   22.3968 C   0  0  0  0  0  0  0  0  0  0  0  0
   11.8918    0.5976   23.8645 C   0  0  0  0  0  0  0  0  0  0  0  0
   12.8206    0.1648   24.2334 H   0  0  0  0  0  0  0  0  0  0  0  0
   11.6050    1.5439   24.3235 H   0  0  0  0  0  0  0  0  0  0  0  0
   10.9402    1.0777   21.8541 H   0  0  0  0  0  0  0  0  0  0  0  0
   12.2075   -0.2634   21.7933 H   0  0  0  0  0  0  0  0  0  0  0  0
   10.5001   -2.0369   24.9242 H   0  0  0  0  0  0  0  0  0  0  0  0
   10.1986   -2.4557   23.1644 H   0  0  0  0  0  0  0  0  0  0  0  0
    8.9778   -0.0076   24.7096 H   0  0  0  0  0  0  0  0  0  0  0  0
    8.3839    0.2404   21.5799 N   0  0  0  0  0  0  0  0  0  0  0  0
    7.3538   -0.3008   20.8695 N   0  0  0  0  0  0  0  0  0  0  0  0
    6.9088    0.2934   19.6603 C   0  0  0  0  0  0  0  0  0  0  0  0
    5.5606    0.6229   19.4777 C   0  0  0  0  0  0  0  0  0  0  0  0
    5.1832    1.1721   18.2499 C   0  0  0  0  0  0  0  0  0  0  0  0
    6.1597    1.3775   17.2719 C   0  0  0  0  0  0  0  0  0  0  0  0
    7.4560    1.0726   17.4526 N   0  0  0  0  0  0  0  0  0  0  0  0
    7.8255    0.5684   18.6341 C   0  0  0  0  0  0  0  0  0  0  0  0
    8.8828    0.3469   18.7691 H   0  0  0  0  0  0  0  0  0  0  0  0
    5.8984    1.8052   16.3069 H   0  0  0  0  0  0  0  0  0  0  0  0
    4.1555    1.4524   18.0539 H   0  0  0  0  0  0  0  0  0  0  0  0
    4.8448    0.4936   20.2916 H   0  0  0  0  0  0  0  0  0  0  0  0
    5.5991   -2.2481   20.0237 H   0  0  0  0  0  0  0  0  0  0  0  0
    5.0874   -2.5176   21.6841 H   0  0  0  0  0  0  0  0  0  0  0  0
    6.5008   -6.5619   20.7538 H   0  0  0  0  0  0  0  0  0  0  0  0
    7.8538   -6.7052   22.1335 H   0  0  0  0  0  0  0  0  0  0  0  0
    6.3221   -4.9322   24.3410 H   0  0  0  0  0  0  0  0  0  0  0  0
    4.8860   -4.4782   23.4214 H   0  0  0  0  0  0  0  0  0  0  0  0
    6.1891   -3.2698   23.7042 H   0  0  0  0  0  0  0  0  0  0  0  0
  1  2  1  0
  2  3  2  0
  3  4  1  0
  4  5  2  0
  5  6  1  0
  6  7  1  0
  7  8  1  0
  8  9  2  0
  9 10  1  0
 10 11  1  0
 11 12  1  0
 12 13  1  0
 13 14  1  0
 14 15  1  0
 15 16  1  0
 15 17  1  0
 14 18  1  0
 14 19  1  0
 12 20  1  0
 12 21  1  0
 11 22  1  0
 10 23  2  0
 23 24  1  0
 24 25  1  0
 25 26  2  0
 26 27  1  0
 27 28  2  0
 28 29  1  0
 29 30  2  0
 30 31  1  0
 28 32  1  0
 27 33  1  0
 26 34  1  0
  7 35  1  0
  7 36  1  0
  4 37  1  0
  3 38  1  0
  1 39  1  0
  1 40  1  0
  1 41  1  0
  6  2  1  0
 24  8  1  0
 30 25  1  0
 13 11  1  0
 15 13  1  0
M  END
>  <cnnaffinity>  (1) 
-6.25281

>  <filename>  (1) 
Cc1ccnn1Cc1nc(C2CC23CC3)nn1-c1cccnc1

$$$$
