
     RDKit          3D

 49 52  0  0  0  0  0  0  0  0999 V2000
   11.1889    2.7609   23.3709 C   0  0  0  0  0  0  0  0  0  0  0  0
    9.7809    2.4058   23.8169 C   0  0  0  0  0  0  0  0  0  0  0  0
    9.4548    2.3085   25.1752 C   0  0  0  0  0  0  0  0  0  0  0  0
    8.1377    2.0463   25.5629 C   0  0  0  0  0  0  0  0  0  0  0  0
    7.1819    1.8151   24.5748 C   0  0  0  0  0  0  0  0  0  0  0  0
    7.4677    1.8691   23.2679 N   0  0  0  0  0  0  0  0  0  0  0  0
    8.7353    2.1304   22.8952 C   0  0  0  0  0  0  0  0  0  0  0  0
    9.0050    2.0197   21.4049 C   0  0  0  0  0  0  0  0  0  0  0  0
    9.5215    0.6178   20.9542 C   0  0  0  0  0  0  0  0  0  0  0  0
    8.6461   -0.5279   21.3638 C   0  0  0  0  0  0  0  0  0  0  0  0
    8.8967   -1.3863   22.3326 N   0  0  0  0  0  0  0  0  0  0  0  0
    7.6816   -1.9558   22.5673 C   0  0  0  0  0  0  0  0  0  0  0  0
    7.3908   -2.8733   23.7392 C   0  0  0  0  0  0  0  0  0  0  0  0
    7.0479   -2.0889   25.0502 C   0  0  0  0  0  0  0  0  0  0  0  0
    8.3145   -1.5664   25.7405 C   0  0  0  0  0  0  0  0  0  0  0  0
    9.2129   -2.6286   26.0136 O   0  0  0  0  0  0  0  0  0  0  0  0
    9.6918   -3.2434   24.8278 C   0  0  0  0  0  0  0  0  0  0  0  0
    8.5452   -3.8725   24.0177 C   0  0  0  0  0  0  0  0  0  0  0  0
    8.9442   -4.2617   23.0735 H   0  0  0  0  0  0  0  0  0  0  0  0
    8.1459   -4.7215   24.5902 H   0  0  0  0  0  0  0  0  0  0  0  0
   10.3994   -4.0104   25.1593 H   0  0  0  0  0  0  0  0  0  0  0  0
   10.2385   -2.5115   24.2123 H   0  0  0  0  0  0  0  0  0  0  0  0
    8.8088   -0.8020   25.1122 H   0  0  0  0  0  0  0  0  0  0  0  0
    8.0860   -1.1139   26.7126 H   0  0  0  0  0  0  0  0  0  0  0  0
    6.5332   -2.7656   25.7467 H   0  0  0  0  0  0  0  0  0  0  0  0
    6.3635   -1.2547   24.8421 H   0  0  0  0  0  0  0  0  0  0  0  0
    6.4936   -3.4156   23.4180 H   0  0  0  0  0  0  0  0  0  0  0  0
    6.7271   -1.5633   21.7516 N   0  0  0  0  0  0  0  0  0  0  0  0
    7.3577   -0.6640   20.9460 N   0  0  0  0  0  0  0  0  0  0  0  0
    6.6629    0.0002   19.8989 C   0  0  0  0  0  0  0  0  0  0  0  0
    5.4486    0.6445   20.1581 C   0  0  0  0  0  0  0  0  0  0  0  0
    4.8102    1.3121   19.1088 C   0  0  0  0  0  0  0  0  0  0  0  0
    5.4025    1.2959   17.8393 C   0  0  0  0  0  0  0  0  0  0  0  0
    6.5566    0.6650   17.5783 N   0  0  0  0  0  0  0  0  0  0  0  0
    7.1712    0.0412   18.5881 C   0  0  0  0  0  0  0  0  0  0  0  0
    8.1119   -0.4535   18.3478 H   0  0  0  0  0  0  0  0  0  0  0  0
    4.9356    1.8068   17.0002 H   0  0  0  0  0  0  0  0  0  0  0  0
    3.8749    1.8442   19.2568 H   0  0  0  0  0  0  0  0  0  0  0  0
    5.0300    0.6009   21.1632 H   0  0  0  0  0  0  0  0  0  0  0  0
   10.5223    0.4234   21.3587 H   0  0  0  0  0  0  0  0  0  0  0  0
    9.5925    0.6004   19.8652 H   0  0  0  0  0  0  0  0  0  0  0  0
    8.0727    2.2481   20.8792 H   0  0  0  0  0  0  0  0  0  0  0  0
    9.7431    2.7702   21.1074 H   0  0  0  0  0  0  0  0  0  0  0  0
    6.1542    1.5421   24.8238 H   0  0  0  0  0  0  0  0  0  0  0  0
    7.8623    2.0029   26.6114 H   0  0  0  0  0  0  0  0  0  0  0  0
   10.2325    2.3784   25.9295 H   0  0  0  0  0  0  0  0  0  0  0  0
   11.6182    1.9697   22.7418 H   0  0  0  0  0  0  0  0  0  0  0  0
   11.8469    2.8841   24.2365 H   0  0  0  0  0  0  0  0  0  0  0  0
   11.2219    3.6922   22.7865 H   0  0  0  0  0  0  0  0  0  0  0  0
  1  2  1  0
  2  3  2  0
  3  4  1  0
  4  5  2  0
  5  6  1  0
  6  7  2  0
  7  8  1  0
  8  9  1  0
  9 10  1  0
 10 11  2  0
 11 12  1  0
 12 13  1  0
 13 14  1  0
 14 15  1  0
 15 16  1  0
 16 17  1  0
 17 18  1  0
 18 19  1  0
 18 20  1  0
 17 21  1  0
 17 22  1  0
 15 23  1  0
 15 24  1  0
 14 25  1  0
 14 26  1  0
 13 27  1  0
 12 28  2  0
 28 29  1  0
 29 30  1  0
 30 31  2  0
 31 32  1  0
 32 33  2  0
 33 34  1  0
 34 35  2  0
 35 36  1  0
 33 37  1  0
 32 38  1  0
 31 39  1  0
  9 40  1  0
  9 41  1  0
  8 42  1  0
  8 43  1  0
  5 44  1  0
  4 45  1  0
  3 46  1  0
  1 47  1  0
  1 48  1  0
  1 49  1  0
  7  2  1  0
 29 10  1  0
 35 30  1  0
 18 13  1  0
M  END
>  <cnnaffinity>  (1) 
-6.17138

>  <filename>  (1) 
Cc1cccnc1CCc1nc(C2CCOCC2)nn1-c1cccnc1

$$$$
