
     RDKit          3D

 46 49  0  0  0  0  0  0  0  0999 V2000
    6.7509   -6.0541   26.6035 C   0  0  0  0  0  0  0  0  0  0  0  0
    7.0022   -5.0240   25.5304 C   0  0  0  0  0  0  0  0  0  0  0  0
    6.0050   -4.7085   24.5962 C   0  0  0  0  0  0  0  0  0  0  0  0
    6.2134   -3.7404   23.6189 C   0  0  0  0  0  0  0  0  0  0  0  0
    7.4445   -3.0582   23.5504 C   0  0  0  0  0  0  0  0  0  0  0  0
    7.6643   -2.0393   22.5016 C   0  0  0  0  0  0  0  0  0  0  0  0
    6.7195   -1.6327   21.6662 N   0  0  0  0  0  0  0  0  0  0  0  0
    7.3474   -0.6934   20.9204 N   0  0  0  0  0  0  0  0  0  0  0  0
    6.6518    0.0027   19.8971 C   0  0  0  0  0  0  0  0  0  0  0  0
    5.4381    0.6425   20.1680 C   0  0  0  0  0  0  0  0  0  0  0  0
    4.8129    1.3105   19.1084 C   0  0  0  0  0  0  0  0  0  0  0  0
    5.3996    1.2978   17.8359 C   0  0  0  0  0  0  0  0  0  0  0  0
    6.5554    0.6706   17.5699 N   0  0  0  0  0  0  0  0  0  0  0  0
    7.1619    0.0487   18.5871 C   0  0  0  0  0  0  0  0  0  0  0  0
    8.1072   -0.4371   18.3619 H   0  0  0  0  0  0  0  0  0  0  0  0
    4.9222    1.7902   16.9919 H   0  0  0  0  0  0  0  0  0  0  0  0
    3.8806    1.8390   19.2589 H   0  0  0  0  0  0  0  0  0  0  0  0
    5.0145    0.6076   21.1776 H   0  0  0  0  0  0  0  0  0  0  0  0
    8.6245   -0.5413   21.3891 C   0  0  0  0  0  0  0  0  0  0  0  0
    9.5558    0.5494   20.9892 C   0  0  0  0  0  0  0  0  0  0  0  0
    9.4839    1.8033   21.9146 C   0  0  0  0  0  0  0  0  0  0  0  0
    8.1495    2.5253   21.7892 C   0  0  0  0  0  0  0  0  0  0  0  0
    7.3095    1.9142   22.1324 H   0  0  0  0  0  0  0  0  0  0  0  0
    8.1510    3.4734   22.3376 H   0  0  0  0  0  0  0  0  0  0  0  0
    7.9729    2.7026   20.7364 H   0  0  0  0  0  0  0  0  0  0  0  0
    9.7973    1.4900   23.3124 N   0  0  0  0  0  0  0  0  0  0  0  0
   11.0379    1.2737   23.8183 C   0  0  0  0  0  0  0  0  0  0  0  0
   10.8692    0.8210   25.1067 C   0  0  0  0  0  0  0  0  0  0  0  0
    9.4635    0.7789   25.2826 C   0  0  0  0  0  0  0  0  0  0  0  0
    8.8319    1.1933   24.1950 N   0  0  0  0  0  0  0  0  0  0  0  0
    8.8774    0.4707   26.1428 H   0  0  0  0  0  0  0  0  0  0  0  0
   11.6302    0.5731   25.8305 H   0  0  0  0  0  0  0  0  0  0  0  0
   11.9136    1.4556   23.2043 H   0  0  0  0  0  0  0  0  0  0  0  0
   10.2853    2.4751   21.5871 H   0  0  0  0  0  0  0  0  0  0  0  0
   10.5649    0.1383   21.0120 H   0  0  0  0  0  0  0  0  0  0  0  0
    9.3587    0.8446   19.9563 H   0  0  0  0  0  0  0  0  0  0  0  0
    8.8635   -1.4236   22.3288 N   0  0  0  0  0  0  0  0  0  0  0  0
    8.4514   -3.3631   24.4890 C   0  0  0  0  0  0  0  0  0  0  0  0
    8.2238   -4.3370   25.4608 C   0  0  0  0  0  0  0  0  0  0  0  0
    8.9977   -4.5748   26.1873 H   0  0  0  0  0  0  0  0  0  0  0  0
    9.4064   -2.8397   24.4580 H   0  0  0  0  0  0  0  0  0  0  0  0
    5.4259   -3.4949   22.9092 H   0  0  0  0  0  0  0  0  0  0  0  0
    5.0508   -5.2261   24.6496 H   0  0  0  0  0  0  0  0  0  0  0  0
    7.6723   -6.5552   26.9140 H   0  0  0  0  0  0  0  0  0  0  0  0
    6.0469   -6.8264   26.2775 H   0  0  0  0  0  0  0  0  0  0  0  0
    6.3229   -5.5960   27.5015 H   0  0  0  0  0  0  0  0  0  0  0  0
  1  2  1  0
  2  3  2  0
  3  4  1  0
  4  5  2  0
  5  6  1  0
  6  7  2  0
  7  8  1  0
  8  9  1  0
  9 10  2  0
 10 11  1  0
 11 12  2  0
 12 13  1  0
 13 14  2  0
 14 15  1  0
 12 16  1  0
 11 17  1  0
 10 18  1  0
  8 19  1  0
 19 20  1  0
 20 21  1  0
 21 22  1  0
 22 23  1  0
 22 24  1  0
 22 25  1  0
 21 26  1  0
 26 27  1  0
 27 28  2  0
 28 29  1  0
 29 30  2  0
 29 31  1  0
 28 32  1  0
 27 33  1  0
 21 34  1  0
 20 35  1  0
 20 36  1  0
 19 37  2  0
  5 38  1  0
 38 39  2  0
 39 40  1  0
 38 41  1  0
  4 42  1  0
  3 43  1  0
  1 44  1  0
  1 45  1  0
  1 46  1  0
 39  2  1  0
 37  6  1  0
 14  9  1  0
 30 26  1  0
M  END
>  <cnnaffinity>  (1) 
-5.96395

>  <filename>  (1) 
Cc1ccc(-c2nc(CC(C)n3cccn3)n(-c3cccnc3)n2)cc1

$$$$
