
     RDKit          3D

 34 36  0  0  0  0  0  0  0  0999 V2000
    5.0369    1.8625   16.8714 H   0  0  0  0  0  0  0  0  0  0  0  0
    5.4589    1.3209   17.7153 C   0  0  0  0  0  0  0  0  0  0  0  0
    6.5928    0.6443   17.4698 N   0  0  0  0  0  0  0  0  0  0  0  0
    7.1465   -0.0011   18.5026 C   0  0  0  0  0  0  0  0  0  0  0  0
    8.0746   -0.5311   18.2900 H   0  0  0  0  0  0  0  0  0  0  0  0
    6.6176   -0.0395   19.8089 C   0  0  0  0  0  0  0  0  0  0  0  0
    7.3706   -0.7226   20.8940 C   0  0  0  0  0  0  0  0  0  0  0  0
    6.7381   -1.5835   21.8396 C   0  0  0  0  0  0  0  0  0  0  0  0
    5.6614   -1.7269   21.7729 H   0  0  0  0  0  0  0  0  0  0  0  0
    7.4747   -2.2132   22.7965 C   0  0  0  0  0  0  0  0  0  0  0  0
    7.0590   -2.8683   23.5435 H   0  0  0  0  0  0  0  0  0  0  0  0
    8.9130   -2.0246   22.9280 C   0  0  0  0  0  0  0  0  0  0  0  0
    9.5849   -2.6404   23.7374 O   0  0  0  0  0  0  0  0  0  0  0  0
    9.4590   -1.0439   22.0523 N   0  0  0  0  0  0  0  0  0  0  0  0
   10.8068   -0.5790   22.2218 C   0  0  0  0  0  0  0  0  0  0  0  0
   11.0310    0.7911   22.4169 C   0  0  0  0  0  0  0  0  0  0  0  0
   10.1720    1.4367   22.5714 H   0  0  0  0  0  0  0  0  0  0  0  0
   12.3332    1.2927   22.3874 C   0  0  0  0  0  0  0  0  0  0  0  0
   12.5099    2.3603   22.4978 H   0  0  0  0  0  0  0  0  0  0  0  0
   13.4032    0.4178   22.2069 C   0  0  0  0  0  0  0  0  0  0  0  0
   14.4260    0.7858   22.1667 H   0  0  0  0  0  0  0  0  0  0  0  0
   13.1786   -0.9587   22.0436 C   0  0  0  0  0  0  0  0  0  0  0  0
   14.3512   -1.8562   21.8168 C   0  0  0  0  0  0  0  0  0  0  0  0
   15.1039   -1.6395   22.5796 H   0  0  0  0  0  0  0  0  0  0  0  0
   14.1020   -2.9162   21.8851 H   0  0  0  0  0  0  0  0  0  0  0  0
   14.7920   -1.6912   20.8266 H   0  0  0  0  0  0  0  0  0  0  0  0
   11.8775   -1.4645   22.0945 C   0  0  0  0  0  0  0  0  0  0  0  0
   11.6972   -2.5335   22.0324 H   0  0  0  0  0  0  0  0  0  0  0  0
    8.7098   -0.4935   21.0370 C   0  0  0  0  0  0  0  0  0  0  0  0
    9.2535    0.1767   20.3802 H   0  0  0  0  0  0  0  0  0  0  0  0
    5.4091    0.6434   20.0310 C   0  0  0  0  0  0  0  0  0  0  0  0
    4.9494    0.6526   21.0220 H   0  0  0  0  0  0  0  0  0  0  0  0
    4.8318    1.3448   18.9675 C   0  0  0  0  0  0  0  0  0  0  0  0
    3.9216    1.9209   19.0919 H   0  0  0  0  0  0  0  0  0  0  0  0
  1  2  1  0
  2  3  2  0
  3  4  1  0
  4  5  1  0
  4  6  2  0
  6  7  1  0
  7  8  1  0
  8  9  1  0
  8 10  2  0
 10 11  1  0
 10 12  1  0
 12 13  2  0
 12 14  1  0
 14 15  1  0
 15 16  2  0
 16 17  1  0
 16 18  1  0
 18 19  1  0
 18 20  2  0
 20 21  1  0
 20 22  1  0
 22 23  1  0
 23 24  1  0
 23 25  1  0
 23 26  1  0
 22 27  2  0
 27 28  1  0
 14 29  1  0
 29 30  1  0
  6 31  1  0
 31 32  1  0
 31 33  2  0
 33 34  1  0
 33  2  1  0
 29  7  2  0
 27 15  1  0
M  END
>  <cnnaffinity>  (1) 
-5.60549

>  <filename>  (1) 
Cc1cccc(-n2cc(-c3cccnc3)ccc2=O)c1

$$$$
