
     RDKit          3D

 44 47  0  0  0  0  0  0  0  0999 V2000
   12.3944   -1.3367   21.4123 C   0  0  0  0  0  0  0  0  0  0  0  0
   11.9088   -0.0153   21.9421 C   0  0  0  0  0  0  0  0  0  0  0  0
   10.7537    0.6168   21.6026 C   0  0  0  0  0  0  0  0  0  0  0  0
    9.6475    0.2328   20.6883 C   0  0  0  0  0  0  0  0  0  0  0  0
    8.6127   -0.5869   21.3677 C   0  0  0  0  0  0  0  0  0  0  0  0
    8.8495   -1.4466   22.3325 N   0  0  0  0  0  0  0  0  0  0  0  0
    7.6266   -2.0012   22.5558 C   0  0  0  0  0  0  0  0  0  0  0  0
    7.3899   -2.9713   23.6668 C   0  0  0  0  0  0  0  0  0  0  0  0
    7.5476   -2.2774   25.0551 C   0  0  0  0  0  0  0  0  0  0  0  0
    7.5432   -3.2732   26.1919 C   0  0  0  0  0  0  0  0  0  0  0  0
    7.7717   -4.5794   26.0271 C   0  0  0  0  0  0  0  0  0  0  0  0
    7.9890   -5.2244   24.6752 C   0  0  0  0  0  0  0  0  0  0  0  0
    8.3359   -4.1966   23.5815 C   0  0  0  0  0  0  0  0  0  0  0  0
    9.3756   -3.8493   23.6958 H   0  0  0  0  0  0  0  0  0  0  0  0
    8.2673   -4.6663   22.5926 H   0  0  0  0  0  0  0  0  0  0  0  0
    7.0738   -5.7727   24.3943 H   0  0  0  0  0  0  0  0  0  0  0  0
    8.7763   -5.9861   24.7521 H   0  0  0  0  0  0  0  0  0  0  0  0
    7.7774   -5.2415   26.8939 H   0  0  0  0  0  0  0  0  0  0  0  0
    7.3676   -2.8719   27.1911 H   0  0  0  0  0  0  0  0  0  0  0  0
    6.7470   -1.5402   25.2109 H   0  0  0  0  0  0  0  0  0  0  0  0
    8.4909   -1.7030   25.0818 H   0  0  0  0  0  0  0  0  0  0  0  0
    6.3461   -3.3016   23.5497 H   0  0  0  0  0  0  0  0  0  0  0  0
    6.6719   -1.5715   21.7549 N   0  0  0  0  0  0  0  0  0  0  0  0
    7.3168   -0.6784   20.9605 N   0  0  0  0  0  0  0  0  0  0  0  0
    6.6429   -0.0076   19.9013 C   0  0  0  0  0  0  0  0  0  0  0  0
    5.4315    0.6411   20.1542 C   0  0  0  0  0  0  0  0  0  0  0  0
    4.8030    1.3135   19.1035 C   0  0  0  0  0  0  0  0  0  0  0  0
    5.3967    1.2954   17.8353 C   0  0  0  0  0  0  0  0  0  0  0  0
    6.5517    0.6627   17.5789 N   0  0  0  0  0  0  0  0  0  0  0  0
    7.1586    0.0348   18.5922 C   0  0  0  0  0  0  0  0  0  0  0  0
    8.1057   -0.4471   18.3493 H   0  0  0  0  0  0  0  0  0  0  0  0
    4.9324    1.8044   16.9932 H   0  0  0  0  0  0  0  0  0  0  0  0
    3.8709    1.8499   19.2523 H   0  0  0  0  0  0  0  0  0  0  0  0
    5.0130    0.6031   21.1588 H   0  0  0  0  0  0  0  0  0  0  0  0
   10.0352   -0.4145   19.8946 H   0  0  0  0  0  0  0  0  0  0  0  0
    9.1898    1.1143   20.2415 H   0  0  0  0  0  0  0  0  0  0  0  0
   10.5933    1.7490   22.3272 O   0  0  0  0  0  0  0  0  0  0  0  0
   11.6687    1.8538   23.1507 C   0  0  0  0  0  0  0  0  0  0  0  0
   12.5079    0.8066   22.9650 C   0  0  0  0  0  0  0  0  0  0  0  0
   13.4353    0.6163   23.4995 H   0  0  0  0  0  0  0  0  0  0  0  0
   11.6690    2.7243   23.7954 H   0  0  0  0  0  0  0  0  0  0  0  0
   11.5902   -2.0817   21.4761 H   0  0  0  0  0  0  0  0  0  0  0  0
   12.7175   -1.2894   20.3637 H   0  0  0  0  0  0  0  0  0  0  0  0
   13.2412   -1.7025   21.9981 H   0  0  0  0  0  0  0  0  0  0  0  0
  1  2  1  0
  2  3  2  0
  3  4  1  0
  4  5  1  0
  5  6  2  0
  6  7  1  0
  7  8  1  0
  8  9  1  0
  9 10  1  0
 10 11  2  0
 11 12  1  0
 12 13  1  0
 13 14  1  0
 13 15  1  0
 12 16  1  0
 12 17  1  0
 11 18  1  0
 10 19  1  0
  9 20  1  0
  9 21  1  0
  8 22  1  0
  7 23  2  0
 23 24  1  0
 24 25  1  0
 25 26  2  0
 26 27  1  0
 27 28  2  0
 28 29  1  0
 29 30  2  0
 30 31  1  0
 28 32  1  0
 27 33  1  0
 26 34  1  0
  4 35  1  0
  4 36  1  0
  3 37  1  0
 37 38  1  0
 38 39  2  0
 39 40  1  0
 38 41  1  0
  1 42  1  0
  1 43  1  0
  1 44  1  0
 39  2  1  0
 24  5  1  0
 30 25  1  0
 13  8  1  0
M  END
>  <cnnaffinity>  (1) 
-6.5706

>  <filename>  (1) 
Cc1ccoc1Cc1nc(C2CC=CCC2)nn1-c1cccnc1

$$$$
