
     RDKit          3D

 43 46  0  0  0  0  0  0  0  0999 V2000
    8.0532   -0.1628   27.5456 C   0  0  0  0  0  0  0  0  0  0  0  0
    7.2687    0.3105   26.3607 C   0  0  0  0  0  0  0  0  0  0  0  0
    7.5993    1.2103   25.3745 C   0  0  0  0  0  0  0  0  0  0  0  0
    6.6151    1.0639   24.3731 C   0  0  0  0  0  0  0  0  0  0  0  0
    6.6740    1.5954   22.9705 C   0  0  0  0  0  0  0  0  0  0  0  0
    7.7643    0.8588   22.2608 C   0  0  0  0  0  0  0  0  0  0  0  0
    9.0319    1.1565   22.4274 N   0  0  0  0  0  0  0  0  0  0  0  0
    9.6838    0.0343   22.0090 C   0  0  0  0  0  0  0  0  0  0  0  0
   11.1632   -0.0526   22.1527 C   0  0  0  0  0  0  0  0  0  0  0  0
   11.9237   -1.1387   21.6683 C   0  0  0  0  0  0  0  0  0  0  0  0
   13.3016   -1.1247   21.8712 C   0  0  0  0  0  0  0  0  0  0  0  0
   14.0299   -2.1420   21.3943 F   0  0  0  0  0  0  0  0  0  0  0  0
   13.9646   -0.0968   22.5405 C   0  0  0  0  0  0  0  0  0  0  0  0
   13.1840    0.9535   23.0094 C   0  0  0  0  0  0  0  0  0  0  0  0
   13.7674    1.9602   23.6672 F   0  0  0  0  0  0  0  0  0  0  0  0
   11.8120    0.9997   22.8306 C   0  0  0  0  0  0  0  0  0  0  0  0
   11.2560    1.8499   23.2154 H   0  0  0  0  0  0  0  0  0  0  0  0
   15.0340   -0.0952   22.6770 H   0  0  0  0  0  0  0  0  0  0  0  0
   11.4797   -1.9763   21.1355 H   0  0  0  0  0  0  0  0  0  0  0  0
    8.8822   -0.9033   21.5304 N   0  0  0  0  0  0  0  0  0  0  0  0
    7.6459   -0.3575   21.6894 N   0  0  0  0  0  0  0  0  0  0  0  0
    6.4654   -0.9210   21.0329 C   0  0  0  0  0  0  0  0  0  0  0  0
    6.0182   -0.1041   19.8331 C   0  0  0  0  0  0  0  0  0  0  0  0
    4.8273    0.6322   19.7822 C   0  0  0  0  0  0  0  0  0  0  0  0
    4.5794    1.4338   18.6622 C   0  0  0  0  0  0  0  0  0  0  0  0
    5.5110    1.4383   17.6205 C   0  0  0  0  0  0  0  0  0  0  0  0
    6.6440    0.7203   17.6374 N   0  0  0  0  0  0  0  0  0  0  0  0
    6.8815   -0.0144   18.7295 C   0  0  0  0  0  0  0  0  0  0  0  0
    7.8122   -0.5812   18.7358 H   0  0  0  0  0  0  0  0  0  0  0  0
    5.3419    2.0359   16.7263 H   0  0  0  0  0  0  0  0  0  0  0  0
    3.6976    2.0626   18.5896 H   0  0  0  0  0  0  0  0  0  0  0  0
    4.1006    0.5899   20.5973 H   0  0  0  0  0  0  0  0  0  0  0  0
    5.6673   -0.9836   21.7751 H   0  0  0  0  0  0  0  0  0  0  0  0
    6.7353   -1.9437   20.7512 H   0  0  0  0  0  0  0  0  0  0  0  0
    6.9530    2.6479   22.9821 H   0  0  0  0  0  0  0  0  0  0  0  0
    5.7144    1.4852   22.4646 H   0  0  0  0  0  0  0  0  0  0  0  0
    5.6939    0.1912   24.7377 N   0  0  0  0  0  0  0  0  0  0  0  0
    6.0981   -0.2382   25.9496 N   0  0  0  0  0  0  0  0  0  0  0  0
    5.5629   -0.9527   26.4173 H   0  0  0  0  0  0  0  0  0  0  0  0
    8.4866    1.8216   25.2924 H   0  0  0  0  0  0  0  0  0  0  0  0
    7.8672    0.4271   28.4475 H   0  0  0  0  0  0  0  0  0  0  0  0
    9.1175   -0.0762   27.3103 H   0  0  0  0  0  0  0  0  0  0  0  0
    7.8507   -1.2157   27.7681 H   0  0  0  0  0  0  0  0  0  0  0  0
  1  2  1  0
  2  3  2  0
  3  4  1  0
  4  5  1  0
  5  6  1  0
  6  7  2  0
  7  8  1  0
  8  9  1  0
  9 10  2  0
 10 11  1  0
 11 12  1  0
 11 13  2  0
 13 14  1  0
 14 15  1  0
 14 16  2  0
 16 17  1  0
 13 18  1  0
 10 19  1  0
  8 20  2  0
 20 21  1  0
 21 22  1  0
 22 23  1  0
 23 24  2  0
 24 25  1  0
 25 26  2  0
 26 27  1  0
 27 28  2  0
 28 29  1  0
 26 30  1  0
 25 31  1  0
 24 32  1  0
 22 33  1  0
 22 34  1  0
  5 35  1  0
  5 36  1  0
  4 37  2  0
 37 38  1  0
 38 39  1  0
  3 40  1  0
  1 41  1  0
  1 42  1  0
  1 43  1  0
 38  2  1  0
 21  6  1  0
 28 23  1  0
 16  9  1  0
M  END
>  <cnnaffinity>  (1) 
-6.46545

>  <filename>  (1) 
Cc1cc(Cc2nc(-c3cc(F)cc(F)c3)nn2Cc2cccnc2)n[nH]1

$$$$
