
     RDKit          3D

 43 46  0  0  0  0  0  0  0  0999 V2000
    7.5724    0.0005   27.6238 C   0  0  0  0  0  0  0  0  0  0  0  0
    6.7482    0.3759   26.4269 C   0  0  0  0  0  0  0  0  0  0  0  0
    7.2784    1.1047   25.4572 N   0  0  0  0  0  0  0  0  0  0  0  0
    6.3520    1.1777   24.4907 N   0  0  0  0  0  0  0  0  0  0  0  0
    6.7019    1.8131   23.2237 C   0  0  0  0  0  0  0  0  0  0  0  0
    7.7942    1.0602   22.5221 C   0  0  0  0  0  0  0  0  0  0  0  0
    9.0847    1.2732   22.6674 N   0  0  0  0  0  0  0  0  0  0  0  0
    9.6576    0.1769   22.0998 C   0  0  0  0  0  0  0  0  0  0  0  0
   11.1160   -0.0941   22.1538 C   0  0  0  0  0  0  0  0  0  0  0  0
   11.9962    0.8529   22.7262 C   0  0  0  0  0  0  0  0  0  0  0  0
   13.3604    0.5662   22.8453 C   0  0  0  0  0  0  0  0  0  0  0  0
   13.8545   -0.6727   22.4245 C   0  0  0  0  0  0  0  0  0  0  0  0
   12.9880   -1.6139   21.8592 C   0  0  0  0  0  0  0  0  0  0  0  0
   11.6311   -1.3289   21.7027 C   0  0  0  0  0  0  0  0  0  0  0  0
   10.9602   -2.0666   21.2552 H   0  0  0  0  0  0  0  0  0  0  0  0
   13.3840   -2.5820   21.5722 H   0  0  0  0  0  0  0  0  0  0  0  0
   14.9097   -0.9020   22.5354 H   0  0  0  0  0  0  0  0  0  0  0  0
   14.0377    1.3010   23.2739 H   0  0  0  0  0  0  0  0  0  0  0  0
   11.5960    1.7966   23.0957 H   0  0  0  0  0  0  0  0  0  0  0  0
    8.7794   -0.6506   21.5481 N   0  0  0  0  0  0  0  0  0  0  0  0
    7.5859   -0.0769   21.8173 N   0  0  0  0  0  0  0  0  0  0  0  0
    6.3747   -0.5673   21.1658 C   0  0  0  0  0  0  0  0  0  0  0  0
    6.0323    0.1496   19.8674 C   0  0  0  0  0  0  0  0  0  0  0  0
    4.8552    0.8920   19.7225 C   0  0  0  0  0  0  0  0  0  0  0  0
    4.6482    1.6140   18.5447 C   0  0  0  0  0  0  0  0  0  0  0  0
    5.6206    1.5602   17.5443 C   0  0  0  0  0  0  0  0  0  0  0  0
    6.7331    0.8134   17.6395 N   0  0  0  0  0  0  0  0  0  0  0  0
    6.9239    0.1331   18.7783 C   0  0  0  0  0  0  0  0  0  0  0  0
    7.8382   -0.4622   18.8278 H   0  0  0  0  0  0  0  0  0  0  0  0
    5.5089    2.1521   16.6351 H   0  0  0  0  0  0  0  0  0  0  0  0
    3.7743    2.2428   18.4108 H   0  0  0  0  0  0  0  0  0  0  0  0
    4.1174    0.9156   20.5273 H   0  0  0  0  0  0  0  0  0  0  0  0
    6.5364   -1.6394   21.0046 H   0  0  0  0  0  0  0  0  0  0  0  0
    5.5578   -0.4491   21.8815 H   0  0  0  0  0  0  0  0  0  0  0  0
    5.8018    1.8997   22.6074 H   0  0  0  0  0  0  0  0  0  0  0  0
    7.0699    2.8161   23.4419 H   0  0  0  0  0  0  0  0  0  0  0  0
    5.2168    0.5215   24.8425 C   0  0  0  0  0  0  0  0  0  0  0  0
    5.4352   -0.0165   26.0906 C   0  0  0  0  0  0  0  0  0  0  0  0
    4.7738   -0.6313   26.6893 H   0  0  0  0  0  0  0  0  0  0  0  0
    4.3511    0.5189   24.1935 H   0  0  0  0  0  0  0  0  0  0  0  0
    7.7979   -1.0712   27.5911 H   0  0  0  0  0  0  0  0  0  0  0  0
    7.0522    0.1969   28.5666 H   0  0  0  0  0  0  0  0  0  0  0  0
    8.5178    0.5484   27.6150 H   0  0  0  0  0  0  0  0  0  0  0  0
  1  2  1  0
  2  3  2  0
  3  4  1  0
  4  5  1  0
  5  6  1  0
  6  7  2  0
  7  8  1  0
  8  9  1  0
  9 10  2  0
 10 11  1  0
 11 12  2  0
 12 13  1  0
 13 14  2  0
 14 15  1  0
 13 16  1  0
 12 17  1  0
 11 18  1  0
 10 19  1  0
  8 20  2  0
 20 21  1  0
 21 22  1  0
 22 23  1  0
 23 24  2  0
 24 25  1  0
 25 26  2  0
 26 27  1  0
 27 28  2  0
 28 29  1  0
 26 30  1  0
 25 31  1  0
 24 32  1  0
 22 33  1  0
 22 34  1  0
  5 35  1  0
  5 36  1  0
  4 37  1  0
 37 38  2  0
 38 39  1  0
 37 40  1  0
  1 41  1  0
  1 42  1  0
  1 43  1  0
 38  2  1  0
 21  6  1  0
 28 23  1  0
 14  9  1  0
M  END
>  <cnnaffinity>  (1) 
-5.85016

>  <filename>  (1) 
Cc1ccn(Cc2nc(-c3ccccc3)nn2Cc2cccnc2)n1

$$$$
