
     RDKit          3D

 52 55  0  0  0  0  0  0  0  0999 V2000
   12.2793    1.1480   24.4071 C   0  0  0  0  0  0  0  0  0  0  0  0
   10.7918    1.2533   24.2990 C   0  0  0  0  0  0  0  0  0  0  0  0
   10.2828    1.9387   23.2875 N   0  0  0  0  0  0  0  0  0  0  0  0
    8.9539    1.7944   23.3717 N   0  0  0  0  0  0  0  0  0  0  0  0
    8.1299    2.2919   22.2806 C   0  0  0  0  0  0  0  0  0  0  0  0
    8.6927    1.9226   20.8932 C   0  0  0  0  0  0  0  0  0  0  0  0
    9.2887    0.4985   20.7328 C   0  0  0  0  0  0  0  0  0  0  0  0
    8.4454   -0.5990   21.2988 C   0  0  0  0  0  0  0  0  0  0  0  0
    8.7525   -1.4413   22.2640 N   0  0  0  0  0  0  0  0  0  0  0  0
    7.5694   -2.0671   22.5245 C   0  0  0  0  0  0  0  0  0  0  0  0
    7.4705   -3.1013   23.6039 C   0  0  0  0  0  0  0  0  0  0  0  0
    7.8413   -2.6192   25.0243 C   0  0  0  0  0  0  0  0  0  0  0  0
    8.1088   -3.9077   25.8252 C   0  0  0  0  0  0  0  0  0  0  0  0
    8.4574   -4.9957   24.7786 C   0  0  0  0  0  0  0  0  0  0  0  0
    8.4355   -4.2913   23.4125 C   0  0  0  0  0  0  0  0  0  0  0  0
    8.1309   -4.9496   22.5912 H   0  0  0  0  0  0  0  0  0  0  0  0
    9.4330   -3.8985   23.1735 H   0  0  0  0  0  0  0  0  0  0  0  0
    7.7091   -5.7959   24.8091 H   0  0  0  0  0  0  0  0  0  0  0  0
    9.4268   -5.4675   24.9720 H   0  0  0  0  0  0  0  0  0  0  0  0
    7.2213   -4.2050   26.3956 H   0  0  0  0  0  0  0  0  0  0  0  0
    8.9110   -3.7623   26.5572 H   0  0  0  0  0  0  0  0  0  0  0  0
    8.7661   -2.0266   24.9668 H   0  0  0  0  0  0  0  0  0  0  0  0
    7.0681   -1.9898   25.4807 H   0  0  0  0  0  0  0  0  0  0  0  0
    6.4326   -3.4506   23.5965 H   0  0  0  0  0  0  0  0  0  0  0  0
    6.5671   -1.7010   21.7434 N   0  0  0  0  0  0  0  0  0  0  0  0
    7.1483   -0.7860   20.9186 N   0  0  0  0  0  0  0  0  0  0  0  0
    6.4491   -0.1453   19.8533 C   0  0  0  0  0  0  0  0  0  0  0  0
    5.2875    0.6018   20.0888 C   0  0  0  0  0  0  0  0  0  0  0  0
    4.7698    1.3565   19.0299 C   0  0  0  0  0  0  0  0  0  0  0  0
    5.3966    1.3126   17.7815 C   0  0  0  0  0  0  0  0  0  0  0  0
    6.4676    0.5416   17.5291 N   0  0  0  0  0  0  0  0  0  0  0  0
    6.9657   -0.1704   18.5457 C   0  0  0  0  0  0  0  0  0  0  0  0
    7.8428   -0.7795   18.3228 H   0  0  0  0  0  0  0  0  0  0  0  0
    5.0244    1.9047   16.9465 H   0  0  0  0  0  0  0  0  0  0  0  0
    3.8982    1.9904   19.1648 H   0  0  0  0  0  0  0  0  0  0  0  0
    4.8238    0.5962   21.0753 H   0  0  0  0  0  0  0  0  0  0  0  0
   10.2538    0.4408   21.2417 H   0  0  0  0  0  0  0  0  0  0  0  0
    9.4700    0.2983   19.6686 H   0  0  0  0  0  0  0  0  0  0  0  0
    9.4920    2.6421   20.6993 H   0  0  0  0  0  0  0  0  0  0  0  0
    7.9017    2.0809   20.1494 H   0  0  0  0  0  0  0  0  0  0  0  0
    7.1215    1.8894   22.4004 H   0  0  0  0  0  0  0  0  0  0  0  0
    8.0683    3.3819   22.3703 H   0  0  0  0  0  0  0  0  0  0  0  0
    8.5800    1.0703   24.4629 C   0  0  0  0  0  0  0  0  0  0  0  0
    7.1409    0.8267   24.8117 C   0  0  0  0  0  0  0  0  0  0  0  0
    6.6690    0.1603   24.0740 H   0  0  0  0  0  0  0  0  0  0  0  0
    7.0866    0.3465   25.7953 H   0  0  0  0  0  0  0  0  0  0  0  0
    6.5486    1.7551   24.8557 H   0  0  0  0  0  0  0  0  0  0  0  0
    9.7607    0.6900   25.0767 C   0  0  0  0  0  0  0  0  0  0  0  0
    9.8875    0.0934   25.9691 H   0  0  0  0  0  0  0  0  0  0  0  0
   12.6654    2.0416   24.8922 H   0  0  0  0  0  0  0  0  0  0  0  0
   12.6148    0.2808   24.9819 H   0  0  0  0  0  0  0  0  0  0  0  0
   12.7068    1.1053   23.3995 H   0  0  0  0  0  0  0  0  0  0  0  0
  1  2  1  0
  2  3  2  0
  3  4  1  0
  4  5  1  0
  5  6  1  0
  6  7  1  0
  7  8  1  0
  8  9  2  0
  9 10  1  0
 10 11  1  0
 11 12  1  0
 12 13  1  0
 13 14  1  0
 14 15  1  0
 15 16  1  0
 15 17  1  0
 14 18  1  0
 14 19  1  0
 13 20  1  0
 13 21  1  0
 12 22  1  0
 12 23  1  0
 11 24  1  0
 10 25  2  0
 25 26  1  0
 26 27  1  0
 27 28  2  0
 28 29  1  0
 29 30  2  0
 30 31  1  0
 31 32  2  0
 32 33  1  0
 30 34  1  0
 29 35  1  0
 28 36  1  0
  7 37  1  0
  7 38  1  0
  6 39  1  0
  6 40  1  0
  5 41  1  0
  5 42  1  0
  4 43  1  0
 43 44  1  0
 44 45  1  0
 44 46  1  0
 44 47  1  0
 43 48  2  0
 48 49  1  0
  1 50  1  0
  1 51  1  0
  1 52  1  0
 48  2  1  0
 26  8  1  0
 32 27  1  0
 15 11  1  0
M  END
>  <cnnaffinity>  (1) 
-6.4214

>  <filename>  (1) 
Cc1cc(C)n(CCCc2nc(C3CCCC3)nn2-c2cccnc2)n1

$$$$
