
     RDKit          3D

 39 41  0  0  0  0  0  0  0  0999 V2000
    9.5132    2.3262   21.1985 C   0  0  0  0  0  0  0  0  0  0  0  0
    9.5827    2.2225   22.7036 C   0  0  0  0  0  0  0  0  0  0  0  0
   10.8050    2.4554   23.3462 C   0  0  0  0  0  0  0  0  0  0  0  0
   10.9657    2.1857   24.7032 C   0  0  0  0  0  0  0  0  0  0  0  0
    9.8829    1.7013   25.4386 C   0  0  0  0  0  0  0  0  0  0  0  0
    8.6303    1.5045   24.8454 C   0  0  0  0  0  0  0  0  0  0  0  0
    7.5230    0.8607   25.6542 C   0  0  0  0  0  0  0  0  0  0  0  0
    7.8265    0.7077   26.6934 H   0  0  0  0  0  0  0  0  0  0  0  0
    7.2836   -0.1205   25.2275 H   0  0  0  0  0  0  0  0  0  0  0  0
    6.6030    1.4551   25.6611 H   0  0  0  0  0  0  0  0  0  0  0  0
    8.4738    1.7943   23.4675 C   0  0  0  0  0  0  0  0  0  0  0  0
    7.1989    1.3532   22.7472 C   0  0  0  0  0  0  0  0  0  0  0  0
    7.3807   -0.0567   22.2495 C   0  0  0  0  0  0  0  0  0  0  0  0
    7.8931   -1.0297   22.9749 N   0  0  0  0  0  0  0  0  0  0  0  0
    8.1104   -2.0235   22.0776 C   0  0  0  0  0  0  0  0  0  0  0  0
    8.8730   -3.2335   22.5572 C   0  0  0  0  0  0  0  0  0  0  0  0
   10.2121   -3.0415   22.3802 F   0  0  0  0  0  0  0  0  0  0  0  0
    8.5026   -4.3641   21.9052 F   0  0  0  0  0  0  0  0  0  0  0  0
    8.6894   -3.3476   23.6267 H   0  0  0  0  0  0  0  0  0  0  0  0
    7.7152   -1.7607   20.8497 N   0  0  0  0  0  0  0  0  0  0  0  0
    7.1841   -0.5174   20.9713 N   0  0  0  0  0  0  0  0  0  0  0  0
    6.5096    0.0938   19.8828 C   0  0  0  0  0  0  0  0  0  0  0  0
    5.2912    0.7643   20.0500 C   0  0  0  0  0  0  0  0  0  0  0  0
    4.7312    1.3954   18.9354 C   0  0  0  0  0  0  0  0  0  0  0  0
    5.4060    1.3360   17.7118 C   0  0  0  0  0  0  0  0  0  0  0  0
    6.5509    0.6521   17.5400 N   0  0  0  0  0  0  0  0  0  0  0  0
    7.0768    0.0311   18.5995 C   0  0  0  0  0  0  0  0  0  0  0  0
    7.9845   -0.5471   18.4467 H   0  0  0  0  0  0  0  0  0  0  0  0
    5.0187    1.8539   16.8362 H   0  0  0  0  0  0  0  0  0  0  0  0
    3.8001    1.9458   19.0109 H   0  0  0  0  0  0  0  0  0  0  0  0
    4.7968    0.7788   21.0232 H   0  0  0  0  0  0  0  0  0  0  0  0
    6.3504    1.3582   23.4364 H   0  0  0  0  0  0  0  0  0  0  0  0
    6.9447    2.0301   21.9259 H   0  0  0  0  0  0  0  0  0  0  0  0
   10.0102    1.4072   26.4750 H   0  0  0  0  0  0  0  0  0  0  0  0
   11.9410    2.3118   25.1639 H   0  0  0  0  0  0  0  0  0  0  0  0
   11.6568    2.8025   22.7647 H   0  0  0  0  0  0  0  0  0  0  0  0
    8.7409    3.0285   20.8749 H   0  0  0  0  0  0  0  0  0  0  0  0
   10.4703    2.6513   20.7842 H   0  0  0  0  0  0  0  0  0  0  0  0
    9.2734    1.3540   20.7499 H   0  0  0  0  0  0  0  0  0  0  0  0
  1  2  1  0
  2  3  2  0
  3  4  1  0
  4  5  2  0
  5  6  1  0
  6  7  1  0
  7  8  1  0
  7  9  1  0
  7 10  1  0
  6 11  2  0
 11 12  1  0
 12 13  1  0
 13 14  2  0
 14 15  1  0
 15 16  1  0
 16 17  1  0
 16 18  1  0
 16 19  1  0
 15 20  2  0
 20 21  1  0
 21 22  1  0
 22 23  2  0
 23 24  1  0
 24 25  2  0
 25 26  1  0
 26 27  2  0
 27 28  1  0
 25 29  1  0
 24 30  1  0
 23 31  1  0
 12 32  1  0
 12 33  1  0
  5 34  1  0
  4 35  1  0
  3 36  1  0
  1 37  1  0
  1 38  1  0
  1 39  1  0
 11  2  1  0
 21 13  1  0
 27 22  1  0
M  END
>  <cnnaffinity>  (1) 
-5.44428

>  <filename>  (1) 
Cc1cccc(C)c1Cc1nc(C(F)F)nn1-c1cccnc1

$$$$
