
     RDKit          3D

 45 48  0  0  0  0  0  0  0  0999 V2000
   11.3098    2.8327   23.1366 C   0  0  0  0  0  0  0  0  0  0  0  0
    9.9910    2.3674   23.7068 C   0  0  0  0  0  0  0  0  0  0  0  0
    9.8402    2.1275   25.0744 C   0  0  0  0  0  0  0  0  0  0  0  0
    8.5622    1.8985   25.5908 C   0  0  0  0  0  0  0  0  0  0  0  0
    7.4787    1.8744   24.7132 C   0  0  0  0  0  0  0  0  0  0  0  0
    7.6157    1.9961   23.3851 N   0  0  0  0  0  0  0  0  0  0  0  0
    8.8479    2.1803   22.8826 C   0  0  0  0  0  0  0  0  0  0  0  0
    8.9849    2.0422   21.3707 C   0  0  0  0  0  0  0  0  0  0  0  0
    9.5023    0.6325   20.9363 C   0  0  0  0  0  0  0  0  0  0  0  0
    8.6303   -0.5121   21.3673 C   0  0  0  0  0  0  0  0  0  0  0  0
    8.8896   -1.3900   22.3127 N   0  0  0  0  0  0  0  0  0  0  0  0
    7.6856   -1.9985   22.5099 C   0  0  0  0  0  0  0  0  0  0  0  0
    7.4802   -3.0033   23.5866 C   0  0  2  0  0  0  0  0  0  0  0  0
    8.4352   -4.1609   23.7277 C   0  0  0  0  0  0  0  0  0  0  0  0
    7.0238   -4.4074   23.2715 C   0  0  1  0  0  0  0  0  0  0  0  0
    6.0247   -5.1020   24.1736 C   0  0  0  0  0  0  0  0  0  0  0  0
    5.0013   -4.7952   23.9238 H   0  0  0  0  0  0  0  0  0  0  0  0
    6.0964   -6.1903   24.0610 H   0  0  0  0  0  0  0  0  0  0  0  0
    6.1948   -4.8728   25.2342 H   0  0  0  0  0  0  0  0  0  0  0  0
    6.8971   -4.6226   22.2086 H   0  0  0  0  0  0  0  0  0  0  0  0
    9.2401   -4.2190   22.9950 H   0  0  0  0  0  0  0  0  0  0  0  0
    8.7050   -4.4701   24.7374 H   0  0  0  0  0  0  0  0  0  0  0  0
    7.1045   -2.5518   24.5092 H   0  0  0  0  0  0  0  0  0  0  0  0
    6.7149   -1.5761   21.7215 N   0  0  0  0  0  0  0  0  0  0  0  0
    7.3397   -0.6506   20.9475 N   0  0  0  0  0  0  0  0  0  0  0  0
    6.6466   -0.0007   19.8901 C   0  0  0  0  0  0  0  0  0  0  0  0
    5.4310    0.6374   20.1455 C   0  0  0  0  0  0  0  0  0  0  0  0
    4.8124    1.3143   19.0921 C   0  0  0  0  0  0  0  0  0  0  0  0
    5.4113    1.3084   17.8266 C   0  0  0  0  0  0  0  0  0  0  0  0
    6.5583    0.6630   17.5664 N   0  0  0  0  0  0  0  0  0  0  0  0
    7.1550    0.0246   18.5791 C   0  0  0  0  0  0  0  0  0  0  0  0
    8.0814   -0.4958   18.3398 H   0  0  0  0  0  0  0  0  0  0  0  0
    4.9510    1.8303   16.9901 H   0  0  0  0  0  0  0  0  0  0  0  0
    3.8820    1.8477   19.2430 H   0  0  0  0  0  0  0  0  0  0  0  0
    5.0050    0.5968   21.1493 H   0  0  0  0  0  0  0  0  0  0  0  0
   10.4965    0.4457   21.3568 H   0  0  0  0  0  0  0  0  0  0  0  0
    9.5957    0.6019   19.8481 H   0  0  0  0  0  0  0  0  0  0  0  0
    9.6677    2.7961   20.9689 H   0  0  0  0  0  0  0  0  0  0  0  0
    8.0068    2.2286   20.9181 H   0  0  0  0  0  0  0  0  0  0  0  0
    6.4637    1.7350   25.0781 H   0  0  0  0  0  0  0  0  0  0  0  0
    8.4079    1.7754   26.6543 H   0  0  0  0  0  0  0  0  0  0  0  0
   10.7147    2.1133   25.7238 H   0  0  0  0  0  0  0  0  0  0  0  0
   11.1797    3.7724   22.5893 H   0  0  0  0  0  0  0  0  0  0  0  0
   11.7301    2.1077   22.4332 H   0  0  0  0  0  0  0  0  0  0  0  0
   12.0561    3.0075   23.9149 H   0  0  0  0  0  0  0  0  0  0  0  0
  1  2  1  0
  2  3  2  0
  3  4  1  0
  4  5  2  0
  5  6  1  0
  6  7  2  0
  7  8  1  0
  8  9  1  0
  9 10  1  0
 10 11  2  0
 11 12  1  0
 12 13  1  0
 13 14  1  0
 14 15  1  0
 15 16  1  0
 16 17  1  0
 16 18  1  0
 16 19  1  0
 15 20  1  6
 14 21  1  0
 14 22  1  0
 13 23  1  1
 12 24  2  0
 24 25  1  0
 25 26  1  0
 26 27  2  0
 27 28  1  0
 28 29  2  0
 29 30  1  0
 30 31  2  0
 31 32  1  0
 29 33  1  0
 28 34  1  0
 27 35  1  0
  9 36  1  0
  9 37  1  0
  8 38  1  0
  8 39  1  0
  5 40  1  0
  4 41  1  0
  3 42  1  0
  1 43  1  0
  1 44  1  0
  1 45  1  0
  7  2  1  0
 25 10  1  0
 31 26  1  0
 15 13  1  0
M  END
>  <cnnaffinity>  (1) 
-6.1407

>  <filename>  (1) 
Cc1cccnc1CCc1nc([C@@H]2C[C@H]2C)nn1-c1cccnc1

$$$$
