
     RDKit          3D

 50 53  0  0  0  0  0  0  0  0999 V2000
    9.6360    2.7485   25.0394 C   0  0  0  0  0  0  0  0  0  0  0  0
   10.4782    1.8055   24.1999 C   0  0  0  0  0  0  0  0  0  0  0  0
   11.7532    1.4562   24.6550 C   0  0  0  0  0  0  0  0  0  0  0  0
   12.5242    0.4761   24.0338 C   0  0  0  0  0  0  0  0  0  0  0  0
   12.0394   -0.1323   22.8764 C   0  0  0  0  0  0  0  0  0  0  0  0
   10.8248    0.2974   22.3381 C   0  0  0  0  0  0  0  0  0  0  0  0
   10.0437    1.2910   22.9638 C   0  0  0  0  0  0  0  0  0  0  0  0
    8.7872    1.8865   22.3296 C   0  0  0  0  0  0  0  0  0  0  0  0
    8.9555    1.9769   20.8315 C   0  0  0  0  0  0  0  0  0  0  0  0
    9.1542    1.0012   20.3775 H   0  0  0  0  0  0  0  0  0  0  0  0
    9.8183    2.6239   20.6426 H   0  0  0  0  0  0  0  0  0  0  0  0
    8.0623    2.3743   20.3507 H   0  0  0  0  0  0  0  0  0  0  0  0
    7.4635    1.1757   22.7216 C   0  0  0  0  0  0  0  0  0  0  0  0
    7.3998   -0.2380   22.2526 C   0  0  0  0  0  0  0  0  0  0  0  0
    7.8342   -1.2504   22.9725 N   0  0  0  0  0  0  0  0  0  0  0  0
    8.0211   -2.2230   22.0537 C   0  0  0  0  0  0  0  0  0  0  0  0
    8.7435   -3.4767   22.4067 C   0  0  0  0  0  0  0  0  0  0  0  0
    8.8511   -3.8326   23.9098 C   0  0  0  0  0  0  0  0  0  0  0  0
    8.7619   -5.3737   23.9190 C   0  0  0  0  0  0  0  0  0  0  0  0
    8.7095   -5.7862   22.5633 O   0  0  0  0  0  0  0  0  0  0  0  0
    8.1055   -4.7438   21.8311 C   0  0  0  0  0  0  0  0  0  0  0  0
    8.3341   -4.9032   20.7754 H   0  0  0  0  0  0  0  0  0  0  0  0
    7.0090   -4.7404   21.9719 H   0  0  0  0  0  0  0  0  0  0  0  0
    7.8533   -5.7051   24.4499 H   0  0  0  0  0  0  0  0  0  0  0  0
    9.6348   -5.8437   24.3835 H   0  0  0  0  0  0  0  0  0  0  0  0
    9.7663   -3.4498   24.3737 H   0  0  0  0  0  0  0  0  0  0  0  0
    8.0097   -3.4157   24.4663 H   0  0  0  0  0  0  0  0  0  0  0  0
    9.7450   -3.3258   21.9921 H   0  0  0  0  0  0  0  0  0  0  0  0
    7.6739   -1.9111   20.8154 N   0  0  0  0  0  0  0  0  0  0  0  0
    7.2127   -0.6347   20.9565 N   0  0  0  0  0  0  0  0  0  0  0  0
    6.5564    0.0277   19.8795 C   0  0  0  0  0  0  0  0  0  0  0  0
    5.3650    0.7363   20.0803 C   0  0  0  0  0  0  0  0  0  0  0  0
    4.7861    1.3846   18.9841 C   0  0  0  0  0  0  0  0  0  0  0  0
    5.4218    1.3207   17.7405 C   0  0  0  0  0  0  0  0  0  0  0  0
    6.5539    0.6262   17.5349 N   0  0  0  0  0  0  0  0  0  0  0  0
    7.0972   -0.0120   18.5814 C   0  0  0  0  0  0  0  0  0  0  0  0
    8.0083   -0.5723   18.3814 H   0  0  0  0  0  0  0  0  0  0  0  0
    5.0085    1.8414   16.8780 H   0  0  0  0  0  0  0  0  0  0  0  0
    3.8660    1.9495   19.0927 H   0  0  0  0  0  0  0  0  0  0  0  0
    4.8987    0.7617   21.0656 H   0  0  0  0  0  0  0  0  0  0  0  0
    7.3604    1.1556   23.8105 H   0  0  0  0  0  0  0  0  0  0  0  0
    6.6302    1.7503   22.3132 H   0  0  0  0  0  0  0  0  0  0  0  0
    8.6991    2.9212   22.6958 H   0  0  0  0  0  0  0  0  0  0  0  0
   10.4898   -0.1435   21.4065 H   0  0  0  0  0  0  0  0  0  0  0  0
   12.6145   -0.9073   22.3747 H   0  0  0  0  0  0  0  0  0  0  0  0
   13.4825    0.1938   24.4594 H   0  0  0  0  0  0  0  0  0  0  0  0
   12.1360    1.9987   25.5019 H   0  0  0  0  0  0  0  0  0  0  0  0
    8.5743    2.7236   24.7758 H   0  0  0  0  0  0  0  0  0  0  0  0
    9.6966    2.4844   26.1002 H   0  0  0  0  0  0  0  0  0  0  0  0
    9.9732    3.7875   24.9339 H   0  0  0  0  0  0  0  0  0  0  0  0
  1  2  1  0
  2  3  2  0
  3  4  1  0
  4  5  2  0
  5  6  1  0
  6  7  2  0
  7  8  1  0
  8  9  1  0
  9 10  1  0
  9 11  1  0
  9 12  1  0
  8 13  1  0
 13 14  1  0
 14 15  2  0
 15 16  1  0
 16 17  1  0
 17 18  1  0
 18 19  1  0
 19 20  1  0
 20 21  1  0
 21 22  1  0
 21 23  1  0
 19 24  1  0
 19 25  1  0
 18 26  1  0
 18 27  1  0
 17 28  1  0
 16 29  2  0
 29 30  1  0
 30 31  1  0
 31 32  2  0
 32 33  1  0
 33 34  2  0
 34 35  1  0
 35 36  2  0
 36 37  1  0
 34 38  1  0
 33 39  1  0
 32 40  1  0
 13 41  1  0
 13 42  1  0
  8 43  1  0
  6 44  1  0
  5 45  1  0
  4 46  1  0
  3 47  1  0
  1 48  1  0
  1 49  1  0
  1 50  1  0
  7  2  1  0
 30 14  1  0
 36 31  1  0
 21 17  1  0
M  END
>  <cnnaffinity>  (1) 
-6.21454

>  <filename>  (1) 
Cc1ccccc1C(C)Cc1nc(C2CCOC2)nn1-c1cccnc1

$$$$
