
     RDKit          3D

 52 55  0  0  0  0  0  0  0  0999 V2000
    7.9779   -5.3390   27.3155 C   0  0  0  0  0  0  0  0  0  0  0  0
    8.2224   -4.3358   26.1920 C   0  0  0  0  0  0  0  0  0  0  0  0
    8.3113   -5.0304   24.8236 C   0  0  0  0  0  0  0  0  0  0  0  0
    8.5380   -4.0378   23.6806 C   0  0  0  0  0  0  0  0  0  0  0  0
    7.4538   -2.9381   23.6679 C   0  0  0  0  0  0  0  0  0  0  0  0
    7.6701   -1.9483   22.5645 C   0  0  0  0  0  0  0  0  0  0  0  0
    6.7431   -1.6072   21.6970 N   0  0  0  0  0  0  0  0  0  0  0  0
    7.3633   -0.6654   20.9383 N   0  0  0  0  0  0  0  0  0  0  0  0
    6.6602    0.0098   19.9009 C   0  0  0  0  0  0  0  0  0  0  0  0
    5.4415    0.6462   20.1665 C   0  0  0  0  0  0  0  0  0  0  0  0
    4.8117    1.3110   19.1097 C   0  0  0  0  0  0  0  0  0  0  0  0
    5.4022    1.2951   17.8386 C   0  0  0  0  0  0  0  0  0  0  0  0
    6.5637    0.6759   17.5779 N   0  0  0  0  0  0  0  0  0  0  0  0
    7.1722    0.0574   18.5945 C   0  0  0  0  0  0  0  0  0  0  0  0
    8.1167   -0.4345   18.3741 H   0  0  0  0  0  0  0  0  0  0  0  0
    4.9140    1.7814   16.9958 H   0  0  0  0  0  0  0  0  0  0  0  0
    3.8770    1.8415   19.2631 H   0  0  0  0  0  0  0  0  0  0  0  0
    5.0147    0.6128   21.1720 H   0  0  0  0  0  0  0  0  0  0  0  0
    8.6250   -0.4727   21.4192 C   0  0  0  0  0  0  0  0  0  0  0  0
    9.5268    0.6174   20.9400 C   0  0  0  0  0  0  0  0  0  0  0  0
    9.0417    2.0177   21.3458 C   0  0  0  0  0  0  0  0  0  0  0  0
    8.9859    2.2065   22.8624 C   0  0  0  0  0  0  0  0  0  0  0  0
    8.5387    3.5364   23.2330 N   0  0  0  0  0  0  0  0  0  0  0  0
    7.2304    3.9574   23.3311 C   0  0  0  0  0  0  0  0  0  0  0  0
    7.2919    5.2988   23.5656 C   0  0  0  0  0  0  0  0  0  0  0  0
    8.5961    5.7261   23.6048 N   0  0  0  0  0  0  0  0  0  0  0  0
    9.3110    4.6511   23.3841 C   0  0  0  0  0  0  0  0  0  0  0  0
   10.3964    4.6216   23.3296 H   0  0  0  0  0  0  0  0  0  0  0  0
    6.4565    5.9736   23.7117 H   0  0  0  0  0  0  0  0  0  0  0  0
    6.3824    3.2921   23.2095 H   0  0  0  0  0  0  0  0  0  0  0  0
    9.9695    2.0263   23.3078 H   0  0  0  0  0  0  0  0  0  0  0  0
    8.3116    1.4747   23.3192 H   0  0  0  0  0  0  0  0  0  0  0  0
    9.7191    2.7644   20.9248 H   0  0  0  0  0  0  0  0  0  0  0  0
    8.0491    2.2057   20.9189 H   0  0  0  0  0  0  0  0  0  0  0  0
    9.6134    0.5678   19.8510 H   0  0  0  0  0  0  0  0  0  0  0  0
   10.5227    0.4273   21.3522 H   0  0  0  0  0  0  0  0  0  0  0  0
    8.8492   -1.2786   22.4357 N   0  0  0  0  0  0  0  0  0  0  0  0
    7.3637   -2.2305   25.0411 C   0  0  0  0  0  0  0  0  0  0  0  0
    7.1495   -3.2359   26.1745 C   0  0  0  0  0  0  0  0  0  0  0  0
    6.1595   -3.7030   26.0625 H   0  0  0  0  0  0  0  0  0  0  0  0
    7.1315   -2.7116   27.1390 H   0  0  0  0  0  0  0  0  0  0  0  0
    6.5536   -1.4903   25.0336 H   0  0  0  0  0  0  0  0  0  0  0  0
    8.2963   -1.6763   25.2162 H   0  0  0  0  0  0  0  0  0  0  0  0
    6.4863   -3.4092   23.4663 H   0  0  0  0  0  0  0  0  0  0  0  0
    9.5240   -3.5672   23.7956 H   0  0  0  0  0  0  0  0  0  0  0  0
    8.5532   -4.5652   22.7191 H   0  0  0  0  0  0  0  0  0  0  0  0
    9.1156   -5.7779   24.8333 H   0  0  0  0  0  0  0  0  0  0  0  0
    7.3791   -5.5871   24.6439 H   0  0  0  0  0  0  0  0  0  0  0  0
    9.1910   -3.8464   26.3749 H   0  0  0  0  0  0  0  0  0  0  0  0
    7.0192   -5.8513   27.1700 H   0  0  0  0  0  0  0  0  0  0  0  0
    7.9466   -4.8437   28.2917 H   0  0  0  0  0  0  0  0  0  0  0  0
    8.7620   -6.1030   27.3446 H   0  0  0  0  0  0  0  0  0  0  0  0
  1  2  1  0
  2  3  1  0
  3  4  1  0
  4  5  1  0
  5  6  1  0
  6  7  2  0
  7  8  1  0
  8  9  1  0
  9 10  2  0
 10 11  1  0
 11 12  2  0
 12 13  1  0
 13 14  2  0
 14 15  1  0
 12 16  1  0
 11 17  1  0
 10 18  1  0
  8 19  1  0
 19 20  1  0
 20 21  1  0
 21 22  1  0
 22 23  1  0
 23 24  1  0
 24 25  2  0
 25 26  1  0
 26 27  2  0
 27 28  1  0
 25 29  1  0
 24 30  1  0
 22 31  1  0
 22 32  1  0
 21 33  1  0
 21 34  1  0
 20 35  1  0
 20 36  1  0
 19 37  2  0
  5 38  1  0
 38 39  1  0
 39 40  1  0
 39 41  1  0
 38 42  1  0
 38 43  1  0
  5 44  1  0
  4 45  1  0
  4 46  1  0
  3 47  1  0
  3 48  1  0
  2 49  1  0
  1 50  1  0
  1 51  1  0
  1 52  1  0
 39  2  1  0
 37  6  1  0
 14  9  1  0
 27 23  1  0
M  END
>  <cnnaffinity>  (1) 
-6.26582

>  <filename>  (1) 
CC1CCC(c2nc(CCCn3ccnc3)n(-c3cccnc3)n2)CC1

$$$$
