
     RDKit          3D

 45 48  0  0  0  0  0  0  0  0999 V2000
    9.3798   -1.1425   27.3802 C   0  0  0  0  0  0  0  0  0  0  0  0
    8.3251   -1.6029   26.4034 C   0  0  0  0  0  0  0  0  0  0  0  0
    7.4103   -2.6099   26.7412 C   0  0  0  0  0  0  0  0  0  0  0  0
    6.3961   -2.9883   25.8554 C   0  0  0  0  0  0  0  0  0  0  0  0
    6.3448   -2.4398   24.5725 C   0  0  0  0  0  0  0  0  0  0  0  0
    7.3404   -1.5376   24.1757 C   0  0  0  0  0  0  0  0  0  0  0  0
    7.5232   -1.2204   22.7864 N   0  0  0  0  0  0  0  0  0  0  0  0
    6.6361   -0.5287   22.0352 N   0  0  0  0  0  0  0  0  0  0  0  0
    7.1961   -0.5251   20.8389 C   0  0  0  0  0  0  0  0  0  0  0  0
    6.5658    0.1364   19.6950 C   0  0  0  0  0  0  0  0  0  0  0  0
    5.3483    0.8306   19.8277 C   0  0  0  0  0  0  0  0  0  0  0  0
    4.8128    1.4464   18.7014 C   0  0  0  0  0  0  0  0  0  0  0  0
    5.5018    1.3449   17.4878 C   0  0  0  0  0  0  0  0  0  0  0  0
    6.6562    0.6749   17.3492 N   0  0  0  0  0  0  0  0  0  0  0  0
    7.1773    0.0885   18.4355 C   0  0  0  0  0  0  0  0  0  0  0  0
    8.1190   -0.4377   18.2803 H   0  0  0  0  0  0  0  0  0  0  0  0
    5.1054    1.8239   16.5928 H   0  0  0  0  0  0  0  0  0  0  0  0
    3.8893    2.0148   18.7544 H   0  0  0  0  0  0  0  0  0  0  0  0
    4.8504    0.8799   20.7990 H   0  0  0  0  0  0  0  0  0  0  0  0
    8.3757   -1.2028   20.7663 N   0  0  0  0  0  0  0  0  0  0  0  0
    8.5438   -1.6474   21.9976 C   0  0  0  0  0  0  0  0  0  0  0  0
    9.6758   -2.4887   22.5238 C   0  0  0  0  0  0  0  0  0  0  0  0
    9.2850   -3.7724   23.2615 C   0  0  0  0  0  0  0  0  0  0  0  0
    9.8758   -4.0822   24.4932 C   0  0  0  0  0  0  0  0  0  0  0  0
    9.5587   -5.2777   25.1401 C   0  0  0  0  0  0  0  0  0  0  0  0
    8.6929   -6.1696   24.6453 N   0  0  0  0  0  0  0  0  0  0  0  0
    8.1172   -5.8615   23.4814 C   0  0  0  0  0  0  0  0  0  0  0  0
    8.3526   -4.6896   22.7339 C   0  0  0  0  0  0  0  0  0  0  0  0
    7.5650   -4.4812   21.4594 C   0  0  0  0  0  0  0  0  0  0  0  0
    6.5519   -4.1048   21.6623 H   0  0  0  0  0  0  0  0  0  0  0  0
    7.4417   -5.4064   20.8857 H   0  0  0  0  0  0  0  0  0  0  0  0
    8.0438   -3.7556   20.8041 H   0  0  0  0  0  0  0  0  0  0  0  0
    7.4029   -6.5857   23.0927 H   0  0  0  0  0  0  0  0  0  0  0  0
   10.0335   -5.5402   26.0853 H   0  0  0  0  0  0  0  0  0  0  0  0
   10.6017   -3.4170   24.9466 H   0  0  0  0  0  0  0  0  0  0  0  0
   10.2772   -1.8547   23.1870 H   0  0  0  0  0  0  0  0  0  0  0  0
   10.3259   -2.7201   21.6787 H   0  0  0  0  0  0  0  0  0  0  0  0
    8.2747   -1.0678   25.1117 C   0  0  0  0  0  0  0  0  0  0  0  0
    8.9845   -0.2946   24.8293 H   0  0  0  0  0  0  0  0  0  0  0  0
    5.5636   -2.7469   23.8822 H   0  0  0  0  0  0  0  0  0  0  0  0
    5.6584   -3.7302   26.1562 H   0  0  0  0  0  0  0  0  0  0  0  0
    7.5160   -3.1244   27.6913 H   0  0  0  0  0  0  0  0  0  0  0  0
   10.0724   -0.4335   26.9216 H   0  0  0  0  0  0  0  0  0  0  0  0
    8.9485   -0.6740   28.2722 H   0  0  0  0  0  0  0  0  0  0  0  0
    9.9929   -1.9841   27.7068 H   0  0  0  0  0  0  0  0  0  0  0  0
  1  2  1  0
  2  3  2  0
  3  4  1  0
  4  5  2  0
  5  6  1  0
  6  7  1  0
  7  8  1  0
  8  9  2  0
  9 10  1  0
 10 11  2  0
 11 12  1  0
 12 13  2  0
 13 14  1  0
 14 15  2  0
 15 16  1  0
 13 17  1  0
 12 18  1  0
 11 19  1  0
  9 20  1  0
 20 21  2  0
 21 22  1  0
 22 23  1  0
 23 24  2  0
 24 25  1  0
 25 26  2  0
 26 27  1  0
 27 28  2  0
 28 29  1  0
 29 30  1  0
 29 31  1  0
 29 32  1  0
 27 33  1  0
 25 34  1  0
 24 35  1  0
 22 36  1  0
 22 37  1  0
  6 38  2  0
 38 39  1  0
  5 40  1  0
  4 41  1  0
  3 42  1  0
  1 43  1  0
  1 44  1  0
  1 45  1  0
 38  2  1  0
 21  7  1  0
 28 23  1  0
 15 10  1  0
M  END
>  <cnnaffinity>  (1) 
-6.26223

>  <filename>  (1) 
Cc1cccc(-n2nc(-c3cccnc3)nc2Cc2ccncc2C)c1

$$$$
