
     RDKit          3D

 46 49  0  0  0  0  0  0  0  0999 V2000
   11.0609    3.6310   24.0086 C   0  0  0  0  0  0  0  0  0  0  0  0
   11.3066    2.3356   23.2633 C   0  0  0  0  0  0  0  0  0  0  0  0
   12.4723    1.5743   23.4572 C   0  0  0  0  0  0  0  0  0  0  0  0
   12.7815    0.4704   22.7671 N   0  0  0  0  0  0  0  0  0  0  0  0
   11.9071    0.0475   21.8457 C   0  0  0  0  0  0  0  0  0  0  0  0
   10.6881    0.6901   21.5814 C   0  0  0  0  0  0  0  0  0  0  0  0
    9.6579    0.1095   20.6263 C   0  0  0  0  0  0  0  0  0  0  0  0
    8.5799   -0.6763   21.3098 C   0  0  0  0  0  0  0  0  0  0  0  0
    8.7709   -1.4874   22.3303 N   0  0  0  0  0  0  0  0  0  0  0  0
    7.5450   -2.0171   22.5446 C   0  0  0  0  0  0  0  0  0  0  0  0
    7.2999   -2.9981   23.6517 C   0  0  0  0  0  0  0  0  0  0  0  0
    6.5422   -2.3315   24.8301 C   0  0  0  0  0  0  0  0  0  0  0  0
    6.0424   -3.3329   25.8403 C   0  0  0  0  0  0  0  0  0  0  0  0
    5.9948   -4.6490   25.6197 C   0  0  0  0  0  0  0  0  0  0  0  0
    6.4462   -5.2928   24.3280 C   0  0  0  0  0  0  0  0  0  0  0  0
    6.5904   -4.2853   23.1728 C   0  0  0  0  0  0  0  0  0  0  0  0
    7.1608   -4.7429   22.3545 H   0  0  0  0  0  0  0  0  0  0  0  0
    5.6007   -4.0224   22.7733 H   0  0  0  0  0  0  0  0  0  0  0  0
    5.7393   -6.0801   24.0415 H   0  0  0  0  0  0  0  0  0  0  0  0
    7.4041   -5.8064   24.5075 H   0  0  0  0  0  0  0  0  0  0  0  0
    5.6449   -5.3115   26.4119 H   0  0  0  0  0  0  0  0  0  0  0  0
    5.6743   -2.9290   26.7829 H   0  0  0  0  0  0  0  0  0  0  0  0
    5.6904   -1.7479   24.4530 H   0  0  0  0  0  0  0  0  0  0  0  0
    7.2098   -1.6095   25.3193 H   0  0  0  0  0  0  0  0  0  0  0  0
    8.2955   -3.2767   24.0199 H   0  0  0  0  0  0  0  0  0  0  0  0
    6.6025   -1.5855   21.7241 N   0  0  0  0  0  0  0  0  0  0  0  0
    7.2794   -0.7486   20.8964 N   0  0  0  0  0  0  0  0  0  0  0  0
    6.5948   -0.0548   19.8653 C   0  0  0  0  0  0  0  0  0  0  0  0
    5.3964    0.6151   20.1328 C   0  0  0  0  0  0  0  0  0  0  0  0
    4.7977    1.3175   19.0833 C   0  0  0  0  0  0  0  0  0  0  0  0
    5.3935    1.3134   17.8158 C   0  0  0  0  0  0  0  0  0  0  0  0
    6.5321    0.6553   17.5503 N   0  0  0  0  0  0  0  0  0  0  0  0
    7.1089   -0.0088   18.5578 C   0  0  0  0  0  0  0  0  0  0  0  0
    8.0396   -0.5234   18.3295 H   0  0  0  0  0  0  0  0  0  0  0  0
    4.9399    1.8458   16.9819 H   0  0  0  0  0  0  0  0  0  0  0  0
    3.8764    1.8646   19.2360 H   0  0  0  0  0  0  0  0  0  0  0  0
    4.9647    0.5889   21.1351 H   0  0  0  0  0  0  0  0  0  0  0  0
    9.2041    0.9110   20.0394 H   0  0  0  0  0  0  0  0  0  0  0  0
   10.1122   -0.5792   19.9047 H   0  0  0  0  0  0  0  0  0  0  0  0
   10.3958    1.8485   22.3098 C   0  0  0  0  0  0  0  0  0  0  0  0
    9.4466    2.3618   22.1189 H   0  0  0  0  0  0  0  0  0  0  0  0
   12.1840   -0.8513   21.2829 H   0  0  0  0  0  0  0  0  0  0  0  0
   13.1943    1.8801   24.2216 H   0  0  0  0  0  0  0  0  0  0  0  0
   11.8933    3.9000   24.6687 H   0  0  0  0  0  0  0  0  0  0  0  0
   10.9123    4.4680   23.3193 H   0  0  0  0  0  0  0  0  0  0  0  0
   10.1594    3.5713   24.6277 H   0  0  0  0  0  0  0  0  0  0  0  0
  1  2  1  0
  2  3  2  0
  3  4  1  0
  4  5  2  0
  5  6  1  0
  6  7  1  0
  7  8  1  0
  8  9  2  0
  9 10  1  0
 10 11  1  0
 11 12  1  0
 12 13  1  0
 13 14  2  0
 14 15  1  0
 15 16  1  0
 16 17  1  0
 16 18  1  0
 15 19  1  0
 15 20  1  0
 14 21  1  0
 13 22  1  0
 12 23  1  0
 12 24  1  0
 11 25  1  0
 10 26  2  0
 26 27  1  0
 27 28  1  0
 28 29  2  0
 29 30  1  0
 30 31  2  0
 31 32  1  0
 32 33  2  0
 33 34  1  0
 31 35  1  0
 30 36  1  0
 29 37  1  0
  7 38  1  0
  7 39  1  0
  6 40  2  0
 40 41  1  0
  5 42  1  0
  3 43  1  0
  1 44  1  0
  1 45  1  0
  1 46  1  0
 40  2  1  0
 27  8  1  0
 33 28  1  0
 16 11  1  0
M  END
>  <cnnaffinity>  (1) 
-6.78068

>  <filename>  (1) 
Cc1cncc(Cc2nc(C3CC=CCC3)nn2-c2cccnc2)c1

$$$$
