
     RDKit          3D

 34 37  0  0  0  0  0  0  0  0999 V2000
    4.9436    1.7937   16.9610 H   0  0  0  0  0  0  0  0  0  0  0  0
    5.4260    1.2997   17.7989 C   0  0  0  0  0  0  0  0  0  0  0  0
    6.5887    0.6856   17.5419 N   0  0  0  0  0  0  0  0  0  0  0  0
    7.2187    0.0952   18.5622 C   0  0  0  0  0  0  0  0  0  0  0  0
    8.1558   -0.4054   18.3181 H   0  0  0  0  0  0  0  0  0  0  0  0
    6.7162    0.0771   19.8752 C   0  0  0  0  0  0  0  0  0  0  0  0
    7.4093   -0.6742   20.9350 C   0  0  0  0  0  0  0  0  0  0  0  0
    8.6441   -1.1799   20.7830 N   0  0  0  0  0  0  0  0  0  0  0  0
    8.8087   -1.8951   21.9223 N   0  0  0  0  0  0  0  0  0  0  0  0
    9.7410   -2.8209   22.3705 C   0  0  0  0  0  0  0  0  0  0  0  0
   10.6865   -2.9374   21.8734 H   0  0  0  0  0  0  0  0  0  0  0  0
    9.1856   -3.4392   23.4399 C   0  0  0  0  0  0  0  0  0  0  0  0
    9.5247   -4.2935   24.0108 H   0  0  0  0  0  0  0  0  0  0  0  0
    7.9430   -2.8472   23.7159 N   0  0  0  0  0  0  0  0  0  0  0  0
    7.0141   -3.1717   24.7293 C   0  0  0  0  0  0  0  0  0  0  0  0
    7.0091   -4.4354   25.1605 N   0  0  0  0  0  0  0  0  0  0  0  0
    6.0657   -4.7919   26.0439 C   0  0  0  0  0  0  0  0  0  0  0  0
    6.0426   -6.2333   26.4511 C   0  0  0  0  0  0  0  0  0  0  0  0
    5.0654   -6.6828   26.2503 H   0  0  0  0  0  0  0  0  0  0  0  0
    6.2519   -6.3249   27.5202 H   0  0  0  0  0  0  0  0  0  0  0  0
    6.8012   -6.7846   25.9014 H   0  0  0  0  0  0  0  0  0  0  0  0
    5.1321   -3.8914   26.5773 C   0  0  0  0  0  0  0  0  0  0  0  0
    4.3920   -4.2472   27.2875 H   0  0  0  0  0  0  0  0  0  0  0  0
    5.1873   -2.5591   26.1671 C   0  0  0  0  0  0  0  0  0  0  0  0
    4.4846   -1.8257   26.5615 H   0  0  0  0  0  0  0  0  0  0  0  0
    6.1455   -2.1860   25.2290 C   0  0  0  0  0  0  0  0  0  0  0  0
    6.2331   -1.1694   24.8622 H   0  0  0  0  0  0  0  0  0  0  0  0
    7.7387   -1.8747   22.7384 C   0  0  0  0  0  0  0  0  0  0  0  0
    6.8134   -1.0267   22.1633 C   0  0  0  0  0  0  0  0  0  0  0  0
    5.8904   -0.6284   22.5113 H   0  0  0  0  0  0  0  0  0  0  0  0
    5.4817    0.7062   20.1142 C   0  0  0  0  0  0  0  0  0  0  0  0
    5.0248    0.7064   21.1064 H   0  0  0  0  0  0  0  0  0  0  0  0
    4.8270    1.3276   19.0612 C   0  0  0  0  0  0  0  0  0  0  0  0
    3.8793    1.8308   19.2099 H   0  0  0  0  0  0  0  0  0  0  0  0
  1  2  1  0
  2  3  2  0
  3  4  1  0
  4  5  1  0
  4  6  2  0
  6  7  1  0
  7  8  2  0
  8  9  1  0
  9 10  1  0
 10 11  1  0
 10 12  2  0
 12 13  1  0
 12 14  1  0
 14 15  1  0
 15 16  2  0
 16 17  1  0
 17 18  1  0
 18 19  1  0
 18 20  1  0
 18 21  1  0
 17 22  2  0
 22 23  1  0
 22 24  1  0
 24 25  1  0
 24 26  2  0
 26 27  1  0
 14 28  1  0
 28 29  2  0
 29 30  1  0
  6 31  1  0
 31 32  1  0
 31 33  2  0
 33 34  1  0
 33  2  1  0
 29  7  1  0
 28  9  1  0
 26 15  1  0
M  END
>  <cnnaffinity>  (1) 
-5.51058

>  <filename>  (1) 
Cc1cccc(-n2ccn3nc(-c4cccnc4)cc23)n1

$$$$
