
     RDKit          3D

 40 44  0  0  0  0  0  0  0  0999 V2000
    6.1962    0.3908   25.1752 C   0  0  0  0  0  0  0  0  0  0  0  0
    6.4881    1.5506   24.2480 C   0  0  0  0  0  0  0  0  0  0  0  0
    6.1516    2.8554   24.6652 C   0  0  0  0  0  0  0  0  0  0  0  0
    6.3767    3.9798   23.9793 N   0  0  0  0  0  0  0  0  0  0  0  0
    6.9551    3.8406   22.7803 C   0  0  0  0  0  0  0  0  0  0  0  0
    7.3002    2.6044   22.2317 C   0  0  0  0  0  0  0  0  0  0  0  0
    7.0566    1.4155   22.9532 C   0  0  0  0  0  0  0  0  0  0  0  0
    7.3637    0.0706   22.3662 C   0  0  0  0  0  0  0  0  0  0  0  0
    7.8207   -0.9826   23.0224 N   0  0  0  0  0  0  0  0  0  0  0  0
    7.9548   -1.9340   22.0655 C   0  0  0  0  0  0  0  0  0  0  0  0
    8.4026   -3.3073   22.3315 C   0  0  0  0  0  0  0  0  0  0  0  0
    9.2634   -3.5801   23.5684 C   0  0  0  0  0  0  0  0  0  0  0  0
    7.8460   -4.0403   23.5099 C   0  0  0  0  0  0  0  0  0  0  0  0
    7.1492   -5.3233   23.6911 C   0  0  0  0  0  0  0  0  0  0  0  0
    6.6045   -4.0380   24.3248 C   0  0  0  0  0  0  0  0  0  0  0  0
    6.7195   -3.9245   25.4023 H   0  0  0  0  0  0  0  0  0  0  0  0
    5.7425   -3.5415   23.8860 H   0  0  0  0  0  0  0  0  0  0  0  0
    7.6228   -6.0426   24.3528 H   0  0  0  0  0  0  0  0  0  0  0  0
    6.6356   -5.7524   22.8341 H   0  0  0  0  0  0  0  0  0  0  0  0
    9.4816   -2.7329   24.2174 H   0  0  0  0  0  0  0  0  0  0  0  0
   10.0436   -4.3336   23.5136 H   0  0  0  0  0  0  0  0  0  0  0  0
    8.5102   -3.8990   21.4242 H   0  0  0  0  0  0  0  0  0  0  0  0
    7.6554   -1.5363   20.8524 N   0  0  0  0  0  0  0  0  0  0  0  0
    7.2540   -0.2493   21.0354 N   0  0  0  0  0  0  0  0  0  0  0  0
    6.6697    0.3987   19.9153 C   0  0  0  0  0  0  0  0  0  0  0  0
    5.5244    1.1913   19.9979 C   0  0  0  0  0  0  0  0  0  0  0  0
    4.9668    1.6608   18.8063 C   0  0  0  0  0  0  0  0  0  0  0  0
    5.5840    1.3472   17.5941 C   0  0  0  0  0  0  0  0  0  0  0  0
    6.7034    0.6057   17.5108 N   0  0  0  0  0  0  0  0  0  0  0  0
    7.2213    0.1430   18.6483 C   0  0  0  0  0  0  0  0  0  0  0  0
    8.1303   -0.4524   18.5861 H   0  0  0  0  0  0  0  0  0  0  0  0
    5.1751    1.7026   16.6520 H   0  0  0  0  0  0  0  0  0  0  0  0
    4.0754    2.2781   18.8115 H   0  0  0  0  0  0  0  0  0  0  0  0
    5.0952    1.4518   20.9632 H   0  0  0  0  0  0  0  0  0  0  0  0
    7.7182    2.5847   21.2324 H   0  0  0  0  0  0  0  0  0  0  0  0
    7.1452    4.7566   22.2283 H   0  0  0  0  0  0  0  0  0  0  0  0
    5.6524    2.9755   25.6264 H   0  0  0  0  0  0  0  0  0  0  0  0
    7.1198   -0.0882   25.5174 H   0  0  0  0  0  0  0  0  0  0  0  0
    5.6380    0.7251   26.0562 H   0  0  0  0  0  0  0  0  0  0  0  0
    5.6109   -0.3804   24.6647 H   0  0  0  0  0  0  0  0  0  0  0  0
  1  2  1  0
  2  3  2  0
  3  4  1  0
  4  5  2  0
  5  6  1  0
  6  7  2  0
  7  8  1  0
  8  9  2  0
  9 10  1  0
 10 11  1  0
 11 12  1  0
 12 13  1  0
 13 14  1  0
 14 15  1  0
 15 16  1  0
 15 17  1  0
 14 18  1  0
 14 19  1  0
 12 20  1  0
 12 21  1  0
 11 22  1  0
 10 23  2  0
 23 24  1  0
 24 25  1  0
 25 26  2  0
 26 27  1  0
 27 28  2  0
 28 29  1  0
 29 30  2  0
 30 31  1  0
 28 32  1  0
 27 33  1  0
 26 34  1  0
  6 35  1  0
  5 36  1  0
  3 37  1  0
  1 38  1  0
  1 39  1  0
  1 40  1  0
  7  2  1  0
 24  8  1  0
 30 25  1  0
 13 11  1  0
 15 13  1  0
M  END
>  <cnnaffinity>  (1) 
-5.98704

>  <filename>  (1) 
Cc1cnccc1-c1nc(C2CC23CC3)nn1-c1cccnc1

$$$$
