
     RDKit          3D

 45 48  0  0  0  0  0  0  0  0999 V2000
    8.8465   -0.3749   27.1593 C   0  0  0  0  0  0  0  0  0  0  0  0
    7.5820    0.0083   26.4199 C   0  0  0  0  0  0  0  0  0  0  0  0
    6.2971   -0.3926   26.8307 C   0  0  0  0  0  0  0  0  0  0  0  0
    5.1698   -0.1317   26.1572 N   0  0  0  0  0  0  0  0  0  0  0  0
    5.2788    0.5218   24.9900 C   0  0  0  0  0  0  0  0  0  0  0  0
    6.5013    0.9466   24.4477 C   0  0  0  0  0  0  0  0  0  0  0  0
    6.6546    1.5914   23.0527 C   0  0  0  0  0  0  0  0  0  0  0  0
    7.7172    0.9150   22.2201 C   0  0  0  0  0  0  0  0  0  0  0  0
    9.0105    1.1569   22.3573 N   0  0  0  0  0  0  0  0  0  0  0  0
    9.6019    0.0733   21.7937 C   0  0  0  0  0  0  0  0  0  0  0  0
   11.0672   -0.1910   21.9388 C   0  0  0  0  0  0  0  0  0  0  0  0
   11.8869    0.6022   22.7771 C   0  0  0  0  0  0  0  0  0  0  0  0
   13.2376    0.2850   22.8967 C   0  0  0  0  0  0  0  0  0  0  0  0
   14.0089    0.9616   23.7610 F   0  0  0  0  0  0  0  0  0  0  0  0
   13.8304   -0.7153   22.1383 C   0  0  0  0  0  0  0  0  0  0  0  0
   13.0104   -1.4605   21.2993 C   0  0  0  0  0  0  0  0  0  0  0  0
   13.5924   -2.3671   20.5060 F   0  0  0  0  0  0  0  0  0  0  0  0
   11.6340   -1.2765   21.2485 C   0  0  0  0  0  0  0  0  0  0  0  0
   10.9858   -1.9753   20.7339 H   0  0  0  0  0  0  0  0  0  0  0  0
   14.8855   -0.9290   22.2039 H   0  0  0  0  0  0  0  0  0  0  0  0
   11.5003    1.4567   23.3204 H   0  0  0  0  0  0  0  0  0  0  0  0
    8.7462   -0.7549   21.2088 N   0  0  0  0  0  0  0  0  0  0  0  0
    7.5387   -0.2012   21.4803 N   0  0  0  0  0  0  0  0  0  0  0  0
    6.3187   -0.7222   20.8564 C   0  0  0  0  0  0  0  0  0  0  0  0
    5.8754    0.0691   19.6379 C   0  0  0  0  0  0  0  0  0  0  0  0
    4.7119    0.8455   19.5436 C   0  0  0  0  0  0  0  0  0  0  0  0
    4.4880    1.5791   18.3725 C   0  0  0  0  0  0  0  0  0  0  0  0
    5.4323    1.5165   17.3465 C   0  0  0  0  0  0  0  0  0  0  0  0
    6.5330    0.7513   17.4030 N   0  0  0  0  0  0  0  0  0  0  0  0
    6.7286    0.0512   18.5231 C   0  0  0  0  0  0  0  0  0  0  0  0
    7.6259   -0.5679   18.5589 H   0  0  0  0  0  0  0  0  0  0  0  0
    5.3115    2.1069   16.4387 H   0  0  0  0  0  0  0  0  0  0  0  0
    3.6121    2.2065   18.2405 H   0  0  0  0  0  0  0  0  0  0  0  0
    3.9841    0.8876   20.3573 H   0  0  0  0  0  0  0  0  0  0  0  0
    6.5451   -1.7553   20.5729 H   0  0  0  0  0  0  0  0  0  0  0  0
    5.5388   -0.7622   21.6176 H   0  0  0  0  0  0  0  0  0  0  0  0
    7.0034    2.6253   23.1558 H   0  0  0  0  0  0  0  0  0  0  0  0
    5.7059    1.6299   22.5025 H   0  0  0  0  0  0  0  0  0  0  0  0
    7.6551    0.7157   25.2174 C   0  0  0  0  0  0  0  0  0  0  0  0
    8.6217    1.0740   24.8606 H   0  0  0  0  0  0  0  0  0  0  0  0
    4.3449    0.6995   24.4540 H   0  0  0  0  0  0  0  0  0  0  0  0
    6.1688   -0.9568   27.7536 H   0  0  0  0  0  0  0  0  0  0  0  0
    9.0603   -1.4407   27.0159 H   0  0  0  0  0  0  0  0  0  0  0  0
    8.7937   -0.1873   28.2390 H   0  0  0  0  0  0  0  0  0  0  0  0
    9.7044    0.1766   26.7604 H   0  0  0  0  0  0  0  0  0  0  0  0
  1  2  1  0
  2  3  2  0
  3  4  1  0
  4  5  2  0
  5  6  1  0
  6  7  1  0
  7  8  1  0
  8  9  2  0
  9 10  1  0
 10 11  1  0
 11 12  2  0
 12 13  1  0
 13 14  1  0
 13 15  2  0
 15 16  1  0
 16 17  1  0
 16 18  2  0
 18 19  1  0
 15 20  1  0
 12 21  1  0
 10 22  2  0
 22 23  1  0
 23 24  1  0
 24 25  1  0
 25 26  2  0
 26 27  1  0
 27 28  2  0
 28 29  1  0
 29 30  2  0
 30 31  1  0
 28 32  1  0
 27 33  1  0
 26 34  1  0
 24 35  1  0
 24 36  1  0
  7 37  1  0
  7 38  1  0
  6 39  2  0
 39 40  1  0
  5 41  1  0
  3 42  1  0
  1 43  1  0
  1 44  1  0
  1 45  1  0
 39  2  1  0
 23  8  1  0
 30 25  1  0
 18 11  1  0
M  END
>  <cnnaffinity>  (1) 
-6.51058

>  <filename>  (1) 
Cc1cncc(Cc2nc(-c3cc(F)cc(F)c3)nn2Cc2cccnc2)c1

$$$$
