
     RDKit          3D

 45 48  0  0  0  0  0  0  0  0999 V2000
    9.5038   -0.2616   26.8856 C   0  0  0  0  0  0  0  0  0  0  0  0
    8.2820    0.1316   26.0875 C   0  0  0  0  0  0  0  0  0  0  0  0
    7.0192   -0.3798   26.4255 C   0  0  0  0  0  0  0  0  0  0  0  0
    5.9263   -0.0820   25.6174 C   0  0  0  0  0  0  0  0  0  0  0  0
    4.7205   -0.5743   25.9513 F   0  0  0  0  0  0  0  0  0  0  0  0
    6.0461    0.6954   24.4654 C   0  0  0  0  0  0  0  0  0  0  0  0
    7.3007    1.1946   24.1083 C   0  0  0  0  0  0  0  0  0  0  0  0
    7.5586    1.8856   22.7641 C   0  0  0  0  0  0  0  0  0  0  0  0
    8.5556    1.0744   21.9862 C   0  0  0  0  0  0  0  0  0  0  0  0
    9.8704    1.2176   22.0666 N   0  0  0  0  0  0  0  0  0  0  0  0
   10.3418    0.0120   21.6594 C   0  0  0  0  0  0  0  0  0  0  0  0
   11.7869   -0.3760   21.7269 C   0  0  0  0  0  0  0  0  0  0  0  0
   12.1926   -1.6301   21.2406 C   0  0  0  0  0  0  0  0  0  0  0  0
   13.5412   -1.9805   21.2669 C   0  0  0  0  0  0  0  0  0  0  0  0
   14.4800   -1.2019   21.7983 N   0  0  0  0  0  0  0  0  0  0  0  0
   14.1033   -0.0171   22.2882 C   0  0  0  0  0  0  0  0  0  0  0  0
   12.7843    0.4491   22.2778 C   0  0  0  0  0  0  0  0  0  0  0  0
   12.5674    1.4537   22.6300 H   0  0  0  0  0  0  0  0  0  0  0  0
   14.9056    0.5805   22.7050 H   0  0  0  0  0  0  0  0  0  0  0  0
   13.9086   -2.9012   20.8202 H   0  0  0  0  0  0  0  0  0  0  0  0
   11.4355   -2.2965   20.8587 H   0  0  0  0  0  0  0  0  0  0  0  0
    9.3940   -0.8327   21.2759 N   0  0  0  0  0  0  0  0  0  0  0  0
    8.2561   -0.1355   21.4676 N   0  0  0  0  0  0  0  0  0  0  0  0
    6.9694   -0.6993   21.0525 C   0  0  0  0  0  0  0  0  0  0  0  0
    6.3272    0.0409   19.8949 C   0  0  0  0  0  0  0  0  0  0  0  0
    5.1104    0.7242   19.9882 C   0  0  0  0  0  0  0  0  0  0  0  0
    4.6320    1.4222   18.8751 C   0  0  0  0  0  0  0  0  0  0  0  0
    5.3826    1.3995   17.6968 C   0  0  0  0  0  0  0  0  0  0  0  0
    6.5351    0.7216   17.5734 N   0  0  0  0  0  0  0  0  0  0  0  0
    6.9838    0.0720   18.6527 C   0  0  0  0  0  0  0  0  0  0  0  0
    7.9245   -0.4614   18.5272 H   0  0  0  0  0  0  0  0  0  0  0  0
    5.0485    1.9481   16.8165 H   0  0  0  0  0  0  0  0  0  0  0  0
    3.7123    1.9972   18.9100 H   0  0  0  0  0  0  0  0  0  0  0  0
    4.5430    0.7229   20.9203 H   0  0  0  0  0  0  0  0  0  0  0  0
    7.1896   -1.7324   20.7656 H   0  0  0  0  0  0  0  0  0  0  0  0
    6.2946   -0.7312   21.9172 H   0  0  0  0  0  0  0  0  0  0  0  0
    6.6292    2.0158   22.1984 H   0  0  0  0  0  0  0  0  0  0  0  0
    8.0035    2.8716   22.9187 H   0  0  0  0  0  0  0  0  0  0  0  0
    8.3950    0.9451   24.9569 C   0  0  0  0  0  0  0  0  0  0  0  0
    9.3705    1.3342   24.6761 H   0  0  0  0  0  0  0  0  0  0  0  0
    5.1600    0.8771   23.8640 H   0  0  0  0  0  0  0  0  0  0  0  0
    6.8813   -0.9977   27.3073 H   0  0  0  0  0  0  0  0  0  0  0  0
    9.7640   -1.3127   26.7120 H   0  0  0  0  0  0  0  0  0  0  0  0
   10.3784    0.3409   26.6203 H   0  0  0  0  0  0  0  0  0  0  0  0
    9.3267   -0.1459   27.9598 H   0  0  0  0  0  0  0  0  0  0  0  0
  1  2  1  0
  2  3  2  0
  3  4  1  0
  4  5  1  0
  4  6  2  0
  6  7  1  0
  7  8  1  0
  8  9  1  0
  9 10  2  0
 10 11  1  0
 11 12  1  0
 12 13  2  0
 13 14  1  0
 14 15  2  0
 15 16  1  0
 16 17  2  0
 17 18  1  0
 16 19  1  0
 14 20  1  0
 13 21  1  0
 11 22  2  0
 22 23  1  0
 23 24  1  0
 24 25  1  0
 25 26  2  0
 26 27  1  0
 27 28  2  0
 28 29  1  0
 29 30  2  0
 30 31  1  0
 28 32  1  0
 27 33  1  0
 26 34  1  0
 24 35  1  0
 24 36  1  0
  8 37  1  0
  8 38  1  0
  7 39  2  0
 39 40  1  0
  6 41  1  0
  3 42  1  0
  1 43  1  0
  1 44  1  0
  1 45  1  0
 39  2  1  0
 23  9  1  0
 30 25  1  0
 17 12  1  0
M  END
>  <cnnaffinity>  (1) 
-6.68956

>  <filename>  (1) 
Cc1cc(F)cc(Cc2nc(-c3ccncc3)nn2Cc2cccnc2)c1

$$$$
