
     RDKit          3D

 48 52  0  0  0  0  0  0  0  0999 V2000
    8.7997   -0.1697   27.2517 C   0  0  0  0  0  0  0  0  0  0  0  0
    9.4836    0.4664   26.0595 C   0  0  0  0  0  0  0  0  0  0  0  0
   10.8753    0.5493   26.0355 C   0  0  0  0  0  0  0  0  0  0  0  0
   11.5618    1.0848   24.9478 C   0  0  0  0  0  0  0  0  0  0  0  0
   10.8487    1.5732   23.8495 C   0  0  0  0  0  0  0  0  0  0  0  0
    9.4481    1.5366   23.8668 C   0  0  0  0  0  0  0  0  0  0  0  0
    8.6501    2.0165   22.8653 O   0  0  0  0  0  0  0  0  0  0  0  0
    9.1005    2.0096   21.5156 C   0  0  0  0  0  0  0  0  0  0  0  0
    9.5323    0.6210   21.0024 C   0  0  0  0  0  0  0  0  0  0  0  0
    8.6178   -0.4763   21.4396 C   0  0  0  0  0  0  0  0  0  0  0  0
    8.8317   -1.3310   22.4249 N   0  0  0  0  0  0  0  0  0  0  0  0
    7.6128   -1.9094   22.5984 C   0  0  0  0  0  0  0  0  0  0  0  0
    7.2246   -2.9164   23.6289 C   0  0  0  0  0  0  0  0  0  0  0  0
    7.3453   -4.3727   23.2989 C   0  0  0  0  0  0  0  0  0  0  0  0
    8.1440   -3.8159   24.4971 C   0  0  0  0  0  0  0  0  0  0  0  0
    8.8366   -4.7370   25.5039 C   0  0  0  0  0  0  0  0  0  0  0  0
    8.7339   -3.2590   25.7762 C   0  0  0  0  0  0  0  0  0  0  0  0
    9.6097   -2.6181   25.6532 H   0  0  0  0  0  0  0  0  0  0  0  0
    8.0307   -2.9473   26.5550 H   0  0  0  0  0  0  0  0  0  0  0  0
    8.1853   -5.3953   26.0863 H   0  0  0  0  0  0  0  0  0  0  0  0
    9.7882   -5.1879   25.2189 H   0  0  0  0  0  0  0  0  0  0  0  0
    7.9465   -4.6928   22.4484 H   0  0  0  0  0  0  0  0  0  0  0  0
    6.5027   -5.0314   23.5227 H   0  0  0  0  0  0  0  0  0  0  0  0
    6.3242   -2.6000   24.1607 H   0  0  0  0  0  0  0  0  0  0  0  0
    6.6910   -1.5166   21.7406 N   0  0  0  0  0  0  0  0  0  0  0  0
    7.3494   -0.6268   20.9582 N   0  0  0  0  0  0  0  0  0  0  0  0
    6.6679    0.0273   19.8905 C   0  0  0  0  0  0  0  0  0  0  0  0
    5.4433    0.6584   20.1391 C   0  0  0  0  0  0  0  0  0  0  0  0
    4.8213    1.3234   19.0804 C   0  0  0  0  0  0  0  0  0  0  0  0
    5.4245    1.3078   17.8175 C   0  0  0  0  0  0  0  0  0  0  0  0
    6.5727    0.6627   17.5609 N   0  0  0  0  0  0  0  0  0  0  0  0
    7.1721    0.0310   18.5775 C   0  0  0  0  0  0  0  0  0  0  0  0
    8.0903   -0.5074   18.3396 H   0  0  0  0  0  0  0  0  0  0  0  0
    4.9615    1.8151   16.9751 H   0  0  0  0  0  0  0  0  0  0  0  0
    3.8838    1.8479   19.2241 H   0  0  0  0  0  0  0  0  0  0  0  0
    5.0072    0.6123   21.1387 H   0  0  0  0  0  0  0  0  0  0  0  0
   10.5336    0.3859   21.3691 H   0  0  0  0  0  0  0  0  0  0  0  0
    9.5892    0.6598   19.9142 H   0  0  0  0  0  0  0  0  0  0  0  0
    8.2403    2.3839   20.9552 H   0  0  0  0  0  0  0  0  0  0  0  0
    9.9100    2.7420   21.3821 H   0  0  0  0  0  0  0  0  0  0  0  0
    8.7784    0.9849   24.9719 C   0  0  0  0  0  0  0  0  0  0  0  0
    7.6964    0.9547   24.9609 H   0  0  0  0  0  0  0  0  0  0  0  0
   11.3688    1.9730   22.9878 H   0  0  0  0  0  0  0  0  0  0  0  0
   12.6493    1.1179   24.9420 H   0  0  0  0  0  0  0  0  0  0  0  0
   11.3794    0.2147   26.9257 H   0  0  0  0  0  0  0  0  0  0  0  0
    8.4071    0.5722   27.9568 H   0  0  0  0  0  0  0  0  0  0  0  0
    9.5143   -0.7837   27.8103 H   0  0  0  0  0  0  0  0  0  0  0  0
    7.9729   -0.8246   26.9531 H   0  0  0  0  0  0  0  0  0  0  0  0
  1  2  1  0
  2  3  2  0
  3  4  1  0
  4  5  2  0
  5  6  1  0
  6  7  1  0
  7  8  1  0
  8  9  1  0
  9 10  1  0
 10 11  2  0
 11 12  1  0
 12 13  1  0
 13 14  1  0
 14 15  1  0
 15 16  1  0
 16 17  1  0
 17 18  1  0
 17 19  1  0
 16 20  1  0
 16 21  1  0
 14 22  1  0
 14 23  1  0
 13 24  1  0
 12 25  2  0
 25 26  1  0
 26 27  1  0
 27 28  2  0
 28 29  1  0
 29 30  2  0
 30 31  1  0
 31 32  2  0
 32 33  1  0
 30 34  1  0
 29 35  1  0
 28 36  1  0
  9 37  1  0
  9 38  1  0
  8 39  1  0
  8 40  1  0
  6 41  2  0
 41 42  1  0
  5 43  1  0
  4 44  1  0
  3 45  1  0
  1 46  1  0
  1 47  1  0
  1 48  1  0
 41  2  1  0
 26 10  1  0
 32 27  1  0
 15 13  1  0
 17 15  1  0
M  END
>  <cnnaffinity>  (1) 
-6.47484

>  <filename>  (1) 
Cc1cccc(OCCc2nc(C3CC34CC4)nn2-c2cccnc2)c1

$$$$
