
     RDKit          3D

 45 48  0  0  0  0  0  0  0  0999 V2000
    7.7348    1.5394   29.4911 C   0  0  0  0  0  0  0  0  0  0  0  0
    7.1835    1.8058   28.1099 C   0  0  0  0  0  0  0  0  0  0  0  0
    7.4961    2.9724   27.3976 C   0  0  0  0  0  0  0  0  0  0  0  0
    6.9698    3.1971   26.1220 C   0  0  0  0  0  0  0  0  0  0  0  0
    6.0824    2.2795   25.5431 C   0  0  0  0  0  0  0  0  0  0  0  0
    5.4925    2.5548   24.1691 C   0  0  0  0  0  0  0  0  0  0  0  0
    5.7385    1.5114   23.2317 O   0  0  0  0  0  0  0  0  0  0  0  0
    7.0896    1.4147   22.7913 C   0  0  0  0  0  0  0  0  0  0  0  0
    7.4260    0.0298   22.3342 C   0  0  0  0  0  0  0  0  0  0  0  0
    8.1251   -0.8492   23.0322 N   0  0  0  0  0  0  0  0  0  0  0  0
    8.2608   -1.8906   22.1758 C   0  0  0  0  0  0  0  0  0  0  0  0
    8.9874   -3.1371   22.5253 C   0  0  0  0  0  0  0  0  0  0  0  0
    8.3941   -3.9927   23.6767 C   0  0  0  0  0  0  0  0  0  0  0  0
   10.0480   -4.2339   24.4076 S   0  0  0  0  0  0  0  0  0  0  0  0
   10.3776   -2.9296   23.1766 C   0  0  0  0  0  0  0  0  0  0  0  0
   10.4839   -1.9514   23.6597 H   0  0  0  0  0  0  0  0  0  0  0  0
   11.2451   -3.1211   22.5408 H   0  0  0  0  0  0  0  0  0  0  0  0
    7.7282   -3.4302   24.3412 H   0  0  0  0  0  0  0  0  0  0  0  0
    7.9046   -4.9199   23.3669 H   0  0  0  0  0  0  0  0  0  0  0  0
    9.0446   -3.7215   21.6057 H   0  0  0  0  0  0  0  0  0  0  0  0
    7.7216   -1.7086   20.9927 N   0  0  0  0  0  0  0  0  0  0  0  0
    7.1530   -0.4768   21.0927 N   0  0  0  0  0  0  0  0  0  0  0  0
    6.5179    0.1090   19.9634 C   0  0  0  0  0  0  0  0  0  0  0  0
    5.3696    0.8990   20.0851 C   0  0  0  0  0  0  0  0  0  0  0  0
    4.8398    1.4623   18.9203 C   0  0  0  0  0  0  0  0  0  0  0  0
    5.4718    1.2234   17.6950 C   0  0  0  0  0  0  0  0  0  0  0  0
    6.5635    0.4489   17.5730 N   0  0  0  0  0  0  0  0  0  0  0  0
    7.0609   -0.1056   18.6798 C   0  0  0  0  0  0  0  0  0  0  0  0
    7.9343   -0.7426   18.5659 H   0  0  0  0  0  0  0  0  0  0  0  0
    5.0966    1.6682   16.7773 H   0  0  0  0  0  0  0  0  0  0  0  0
    3.9579    2.0935   18.9479 H   0  0  0  0  0  0  0  0  0  0  0  0
    4.9074    1.0628   21.0593 H   0  0  0  0  0  0  0  0  0  0  0  0
    7.7944    1.6535   23.6021 H   0  0  0  0  0  0  0  0  0  0  0  0
    7.2716    2.1247   21.9705 H   0  0  0  0  0  0  0  0  0  0  0  0
    5.8615    3.5222   23.7820 H   0  0  0  0  0  0  0  0  0  0  0  0
    4.3989    2.6198   24.1984 H   0  0  0  0  0  0  0  0  0  0  0  0
    5.7645    1.1036   26.2492 C   0  0  0  0  0  0  0  0  0  0  0  0
    6.3030    0.8818   27.5220 C   0  0  0  0  0  0  0  0  0  0  0  0
    6.0229   -0.0068   28.0836 H   0  0  0  0  0  0  0  0  0  0  0  0
    5.0903    0.3799   25.7930 H   0  0  0  0  0  0  0  0  0  0  0  0
    7.2465    4.0972   25.5730 H   0  0  0  0  0  0  0  0  0  0  0  0
    8.1317    3.7253   27.8503 H   0  0  0  0  0  0  0  0  0  0  0  0
    8.5781    2.1897   29.7257 H   0  0  0  0  0  0  0  0  0  0  0  0
    8.0756    0.5029   29.6031 H   0  0  0  0  0  0  0  0  0  0  0  0
    6.9586    1.6992   30.2501 H   0  0  0  0  0  0  0  0  0  0  0  0
  1  2  1  0
  2  3  2  0
  3  4  1  0
  4  5  2  0
  5  6  1  0
  6  7  1  0
  7  8  1  0
  8  9  1  0
  9 10  2  0
 10 11  1  0
 11 12  1  0
 12 13  1  0
 13 14  1  0
 14 15  1  0
 15 16  1  0
 15 17  1  0
 13 18  1  0
 13 19  1  0
 12 20  1  0
 11 21  2  0
 21 22  1  0
 22 23  1  0
 23 24  2  0
 24 25  1  0
 25 26  2  0
 26 27  1  0
 27 28  2  0
 28 29  1  0
 26 30  1  0
 25 31  1  0
 24 32  1  0
  8 33  1  0
  8 34  1  0
  6 35  1  0
  6 36  1  0
  5 37  1  0
 37 38  2  0
 38 39  1  0
 37 40  1  0
  4 41  1  0
  3 42  1  0
  1 43  1  0
  1 44  1  0
  1 45  1  0
 38  2  1  0
 22  9  1  0
 28 23  1  0
 15 12  1  0
M  END
>  <cnnaffinity>  (1) 
-5.62576

>  <filename>  (1) 
Cc1ccc(COCc2nc(C3CSC3)nn2-c2cccnc2)cc1

$$$$
