
     RDKit          3D

 47 50  0  0  0  0  0  0  0  0999 V2000
   13.7753    0.8025   23.8391 C   0  0  0  0  0  0  0  0  0  0  0  0
   13.7868    0.6832   23.9630 C   0  0  0  0  0  0  0  0  0  0  0  0
   12.7943    0.5634   25.0802 C   0  0  0  0  0  0  0  0  0  0  0  0
   11.4570    0.1645   25.0965 N   0  0  0  0  0  0  0  0  0  0  0  0
   10.9833   -0.1877   23.8967 C   0  0  0  0  0  0  0  0  0  0  0  0
   11.5845   -0.0019   22.6271 C   0  0  0  0  0  0  0  0  0  0  0  0
   10.8131   -0.2415   21.3006 C   0  0  0  0  0  0  0  0  0  0  0  0
    9.8174    0.8900   20.8917 C   0  0  0  0  0  0  0  0  0  0  0  0
    8.7221    1.0830   21.8934 C   0  0  0  0  0  0  0  0  0  0  0  0
    8.7029    1.9383   22.8981 N   0  0  0  0  0  0  0  0  0  0  0  0
    7.6533    1.5077   23.6468 C   0  0  0  0  0  0  0  0  0  0  0  0
    7.3209    2.1176   24.9281 C   0  0  0  0  0  0  0  0  0  0  0  0
    6.1207    1.8657   25.6194 C   0  0  0  0  0  0  0  0  0  0  0  0
    5.9062    2.5205   26.8241 C   0  0  0  0  0  0  0  0  0  0  0  0
    6.9087    3.3865   27.2874 C   0  0  0  0  0  0  0  0  0  0  0  0
    6.6567    4.2221   28.7903 Cl  0  0  0  0  0  0  0  0  0  0  0  0
    8.0496    3.6201   26.6610 N   0  0  0  0  0  0  0  0  0  0  0  0
    8.2536    2.9869   25.5006 C   0  0  0  0  0  0  0  0  0  0  0  0
    9.2081    3.1780   25.0128 H   0  0  0  0  0  0  0  0  0  0  0  0
    5.0056    2.3816   27.4070 H   0  0  0  0  0  0  0  0  0  0  0  0
    5.3845    1.1670   25.2168 H   0  0  0  0  0  0  0  0  0  0  0  0
    7.0012    0.4810   23.1350 N   0  0  0  0  0  0  0  0  0  0  0  0
    7.7029    0.2042   22.0124 N   0  0  0  0  0  0  0  0  0  0  0  0
    7.2097   -0.7535   21.0266 C   0  0  0  0  0  0  0  0  0  0  0  0
    6.5486   -0.0759   19.8432 C   0  0  0  0  0  0  0  0  0  0  0  0
    5.3941    0.6854   20.0597 C   0  0  0  0  0  0  0  0  0  0  0  0
    4.8289    1.3663   18.9810 C   0  0  0  0  0  0  0  0  0  0  0  0
    5.4409    1.2679   17.7279 C   0  0  0  0  0  0  0  0  0  0  0  0
    6.5404    0.5351   17.4982 N   0  0  0  0  0  0  0  0  0  0  0  0
    7.0715   -0.1162   18.5420 C   0  0  0  0  0  0  0  0  0  0  0  0
    7.9707   -0.6972   18.3254 H   0  0  0  0  0  0  0  0  0  0  0  0
    5.0278    1.7948   16.8693 H   0  0  0  0  0  0  0  0  0  0  0  0
    3.9408    1.9773   19.1006 H   0  0  0  0  0  0  0  0  0  0  0  0
    4.9695    0.7505   21.0646 H   0  0  0  0  0  0  0  0  0  0  0  0
    8.0465   -1.3829   20.7030 H   0  0  0  0  0  0  0  0  0  0  0  0
    6.5029   -1.3903   21.5661 H   0  0  0  0  0  0  0  0  0  0  0  0
   10.2929    1.8624   20.7326 H   0  0  0  0  0  0  0  0  0  0  0  0
    9.3746    0.6310   19.9268 H   0  0  0  0  0  0  0  0  0  0  0  0
   10.2358   -1.1907   21.3048 H   0  0  0  0  0  0  0  0  0  0  0  0
   11.5849   -0.3837   20.5384 H   0  0  0  0  0  0  0  0  0  0  0  0
   12.9120    0.4908   22.5635 C   0  0  0  0  0  0  0  0  0  0  0  0
   13.2214    1.3850   22.0184 H   0  0  0  0  0  0  0  0  0  0  0  0
    9.9709   -0.6026   23.9484 H   0  0  0  0  0  0  0  0  0  0  0  0
   13.5108   -0.0776   25.6031 H   0  0  0  0  0  0  0  0  0  0  0  0
   12.7188    3.1376   23.2249 H   0  0  0  0  0  0  0  0  0  0  0  0
   14.9660    0.6137   23.7896 H   0  0  0  0  0  0  0  0  0  0  0  0
   13.3319    3.1415   23.0326 H   0  0  0  0  0  0  0  0  0  0  0  0
  1  2  1  0
  2  3  2  0
  3  4  1  0
  4  5  2  0
  5  6  1  0
  6  7  1  0
  7  8  1  0
  8  9  1  0
  9 10  2  0
 10 11  1  0
 11 12  1  0
 12 13  2  0
 13 14  1  0
 14 15  2  0
 15 16  1  0
 15 17  1  0
 17 18  2  0
 18 19  1  0
 14 20  1  0
 13 21  1  0
 11 22  2  0
 22 23  1  0
 23 24  1  0
 24 25  1  0
 25 26  2  0
 26 27  1  0
 27 28  2  0
 28 29  1  0
 29 30  2  0
 30 31  1  0
 28 32  1  0
 27 33  1  0
 26 34  1  0
 24 35  1  0
 24 36  1  0
  8 37  1  0
  8 38  1  0
  7 39  1  0
  7 40  1  0
  6 41  2  0
 41 42  1  0
  5 43  1  0
  3 44  1  0
  1 45  1  0
  1 46  1  0
  1 47  1  0
 41  2  1  0
 23  9  1  0
 30 25  1  0
 18 12  1  0
M  END
>  <cnnaffinity>  (1) 
-5.90575

>  <filename>  (1) 
Cc1cncc(CCc2nc(-c3ccc(Cl)nc3)nn2Cc2cccnc2)c1

$$$$
