
     RDKit          3D

 45 48  0  0  0  0  0  0  0  0999 V2000
    5.7013    0.8758   25.7406 C   0  0  0  0  0  0  0  0  0  0  0  0
    6.8401    1.7452   25.2667 C   0  0  0  0  0  0  0  0  0  0  0  0
    7.5088    2.6021   26.1537 C   0  0  0  0  0  0  0  0  0  0  0  0
    8.5736    3.3943   25.7171 C   0  0  0  0  0  0  0  0  0  0  0  0
    8.9785    3.3501   24.3824 C   0  0  0  0  0  0  0  0  0  0  0  0
    8.3167    2.5132   23.4683 C   0  0  0  0  0  0  0  0  0  0  0  0
    8.7431    2.4850   22.0104 C   0  0  0  0  0  0  0  0  0  0  0  0
    9.8328    1.5883   21.7844 O   0  0  0  0  0  0  0  0  0  0  0  0
    9.6240    0.4715   20.9341 C   0  0  0  0  0  0  0  0  0  0  0  0
    8.6232   -0.5368   21.4282 C   0  0  0  0  0  0  0  0  0  0  0  0
    8.8215   -1.4014   22.4043 N   0  0  0  0  0  0  0  0  0  0  0  0
    7.6178   -2.0040   22.5328 C   0  0  0  0  0  0  0  0  0  0  0  0
    7.3875   -3.0188   23.5991 C   0  0  0  0  0  0  0  0  0  0  0  0
    6.1953   -2.7107   24.5426 C   0  0  0  0  0  0  0  0  0  0  0  0
    5.3073   -4.2127   24.0231 S   0  0  0  0  0  0  0  0  0  0  0  0
    6.8617   -4.3846   23.0863 C   0  0  0  0  0  0  0  0  0  0  0  0
    7.4556   -5.2483   23.4004 H   0  0  0  0  0  0  0  0  0  0  0  0
    6.6984   -4.4363   22.0053 H   0  0  0  0  0  0  0  0  0  0  0  0
    6.4429   -2.7312   25.6080 H   0  0  0  0  0  0  0  0  0  0  0  0
    5.6464   -1.7907   24.3211 H   0  0  0  0  0  0  0  0  0  0  0  0
    8.3321   -3.0972   24.1401 H   0  0  0  0  0  0  0  0  0  0  0  0
    6.6974   -1.6032   21.6774 N   0  0  0  0  0  0  0  0  0  0  0  0
    7.3508   -0.6663   20.9438 N   0  0  0  0  0  0  0  0  0  0  0  0
    6.6694    0.0022   19.8846 C   0  0  0  0  0  0  0  0  0  0  0  0
    5.4487    0.6340   20.1492 C   0  0  0  0  0  0  0  0  0  0  0  0
    4.8087    1.3054   19.1033 C   0  0  0  0  0  0  0  0  0  0  0  0
    5.4019    1.2918   17.8351 C   0  0  0  0  0  0  0  0  0  0  0  0
    6.5445    0.6437   17.5591 N   0  0  0  0  0  0  0  0  0  0  0  0
    7.1637    0.0169   18.5674 C   0  0  0  0  0  0  0  0  0  0  0  0
    8.0901   -0.5032   18.3202 H   0  0  0  0  0  0  0  0  0  0  0  0
    4.9354    1.8200   17.0085 H   0  0  0  0  0  0  0  0  0  0  0  0
    3.8777    1.8439   19.2654 H   0  0  0  0  0  0  0  0  0  0  0  0
    5.0166    0.5854   21.1499 H   0  0  0  0  0  0  0  0  0  0  0  0
    9.3283    0.7857   19.9287 H   0  0  0  0  0  0  0  0  0  0  0  0
   10.5986   -0.0205   20.8593 H   0  0  0  0  0  0  0  0  0  0  0  0
    7.8917    2.2397   21.3571 H   0  0  0  0  0  0  0  0  0  0  0  0
    9.0897    3.4847   21.7178 H   0  0  0  0  0  0  0  0  0  0  0  0
    7.2583    1.7170   23.9297 C   0  0  0  0  0  0  0  0  0  0  0  0
    6.7270    1.0766   23.2283 H   0  0  0  0  0  0  0  0  0  0  0  0
    9.8059    3.9734   24.0446 H   0  0  0  0  0  0  0  0  0  0  0  0
    9.0823    4.0537   26.4144 H   0  0  0  0  0  0  0  0  0  0  0  0
    7.1935    2.6524   27.1930 H   0  0  0  0  0  0  0  0  0  0  0  0
    5.0171    0.6381   24.9198 H   0  0  0  0  0  0  0  0  0  0  0  0
    5.1118    1.3623   26.5248 H   0  0  0  0  0  0  0  0  0  0  0  0
    6.0639   -0.0721   26.1566 H   0  0  0  0  0  0  0  0  0  0  0  0
  1  2  1  0
  2  3  2  0
  3  4  1  0
  4  5  2  0
  5  6  1  0
  6  7  1  0
  7  8  1  0
  8  9  1  0
  9 10  1  0
 10 11  2  0
 11 12  1  0
 12 13  1  0
 13 14  1  0
 14 15  1  0
 15 16  1  0
 16 17  1  0
 16 18  1  0
 14 19  1  0
 14 20  1  0
 13 21  1  0
 12 22  2  0
 22 23  1  0
 23 24  1  0
 24 25  2  0
 25 26  1  0
 26 27  2  0
 27 28  1  0
 28 29  2  0
 29 30  1  0
 27 31  1  0
 26 32  1  0
 25 33  1  0
  9 34  1  0
  9 35  1  0
  7 36  1  0
  7 37  1  0
  6 38  2  0
 38 39  1  0
  5 40  1  0
  4 41  1  0
  3 42  1  0
  1 43  1  0
  1 44  1  0
  1 45  1  0
 38  2  1  0
 23 10  1  0
 29 24  1  0
 16 13  1  0
M  END
>  <cnnaffinity>  (1) 
-5.5834

>  <filename>  (1) 
Cc1cccc(COCc2nc(C3CSC3)nn2-c2cccnc2)c1

$$$$
