
     RDKit          3D

 47 50  0  0  0  0  0  0  0  0999 V2000
   16.0160   -0.3089   19.6520 C   0  0  0  0  0  0  0  0  0  0  0  0
   14.7226   -0.7979   20.5306 C   0  0  0  0  0  0  0  0  0  0  0  0
   13.7582   -1.7951   20.3317 C   0  0  0  0  0  0  0  0  0  0  0  0
   12.4762   -1.6462   20.8891 C   0  0  0  0  0  0  0  0  0  0  0  0
   12.1071   -0.5317   21.6640 C   0  0  0  0  0  0  0  0  0  0  0  0
   10.6753   -0.1513   21.7750 C   0  0  0  0  0  0  0  0  0  0  0  0
    9.7221   -0.8859   21.2214 N   0  0  0  0  0  0  0  0  0  0  0  0
    8.5968   -0.2009   21.4931 N   0  0  0  0  0  0  0  0  0  0  0  0
    7.3176   -0.7314   21.0342 C   0  0  0  0  0  0  0  0  0  0  0  0
    6.6368    0.0533   19.9309 C   0  0  0  0  0  0  0  0  0  0  0  0
    5.4043    0.6909   20.1121 C   0  0  0  0  0  0  0  0  0  0  0  0
    4.8143    1.3462   19.0281 C   0  0  0  0  0  0  0  0  0  0  0  0
    5.4805    1.3367   17.7994 C   0  0  0  0  0  0  0  0  0  0  0  0
    6.6629    0.7327   17.6042 N   0  0  0  0  0  0  0  0  0  0  0  0
    7.2200    0.1183   18.6541 C   0  0  0  0  0  0  0  0  0  0  0  0
    8.1779   -0.3663   18.4703 H   0  0  0  0  0  0  0  0  0  0  0  0
    5.0429    1.8236   16.9299 H   0  0  0  0  0  0  0  0  0  0  0  0
    3.8643    1.8616   19.1220 H   0  0  0  0  0  0  0  0  0  0  0  0
    4.9085    0.6736   21.0863 H   0  0  0  0  0  0  0  0  0  0  0  0
    6.6409   -0.8373   21.8886 H   0  0  0  0  0  0  0  0  0  0  0  0
    7.5447   -1.7438   20.6905 H   0  0  0  0  0  0  0  0  0  0  0  0
    8.9061    0.9081   22.2085 C   0  0  0  0  0  0  0  0  0  0  0  0
    7.8729    1.7529   22.9095 C   0  0  0  0  0  0  0  0  0  0  0  0
    7.5445    1.1786   24.3266 C   0  0  0  0  0  0  0  0  0  0  0  0
    6.4848    1.8863   25.1223 C   0  0  0  0  0  0  0  0  0  0  0  0
    5.2220    1.4654   24.9938 N   0  0  0  0  0  0  0  0  0  0  0  0
    4.2932    2.0682   25.7383 C   0  0  0  0  0  0  0  0  0  0  0  0
    4.6106    3.1040   26.6031 C   0  0  0  0  0  0  0  0  0  0  0  0
    3.6766    3.7078   27.3519 F   0  0  0  0  0  0  0  0  0  0  0  0
    5.9424    3.4856   26.6575 C   0  0  0  0  0  0  0  0  0  0  0  0
    6.8775    2.8839   25.9228 N   0  0  0  0  0  0  0  0  0  0  0  0
    6.2602    4.2948   27.3163 H   0  0  0  0  0  0  0  0  0  0  0  0
    3.2648    1.7155   25.6488 H   0  0  0  0  0  0  0  0  0  0  0  0
    7.2177    0.1388   24.2114 H   0  0  0  0  0  0  0  0  0  0  0  0
    8.4595    1.1845   24.9274 H   0  0  0  0  0  0  0  0  0  0  0  0
    6.9595    1.7997   22.3017 H   0  0  0  0  0  0  0  0  0  0  0  0
    8.2512    2.7782   22.9882 H   0  0  0  0  0  0  0  0  0  0  0  0
   10.2155    0.9780   22.3747 N   0  0  0  0  0  0  0  0  0  0  0  0
   13.1432    0.2701   22.1676 C   0  0  0  0  0  0  0  0  0  0  0  0
   14.4115    0.0657   21.6477 C   0  0  0  0  0  0  0  0  0  0  0  0
   15.3504    0.8951   22.1275 F   0  0  0  0  0  0  0  0  0  0  0  0
   12.9802    1.1137   22.8349 H   0  0  0  0  0  0  0  0  0  0  0  0
   11.6903   -2.3485   20.7041 H   0  0  0  0  0  0  0  0  0  0  0  0
   13.9612   -2.6838   19.7430 H   0  0  0  0  0  0  0  0  0  0  0  0
   15.9404    0.1092   18.6401 H   0  0  0  0  0  0  0  0  0  0  0  0
   16.3616    0.5855   20.1383 H   0  0  0  0  0  0  0  0  0  0  0  0
   16.8457   -1.0135   19.6500 H   0  0  0  0  0  0  0  0  0  0  0  0
  1  2  1  0
  2  3  2  0
  3  4  1  0
  4  5  2  0
  5  6  1  0
  6  7  2  0
  7  8  1  0
  8  9  1  0
  9 10  1  0
 10 11  2  0
 11 12  1  0
 12 13  2  0
 13 14  1  0
 14 15  2  0
 15 16  1  0
 13 17  1  0
 12 18  1  0
 11 19  1  0
  9 20  1  0
  9 21  1  0
  8 22  1  0
 22 23  1  0
 23 24  1  0
 24 25  1  0
 25 26  2  0
 26 27  1  0
 27 28  2  0
 28 29  1  0
 28 30  1  0
 30 31  2  0
 30 32  1  0
 27 33  1  0
 24 34  1  0
 24 35  1  0
 23 36  1  0
 23 37  1  0
 22 38  2  0
  5 39  1  0
 39 40  2  0
 40 41  1  0
 39 42  1  0
  4 43  1  0
  3 44  1  0
  1 45  1  0
  1 46  1  0
  1 47  1  0
 40  2  1  0
 38  6  1  0
 15 10  1  0
 31 25  1  0
M  END
>  <cnnaffinity>  (1) 
-6.75512

>  <filename>  (1) 
Cc1ccc(-c2nc(CCc3ncc(F)cn3)n(Cc3cccnc3)n2)cc1F

$$$$
