
     RDKit          3D

 55 58  0  0  0  0  0  0  0  0999 V2000
    5.0195    2.8322   23.6174 C   0  0  0  0  0  0  0  0  0  0  0  0
    6.4283    2.8441   23.1158 C   0  0  0  0  0  0  0  0  0  0  0  0
    7.4346    1.9227   23.2988 C   0  0  0  0  0  0  0  0  0  0  0  0
    8.4854    2.3421   22.4621 C   0  0  0  0  0  0  0  0  0  0  0  0
    9.7531    1.5904   22.1944 C   0  0  0  0  0  0  0  0  0  0  0  0
    9.6275    0.4969   21.0897 C   0  0  0  0  0  0  0  0  0  0  0  0
    8.6614   -0.5929   21.4336 C   0  0  0  0  0  0  0  0  0  0  0  0
    8.8583   -1.4191   22.4430 N   0  0  0  0  0  0  0  0  0  0  0  0
    7.6585   -2.0343   22.5957 C   0  0  0  0  0  0  0  0  0  0  0  0
    7.2998   -2.9362   23.7578 C   0  0  0  0  0  0  0  0  0  0  0  0
    8.5104   -3.6915   24.3594 C   0  0  0  0  0  0  0  0  0  0  0  0
    9.4192   -2.8233   25.2524 C   0  0  0  0  0  0  0  0  0  0  0  0
    8.6427   -2.0339   26.3234 C   0  0  0  0  0  0  0  0  0  0  0  0
    9.5680   -1.1474   27.1675 C   0  0  0  0  0  0  0  0  0  0  0  0
   10.2024   -1.7545   27.8190 H   0  0  0  0  0  0  0  0  0  0  0  0
    9.0058   -0.4617   27.8121 H   0  0  0  0  0  0  0  0  0  0  0  0
   10.2250   -0.5411   26.5280 H   0  0  0  0  0  0  0  0  0  0  0  0
    7.5382   -1.2168   25.6318 C   0  0  0  0  0  0  0  0  0  0  0  0
    6.5665   -2.1267   24.8672 C   0  0  0  0  0  0  0  0  0  0  0  0
    6.1023   -2.8306   25.5731 H   0  0  0  0  0  0  0  0  0  0  0  0
    5.7505   -1.5444   24.4261 H   0  0  0  0  0  0  0  0  0  0  0  0
    8.0332   -0.5214   24.9391 H   0  0  0  0  0  0  0  0  0  0  0  0
    6.9965   -0.6062   26.3673 H   0  0  0  0  0  0  0  0  0  0  0  0
    8.1513   -2.7541   26.9978 H   0  0  0  0  0  0  0  0  0  0  0  0
    9.9549   -2.1020   24.6223 H   0  0  0  0  0  0  0  0  0  0  0  0
   10.1769   -3.4642   25.7237 H   0  0  0  0  0  0  0  0  0  0  0  0
    8.1174   -4.5215   24.9648 H   0  0  0  0  0  0  0  0  0  0  0  0
    9.1056   -4.1456   23.5582 H   0  0  0  0  0  0  0  0  0  0  0  0
    6.5965   -3.6614   23.3324 H   0  0  0  0  0  0  0  0  0  0  0  0
    6.7448   -1.6759   21.7102 N   0  0  0  0  0  0  0  0  0  0  0  0
    7.3992   -0.7618   20.9376 N   0  0  0  0  0  0  0  0  0  0  0  0
    6.7019   -0.0676   19.9049 C   0  0  0  0  0  0  0  0  0  0  0  0
    5.5085    0.6080   20.1857 C   0  0  0  0  0  0  0  0  0  0  0  0
    4.8868    1.3181   19.1513 C   0  0  0  0  0  0  0  0  0  0  0  0
    5.4638    1.2975   17.8751 C   0  0  0  0  0  0  0  0  0  0  0  0
    6.5828    0.6140   17.5879 N   0  0  0  0  0  0  0  0  0  0  0  0
    7.1813   -0.0508   18.5840 C   0  0  0  0  0  0  0  0  0  0  0  0
    8.0785   -0.6105   18.3189 H   0  0  0  0  0  0  0  0  0  0  0  0
    5.0052    1.8398   17.0501 H   0  0  0  0  0  0  0  0  0  0  0  0
    3.9671    1.8743   19.3111 H   0  0  0  0  0  0  0  0  0  0  0  0
    5.0857    0.5382   21.1886 H   0  0  0  0  0  0  0  0  0  0  0  0
    9.3448    0.9490   20.1378 H   0  0  0  0  0  0  0  0  0  0  0  0
   10.6056    0.0282   20.9420 H   0  0  0  0  0  0  0  0  0  0  0  0
   10.5197    2.3158   21.9097 H   0  0  0  0  0  0  0  0  0  0  0  0
   10.0636    1.1187   23.1365 H   0  0  0  0  0  0  0  0  0  0  0  0
    8.1748    3.4646   21.8381 N   0  0  0  0  0  0  0  0  0  0  0  0
    6.9282    3.7623   22.2422 N   0  0  0  0  0  0  0  0  0  0  0  0
    6.2532    4.9305   21.7053 C   0  0  0  0  0  0  0  0  0  0  0  0
    6.0135    5.6463   22.5000 H   0  0  0  0  0  0  0  0  0  0  0  0
    6.9301    5.3979   20.9871 H   0  0  0  0  0  0  0  0  0  0  0  0
    5.3361    4.6225   21.1921 H   0  0  0  0  0  0  0  0  0  0  0  0
    7.4311    1.0387   23.9240 H   0  0  0  0  0  0  0  0  0  0  0  0
    4.3572    2.3711   22.8744 H   0  0  0  0  0  0  0  0  0  0  0  0
    4.9358    2.2313   24.5233 H   0  0  0  0  0  0  0  0  0  0  0  0
    4.6381    3.8302   23.8500 H   0  0  0  0  0  0  0  0  0  0  0  0
  1  2  1  0
  2  3  2  0
  3  4  1  0
  4  5  1  0
  5  6  1  0
  6  7  1  0
  7  8  2  0
  8  9  1  0
  9 10  1  0
 10 11  1  0
 11 12  1  0
 12 13  1  0
 13 14  1  0
 14 15  1  0
 14 16  1  0
 14 17  1  0
 13 18  1  0
 18 19  1  0
 19 20  1  0
 19 21  1  0
 18 22  1  0
 18 23  1  0
 13 24  1  0
 12 25  1  0
 12 26  1  0
 11 27  1  0
 11 28  1  0
 10 29  1  0
  9 30  2  0
 30 31  1  0
 31 32  1  0
 32 33  2  0
 33 34  1  0
 34 35  2  0
 35 36  1  0
 36 37  2  0
 37 38  1  0
 35 39  1  0
 34 40  1  0
 33 41  1  0
  6 42  1  0
  6 43  1  0
  5 44  1  0
  5 45  1  0
  4 46  2  0
 46 47  1  0
 47 48  1  0
 48 49  1  0
 48 50  1  0
 48 51  1  0
  3 52  1  0
  1 53  1  0
  1 54  1  0
  1 55  1  0
 47  2  1  0
 31  7  1  0
 37 32  1  0
 19 10  1  0
M  END
>  <cnnaffinity>  (1) 
-6.38029

>  <filename>  (1) 
Cc1cc(CCc2nc(C3CCC(C)CC3)nn2-c2cccnc2)nn1C

$$$$
