
     RDKit          3D

 55 58  0  0  0  0  0  0  0  0999 V2000
    1.2430   -2.7363   28.2197 C   0  0  0  0  0  0  0  0  0  0  0  0
    2.3769   -2.7827   27.1898 C   0  0  0  0  0  0  0  0  0  0  0  0
    3.6388   -3.4650   27.7517 C   0  0  0  0  0  0  0  0  0  0  0  0
    4.7964   -3.5035   26.7409 C   0  0  0  0  0  0  0  0  0  0  0  0
    5.1482   -2.0862   26.2207 C   0  0  0  0  0  0  0  0  0  0  0  0
    6.2702   -2.1093   25.2135 C   0  0  0  0  0  0  0  0  0  0  0  0
    7.3317   -1.3316   25.2901 N   0  0  0  0  0  0  0  0  0  0  0  0
    8.0537   -1.6858   24.1891 N   0  0  0  0  0  0  0  0  0  0  0  0
    9.3021   -1.0877   23.9200 C   0  0  0  0  0  0  0  0  0  0  0  0
   10.4366   -1.6139   23.3187 C   0  0  0  0  0  0  0  0  0  0  0  0
   11.3173   -0.5843   23.2206 N   0  0  0  0  0  0  0  0  0  0  0  0
   12.6234   -0.5112   22.6029 C   0  0  0  0  0  0  0  0  0  0  0  0
   12.8497   -1.4208   22.0486 H   0  0  0  0  0  0  0  0  0  0  0  0
   13.3842   -0.3055   23.3589 H   0  0  0  0  0  0  0  0  0  0  0  0
   12.6115    0.3220   21.8990 H   0  0  0  0  0  0  0  0  0  0  0  0
   10.8474    0.5467   23.7524 N   0  0  0  0  0  0  0  0  0  0  0  0
    9.6337    0.2621   24.1805 C   0  0  0  0  0  0  0  0  0  0  0  0
    9.0375    1.0337   24.6484 H   0  0  0  0  0  0  0  0  0  0  0  0
   10.7178   -2.6156   23.0171 H   0  0  0  0  0  0  0  0  0  0  0  0
    7.3413   -2.6060   23.4734 C   0  0  0  0  0  0  0  0  0  0  0  0
    7.6202   -3.0510   22.0745 C   0  0  0  0  0  0  0  0  0  0  0  0
    6.8658   -2.1920   21.0390 C   0  0  0  0  0  0  0  0  0  0  0  0
    7.3662   -0.7428   20.9831 C   0  0  0  0  0  0  0  0  0  0  0  0
    6.6745    0.0444   19.8930 C   0  0  0  0  0  0  0  0  0  0  0  0
    5.4477    0.6860   20.1279 C   0  0  0  0  0  0  0  0  0  0  0  0
    4.7973    1.3302   19.0735 C   0  0  0  0  0  0  0  0  0  0  0  0
    5.3921    1.3082   17.8091 C   0  0  0  0  0  0  0  0  0  0  0  0
    6.5541    0.6892   17.5502 N   0  0  0  0  0  0  0  0  0  0  0  0
    7.1686    0.0840   18.5766 C   0  0  0  0  0  0  0  0  0  0  0  0
    8.1168   -0.3972   18.3284 H   0  0  0  0  0  0  0  0  0  0  0  0
    4.9177    1.8061   16.9657 H   0  0  0  0  0  0  0  0  0  0  0  0
    3.8553    1.8506   19.2185 H   0  0  0  0  0  0  0  0  0  0  0  0
    5.0072    0.6785   21.1265 H   0  0  0  0  0  0  0  0  0  0  0  0
    7.1914   -0.2627   21.9541 H   0  0  0  0  0  0  0  0  0  0  0  0
    8.4538   -0.7355   20.8245 H   0  0  0  0  0  0  0  0  0  0  0  0
    5.7930   -2.1951   21.2745 H   0  0  0  0  0  0  0  0  0  0  0  0
    6.9484   -2.6442   20.0475 H   0  0  0  0  0  0  0  0  0  0  0  0
    7.2981   -4.0933   22.0070 H   0  0  0  0  0  0  0  0  0  0  0  0
    8.6970   -3.0323   21.8802 H   0  0  0  0  0  0  0  0  0  0  0  0
    6.2344   -2.9181   24.1187 N   0  0  0  0  0  0  0  0  0  0  0  0
    3.8715   -1.4111   25.6483 C   0  0  0  0  0  0  0  0  0  0  0  0
    2.7258   -1.3779   26.6679 C   0  0  0  0  0  0  0  0  0  0  0  0
    3.0025   -0.7358   27.5196 H   0  0  0  0  0  0  0  0  0  0  0  0
    1.8363   -0.9196   26.2137 H   0  0  0  0  0  0  0  0  0  0  0  0
    3.5401   -1.9912   24.7753 H   0  0  0  0  0  0  0  0  0  0  0  0
    4.0995   -0.3975   25.2965 H   0  0  0  0  0  0  0  0  0  0  0  0
    5.5197   -1.4804   27.0585 H   0  0  0  0  0  0  0  0  0  0  0  0
    4.5200   -4.1361   25.8845 H   0  0  0  0  0  0  0  0  0  0  0  0
    5.6790   -3.9704   27.1950 H   0  0  0  0  0  0  0  0  0  0  0  0
    3.3927   -4.4835   28.0820 H   0  0  0  0  0  0  0  0  0  0  0  0
    3.9646   -2.9182   28.6515 H   0  0  0  0  0  0  0  0  0  0  0  0
    2.0356   -3.3792   26.3263 H   0  0  0  0  0  0  0  0  0  0  0  0
    0.9752   -3.7387   28.5734 H   0  0  0  0  0  0  0  0  0  0  0  0
    1.5402   -2.1444   29.0949 H   0  0  0  0  0  0  0  0  0  0  0  0
    0.3387   -2.2771   27.8030 H   0  0  0  0  0  0  0  0  0  0  0  0
  1  2  1  0
  2  3  1  0
  3  4  1  0
  4  5  1  0
  5  6  1  0
  6  7  2  0
  7  8  1  0
  8  9  1  0
  9 10  2  0
 10 11  1  0
 11 12  1  0
 12 13  1  0
 12 14  1  0
 12 15  1  0
 11 16  1  0
 16 17  2  0
 17 18  1  0
 10 19  1  0
  8 20  1  0
 20 21  1  0
 21 22  1  0
 22 23  1  0
 23 24  1  0
 24 25  2  0
 25 26  1  0
 26 27  2  0
 27 28  1  0
 28 29  2  0
 29 30  1  0
 27 31  1  0
 26 32  1  0
 25 33  1  0
 23 34  1  0
 23 35  1  0
 22 36  1  0
 22 37  1  0
 21 38  1  0
 21 39  1  0
 20 40  2  0
  5 41  1  0
 41 42  1  0
 42 43  1  0
 42 44  1  0
 41 45  1  0
 41 46  1  0
  5 47  1  0
  4 48  1  0
  4 49  1  0
  3 50  1  0
  3 51  1  0
  2 52  1  0
  1 53  1  0
  1 54  1  0
  1 55  1  0
 42  2  1  0
 40  6  1  0
 17  9  1  0
 29 24  1  0
M  END
>  <cnnaffinity>  (1) 
-6.08041

>  <filename>  (1) 
CC1CCC(c2nc(CCCc3cccnc3)n(-c3cnn(C)c3)n2)CC1

$$$$
