
     RDKit          3D

 44 47  0  0  0  0  0  0  0  0999 V2000
    6.0733    3.6305   29.1751 C   0  0  0  0  0  0  0  0  0  0  0  0
    6.4008    3.0565   27.8163 C   0  0  0  0  0  0  0  0  0  0  0  0
    7.5332    3.5080   27.1246 C   0  0  0  0  0  0  0  0  0  0  0  0
    7.8687    2.9988   25.8765 C   0  0  0  0  0  0  0  0  0  0  0  0
    7.0839    2.0014   25.2648 C   0  0  0  0  0  0  0  0  0  0  0  0
    7.5261    1.4711   23.9516 C   0  0  0  0  0  0  0  0  0  0  0  0
    6.9119    0.5282   23.2531 N   0  0  0  0  0  0  0  0  0  0  0  0
    7.7268    0.3444   22.1858 N   0  0  0  0  0  0  0  0  0  0  0  0
    7.3776   -0.5924   21.1178 C   0  0  0  0  0  0  0  0  0  0  0  0
    6.6911    0.0586   19.9238 C   0  0  0  0  0  0  0  0  0  0  0  0
    5.4803    0.7412   20.1064 C   0  0  0  0  0  0  0  0  0  0  0  0
    4.8823    1.3493   19.0019 C   0  0  0  0  0  0  0  0  0  0  0  0
    5.5122    1.2507   17.7585 C   0  0  0  0  0  0  0  0  0  0  0  0
    6.6652    0.5961   17.5558 N   0  0  0  0  0  0  0  0  0  0  0  0
    7.2280    0.0189   18.6258 C   0  0  0  0  0  0  0  0  0  0  0  0
    8.1660   -0.5082   18.4374 H   0  0  0  0  0  0  0  0  0  0  0  0
    5.0769    1.7290   16.8864 H   0  0  0  0  0  0  0  0  0  0  0  0
    3.9564    1.9075   19.0926 H   0  0  0  0  0  0  0  0  0  0  0  0
    5.0323    0.8052   21.1003 H   0  0  0  0  0  0  0  0  0  0  0  0
    6.7310   -1.3402   21.5907 H   0  0  0  0  0  0  0  0  0  0  0  0
    8.2983   -1.0992   20.8008 H   0  0  0  0  0  0  0  0  0  0  0  0
    8.7787    1.1836   22.2787 C   0  0  0  0  0  0  0  0  0  0  0  0
    9.9304    1.2656   21.3260 C   0  0  0  0  0  0  0  0  0  0  0  0
   11.1096    0.3841   21.6495 C   0  0  0  0  0  0  0  0  0  0  0  0
   12.0936    0.5722   22.5891 C   0  0  0  0  0  0  0  0  0  0  0  0
   13.0014   -0.5214   22.4961 C   0  0  0  0  0  0  0  0  0  0  0  0
   12.5460   -1.3400   21.4989 C   0  0  0  0  0  0  0  0  0  0  0  0
   11.3828   -0.7891   21.0036 N   0  0  0  0  0  0  0  0  0  0  0  0
   10.8650   -1.1409   20.2089 H   0  0  0  0  0  0  0  0  0  0  0  0
   12.9785   -2.2335   21.0710 H   0  0  0  0  0  0  0  0  0  0  0  0
   13.9274   -0.6421   23.0520 H   0  0  0  0  0  0  0  0  0  0  0  0
   12.1712    1.4167   23.2620 H   0  0  0  0  0  0  0  0  0  0  0  0
    9.5678    1.0918   20.3105 H   0  0  0  0  0  0  0  0  0  0  0  0
   10.2616    2.3070   21.3681 H   0  0  0  0  0  0  0  0  0  0  0  0
    8.6755    1.9169   23.3637 N   0  0  0  0  0  0  0  0  0  0  0  0
    5.9479    1.5291   25.9558 C   0  0  0  0  0  0  0  0  0  0  0  0
    5.6215    2.0531   27.2114 C   0  0  0  0  0  0  0  0  0  0  0  0
    4.7527    1.6703   27.7414 H   0  0  0  0  0  0  0  0  0  0  0  0
    5.3303    0.7481   25.5138 H   0  0  0  0  0  0  0  0  0  0  0  0
    8.7514    3.3596   25.3562 H   0  0  0  0  0  0  0  0  0  0  0  0
    8.1695    4.2648   27.5717 H   0  0  0  0  0  0  0  0  0  0  0  0
    6.5206    3.0403   29.9830 H   0  0  0  0  0  0  0  0  0  0  0  0
    6.4589    4.6500   29.2807 H   0  0  0  0  0  0  0  0  0  0  0  0
    4.9962    3.6691   29.3613 H   0  0  0  0  0  0  0  0  0  0  0  0
  1  2  1  0
  2  3  2  0
  3  4  1  0
  4  5  2  0
  5  6  1  0
  6  7  2  0
  7  8  1  0
  8  9  1  0
  9 10  1  0
 10 11  2  0
 11 12  1  0
 12 13  2  0
 13 14  1  0
 14 15  2  0
 15 16  1  0
 13 17  1  0
 12 18  1  0
 11 19  1  0
  9 20  1  0
  9 21  1  0
  8 22  1  0
 22 23  1  0
 23 24  1  0
 24 25  2  0
 25 26  1  0
 26 27  2  0
 27 28  1  0
 28 29  1  0
 27 30  1  0
 26 31  1  0
 25 32  1  0
 23 33  1  0
 23 34  1  0
 22 35  2  0
  5 36  1  0
 36 37  2  0
 37 38  1  0
 36 39  1  0
  4 40  1  0
  3 41  1  0
  1 42  1  0
  1 43  1  0
  1 44  1  0
 37  2  1  0
 35  6  1  0
 15 10  1  0
 28 24  1  0
M  END
>  <cnnaffinity>  (1) 
-5.77319

>  <filename>  (1) 
Cc1ccc(-c2nc(Cc3ccc[nH]3)n(Cc3cccnc3)n2)cc1

$$$$
