
     RDKit          3D

 48 51  0  0  0  0  0  0  0  0999 V2000
    7.0801    6.0321   26.4093 C   0  0  0  0  0  0  0  0  0  0  0  0
    7.5568    4.9442   25.4765 C   0  0  0  0  0  0  0  0  0  0  0  0
    7.7027    5.1821   24.1068 C   0  0  0  0  0  0  0  0  0  0  0  0
    8.1652    4.1908   23.2345 C   0  0  0  0  0  0  0  0  0  0  0  0
    8.4976    2.9136   23.7128 C   0  0  0  0  0  0  0  0  0  0  0  0
    8.9605    1.8983   22.9434 O   0  0  0  0  0  0  0  0  0  0  0  0
    9.0430    2.0032   21.5245 C   0  0  0  0  0  0  0  0  0  0  0  0
    9.5052    0.6441   20.9968 C   0  0  0  0  0  0  0  0  0  0  0  0
    8.6158   -0.4628   21.4397 C   0  0  0  0  0  0  0  0  0  0  0  0
    8.8381   -1.2765   22.4474 N   0  0  0  0  0  0  0  0  0  0  0  0
    7.6475   -1.9153   22.5929 C   0  0  0  0  0  0  0  0  0  0  0  0
    7.4089   -2.8775   23.7115 C   0  0  0  0  0  0  0  0  0  0  0  0
    8.6572   -3.6213   24.2241 C   0  0  0  0  0  0  0  0  0  0  0  0
    8.0821   -4.9255   24.7802 C   0  0  0  0  0  0  0  0  0  0  0  0
    6.8076   -5.1015   24.1799 O   0  0  0  0  0  0  0  0  0  0  0  0
    6.4684   -4.0252   23.3294 C   0  0  0  0  0  0  0  0  0  0  0  0
    5.4081   -3.7804   23.4822 H   0  0  0  0  0  0  0  0  0  0  0  0
    6.6018   -4.3117   22.2737 H   0  0  0  0  0  0  0  0  0  0  0  0
    8.7156   -5.7963   24.5514 H   0  0  0  0  0  0  0  0  0  0  0  0
    7.9506   -4.8887   25.8731 H   0  0  0  0  0  0  0  0  0  0  0  0
    9.2079   -3.0591   24.9830 H   0  0  0  0  0  0  0  0  0  0  0  0
    9.3443   -3.8178   23.3935 H   0  0  0  0  0  0  0  0  0  0  0  0
    6.9659   -2.3043   24.5352 H   0  0  0  0  0  0  0  0  0  0  0  0
    6.7296   -1.5899   21.7030 N   0  0  0  0  0  0  0  0  0  0  0  0
    7.3615   -0.6622   20.9398 N   0  0  0  0  0  0  0  0  0  0  0  0
    6.6601    0.0101   19.9001 C   0  0  0  0  0  0  0  0  0  0  0  0
    5.4394    0.6428   20.1673 C   0  0  0  0  0  0  0  0  0  0  0  0
    4.8126    1.3097   19.1102 C   0  0  0  0  0  0  0  0  0  0  0  0
    5.4029    1.2954   17.8380 C   0  0  0  0  0  0  0  0  0  0  0  0
    6.5612    0.6734   17.5769 N   0  0  0  0  0  0  0  0  0  0  0  0
    7.1701    0.0541   18.5908 C   0  0  0  0  0  0  0  0  0  0  0  0
    8.1138   -0.4353   18.3677 H   0  0  0  0  0  0  0  0  0  0  0  0
    4.9182    1.7838   16.9941 H   0  0  0  0  0  0  0  0  0  0  0  0
    3.8783    1.8405   19.2613 H   0  0  0  0  0  0  0  0  0  0  0  0
    5.0139    0.6094   21.1749 H   0  0  0  0  0  0  0  0  0  0  0  0
   10.5132    0.4161   21.3454 H   0  0  0  0  0  0  0  0  0  0  0  0
    9.5464    0.6844   19.9078 H   0  0  0  0  0  0  0  0  0  0  0  0
    8.0638    2.2627   21.0952 H   0  0  0  0  0  0  0  0  0  0  0  0
    9.7687    2.7766   21.2398 H   0  0  0  0  0  0  0  0  0  0  0  0
    8.3540    2.6735   25.1027 C   0  0  0  0  0  0  0  0  0  0  0  0
    8.7467    1.1233   25.7955 Cl  0  0  0  0  0  0  0  0  0  0  0  0
    7.8936    3.6733   25.9612 C   0  0  0  0  0  0  0  0  0  0  0  0
    7.7974    3.4647   27.0249 H   0  0  0  0  0  0  0  0  0  0  0  0
    8.2709    4.4132   22.1774 H   0  0  0  0  0  0  0  0  0  0  0  0
    7.4510    6.1636   23.7152 H   0  0  0  0  0  0  0  0  0  0  0  0
    7.9225    6.6164   26.7954 H   0  0  0  0  0  0  0  0  0  0  0  0
    6.4088    6.7370   25.9077 H   0  0  0  0  0  0  0  0  0  0  0  0
    6.5438    5.6317   27.2757 H   0  0  0  0  0  0  0  0  0  0  0  0
  1  2  1  0
  2  3  2  0
  3  4  1  0
  4  5  2  0
  5  6  1  0
  6  7  1  0
  7  8  1  0
  8  9  1  0
  9 10  2  0
 10 11  1  0
 11 12  1  0
 12 13  1  0
 13 14  1  0
 14 15  1  0
 15 16  1  0
 16 17  1  0
 16 18  1  0
 14 19  1  0
 14 20  1  0
 13 21  1  0
 13 22  1  0
 12 23  1  0
 11 24  2  0
 24 25  1  0
 25 26  1  0
 26 27  2  0
 27 28  1  0
 28 29  2  0
 29 30  1  0
 30 31  2  0
 31 32  1  0
 29 33  1  0
 28 34  1  0
 27 35  1  0
  8 36  1  0
  8 37  1  0
  7 38  1  0
  7 39  1  0
  5 40  1  0
 40 41  1  0
 40 42  2  0
 42 43  1  0
  4 44  1  0
  3 45  1  0
  1 46  1  0
  1 47  1  0
  1 48  1  0
 42  2  1  0
 25  9  1  0
 31 26  1  0
 16 12  1  0
M  END
>  <cnnaffinity>  (1) 
-6.14969

>  <filename>  (1) 
Cc1ccc(OCCc2nc(C3CCOC3)nn2-c2cccnc2)c(Cl)c1

$$$$
