
     RDKit          3D

 39 42  0  0  0  0  0  0  0  0999 V2000
    9.7758    6.2778   24.5767 C   0  0  0  0  0  0  0  0  0  0  0  0
    8.9560    5.5637   23.5394 C   0  0  0  0  0  0  0  0  0  0  0  0
    7.8906    6.0477   22.8515 C   0  0  0  0  0  0  0  0  0  0  0  0
    7.2750    4.8405   21.7884 S   0  0  0  0  0  0  0  0  0  0  0  0
    8.5159    3.7548   22.3394 C   0  0  0  0  0  0  0  0  0  0  0  0
    8.6143    2.3325   21.8667 C   0  0  0  0  0  0  0  0  0  0  0  0
    7.6638    1.3583   22.6231 C   0  0  0  0  0  0  0  0  0  0  0  0
    7.7470   -0.0747   22.1923 C   0  0  0  0  0  0  0  0  0  0  0  0
    8.3223   -1.0291   22.8963 N   0  0  0  0  0  0  0  0  0  0  0  0
    8.2641   -2.1101   22.0771 C   0  0  0  0  0  0  0  0  0  0  0  0
    8.8963   -3.4008   22.4639 C   0  0  0  0  0  0  0  0  0  0  0  0
    8.2234   -4.7338   22.2581 C   0  0  0  0  0  0  0  0  0  0  0  0
    8.4519   -4.2279   23.6518 C   0  0  0  0  0  0  0  0  0  0  0  0
    9.2335   -4.6904   24.2580 H   0  0  0  0  0  0  0  0  0  0  0  0
    7.5878   -3.8922   24.2221 H   0  0  0  0  0  0  0  0  0  0  0  0
    7.1961   -4.7314   21.8995 H   0  0  0  0  0  0  0  0  0  0  0  0
    8.8002   -5.5831   21.8989 H   0  0  0  0  0  0  0  0  0  0  0  0
    9.9767   -3.3241   22.3363 H   0  0  0  0  0  0  0  0  0  0  0  0
    7.7205   -1.8801   20.8964 N   0  0  0  0  0  0  0  0  0  0  0  0
    7.3500   -0.5738   20.9816 N   0  0  0  0  0  0  0  0  0  0  0  0
    6.6479    0.0505   19.9066 C   0  0  0  0  0  0  0  0  0  0  0  0
    5.4422    0.7303   20.1197 C   0  0  0  0  0  0  0  0  0  0  0  0
    4.8341    1.3574   19.0283 C   0  0  0  0  0  0  0  0  0  0  0  0
    5.4562    1.2893   17.7782 C   0  0  0  0  0  0  0  0  0  0  0  0
    6.5914    0.6028   17.5599 N   0  0  0  0  0  0  0  0  0  0  0  0
    7.1597   -0.0240   18.5961 C   0  0  0  0  0  0  0  0  0  0  0  0
    8.0608   -0.5982   18.3861 H   0  0  0  0  0  0  0  0  0  0  0  0
    5.0266    1.7923   16.9159 H   0  0  0  0  0  0  0  0  0  0  0  0
    3.9038    1.9026   19.1424 H   0  0  0  0  0  0  0  0  0  0  0  0
    4.9826    0.7475   21.1097 H   0  0  0  0  0  0  0  0  0  0  0  0
    6.6269    1.7010   22.5462 H   0  0  0  0  0  0  0  0  0  0  0  0
    7.9181    1.3609   23.6866 H   0  0  0  0  0  0  0  0  0  0  0  0
    9.6566    2.0328   22.0241 H   0  0  0  0  0  0  0  0  0  0  0  0
    8.4170    2.2971   20.7939 H   0  0  0  0  0  0  0  0  0  0  0  0
    9.2999    4.2615   23.2384 N   0  0  0  0  0  0  0  0  0  0  0  0
    7.4407    7.0294   22.9210 H   0  0  0  0  0  0  0  0  0  0  0  0
   10.5804    6.8674   24.1256 H   0  0  0  0  0  0  0  0  0  0  0  0
    9.1788    6.9479   25.2010 H   0  0  0  0  0  0  0  0  0  0  0  0
   10.2479    5.5414   25.2284 H   0  0  0  0  0  0  0  0  0  0  0  0
  1  2  1  0
  2  3  2  0
  3  4  1  0
  4  5  1  0
  5  6  1  0
  6  7  1  0
  7  8  1  0
  8  9  2  0
  9 10  1  0
 10 11  1  0
 11 12  1  0
 12 13  1  0
 13 14  1  0
 13 15  1  0
 12 16  1  0
 12 17  1  0
 11 18  1  0
 10 19  2  0
 19 20  1  0
 20 21  1  0
 21 22  2  0
 22 23  1  0
 23 24  2  0
 24 25  1  0
 25 26  2  0
 26 27  1  0
 24 28  1  0
 23 29  1  0
 22 30  1  0
  7 31  1  0
  7 32  1  0
  6 33  1  0
  6 34  1  0
  5 35  2  0
  3 36  1  0
  1 37  1  0
  1 38  1  0
  1 39  1  0
 35  2  1  0
 20  8  1  0
 26 21  1  0
 13 11  1  0
M  END
>  <cnnaffinity>  (1) 
-5.63325

>  <filename>  (1) 
Cc1csc(CCc2nc(C3CC3)nn2-c2cccnc2)n1

$$$$
