
     RDKit          3D

 48 51  0  0  0  0  0  0  0  0999 V2000
    6.7384   -6.0097   26.6534 C   0  0  0  0  0  0  0  0  0  0  0  0
    6.9771   -4.9665   25.5946 C   0  0  0  0  0  0  0  0  0  0  0  0
    5.9362   -4.5732   24.7384 C   0  0  0  0  0  0  0  0  0  0  0  0
    6.1431   -3.6247   23.7430 C   0  0  0  0  0  0  0  0  0  0  0  0
    7.4139   -3.0440   23.5768 C   0  0  0  0  0  0  0  0  0  0  0  0
    7.6258   -2.0201   22.5327 C   0  0  0  0  0  0  0  0  0  0  0  0
    6.6828   -1.6298   21.6884 N   0  0  0  0  0  0  0  0  0  0  0  0
    7.3091   -0.7006   20.9326 N   0  0  0  0  0  0  0  0  0  0  0  0
    6.6290   -0.0207   19.8838 C   0  0  0  0  0  0  0  0  0  0  0  0
    5.4205    0.6293   20.1477 C   0  0  0  0  0  0  0  0  0  0  0  0
    4.8002    1.3114   19.0985 C   0  0  0  0  0  0  0  0  0  0  0  0
    5.3921    1.2958   17.8320 C   0  0  0  0  0  0  0  0  0  0  0  0
    6.5373    0.6491   17.5661 N   0  0  0  0  0  0  0  0  0  0  0  0
    7.1421    0.0132   18.5748 C   0  0  0  0  0  0  0  0  0  0  0  0
    8.0842   -0.4855   18.3368 H   0  0  0  0  0  0  0  0  0  0  0  0
    4.9330    1.8200   16.9985 H   0  0  0  0  0  0  0  0  0  0  0  0
    3.8761    1.8550   19.2552 H   0  0  0  0  0  0  0  0  0  0  0  0
    5.0083    0.5964   21.1563 H   0  0  0  0  0  0  0  0  0  0  0  0
    8.5827   -0.5453   21.3924 C   0  0  0  0  0  0  0  0  0  0  0  0
    9.5992    0.3931   20.8444 C   0  0  0  0  0  0  0  0  0  0  0  0
   10.1871    1.3018   21.9074 C   0  0  0  0  0  0  0  0  0  0  0  0
   11.4477    0.9525   22.4182 C   0  0  0  0  0  0  0  0  0  0  0  0
   12.0445    1.6617   23.4601 C   0  0  0  0  0  0  0  0  0  0  0  0
   11.3641    2.7445   24.0142 C   0  0  0  0  0  0  0  0  0  0  0  0
   10.0945    3.0908   23.5547 C   0  0  0  0  0  0  0  0  0  0  0  0
    9.5071    2.3950   22.4842 C   0  0  0  0  0  0  0  0  0  0  0  0
    7.7711    2.8117   22.0676 S   0  0  0  0  0  0  0  0  0  0  0  0
    6.9867    2.6634   23.3454 O   0  0  0  0  0  0  0  0  0  0  0  0
    7.8242    4.6208   21.8481 C   0  0  0  0  0  0  0  0  0  0  0  0
    8.1769    5.1267   22.7465 H   0  0  0  0  0  0  0  0  0  0  0  0
    8.3868    4.9207   20.9694 H   0  0  0  0  0  0  0  0  0  0  0  0
    6.7858    4.9397   21.7045 H   0  0  0  0  0  0  0  0  0  0  0  0
    9.5513    3.8869   24.0552 H   0  0  0  0  0  0  0  0  0  0  0  0
   11.8171    3.3050   24.8204 H   0  0  0  0  0  0  0  0  0  0  0  0
   13.0066    1.3459   23.8569 H   0  0  0  0  0  0  0  0  0  0  0  0
   11.9641    0.0949   21.9920 H   0  0  0  0  0  0  0  0  0  0  0  0
    9.1851    0.9596   20.0105 H   0  0  0  0  0  0  0  0  0  0  0  0
   10.3902   -0.2530   20.4508 H   0  0  0  0  0  0  0  0  0  0  0  0
    8.8161   -1.3861   22.3728 N   0  0  0  0  0  0  0  0  0  0  0  0
    8.4637   -3.4297   24.4313 C   0  0  0  0  0  0  0  0  0  0  0  0
    8.2428   -4.3790   25.4261 C   0  0  0  0  0  0  0  0  0  0  0  0
    9.0578   -4.6649   26.0888 H   0  0  0  0  0  0  0  0  0  0  0  0
    9.4440   -2.9696   24.3156 H   0  0  0  0  0  0  0  0  0  0  0  0
    5.3300   -3.3081   23.0938 H   0  0  0  0  0  0  0  0  0  0  0  0
    4.9483   -5.0106   24.8611 H   0  0  0  0  0  0  0  0  0  0  0  0
    6.9236   -7.0120   26.2557 H   0  0  0  0  0  0  0  0  0  0  0  0
    5.7036   -5.9884   27.0104 H   0  0  0  0  0  0  0  0  0  0  0  0
    7.3935   -5.8701   27.5194 H   0  0  0  0  0  0  0  0  0  0  0  0
  1  2  1  0
  2  3  2  0
  3  4  1  0
  4  5  2  0
  5  6  1  0
  6  7  2  0
  7  8  1  0
  8  9  1  0
  9 10  2  0
 10 11  1  0
 11 12  2  0
 12 13  1  0
 13 14  2  0
 14 15  1  0
 12 16  1  0
 11 17  1  0
 10 18  1  0
  8 19  1  0
 19 20  1  0
 20 21  1  0
 21 22  2  0
 22 23  1  0
 23 24  2  0
 24 25  1  0
 25 26  2  0
 26 27  1  0
 27 28  2  0
 27 29  1  0
 29 30  1  0
 29 31  1  0
 29 32  1  0
 25 33  1  0
 24 34  1  0
 23 35  1  0
 22 36  1  0
 20 37  1  0
 20 38  1  0
 19 39  2  0
  5 40  1  0
 40 41  2  0
 41 42  1  0
 40 43  1  0
  4 44  1  0
  3 45  1  0
  1 46  1  0
  1 47  1  0
  1 48  1  0
 41  2  1  0
 39  6  1  0
 14  9  1  0
 26 21  1  0
M  END
>  <cnnaffinity>  (1) 
-6.17549

>  <filename>  (1) 
Cc1ccc(-c2nc(Cc3ccccc3S(C)=O)n(-c3cccnc3)n2)cc1

$$$$
