
     RDKit          3D

 42 44  0  0  0  0  0  0  0  0999 V2000
    7.0706    0.5033   25.7808 C   0  0  0  0  0  0  0  0  0  0  0  0
    8.0676    1.3129   25.0151 C   0  0  0  0  0  0  0  0  0  0  0  0
    9.3319    1.7353   25.3573 C   0  0  0  0  0  0  0  0  0  0  0  0
    9.8637    2.2906   24.1673 C   0  0  0  0  0  0  0  0  0  0  0  0
   11.2710    2.8073   23.9232 C   0  0  0  0  0  0  0  0  0  0  0  0
   11.4208    4.0805   24.3379 F   0  0  0  0  0  0  0  0  0  0  0  0
   11.6203    2.7673   22.6345 F   0  0  0  0  0  0  0  0  0  0  0  0
   12.1669    2.0615   24.6109 F   0  0  0  0  0  0  0  0  0  0  0  0
    8.9753    2.2374   23.1836 N   0  0  0  0  0  0  0  0  0  0  0  0
    7.8868    1.6655   23.7085 N   0  0  0  0  0  0  0  0  0  0  0  0
    6.8770    1.1821   22.7857 C   0  0  0  0  0  0  0  0  0  0  0  0
    7.2534   -0.1772   22.2643 C   0  0  0  0  0  0  0  0  0  0  0  0
    7.7822   -1.1470   22.9849 N   0  0  0  0  0  0  0  0  0  0  0  0
    8.1727   -2.0594   22.0570 C   0  0  0  0  0  0  0  0  0  0  0  0
    9.0182   -3.2607   22.3824 C   0  0  0  0  0  0  0  0  0  0  0  0
    8.4305   -4.1890   23.4612 C   0  0  0  0  0  0  0  0  0  0  0  0
    7.4015   -4.4985   23.2437 H   0  0  0  0  0  0  0  0  0  0  0  0
    9.0387   -5.0991   23.5221 H   0  0  0  0  0  0  0  0  0  0  0  0
    8.4433   -3.7217   24.4503 H   0  0  0  0  0  0  0  0  0  0  0  0
   10.4524   -2.8105   22.7632 C   0  0  0  0  0  0  0  0  0  0  0  0
   11.0158   -2.4332   21.8999 H   0  0  0  0  0  0  0  0  0  0  0  0
   10.3943   -2.0138   23.5158 H   0  0  0  0  0  0  0  0  0  0  0  0
   11.0250   -3.6355   23.1994 H   0  0  0  0  0  0  0  0  0  0  0  0
    9.0120   -3.8120   21.4427 H   0  0  0  0  0  0  0  0  0  0  0  0
    7.8572   -1.7396   20.8168 N   0  0  0  0  0  0  0  0  0  0  0  0
    7.2075   -0.5534   20.9527 N   0  0  0  0  0  0  0  0  0  0  0  0
    6.5594    0.0684   19.8582 C   0  0  0  0  0  0  0  0  0  0  0  0
    5.3445    0.7389   20.0420 C   0  0  0  0  0  0  0  0  0  0  0  0
    4.7688    1.3822   18.9465 C   0  0  0  0  0  0  0  0  0  0  0  0
    5.4183    1.3272   17.7108 C   0  0  0  0  0  0  0  0  0  0  0  0
    6.5611    0.6431   17.5169 N   0  0  0  0  0  0  0  0  0  0  0  0
    7.1089    0.0177   18.5640 C   0  0  0  0  0  0  0  0  0  0  0  0
    8.0235   -0.5404   18.3714 H   0  0  0  0  0  0  0  0  0  0  0  0
    5.0046    1.8423   16.8456 H   0  0  0  0  0  0  0  0  0  0  0  0
    3.8419    1.9342   19.0553 H   0  0  0  0  0  0  0  0  0  0  0  0
    4.8624    0.7492   21.0184 H   0  0  0  0  0  0  0  0  0  0  0  0
    6.8303    1.9332   21.9945 H   0  0  0  0  0  0  0  0  0  0  0  0
    5.9196    1.1542   23.3092 H   0  0  0  0  0  0  0  0  0  0  0  0
    9.7876    1.6095   26.3318 H   0  0  0  0  0  0  0  0  0  0  0  0
    6.0869    0.9828   25.8284 H   0  0  0  0  0  0  0  0  0  0  0  0
    6.9519   -0.4752   25.3001 H   0  0  0  0  0  0  0  0  0  0  0  0
    7.4155    0.3391   26.8035 H   0  0  0  0  0  0  0  0  0  0  0  0
  1  2  1  0
  2  3  2  0
  3  4  1  0
  4  5  1  0
  5  6  1  0
  5  7  1  0
  5  8  1  0
  4  9  2  0
  9 10  1  0
 10 11  1  0
 11 12  1  0
 12 13  2  0
 13 14  1  0
 14 15  1  0
 15 16  1  0
 16 17  1  0
 16 18  1  0
 16 19  1  0
 15 20  1  0
 20 21  1  0
 20 22  1  0
 20 23  1  0
 15 24  1  0
 14 25  2  0
 25 26  1  0
 26 27  1  0
 27 28  2  0
 28 29  1  0
 29 30  2  0
 30 31  1  0
 31 32  2  0
 32 33  1  0
 30 34  1  0
 29 35  1  0
 28 36  1  0
 11 37  1  0
 11 38  1  0
  3 39  1  0
  1 40  1  0
  1 41  1  0
  1 42  1  0
 10  2  1  0
 26 12  1  0
 32 27  1  0
M  END
>  <cnnaffinity>  (1) 
-6.34021

>  <filename>  (1) 
Cc1cc(C(F)(F)F)nn1Cc1nc(C(C)C)nn1-c1cccnc1

$$$$
