
     RDKit          3D

 43 46  0  0  0  0  0  0  0  0999 V2000
   14.0133    1.5793   23.0697 C   0  0  0  0  0  0  0  0  0  0  0  0
   13.1637    0.4446   22.5632 C   0  0  0  0  0  0  0  0  0  0  0  0
   13.7239   -0.7604   22.1281 C   0  0  0  0  0  0  0  0  0  0  0  0
   12.9264   -1.7422   21.5299 C   0  0  0  0  0  0  0  0  0  0  0  0
   11.5504   -1.5509   21.3901 C   0  0  0  0  0  0  0  0  0  0  0  0
   10.9621   -0.3575   21.8593 C   0  0  0  0  0  0  0  0  0  0  0  0
    9.5027   -0.1048   21.7944 C   0  0  0  0  0  0  0  0  0  0  0  0
    8.6184   -0.9396   21.2716 N   0  0  0  0  0  0  0  0  0  0  0  0
    7.4285   -0.3477   21.5417 N   0  0  0  0  0  0  0  0  0  0  0  0
    6.2060   -0.8283   20.8970 C   0  0  0  0  0  0  0  0  0  0  0  0
    5.8219   -0.0013   19.6852 C   0  0  0  0  0  0  0  0  0  0  0  0
    4.6769    0.8011   19.6393 C   0  0  0  0  0  0  0  0  0  0  0  0
    4.4720    1.6169   18.5240 C   0  0  0  0  0  0  0  0  0  0  0  0
    5.4060    1.5767   17.4853 C   0  0  0  0  0  0  0  0  0  0  0  0
    6.4981    0.7979   17.4967 N   0  0  0  0  0  0  0  0  0  0  0  0
    6.6932    0.0440   18.5837 C   0  0  0  0  0  0  0  0  0  0  0  0
    7.5931   -0.5691   18.5895 H   0  0  0  0  0  0  0  0  0  0  0  0
    5.2816    2.2071   16.6091 H   0  0  0  0  0  0  0  0  0  0  0  0
    3.6221    2.2879   18.4561 H   0  0  0  0  0  0  0  0  0  0  0  0
    3.9614    0.8030   20.4649 H   0  0  0  0  0  0  0  0  0  0  0  0
    5.4027   -0.8022   21.6349 H   0  0  0  0  0  0  0  0  0  0  0  0
    6.3898   -1.8785   20.6413 H   0  0  0  0  0  0  0  0  0  0  0  0
    7.6479    0.8088   22.2081 C   0  0  0  0  0  0  0  0  0  0  0  0
    6.6073    1.6703   22.8842 C   0  0  0  0  0  0  0  0  0  0  0  0
    6.3672    1.2591   24.3207 C   0  0  0  0  0  0  0  0  0  0  0  0
    7.0159    1.5261   25.5042 C   0  0  0  0  0  0  0  0  0  0  0  0
    6.5712    0.6966   26.5047 N   0  0  0  0  0  0  0  0  0  0  0  0
    5.6705   -0.0671   25.9524 C   0  0  0  0  0  0  0  0  0  0  0  0
    5.5054    0.2342   24.6359 N   0  0  0  0  0  0  0  0  0  0  0  0
    4.8652   -0.2243   24.0142 H   0  0  0  0  0  0  0  0  0  0  0  0
    5.1301   -0.8727   26.4402 H   0  0  0  0  0  0  0  0  0  0  0  0
    7.7928    2.2543   25.6997 H   0  0  0  0  0  0  0  0  0  0  0  0
    5.6721    1.6495   22.3158 H   0  0  0  0  0  0  0  0  0  0  0  0
    6.9826    2.6961   22.8526 H   0  0  0  0  0  0  0  0  0  0  0  0
    8.9398    1.0101   22.3433 N   0  0  0  0  0  0  0  0  0  0  0  0
   11.7821    0.6140   22.4595 C   0  0  0  0  0  0  0  0  0  0  0  0
   11.3307    1.5160   22.8685 H   0  0  0  0  0  0  0  0  0  0  0  0
   10.9069   -2.3041   20.9411 H   0  0  0  0  0  0  0  0  0  0  0  0
   13.4245   -2.6161   21.1285 H   0  0  0  0  0  0  0  0  0  0  0  0
   14.7893   -0.9359   22.2387 H   0  0  0  0  0  0  0  0  0  0  0  0
   15.0707    1.3993   22.8508 H   0  0  0  0  0  0  0  0  0  0  0  0
   13.7122    2.5080   22.5698 H   0  0  0  0  0  0  0  0  0  0  0  0
   13.8744    1.7307   24.1461 H   0  0  0  0  0  0  0  0  0  0  0  0
  1  2  1  0
  2  3  2  0
  3  4  1  0
  4  5  2  0
  5  6  1  0
  6  7  1  0
  7  8  2  0
  8  9  1  0
  9 10  1  0
 10 11  1  0
 11 12  2  0
 12 13  1  0
 13 14  2  0
 14 15  1  0
 15 16  2  0
 16 17  1  0
 14 18  1  0
 13 19  1  0
 12 20  1  0
 10 21  1  0
 10 22  1  0
  9 23  1  0
 23 24  1  0
 24 25  1  0
 25 26  2  0
 26 27  1  0
 27 28  2  0
 28 29  1  0
 29 30  1  0
 28 31  1  0
 26 32  1  0
 24 33  1  0
 24 34  1  0
 23 35  2  0
  6 36  2  0
 36 37  1  0
  5 38  1  0
  4 39  1  0
  3 40  1  0
  1 41  1  0
  1 42  1  0
  1 43  1  0
 36  2  1  0
 35  7  1  0
 16 11  1  0
 29 25  1  0
M  END
>  <cnnaffinity>  (1) 
-6.30454

>  <filename>  (1) 
Cc1cccc(-c2nc(Cc3cnc[nH]3)n(Cc3cccnc3)n2)c1

$$$$
