
     RDKit          3D

 48 51  0  0  0  0  0  0  0  0999 V2000
    6.4882    7.3754   24.3961 C   0  0  0  0  0  0  0  0  0  0  0  0
    7.1147    6.0737   23.9709 C   0  0  0  0  0  0  0  0  0  0  0  0
    8.5056    5.9620   23.8313 C   0  0  0  0  0  0  0  0  0  0  0  0
    9.0900    4.7490   23.4669 C   0  0  0  0  0  0  0  0  0  0  0  0
    8.2924    3.6221   23.2402 C   0  0  0  0  0  0  0  0  0  0  0  0
    8.9125    2.3222   22.8198 C   0  0  0  0  0  0  0  0  0  0  0  0
    8.8986    2.2150   21.0064 S   0  0  0  0  0  0  0  0  0  0  0  0
    9.5543    0.5259   20.8792 C   0  0  0  0  0  0  0  0  0  0  0  0
    8.6291   -0.4995   21.4140 C   0  0  0  0  0  0  0  0  0  0  0  0
    8.8523   -1.2892   22.4416 N   0  0  0  0  0  0  0  0  0  0  0  0
    7.6561   -1.9092   22.6040 C   0  0  0  0  0  0  0  0  0  0  0  0
    7.4253   -2.8697   23.7213 C   0  0  0  0  0  0  0  0  0  0  0  0
    8.6660   -3.6769   24.1631 C   0  0  0  0  0  0  0  0  0  0  0  0
    8.0555   -4.9623   24.7321 C   0  0  0  0  0  0  0  0  0  0  0  0
    6.7421   -5.0661   24.1997 O   0  0  0  0  0  0  0  0  0  0  0  0
    6.4152   -3.9689   23.3704 C   0  0  0  0  0  0  0  0  0  0  0  0
    5.3778   -3.6774   23.5724 H   0  0  0  0  0  0  0  0  0  0  0  0
    6.4860   -4.2473   22.3068 H   0  0  0  0  0  0  0  0  0  0  0  0
    8.6308   -5.8576   24.4586 H   0  0  0  0  0  0  0  0  0  0  0  0
    7.9862   -4.9384   25.8295 H   0  0  0  0  0  0  0  0  0  0  0  0
    9.2796   -3.1505   24.8989 H   0  0  0  0  0  0  0  0  0  0  0  0
    9.3028   -3.8924   23.2976 H   0  0  0  0  0  0  0  0  0  0  0  0
    7.0479   -2.2872   24.5697 H   0  0  0  0  0  0  0  0  0  0  0  0
    6.7254   -1.5668   21.7318 N   0  0  0  0  0  0  0  0  0  0  0  0
    7.3658   -0.6749   20.9324 N   0  0  0  0  0  0  0  0  0  0  0  0
    6.6589    0.0014   19.8987 C   0  0  0  0  0  0  0  0  0  0  0  0
    5.4420    0.6396   20.1646 C   0  0  0  0  0  0  0  0  0  0  0  0
    4.8116    1.3083   19.1100 C   0  0  0  0  0  0  0  0  0  0  0  0
    5.4005    1.2963   17.8392 C   0  0  0  0  0  0  0  0  0  0  0  0
    6.5602    0.6746   17.5777 N   0  0  0  0  0  0  0  0  0  0  0  0
    7.1686    0.0506   18.5901 C   0  0  0  0  0  0  0  0  0  0  0  0
    8.1118   -0.4402   18.3631 H   0  0  0  0  0  0  0  0  0  0  0  0
    4.9224    1.7858   16.9939 H   0  0  0  0  0  0  0  0  0  0  0  0
    3.8804    1.8397   19.2607 H   0  0  0  0  0  0  0  0  0  0  0  0
    5.0218    0.6085   21.1734 H   0  0  0  0  0  0  0  0  0  0  0  0
   10.5080    0.4585   21.4092 H   0  0  0  0  0  0  0  0  0  0  0  0
    9.7106    0.3328   19.8219 H   0  0  0  0  0  0  0  0  0  0  0  0
    8.3631    1.4627   23.2198 H   0  0  0  0  0  0  0  0  0  0  0  0
    9.9501    2.2400   23.1575 H   0  0  0  0  0  0  0  0  0  0  0  0
    6.9031    3.7294   23.3694 C   0  0  0  0  0  0  0  0  0  0  0  0
    6.3208    4.9430   23.7333 C   0  0  0  0  0  0  0  0  0  0  0  0
    5.2406    5.0169   23.8366 H   0  0  0  0  0  0  0  0  0  0  0  0
    6.2725    2.8638   23.1737 H   0  0  0  0  0  0  0  0  0  0  0  0
   10.1701    4.6803   23.3476 H   0  0  0  0  0  0  0  0  0  0  0  0
    9.1320    6.8319   24.0126 H   0  0  0  0  0  0  0  0  0  0  0  0
    6.4119    7.4303   25.4872 H   0  0  0  0  0  0  0  0  0  0  0  0
    7.0792    8.2349   24.0667 H   0  0  0  0  0  0  0  0  0  0  0  0
    5.4774    7.4884   23.9929 H   0  0  0  0  0  0  0  0  0  0  0  0
  1  2  1  0
  2  3  2  0
  3  4  1  0
  4  5  2  0
  5  6  1  0
  6  7  1  0
  7  8  1  0
  8  9  1  0
  9 10  2  0
 10 11  1  0
 11 12  1  0
 12 13  1  0
 13 14  1  0
 14 15  1  0
 15 16  1  0
 16 17  1  0
 16 18  1  0
 14 19  1  0
 14 20  1  0
 13 21  1  0
 13 22  1  0
 12 23  1  0
 11 24  2  0
 24 25  1  0
 25 26  1  0
 26 27  2  0
 27 28  1  0
 28 29  2  0
 29 30  1  0
 30 31  2  0
 31 32  1  0
 29 33  1  0
 28 34  1  0
 27 35  1  0
  8 36  1  0
  8 37  1  0
  6 38  1  0
  6 39  1  0
  5 40  1  0
 40 41  2  0
 41 42  1  0
 40 43  1  0
  4 44  1  0
  3 45  1  0
  1 46  1  0
  1 47  1  0
  1 48  1  0
 41  2  1  0
 25  9  1  0
 31 26  1  0
 16 12  1  0
M  END
>  <cnnaffinity>  (1) 
-5.94075

>  <filename>  (1) 
Cc1ccc(CSCc2nc(C3CCOC3)nn2-c2cccnc2)cc1

$$$$
