
     RDKit          3D

 50 53  0  0  0  0  0  0  0  0999 V2000
   14.2369    0.0644   22.9094 C   0  0  0  0  0  0  0  0  0  0  0  0
   12.8275    0.5975   22.8148 C   0  0  0  0  0  0  0  0  0  0  0  0
   12.4503    1.7057   23.5895 C   0  0  0  0  0  0  0  0  0  0  0  0
   11.2546    2.3867   23.3493 C   0  0  0  0  0  0  0  0  0  0  0  0
   10.3787    1.9169   22.3697 C   0  0  0  0  0  0  0  0  0  0  0  0
   10.6523    0.7379   21.6661 C   0  0  0  0  0  0  0  0  0  0  0  0
    9.6138    0.2087   20.6982 C   0  0  0  0  0  0  0  0  0  0  0  0
    8.5633   -0.6263   21.3484 C   0  0  0  0  0  0  0  0  0  0  0  0
    8.7527   -1.4551   22.3517 N   0  0  0  0  0  0  0  0  0  0  0  0
    7.5334   -2.0218   22.5181 C   0  0  0  0  0  0  0  0  0  0  0  0
    7.3241   -2.9549   23.6638 C   0  0  0  0  0  0  0  0  0  0  0  0
    6.8697   -2.1287   24.8997 C   0  0  0  0  0  0  0  0  0  0  0  0
    6.5261   -3.0293   26.0820 N   0  0  0  0  0  4  0  0  0  0  0  0
    7.7354   -3.5152   26.8341 C   0  0  0  0  0  0  0  0  0  0  0  0
    8.3314   -2.6688   27.1886 H   0  0  0  0  0  0  0  0  0  0  0  0
    8.3716   -4.1335   26.1952 H   0  0  0  0  0  0  0  0  0  0  0  0
    7.4252   -4.1206   27.6910 H   0  0  0  0  0  0  0  0  0  0  0  0
    5.6137   -4.1717   25.6216 C   0  0  0  0  0  0  0  0  0  0  0  0
    6.1776   -4.8888   24.3956 C   0  0  0  0  0  0  0  0  0  0  0  0
    6.3901   -3.9732   23.3331 O   0  0  0  0  0  0  0  0  0  0  0  0
    7.1072   -5.4265   24.6430 H   0  0  0  0  0  0  0  0  0  0  0  0
    5.4534   -5.6144   24.0214 H   0  0  0  0  0  0  0  0  0  0  0  0
    5.4766   -4.8726   26.4481 H   0  0  0  0  0  0  0  0  0  0  0  0
    4.6517   -3.7328   25.3500 H   0  0  0  0  0  0  0  0  0  0  0  0
    5.9658   -2.4459   26.7363 H   0  0  0  0  0  0  0  0  0  0  0  0
    7.6703   -1.4389   25.1853 H   0  0  0  0  0  0  0  0  0  0  0  0
    5.9811   -1.5514   24.6260 H   0  0  0  0  0  0  0  0  0  0  0  0
    8.3120   -3.3941   23.8789 H   0  0  0  0  0  0  0  0  0  0  0  0
    6.5897   -1.5789   21.7119 N   0  0  0  0  0  0  0  0  0  0  0  0
    7.2661   -0.7112   20.9180 N   0  0  0  0  0  0  0  0  0  0  0  0
    6.5951   -0.0195   19.8704 C   0  0  0  0  0  0  0  0  0  0  0  0
    5.3919    0.6393   20.1281 C   0  0  0  0  0  0  0  0  0  0  0  0
    4.7844    1.3282   19.0776 C   0  0  0  0  0  0  0  0  0  0  0  0
    5.3866    1.3169   17.8129 C   0  0  0  0  0  0  0  0  0  0  0  0
    6.5339    0.6710   17.5571 N   0  0  0  0  0  0  0  0  0  0  0  0
    7.1226    0.0250   18.5679 C   0  0  0  0  0  0  0  0  0  0  0  0
    8.0633   -0.4737   18.3387 H   0  0  0  0  0  0  0  0  0  0  0  0
    4.9304    1.8376   16.9747 H   0  0  0  0  0  0  0  0  0  0  0  0
    3.8609    1.8752   19.2269 H   0  0  0  0  0  0  0  0  0  0  0  0
    4.9641    0.6057   21.1318 H   0  0  0  0  0  0  0  0  0  0  0  0
    9.1291    1.0471   20.1962 H   0  0  0  0  0  0  0  0  0  0  0  0
   10.0656   -0.4306   19.9354 H   0  0  0  0  0  0  0  0  0  0  0  0
   11.8503    0.0609   21.9500 C   0  0  0  0  0  0  0  0  0  0  0  0
   12.1030   -1.5309   21.2709 Cl  0  0  0  0  0  0  0  0  0  0  0  0
    9.4821    2.4788   22.1174 H   0  0  0  0  0  0  0  0  0  0  0  0
   11.0126    3.2835   23.9068 H   0  0  0  0  0  0  0  0  0  0  0  0
   13.1141    2.0247   24.3847 H   0  0  0  0  0  0  0  0  0  0  0  0
   14.9162    0.6182   22.2462 H   0  0  0  0  0  0  0  0  0  0  0  0
   14.6335    0.1645   23.9201 H   0  0  0  0  0  0  0  0  0  0  0  0
   14.2835   -0.9891   22.6445 H   0  0  0  0  0  0  0  0  0  0  0  0
  1  2  1  0
  2  3  2  0
  3  4  1  0
  4  5  2  0
  5  6  1  0
  6  7  1  0
  7  8  1  0
  8  9  2  0
  9 10  1  0
 10 11  1  0
 11 12  1  0
 12 13  1  0
 13 14  1  0
 14 15  1  0
 14 16  1  0
 14 17  1  0
 13 18  1  0
 18 19  1  0
 19 20  1  0
 19 21  1  0
 19 22  1  0
 18 23  1  0
 18 24  1  0
 13 25  1  0
 12 26  1  0
 12 27  1  0
 11 28  1  0
 10 29  2  0
 29 30  1  0
 30 31  1  0
 31 32  2  0
 32 33  1  0
 33 34  2  0
 34 35  1  0
 35 36  2  0
 36 37  1  0
 34 38  1  0
 33 39  1  0
 32 40  1  0
  7 41  1  0
  7 42  1  0
  6 43  2  0
 43 44  1  0
  5 45  1  0
  4 46  1  0
  3 47  1  0
  1 48  1  0
  1 49  1  0
  1 50  1  0
 43  2  1  0
 30  8  1  0
 36 31  1  0
 20 11  1  0
M  CHG  1  13   1
M  END
>  <cnnaffinity>  (1) 
-6.63455

>  <filename>  (1) 
Cc1cccc(Cc2nc(C3C[NH+](C)CCO3)nn2-c2cccnc2)c1Cl

$$$$
