
     RDKit          3D

 46 49  0  0  0  0  0  0  0  0999 V2000
    6.2781    4.0792   28.6697 C   0  0  0  0  0  0  0  0  0  0  0  0
    6.7077    3.4145   27.3875 C   0  0  0  0  0  0  0  0  0  0  0  0
    7.9387    3.6990   26.7741 C   0  0  0  0  0  0  0  0  0  0  0  0
    8.3227    3.0940   25.5769 C   0  0  0  0  0  0  0  0  0  0  0  0
    7.4613    2.1749   24.9454 C   0  0  0  0  0  0  0  0  0  0  0  0
    7.8450    1.5395   23.6675 C   0  0  0  0  0  0  0  0  0  0  0  0
    7.1546    0.5531   23.1127 N   0  0  0  0  0  0  0  0  0  0  0  0
    7.8827    0.2479   22.0185 N   0  0  0  0  0  0  0  0  0  0  0  0
    7.3826   -0.6899   21.0208 C   0  0  0  0  0  0  0  0  0  0  0  0
    6.6506   -0.0042   19.8828 C   0  0  0  0  0  0  0  0  0  0  0  0
    5.4387    0.6489   20.1365 C   0  0  0  0  0  0  0  0  0  0  0  0
    4.7979    1.3089   19.0859 C   0  0  0  0  0  0  0  0  0  0  0  0
    5.3927    1.2985   17.8212 C   0  0  0  0  0  0  0  0  0  0  0  0
    6.5528    0.6777   17.5607 N   0  0  0  0  0  0  0  0  0  0  0  0
    7.1593    0.0525   18.5771 C   0  0  0  0  0  0  0  0  0  0  0  0
    8.1065   -0.4310   18.3284 H   0  0  0  0  0  0  0  0  0  0  0  0
    4.9237    1.8069   16.9793 H   0  0  0  0  0  0  0  0  0  0  0  0
    3.8695    1.8461   19.2349 H   0  0  0  0  0  0  0  0  0  0  0  0
    5.0305    0.6444   21.1496 H   0  0  0  0  0  0  0  0  0  0  0  0
    8.2290   -1.2774   20.6451 H   0  0  0  0  0  0  0  0  0  0  0  0
    6.7227   -1.3658   21.5727 H   0  0  0  0  0  0  0  0  0  0  0  0
    8.9652    1.0521   21.9620 C   0  0  0  0  0  0  0  0  0  0  0  0
   10.0739    0.8666   20.9782 C   0  0  0  0  0  0  0  0  0  0  0  0
   11.0741   -0.2737   21.3547 C   0  0  0  0  0  0  0  0  0  0  0  0
   11.8008   -0.0094   22.6405 C   0  0  0  0  0  0  0  0  0  0  0  0
   11.4315   -0.4611   23.8128 N   0  0  0  0  0  0  0  0  0  0  0  0
   12.2462    0.1489   24.7352 C   0  0  0  0  0  0  0  0  0  0  0  0
   13.1168    0.9907   24.1056 C   0  0  0  0  0  0  0  0  0  0  0  0
   12.8317    0.8739   22.7598 N   0  0  0  0  0  0  0  0  0  0  0  0
   13.2198    1.4131   21.9985 H   0  0  0  0  0  0  0  0  0  0  0  0
   13.8854    1.6479   24.4638 H   0  0  0  0  0  0  0  0  0  0  0  0
   12.1280   -0.0760   25.7892 H   0  0  0  0  0  0  0  0  0  0  0  0
   11.7913   -0.4482   20.5506 H   0  0  0  0  0  0  0  0  0  0  0  0
   10.5371   -1.2207   21.4831 H   0  0  0  0  0  0  0  0  0  0  0  0
   10.5914    1.8287   20.9051 H   0  0  0  0  0  0  0  0  0  0  0  0
    9.6203    0.6760   20.0012 H   0  0  0  0  0  0  0  0  0  0  0  0
    8.9559    1.8981   22.9689 N   0  0  0  0  0  0  0  0  0  0  0  0
    6.2233    1.8654   25.5469 C   0  0  0  0  0  0  0  0  0  0  0  0
    5.8768    2.4887   26.7348 C   0  0  0  0  0  0  0  0  0  0  0  0
    4.6817    2.1905   27.2819 F   0  0  0  0  0  0  0  0  0  0  0  0
    5.5330    1.1534   25.1010 H   0  0  0  0  0  0  0  0  0  0  0  0
    9.2815    3.3397   25.1242 H   0  0  0  0  0  0  0  0  0  0  0  0
    8.6022    4.4216   27.2459 H   0  0  0  0  0  0  0  0  0  0  0  0
    5.4986    4.8276   28.4878 H   0  0  0  0  0  0  0  0  0  0  0  0
    5.8632    3.3530   29.3758 H   0  0  0  0  0  0  0  0  0  0  0  0
    7.1189    4.5822   29.1568 H   0  0  0  0  0  0  0  0  0  0  0  0
  1  2  1  0
  2  3  2  0
  3  4  1  0
  4  5  2  0
  5  6  1  0
  6  7  2  0
  7  8  1  0
  8  9  1  0
  9 10  1  0
 10 11  2  0
 11 12  1  0
 12 13  2  0
 13 14  1  0
 14 15  2  0
 15 16  1  0
 13 17  1  0
 12 18  1  0
 11 19  1  0
  9 20  1  0
  9 21  1  0
  8 22  1  0
 22 23  1  0
 23 24  1  0
 24 25  1  0
 25 26  2  0
 26 27  1  0
 27 28  2  0
 28 29  1  0
 29 30  1  0
 28 31  1  0
 27 32  1  0
 24 33  1  0
 24 34  1  0
 23 35  1  0
 23 36  1  0
 22 37  2  0
  5 38  1  0
 38 39  2  0
 39 40  1  0
 38 41  1  0
  4 42  1  0
  3 43  1  0
  1 44  1  0
  1 45  1  0
  1 46  1  0
 39  2  1  0
 37  6  1  0
 15 10  1  0
 29 25  1  0
M  END
>  <cnnaffinity>  (1) 
-5.2236

>  <filename>  (1) 
Cc1ccc(-c2nc(CCc3ncc[nH]3)n(Cc3cccnc3)n2)cc1F

$$$$
