
     RDKit          3D

 45 48  0  0  0  0  0  0  0  0999 V2000
   16.0483   -0.2588   19.6480 C   0  0  0  0  0  0  0  0  0  0  0  0
   14.7557   -0.7952   20.5249 C   0  0  0  0  0  0  0  0  0  0  0  0
   13.9407   -1.8828   20.2979 C   0  0  0  0  0  0  0  0  0  0  0  0
   12.5780   -1.5707   20.5549 C   0  0  0  0  0  0  0  0  0  0  0  0
   12.1677   -0.7541   21.6311 C   0  0  0  0  0  0  0  0  0  0  0  0
   10.7390   -0.3866   21.8056 C   0  0  0  0  0  0  0  0  0  0  0  0
    9.7493   -1.0300   21.2062 N   0  0  0  0  0  0  0  0  0  0  0  0
    8.6617   -0.2988   21.5311 N   0  0  0  0  0  0  0  0  0  0  0  0
    7.3279   -0.7218   21.1350 C   0  0  0  0  0  0  0  0  0  0  0  0
    6.7024    0.0743   20.0069 C   0  0  0  0  0  0  0  0  0  0  0  0
    5.4631    0.7081   20.1462 C   0  0  0  0  0  0  0  0  0  0  0  0
    4.8874    1.3242   19.0313 C   0  0  0  0  0  0  0  0  0  0  0  0
    5.5863    1.2994   17.8211 C   0  0  0  0  0  0  0  0  0  0  0  0
    6.7870    0.7197   17.6737 N   0  0  0  0  0  0  0  0  0  0  0  0
    7.3281    0.1337   18.7503 C   0  0  0  0  0  0  0  0  0  0  0  0
    8.3058   -0.3259   18.6076 H   0  0  0  0  0  0  0  0  0  0  0  0
    5.1621    1.7623   16.9298 H   0  0  0  0  0  0  0  0  0  0  0  0
    3.9257    1.8206   19.0886 H   0  0  0  0  0  0  0  0  0  0  0  0
    4.9524    0.7160   21.1142 H   0  0  0  0  0  0  0  0  0  0  0  0
    7.4285   -1.7771   20.8685 H   0  0  0  0  0  0  0  0  0  0  0  0
    6.6905   -0.6634   22.0222 H   0  0  0  0  0  0  0  0  0  0  0  0
    9.0407    0.7628   22.2682 C   0  0  0  0  0  0  0  0  0  0  0  0
    8.0816    1.7181   22.8927 C   0  0  0  0  0  0  0  0  0  0  0  0
    7.6665    1.1257   24.2000 C   0  0  0  0  0  0  0  0  0  0  0  0
    6.5850    0.3984   24.3128 N   0  0  0  0  0  0  0  0  0  0  0  0
    6.6637   -0.1914   25.5643 O   0  0  0  0  0  0  0  0  0  0  0  0
    7.8019    0.1869   26.1697 C   0  0  0  0  0  0  0  0  0  0  0  0
    8.1935   -0.4479   27.4600 C   0  0  0  0  0  0  0  0  0  0  0  0
    8.5473    0.3104   28.1621 H   0  0  0  0  0  0  0  0  0  0  0  0
    9.0353   -1.1264   27.2799 H   0  0  0  0  0  0  0  0  0  0  0  0
    7.3710   -1.0126   27.8974 H   0  0  0  0  0  0  0  0  0  0  0  0
    8.4595    1.0576   25.3700 C   0  0  0  0  0  0  0  0  0  0  0  0
    9.4141    1.5258   25.5390 H   0  0  0  0  0  0  0  0  0  0  0  0
    8.5887    2.6726   23.0413 H   0  0  0  0  0  0  0  0  0  0  0  0
    7.2185    1.8742   22.2442 H   0  0  0  0  0  0  0  0  0  0  0  0
   10.3319    0.7233   22.4968 N   0  0  0  0  0  0  0  0  0  0  0  0
   13.1810   -0.0051   22.2555 C   0  0  0  0  0  0  0  0  0  0  0  0
   14.4502    0.0015   21.7011 C   0  0  0  0  0  0  0  0  0  0  0  0
   15.1843    0.6978   22.1043 H   0  0  0  0  0  0  0  0  0  0  0  0
   12.9341    0.6708   23.0745 H   0  0  0  0  0  0  0  0  0  0  0  0
   12.3266   -0.9539   19.6828 H   0  0  0  0  0  0  0  0  0  0  0  0
   14.2630   -2.7288   19.7009 H   0  0  0  0  0  0  0  0  0  0  0  0
   16.3682    0.6482   20.1387 H   0  0  0  0  0  0  0  0  0  0  0  0
   16.8719   -0.9740   19.6494 H   0  0  0  0  0  0  0  0  0  0  0  0
   15.9430    0.1293   18.6269 H   0  0  0  0  0  0  0  0  0  0  0  0
  1  2  1  0
  2  3  2  0
  3  4  1  0
  4  5  2  0
  5  6  1  0
  6  7  2  0
  7  8  1  0
  8  9  1  0
  9 10  1  0
 10 11  2  0
 11 12  1  0
 12 13  2  0
 13 14  1  0
 14 15  2  0
 15 16  1  0
 13 17  1  0
 12 18  1  0
 11 19  1  0
  9 20  1  0
  9 21  1  0
  8 22  1  0
 22 23  1  0
 23 24  1  0
 24 25  2  0
 25 26  1  0
 26 27  1  0
 27 28  1  0
 28 29  1  0
 28 30  1  0
 28 31  1  0
 27 32  2  0
 32 33  1  0
 23 34  1  0
 23 35  1  0
 22 36  2  0
  5 37  1  0
 37 38  2  0
 38 39  1  0
 37 40  1  0
  4 41  1  0
  3 42  1  0
  1 43  1  0
  1 44  1  0
  1 45  1  0
 38  2  1  0
 36  6  1  0
 15 10  1  0
 32 24  1  0
M  END
>  <cnnaffinity>  (1) 
-6.50802

>  <filename>  (1) 
Cc1ccc(-c2nc(Cc3cc(C)on3)n(Cc3cccnc3)n2)cc1

$$$$
