
     RDKit          3D

 52 55  0  0  0  0  0  0  0  0999 V2000
    5.7378   -5.4691   26.7848 C   0  0  0  0  0  0  0  0  0  0  0  0
    6.4722   -4.6214   25.7503 C   0  0  0  0  0  0  0  0  0  0  0  0
    6.2734   -3.1113   26.0177 C   0  0  0  0  0  0  0  0  0  0  0  0
    6.4603   -2.2241   24.7723 C   0  0  0  0  0  0  0  0  0  0  0  0
    7.4043   -2.8636   23.7281 C   0  0  0  0  0  0  0  0  0  0  0  0
    7.6739   -1.9331   22.5834 C   0  0  0  0  0  0  0  0  0  0  0  0
    6.7375   -1.5765   21.7224 N   0  0  0  0  0  0  0  0  0  0  0  0
    7.3708   -0.6713   20.9346 N   0  0  0  0  0  0  0  0  0  0  0  0
    6.6587    0.0032   19.9011 C   0  0  0  0  0  0  0  0  0  0  0  0
    5.4409    0.6401   20.1690 C   0  0  0  0  0  0  0  0  0  0  0  0
    4.8143    1.3081   19.1110 C   0  0  0  0  0  0  0  0  0  0  0  0
    5.4008    1.2956   17.8382 C   0  0  0  0  0  0  0  0  0  0  0  0
    6.5596    0.6728   17.5757 N   0  0  0  0  0  0  0  0  0  0  0  0
    7.1677    0.0521   18.5923 C   0  0  0  0  0  0  0  0  0  0  0  0
    8.1124   -0.4343   18.3664 H   0  0  0  0  0  0  0  0  0  0  0  0
    4.9212    1.7865   16.9938 H   0  0  0  0  0  0  0  0  0  0  0  0
    3.8823    1.8387   19.2602 H   0  0  0  0  0  0  0  0  0  0  0  0
    5.0218    0.6116   21.1798 H   0  0  0  0  0  0  0  0  0  0  0  0
    8.6480   -0.5180   21.3861 C   0  0  0  0  0  0  0  0  0  0  0  0
    9.5275    0.6094   20.9422 C   0  0  0  0  0  0  0  0  0  0  0  0
    9.0429    2.0143   21.4281 C   0  0  0  0  0  0  0  0  0  0  0  0
    8.8104    2.0883   22.9157 C   0  0  0  0  0  0  0  0  0  0  0  0
    7.6338    1.9201   23.4862 N   0  0  0  0  0  0  0  0  0  0  0  0
    7.8835    1.8520   24.8320 C   0  0  0  0  0  0  0  0  0  0  0  0
    9.2165    1.9932   25.0860 C   0  0  0  0  0  0  0  0  0  0  0  0
    9.8148    2.1525   23.8483 N   0  0  0  0  0  0  0  0  0  0  0  0
   11.2434    2.2194   23.6064 C   0  0  0  0  0  0  0  0  0  0  0  0
   11.7287    2.6040   24.5028 H   0  0  0  0  0  0  0  0  0  0  0  0
   11.6876    1.2426   23.3765 H   0  0  0  0  0  0  0  0  0  0  0  0
   11.4655    2.9092   22.7888 H   0  0  0  0  0  0  0  0  0  0  0  0
    9.7797    2.0083   26.0085 H   0  0  0  0  0  0  0  0  0  0  0  0
    7.0757    1.6965   25.5367 H   0  0  0  0  0  0  0  0  0  0  0  0
    9.7688    2.7764   21.1221 H   0  0  0  0  0  0  0  0  0  0  0  0
    8.0937    2.2584   20.9412 H   0  0  0  0  0  0  0  0  0  0  0  0
   10.5255    0.3954   21.3318 H   0  0  0  0  0  0  0  0  0  0  0  0
    9.5934    0.6093   19.8525 H   0  0  0  0  0  0  0  0  0  0  0  0
    8.8790   -1.3367   22.3966 N   0  0  0  0  0  0  0  0  0  0  0  0
    6.8706   -4.2378   23.2424 C   0  0  0  0  0  0  0  0  0  0  0  0
    6.0564   -4.9859   24.3171 C   0  0  0  0  0  0  0  0  0  0  0  0
    4.9882   -4.7531   24.1986 H   0  0  0  0  0  0  0  0  0  0  0  0
    6.1435   -6.0669   24.1623 H   0  0  0  0  0  0  0  0  0  0  0  0
    7.7282   -4.8447   22.9253 H   0  0  0  0  0  0  0  0  0  0  0  0
    6.2465   -4.0910   22.3531 H   0  0  0  0  0  0  0  0  0  0  0  0
    8.3766   -3.0091   24.2078 H   0  0  0  0  0  0  0  0  0  0  0  0
    6.8295   -1.2408   25.0703 H   0  0  0  0  0  0  0  0  0  0  0  0
    5.4946   -2.0492   24.2909 H   0  0  0  0  0  0  0  0  0  0  0  0
    5.2670   -2.9307   26.4179 H   0  0  0  0  0  0  0  0  0  0  0  0
    6.9656   -2.8022   26.8116 H   0  0  0  0  0  0  0  0  0  0  0  0
    7.5474   -4.8316   25.8419 H   0  0  0  0  0  0  0  0  0  0  0  0
    4.6541   -5.3155   26.7092 H   0  0  0  0  0  0  0  0  0  0  0  0
    6.0383   -5.2079   27.8056 H   0  0  0  0  0  0  0  0  0  0  0  0
    5.9313   -6.5369   26.6355 H   0  0  0  0  0  0  0  0  0  0  0  0
  1  2  1  0
  2  3  1  0
  3  4  1  0
  4  5  1  0
  5  6  1  0
  6  7  2  0
  7  8  1  0
  8  9  1  0
  9 10  2  0
 10 11  1  0
 11 12  2  0
 12 13  1  0
 13 14  2  0
 14 15  1  0
 12 16  1  0
 11 17  1  0
 10 18  1  0
  8 19  1  0
 19 20  1  0
 20 21  1  0
 21 22  1  0
 22 23  2  0
 23 24  1  0
 24 25  2  0
 25 26  1  0
 26 27  1  0
 27 28  1  0
 27 29  1  0
 27 30  1  0
 25 31  1  0
 24 32  1  0
 21 33  1  0
 21 34  1  0
 20 35  1  0
 20 36  1  0
 19 37  2  0
  5 38  1  0
 38 39  1  0
 39 40  1  0
 39 41  1  0
 38 42  1  0
 38 43  1  0
  5 44  1  0
  4 45  1  0
  4 46  1  0
  3 47  1  0
  3 48  1  0
  2 49  1  0
  1 50  1  0
  1 51  1  0
  1 52  1  0
 39  2  1  0
 37  6  1  0
 14  9  1  0
 26 22  1  0
M  END
>  <cnnaffinity>  (1) 
-6.04816

>  <filename>  (1) 
CC1CCC(c2nc(CCc3nccn3C)n(-c3cccnc3)n2)CC1

$$$$
