
     RDKit          3D

 48 51  0  0  0  0  0  0  0  0999 V2000
    4.9338    1.7944   17.0068 H   0  0  0  0  0  0  0  0  0  0  0  0
    5.4116    1.2969   17.8438 C   0  0  0  0  0  0  0  0  0  0  0  0
    6.5791    0.6879   17.5794 N   0  0  0  0  0  0  0  0  0  0  0  0
    7.1949    0.0651   18.5912 C   0  0  0  0  0  0  0  0  0  0  0  0
    8.1379   -0.4185   18.3465 H   0  0  0  0  0  0  0  0  0  0  0  0
    6.6981   -0.0160   19.9270 C   0  0  0  0  0  0  0  0  0  0  0  0
    7.3747   -0.7660   20.8991 N   0  0  0  0  0  0  0  0  0  0  0  0
    6.8278   -1.0606   22.2263 C   0  0  1  0  0  0  0  0  0  0  0  0
    5.7833   -1.3598   22.1231 H   0  0  0  0  0  0  0  0  0  0  0  0
    7.7113   -2.2612   22.6412 C   0  0  0  0  0  0  0  0  0  0  0  0
    7.7674   -2.3647   23.7307 H   0  0  0  0  0  0  0  0  0  0  0  0
    7.2568   -3.1804   22.2588 H   0  0  0  0  0  0  0  0  0  0  0  0
    9.0711   -1.9774   21.9530 C   0  0  0  0  0  0  0  0  0  0  0  0
    9.3485   -2.7922   21.2772 H   0  0  0  0  0  0  0  0  0  0  0  0
    9.8996   -1.8459   22.6578 H   0  0  0  0  0  0  0  0  0  0  0  0
    8.8208   -0.6823   21.1338 C   0  0  2  0  0  0  0  0  0  0  0  0
    9.3759   -0.6917   20.1853 H   0  0  0  0  0  0  0  0  0  0  0  0
    9.1635    0.6069   21.9191 C   0  0  0  0  0  0  0  0  0  0  0  0
    9.9790    0.4002   22.6224 H   0  0  0  0  0  0  0  0  0  0  0  0
    9.5241    1.3603   21.2127 H   0  0  0  0  0  0  0  0  0  0  0  0
    7.9684    1.2269   22.6919 C   0  0  2  0  0  0  0  0  0  0  0  0
    7.4095    1.8546   21.9702 H   0  0  0  0  0  0  0  0  0  0  0  0
    8.4458    2.0776   23.7902 N   0  0  0  0  0  0  0  0  0  0  0  0
    9.3269    3.1502   23.2976 C   0  0  0  0  0  0  0  0  0  0  0  0
    8.8025    3.8091   22.5692 H   0  0  0  0  0  0  0  0  0  0  0  0
   10.1674    2.6847   22.7734 H   0  0  0  0  0  0  0  0  0  0  0  0
    9.9022    3.9549   24.4644 C   0  0  0  0  0  0  0  0  0  0  0  0
   10.4839    3.2212   25.0333 H   0  0  0  0  0  0  0  0  0  0  0  0
   10.5940    4.7189   24.0866 H   0  0  0  0  0  0  0  0  0  0  0  0
    8.8084    4.6046   25.3375 C   0  0  0  0  0  0  0  0  0  0  0  0
    8.2383    5.3065   24.6998 H   0  0  0  0  0  0  0  0  0  0  0  0
    9.3630    5.4014   26.5262 C   0  0  0  0  0  0  0  0  0  0  0  0
   10.0350    6.2092   26.2146 H   0  0  0  0  0  0  0  0  0  0  0  0
    8.5617    5.8510   27.1261 H   0  0  0  0  0  0  0  0  0  0  0  0
    9.9335    4.7550   27.1919 H   0  0  0  0  0  0  0  0  0  0  0  0
    7.8521    3.4824   25.7823 C   0  0  0  0  0  0  0  0  0  0  0  0
    8.3707    2.8221   26.4958 H   0  0  0  0  0  0  0  0  0  0  0  0
    6.9847    3.9058   26.3088 H   0  0  0  0  0  0  0  0  0  0  0  0
    7.3500    2.6608   24.5854 C   0  0  0  0  0  0  0  0  0  0  0  0
    6.7210    3.3228   23.9510 H   0  0  0  0  0  0  0  0  0  0  0  0
    6.7092    1.8545   24.9552 H   0  0  0  0  0  0  0  0  0  0  0  0
    6.9829    0.1425   23.1906 C   0  0  0  0  0  0  0  0  0  0  0  0
    7.3137   -0.2109   24.1745 H   0  0  0  0  0  0  0  0  0  0  0  0
    6.0088    0.6191   23.3383 H   0  0  0  0  0  0  0  0  0  0  0  0
    5.4657    0.6334   20.1669 C   0  0  0  0  0  0  0  0  0  0  0  0
    5.0200    0.6085   21.1593 H   0  0  0  0  0  0  0  0  0  0  0  0
    4.8284    1.2998   19.1164 C   0  0  0  0  0  0  0  0  0  0  0  0
    3.8889    1.8205   19.2684 H   0  0  0  0  0  0  0  0  0  0  0  0
  1  2  1  0
  2  3  2  0
  3  4  1  0
  4  5  1  0
  4  6  2  0
  6  7  1  0
  7  8  1  0
  8  9  1  6
  8 10  1  0
 10 11  1  0
 10 12  1  0
 10 13  1  0
 13 14  1  0
 13 15  1  0
 13 16  1  0
 16 17  1  6
 16 18  1  0
 18 19  1  0
 18 20  1  0
 18 21  1  0
 21 22  1  6
 21 23  1  0
 23 24  1  0
 24 25  1  0
 24 26  1  0
 24 27  1  0
 27 28  1  0
 27 29  1  0
 27 30  1  0
 30 31  1  0
 30 32  1  0
 32 33  1  0
 32 34  1  0
 32 35  1  0
 30 36  1  0
 36 37  1  0
 36 38  1  0
 36 39  1  0
 39 40  1  0
 39 41  1  0
 21 42  1  0
 42 43  1  0
 42 44  1  0
  6 45  1  0
 45 46  1  0
 45 47  2  0
 47 48  1  0
 47  2  1  0
 16  7  1  0
 39 23  1  0
 42  8  1  0
M  END
>  <cnnaffinity>  (1) 
-5.43246

>  <filename>  (1) 
CC1CCN([C@H]2C[C@H]3CC[C@@H](C2)N3c2cccnc2)CC1

$$$$
