
     RDKit          3D

 45 47  0  0  0  0  0  0  0  0999 V2000
    6.0942   -0.0663   24.9111 C   0  0  0  0  0  0  0  0  0  0  0  0
    6.4854    1.1815   24.1523 C   0  0  0  0  0  0  0  0  0  0  0  0
    6.2102    2.4628   24.6715 C   0  0  0  0  0  0  0  0  0  0  0  0
    5.3655    2.6412   26.1903 Cl  0  0  0  0  0  0  0  0  0  0  0  0
    6.5891    3.6356   24.0158 C   0  0  0  0  0  0  0  0  0  0  0  0
    7.2488    3.5494   22.7909 C   0  0  0  0  0  0  0  0  0  0  0  0
    7.5215    2.3073   22.2300 C   0  0  0  0  0  0  0  0  0  0  0  0
    7.1486    1.1227   22.8979 C   0  0  0  0  0  0  0  0  0  0  0  0
    7.4880   -0.1873   22.2793 C   0  0  0  0  0  0  0  0  0  0  0  0
    8.0898   -1.2095   22.8733 N   0  0  0  0  0  0  0  0  0  0  0  0
    8.3261   -2.0647   21.8541 C   0  0  0  0  0  0  0  0  0  0  0  0
    8.8417   -3.4244   22.0709 C   0  0  0  0  0  0  0  0  0  0  0  0
    7.8359   -4.2762   22.8391 C   0  0  0  0  0  0  0  0  0  0  0  0
    8.4184   -5.6523   23.0242 N   0  0  0  0  0  4  0  0  0  0  0  0
    9.0121   -5.8338   24.3998 C   0  0  0  0  0  0  0  0  0  0  0  0
    9.7439   -5.0477   24.6187 H   0  0  0  0  0  0  0  0  0  0  0  0
    8.2391   -5.7864   25.1785 H   0  0  0  0  0  0  0  0  0  0  0  0
    9.5071   -6.8031   24.4642 H   0  0  0  0  0  0  0  0  0  0  0  0
    7.4293   -6.7270   22.7061 C   0  0  0  0  0  0  0  0  0  0  0  0
    7.9159   -7.7072   22.7052 H   0  0  0  0  0  0  0  0  0  0  0  0
    6.6301   -6.7000   23.4586 H   0  0  0  0  0  0  0  0  0  0  0  0
    6.9681   -6.5577   21.7234 H   0  0  0  0  0  0  0  0  0  0  0  0
    9.2080   -5.7094   22.3466 H   0  0  0  0  0  0  0  0  0  0  0  0
    7.5745   -3.8415   23.8104 H   0  0  0  0  0  0  0  0  0  0  0  0
    6.9131   -4.3870   22.2582 H   0  0  0  0  0  0  0  0  0  0  0  0
    8.9440   -3.8621   21.0785 H   0  0  0  0  0  0  0  0  0  0  0  0
    9.8000   -3.3829   22.6020 H   0  0  0  0  0  0  0  0  0  0  0  0
    7.9196   -1.6694   20.6751 N   0  0  0  0  0  0  0  0  0  0  0  0
    7.3326   -0.4761   20.9430 N   0  0  0  0  0  0  0  0  0  0  0  0
    6.5938    0.1350   19.9016 C   0  0  0  0  0  0  0  0  0  0  0  0
    5.3714    0.7815   20.1054 C   0  0  0  0  0  0  0  0  0  0  0  0
    4.7708    1.3855   18.9969 C   0  0  0  0  0  0  0  0  0  0  0  0
    5.4053    1.3210   17.7505 C   0  0  0  0  0  0  0  0  0  0  0  0
    6.5523    0.6489   17.5443 N   0  0  0  0  0  0  0  0  0  0  0  0
    7.1111    0.0523   18.5952 C   0  0  0  0  0  0  0  0  0  0  0  0
    8.0096   -0.5335   18.4260 H   0  0  0  0  0  0  0  0  0  0  0  0
    4.9636    1.7998   16.8788 H   0  0  0  0  0  0  0  0  0  0  0  0
    3.8214    1.9011   19.0881 H   0  0  0  0  0  0  0  0  0  0  0  0
    4.9135    0.8118   21.0967 H   0  0  0  0  0  0  0  0  0  0  0  0
    8.0224    2.2524   21.2646 H   0  0  0  0  0  0  0  0  0  0  0  0
    7.5440    4.4542   22.2671 H   0  0  0  0  0  0  0  0  0  0  0  0
    6.3552    4.5992   24.4566 H   0  0  0  0  0  0  0  0  0  0  0  0
    6.0058   -0.9208   24.2378 H   0  0  0  0  0  0  0  0  0  0  0  0
    5.1605    0.0874   25.4566 H   0  0  0  0  0  0  0  0  0  0  0  0
    6.8671   -0.3262   25.6401 H   0  0  0  0  0  0  0  0  0  0  0  0
  1  2  1  0
  2  3  2  0
  3  4  1  0
  3  5  1  0
  5  6  2  0
  6  7  1  0
  7  8  2  0
  8  9  1  0
  9 10  2  0
 10 11  1  0
 11 12  1  0
 12 13  1  0
 13 14  1  0
 14 15  1  0
 15 16  1  0
 15 17  1  0
 15 18  1  0
 14 19  1  0
 19 20  1  0
 19 21  1  0
 19 22  1  0
 14 23  1  0
 13 24  1  0
 13 25  1  0
 12 26  1  0
 12 27  1  0
 11 28  2  0
 28 29  1  0
 29 30  1  0
 30 31  2  0
 31 32  1  0
 32 33  2  0
 33 34  1  0
 34 35  2  0
 35 36  1  0
 33 37  1  0
 32 38  1  0
 31 39  1  0
  7 40  1  0
  6 41  1  0
  5 42  1  0
  1 43  1  0
  1 44  1  0
  1 45  1  0
  8  2  1  0
 29  9  1  0
 35 30  1  0
M  CHG  1  14   1
M  END
>  <cnnaffinity>  (1) 
-5.57007

>  <filename>  (1) 
Cc1c(Cl)cccc1-c1nc(CC[NH+](C)C)nn1-c1cccnc1

$$$$
