
     RDKit          3D

 44 47  0  0  0  0  0  0  0  0999 V2000
   11.5140    1.5723   24.1340 C   0  0  0  0  0  0  0  0  0  0  0  0
   11.9798    0.5650   23.1124 C   0  0  0  0  0  0  0  0  0  0  0  0
   13.2629    0.0115   23.2193 C   0  0  0  0  0  0  0  0  0  0  0  0
   13.7267   -0.9368   22.3003 C   0  0  0  0  0  0  0  0  0  0  0  0
   12.8685   -1.4165   21.3084 C   0  0  0  0  0  0  0  0  0  0  0  0
   11.5710   -0.8999   21.2295 C   0  0  0  0  0  0  0  0  0  0  0  0
   11.1509    0.1530   22.0486 C   0  0  0  0  0  0  0  0  0  0  0  0
    9.7494    0.7244   21.8266 C   0  0  0  0  0  0  0  0  0  0  0  0
    8.7121   -0.3450   22.0138 C   0  0  0  0  0  0  0  0  0  0  0  0
    8.7437   -1.2177   23.0062 N   0  0  0  0  0  0  0  0  0  0  0  0
    7.6874   -2.0228   22.7564 C   0  0  0  0  0  0  0  0  0  0  0  0
    7.3708   -3.1946   23.6140 C   0  0  0  0  0  0  0  0  0  0  0  0
    8.3338   -4.4158   23.5487 C   0  0  0  0  0  0  0  0  0  0  0  0
    8.3204   -4.9454   25.0020 C   0  0  0  0  0  0  0  0  0  0  0  0
    7.4393   -4.1116   25.7364 O   0  0  0  0  0  0  0  0  0  0  0  0
    7.4078   -2.8498   25.1071 C   0  0  0  0  0  0  0  0  0  0  0  0
    8.3013   -2.2480   25.3523 H   0  0  0  0  0  0  0  0  0  0  0  0
    6.5137   -2.3219   25.4557 H   0  0  0  0  0  0  0  0  0  0  0  0
    9.3279   -4.9185   25.4438 H   0  0  0  0  0  0  0  0  0  0  0  0
    7.9446   -5.9702   25.0856 H   0  0  0  0  0  0  0  0  0  0  0  0
    9.3494   -4.1212   23.2544 H   0  0  0  0  0  0  0  0  0  0  0  0
    7.9895   -5.1712   22.8363 H   0  0  0  0  0  0  0  0  0  0  0  0
    6.3620   -3.5113   23.3366 H   0  0  0  0  0  0  0  0  0  0  0  0
    6.9691   -1.6889   21.7115 N   0  0  0  0  0  0  0  0  0  0  0  0
    7.6224   -0.6015   21.2188 N   0  0  0  0  0  0  0  0  0  0  0  0
    7.0184    0.0646   20.1017 C   0  0  0  0  0  0  0  0  0  0  0  0
    5.7870    0.7055   20.2868 C   0  0  0  0  0  0  0  0  0  0  0  0
    5.1696    1.2933   19.1816 C   0  0  0  0  0  0  0  0  0  0  0  0
    5.7855    1.1892   17.9285 C   0  0  0  0  0  0  0  0  0  0  0  0
    6.9491    0.5509   17.7351 N   0  0  0  0  0  0  0  0  0  0  0  0
    7.5453   -0.0042   18.8017 C   0  0  0  0  0  0  0  0  0  0  0  0
    8.4713   -0.5452   18.6046 H   0  0  0  0  0  0  0  0  0  0  0  0
    5.3195    1.6259   17.0453 H   0  0  0  0  0  0  0  0  0  0  0  0
    4.2175    1.8063   19.2805 H   0  0  0  0  0  0  0  0  0  0  0  0
    5.3285    0.7166   21.2779 H   0  0  0  0  0  0  0  0  0  0  0  0
    9.6551    1.1511   20.8234 H   0  0  0  0  0  0  0  0  0  0  0  0
    9.5415    1.5358   22.5383 H   0  0  0  0  0  0  0  0  0  0  0  0
   10.8170   -1.3235   20.5785 H   0  0  0  0  0  0  0  0  0  0  0  0
   13.2138   -2.1712   20.6077 H   0  0  0  0  0  0  0  0  0  0  0  0
   14.7260   -1.3455   22.4035 H   0  0  0  0  0  0  0  0  0  0  0  0
   13.9107    0.3268   24.0330 H   0  0  0  0  0  0  0  0  0  0  0  0
   12.2798    1.7604   24.8908 H   0  0  0  0  0  0  0  0  0  0  0  0
   10.6229    1.2207   24.6669 H   0  0  0  0  0  0  0  0  0  0  0  0
   11.2678    2.5292   23.6601 H   0  0  0  0  0  0  0  0  0  0  0  0
  1  2  1  0
  2  3  2  0
  3  4  1  0
  4  5  2  0
  5  6  1  0
  6  7  2  0
  7  8  1  0
  8  9  1  0
  9 10  2  0
 10 11  1  0
 11 12  1  0
 12 13  1  0
 13 14  1  0
 14 15  1  0
 15 16  1  0
 16 17  1  0
 16 18  1  0
 14 19  1  0
 14 20  1  0
 13 21  1  0
 13 22  1  0
 12 23  1  0
 11 24  2  0
 24 25  1  0
 25 26  1  0
 26 27  2  0
 27 28  1  0
 28 29  2  0
 29 30  1  0
 30 31  2  0
 31 32  1  0
 29 33  1  0
 28 34  1  0
 27 35  1  0
  8 36  1  0
  8 37  1  0
  6 38  1  0
  5 39  1  0
  4 40  1  0
  3 41  1  0
  1 42  1  0
  1 43  1  0
  1 44  1  0
  7  2  1  0
 25  9  1  0
 31 26  1  0
 16 12  1  0
M  END
>  <cnnaffinity>  (1) 
-6.50698

>  <filename>  (1) 
Cc1ccccc1Cc1nc(C2CCOC2)nn1-c1cccnc1

$$$$
