
     RDKit          3D

 51 54  0  0  0  0  0  0  0  0999 V2000
    6.7889    1.8462   23.0042 C   0  0  0  0  0  0  0  0  0  0  0  0
    8.1701    1.8946   23.6130 C   0  0  0  0  0  0  0  0  0  0  0  0
    8.2780    1.7711   25.0071 C   0  0  0  0  0  0  0  0  0  0  0  0
    9.5199    1.6903   25.6273 C   0  0  0  0  0  0  0  0  0  0  0  0
   10.6849    1.7803   24.8678 C   0  0  0  0  0  0  0  0  0  0  0  0
   10.6332    1.9085   23.4718 C   0  0  0  0  0  0  0  0  0  0  0  0
   11.9228    1.9185   22.6774 C   0  0  0  0  0  0  0  0  0  0  0  0
   12.3066    0.9014   22.5098 H   0  0  0  0  0  0  0  0  0  0  0  0
   11.7988    2.3958   21.7018 H   0  0  0  0  0  0  0  0  0  0  0  0
   12.7207    2.4425   23.2118 H   0  0  0  0  0  0  0  0  0  0  0  0
    9.3619    1.9300   22.8530 C   0  0  0  0  0  0  0  0  0  0  0  0
    9.2777    1.8632   21.4632 O   0  0  0  0  0  0  0  0  0  0  0  0
    9.5847    0.5574   20.9411 C   0  0  0  0  0  0  0  0  0  0  0  0
    8.6351   -0.5299   21.3848 C   0  0  0  0  0  0  0  0  0  0  0  0
    8.8423   -1.3953   22.3663 N   0  0  0  0  0  0  0  0  0  0  0  0
    7.6237   -1.9670   22.5446 C   0  0  0  0  0  0  0  0  0  0  0  0
    7.3374   -2.9019   23.7002 C   0  0  0  0  0  0  0  0  0  0  0  0
    6.6755   -2.1285   24.8737 C   0  0  0  0  0  0  0  0  0  0  0  0
    6.3110   -3.0648   26.0239 C   0  0  0  0  0  0  0  0  0  0  0  0
    5.5045   -4.1445   25.5859 O   0  0  0  0  0  0  0  0  0  0  0  0
    6.1115   -4.9400   24.5831 C   0  0  0  0  0  0  0  0  0  0  0  0
    6.4633   -4.1266   23.3325 C   0  0  0  0  0  0  0  0  0  0  0  0
    6.9820   -4.7789   22.6207 H   0  0  0  0  0  0  0  0  0  0  0  0
    5.5331   -3.7903   22.8558 H   0  0  0  0  0  0  0  0  0  0  0  0
    5.3843   -5.7221   24.3432 H   0  0  0  0  0  0  0  0  0  0  0  0
    7.0113   -5.4372   24.9880 H   0  0  0  0  0  0  0  0  0  0  0  0
    7.2189   -3.4465   26.5230 H   0  0  0  0  0  0  0  0  0  0  0  0
    5.7177   -2.5349   26.7752 H   0  0  0  0  0  0  0  0  0  0  0  0
    7.3434   -1.3367   25.2348 H   0  0  0  0  0  0  0  0  0  0  0  0
    5.7539   -1.6480   24.5195 H   0  0  0  0  0  0  0  0  0  0  0  0
    8.3266   -3.2541   24.0226 H   0  0  0  0  0  0  0  0  0  0  0  0
    6.6907   -1.5377   21.7136 N   0  0  0  0  0  0  0  0  0  0  0  0
    7.3512   -0.6370   20.9372 N   0  0  0  0  0  0  0  0  0  0  0  0
    6.6534    0.0037   19.8762 C   0  0  0  0  0  0  0  0  0  0  0  0
    5.4316    0.6382   20.1199 C   0  0  0  0  0  0  0  0  0  0  0  0
    4.8112    1.3168   19.0688 C   0  0  0  0  0  0  0  0  0  0  0  0
    5.4150    1.3062   17.8059 C   0  0  0  0  0  0  0  0  0  0  0  0
    6.5536    0.6458   17.5468 N   0  0  0  0  0  0  0  0  0  0  0  0
    7.1502    0.0060   18.5602 C   0  0  0  0  0  0  0  0  0  0  0  0
    8.0557   -0.5477   18.3156 H   0  0  0  0  0  0  0  0  0  0  0  0
    4.9590    1.8297   16.9708 H   0  0  0  0  0  0  0  0  0  0  0  0
    3.8802    1.8494   19.2226 H   0  0  0  0  0  0  0  0  0  0  0  0
    4.9995    0.5982   21.1216 H   0  0  0  0  0  0  0  0  0  0  0  0
   10.5929    0.2539   21.2487 H   0  0  0  0  0  0  0  0  0  0  0  0
    9.5622    0.6892   19.8590 H   0  0  0  0  0  0  0  0  0  0  0  0
   11.6528    1.7269   25.3562 H   0  0  0  0  0  0  0  0  0  0  0  0
    9.5748    1.5345   26.6944 H   0  0  0  0  0  0  0  0  0  0  0  0
    7.3679    1.7105   25.6021 H   0  0  0  0  0  0  0  0  0  0  0  0
    6.0752    2.3874   23.6327 H   0  0  0  0  0  0  0  0  0  0  0  0
    6.4356    0.8062   22.9601 H   0  0  0  0  0  0  0  0  0  0  0  0
    6.7482    2.2638   21.9961 H   0  0  0  0  0  0  0  0  0  0  0  0
  1  2  1  0
  2  3  2  0
  3  4  1  0
  4  5  2  0
  5  6  1  0
  6  7  1  0
  7  8  1  0
  7  9  1  0
  7 10  1  0
  6 11  2  0
 11 12  1  0
 12 13  1  0
 13 14  1  0
 14 15  2  0
 15 16  1  0
 16 17  1  0
 17 18  1  0
 18 19  1  0
 19 20  1  0
 20 21  1  0
 21 22  1  0
 22 23  1  0
 22 24  1  0
 21 25  1  0
 21 26  1  0
 19 27  1  0
 19 28  1  0
 18 29  1  0
 18 30  1  0
 17 31  1  0
 16 32  2  0
 32 33  1  0
 33 34  1  0
 34 35  2  0
 35 36  1  0
 36 37  2  0
 37 38  1  0
 38 39  2  0
 39 40  1  0
 37 41  1  0
 36 42  1  0
 35 43  1  0
 13 44  1  0
 13 45  1  0
  5 46  1  0
  4 47  1  0
  3 48  1  0
  1 49  1  0
  1 50  1  0
  1 51  1  0
 11  2  1  0
 33 14  1  0
 39 34  1  0
 22 17  1  0
M  END
>  <cnnaffinity>  (1) 
-6.0506

>  <filename>  (1) 
Cc1cccc(C)c1OCc1nc(C2CCOCC2)nn1-c1cccnc1

$$$$
