
     RDKit          3D

 43 46  0  0  0  0  0  0  0  0999 V2000
    5.3955   -4.2150   22.5073 C   0  0  0  0  0  0  0  0  0  0  0  0
    6.3468   -4.0960   23.6737 C   0  0  0  0  0  0  0  0  0  0  0  0
    6.2508   -4.9814   24.7623 C   0  0  0  0  0  0  0  0  0  0  0  0
    7.1166   -4.9051   25.8601 C   0  0  0  0  0  0  0  0  0  0  0  0
    8.1164   -3.9338   25.8921 C   0  0  0  0  0  0  0  0  0  0  0  0
    8.2384   -3.0524   24.8293 C   0  0  0  0  0  0  0  0  0  0  0  0
    7.3689   -3.1130   23.7212 C   0  0  0  0  0  0  0  0  0  0  0  0
    7.6135   -2.1200   22.6538 C   0  0  0  0  0  0  0  0  0  0  0  0
    6.8045   -1.7404   21.6805 N   0  0  0  0  0  0  0  0  0  0  0  0
    7.5068   -0.7562   21.0459 N   0  0  0  0  0  0  0  0  0  0  0  0
    6.8404   -0.0813   19.9721 C   0  0  0  0  0  0  0  0  0  0  0  0
    5.6206    0.5553   20.2240 C   0  0  0  0  0  0  0  0  0  0  0  0
    4.9860    1.2352   19.1820 C   0  0  0  0  0  0  0  0  0  0  0  0
    5.5787    1.2366   17.9132 C   0  0  0  0  0  0  0  0  0  0  0  0
    6.7150    0.5736   17.6486 N   0  0  0  0  0  0  0  0  0  0  0  0
    7.3227   -0.0780   18.6517 C   0  0  0  0  0  0  0  0  0  0  0  0
    8.2172   -0.6380   18.3841 H   0  0  0  0  0  0  0  0  0  0  0  0
    5.1176    1.7748   17.0839 H   0  0  0  0  0  0  0  0  0  0  0  0
    4.0508    1.7609   19.3422 H   0  0  0  0  0  0  0  0  0  0  0  0
    5.1891    0.5056   21.2247 H   0  0  0  0  0  0  0  0  0  0  0  0
    8.6988   -0.5797   21.7041 C   0  0  0  0  0  0  0  0  0  0  0  0
    9.7314    0.4905   21.5566 C   0  0  0  0  0  0  0  0  0  0  0  0
    9.1779    1.8083   21.9802 C   0  0  0  0  0  0  0  0  0  0  0  0
    9.2363    2.2735   23.2071 N   0  0  0  0  0  0  0  0  0  0  0  0
    8.5187    3.4275   23.1948 N   0  0  0  0  0  0  0  0  0  0  0  0
    8.3005    4.1177   24.4352 C   0  0  0  0  0  0  0  0  0  0  0  0
    6.9689    4.1974   24.7062 F   0  0  0  0  0  0  0  0  0  0  0  0
    8.7740    5.3887   24.3686 F   0  0  0  0  0  0  0  0  0  0  0  0
    8.8249    3.5463   25.2028 H   0  0  0  0  0  0  0  0  0  0  0  0
    7.9837    3.6701   21.9558 C   0  0  0  0  0  0  0  0  0  0  0  0
    8.4003    2.6382   21.1546 C   0  0  0  0  0  0  0  0  0  0  0  0
    8.1451    2.3803   20.1372 H   0  0  0  0  0  0  0  0  0  0  0  0
    7.3225    4.5114   21.7653 H   0  0  0  0  0  0  0  0  0  0  0  0
   10.0622    0.5386   20.5225 H   0  0  0  0  0  0  0  0  0  0  0  0
   10.5769    0.2080   22.1919 H   0  0  0  0  0  0  0  0  0  0  0  0
    8.7882   -1.4365   22.6764 N   0  0  0  0  0  0  0  0  0  0  0  0
    9.0207   -2.2967   24.8309 H   0  0  0  0  0  0  0  0  0  0  0  0
    8.8048   -3.8561   26.7305 H   0  0  0  0  0  0  0  0  0  0  0  0
    7.0181   -5.6007   26.6891 H   0  0  0  0  0  0  0  0  0  0  0  0
    5.4809   -5.7503   24.7516 H   0  0  0  0  0  0  0  0  0  0  0  0
    4.7364   -5.0822   22.6133 H   0  0  0  0  0  0  0  0  0  0  0  0
    4.7819   -3.3137   22.4106 H   0  0  0  0  0  0  0  0  0  0  0  0
    5.9428   -4.3092   21.5646 H   0  0  0  0  0  0  0  0  0  0  0  0
  1  2  1  0
  2  3  2  0
  3  4  1  0
  4  5  2  0
  5  6  1  0
  6  7  2  0
  7  8  1  0
  8  9  2  0
  9 10  1  0
 10 11  1  0
 11 12  2  0
 12 13  1  0
 13 14  2  0
 14 15  1  0
 15 16  2  0
 16 17  1  0
 14 18  1  0
 13 19  1  0
 12 20  1  0
 10 21  1  0
 21 22  1  0
 22 23  1  0
 23 24  2  0
 24 25  1  0
 25 26  1  0
 26 27  1  0
 26 28  1  0
 26 29  1  0
 25 30  1  0
 30 31  2  0
 31 32  1  0
 30 33  1  0
 22 34  1  0
 22 35  1  0
 21 36  2  0
  6 37  1  0
  5 38  1  0
  4 39  1  0
  3 40  1  0
  1 41  1  0
  1 42  1  0
  1 43  1  0
  7  2  1  0
 36  8  1  0
 16 11  1  0
 31 23  1  0
M  END
>  <cnnaffinity>  (1) 
-5.97026

>  <filename>  (1) 
Cc1ccccc1-c1nc(Cc2ccn(C(F)F)n2)n(-c2cccnc2)n1

$$$$
