
     RDKit          3D

 49 51  0  0  0  0  0  0  0  0999 V2000
    8.6349    2.7246   22.1235 C   0  0  0  0  0  0  0  0  0  0  0  0
    9.9920    2.1282   22.4401 C   0  0  0  0  0  0  0  0  0  0  0  0
   10.7611    2.6994   23.4588 C   0  0  0  0  0  0  0  0  0  0  0  0
   11.9953    2.1617   23.8092 C   0  0  0  0  0  0  0  0  0  0  0  0
   12.4831    1.0290   23.1642 C   0  0  0  0  0  0  0  0  0  0  0  0
   11.7197    0.3910   22.1801 C   0  0  0  0  0  0  0  0  0  0  0  0
   12.1820   -0.9537   21.6562 C   0  0  0  0  0  0  0  0  0  0  0  0
   11.4839   -1.7351   21.9797 H   0  0  0  0  0  0  0  0  0  0  0  0
   13.1835   -1.2032   22.0320 H   0  0  0  0  0  0  0  0  0  0  0  0
   12.1871   -0.9767   20.5621 H   0  0  0  0  0  0  0  0  0  0  0  0
   10.5000    0.9889   21.7716 C   0  0  0  0  0  0  0  0  0  0  0  0
    9.6338    0.3069   20.7340 C   0  0  0  0  0  0  0  0  0  0  0  0
    8.6116   -0.5796   21.3555 C   0  0  0  0  0  0  0  0  0  0  0  0
    8.8384   -1.4255   22.3361 N   0  0  0  0  0  0  0  0  0  0  0  0
    7.6198   -1.9812   22.5515 C   0  0  0  0  0  0  0  0  0  0  0  0
    7.3879   -2.9557   23.6609 C   0  0  0  0  0  0  0  0  0  0  0  0
    7.0640   -2.2813   24.8706 O   0  0  0  0  0  0  0  0  0  0  0  0
    6.9959   -3.0954   26.0340 C   0  0  0  0  0  0  0  0  0  0  0  0
    5.8555   -2.5505   26.8790 C   0  0  0  0  0  0  0  0  0  0  0  0
    6.0654   -1.5198   27.1834 H   0  0  0  0  0  0  0  0  0  0  0  0
    5.7118   -3.1609   27.7769 H   0  0  0  0  0  0  0  0  0  0  0  0
    4.9258   -2.5543   26.3020 H   0  0  0  0  0  0  0  0  0  0  0  0
    8.3344   -3.0685   26.7657 C   0  0  0  0  0  0  0  0  0  0  0  0
    8.2905   -3.6887   27.6671 H   0  0  0  0  0  0  0  0  0  0  0  0
    9.1413   -3.4497   26.1297 H   0  0  0  0  0  0  0  0  0  0  0  0
    8.5871   -2.0422   27.0542 H   0  0  0  0  0  0  0  0  0  0  0  0
    6.7586   -4.1365   25.7495 H   0  0  0  0  0  0  0  0  0  0  0  0
    8.3124   -3.5454   23.7697 H   0  0  0  0  0  0  0  0  0  0  0  0
    6.5682   -3.6235   23.3618 H   0  0  0  0  0  0  0  0  0  0  0  0
    6.6735   -1.5856   21.7233 N   0  0  0  0  0  0  0  0  0  0  0  0
    7.3157   -0.6920   20.9343 N   0  0  0  0  0  0  0  0  0  0  0  0
    6.6346   -0.0126   19.8889 C   0  0  0  0  0  0  0  0  0  0  0  0
    5.4246    0.6370   20.1512 C   0  0  0  0  0  0  0  0  0  0  0  0
    4.8021    1.3129   19.0996 C   0  0  0  0  0  0  0  0  0  0  0  0
    5.3945    1.2983   17.8310 C   0  0  0  0  0  0  0  0  0  0  0  0
    6.5459    0.6624   17.5672 N   0  0  0  0  0  0  0  0  0  0  0  0
    7.1503    0.0311   18.5798 C   0  0  0  0  0  0  0  0  0  0  0  0
    8.0986   -0.4524   18.3481 H   0  0  0  0  0  0  0  0  0  0  0  0
    4.9264    1.8085   16.9927 H   0  0  0  0  0  0  0  0  0  0  0  0
    3.8732    1.8500   19.2537 H   0  0  0  0  0  0  0  0  0  0  0  0
    5.0054    0.5985   21.1572 H   0  0  0  0  0  0  0  0  0  0  0  0
   10.2056   -0.3660   20.0912 H   0  0  0  0  0  0  0  0  0  0  0  0
    9.1374    1.0504   20.1082 H   0  0  0  0  0  0  0  0  0  0  0  0
   13.4442    0.6008   23.4366 H   0  0  0  0  0  0  0  0  0  0  0  0
   12.5446    2.5725   24.6338 H   0  0  0  0  0  0  0  0  0  0  0  0
   10.3693    3.5584   24.0001 H   0  0  0  0  0  0  0  0  0  0  0  0
    8.6224    3.1860   21.1313 H   0  0  0  0  0  0  0  0  0  0  0  0
    8.3735    3.4995   22.8507 H   0  0  0  0  0  0  0  0  0  0  0  0
    7.8419    1.9693   22.1467 H   0  0  0  0  0  0  0  0  0  0  0  0
  1  2  1  0
  2  3  2  0
  3  4  1  0
  4  5  2  0
  5  6  1  0
  6  7  1  0
  7  8  1  0
  7  9  1  0
  7 10  1  0
  6 11  2  0
 11 12  1  0
 12 13  1  0
 13 14  2  0
 14 15  1  0
 15 16  1  0
 16 17  1  0
 17 18  1  0
 18 19  1  0
 19 20  1  0
 19 21  1  0
 19 22  1  0
 18 23  1  0
 23 24  1  0
 23 25  1  0
 23 26  1  0
 18 27  1  0
 16 28  1  0
 16 29  1  0
 15 30  2  0
 30 31  1  0
 31 32  1  0
 32 33  2  0
 33 34  1  0
 34 35  2  0
 35 36  1  0
 36 37  2  0
 37 38  1  0
 35 39  1  0
 34 40  1  0
 33 41  1  0
 12 42  1  0
 12 43  1  0
  5 44  1  0
  4 45  1  0
  3 46  1  0
  1 47  1  0
  1 48  1  0
  1 49  1  0
 11  2  1  0
 31 13  1  0
 37 32  1  0
M  END
>  <cnnaffinity>  (1) 
-6.2979

>  <filename>  (1) 
Cc1cccc(C)c1Cc1nc(COC(C)C)nn1-c1cccnc1

$$$$
