
     RDKit          3D

 45 48  0  0  0  0  0  0  0  0999 V2000
    9.4016   -1.2957   27.3430 C   0  0  0  0  0  0  0  0  0  0  0  0
    8.3009   -1.6802   26.3897 C   0  0  0  0  0  0  0  0  0  0  0  0
    7.3173   -2.6360   26.7009 C   0  0  0  0  0  0  0  0  0  0  0  0
    6.2974   -2.9436   25.7888 C   0  0  0  0  0  0  0  0  0  0  0  0
    6.2998   -2.3648   24.5215 C   0  0  0  0  0  0  0  0  0  0  0  0
    7.3448   -1.5094   24.1713 C   0  0  0  0  0  0  0  0  0  0  0  0
    7.5599   -1.1943   22.7970 N   0  0  0  0  0  0  0  0  0  0  0  0
    6.6536   -0.5282   22.0484 N   0  0  0  0  0  0  0  0  0  0  0  0
    7.1795   -0.5738   20.8390 C   0  0  0  0  0  0  0  0  0  0  0  0
    6.5276    0.0828   19.7058 C   0  0  0  0  0  0  0  0  0  0  0  0
    5.3148    0.7805   19.8605 C   0  0  0  0  0  0  0  0  0  0  0  0
    4.7856    1.4262   18.7485 C   0  0  0  0  0  0  0  0  0  0  0  0
    5.4733    1.3496   17.5310 C   0  0  0  0  0  0  0  0  0  0  0  0
    6.6181    0.6675   17.3696 N   0  0  0  0  0  0  0  0  0  0  0  0
    7.1294    0.0499   18.4421 C   0  0  0  0  0  0  0  0  0  0  0  0
    8.0603   -0.4913   18.2782 H   0  0  0  0  0  0  0  0  0  0  0  0
    5.0841    1.8591   16.6523 H   0  0  0  0  0  0  0  0  0  0  0  0
    3.8684    2.0008   18.8192 H   0  0  0  0  0  0  0  0  0  0  0  0
    4.8217    0.8139   20.8359 H   0  0  0  0  0  0  0  0  0  0  0  0
    8.3444   -1.2791   20.7596 N   0  0  0  0  0  0  0  0  0  0  0  0
    8.5505   -1.6709   22.0000 C   0  0  0  0  0  0  0  0  0  0  0  0
    9.7020   -2.5042   22.4932 C   0  0  0  0  0  0  0  0  0  0  0  0
    9.3515   -3.7489   23.3116 C   0  0  0  0  0  0  0  0  0  0  0  0
   10.0356   -3.8962   24.4553 N   0  0  0  0  0  0  0  0  0  0  0  0
    9.6921   -4.8867   25.2919 C   0  0  0  0  0  0  0  0  0  0  0  0
    8.6632   -5.7919   25.0222 C   0  0  0  0  0  0  0  0  0  0  0  0
    7.9914   -5.6759   23.8009 C   0  0  0  0  0  0  0  0  0  0  0  0
    8.3633   -4.6762   22.8897 C   0  0  0  0  0  0  0  0  0  0  0  0
    7.7041   -4.6076   21.5318 C   0  0  0  0  0  0  0  0  0  0  0  0
    8.2807   -3.9815   20.8455 H   0  0  0  0  0  0  0  0  0  0  0  0
    7.6234   -5.6077   21.0925 H   0  0  0  0  0  0  0  0  0  0  0  0
    6.6940   -4.1777   21.5964 H   0  0  0  0  0  0  0  0  0  0  0  0
    7.2070   -6.3815   23.5223 H   0  0  0  0  0  0  0  0  0  0  0  0
    8.4433   -6.5861   25.7299 H   0  0  0  0  0  0  0  0  0  0  0  0
   10.2448   -4.9535   26.2313 H   0  0  0  0  0  0  0  0  0  0  0  0
   10.3585   -1.8783   23.1077 H   0  0  0  0  0  0  0  0  0  0  0  0
   10.2733   -2.7856   21.6076 H   0  0  0  0  0  0  0  0  0  0  0  0
    8.2844   -1.1029   25.1171 C   0  0  0  0  0  0  0  0  0  0  0  0
    9.0519   -0.3844   24.8406 H   0  0  0  0  0  0  0  0  0  0  0  0
    5.5221   -2.5793   23.7942 H   0  0  0  0  0  0  0  0  0  0  0  0
    5.5148   -3.6513   26.0540 H   0  0  0  0  0  0  0  0  0  0  0  0
    7.3627   -3.1672   27.6455 H   0  0  0  0  0  0  0  0  0  0  0  0
    9.0140   -0.8686   28.2713 H   0  0  0  0  0  0  0  0  0  0  0  0
   10.0164   -2.1574   27.6046 H   0  0  0  0  0  0  0  0  0  0  0  0
   10.0757   -0.5595   26.8937 H   0  0  0  0  0  0  0  0  0  0  0  0
  1  2  1  0
  2  3  2  0
  3  4  1  0
  4  5  2  0
  5  6  1  0
  6  7  1  0
  7  8  1  0
  8  9  2  0
  9 10  1  0
 10 11  2  0
 11 12  1  0
 12 13  2  0
 13 14  1  0
 14 15  2  0
 15 16  1  0
 13 17  1  0
 12 18  1  0
 11 19  1  0
  9 20  1  0
 20 21  2  0
 21 22  1  0
 22 23  1  0
 23 24  2  0
 24 25  1  0
 25 26  2  0
 26 27  1  0
 27 28  2  0
 28 29  1  0
 29 30  1  0
 29 31  1  0
 29 32  1  0
 27 33  1  0
 26 34  1  0
 25 35  1  0
 22 36  1  0
 22 37  1  0
  6 38  2  0
 38 39  1  0
  5 40  1  0
  4 41  1  0
  3 42  1  0
  1 43  1  0
  1 44  1  0
  1 45  1  0
 38  2  1  0
 21  7  1  0
 28 23  1  0
 15 10  1  0
M  END
>  <cnnaffinity>  (1) 
-6.35937

>  <filename>  (1) 
Cc1cccc(-n2nc(-c3cccnc3)nc2Cc2ncccc2C)c1

$$$$
