
     RDKit          3D

 40 42  0  0  0  0  0  0  0  0999 V2000
    6.0949   -0.0369   24.9517 C   0  0  0  0  0  0  0  0  0  0  0  0
    6.4737    1.2104   24.1829 C   0  0  0  0  0  0  0  0  0  0  0  0
    6.1997    2.4950   24.6947 C   0  0  0  0  0  0  0  0  0  0  0  0
    5.3325    2.6792   26.2010 Cl  0  0  0  0  0  0  0  0  0  0  0  0
    6.5771    3.6658   24.0337 C   0  0  0  0  0  0  0  0  0  0  0  0
    7.2401    3.5707   22.8109 C   0  0  0  0  0  0  0  0  0  0  0  0
    7.5008    2.3245   22.2483 C   0  0  0  0  0  0  0  0  0  0  0  0
    7.1205    1.1423   22.9200 C   0  0  0  0  0  0  0  0  0  0  0  0
    7.4129   -0.1842   22.3122 C   0  0  0  0  0  0  0  0  0  0  0  0
    7.9472   -1.2374   22.9264 N   0  0  0  0  0  0  0  0  0  0  0  0
    8.1709   -2.1078   21.9199 C   0  0  0  0  0  0  0  0  0  0  0  0
    8.8404   -3.4280   22.0547 C   0  0  0  0  0  0  0  0  0  0  0  0
    7.9725   -4.6459   22.4316 C   0  0  0  0  0  0  0  0  0  0  0  0
    7.1808   -4.4926   23.7307 C   0  0  0  0  0  0  0  0  0  0  0  0
    6.3052   -5.5871   23.9187 O   0  0  0  0  0  0  0  0  0  0  0  0
    6.8356   -6.3751   24.0840 H   0  0  0  0  0  0  0  0  0  0  0  0
    6.5490   -3.5955   23.6824 H   0  0  0  0  0  0  0  0  0  0  0  0
    7.8510   -4.3705   24.5995 H   0  0  0  0  0  0  0  0  0  0  0  0
    7.2528   -4.8605   21.6291 H   0  0  0  0  0  0  0  0  0  0  0  0
    8.6389   -5.5228   22.5116 H   0  0  0  0  0  0  0  0  0  0  0  0
    9.2359   -3.5820   21.0514 H   0  0  0  0  0  0  0  0  0  0  0  0
    9.6657   -3.3012   22.7651 H   0  0  0  0  0  0  0  0  0  0  0  0
    7.7999   -1.6934   20.7316 N   0  0  0  0  0  0  0  0  0  0  0  0
    7.2763   -0.4722   20.9789 N   0  0  0  0  0  0  0  0  0  0  0  0
    6.5731    0.1383   19.9190 C   0  0  0  0  0  0  0  0  0  0  0  0
    5.3526    0.7862   20.1068 C   0  0  0  0  0  0  0  0  0  0  0  0
    4.7679    1.3807   18.9863 C   0  0  0  0  0  0  0  0  0  0  0  0
    5.4212    1.3095   17.7498 C   0  0  0  0  0  0  0  0  0  0  0  0
    6.5648    0.6251   17.5594 N   0  0  0  0  0  0  0  0  0  0  0  0
    7.1029    0.0269   18.6210 C   0  0  0  0  0  0  0  0  0  0  0  0
    7.9972   -0.5733   18.4702 H   0  0  0  0  0  0  0  0  0  0  0  0
    5.0058    1.8008   16.8726 H   0  0  0  0  0  0  0  0  0  0  0  0
    3.8110    1.8844   19.0607 H   0  0  0  0  0  0  0  0  0  0  0  0
    4.8886    0.8107   21.0945 H   0  0  0  0  0  0  0  0  0  0  0  0
    7.9911    2.2777   21.2769 H   0  0  0  0  0  0  0  0  0  0  0  0
    7.5357    4.4766   22.2865 H   0  0  0  0  0  0  0  0  0  0  0  0
    6.3391    4.6345   24.4663 H   0  0  0  0  0  0  0  0  0  0  0  0
    5.1484    0.0916   25.4802 H   0  0  0  0  0  0  0  0  0  0  0  0
    6.0297   -0.8928   24.2801 H   0  0  0  0  0  0  0  0  0  0  0  0
    6.8640   -0.2833   25.6895 H   0  0  0  0  0  0  0  0  0  0  0  0
  1  2  1  0
  2  3  2  0
  3  4  1  0
  3  5  1  0
  5  6  2  0
  6  7  1  0
  7  8  2  0
  8  9  1  0
  9 10  2  0
 10 11  1  0
 11 12  1  0
 12 13  1  0
 13 14  1  0
 14 15  1  0
 15 16  1  0
 14 17  1  0
 14 18  1  0
 13 19  1  0
 13 20  1  0
 12 21  1  0
 12 22  1  0
 11 23  2  0
 23 24  1  0
 24 25  1  0
 25 26  2  0
 26 27  1  0
 27 28  2  0
 28 29  1  0
 29 30  2  0
 30 31  1  0
 28 32  1  0
 27 33  1  0
 26 34  1  0
  7 35  1  0
  6 36  1  0
  5 37  1  0
  1 38  1  0
  1 39  1  0
  1 40  1  0
  8  2  1  0
 24  9  1  0
 30 25  1  0
M  END
>  <cnnaffinity>  (1) 
-5.68826

>  <filename>  (1) 
Cc1c(Cl)cccc1-c1nc(CCCO)nn1-c1cccnc1

$$$$
