
     RDKit          3D

 43 46  0  0  0  0  0  0  0  0999 V2000
   13.6891    0.7400   23.6554 C   0  0  0  0  0  0  0  0  0  0  0  0
   12.3882    0.9133   22.9644 C   0  0  0  0  0  0  0  0  0  0  0  0
   11.5781    1.9037   23.2250 N   0  0  0  0  0  0  0  0  0  0  0  0
   10.5008    1.7356   22.3658 O   0  0  0  0  0  0  0  0  0  0  0  0
   10.7044    0.6490   21.6190 C   0  0  0  0  0  0  0  0  0  0  0  0
    9.6471    0.2236   20.6738 C   0  0  0  0  0  0  0  0  0  0  0  0
    8.6257   -0.6264   21.3333 C   0  0  0  0  0  0  0  0  0  0  0  0
    8.8571   -1.4800   22.3026 N   0  0  0  0  0  0  0  0  0  0  0  0
    7.6259   -1.9996   22.5471 C   0  0  0  0  0  0  0  0  0  0  0  0
    7.3960   -2.9695   23.6632 C   0  0  0  0  0  0  0  0  0  0  0  0
    7.5558   -2.2922   25.0515 C   0  0  0  0  0  0  0  0  0  0  0  0
    7.5478   -3.2870   26.1873 C   0  0  0  0  0  0  0  0  0  0  0  0
    7.7637   -4.5943   26.0187 C   0  0  0  0  0  0  0  0  0  0  0  0
    7.9747   -5.2256   24.6614 C   0  0  0  0  0  0  0  0  0  0  0  0
    8.3224   -4.2008   23.5682 C   0  0  0  0  0  0  0  0  0  0  0  0
    8.2438   -4.6674   22.5799 H   0  0  0  0  0  0  0  0  0  0  0  0
    9.3634   -3.8681   23.6737 H   0  0  0  0  0  0  0  0  0  0  0  0
    8.7499   -5.9989   24.7172 H   0  0  0  0  0  0  0  0  0  0  0  0
    7.0548   -5.7601   24.3853 H   0  0  0  0  0  0  0  0  0  0  0  0
    7.7862   -5.2568   26.8849 H   0  0  0  0  0  0  0  0  0  0  0  0
    7.3641   -2.8929   27.1862 H   0  0  0  0  0  0  0  0  0  0  0  0
    8.5041   -1.7365   25.0738 H   0  0  0  0  0  0  0  0  0  0  0  0
    6.7713   -1.5403   25.2029 H   0  0  0  0  0  0  0  0  0  0  0  0
    6.3590   -3.2962   23.5510 H   0  0  0  0  0  0  0  0  0  0  0  0
    6.6709   -1.5555   21.7585 N   0  0  0  0  0  0  0  0  0  0  0  0
    7.3256   -0.6904   20.9380 N   0  0  0  0  0  0  0  0  0  0  0  0
    6.6495    0.0031   19.9011 C   0  0  0  0  0  0  0  0  0  0  0  0
    5.4358    0.6466   20.1665 C   0  0  0  0  0  0  0  0  0  0  0  0
    4.8126    1.3116   19.1089 C   0  0  0  0  0  0  0  0  0  0  0  0
    5.4018    1.2950   17.8376 C   0  0  0  0  0  0  0  0  0  0  0  0
    6.5605    0.6713   17.5770 N   0  0  0  0  0  0  0  0  0  0  0  0
    7.1664    0.0513   18.5939 C   0  0  0  0  0  0  0  0  0  0  0  0
    8.1133   -0.4301   18.3641 H   0  0  0  0  0  0  0  0  0  0  0  0
    4.9202    1.7840   16.9938 H   0  0  0  0  0  0  0  0  0  0  0  0
    3.8805    1.8403   19.2610 H   0  0  0  0  0  0  0  0  0  0  0  0
    5.0152    0.6107   21.1740 H   0  0  0  0  0  0  0  0  0  0  0  0
    9.1946    1.0881   20.1847 H   0  0  0  0  0  0  0  0  0  0  0  0
   10.0906   -0.4256   19.9173 H   0  0  0  0  0  0  0  0  0  0  0  0
   11.8766    0.0689   21.9448 C   0  0  0  0  0  0  0  0  0  0  0  0
   12.3026   -0.8346   21.5420 H   0  0  0  0  0  0  0  0  0  0  0  0
   13.9091   -0.3182   23.7372 H   0  0  0  0  0  0  0  0  0  0  0  0
   13.6791    1.1910   24.6456 H   0  0  0  0  0  0  0  0  0  0  0  0
   14.4941    1.1668   23.0547 H   0  0  0  0  0  0  0  0  0  0  0  0
  1  2  1  0
  2  3  2  0
  3  4  1  0
  4  5  1  0
  5  6  1  0
  6  7  1  0
  7  8  2  0
  8  9  1  0
  9 10  1  0
 10 11  1  0
 11 12  1  0
 12 13  2  0
 13 14  1  0
 14 15  1  0
 15 16  1  0
 15 17  1  0
 14 18  1  0
 14 19  1  0
 13 20  1  0
 12 21  1  0
 11 22  1  0
 11 23  1  0
 10 24  1  0
  9 25  2  0
 25 26  1  0
 26 27  1  0
 27 28  2  0
 28 29  1  0
 29 30  2  0
 30 31  1  0
 31 32  2  0
 32 33  1  0
 30 34  1  0
 29 35  1  0
 28 36  1  0
  6 37  1  0
  6 38  1  0
  5 39  2  0
 39 40  1  0
  1 41  1  0
  1 42  1  0
  1 43  1  0
 39  2  1  0
 26  7  1  0
 32 27  1  0
 15 10  1  0
M  END
>  <cnnaffinity>  (1) 
-6.40476

>  <filename>  (1) 
Cc1cc(Cc2nc(C3CC=CCC3)nn2-c2cccnc2)on1

$$$$
