
     RDKit          3D

 48 51  0  0  0  0  0  0  0  0999 V2000
   10.0782    6.1613   24.7005 C   0  0  0  0  0  0  0  0  0  0  0  0
    9.1740    5.5538   23.6492 C   0  0  0  0  0  0  0  0  0  0  0  0
    8.1428    6.2958   23.0445 C   0  0  0  0  0  0  0  0  0  0  0  0
    7.2879    5.8050   22.1416 N   0  0  0  0  0  0  0  0  0  0  0  0
    7.4277    4.5215   21.7916 C   0  0  0  0  0  0  0  0  0  0  0  0
    8.4432    3.6838   22.2727 C   0  0  0  0  0  0  0  0  0  0  0  0
    8.5190    2.2400   21.8489 C   0  0  0  0  0  0  0  0  0  0  0  0
    7.5147    1.3560   22.6272 C   0  0  0  0  0  0  0  0  0  0  0  0
    7.5627   -0.0798   22.2271 C   0  0  0  0  0  0  0  0  0  0  0  0
    8.1248   -1.0217   22.9562 N   0  0  0  0  0  0  0  0  0  0  0  0
    8.2494   -2.0591   22.0927 C   0  0  0  0  0  0  0  0  0  0  0  0
    8.9611   -3.3309   22.4831 C   0  0  0  0  0  0  0  0  0  0  0  0
   10.4023   -3.0304   22.9776 C   0  0  0  0  0  0  0  0  0  0  0  0
   11.1044   -2.9851   22.1399 H   0  0  0  0  0  0  0  0  0  0  0  0
   10.7825   -3.8025   23.6499 H   0  0  0  0  0  0  0  0  0  0  0  0
   10.4465   -2.0700   23.5079 H   0  0  0  0  0  0  0  0  0  0  0  0
    8.0713   -4.1450   23.4378 C   0  0  0  0  0  0  0  0  0  0  0  0
    7.8859   -3.7773   24.8830 C   0  0  0  0  0  0  0  0  0  0  0  0
    8.5825   -5.0588   24.5137 C   0  0  0  0  0  0  0  0  0  0  0  0
    9.6509   -5.1441   24.6961 H   0  0  0  0  0  0  0  0  0  0  0  0
    8.0530   -5.9958   24.6613 H   0  0  0  0  0  0  0  0  0  0  0  0
    8.4856   -2.9560   25.2768 H   0  0  0  0  0  0  0  0  0  0  0  0
    6.8802   -3.8327   25.2966 H   0  0  0  0  0  0  0  0  0  0  0  0
    7.1646   -4.5041   22.9422 H   0  0  0  0  0  0  0  0  0  0  0  0
    8.9796   -3.8847   21.5443 H   0  0  0  0  0  0  0  0  0  0  0  0
    7.7754   -1.8344   20.8840 N   0  0  0  0  0  0  0  0  0  0  0  0
    7.2874   -0.5626   20.9807 N   0  0  0  0  0  0  0  0  0  0  0  0
    6.5979    0.0635   19.8996 C   0  0  0  0  0  0  0  0  0  0  0  0
    5.3942    0.7535   20.1028 C   0  0  0  0  0  0  0  0  0  0  0  0
    4.7960    1.3759   19.0017 C   0  0  0  0  0  0  0  0  0  0  0  0
    5.4200    1.3006   17.7542 C   0  0  0  0  0  0  0  0  0  0  0  0
    6.5675    0.6294   17.5511 N   0  0  0  0  0  0  0  0  0  0  0  0
    7.1300    0.0160   18.5987 C   0  0  0  0  0  0  0  0  0  0  0  0
    8.0504   -0.5315   18.4085 H   0  0  0  0  0  0  0  0  0  0  0  0
    4.9906    1.7951   16.8842 H   0  0  0  0  0  0  0  0  0  0  0  0
    3.8671    1.9256   19.1081 H   0  0  0  0  0  0  0  0  0  0  0  0
    4.9297    0.7871   21.0885 H   0  0  0  0  0  0  0  0  0  0  0  0
    6.4988    1.7435   22.5102 H   0  0  0  0  0  0  0  0  0  0  0  0
    7.7450    1.3858   23.6942 H   0  0  0  0  0  0  0  0  0  0  0  0
    8.3050    2.1546   20.7764 H   0  0  0  0  0  0  0  0  0  0  0  0
    9.5402    1.8611   21.9994 H   0  0  0  0  0  0  0  0  0  0  0  0
    9.3358    4.2343   23.2028 C   0  0  0  0  0  0  0  0  0  0  0  0
   10.1647    3.6252   23.5701 H   0  0  0  0  0  0  0  0  0  0  0  0
    6.6892    4.1289   21.0888 H   0  0  0  0  0  0  0  0  0  0  0  0
    8.0045    7.3455   23.3076 H   0  0  0  0  0  0  0  0  0  0  0  0
    9.6026    7.0059   25.2146 H   0  0  0  0  0  0  0  0  0  0  0  0
   11.0014    6.5320   24.2415 H   0  0  0  0  0  0  0  0  0  0  0  0
   10.3563    5.4295   25.4685 H   0  0  0  0  0  0  0  0  0  0  0  0
  1  2  1  0
  2  3  2  0
  3  4  1  0
  4  5  2  0
  5  6  1  0
  6  7  1  0
  7  8  1  0
  8  9  1  0
  9 10  2  0
 10 11  1  0
 11 12  1  0
 12 13  1  0
 13 14  1  0
 13 15  1  0
 13 16  1  0
 12 17  1  0
 17 18  1  0
 18 19  1  0
 19 20  1  0
 19 21  1  0
 18 22  1  0
 18 23  1  0
 17 24  1  0
 12 25  1  0
 11 26  2  0
 26 27  1  0
 27 28  1  0
 28 29  2  0
 29 30  1  0
 30 31  2  0
 31 32  1  0
 32 33  2  0
 33 34  1  0
 31 35  1  0
 30 36  1  0
 29 37  1  0
  8 38  1  0
  8 39  1  0
  7 40  1  0
  7 41  1  0
  6 42  2  0
 42 43  1  0
  5 44  1  0
  3 45  1  0
  1 46  1  0
  1 47  1  0
  1 48  1  0
 42  2  1  0
 27  9  1  0
 33 28  1  0
 19 17  1  0
M  END
>  <cnnaffinity>  (1) 
-6.27275

>  <filename>  (1) 
Cc1cncc(CCc2nc(C(C)C3CC3)nn2-c2cccnc2)c1

$$$$
