
     RDKit          3D

 49 52  0  0  0  0  0  0  0  0999 V2000
    9.1680   -2.1579   25.0726 C   0  0  0  0  0  0  0  0  0  0  0  0
    8.0558   -3.1384   24.7805 C   0  0  0  0  0  0  0  0  0  0  0  0
    7.8159   -4.1642   25.7113 C   0  0  0  0  0  0  0  0  0  0  0  0
    6.7954   -5.1012   25.5354 C   0  0  0  0  0  0  0  0  0  0  0  0
    5.9693   -5.0141   24.4134 C   0  0  0  0  0  0  0  0  0  0  0  0
    6.1848   -4.0118   23.4701 C   0  0  0  0  0  0  0  0  0  0  0  0
    7.2457   -3.0960   23.6141 C   0  0  0  0  0  0  0  0  0  0  0  0
    7.4978   -2.1267   22.5141 C   0  0  0  0  0  0  0  0  0  0  0  0
    6.5572   -1.7371   21.6630 N   0  0  0  0  0  0  0  0  0  0  0  0
    7.2071   -0.8790   20.8342 N   0  0  0  0  0  0  0  0  0  0  0  0
    6.5209   -0.1781   19.8020 C   0  0  0  0  0  0  0  0  0  0  0  0
    5.3386    0.5197   20.0781 C   0  0  0  0  0  0  0  0  0  0  0  0
    4.7757    1.2999   19.0609 C   0  0  0  0  0  0  0  0  0  0  0  0
    5.3897    1.3177   17.8018 C   0  0  0  0  0  0  0  0  0  0  0  0
    6.4860    0.6005   17.5113 N   0  0  0  0  0  0  0  0  0  0  0  0
    7.0311   -0.1333   18.4903 C   0  0  0  0  0  0  0  0  0  0  0  0
    7.9163   -0.7108   18.2233 H   0  0  0  0  0  0  0  0  0  0  0  0
    4.9784    1.9142   16.9903 H   0  0  0  0  0  0  0  0  0  0  0  0
    3.8816    1.8932   19.2292 H   0  0  0  0  0  0  0  0  0  0  0  0
    4.8912    0.4437   21.0711 H   0  0  0  0  0  0  0  0  0  0  0  0
    8.4992   -0.7709   21.2504 C   0  0  0  0  0  0  0  0  0  0  0  0
    9.5142    0.1840   20.7365 C   0  0  0  0  0  0  0  0  0  0  0  0
    9.8411    1.1685   21.7481 N   0  0  0  0  0  0  0  0  0  0  0  0
   11.0245    1.0306   22.3606 N   0  0  0  0  0  0  0  0  0  0  0  0
   11.0380    1.9345   23.3191 C   0  0  0  0  0  0  0  0  0  0  0  0
   12.2502    2.0347   24.1824 C   0  0  0  0  0  0  0  0  0  0  0  0
   12.9018    1.1760   23.9993 H   0  0  0  0  0  0  0  0  0  0  0  0
   11.9830    2.0519   25.2426 H   0  0  0  0  0  0  0  0  0  0  0  0
   12.8109    2.9404   23.9328 H   0  0  0  0  0  0  0  0  0  0  0  0
    9.8347    2.6825   23.3517 C   0  0  0  0  0  0  0  0  0  0  0  0
    9.5142    3.8077   24.2969 C   0  0  0  0  0  0  0  0  0  0  0  0
    9.2718    3.4503   25.3056 H   0  0  0  0  0  0  0  0  0  0  0  0
    8.6624    4.4144   23.9704 H   0  0  0  0  0  0  0  0  0  0  0  0
   10.3890    4.4620   24.4077 H   0  0  0  0  0  0  0  0  0  0  0  0
    9.0825    2.1545   22.3118 C   0  0  0  0  0  0  0  0  0  0  0  0
    7.7052    2.5491   21.8588 C   0  0  0  0  0  0  0  0  0  0  0  0
    7.5817    2.4642   20.7760 H   0  0  0  0  0  0  0  0  0  0  0  0
    7.5129    3.5868   22.1532 H   0  0  0  0  0  0  0  0  0  0  0  0
    6.9329    1.9207   22.3198 H   0  0  0  0  0  0  0  0  0  0  0  0
    9.2342    0.6829   19.8127 H   0  0  0  0  0  0  0  0  0  0  0  0
   10.4357   -0.3704   20.5681 H   0  0  0  0  0  0  0  0  0  0  0  0
    8.7147   -1.5637   22.2738 N   0  0  0  0  0  0  0  0  0  0  0  0
    5.5382   -3.9172   22.6014 H   0  0  0  0  0  0  0  0  0  0  0  0
    5.1684   -5.7308   24.2637 H   0  0  0  0  0  0  0  0  0  0  0  0
    6.6497   -5.8940   26.2659 H   0  0  0  0  0  0  0  0  0  0  0  0
    8.4552   -4.2234   26.5893 H   0  0  0  0  0  0  0  0  0  0  0  0
   10.0409   -2.3758   24.4520 H   0  0  0  0  0  0  0  0  0  0  0  0
    9.4665   -2.2169   26.1227 H   0  0  0  0  0  0  0  0  0  0  0  0
    8.8839   -1.1230   24.8533 H   0  0  0  0  0  0  0  0  0  0  0  0
  1  2  1  0
  2  3  2  0
  3  4  1  0
  4  5  2  0
  5  6  1  0
  6  7  2  0
  7  8  1  0
  8  9  2  0
  9 10  1  0
 10 11  1  0
 11 12  2  0
 12 13  1  0
 13 14  2  0
 14 15  1  0
 15 16  2  0
 16 17  1  0
 14 18  1  0
 13 19  1  0
 12 20  1  0
 10 21  1  0
 21 22  1  0
 22 23  1  0
 23 24  1  0
 24 25  2  0
 25 26  1  0
 26 27  1  0
 26 28  1  0
 26 29  1  0
 25 30  1  0
 30 31  1  0
 31 32  1  0
 31 33  1  0
 31 34  1  0
 30 35  2  0
 35 36  1  0
 36 37  1  0
 36 38  1  0
 36 39  1  0
 22 40  1  0
 22 41  1  0
 21 42  2  0
  6 43  1  0
  5 44  1  0
  4 45  1  0
  3 46  1  0
  1 47  1  0
  1 48  1  0
  1 49  1  0
  7  2  1  0
 42  8  1  0
 16 11  1  0
 35 23  1  0
M  END
>  <cnnaffinity>  (1) 
-6.2597

>  <filename>  (1) 
Cc1ccccc1-c1nc(Cn2nc(C)c(C)c2C)n(-c2cccnc2)n1

$$$$
