
     RDKit          3D

 45 48  0  0  0  0  0  0  0  0999 V2000
    7.0083   -0.4385   27.7963 C   0  0  0  0  0  0  0  0  0  0  0  0
    6.8151    0.3585   26.5387 C   0  0  0  0  0  0  0  0  0  0  0  0
    5.7115    0.1393   25.6988 C   0  0  0  0  0  0  0  0  0  0  0  0
    5.6545    0.8013   24.4706 C   0  0  0  0  0  0  0  0  0  0  0  0
    6.7157    1.6255   24.0831 C   0  0  0  0  0  0  0  0  0  0  0  0
    6.9563    2.0265   22.6238 C   0  0  0  0  0  0  0  0  0  0  0  0
    7.9667    1.1005   21.9881 C   0  0  0  0  0  0  0  0  0  0  0  0
    9.2751    1.2360   22.1131 N   0  0  0  0  0  0  0  0  0  0  0  0
    9.7561    0.0172   21.7560 C   0  0  0  0  0  0  0  0  0  0  0  0
   11.1957   -0.3496   21.8483 C   0  0  0  0  0  0  0  0  0  0  0  0
   11.6695   -1.4666   21.1369 C   0  0  0  0  0  0  0  0  0  0  0  0
   13.0411   -1.6727   21.0584 C   0  0  0  0  0  0  0  0  0  0  0  0
   13.5452   -2.5294   20.1672 F   0  0  0  0  0  0  0  0  0  0  0  0
   13.9356   -1.0043   21.8775 C   0  0  0  0  0  0  0  0  0  0  0  0
   13.4302    0.0165   22.6704 C   0  0  0  0  0  0  0  0  0  0  0  0
   14.2695    0.6280   23.5132 F   0  0  0  0  0  0  0  0  0  0  0  0
   12.0939    0.4073   22.6327 C   0  0  0  0  0  0  0  0  0  0  0  0
   11.7669    1.2691   23.2059 H   0  0  0  0  0  0  0  0  0  0  0  0
   14.9642   -1.3185   21.9023 H   0  0  0  0  0  0  0  0  0  0  0  0
   10.9672   -2.1771   20.7188 H   0  0  0  0  0  0  0  0  0  0  0  0
    8.8191   -0.8341   21.3618 N   0  0  0  0  0  0  0  0  0  0  0  0
    7.6753   -0.1298   21.5105 N   0  0  0  0  0  0  0  0  0  0  0  0
    6.4065   -0.6580   21.0042 C   0  0  0  0  0  0  0  0  0  0  0  0
    5.9057    0.0747   19.7754 C   0  0  0  0  0  0  0  0  0  0  0  0
    4.7168    0.8039   19.6883 C   0  0  0  0  0  0  0  0  0  0  0  0
    4.4576    1.5253   18.5157 C   0  0  0  0  0  0  0  0  0  0  0  0
    5.3802    1.4581   17.4669 C   0  0  0  0  0  0  0  0  0  0  0  0
    6.4970    0.7171   17.5078 N   0  0  0  0  0  0  0  0  0  0  0  0
    6.7362    0.0519   18.6410 C   0  0  0  0  0  0  0  0  0  0  0  0
    7.6395   -0.5527   18.6672 H   0  0  0  0  0  0  0  0  0  0  0  0
    5.2113    2.0083   16.5441 H   0  0  0  0  0  0  0  0  0  0  0  0
    3.5691    2.1362   18.3975 H   0  0  0  0  0  0  0  0  0  0  0  0
    4.0001    0.8231   20.5137 H   0  0  0  0  0  0  0  0  0  0  0  0
    6.6065   -1.7028   20.7522 H   0  0  0  0  0  0  0  0  0  0  0  0
    5.6790   -0.6478   21.8195 H   0  0  0  0  0  0  0  0  0  0  0  0
    6.0225    2.0141   22.0513 H   0  0  0  0  0  0  0  0  0  0  0  0
    7.3661    3.0383   22.5625 H   0  0  0  0  0  0  0  0  0  0  0  0
    7.6842    1.8910   25.0691 C   0  0  0  0  0  0  0  0  0  0  0  0
    7.7452    1.2830   26.2575 N   0  0  0  0  0  0  0  0  0  0  0  0
    8.4812    2.6027   24.8599 H   0  0  0  0  0  0  0  0  0  0  0  0
    4.7912    0.6807   23.8178 H   0  0  0  0  0  0  0  0  0  0  0  0
    4.9444   -0.5636   26.0041 H   0  0  0  0  0  0  0  0  0  0  0  0
    6.6955   -1.4779   27.6546 H   0  0  0  0  0  0  0  0  0  0  0  0
    6.4198   -0.0225   28.6194 H   0  0  0  0  0  0  0  0  0  0  0  0
    8.0617   -0.4252   28.0879 H   0  0  0  0  0  0  0  0  0  0  0  0
  1  2  1  0
  2  3  2  0
  3  4  1  0
  4  5  2  0
  5  6  1  0
  6  7  1  0
  7  8  2  0
  8  9  1  0
  9 10  1  0
 10 11  2  0
 11 12  1  0
 12 13  1  0
 12 14  2  0
 14 15  1  0
 15 16  1  0
 15 17  2  0
 17 18  1  0
 14 19  1  0
 11 20  1  0
  9 21  2  0
 21 22  1  0
 22 23  1  0
 23 24  1  0
 24 25  2  0
 25 26  1  0
 26 27  2  0
 27 28  1  0
 28 29  2  0
 29 30  1  0
 27 31  1  0
 26 32  1  0
 25 33  1  0
 23 34  1  0
 23 35  1  0
  6 36  1  0
  6 37  1  0
  5 38  1  0
 38 39  2  0
 38 40  1  0
  4 41  1  0
  3 42  1  0
  1 43  1  0
  1 44  1  0
  1 45  1  0
 39  2  1  0
 22  7  1  0
 29 24  1  0
 17 10  1  0
M  END
>  <cnnaffinity>  (1) 
-6.6689

>  <filename>  (1) 
Cc1ccc(Cc2nc(-c3cc(F)cc(F)c3)nn2Cc2cccnc2)cn1

$$$$
