
     RDKit          3D

 43 46  0  0  0  0  0  0  0  0999 V2000
    8.1372    5.1763   27.1242 C   0  0  0  0  0  0  0  0  0  0  0  0
    7.4264    3.8991   26.7331 C   0  0  0  0  0  0  0  0  0  0  0  0
    6.3284    3.4054   27.4504 C   0  0  0  0  0  0  0  0  0  0  0  0
    5.6534    2.2541   27.0161 C   0  0  0  0  0  0  0  0  0  0  0  0
    6.0593    1.5813   25.8601 C   0  0  0  0  0  0  0  0  0  0  0  0
    7.1723    2.0542   25.1315 C   0  0  0  0  0  0  0  0  0  0  0  0
    7.6651    1.4295   23.8782 C   0  0  0  0  0  0  0  0  0  0  0  0
    7.0524    0.4683   23.2054 N   0  0  0  0  0  0  0  0  0  0  0  0
    7.8364    0.2888   22.1165 N   0  0  0  0  0  0  0  0  0  0  0  0
    7.4478   -0.6439   21.0581 C   0  0  0  0  0  0  0  0  0  0  0  0
    6.7237    0.0169   19.8970 C   0  0  0  0  0  0  0  0  0  0  0  0
    5.5136    0.6874   20.1131 C   0  0  0  0  0  0  0  0  0  0  0  0
    4.8985    1.3227   19.0314 C   0  0  0  0  0  0  0  0  0  0  0  0
    5.5113    1.2642   17.7773 C   0  0  0  0  0  0  0  0  0  0  0  0
    6.6622    0.6181   17.5463 N   0  0  0  0  0  0  0  0  0  0  0  0
    7.2429    0.0141   18.5928 C   0  0  0  0  0  0  0  0  0  0  0  0
    8.1777   -0.5058   18.3742 H   0  0  0  0  0  0  0  0  0  0  0  0
    5.0512    1.7549   16.9205 H   0  0  0  0  0  0  0  0  0  0  0  0
    3.9709    1.8688   19.1509 H   0  0  0  0  0  0  0  0  0  0  0  0
    5.0755    0.7216   21.1129 H   0  0  0  0  0  0  0  0  0  0  0  0
    8.3612   -1.1422   20.7115 H   0  0  0  0  0  0  0  0  0  0  0  0
    6.8077   -1.3916   21.5418 H   0  0  0  0  0  0  0  0  0  0  0  0
    8.8655    1.1614   22.1730 C   0  0  0  0  0  0  0  0  0  0  0  0
    9.9400    1.3003   21.1616 C   0  0  0  0  0  0  0  0  0  0  0  0
   11.0500    0.4382   21.4763 N   0  0  0  0  0  0  0  0  0  0  0  0
   12.0382    0.6483   22.3723 C   0  0  0  0  0  0  0  0  0  0  0  0
   12.8600   -0.4617   22.3308 C   0  0  0  0  0  0  0  0  0  0  0  0
   12.2582   -1.2895   21.3591 C   0  0  0  0  0  0  0  0  0  0  0  0
   11.1422   -0.7467   20.8813 N   0  0  0  0  0  0  0  0  0  0  0  0
   12.5900   -2.2385   20.9611 H   0  0  0  0  0  0  0  0  0  0  0  0
   13.7621   -0.6446   22.9010 H   0  0  0  0  0  0  0  0  0  0  0  0
   12.0553    1.5816   22.9196 H   0  0  0  0  0  0  0  0  0  0  0  0
   10.2898    2.3379   21.1559 H   0  0  0  0  0  0  0  0  0  0  0  0
    9.5868    1.0144   20.1704 H   0  0  0  0  0  0  0  0  0  0  0  0
    8.8061    1.8720   23.2711 N   0  0  0  0  0  0  0  0  0  0  0  0
    7.8475    3.1969   25.6012 C   0  0  0  0  0  0  0  0  0  0  0  0
    8.7182    3.5482   25.0509 H   0  0  0  0  0  0  0  0  0  0  0  0
    5.5338    0.6805   25.5417 H   0  0  0  0  0  0  0  0  0  0  0  0
    4.8217    1.8688   27.6015 H   0  0  0  0  0  0  0  0  0  0  0  0
    6.0102    3.9200   28.3549 H   0  0  0  0  0  0  0  0  0  0  0  0
    9.2141    5.0778   26.9532 H   0  0  0  0  0  0  0  0  0  0  0  0
    7.9880    5.4273   28.1788 H   0  0  0  0  0  0  0  0  0  0  0  0
    7.7875    6.0204   26.5139 H   0  0  0  0  0  0  0  0  0  0  0  0
  1  2  1  0
  2  3  2  0
  3  4  1  0
  4  5  2  0
  5  6  1  0
  6  7  1  0
  7  8  2  0
  8  9  1  0
  9 10  1  0
 10 11  1  0
 11 12  2  0
 12 13  1  0
 13 14  2  0
 14 15  1  0
 15 16  2  0
 16 17  1  0
 14 18  1  0
 13 19  1  0
 12 20  1  0
 10 21  1  0
 10 22  1  0
  9 23  1  0
 23 24  1  0
 24 25  1  0
 25 26  1  0
 26 27  2  0
 27 28  1  0
 28 29  2  0
 28 30  1  0
 27 31  1  0
 26 32  1  0
 24 33  1  0
 24 34  1  0
 23 35  2  0
  6 36  2  0
 36 37  1  0
  5 38  1  0
  4 39  1  0
  3 40  1  0
  1 41  1  0
  1 42  1  0
  1 43  1  0
 36  2  1  0
 35  7  1  0
 16 11  1  0
 29 25  1  0
M  END
>  <cnnaffinity>  (1) 
-6.01248

>  <filename>  (1) 
Cc1cccc(-c2nc(Cn3cccn3)n(Cc3cccnc3)n2)c1

$$$$
