
     RDKit          3D

 44 47  0  0  0  0  0  0  0  0999 V2000
    8.6943   -0.4945   27.0263 C   0  0  0  0  0  0  0  0  0  0  0  0
    7.5013   -0.0632   26.2019 C   0  0  0  0  0  0  0  0  0  0  0  0
    6.1792   -0.4796   26.4520 C   0  0  0  0  0  0  0  0  0  0  0  0
    5.1278   -0.1423   25.6938 N   0  0  0  0  0  0  0  0  0  0  0  0
    5.3588    0.5886   24.5904 C   0  0  0  0  0  0  0  0  0  0  0  0
    6.6388    0.9995   24.1869 C   0  0  0  0  0  0  0  0  0  0  0  0
    6.9961    1.6446   22.8379 C   0  0  0  0  0  0  0  0  0  0  0  0
    8.1306    0.9188   22.1560 C   0  0  0  0  0  0  0  0  0  0  0  0
    9.4058    1.1960   22.3442 N   0  0  0  0  0  0  0  0  0  0  0  0
   10.0344    0.0655   21.9262 C   0  0  0  0  0  0  0  0  0  0  0  0
   11.4689   -0.0914   22.1425 C   0  0  0  0  0  0  0  0  0  0  0  0
   12.2586   -1.0786   21.5274 C   0  0  0  0  0  0  0  0  0  0  0  0
   13.6128   -1.0596   21.8105 C   0  0  0  0  0  0  0  0  0  0  0  0
   14.4139   -1.9646   21.2381 F   0  0  0  0  0  0  0  0  0  0  0  0
   14.1450   -0.0925   22.6716 C   0  0  0  0  0  0  0  0  0  0  0  0
   13.3797    0.8055   23.3042 N   0  0  0  0  0  0  0  0  0  0  0  0
   12.0711    0.8044   23.0387 C   0  0  0  0  0  0  0  0  0  0  0  0
   11.4754    1.5350   23.5784 H   0  0  0  0  0  0  0  0  0  0  0  0
   15.2104   -0.0452   22.8220 H   0  0  0  0  0  0  0  0  0  0  0  0
   11.8685   -1.8380   20.8494 H   0  0  0  0  0  0  0  0  0  0  0  0
    9.2326   -0.8548   21.4219 N   0  0  0  0  0  0  0  0  0  0  0  0
    8.0070   -0.2945   21.5803 N   0  0  0  0  0  0  0  0  0  0  0  0
    6.7892   -0.8784   21.0309 C   0  0  0  0  0  0  0  0  0  0  0  0
    6.2550   -0.0850   19.8504 C   0  0  0  0  0  0  0  0  0  0  0  0
    5.0387    0.6084   19.8755 C   0  0  0  0  0  0  0  0  0  0  0  0
    4.6811    1.3837   18.7663 C   0  0  0  0  0  0  0  0  0  0  0  0
    5.5475    1.4240   17.6702 C   0  0  0  0  0  0  0  0  0  0  0  0
    6.7072    0.7519   17.6165 N   0  0  0  0  0  0  0  0  0  0  0  0
    7.0482    0.0358   18.6947 C   0  0  0  0  0  0  0  0  0  0  0  0
    8.0241   -0.4501   18.6593 H   0  0  0  0  0  0  0  0  0  0  0  0
    5.3069    2.0318   16.7992 H   0  0  0  0  0  0  0  0  0  0  0  0
    3.7742    1.9788   18.7537 H   0  0  0  0  0  0  0  0  0  0  0  0
    4.3900    0.5705   20.7558 H   0  0  0  0  0  0  0  0  0  0  0  0
    6.0465   -0.9216   21.8366 H   0  0  0  0  0  0  0  0  0  0  0  0
    7.0309   -1.9104   20.7656 H   0  0  0  0  0  0  0  0  0  0  0  0
    7.3633    2.6625   23.0012 H   0  0  0  0  0  0  0  0  0  0  0  0
    6.1365    1.7101   22.1652 H   0  0  0  0  0  0  0  0  0  0  0  0
    7.6925    0.7232   25.0688 C   0  0  0  0  0  0  0  0  0  0  0  0
    8.6889    1.0983   24.8321 H   0  0  0  0  0  0  0  0  0  0  0  0
    4.4773    0.8419   23.9991 H   0  0  0  0  0  0  0  0  0  0  0  0
    5.9748   -1.1341   27.3000 H   0  0  0  0  0  0  0  0  0  0  0  0
    9.5876    0.0618   26.7170 H   0  0  0  0  0  0  0  0  0  0  0  0
    8.5552   -0.3195   28.0985 H   0  0  0  0  0  0  0  0  0  0  0  0
    8.9016   -1.5633   26.8818 H   0  0  0  0  0  0  0  0  0  0  0  0
  1  2  1  0
  2  3  2  0
  3  4  1  0
  4  5  2  0
  5  6  1  0
  6  7  1  0
  7  8  1  0
  8  9  2  0
  9 10  1  0
 10 11  1  0
 11 12  2  0
 12 13  1  0
 13 14  1  0
 13 15  2  0
 15 16  1  0
 16 17  2  0
 17 18  1  0
 15 19  1  0
 12 20  1  0
 10 21  2  0
 21 22  1  0
 22 23  1  0
 23 24  1  0
 24 25  2  0
 25 26  1  0
 26 27  2  0
 27 28  1  0
 28 29  2  0
 29 30  1  0
 27 31  1  0
 26 32  1  0
 25 33  1  0
 23 34  1  0
 23 35  1  0
  7 36  1  0
  7 37  1  0
  6 38  2  0
 38 39  1  0
  5 40  1  0
  3 41  1  0
  1 42  1  0
  1 43  1  0
  1 44  1  0
 38  2  1  0
 22  8  1  0
 29 24  1  0
 17 11  1  0
M  END
>  <cnnaffinity>  (1) 
-6.40506

>  <filename>  (1) 
Cc1cncc(Cc2nc(-c3cncc(F)c3)nn2Cc2cccnc2)c1

$$$$
