
     RDKit          3D

 48 51  0  0  0  0  0  0  0  0999 V2000
    9.8476    6.5557   24.0373 C   0  0  0  0  0  0  0  0  0  0  0  0
    8.8037    5.6141   23.4693 C   0  0  0  0  0  0  0  0  0  0  0  0
    7.4295    5.8441   23.6627 C   0  0  0  0  0  0  0  0  0  0  0  0
    6.4562    5.0634   23.1867 N   0  0  0  0  0  0  0  0  0  0  0  0
    6.8150    4.0126   22.4315 C   0  0  0  0  0  0  0  0  0  0  0  0
    8.1404    3.6993   22.0957 C   0  0  0  0  0  0  0  0  0  0  0  0
    8.4989    2.5853   21.1223 C   0  0  0  0  0  0  0  0  0  0  0  0
    9.0953    1.2870   21.7121 C   0  0  0  0  0  0  0  0  0  0  0  0
    8.2682    0.6663   22.7790 C   0  0  0  0  0  0  0  0  0  0  0  0
    8.2494    1.1104   24.0115 N   0  0  0  0  0  0  0  0  0  0  0  0
    7.2324    0.4207   24.5925 C   0  0  0  0  0  0  0  0  0  0  0  0
    6.7598    0.8382   25.9320 C   0  0  0  0  0  0  0  0  0  0  0  0
    5.6788    0.2165   26.5874 C   0  0  0  0  0  0  0  0  0  0  0  0
    5.1373    0.7965   27.7391 C   0  0  0  0  0  0  0  0  0  0  0  0
    5.6773    1.9761   28.2633 C   0  0  0  0  0  0  0  0  0  0  0  0
    6.8025    2.5509   27.6677 C   0  0  0  0  0  0  0  0  0  0  0  0
    7.3491    1.9795   26.5222 C   0  0  0  0  0  0  0  0  0  0  0  0
    8.2267    2.4269   26.0579 H   0  0  0  0  0  0  0  0  0  0  0  0
    7.2502    3.4483   28.0861 H   0  0  0  0  0  0  0  0  0  0  0  0
    5.2121    2.4608   29.1172 H   0  0  0  0  0  0  0  0  0  0  0  0
    4.2839    0.3351   28.2256 H   0  0  0  0  0  0  0  0  0  0  0  0
    5.2563   -0.7054   26.1920 H   0  0  0  0  0  0  0  0  0  0  0  0
    6.6864   -0.4902   23.7970 N   0  0  0  0  0  0  0  0  0  0  0  0
    7.3645   -0.3261   22.6328 N   0  0  0  0  0  0  0  0  0  0  0  0
    7.0819   -1.1470   21.4533 C   0  0  0  0  0  0  0  0  0  0  0  0
    6.5907   -0.3472   20.2547 C   0  0  0  0  0  0  0  0  0  0  0  0
    5.4338    0.4320   20.3718 C   0  0  0  0  0  0  0  0  0  0  0  0
    5.0287    1.2103   19.2866 C   0  0  0  0  0  0  0  0  0  0  0  0
    5.7857    1.1803   18.1132 C   0  0  0  0  0  0  0  0  0  0  0  0
    6.8841    0.4241   17.9691 N   0  0  0  0  0  0  0  0  0  0  0  0
    7.2639   -0.3173   19.0206 C   0  0  0  0  0  0  0  0  0  0  0  0
    8.1628   -0.9205   18.8691 H   0  0  0  0  0  0  0  0  0  0  0  0
    5.5018    1.7918   17.2575 H   0  0  0  0  0  0  0  0  0  0  0  0
    4.1536    1.8493   19.3408 H   0  0  0  0  0  0  0  0  0  0  0  0
    4.8748    0.4456   21.3088 H   0  0  0  0  0  0  0  0  0  0  0  0
    6.3190   -1.8539   21.7863 H   0  0  0  0  0  0  0  0  0  0  0  0
    7.9733   -1.7287   21.1800 H   0  0  0  0  0  0  0  0  0  0  0  0
   10.0625    1.5151   22.1690 H   0  0  0  0  0  0  0  0  0  0  0  0
    9.2595    0.5599   20.9094 H   0  0  0  0  0  0  0  0  0  0  0  0
    7.6333    2.3230   20.4997 H   0  0  0  0  0  0  0  0  0  0  0  0
    9.2533    2.9758   20.4458 H   0  0  0  0  0  0  0  0  0  0  0  0
    9.1380    4.5055   22.6819 C   0  0  0  0  0  0  0  0  0  0  0  0
   10.1925    4.2828   22.5023 H   0  0  0  0  0  0  0  0  0  0  0  0
    5.9913    3.3963   22.0611 H   0  0  0  0  0  0  0  0  0  0  0  0
    7.1021    6.7090   24.2438 H   0  0  0  0  0  0  0  0  0  0  0  0
   10.0133    6.3718   25.1066 H   0  0  0  0  0  0  0  0  0  0  0  0
    9.5287    7.6007   23.9251 H   0  0  0  0  0  0  0  0  0  0  0  0
   10.8123    6.4474   23.5287 H   0  0  0  0  0  0  0  0  0  0  0  0
  1  2  1  0
  2  3  2  0
  3  4  1  0
  4  5  2  0
  5  6  1  0
  6  7  1  0
  7  8  1  0
  8  9  1  0
  9 10  2  0
 10 11  1  0
 11 12  1  0
 12 13  2  0
 13 14  1  0
 14 15  2  0
 15 16  1  0
 16 17  2  0
 17 18  1  0
 16 19  1  0
 15 20  1  0
 14 21  1  0
 13 22  1  0
 11 23  2  0
 23 24  1  0
 24 25  1  0
 25 26  1  0
 26 27  2  0
 27 28  1  0
 28 29  2  0
 29 30  1  0
 30 31  2  0
 31 32  1  0
 29 33  1  0
 28 34  1  0
 27 35  1  0
 25 36  1  0
 25 37  1  0
  8 38  1  0
  8 39  1  0
  7 40  1  0
  7 41  1  0
  6 42  2  0
 42 43  1  0
  5 44  1  0
  3 45  1  0
  1 46  1  0
  1 47  1  0
  1 48  1  0
 42  2  1  0
 24  9  1  0
 31 26  1  0
 17 12  1  0
M  END
>  <cnnaffinity>  (1) 
-6.10492

>  <filename>  (1) 
Cc1cncc(CCc2nc(-c3ccccc3)nn2Cc2cccnc2)c1

$$$$
