
     RDKit          3D

 45 48  0  0  0  0  0  0  0  0999 V2000
   14.4187   -1.8292   22.0564 C   0  0  0  0  0  0  0  0  0  0  0  0
   13.1297   -1.0795   22.0565 C   0  0  0  0  0  0  0  0  0  0  0  0
   13.0187    0.1718   22.6773 C   0  0  0  0  0  0  0  0  0  0  0  0
   11.8858    0.9410   22.4394 C   0  0  0  0  0  0  0  0  0  0  0  0
   10.8822    0.4369   21.6016 C   0  0  0  0  0  0  0  0  0  0  0  0
    9.6973    1.3228   21.2522 C   0  0  0  0  0  0  0  0  0  0  0  0
    8.5951    1.2908   22.2635 C   0  0  0  0  0  0  0  0  0  0  0  0
    8.5395    2.0114   23.3584 N   0  0  0  0  0  0  0  0  0  0  0  0
    7.4518    1.5102   24.0090 C   0  0  0  0  0  0  0  0  0  0  0  0
    7.0458    2.0212   25.3340 C   0  0  0  0  0  0  0  0  0  0  0  0
    5.9068    1.5262   26.0035 C   0  0  0  0  0  0  0  0  0  0  0  0
    5.5564    2.0262   27.2575 C   0  0  0  0  0  0  0  0  0  0  0  0
    6.3481    3.0172   27.8368 C   0  0  0  0  0  0  0  0  0  0  0  0
    5.9988    3.5081   29.0356 F   0  0  0  0  0  0  0  0  0  0  0  0
    7.4883    3.5136   27.2096 C   0  0  0  0  0  0  0  0  0  0  0  0
    7.8349    3.0096   25.9600 C   0  0  0  0  0  0  0  0  0  0  0  0
    8.7299    3.3744   25.4565 H   0  0  0  0  0  0  0  0  0  0  0  0
    8.0787    4.2826   27.6962 H   0  0  0  0  0  0  0  0  0  0  0  0
    4.6841    1.6638   27.7891 H   0  0  0  0  0  0  0  0  0  0  0  0
    5.3028    0.7426   25.5456 H   0  0  0  0  0  0  0  0  0  0  0  0
    6.8401    0.5351   23.3560 N   0  0  0  0  0  0  0  0  0  0  0  0
    7.5918    0.3908   22.2436 N   0  0  0  0  0  0  0  0  0  0  0  0
    7.2489   -0.5540   21.1845 C   0  0  0  0  0  0  0  0  0  0  0  0
    6.6211    0.0986   19.9633 C   0  0  0  0  0  0  0  0  0  0  0  0
    5.4131    0.7933   20.1030 C   0  0  0  0  0  0  0  0  0  0  0  0
    4.8434    1.3917   18.9777 C   0  0  0  0  0  0  0  0  0  0  0  0
    5.4969    1.2769   17.7478 C   0  0  0  0  0  0  0  0  0  0  0  0
    6.6459    0.6034   17.5875 N   0  0  0  0  0  0  0  0  0  0  0  0
    7.1854    0.0398   18.6788 C   0  0  0  0  0  0  0  0  0  0  0  0
    8.1278   -0.4832   18.5071 H   0  0  0  0  0  0  0  0  0  0  0  0
    5.0754    1.7360   16.8535 H   0  0  0  0  0  0  0  0  0  0  0  0
    3.9174    1.9532   19.0446 H   0  0  0  0  0  0  0  0  0  0  0  0
    4.9381    0.8733   21.0818 H   0  0  0  0  0  0  0  0  0  0  0  0
    8.1609   -1.0947   20.9071 H   0  0  0  0  0  0  0  0  0  0  0  0
    6.5597   -1.2805   21.6239 H   0  0  0  0  0  0  0  0  0  0  0  0
    9.2872    1.0568   20.2792 H   0  0  0  0  0  0  0  0  0  0  0  0
   10.0182    2.3650   21.1614 H   0  0  0  0  0  0  0  0  0  0  0  0
   11.0248   -0.8905   21.1687 C   0  0  0  0  0  0  0  0  0  0  0  0
   12.1259   -1.6237   21.3597 N   0  0  0  0  0  0  0  0  0  0  0  0
   10.2257   -1.3853   20.6098 H   0  0  0  0  0  0  0  0  0  0  0  0
   11.7995    1.9423   22.8661 H   0  0  0  0  0  0  0  0  0  0  0  0
   13.8165    0.5215   23.3203 H   0  0  0  0  0  0  0  0  0  0  0  0
   14.2586   -2.9097   22.0356 H   0  0  0  0  0  0  0  0  0  0  0  0
   14.9516   -1.5769   21.1329 H   0  0  0  0  0  0  0  0  0  0  0  0
   15.0429   -1.5725   22.9148 H   0  0  0  0  0  0  0  0  0  0  0  0
  1  2  1  0
  2  3  2  0
  3  4  1  0
  4  5  2  0
  5  6  1  0
  6  7  1  0
  7  8  2  0
  8  9  1  0
  9 10  1  0
 10 11  2  0
 11 12  1  0
 12 13  2  0
 13 14  1  0
 13 15  1  0
 15 16  2  0
 16 17  1  0
 15 18  1  0
 12 19  1  0
 11 20  1  0
  9 21  2  0
 21 22  1  0
 22 23  1  0
 23 24  1  0
 24 25  2  0
 25 26  1  0
 26 27  2  0
 27 28  1  0
 28 29  2  0
 29 30  1  0
 27 31  1  0
 26 32  1  0
 25 33  1  0
 23 34  1  0
 23 35  1  0
  6 36  1  0
  6 37  1  0
  5 38  1  0
 38 39  2  0
 38 40  1  0
  4 41  1  0
  3 42  1  0
  1 43  1  0
  1 44  1  0
  1 45  1  0
 39  2  1  0
 22  7  1  0
 29 24  1  0
 16 10  1  0
M  END
>  <cnnaffinity>  (1) 
-6.5205

>  <filename>  (1) 
Cc1ccc(Cc2nc(-c3ccc(F)cc3)nn2Cc2cccnc2)cn1

$$$$
