
     RDKit          3D

 33 35  0  0  0  0  0  0  0  0999 V2000
   11.9635    1.1332   22.3366 C   0  0  0  0  0  0  0  0  0  0  0  0
   10.7079    1.9543   22.4387 C   0  0  0  0  0  0  0  0  0  0  0  0
   10.7077    3.1376   23.1959 C   0  0  0  0  0  0  0  0  0  0  0  0
   12.3457    3.8505   23.8775 Br  0  0  0  0  0  0  0  0  0  0  0  0
    9.5002    3.7895   23.4618 C   0  0  0  0  0  0  0  0  0  0  0  0
    8.3041    3.2996   22.9259 C   0  0  0  0  0  0  0  0  0  0  0  0
    8.3241    2.1996   22.0584 C   0  0  0  0  0  0  0  0  0  0  0  0
    9.5256    1.5136   21.8102 C   0  0  0  0  0  0  0  0  0  0  0  0
    9.5575    0.3470   20.8480 C   0  0  0  0  0  0  0  0  0  0  0  0
    8.6300   -0.6855   21.2718 N   0  0  0  0  0  0  0  0  0  0  0  0
    7.2825   -0.7402   20.9796 C   0  0  0  0  0  0  0  0  0  0  0  0
    6.6289   -0.0007   19.9264 C   0  0  0  0  0  0  0  0  0  0  0  0
    5.3927    0.6180   20.1282 C   0  0  0  0  0  0  0  0  0  0  0  0
    4.8397    1.2983   19.0501 C   0  0  0  0  0  0  0  0  0  0  0  0
    5.5021    1.3222   17.8203 C   0  0  0  0  0  0  0  0  0  0  0  0
    6.6813    0.7046   17.6301 N   0  0  0  0  0  0  0  0  0  0  0  0
    7.2359    0.0645   18.6708 C   0  0  0  0  0  0  0  0  0  0  0  0
    8.1865   -0.4380   18.5127 H   0  0  0  0  0  0  0  0  0  0  0  0
    5.0490    1.8546   16.9895 H   0  0  0  0  0  0  0  0  0  0  0  0
    3.9012    1.8259   19.1512 H   0  0  0  0  0  0  0  0  0  0  0  0
    4.8873    0.5878   21.0950 H   0  0  0  0  0  0  0  0  0  0  0  0
    6.6595   -1.5778   21.7668 N   0  0  0  0  0  0  0  0  0  0  0  0
    7.6464   -2.0899   22.6708 O   0  0  0  0  0  0  0  0  0  0  0  0
    8.8166   -1.4931   22.3640 C   0  0  0  0  0  0  0  0  0  0  0  0
    9.8866   -1.6267   22.9477 O   0  0  0  0  0  0  0  0  0  0  0  0
   10.5728   -0.0655   20.8105 H   0  0  0  0  0  0  0  0  0  0  0  0
    9.3116    0.6915   19.8356 H   0  0  0  0  0  0  0  0  0  0  0  0
    7.4002    1.8704   21.5901 H   0  0  0  0  0  0  0  0  0  0  0  0
    7.3662    3.7942   23.1619 H   0  0  0  0  0  0  0  0  0  0  0  0
    9.4998    4.6837   24.0795 H   0  0  0  0  0  0  0  0  0  0  0  0
   12.6762    1.4101   23.1186 H   0  0  0  0  0  0  0  0  0  0  0  0
   11.7239    0.0737   22.4549 H   0  0  0  0  0  0  0  0  0  0  0  0
   12.4326    1.2777   21.3679 H   0  0  0  0  0  0  0  0  0  0  0  0
  1  2  1  0
  2  3  2  0
  3  4  1  0
  3  5  1  0
  5  6  2  0
  6  7  1  0
  7  8  2  0
  8  9  1  0
  9 10  1  0
 10 11  1  0
 11 12  1  0
 12 13  2  0
 13 14  1  0
 14 15  2  0
 15 16  1  0
 16 17  2  0
 17 18  1  0
 15 19  1  0
 14 20  1  0
 13 21  1  0
 11 22  2  0
 22 23  1  0
 23 24  1  0
 24 25  2  0
  9 26  1  0
  9 27  1  0
  7 28  1  0
  6 29  1  0
  5 30  1  0
  1 31  1  0
  1 32  1  0
  1 33  1  0
  8  2  1  0
 24 10  1  0
 17 12  1  0
M  END
>  <cnnaffinity>  (1) 
-5.43379

>  <filename>  (1) 
Cc1c(Br)cccc1Cn1c(-c2cccnc2)noc1=O

$$$$
