
     RDKit          3D

 45 48  0  0  0  0  0  0  0  0999 V2000
    7.6277   -0.3056   27.6851 C   0  0  0  0  0  0  0  0  0  0  0  0
    7.1319    0.3603   26.4406 C   0  0  0  0  0  0  0  0  0  0  0  0
    5.9905    0.1009   25.7441 C   0  0  0  0  0  0  0  0  0  0  0  0
    5.9092    0.8224   24.5167 C   0  0  0  0  0  0  0  0  0  0  0  0
    7.0234    1.5638   24.2591 C   0  0  0  0  0  0  0  0  0  0  0  0
    7.5295    2.0500   22.9184 C   0  0  0  0  0  0  0  0  0  0  0  0
    8.5057    1.0403   22.3746 C   0  0  0  0  0  0  0  0  0  0  0  0
    9.8146    1.0773   22.5381 N   0  0  0  0  0  0  0  0  0  0  0  0
   10.2126   -0.1611   22.1560 C   0  0  0  0  0  0  0  0  0  0  0  0
   11.6074   -0.5988   22.0019 C   0  0  0  0  0  0  0  0  0  0  0  0
   11.7838   -1.7520   21.2215 C   0  0  0  0  0  0  0  0  0  0  0  0
   12.9987   -2.0081   20.6260 C   0  0  0  0  0  0  0  0  0  0  0  0
   14.1012   -1.1969   20.8834 C   0  0  0  0  0  0  0  0  0  0  0  0
   15.1235   -1.3304   19.9579 N   0  0  0  0  0  0  0  0  0  0  0  0
   16.0540   -1.0690   20.2426 H   0  0  0  0  0  0  0  0  0  0  0  0
   15.1130   -2.2493   19.5413 H   0  0  0  0  0  0  0  0  0  0  0  0
   13.9966   -0.1842   21.8605 C   0  0  0  0  0  0  0  0  0  0  0  0
   12.7387    0.1487   22.3857 C   0  0  0  0  0  0  0  0  0  0  0  0
   12.6242    1.0156   23.0414 H   0  0  0  0  0  0  0  0  0  0  0  0
   14.8503    0.4500   22.0731 H   0  0  0  0  0  0  0  0  0  0  0  0
   13.0894   -2.7575   19.8484 H   0  0  0  0  0  0  0  0  0  0  0  0
   10.9142   -2.3574   20.9888 H   0  0  0  0  0  0  0  0  0  0  0  0
    9.2149   -0.9369   21.7451 N   0  0  0  0  0  0  0  0  0  0  0  0
    8.1254   -0.1617   21.8835 N   0  0  0  0  0  0  0  0  0  0  0  0
    6.8466   -0.6381   21.3551 C   0  0  0  0  0  0  0  0  0  0  0  0
    6.3870    0.1026   20.1198 C   0  0  0  0  0  0  0  0  0  0  0  0
    5.1824    0.8060   20.0457 C   0  0  0  0  0  0  0  0  0  0  0  0
    4.8597    1.4740   18.8612 C   0  0  0  0  0  0  0  0  0  0  0  0
    5.7578    1.4111   17.7935 C   0  0  0  0  0  0  0  0  0  0  0  0
    6.9087    0.7238   17.8344 N   0  0  0  0  0  0  0  0  0  0  0  0
    7.2033    0.0910   18.9746 C   0  0  0  0  0  0  0  0  0  0  0  0
    8.1416   -0.4614   18.9862 H   0  0  0  0  0  0  0  0  0  0  0  0
    5.5427    1.9238   16.8584 H   0  0  0  0  0  0  0  0  0  0  0  0
    3.9430    2.0421   18.7544 H   0  0  0  0  0  0  0  0  0  0  0  0
    4.5074    0.8420   20.9032 H   0  0  0  0  0  0  0  0  0  0  0  0
    6.1024   -0.6021   22.1544 H   0  0  0  0  0  0  0  0  0  0  0  0
    7.0092   -1.6944   21.1222 H   0  0  0  0  0  0  0  0  0  0  0  0
    6.6912    2.1841   22.2248 H   0  0  0  0  0  0  0  0  0  0  0  0
    8.0659    2.9982   22.9997 H   0  0  0  0  0  0  0  0  0  0  0  0
    8.1003    1.5357   25.6218 S   0  0  0  0  0  0  0  0  0  0  0  0
    5.0669    0.7592   23.8349 H   0  0  0  0  0  0  0  0  0  0  0  0
    5.2560   -0.6256   26.0738 H   0  0  0  0  0  0  0  0  0  0  0  0
    8.3171    0.3176   28.2592 H   0  0  0  0  0  0  0  0  0  0  0  0
    8.1591   -1.2295   27.4243 H   0  0  0  0  0  0  0  0  0  0  0  0
    6.7897   -0.5898   28.3269 H   0  0  0  0  0  0  0  0  0  0  0  0
  1  2  1  0
  2  3  2  0
  3  4  1  0
  4  5  2  0
  5  6  1  0
  6  7  1  0
  7  8  2  0
  8  9  1  0
  9 10  1  0
 10 11  2  0
 11 12  1  0
 12 13  2  0
 13 14  1  0
 14 15  1  0
 14 16  1  0
 13 17  1  0
 17 18  2  0
 18 19  1  0
 17 20  1  0
 12 21  1  0
 11 22  1  0
  9 23  2  0
 23 24  1  0
 24 25  1  0
 25 26  1  0
 26 27  2  0
 27 28  1  0
 28 29  2  0
 29 30  1  0
 30 31  2  0
 31 32  1  0
 29 33  1  0
 28 34  1  0
 27 35  1  0
 25 36  1  0
 25 37  1  0
  6 38  1  0
  6 39  1  0
  5 40  1  0
  4 41  1  0
  3 42  1  0
  1 43  1  0
  1 44  1  0
  1 45  1  0
 40  2  1  0
 24  7  1  0
 31 26  1  0
 18 10  1  0
M  END
>  <cnnaffinity>  (1) 
-6.70744

>  <filename>  (1) 
Cc1ccc(Cc2nc(-c3ccc(N)cc3)nn2Cc2cccnc2)s1

$$$$
