
     RDKit          3D

 43 46  0  0  0  0  0  0  0  0999 V2000
   12.1394    2.1821   24.5816 C   0  0  0  0  0  0  0  0  0  0  0  0
   11.0998    2.0514   23.5434 C   0  0  0  0  0  0  0  0  0  0  0  0
   11.1268    1.1681   22.5680 N   0  0  0  0  0  0  0  0  0  0  0  0
    9.9667    1.3523   21.9115 N   0  0  0  0  0  0  0  0  0  0  0  0
    9.6079    0.4133   20.8798 C   0  0  0  0  0  0  0  0  0  0  0  0
    8.6149   -0.5705   21.3855 C   0  0  0  0  0  0  0  0  0  0  0  0
    8.8418   -1.4198   22.3543 N   0  0  0  0  0  0  0  0  0  0  0  0
    7.6431   -2.0392   22.5204 C   0  0  0  0  0  0  0  0  0  0  0  0
    7.4178   -3.0659   23.5697 C   0  0  0  0  0  0  0  0  0  0  0  0
    8.4650   -3.4365   24.4414 C   0  0  0  0  0  0  0  0  0  0  0  0
    8.2138   -4.3945   25.4157 C   0  0  0  0  0  0  0  0  0  0  0  0
    9.2063   -4.7480   26.2431 F   0  0  0  0  0  0  0  0  0  0  0  0
    6.9713   -5.0024   25.5658 C   0  0  0  0  0  0  0  0  0  0  0  0
    5.9566   -4.6110   24.6982 C   0  0  0  0  0  0  0  0  0  0  0  0
    4.7489   -5.1763   24.8196 F   0  0  0  0  0  0  0  0  0  0  0  0
    6.1449   -3.6570   23.7084 C   0  0  0  0  0  0  0  0  0  0  0  0
    5.3111   -3.3750   23.0712 H   0  0  0  0  0  0  0  0  0  0  0  0
    6.8011   -5.7467   26.3295 H   0  0  0  0  0  0  0  0  0  0  0  0
    9.4562   -2.9942   24.3834 H   0  0  0  0  0  0  0  0  0  0  0  0
    6.6973   -1.6222   21.6888 N   0  0  0  0  0  0  0  0  0  0  0  0
    7.3334   -0.6909   20.9411 N   0  0  0  0  0  0  0  0  0  0  0  0
    6.6515   -0.0076   19.8942 C   0  0  0  0  0  0  0  0  0  0  0  0
    5.4384    0.6354   20.1561 C   0  0  0  0  0  0  0  0  0  0  0  0
    4.8075    1.3099   19.1040 C   0  0  0  0  0  0  0  0  0  0  0  0
    5.3986    1.2956   17.8349 C   0  0  0  0  0  0  0  0  0  0  0  0
    6.5484    0.6563   17.5694 N   0  0  0  0  0  0  0  0  0  0  0  0
    7.1587    0.0312   18.5842 C   0  0  0  0  0  0  0  0  0  0  0  0
    8.1018   -0.4574   18.3459 H   0  0  0  0  0  0  0  0  0  0  0  0
    4.9331    1.8102   16.9956 H   0  0  0  0  0  0  0  0  0  0  0  0
    3.8745    1.8455   19.2546 H   0  0  0  0  0  0  0  0  0  0  0  0
    5.0127    0.5915   21.1601 H   0  0  0  0  0  0  0  0  0  0  0  0
    9.2154    0.9573   20.0216 H   0  0  0  0  0  0  0  0  0  0  0  0
   10.5247   -0.1241   20.6423 H   0  0  0  0  0  0  0  0  0  0  0  0
    9.1929    2.3246   22.4676 C   0  0  0  0  0  0  0  0  0  0  0  0
    7.8259    2.7178   22.0129 C   0  0  0  0  0  0  0  0  0  0  0  0
    7.7606    2.7534   20.9262 H   0  0  0  0  0  0  0  0  0  0  0  0
    7.5769    3.6974   22.4288 H   0  0  0  0  0  0  0  0  0  0  0  0
    7.0749    2.0007   22.3599 H   0  0  0  0  0  0  0  0  0  0  0  0
    9.9176    2.8061   23.5258 C   0  0  0  0  0  0  0  0  0  0  0  0
    9.6667    3.6112   24.1979 H   0  0  0  0  0  0  0  0  0  0  0  0
   12.1100    3.2300   24.8767 H   0  0  0  0  0  0  0  0  0  0  0  0
   11.8548    1.5619   25.4351 H   0  0  0  0  0  0  0  0  0  0  0  0
   13.1415    1.9179   24.2397 H   0  0  0  0  0  0  0  0  0  0  0  0
  1  2  1  0
  2  3  2  0
  3  4  1  0
  4  5  1  0
  5  6  1  0
  6  7  2  0
  7  8  1  0
  8  9  1  0
  9 10  2  0
 10 11  1  0
 11 12  1  0
 11 13  2  0
 13 14  1  0
 14 15  1  0
 14 16  2  0
 16 17  1  0
 13 18  1  0
 10 19  1  0
  8 20  2  0
 20 21  1  0
 21 22  1  0
 22 23  2  0
 23 24  1  0
 24 25  2  0
 25 26  1  0
 26 27  2  0
 27 28  1  0
 25 29  1  0
 24 30  1  0
 23 31  1  0
  5 32  1  0
  5 33  1  0
  4 34  1  0
 34 35  1  0
 35 36  1  0
 35 37  1  0
 35 38  1  0
 34 39  2  0
 39 40  1  0
  1 41  1  0
  1 42  1  0
  1 43  1  0
 39  2  1  0
 21  6  1  0
 27 22  1  0
 16  9  1  0
M  END
>  <cnnaffinity>  (1) 
-6.19604

>  <filename>  (1) 
Cc1cc(C)n(Cc2nc(-c3cc(F)cc(F)c3)nn2-c2cccnc2)n1

$$$$
