
     RDKit          3D

 47 50  0  0  0  0  0  0  0  0999 V2000
    6.9561    0.1060   27.4647 C   0  0  0  0  0  0  0  0  0  0  0  0
    7.2580   -0.9761   26.4545 C   0  0  0  0  0  0  0  0  0  0  0  0
    7.5330   -2.3081   26.8168 C   0  0  0  0  0  0  0  0  0  0  0  0
    7.6973   -3.3076   25.9407 N   0  0  0  0  0  0  0  0  0  0  0  0
    7.6928   -3.0055   24.6394 C   0  0  0  0  0  0  0  0  0  0  0  0
    7.5823   -1.6865   24.1728 C   0  0  0  0  0  0  0  0  0  0  0  0
    7.7895   -1.3518   22.8051 N   0  0  0  0  0  0  0  0  0  0  0  0
    6.7739   -0.8056   22.1045 N   0  0  0  0  0  0  0  0  0  0  0  0
    7.3207   -0.5552   20.9335 C   0  0  0  0  0  0  0  0  0  0  0  0
    6.5880    0.0716   19.8413 C   0  0  0  0  0  0  0  0  0  0  0  0
    5.3528    0.7230   20.0047 C   0  0  0  0  0  0  0  0  0  0  0  0
    4.7990    1.3486   18.8921 C   0  0  0  0  0  0  0  0  0  0  0  0
    5.4820    1.2886   17.6695 C   0  0  0  0  0  0  0  0  0  0  0  0
    6.6473    0.6447   17.5033 N   0  0  0  0  0  0  0  0  0  0  0  0
    7.1844    0.0572   18.5762 C   0  0  0  0  0  0  0  0  0  0  0  0
    8.1330   -0.4564   18.4301 H   0  0  0  0  0  0  0  0  0  0  0  0
    5.0719    1.7742   16.7869 H   0  0  0  0  0  0  0  0  0  0  0  0
    3.8631    1.8929   18.9570 H   0  0  0  0  0  0  0  0  0  0  0  0
    4.8584    0.7418   20.9799 H   0  0  0  0  0  0  0  0  0  0  0  0
    8.6365   -0.8925   20.8343 N   0  0  0  0  0  0  0  0  0  0  0  0
    8.9218   -1.3543   22.0305 C   0  0  0  0  0  0  0  0  0  0  0  0
   10.2276   -1.9321   22.4844 C   0  0  0  0  0  0  0  0  0  0  0  0
   11.5014   -1.1279   22.2587 C   0  0  0  0  0  0  0  0  0  0  0  0
   12.5128   -1.6158   21.4223 C   0  0  0  0  0  0  0  0  0  0  0  0
   13.8136   -1.1078   21.4445 C   0  0  0  0  0  0  0  0  0  0  0  0
   14.1139   -0.0363   22.2912 C   0  0  0  0  0  0  0  0  0  0  0  0
   13.1037    0.5369   23.0593 C   0  0  0  0  0  0  0  0  0  0  0  0
   11.8039   -0.0003   23.0318 C   0  0  0  0  0  0  0  0  0  0  0  0
   10.5336    0.7082   24.1161 S   0  0  0  0  0  0  0  0  0  0  0  0
   10.5996    2.2036   24.0207 O   0  0  0  0  0  0  0  0  0  0  0  0
   11.4751    0.3334   25.6012 C   0  0  0  0  0  0  0  0  0  0  0  0
   11.7912   -0.7075   25.6300 H   0  0  0  0  0  0  0  0  0  0  0  0
   10.9088    0.5961   26.4950 H   0  0  0  0  0  0  0  0  0  0  0  0
   12.3562    0.9667   25.5099 H   0  0  0  0  0  0  0  0  0  0  0  0
   13.3335    1.4133   23.6603 H   0  0  0  0  0  0  0  0  0  0  0  0
   15.1189    0.3632   22.3541 H   0  0  0  0  0  0  0  0  0  0  0  0
   14.5696   -1.5411   20.7974 H   0  0  0  0  0  0  0  0  0  0  0  0
   12.2719   -2.4057   20.7329 H   0  0  0  0  0  0  0  0  0  0  0  0
   10.3222   -2.9003   21.9897 H   0  0  0  0  0  0  0  0  0  0  0  0
   10.1538   -2.1399   23.5557 H   0  0  0  0  0  0  0  0  0  0  0  0
    7.2625   -0.6811   25.0853 C   0  0  0  0  0  0  0  0  0  0  0  0
    7.0402    0.3267   24.7255 H   0  0  0  0  0  0  0  0  0  0  0  0
    7.8014   -3.8383   23.9469 H   0  0  0  0  0  0  0  0  0  0  0  0
    7.6259   -2.5828   27.8587 H   0  0  0  0  0  0  0  0  0  0  0  0
    7.3439    1.0727   27.1299 H   0  0  0  0  0  0  0  0  0  0  0  0
    5.8787    0.2297   27.6185 H   0  0  0  0  0  0  0  0  0  0  0  0
    7.3970   -0.0949   28.4428 H   0  0  0  0  0  0  0  0  0  0  0  0
  1  2  1  0
  2  3  2  0
  3  4  1  0
  4  5  2  0
  5  6  1  0
  6  7  1  0
  7  8  1  0
  8  9  2  0
  9 10  1  0
 10 11  2  0
 11 12  1  0
 12 13  2  0
 13 14  1  0
 14 15  2  0
 15 16  1  0
 13 17  1  0
 12 18  1  0
 11 19  1  0
  9 20  1  0
 20 21  2  0
 21 22  1  0
 22 23  1  0
 23 24  2  0
 24 25  1  0
 25 26  2  0
 26 27  1  0
 27 28  2  0
 28 29  1  0
 29 30  2  0
 29 31  1  0
 31 32  1  0
 31 33  1  0
 31 34  1  0
 27 35  1  0
 26 36  1  0
 25 37  1  0
 24 38  1  0
 22 39  1  0
 22 40  1  0
  6 41  2  0
 41 42  1  0
  5 43  1  0
  3 44  1  0
  1 45  1  0
  1 46  1  0
  1 47  1  0
 41  2  1  0
 21  7  1  0
 28 23  1  0
 15 10  1  0
M  END
>  <cnnaffinity>  (1) 
-6.85375

>  <filename>  (1) 
Cc1cncc(-n2nc(-c3cccnc3)nc2Cc2ccccc2S(C)=O)c1

$$$$
