
     RDKit          3D

 47 50  0  0  0  0  0  0  0  0999 V2000
    4.5441    2.1922   27.3890 C   0  0  0  0  0  0  0  0  0  0  0  0
    5.8683    2.5175   26.7380 C   0  0  0  0  0  0  0  0  0  0  0  0
    6.2629    1.9164   25.5406 C   0  0  0  0  0  0  0  0  0  0  0  0
    7.5026    2.2033   24.9353 C   0  0  0  0  0  0  0  0  0  0  0  0
    7.8704    1.5478   23.6710 C   0  0  0  0  0  0  0  0  0  0  0  0
    7.1623    0.5783   23.1055 N   0  0  0  0  0  0  0  0  0  0  0  0
    7.9035    0.2453   22.0261 N   0  0  0  0  0  0  0  0  0  0  0  0
    7.3893   -0.6830   21.0228 C   0  0  0  0  0  0  0  0  0  0  0  0
    6.6529    0.0005   19.8856 C   0  0  0  0  0  0  0  0  0  0  0  0
    5.4373    0.6468   20.1394 C   0  0  0  0  0  0  0  0  0  0  0  0
    4.8003    1.3070   19.0879 C   0  0  0  0  0  0  0  0  0  0  0  0
    5.3934    1.2989   17.8220 C   0  0  0  0  0  0  0  0  0  0  0  0
    6.5545    0.6786   17.5586 N   0  0  0  0  0  0  0  0  0  0  0  0
    7.1587    0.0557   18.5777 C   0  0  0  0  0  0  0  0  0  0  0  0
    8.1070   -0.4280   18.3325 H   0  0  0  0  0  0  0  0  0  0  0  0
    4.9224    1.8039   16.9797 H   0  0  0  0  0  0  0  0  0  0  0  0
    3.8725    1.8439   19.2390 H   0  0  0  0  0  0  0  0  0  0  0  0
    5.0304    0.6414   21.1537 H   0  0  0  0  0  0  0  0  0  0  0  0
    8.2287   -1.2764   20.6428 H   0  0  0  0  0  0  0  0  0  0  0  0
    6.7283   -1.3554   21.5770 H   0  0  0  0  0  0  0  0  0  0  0  0
    9.0038    1.0289   21.9786 C   0  0  0  0  0  0  0  0  0  0  0  0
   10.0941    0.8358   20.9851 C   0  0  0  0  0  0  0  0  0  0  0  0
   11.0642   -0.3184   21.3428 C   0  0  0  0  0  0  0  0  0  0  0  0
   11.7758   -0.0329   22.6465 C   0  0  0  0  0  0  0  0  0  0  0  0
   12.8878    0.8141   22.7460 C   0  0  0  0  0  0  0  0  0  0  0  0
   13.5015    1.1022   23.8935 N   0  0  0  0  0  0  0  0  0  0  0  0
   12.9693    0.5675   24.9940 C   0  0  0  0  0  0  0  0  0  0  0  0
   11.8747   -0.1785   25.0498 N   0  0  0  0  0  0  0  0  0  0  0  0
   11.2965   -0.4737   23.8817 C   0  0  0  0  0  0  0  0  0  0  0  0
   10.4328   -1.1457   23.9441 H   0  0  0  0  0  0  0  0  0  0  0  0
   13.4915    0.7224   25.9361 H   0  0  0  0  0  0  0  0  0  0  0  0
   13.3189    1.2866   21.8542 H   0  0  0  0  0  0  0  0  0  0  0  0
   10.5119   -1.2659   21.4154 H   0  0  0  0  0  0  0  0  0  0  0  0
   11.7890   -0.4843   20.5406 H   0  0  0  0  0  0  0  0  0  0  0  0
   10.6447    1.7790   20.9244 H   0  0  0  0  0  0  0  0  0  0  0  0
    9.6353    0.6697   20.0067 H   0  0  0  0  0  0  0  0  0  0  0  0
    9.0000    1.8763   22.9872 N   0  0  0  0  0  0  0  0  0  0  0  0
    8.3784    3.1185   25.5566 C   0  0  0  0  0  0  0  0  0  0  0  0
    8.0056    3.7321   26.7513 C   0  0  0  0  0  0  0  0  0  0  0  0
    6.7724    3.4201   27.3169 C   0  0  0  0  0  0  0  0  0  0  0  0
    6.4335    4.0174   28.4747 F   0  0  0  0  0  0  0  0  0  0  0  0
    8.6355    4.4524   27.2601 H   0  0  0  0  0  0  0  0  0  0  0  0
    9.3403    3.3515   25.1020 H   0  0  0  0  0  0  0  0  0  0  0  0
    5.5916    1.2003   25.0639 H   0  0  0  0  0  0  0  0  0  0  0  0
    3.8767    1.6853   26.6847 H   0  0  0  0  0  0  0  0  0  0  0  0
    4.6794    1.5347   28.2547 H   0  0  0  0  0  0  0  0  0  0  0  0
    4.0403    3.0951   27.7463 H   0  0  0  0  0  0  0  0  0  0  0  0
  1  2  1  0
  2  3  2  0
  3  4  1  0
  4  5  1  0
  5  6  2  0
  6  7  1  0
  7  8  1  0
  8  9  1  0
  9 10  2  0
 10 11  1  0
 11 12  2  0
 12 13  1  0
 13 14  2  0
 14 15  1  0
 12 16  1  0
 11 17  1  0
 10 18  1  0
  8 19  1  0
  8 20  1  0
  7 21  1  0
 21 22  1  0
 22 23  1  0
 23 24  1  0
 24 25  2  0
 25 26  1  0
 26 27  2  0
 27 28  1  0
 28 29  2  0
 29 30  1  0
 27 31  1  0
 25 32  1  0
 23 33  1  0
 23 34  1  0
 22 35  1  0
 22 36  1  0
 21 37  2  0
  4 38  2  0
 38 39  1  0
 39 40  2  0
 40 41  1  0
 39 42  1  0
 38 43  1  0
  3 44  1  0
  1 45  1  0
  1 46  1  0
  1 47  1  0
 40  2  1  0
 37  5  1  0
 14  9  1  0
 29 24  1  0
M  END
>  <cnnaffinity>  (1) 
-6.03553

>  <filename>  (1) 
Cc1cc(-c2nc(CCc3cncnc3)n(Cc3cccnc3)n2)ccc1F

$$$$
