
     RDKit          3D

 46 49  0  0  0  0  0  0  0  0999 V2000
   14.6678    0.9445   22.6401 C   0  0  0  0  0  0  0  0  0  0  0  0
   13.6965   -0.0501   22.0862 C   0  0  0  0  0  0  0  0  0  0  0  0
   14.0486   -1.1838   21.3314 C   0  0  0  0  0  0  0  0  0  0  0  0
   13.0655   -1.9937   20.7687 C   0  0  0  0  0  0  0  0  0  0  0  0
   11.7269   -1.7464   21.0420 C   0  0  0  0  0  0  0  0  0  0  0  0
   11.3567   -0.5876   21.7256 C   0  0  0  0  0  0  0  0  0  0  0  0
    9.9450   -0.1968   21.7875 C   0  0  0  0  0  0  0  0  0  0  0  0
    8.9629   -0.9966   21.4136 N   0  0  0  0  0  0  0  0  0  0  0  0
    7.8601   -0.2462   21.6155 N   0  0  0  0  0  0  0  0  0  0  0  0
    6.5703   -0.7192   21.1199 C   0  0  0  0  0  0  0  0  0  0  0  0
    6.0840    0.0461   19.9081 C   0  0  0  0  0  0  0  0  0  0  0  0
    4.9035    0.7944   19.9198 C   0  0  0  0  0  0  0  0  0  0  0  0
    4.5500    1.5151   18.7754 C   0  0  0  0  0  0  0  0  0  0  0  0
    5.3911    1.4543   17.6604 C   0  0  0  0  0  0  0  0  0  0  0  0
    6.5222    0.7330   17.6236 N   0  0  0  0  0  0  0  0  0  0  0  0
    6.8518    0.0566   18.7301 C   0  0  0  0  0  0  0  0  0  0  0  0
    7.7792   -0.5132   18.6791 H   0  0  0  0  0  0  0  0  0  0  0  0
    5.1432    1.9963   16.7496 H   0  0  0  0  0  0  0  0  0  0  0  0
    3.6478    2.1170   18.7353 H   0  0  0  0  0  0  0  0  0  0  0  0
    4.2703    0.8165   20.8098 H   0  0  0  0  0  0  0  0  0  0  0  0
    5.8403   -0.6564   21.9312 H   0  0  0  0  0  0  0  0  0  0  0  0
    6.7114   -1.7802   20.8930 H   0  0  0  0  0  0  0  0  0  0  0  0
    8.2299    0.9674   22.0789 C   0  0  0  0  0  0  0  0  0  0  0  0
    7.2881    1.9121   22.7672 C   0  0  0  0  0  0  0  0  0  0  0  0
    6.9774    1.3733   24.1513 C   0  0  0  0  0  0  0  0  0  0  0  0
    5.8637    0.6941   24.5565 C   0  0  0  0  0  0  0  0  0  0  0  0
    6.1487    0.1435   25.7790 N   0  0  0  0  0  0  0  0  0  0  0  0
    5.3624   -0.7340   26.5845 C   0  0  0  0  0  0  0  0  0  0  0  0
    4.2050   -0.1252   26.9539 F   0  0  0  0  0  0  0  0  0  0  0  0
    5.0122   -1.8522   25.8901 F   0  0  0  0  0  0  0  0  0  0  0  0
    5.9711   -0.9933   27.4519 H   0  0  0  0  0  0  0  0  0  0  0  0
    7.4024    0.4508   26.1781 N   0  0  0  0  0  0  0  0  0  0  0  0
    7.9090    1.1862   25.2124 C   0  0  0  0  0  0  0  0  0  0  0  0
    8.9479    1.4986   25.2337 H   0  0  0  0  0  0  0  0  0  0  0  0
    4.9101    0.5443   24.0674 H   0  0  0  0  0  0  0  0  0  0  0  0
    7.7823    2.8860   22.8153 H   0  0  0  0  0  0  0  0  0  0  0  0
    6.3821    2.0292   22.1662 H   0  0  0  0  0  0  0  0  0  0  0  0
    9.5398    1.0367   22.1815 N   0  0  0  0  0  0  0  0  0  0  0  0
   12.3437    0.2271   22.2683 C   0  0  0  0  0  0  0  0  0  0  0  0
   12.0580    1.1139   22.8243 H   0  0  0  0  0  0  0  0  0  0  0  0
   10.9178   -2.3927   20.7261 H   0  0  0  0  0  0  0  0  0  0  0  0
   13.3576   -2.8059   20.1092 H   0  0  0  0  0  0  0  0  0  0  0  0
   15.0623   -1.4925   21.1486 H   0  0  0  0  0  0  0  0  0  0  0  0
   15.6097    0.9474   22.0923 H   0  0  0  0  0  0  0  0  0  0  0  0
   14.2593    1.9580   22.5722 H   0  0  0  0  0  0  0  0  0  0  0  0
   14.8145    0.7480   23.7026 H   0  0  0  0  0  0  0  0  0  0  0  0
  1  2  1  0
  2  3  2  0
  3  4  1  0
  4  5  2  0
  5  6  1  0
  6  7  1  0
  7  8  2  0
  8  9  1  0
  9 10  1  0
 10 11  1  0
 11 12  2  0
 12 13  1  0
 13 14  2  0
 14 15  1  0
 15 16  2  0
 16 17  1  0
 14 18  1  0
 13 19  1  0
 12 20  1  0
 10 21  1  0
 10 22  1  0
  9 23  1  0
 23 24  1  0
 24 25  1  0
 25 26  2  0
 26 27  1  0
 27 28  1  0
 28 29  1  0
 28 30  1  0
 28 31  1  0
 27 32  1  0
 32 33  2  0
 33 34  1  0
 26 35  1  0
 24 36  1  0
 24 37  1  0
 23 38  2  0
  6 39  2  0
 39 40  1  0
  5 41  1  0
  4 42  1  0
  3 43  1  0
  1 44  1  0
  1 45  1  0
  1 46  1  0
 39  2  1  0
 38  7  1  0
 16 11  1  0
 33 25  1  0
M  END
>  <cnnaffinity>  (1) 
-6.53026

>  <filename>  (1) 
Cc1cccc(-c2nc(Cc3cnn(C(F)F)c3)n(Cc3cccnc3)n2)c1

$$$$
