
     RDKit          3D

 43 46  0  0  0  0  0  0  0  0999 V2000
   12.2741   -1.4053   21.1864 C   0  0  0  0  0  0  0  0  0  0  0  0
   11.8843   -0.1363   21.8727 C   0  0  0  0  0  0  0  0  0  0  0  0
   12.5075    0.5606   22.8830 C   0  0  0  0  0  0  0  0  0  0  0  0
   14.0210    0.1736   23.6020 Cl  0  0  0  0  0  0  0  0  0  0  0  0
   11.6886    1.6715   23.1550 C   0  0  0  0  0  0  0  0  0  0  0  0
   10.6257    1.6703   22.3649 N   0  0  0  0  0  0  0  0  0  0  0  0
   10.7636    0.5837   21.5828 N   0  0  0  0  0  0  0  0  0  0  0  0
    9.6737    0.2232   20.6995 C   0  0  0  0  0  0  0  0  0  0  0  0
    8.6419   -0.6085   21.3641 C   0  0  0  0  0  0  0  0  0  0  0  0
    8.8531   -1.4727   22.3261 N   0  0  0  0  0  0  0  0  0  0  0  0
    7.6139   -1.9787   22.5646 C   0  0  0  0  0  0  0  0  0  0  0  0
    7.3874   -2.9411   23.6825 C   0  0  0  0  0  0  0  0  0  0  0  0
    7.7320   -2.3682   25.0779 C   0  0  0  0  0  0  0  0  0  0  0  0
    8.0269   -3.5931   25.9640 C   0  0  0  0  0  0  0  0  0  0  0  0
    8.3452   -4.7713   25.0081 C   0  0  0  0  0  0  0  0  0  0  0  0
    8.2416   -4.2218   23.5741 C   0  0  0  0  0  0  0  0  0  0  0  0
    9.2358   -3.9724   23.1843 H   0  0  0  0  0  0  0  0  0  0  0  0
    7.7988   -4.9421   22.8774 H   0  0  0  0  0  0  0  0  0  0  0  0
    7.6383   -5.5933   25.1681 H   0  0  0  0  0  0  0  0  0  0  0  0
    9.3382   -5.1920   25.1964 H   0  0  0  0  0  0  0  0  0  0  0  0
    7.1675   -3.8389   26.5983 H   0  0  0  0  0  0  0  0  0  0  0  0
    8.8546   -3.3902   26.6515 H   0  0  0  0  0  0  0  0  0  0  0  0
    8.6138   -1.7186   25.0054 H   0  0  0  0  0  0  0  0  0  0  0  0
    6.9176   -1.7500   25.4732 H   0  0  0  0  0  0  0  0  0  0  0  0
    6.3256   -3.1957   23.6444 H   0  0  0  0  0  0  0  0  0  0  0  0
    6.6737   -1.5307   21.7611 N   0  0  0  0  0  0  0  0  0  0  0  0
    7.3426   -0.6749   20.9430 N   0  0  0  0  0  0  0  0  0  0  0  0
    6.6583    0.0092   19.9040 C   0  0  0  0  0  0  0  0  0  0  0  0
    5.4384    0.6464   20.1654 C   0  0  0  0  0  0  0  0  0  0  0  0
    4.8126    1.3109   19.1089 C   0  0  0  0  0  0  0  0  0  0  0  0
    5.4019    1.2957   17.8374 C   0  0  0  0  0  0  0  0  0  0  0  0
    6.5610    0.6729   17.5788 N   0  0  0  0  0  0  0  0  0  0  0  0
    7.1704    0.0535   18.5944 C   0  0  0  0  0  0  0  0  0  0  0  0
    8.1130   -0.4332   18.3605 H   0  0  0  0  0  0  0  0  0  0  0  0
    4.9237    1.7850   16.9926 H   0  0  0  0  0  0  0  0  0  0  0  0
    3.8805    1.8399   19.2594 H   0  0  0  0  0  0  0  0  0  0  0  0
    5.0169    0.6086   21.1734 H   0  0  0  0  0  0  0  0  0  0  0  0
    9.2552    1.1454   20.3074 H   0  0  0  0  0  0  0  0  0  0  0  0
   10.0473   -0.3763   19.8693 H   0  0  0  0  0  0  0  0  0  0  0  0
   11.8621    2.4455   23.8921 H   0  0  0  0  0  0  0  0  0  0  0  0
   12.6308   -1.2450   20.1630 H   0  0  0  0  0  0  0  0  0  0  0  0
   11.4273   -2.1011   21.1367 H   0  0  0  0  0  0  0  0  0  0  0  0
   13.0891   -1.8766   21.7401 H   0  0  0  0  0  0  0  0  0  0  0  0
  1  2  1  0
  2  3  2  0
  3  4  1  0
  3  5  1  0
  5  6  2  0
  6  7  1  0
  7  8  1  0
  8  9  1  0
  9 10  2  0
 10 11  1  0
 11 12  1  0
 12 13  1  0
 13 14  1  0
 14 15  1  0
 15 16  1  0
 16 17  1  0
 16 18  1  0
 15 19  1  0
 15 20  1  0
 14 21  1  0
 14 22  1  0
 13 23  1  0
 13 24  1  0
 12 25  1  0
 11 26  2  0
 26 27  1  0
 27 28  1  0
 28 29  2  0
 29 30  1  0
 30 31  2  0
 31 32  1  0
 32 33  2  0
 33 34  1  0
 31 35  1  0
 30 36  1  0
 29 37  1  0
  8 38  1  0
  8 39  1  0
  5 40  1  0
  1 41  1  0
  1 42  1  0
  1 43  1  0
  7  2  1  0
 27  9  1  0
 33 28  1  0
 16 12  1  0
M  END
>  <cnnaffinity>  (1) 
-6.72132

>  <filename>  (1) 
Cc1c(Cl)cnn1Cc1nc(C2CCCC2)nn1-c1cccnc1

$$$$
