
     RDKit          3D

 43 46  0  0  0  0  0  0  0  0999 V2000
   11.6135    2.8959   24.1211 C   0  0  0  0  0  0  0  0  0  0  0  0
   11.6277    1.7812   23.1428 C   0  0  0  0  0  0  0  0  0  0  0  0
   12.5360    0.8082   22.8943 C   0  0  0  0  0  0  0  0  0  0  0  0
   11.9599   -0.0193   21.8679 C   0  0  0  0  0  0  0  0  0  0  0  0
   10.7488    0.5169   21.5850 C   0  0  0  0  0  0  0  0  0  0  0  0
    9.6279    0.1517   20.6881 C   0  0  0  0  0  0  0  0  0  0  0  0
    8.5647   -0.6142   21.3900 C   0  0  0  0  0  0  0  0  0  0  0  0
    8.7561   -1.4228   22.4009 N   0  0  0  0  0  0  0  0  0  0  0  0
    7.5329   -1.9922   22.5826 C   0  0  0  0  0  0  0  0  0  0  0  0
    7.3389   -3.0017   23.6716 C   0  0  0  0  0  0  0  0  0  0  0  0
    7.7301   -2.4431   25.0554 C   0  0  0  0  0  0  0  0  0  0  0  0
    8.0115   -3.6677   25.9371 C   0  0  0  0  0  0  0  0  0  0  0  0
    8.3263   -4.8339   24.9699 C   0  0  0  0  0  0  0  0  0  0  0  0
    8.2407   -4.2525   23.5471 C   0  0  0  0  0  0  0  0  0  0  0  0
    9.2369   -3.9365   23.2149 H   0  0  0  0  0  0  0  0  0  0  0  0
    7.8615   -4.9753   22.8165 H   0  0  0  0  0  0  0  0  0  0  0  0
    9.3119   -5.2713   25.1602 H   0  0  0  0  0  0  0  0  0  0  0  0
    7.6005   -5.6418   25.1096 H   0  0  0  0  0  0  0  0  0  0  0  0
    7.1414   -3.9110   26.5546 H   0  0  0  0  0  0  0  0  0  0  0  0
    8.8372   -3.4697   26.6282 H   0  0  0  0  0  0  0  0  0  0  0  0
    8.6455   -1.8514   24.9380 H   0  0  0  0  0  0  0  0  0  0  0  0
    6.9580   -1.7813   25.4608 H   0  0  0  0  0  0  0  0  0  0  0  0
    6.2848   -3.2949   23.6546 H   0  0  0  0  0  0  0  0  0  0  0  0
    6.6071   -1.5870   21.7414 N   0  0  0  0  0  0  0  0  0  0  0  0
    7.2765   -0.7089   20.9438 N   0  0  0  0  0  0  0  0  0  0  0  0
    6.6034   -0.0232   19.8898 C   0  0  0  0  0  0  0  0  0  0  0  0
    5.3927    0.6318   20.1355 C   0  0  0  0  0  0  0  0  0  0  0  0
    4.7918    1.3186   19.0783 C   0  0  0  0  0  0  0  0  0  0  0  0
    5.3990    1.3094   17.8174 C   0  0  0  0  0  0  0  0  0  0  0  0
    6.5415    0.6549   17.5653 N   0  0  0  0  0  0  0  0  0  0  0  0
    7.1256    0.0080   18.5823 C   0  0  0  0  0  0  0  0  0  0  0  0
    8.0608   -0.4995   18.3488 H   0  0  0  0  0  0  0  0  0  0  0  0
    4.9560    1.8401   16.9793 H   0  0  0  0  0  0  0  0  0  0  0  0
    3.8709    1.8650   19.2219 H   0  0  0  0  0  0  0  0  0  0  0  0
    4.9583    0.6026   21.1374 H   0  0  0  0  0  0  0  0  0  0  0  0
    9.9895   -0.4942   19.8847 H   0  0  0  0  0  0  0  0  0  0  0  0
    9.2106    1.0579   20.2482 H   0  0  0  0  0  0  0  0  0  0  0  0
   10.5290    1.6022   22.3644 O   0  0  0  0  0  0  0  0  0  0  0  0
   12.3940   -0.8936   21.4042 H   0  0  0  0  0  0  0  0  0  0  0  0
   13.4807    0.7055   23.4125 H   0  0  0  0  0  0  0  0  0  0  0  0
   10.7387    3.5332   23.9952 H   0  0  0  0  0  0  0  0  0  0  0  0
   12.5160    3.5053   24.0268 H   0  0  0  0  0  0  0  0  0  0  0  0
   11.6200    2.4663   25.1268 H   0  0  0  0  0  0  0  0  0  0  0  0
  1  2  1  0
  2  3  2  0
  3  4  1  0
  4  5  2  0
  5  6  1  0
  6  7  1  0
  7  8  2  0
  8  9  1  0
  9 10  1  0
 10 11  1  0
 11 12  1  0
 12 13  1  0
 13 14  1  0
 14 15  1  0
 14 16  1  0
 13 17  1  0
 13 18  1  0
 12 19  1  0
 12 20  1  0
 11 21  1  0
 11 22  1  0
 10 23  1  0
  9 24  2  0
 24 25  1  0
 25 26  1  0
 26 27  2  0
 27 28  1  0
 28 29  2  0
 29 30  1  0
 30 31  2  0
 31 32  1  0
 29 33  1  0
 28 34  1  0
 27 35  1  0
  6 36  1  0
  6 37  1  0
  5 38  1  0
  4 39  1  0
  3 40  1  0
  1 41  1  0
  1 42  1  0
  1 43  1  0
 38  2  1  0
 25  7  1  0
 31 26  1  0
 14 10  1  0
M  END
>  <cnnaffinity>  (1) 
-6.26634

>  <filename>  (1) 
Cc1ccc(Cc2nc(C3CCCC3)nn2-c2cccnc2)o1

$$$$
