
     RDKit          3D

 46 49  0  0  0  0  0  0  0  0999 V2000
   13.3380    1.2535   24.2372 C   0  0  0  0  0  0  0  0  0  0  0  0
   12.3430    1.0340   23.1397 C   0  0  0  0  0  0  0  0  0  0  0  0
   11.2712    1.8651   22.9839 C   0  0  0  0  0  0  0  0  0  0  0  0
   10.2990    1.6881   21.9293 C   0  0  0  0  0  0  0  0  0  0  0  0
    9.3591    2.4356   21.6998 O   0  0  0  0  0  0  0  0  0  0  0  0
   10.4812    0.5075   21.1417 N   0  0  0  0  0  0  0  0  0  0  0  0
    9.3440    0.0394   20.3515 C   0  0  0  0  0  0  0  0  0  0  0  0
    8.3861   -0.8449   21.1113 C   0  0  0  0  0  0  0  0  0  0  0  0
    8.6414   -1.6256   22.1425 N   0  0  0  0  0  0  0  0  0  0  0  0
    7.4229   -2.1199   22.4696 C   0  0  0  0  0  0  0  0  0  0  0  0
    7.2258   -3.0474   23.6416 C   0  0  0  0  0  0  0  0  0  0  0  0
    6.5704   -4.3870   23.2390 C   0  0  0  0  0  0  0  0  0  0  0  0
    5.9852   -4.9776   24.5329 C   0  0  0  0  0  0  0  0  0  0  0  0
    5.7673   -3.7877   25.5004 C   0  0  0  0  0  0  0  0  0  0  0  0
    6.3198   -2.5278   24.7922 C   0  0  0  0  0  0  0  0  0  0  0  0
    6.8573   -1.8671   25.4837 H   0  0  0  0  0  0  0  0  0  0  0  0
    5.4975   -1.9355   24.3825 H   0  0  0  0  0  0  0  0  0  0  0  0
    6.2807   -3.9703   26.4517 H   0  0  0  0  0  0  0  0  0  0  0  0
    4.7093   -3.6604   25.7583 H   0  0  0  0  0  0  0  0  0  0  0  0
    5.0550   -5.5230   24.3371 H   0  0  0  0  0  0  0  0  0  0  0  0
    6.6745   -5.7077   24.9732 H   0  0  0  0  0  0  0  0  0  0  0  0
    5.7739   -4.1802   22.5136 H   0  0  0  0  0  0  0  0  0  0  0  0
    7.2898   -5.0551   22.7500 H   0  0  0  0  0  0  0  0  0  0  0  0
    8.2337   -3.2216   24.0412 H   0  0  0  0  0  0  0  0  0  0  0  0
    6.4385   -1.7265   21.6722 N   0  0  0  0  0  0  0  0  0  0  0  0
    7.0637   -0.9190   20.7824 N   0  0  0  0  0  0  0  0  0  0  0  0
    6.3556   -0.2286   19.7615 C   0  0  0  0  0  0  0  0  0  0  0  0
    5.2114    0.5256   20.0462 C   0  0  0  0  0  0  0  0  0  0  0  0
    4.6940    1.3355   19.0279 C   0  0  0  0  0  0  0  0  0  0  0  0
    5.3058    1.3323   17.7672 C   0  0  0  0  0  0  0  0  0  0  0  0
    6.3591    0.5555   17.4711 N   0  0  0  0  0  0  0  0  0  0  0  0
    6.8575   -0.2091   18.4462 C   0  0  0  0  0  0  0  0  0  0  0  0
    7.7237   -0.8123   18.1821 H   0  0  0  0  0  0  0  0  0  0  0  0
    4.9430    1.9771   16.9689 H   0  0  0  0  0  0  0  0  0  0  0  0
    3.8517    1.9976   19.2029 H   0  0  0  0  0  0  0  0  0  0  0  0
    4.7718    0.4985   21.0444 H   0  0  0  0  0  0  0  0  0  0  0  0
    9.7140   -0.4905   19.4669 H   0  0  0  0  0  0  0  0  0  0  0  0
    8.8265    0.9366   20.0098 H   0  0  0  0  0  0  0  0  0  0  0  0
   11.6124   -0.2608   21.2462 C   0  0  0  0  0  0  0  0  0  0  0  0
   12.5311   -0.0381   22.2186 C   0  0  0  0  0  0  0  0  0  0  0  0
   13.4077   -0.6682   22.3130 H   0  0  0  0  0  0  0  0  0  0  0  0
   11.7263   -1.0558   20.5090 H   0  0  0  0  0  0  0  0  0  0  0  0
   11.0810    2.7032   23.6371 H   0  0  0  0  0  0  0  0  0  0  0  0
   14.1087    0.4780   24.2439 H   0  0  0  0  0  0  0  0  0  0  0  0
   12.8363    1.2395   25.2072 H   0  0  0  0  0  0  0  0  0  0  0  0
   13.8119    2.2293   24.0955 H   0  0  0  0  0  0  0  0  0  0  0  0
  1  2  1  0
  2  3  2  0
  3  4  1  0
  4  5  2  0
  4  6  1  0
  6  7  1  0
  7  8  1  0
  8  9  2  0
  9 10  1  0
 10 11  1  0
 11 12  1  0
 12 13  1  0
 13 14  1  0
 14 15  1  0
 15 16  1  0
 15 17  1  0
 14 18  1  0
 14 19  1  0
 13 20  1  0
 13 21  1  0
 12 22  1  0
 12 23  1  0
 11 24  1  0
 10 25  2  0
 25 26  1  0
 26 27  1  0
 27 28  2  0
 28 29  1  0
 29 30  2  0
 30 31  1  0
 31 32  2  0
 32 33  1  0
 30 34  1  0
 29 35  1  0
 28 36  1  0
  7 37  1  0
  7 38  1  0
  6 39  1  0
 39 40  2  0
 40 41  1  0
 39 42  1  0
  3 43  1  0
  1 44  1  0
  1 45  1  0
  1 46  1  0
 40  2  1  0
 26  8  1  0
 32 27  1  0
 15 11  1  0
M  END
>  <cnnaffinity>  (1) 
-6.41507

>  <filename>  (1) 
Cc1ccn(Cc2nc(C3CCCC3)nn2-c2cccnc2)c(=O)c1

$$$$
