
     RDKit          3D

 41 45  0  0  0  0  0  0  0  0999 V2000
    6.1995    0.4377   25.4912 C   0  0  0  0  0  0  0  0  0  0  0  0
    6.3535    1.5182   24.4355 C   0  0  0  0  0  0  0  0  0  0  0  0
    6.1565    2.8561   24.8247 C   0  0  0  0  0  0  0  0  0  0  0  0
    6.3945    3.9312   23.9635 C   0  0  0  0  0  0  0  0  0  0  0  0
    6.8399    3.6809   22.6686 C   0  0  0  0  0  0  0  0  0  0  0  0
    7.0273    2.3717   22.2424 C   0  0  0  0  0  0  0  0  0  0  0  0
    6.7323    1.2787   23.0853 C   0  0  0  0  0  0  0  0  0  0  0  0
    6.8945   -0.0995   22.5717 C   0  0  0  0  0  0  0  0  0  0  0  0
    7.3758   -1.1099   23.2865 N   0  0  0  0  0  0  0  0  0  0  0  0
    7.5565   -2.0974   22.3853 C   0  0  0  0  0  0  0  0  0  0  0  0
    8.4119   -3.2986   22.6110 C   0  0  0  0  0  0  0  0  0  0  0  0
    7.9423   -4.7370   22.3710 C   0  0  0  0  0  0  0  0  0  0  0  0
    8.3159   -4.2626   23.7536 C   0  0  0  0  0  0  0  0  0  0  0  0
    7.7508   -4.3664   25.1324 C   0  0  0  0  0  0  0  0  0  0  0  0
    9.2439   -4.5748   24.8794 C   0  0  0  0  0  0  0  0  0  0  0  0
    9.6810   -5.5722   24.9595 H   0  0  0  0  0  0  0  0  0  0  0  0
    9.8966   -3.7519   25.1832 H   0  0  0  0  0  0  0  0  0  0  0  0
    7.4335   -3.4408   25.6137 H   0  0  0  0  0  0  0  0  0  0  0  0
    7.1431   -5.2459   25.3463 H   0  0  0  0  0  0  0  0  0  0  0  0
    6.8815   -4.9183   22.1741 H   0  0  0  0  0  0  0  0  0  0  0  0
    8.6272   -5.4081   21.8496 H   0  0  0  0  0  0  0  0  0  0  0  0
    9.4325   -3.0617   22.2814 H   0  0  0  0  0  0  0  0  0  0  0  0
    7.1715   -1.7949   21.1627 N   0  0  0  0  0  0  0  0  0  0  0  0
    6.7174   -0.5164   21.2662 N   0  0  0  0  0  0  0  0  0  0  0  0
    6.2976    0.1203   20.0583 C   0  0  0  0  0  0  0  0  0  0  0  0
    5.3189    1.1178   20.0060 C   0  0  0  0  0  0  0  0  0  0  0  0
    4.9909    1.6483   18.7525 C   0  0  0  0  0  0  0  0  0  0  0  0
    5.6407    1.1769   17.6110 C   0  0  0  0  0  0  0  0  0  0  0  0
    6.5932    0.2304   17.6514 N   0  0  0  0  0  0  0  0  0  0  0  0
    6.9060   -0.2761   18.8457 C   0  0  0  0  0  0  0  0  0  0  0  0
    7.7045   -1.0118   18.8674 H   0  0  0  0  0  0  0  0  0  0  0  0
    5.3948    1.5696   16.6277 H   0  0  0  0  0  0  0  0  0  0  0  0
    4.2513    2.4357   18.6664 H   0  0  0  0  0  0  0  0  0  0  0  0
    4.8623    1.5065   20.9164 H   0  0  0  0  0  0  0  0  0  0  0  0
    7.4103    2.2015   21.2404 H   0  0  0  0  0  0  0  0  0  0  0  0
    7.0466    4.4962   21.9832 H   0  0  0  0  0  0  0  0  0  0  0  0
    6.2361    4.9540   24.2968 H   0  0  0  0  0  0  0  0  0  0  0  0
    5.8259    3.0602   25.8391 H   0  0  0  0  0  0  0  0  0  0  0  0
    7.1570   -0.0570   25.6798 H   0  0  0  0  0  0  0  0  0  0  0  0
    5.8359    0.8483   26.4407 H   0  0  0  0  0  0  0  0  0  0  0  0
    5.5160   -0.3595   25.1838 H   0  0  0  0  0  0  0  0  0  0  0  0
  1  2  1  0
  2  3  2  0
  3  4  1  0
  4  5  2  0
  5  6  1  0
  6  7  2  0
  7  8  1  0
  8  9  2  0
  9 10  1  0
 10 11  1  0
 11 12  1  0
 12 13  1  0
 13 14  1  0
 14 15  1  0
 15 16  1  0
 15 17  1  0
 14 18  1  0
 14 19  1  0
 12 20  1  0
 12 21  1  0
 11 22  1  0
 10 23  2  0
 23 24  1  0
 24 25  1  0
 25 26  2  0
 26 27  1  0
 27 28  2  0
 28 29  1  0
 29 30  2  0
 30 31  1  0
 28 32  1  0
 27 33  1  0
 26 34  1  0
  6 35  1  0
  5 36  1  0
  4 37  1  0
  3 38  1  0
  1 39  1  0
  1 40  1  0
  1 41  1  0
  7  2  1  0
 24  8  1  0
 30 25  1  0
 13 11  1  0
 15 13  1  0
M  END
>  <cnnaffinity>  (1) 
-5.76215

>  <filename>  (1) 
Cc1ccccc1-c1nc(C2CC23CC3)nn1-c1cccnc1

$$$$
