
     RDKit          3D

 55 58  0  0  0  0  0  0  0  0999 V2000
    5.3654   -5.5688   26.5244 C   0  0  0  0  0  0  0  0  0  0  0  0
    5.6353   -4.5855   25.3855 C   0  0  0  0  0  0  0  0  0  0  0  0
    6.5290   -5.2105   24.3009 C   0  0  0  0  0  0  0  0  0  0  0  0
    6.8208   -4.2369   23.1561 C   0  0  0  0  0  0  0  0  0  0  0  0
    7.4296   -2.9150   23.6776 C   0  0  0  0  0  0  0  0  0  0  0  0
    7.6874   -1.9313   22.5743 C   0  0  0  0  0  0  0  0  0  0  0  0
    6.7565   -1.5907   21.7014 N   0  0  0  0  0  0  0  0  0  0  0  0
    7.3733   -0.6555   20.9384 N   0  0  0  0  0  0  0  0  0  0  0  0
    6.6619    0.0142   19.9045 C   0  0  0  0  0  0  0  0  0  0  0  0
    5.4389    0.6427   20.1679 C   0  0  0  0  0  0  0  0  0  0  0  0
    4.8123    1.3097   19.1110 C   0  0  0  0  0  0  0  0  0  0  0  0
    5.4003    1.2968   17.8388 C   0  0  0  0  0  0  0  0  0  0  0  0
    6.5612    0.6765   17.5802 N   0  0  0  0  0  0  0  0  0  0  0  0
    7.1713    0.0560   18.5949 C   0  0  0  0  0  0  0  0  0  0  0  0
    8.1137   -0.4363   18.3665 H   0  0  0  0  0  0  0  0  0  0  0  0
    4.9213    1.7862   16.9936 H   0  0  0  0  0  0  0  0  0  0  0  0
    3.8795    1.8390   19.2580 H   0  0  0  0  0  0  0  0  0  0  0  0
    5.0104    0.6058   21.1739 H   0  0  0  0  0  0  0  0  0  0  0  0
    8.6302   -0.4561   21.4278 C   0  0  0  0  0  0  0  0  0  0  0  0
    9.5307    0.6109   20.9372 C   0  0  0  0  0  0  0  0  0  0  0  0
    9.0307    2.0066   21.2968 C   0  0  0  0  0  0  0  0  0  0  0  0
    8.8588    2.1514   22.7598 N   0  0  0  0  0  4  0  0  0  0  0  0
   10.1420    2.0125   23.5606 C   0  0  0  0  0  0  0  0  0  0  0  0
    9.9311    2.8917   24.7933 C   0  0  0  0  0  0  0  0  0  0  0  0
    8.6837    3.7526   24.5829 C   0  0  0  0  0  0  0  0  0  0  0  0
    7.6583    3.3834   25.4596 F   0  0  0  0  0  0  0  0  0  0  0  0
    8.2801    3.4969   23.1397 C   0  0  0  0  0  0  0  0  0  0  0  0
    7.1975    3.5205   23.0321 H   0  0  0  0  0  0  0  0  0  0  0  0
    8.7252    4.2622   22.4927 H   0  0  0  0  0  0  0  0  0  0  0  0
    8.8646    4.8157   24.7690 H   0  0  0  0  0  0  0  0  0  0  0  0
   10.8043    3.5380   24.8478 H   0  0  0  0  0  0  0  0  0  0  0  0
    9.8134    2.3063   25.7095 H   0  0  0  0  0  0  0  0  0  0  0  0
   10.9750    2.3993   22.9596 H   0  0  0  0  0  0  0  0  0  0  0  0
   10.3415    0.9619   23.7905 H   0  0  0  0  0  0  0  0  0  0  0  0
    8.2199    1.3823   23.0950 H   0  0  0  0  0  0  0  0  0  0  0  0
    8.0837    2.2212   20.7875 H   0  0  0  0  0  0  0  0  0  0  0  0
    9.7624    2.7572   20.9568 H   0  0  0  0  0  0  0  0  0  0  0  0
    9.6153    0.5502   19.8543 H   0  0  0  0  0  0  0  0  0  0  0  0
   10.5137    0.4214   21.3710 H   0  0  0  0  0  0  0  0  0  0  0  0
    8.8555   -1.2443   22.4594 N   0  0  0  0  0  0  0  0  0  0  0  0
    6.5422   -2.2826   24.7800 C   0  0  0  0  0  0  0  0  0  0  0  0
    6.2472   -3.2740   25.9066 C   0  0  0  0  0  0  0  0  0  0  0  0
    7.1777   -3.5044   26.4470 H   0  0  0  0  0  0  0  0  0  0  0  0
    5.5743   -2.8138   26.6419 H   0  0  0  0  0  0  0  0  0  0  0  0
    5.5992   -1.9608   24.3234 H   0  0  0  0  0  0  0  0  0  0  0  0
    7.0188   -1.3790   25.1803 H   0  0  0  0  0  0  0  0  0  0  0  0
    8.4087   -3.1330   24.1177 H   0  0  0  0  0  0  0  0  0  0  0  0
    7.4945   -4.7018   22.4266 H   0  0  0  0  0  0  0  0  0  0  0  0
    5.8909   -4.0035   22.6193 H   0  0  0  0  0  0  0  0  0  0  0  0
    7.4754   -5.5334   24.7623 H   0  0  0  0  0  0  0  0  0  0  0  0
    6.0576   -6.1199   23.9064 H   0  0  0  0  0  0  0  0  0  0  0  0
    4.6741   -4.3319   24.9102 H   0  0  0  0  0  0  0  0  0  0  0  0
    6.3032   -5.8448   27.0228 H   0  0  0  0  0  0  0  0  0  0  0  0
    4.7037   -5.1330   27.2817 H   0  0  0  0  0  0  0  0  0  0  0  0
    4.9024   -6.4916   26.1570 H   0  0  0  0  0  0  0  0  0  0  0  0
  1  2  1  0
  2  3  1  0
  3  4  1  0
  4  5  1  0
  5  6  1  0
  6  7  2  0
  7  8  1  0
  8  9  1  0
  9 10  2  0
 10 11  1  0
 11 12  2  0
 12 13  1  0
 13 14  2  0
 14 15  1  0
 12 16  1  0
 11 17  1  0
 10 18  1  0
  8 19  1  0
 19 20  1  0
 20 21  1  0
 21 22  1  0
 22 23  1  0
 23 24  1  0
 24 25  1  0
 25 26  1  0
 25 27  1  0
 27 28  1  0
 27 29  1  0
 25 30  1  0
 24 31  1  0
 24 32  1  0
 23 33  1  0
 23 34  1  0
 22 35  1  0
 21 36  1  0
 21 37  1  0
 20 38  1  0
 20 39  1  0
 19 40  2  0
  5 41  1  0
 41 42  1  0
 42 43  1  0
 42 44  1  0
 41 45  1  0
 41 46  1  0
  5 47  1  0
  4 48  1  0
  4 49  1  0
  3 50  1  0
  3 51  1  0
  2 52  1  0
  1 53  1  0
  1 54  1  0
  1 55  1  0
 42  2  1  0
 40  6  1  0
 14  9  1  0
 27 22  1  0
M  CHG  1  22   1
M  END
>  <cnnaffinity>  (1) 
-5.90367

>  <filename>  (1) 
CC1CCC(c2nc(CC[NH+]3CCC(F)C3)n(-c3cccnc3)n2)CC1

$$$$
