
     RDKit          3D

 53 56  0  0  0  0  0  0  0  0999 V2000
    3.6690   -5.6954   23.4626 C   0  0  0  0  0  0  0  0  0  0  0  0
    4.7084   -5.1162   24.4320 C   0  0  0  0  0  0  0  0  0  0  0  0
    6.1040   -5.7624   24.2116 C   0  0  0  0  0  0  0  0  0  0  0  0
    6.9989   -4.9694   23.2474 C   0  0  0  0  0  0  0  0  0  0  0  0
    7.2279   -3.5010   23.7155 C   0  0  0  0  0  0  0  0  0  0  0  0
    7.4565   -2.5896   22.5373 C   0  0  0  0  0  0  0  0  0  0  0  0
    6.5381   -2.0997   21.7220 N   0  0  0  0  0  0  0  0  0  0  0  0
    7.2603   -1.2641   20.9207 N   0  0  0  0  0  0  0  0  0  0  0  0
    6.6102   -0.4749   19.9201 C   0  0  0  0  0  0  0  0  0  0  0  0
    5.4577    0.2682   20.2115 C   0  0  0  0  0  0  0  0  0  0  0  0
    4.9695    1.1389   19.2286 C   0  0  0  0  0  0  0  0  0  0  0  0
    5.6134    1.1998   17.9865 C   0  0  0  0  0  0  0  0  0  0  0  0
    6.6678    0.4322   17.6748 N   0  0  0  0  0  0  0  0  0  0  0  0
    7.1438   -0.3895   18.6194 C   0  0  0  0  0  0  0  0  0  0  0  0
    7.9914   -1.0125   18.3344 H   0  0  0  0  0  0  0  0  0  0  0  0
    5.2549    1.8703   17.2057 H   0  0  0  0  0  0  0  0  0  0  0  0
    4.1076    1.7709   19.4159 H   0  0  0  0  0  0  0  0  0  0  0  0
    4.9742    0.1688   21.1847 H   0  0  0  0  0  0  0  0  0  0  0  0
    8.5668   -1.2852   21.3365 C   0  0  0  0  0  0  0  0  0  0  0  0
    9.5683   -0.2192   21.0292 C   0  0  0  0  0  0  0  0  0  0  0  0
    9.1503    1.1256   21.6692 C   0  0  0  0  0  0  0  0  0  0  0  0
    9.8911    2.3726   21.1787 C   0  0  0  0  0  0  0  0  0  0  0  0
   10.5573    3.0171   22.3979 C   0  0  0  0  0  0  0  0  0  0  0  0
    9.9089    2.3526   23.5097 N   0  0  0  0  0  0  0  0  0  0  0  0
   10.0082    2.8633   24.8538 C   0  0  0  0  0  0  0  0  0  0  0  0
    9.0642    3.3010   25.2024 H   0  0  0  0  0  0  0  0  0  0  0  0
   10.7576    3.6599   24.8476 H   0  0  0  0  0  0  0  0  0  0  0  0
   10.3039    2.0815   25.5636 H   0  0  0  0  0  0  0  0  0  0  0  0
    9.2695    1.1905   23.1979 C   0  0  0  0  0  0  0  0  0  0  0  0
    8.8357    0.3818   23.9933 O   0  0  0  0  0  0  0  0  0  0  0  0
   10.3924    4.1060   22.4525 H   0  0  0  0  0  0  0  0  0  0  0  0
   11.6479    2.8458   22.4177 H   0  0  0  0  0  0  0  0  0  0  0  0
   10.6671    2.1679   20.4403 H   0  0  0  0  0  0  0  0  0  0  0  0
    9.1507    3.0456   20.7419 H   0  0  0  0  0  0  0  0  0  0  0  0
    8.0793    1.2595   21.4812 H   0  0  0  0  0  0  0  0  0  0  0  0
    9.6715   -0.1111   19.9467 H   0  0  0  0  0  0  0  0  0  0  0  0
   10.5317   -0.5486   21.4260 H   0  0  0  0  0  0  0  0  0  0  0  0
    8.7209   -2.1737   22.2891 N   0  0  0  0  0  0  0  0  0  0  0  0
    6.1225   -2.9942   24.6842 C   0  0  0  0  0  0  0  0  0  0  0  0
    4.7530   -3.5698   24.3162 C   0  0  0  0  0  0  0  0  0  0  0  0
    3.9667   -3.1238   24.9356 H   0  0  0  0  0  0  0  0  0  0  0  0
    4.5422   -3.2671   23.2819 H   0  0  0  0  0  0  0  0  0  0  0  0
    6.1020   -1.8976   24.6976 H   0  0  0  0  0  0  0  0  0  0  0  0
    6.3885   -3.3062   25.7035 H   0  0  0  0  0  0  0  0  0  0  0  0
    8.1736   -3.4500   24.2653 H   0  0  0  0  0  0  0  0  0  0  0  0
    6.5264   -4.9779   22.2542 H   0  0  0  0  0  0  0  0  0  0  0  0
    7.9692   -5.4707   23.1406 H   0  0  0  0  0  0  0  0  0  0  0  0
    6.6178   -5.8754   25.1775 H   0  0  0  0  0  0  0  0  0  0  0  0
    5.9548   -6.7725   23.8186 H   0  0  0  0  0  0  0  0  0  0  0  0
    4.4030   -5.3745   25.4573 H   0  0  0  0  0  0  0  0  0  0  0  0
    3.9247   -5.4333   22.4272 H   0  0  0  0  0  0  0  0  0  0  0  0
    3.6302   -6.7886   23.5240 H   0  0  0  0  0  0  0  0  0  0  0  0
    2.6663   -5.3067   23.6670 H   0  0  0  0  0  0  0  0  0  0  0  0
  1  2  1  0
  2  3  1  0
  3  4  1  0
  4  5  1  0
  5  6  1  0
  6  7  2  0
  7  8  1  0
  8  9  1  0
  9 10  2  0
 10 11  1  0
 11 12  2  0
 12 13  1  0
 13 14  2  0
 14 15  1  0
 12 16  1  0
 11 17  1  0
 10 18  1  0
  8 19  1  0
 19 20  1  0
 20 21  1  0
 21 22  1  0
 22 23  1  0
 23 24  1  0
 24 25  1  0
 25 26  1  0
 25 27  1  0
 25 28  1  0
 24 29  1  0
 29 30  2  0
 23 31  1  0
 23 32  1  0
 22 33  1  0
 22 34  1  0
 21 35  1  0
 20 36  1  0
 20 37  1  0
 19 38  2  0
  5 39  1  0
 39 40  1  0
 40 41  1  0
 40 42  1  0
 39 43  1  0
 39 44  1  0
  5 45  1  0
  4 46  1  0
  4 47  1  0
  3 48  1  0
  3 49  1  0
  2 50  1  0
  1 51  1  0
  1 52  1  0
  1 53  1  0
 40  2  1  0
 38  6  1  0
 14  9  1  0
 29 21  1  0
M  END
>  <cnnaffinity>  (1) 
-6.20575

>  <filename>  (1) 
CC1CCC(c2nc(CC3CCN(C)C3=O)n(-c3cccnc3)n2)CC1

$$$$
