
     RDKit          3D

 43 46  0  0  0  0  0  0  0  0999 V2000
    9.6395    2.2644   21.0910 C   0  0  0  0  0  0  0  0  0  0  0  0
    9.7327    2.2234   22.5890 C   0  0  0  0  0  0  0  0  0  0  0  0
   10.9069    2.6370   23.2398 C   0  0  0  0  0  0  0  0  0  0  0  0
   11.1334    2.5184   24.5525 N   0  0  0  0  0  0  0  0  0  0  0  0
   10.1530    1.9874   25.2920 C   0  0  0  0  0  0  0  0  0  0  0  0
    8.9185    1.6058   24.7665 C   0  0  0  0  0  0  0  0  0  0  0  0
    8.6833    1.7487   23.3954 C   0  0  0  0  0  0  0  0  0  0  0  0
    7.3687    1.2768   22.7841 C   0  0  0  0  0  0  0  0  0  0  0  0
    7.5144   -0.1105   22.2283 C   0  0  0  0  0  0  0  0  0  0  0  0
    8.0170   -1.0789   22.9619 N   0  0  0  0  0  0  0  0  0  0  0  0
    8.2126   -2.0863   22.0802 C   0  0  0  0  0  0  0  0  0  0  0  0
    8.8626   -3.3342   22.5665 C   0  0  0  0  0  0  0  0  0  0  0  0
    8.1265   -4.0532   23.7190 C   0  0  0  0  0  0  0  0  0  0  0  0
    9.2565   -4.8101   24.4236 C   0  0  0  0  0  0  0  0  0  0  0  0
   10.4435   -4.0722   24.1671 O   0  0  0  0  0  0  0  0  0  0  0  0
   10.2217   -3.0324   23.2333 C   0  0  0  0  0  0  0  0  0  0  0  0
   11.0543   -2.9875   22.5175 H   0  0  0  0  0  0  0  0  0  0  0  0
   10.1944   -2.0663   23.7624 H   0  0  0  0  0  0  0  0  0  0  0  0
    9.0974   -4.8642   25.5068 H   0  0  0  0  0  0  0  0  0  0  0  0
    9.3826   -5.8460   24.0601 H   0  0  0  0  0  0  0  0  0  0  0  0
    7.6870   -3.3006   24.3896 H   0  0  0  0  0  0  0  0  0  0  0  0
    7.3319   -4.7206   23.3738 H   0  0  0  0  0  0  0  0  0  0  0  0
    8.9596   -4.0111   21.7194 H   0  0  0  0  0  0  0  0  0  0  0  0
    7.8290   -1.8356   20.8470 N   0  0  0  0  0  0  0  0  0  0  0  0
    7.3259   -0.5676   20.9476 N   0  0  0  0  0  0  0  0  0  0  0  0
    6.6195    0.0296   19.8664 C   0  0  0  0  0  0  0  0  0  0  0  0
    5.4007    0.6851   20.0892 C   0  0  0  0  0  0  0  0  0  0  0  0
    4.7963    1.3381   19.0111 C   0  0  0  0  0  0  0  0  0  0  0  0
    5.4224    1.3074   17.7615 C   0  0  0  0  0  0  0  0  0  0  0  0
    6.5597    0.6299   17.5278 N   0  0  0  0  0  0  0  0  0  0  0  0
    7.1318   -0.0099   18.5553 C   0  0  0  0  0  0  0  0  0  0  0  0
    8.0323   -0.5761   18.3327 H   0  0  0  0  0  0  0  0  0  0  0  0
    4.9932    1.8390   16.9144 H   0  0  0  0  0  0  0  0  0  0  0  0
    3.8634    1.8763   19.1348 H   0  0  0  0  0  0  0  0  0  0  0  0
    4.9342    0.6703   21.0761 H   0  0  0  0  0  0  0  0  0  0  0  0
    6.6037    1.2348   23.5651 H   0  0  0  0  0  0  0  0  0  0  0  0
    7.0225    1.9703   22.0144 H   0  0  0  0  0  0  0  0  0  0  0  0
    8.1668    1.1783   25.4221 H   0  0  0  0  0  0  0  0  0  0  0  0
   10.3608    1.8619   26.3529 H   0  0  0  0  0  0  0  0  0  0  0  0
   11.7149    3.0768   22.6491 H   0  0  0  0  0  0  0  0  0  0  0  0
    9.3859    1.2778   20.6836 H   0  0  0  0  0  0  0  0  0  0  0  0
    8.8599    2.9586   20.7595 H   0  0  0  0  0  0  0  0  0  0  0  0
   10.5897    2.5792   20.6485 H   0  0  0  0  0  0  0  0  0  0  0  0
  1  2  1  0
  2  3  2  0
  3  4  1  0
  4  5  2  0
  5  6  1  0
  6  7  2  0
  7  8  1  0
  8  9  1  0
  9 10  2  0
 10 11  1  0
 11 12  1  0
 12 13  1  0
 13 14  1  0
 14 15  1  0
 15 16  1  0
 16 17  1  0
 16 18  1  0
 14 19  1  0
 14 20  1  0
 13 21  1  0
 13 22  1  0
 12 23  1  0
 11 24  2  0
 24 25  1  0
 25 26  1  0
 26 27  2  0
 27 28  1  0
 28 29  2  0
 29 30  1  0
 30 31  2  0
 31 32  1  0
 29 33  1  0
 28 34  1  0
 27 35  1  0
  8 36  1  0
  8 37  1  0
  6 38  1  0
  5 39  1  0
  3 40  1  0
  1 41  1  0
  1 42  1  0
  1 43  1  0
  7  2  1  0
 25  9  1  0
 31 26  1  0
 16 12  1  0
M  END
>  <cnnaffinity>  (1) 
-5.93841

>  <filename>  (1) 
Cc1cnccc1Cc1nc(C2CCOC2)nn1-c1cccnc1

$$$$
