
     RDKit          3D

 56 59  0  0  0  0  0  0  0  0999 V2000
    9.4922   -4.1166   26.5954 C   0  0  0  0  0  0  0  0  0  0  0  0
    8.1405   -4.5945   26.0556 C   0  0  0  0  0  0  0  0  0  0  0  0
    7.0862   -3.4662   26.0521 C   0  0  0  0  0  0  0  0  0  0  0  0
    7.3158   -2.4178   24.9539 C   0  0  0  0  0  0  0  0  0  0  0  0
    7.4310   -3.0733   23.5563 C   0  0  0  0  0  0  0  0  0  0  0  0
    7.6561   -2.0415   22.4930 C   0  0  0  0  0  0  0  0  0  0  0  0
    6.7280   -1.6565   21.6469 N   0  0  0  0  0  0  0  0  0  0  0  0
    7.3506   -0.6817   20.9289 N   0  0  0  0  0  0  0  0  0  0  0  0
    6.6536    0.0038   19.8984 C   0  0  0  0  0  0  0  0  0  0  0  0
    5.4342    0.6376   20.1618 C   0  0  0  0  0  0  0  0  0  0  0  0
    4.8097    1.3099   19.1072 C   0  0  0  0  0  0  0  0  0  0  0  0
    5.3995    1.2963   17.8370 C   0  0  0  0  0  0  0  0  0  0  0  0
    6.5587    0.6737   17.5770 N   0  0  0  0  0  0  0  0  0  0  0  0
    7.1672    0.0508   18.5908 C   0  0  0  0  0  0  0  0  0  0  0  0
    8.1135   -0.4353   18.3654 H   0  0  0  0  0  0  0  0  0  0  0  0
    4.9183    1.7862   16.9929 H   0  0  0  0  0  0  0  0  0  0  0  0
    3.8788    1.8411   19.2595 H   0  0  0  0  0  0  0  0  0  0  0  0
    5.0063    0.6073   21.1689 H   0  0  0  0  0  0  0  0  0  0  0  0
    8.6115   -0.5025   21.4257 C   0  0  0  0  0  0  0  0  0  0  0  0
    9.5202    0.6029   20.9969 C   0  0  0  0  0  0  0  0  0  0  0  0
    9.3603    1.9492   21.7354 C   0  0  0  0  0  0  0  0  0  0  0  0
    7.9410    2.2701   22.2297 C   0  0  0  0  0  0  0  0  0  0  0  0
    7.8805    3.4419   23.1762 C   0  0  0  0  0  0  0  0  0  0  0  0
    8.9686    3.9604   23.7545 C   0  0  0  0  0  0  0  0  0  0  0  0
   10.3670    3.4853   23.4388 C   0  0  0  0  0  0  0  0  0  0  0  0
   10.3806    2.0539   22.9023 N   0  0  0  0  0  4  0  0  0  0  0  0
   10.1951    1.0404   24.0205 C   0  0  0  0  0  0  0  0  0  0  0  0
    9.1559    1.0349   24.3556 H   0  0  0  0  0  0  0  0  0  0  0  0
   10.8243    1.2928   24.8864 H   0  0  0  0  0  0  0  0  0  0  0  0
   10.4353    0.0366   23.6620 H   0  0  0  0  0  0  0  0  0  0  0  0
   11.3089    1.8926   22.4653 H   0  0  0  0  0  0  0  0  0  0  0  0
   10.8124    4.1434   22.6822 H   0  0  0  0  0  0  0  0  0  0  0  0
   10.9993    3.5388   24.3316 H   0  0  0  0  0  0  0  0  0  0  0  0
    8.8784    4.7722   24.4721 H   0  0  0  0  0  0  0  0  0  0  0  0
    6.8927    3.8561   23.3908 H   0  0  0  0  0  0  0  0  0  0  0  0
    7.5040    1.3961   22.7286 H   0  0  0  0  0  0  0  0  0  0  0  0
    7.3114    2.4503   21.3524 H   0  0  0  0  0  0  0  0  0  0  0  0
    9.6519    2.7479   21.0450 H   0  0  0  0  0  0  0  0  0  0  0  0
   10.5500    0.2538   21.1285 H   0  0  0  0  0  0  0  0  0  0  0  0
    9.3771    0.7794   19.9328 H   0  0  0  0  0  0  0  0  0  0  0  0
    8.8362   -1.3629   22.3913 N   0  0  0  0  0  0  0  0  0  0  0  0
    8.5144   -4.1736   23.5449 C   0  0  0  0  0  0  0  0  0  0  0  0
    8.2735   -5.2134   24.6494 C   0  0  0  0  0  0  0  0  0  0  0  0
    9.0865   -5.9504   24.6485 H   0  0  0  0  0  0  0  0  0  0  0  0
    7.3565   -5.7711   24.4176 H   0  0  0  0  0  0  0  0  0  0  0  0
    8.5380   -4.6712   22.5680 H   0  0  0  0  0  0  0  0  0  0  0  0
    9.5019   -3.7112   23.6744 H   0  0  0  0  0  0  0  0  0  0  0  0
    6.4673   -3.5365   23.3226 H   0  0  0  0  0  0  0  0  0  0  0  0
    8.2346   -1.8522   25.1626 H   0  0  0  0  0  0  0  0  0  0  0  0
    6.4978   -1.6860   24.9608 H   0  0  0  0  0  0  0  0  0  0  0  0
    7.0626   -2.9754   27.0336 H   0  0  0  0  0  0  0  0  0  0  0  0
    6.0904   -3.9093   25.9126 H   0  0  0  0  0  0  0  0  0  0  0  0
    7.7876   -5.3802   26.7396 H   0  0  0  0  0  0  0  0  0  0  0  0
   10.2227   -4.9308   26.6346 H   0  0  0  0  0  0  0  0  0  0  0  0
    9.9220   -3.3204   25.9809 H   0  0  0  0  0  0  0  0  0  0  0  0
    9.3822   -3.7217   27.6048 H   0  0  0  0  0  0  0  0  0  0  0  0
  1  2  1  0
  2  3  1  0
  3  4  1  0
  4  5  1  0
  5  6  1  0
  6  7  2  0
  7  8  1  0
  8  9  1  0
  9 10  2  0
 10 11  1  0
 11 12  2  0
 12 13  1  0
 13 14  2  0
 14 15  1  0
 12 16  1  0
 11 17  1  0
 10 18  1  0
  8 19  1  0
 19 20  1  0
 20 21  1  0
 21 22  1  0
 22 23  1  0
 23 24  2  0
 24 25  1  0
 25 26  1  0
 26 27  1  0
 27 28  1  0
 27 29  1  0
 27 30  1  0
 26 31  1  0
 25 32  1  0
 25 33  1  0
 24 34  1  0
 23 35  1  0
 22 36  1  0
 22 37  1  0
 21 38  1  0
 20 39  1  0
 20 40  1  0
 19 41  2  0
  5 42  1  0
 42 43  1  0
 43 44  1  0
 43 45  1  0
 42 46  1  0
 42 47  1  0
  5 48  1  0
  4 49  1  0
  4 50  1  0
  3 51  1  0
  3 52  1  0
  2 53  1  0
  1 54  1  0
  1 55  1  0
  1 56  1  0
 43  2  1  0
 41  6  1  0
 14  9  1  0
 26 21  1  0
M  CHG  1  26   1
M  END
>  <cnnaffinity>  (1) 
-6.39406

>  <filename>  (1) 
CC1CCC(c2nc(CC3CC=CC[NH+]3C)n(-c3cccnc3)n2)CC1

$$$$
