
     RDKit          3D

 45 48  0  0  0  0  0  0  0  0999 V2000
    8.3674    3.4719   26.0357 C   0  0  0  0  0  0  0  0  0  0  0  0
    6.9358    3.0200   25.8288 C   0  0  0  0  0  0  0  0  0  0  0  0
    5.8862    3.6849   26.4786 C   0  0  0  0  0  0  0  0  0  0  0  0
    4.5521    3.2990   26.2951 C   0  0  0  0  0  0  0  0  0  0  0  0
    4.2456    2.2265   25.4556 C   0  0  0  0  0  0  0  0  0  0  0  0
    5.2806    1.5531   24.8051 C   0  0  0  0  0  0  0  0  0  0  0  0
    6.6186    1.9371   24.9762 C   0  0  0  0  0  0  0  0  0  0  0  0
    7.6695    1.2390   24.1574 C   0  0  0  0  0  0  0  0  0  0  0  0
    7.8190    1.8321   22.7307 C   0  0  0  0  0  0  0  0  0  0  0  0
    8.7746    0.9978   21.9564 C   0  0  0  0  0  0  0  0  0  0  0  0
   10.0833    1.0988   22.0730 N   0  0  0  0  0  0  0  0  0  0  0  0
   10.5464   -0.0839   21.5657 C   0  0  0  0  0  0  0  0  0  0  0  0
   11.9835   -0.4548   21.6927 C   0  0  0  0  0  0  0  0  0  0  0  0
   12.8511    0.2743   22.4613 C   0  0  0  0  0  0  0  0  0  0  0  0
   14.4135   -0.4021   22.4125 S   0  0  0  0  0  0  0  0  0  0  0  0
   13.8067   -1.6611   21.3986 C   0  0  0  0  0  0  0  0  0  0  0  0
   12.5573   -1.5680   21.0897 N   0  0  0  0  0  0  0  0  0  0  0  0
   14.4425   -2.4804   21.0785 H   0  0  0  0  0  0  0  0  0  0  0  0
   12.6261    1.1796   23.0121 H   0  0  0  0  0  0  0  0  0  0  0  0
    9.5860   -0.8723   21.1091 N   0  0  0  0  0  0  0  0  0  0  0  0
    8.4601   -0.1811   21.3637 N   0  0  0  0  0  0  0  0  0  0  0  0
    7.1694   -0.7470   20.9875 C   0  0  0  0  0  0  0  0  0  0  0  0
    6.4704    0.0090   19.8790 C   0  0  0  0  0  0  0  0  0  0  0  0
    5.2617    0.6841   20.0674 C   0  0  0  0  0  0  0  0  0  0  0  0
    4.6936    1.3705   18.9912 C   0  0  0  0  0  0  0  0  0  0  0  0
    5.3541    1.3477   17.7600 C   0  0  0  0  0  0  0  0  0  0  0  0
    6.5074    0.6929   17.5535 N   0  0  0  0  0  0  0  0  0  0  0  0
    7.0477    0.0543   18.5983 C   0  0  0  0  0  0  0  0  0  0  0  0
    7.9921   -0.4554   18.4078 H   0  0  0  0  0  0  0  0  0  0  0  0
    4.9464    1.8830   16.9040 H   0  0  0  0  0  0  0  0  0  0  0  0
    3.7754    1.9353   19.0981 H   0  0  0  0  0  0  0  0  0  0  0  0
    4.7754    0.6752   21.0456 H   0  0  0  0  0  0  0  0  0  0  0  0
    7.3957   -1.7710   20.6747 H   0  0  0  0  0  0  0  0  0  0  0  0
    6.5319   -0.8117   21.8792 H   0  0  0  0  0  0  0  0  0  0  0  0
    8.2261    2.8467   22.7981 H   0  0  0  0  0  0  0  0  0  0  0  0
    6.8555    1.9009   22.2149 H   0  0  0  0  0  0  0  0  0  0  0  0
    8.6516    1.2629   24.6501 H   0  0  0  0  0  0  0  0  0  0  0  0
    7.4139    0.1741   24.0613 H   0  0  0  0  0  0  0  0  0  0  0  0
    5.0612    0.7195   24.1383 H   0  0  0  0  0  0  0  0  0  0  0  0
    3.2148    1.9177   25.3030 H   0  0  0  0  0  0  0  0  0  0  0  0
    3.7572    3.8345   26.8078 H   0  0  0  0  0  0  0  0  0  0  0  0
    6.1265    4.5235   27.1301 H   0  0  0  0  0  0  0  0  0  0  0  0
    8.4201    4.3845   26.6360 H   0  0  0  0  0  0  0  0  0  0  0  0
    8.9655    2.7047   26.5426 H   0  0  0  0  0  0  0  0  0  0  0  0
    8.8601    3.6777   25.0767 H   0  0  0  0  0  0  0  0  0  0  0  0
  1  2  1  0
  2  3  2  0
  3  4  1  0
  4  5  2  0
  5  6  1  0
  6  7  2  0
  7  8  1  0
  8  9  1  0
  9 10  1  0
 10 11  2  0
 11 12  1  0
 12 13  1  0
 13 14  2  0
 14 15  1  0
 15 16  1  0
 16 17  2  0
 16 18  1  0
 14 19  1  0
 12 20  2  0
 20 21  1  0
 21 22  1  0
 22 23  1  0
 23 24  2  0
 24 25  1  0
 25 26  2  0
 26 27  1  0
 27 28  2  0
 28 29  1  0
 26 30  1  0
 25 31  1  0
 24 32  1  0
 22 33  1  0
 22 34  1  0
  9 35  1  0
  9 36  1  0
  8 37  1  0
  8 38  1  0
  6 39  1  0
  5 40  1  0
  4 41  1  0
  3 42  1  0
  1 43  1  0
  1 44  1  0
  1 45  1  0
  7  2  1  0
 21 10  1  0
 28 23  1  0
 17 13  1  0
M  END
>  <cnnaffinity>  (1) 
-6.52516

>  <filename>  (1) 
Cc1ccccc1CCc1nc(-c2cscn2)nn1Cc1cccnc1

$$$$
