
     RDKit          3D

 48 51  0  0  0  0  0  0  0  0999 V2000
    6.3153    4.0235   28.7029 C   0  0  0  0  0  0  0  0  0  0  0  0
    6.7285    3.3598   27.4122 C   0  0  0  0  0  0  0  0  0  0  0  0
    7.9597    3.6562   26.8047 C   0  0  0  0  0  0  0  0  0  0  0  0
    8.3364    3.0603   25.6029 C   0  0  0  0  0  0  0  0  0  0  0  0
    7.4670    2.1524   24.9646 C   0  0  0  0  0  0  0  0  0  0  0  0
    7.8348    1.5347   23.6790 C   0  0  0  0  0  0  0  0  0  0  0  0
    7.1547    0.5409   23.1230 N   0  0  0  0  0  0  0  0  0  0  0  0
    7.8801    0.2515   22.0228 N   0  0  0  0  0  0  0  0  0  0  0  0
    7.3857   -0.6890   21.0233 C   0  0  0  0  0  0  0  0  0  0  0  0
    6.6530   -0.0052   19.8832 C   0  0  0  0  0  0  0  0  0  0  0  0
    5.4413    0.6491   20.1354 C   0  0  0  0  0  0  0  0  0  0  0  0
    4.7979    1.3085   19.0852 C   0  0  0  0  0  0  0  0  0  0  0  0
    5.3926    1.2978   17.8203 C   0  0  0  0  0  0  0  0  0  0  0  0
    6.5523    0.6769   17.5604 N   0  0  0  0  0  0  0  0  0  0  0  0
    7.1608    0.0519   18.5766 C   0  0  0  0  0  0  0  0  0  0  0  0
    8.1075   -0.4316   18.3262 H   0  0  0  0  0  0  0  0  0  0  0  0
    4.9242    1.8081   16.9791 H   0  0  0  0  0  0  0  0  0  0  0  0
    3.8685    1.8462   19.2335 H   0  0  0  0  0  0  0  0  0  0  0  0
    5.0310    0.6452   21.1470 H   0  0  0  0  0  0  0  0  0  0  0  0
    6.7252   -1.3640   21.5740 H   0  0  0  0  0  0  0  0  0  0  0  0
    8.2326   -1.2777   20.6489 H   0  0  0  0  0  0  0  0  0  0  0  0
    8.9525    1.0682   21.9656 C   0  0  0  0  0  0  0  0  0  0  0  0
   10.0688    0.8661   20.9930 C   0  0  0  0  0  0  0  0  0  0  0  0
   11.0500   -0.2869   21.3845 C   0  0  0  0  0  0  0  0  0  0  0  0
   11.7512    0.0149   22.6873 C   0  0  0  0  0  0  0  0  0  0  0  0
   12.8172    0.9235   22.7081 C   0  0  0  0  0  0  0  0  0  0  0  0
   13.4126    1.2365   23.9208 C   0  0  0  0  0  0  0  0  0  0  0  0
   12.9549    0.5929   25.0745 C   0  0  0  0  0  0  0  0  0  0  0  0
   11.8192   -0.2070   24.9702 C   0  0  0  0  0  0  0  0  0  0  0  0
   11.2373   -0.5165   23.8057 N   0  0  0  0  0  0  0  0  0  0  0  0
   11.3540   -0.6261   25.8617 H   0  0  0  0  0  0  0  0  0  0  0  0
   13.4627    0.6333   26.0256 H   0  0  0  0  0  0  0  0  0  0  0  0
   14.1748    2.0022   23.9266 H   0  0  0  0  0  0  0  0  0  0  0  0
   13.1510    1.3769   21.7818 H   0  0  0  0  0  0  0  0  0  0  0  0
   11.7996   -0.4281   20.6009 H   0  0  0  0  0  0  0  0  0  0  0  0
   10.5172   -1.2408   21.4929 H   0  0  0  0  0  0  0  0  0  0  0  0
   10.6045    1.8207   20.9235 H   0  0  0  0  0  0  0  0  0  0  0  0
    9.6297    0.6668   20.0120 H   0  0  0  0  0  0  0  0  0  0  0  0
    8.9319    1.9167   22.9722 N   0  0  0  0  0  0  0  0  0  0  0  0
    6.2334    1.8426   25.5691 C   0  0  0  0  0  0  0  0  0  0  0  0
    5.8770    2.4442   26.7725 C   0  0  0  0  0  0  0  0  0  0  0  0
    4.9193    2.2023   27.2268 H   0  0  0  0  0  0  0  0  0  0  0  0
    5.5689    1.1317   25.0792 H   0  0  0  0  0  0  0  0  0  0  0  0
    9.2954    3.3021   25.1463 H   0  0  0  0  0  0  0  0  0  0  0  0
    8.6245    4.3752   27.2761 H   0  0  0  0  0  0  0  0  0  0  0  0
    5.7732    4.9576   28.5112 H   0  0  0  0  0  0  0  0  0  0  0  0
    7.1812    4.2681   29.3269 H   0  0  0  0  0  0  0  0  0  0  0  0
    5.6535    3.3765   29.2883 H   0  0  0  0  0  0  0  0  0  0  0  0
  1  2  1  0
  2  3  2  0
  3  4  1  0
  4  5  2  0
  5  6  1  0
  6  7  2  0
  7  8  1  0
  8  9  1  0
  9 10  1  0
 10 11  2  0
 11 12  1  0
 12 13  2  0
 13 14  1  0
 14 15  2  0
 15 16  1  0
 13 17  1  0
 12 18  1  0
 11 19  1  0
  9 20  1  0
  9 21  1  0
  8 22  1  0
 22 23  1  0
 23 24  1  0
 24 25  1  0
 25 26  2  0
 26 27  1  0
 27 28  2  0
 28 29  1  0
 29 30  2  0
 29 31  1  0
 28 32  1  0
 27 33  1  0
 26 34  1  0
 24 35  1  0
 24 36  1  0
 23 37  1  0
 23 38  1  0
 22 39  2  0
  5 40  1  0
 40 41  2  0
 41 42  1  0
 40 43  1  0
  4 44  1  0
  3 45  1  0
  1 46  1  0
  1 47  1  0
  1 48  1  0
 41  2  1  0
 39  6  1  0
 15 10  1  0
 30 25  1  0
M  END
>  <cnnaffinity>  (1) 
-5.86565

>  <filename>  (1) 
Cc1ccc(-c2nc(CCc3ccccn3)n(Cc3cccnc3)n2)cc1

$$$$
