
     RDKit          3D

 43 46  0  0  0  0  0  0  0  0999 V2000
    7.2922    1.6308   26.1678 C   0  0  0  0  0  0  0  0  0  0  0  0
    8.1623    1.8259   24.9764 C   0  0  0  0  0  0  0  0  0  0  0  0
    9.4628    2.0816   25.0624 N   0  0  0  0  0  0  0  0  0  0  0  0
    9.8561    2.2241   23.7852 N   0  0  0  0  0  0  0  0  0  0  0  0
    8.8591    2.0749   22.8795 C   0  0  0  0  0  0  0  0  0  0  0  0
    9.0598    2.0100   21.3962 C   0  0  0  0  0  0  0  0  0  0  0  0
    9.5348    0.6044   20.9236 C   0  0  0  0  0  0  0  0  0  0  0  0
    8.6521   -0.5110   21.3876 C   0  0  0  0  0  0  0  0  0  0  0  0
    8.8858   -1.3291   22.3988 N   0  0  0  0  0  0  0  0  0  0  0  0
    7.6811   -1.9245   22.5891 C   0  0  0  0  0  0  0  0  0  0  0  0
    7.4022   -2.8134   23.7554 C   0  0  0  0  0  0  0  0  0  0  0  0
    6.3872   -2.2377   24.7990 C   0  0  0  0  0  0  0  0  0  0  0  0
    5.4243   -3.4049   24.4862 C   0  0  0  0  0  0  0  0  0  0  0  0
    6.4397   -4.0051   23.4854 C   0  0  0  0  0  0  0  0  0  0  0  0
    6.8417   -4.9834   23.7619 H   0  0  0  0  0  0  0  0  0  0  0  0
    6.0914   -4.0616   22.4487 H   0  0  0  0  0  0  0  0  0  0  0  0
    5.1824   -4.0437   25.3400 H   0  0  0  0  0  0  0  0  0  0  0  0
    4.4775   -3.0994   24.0306 H   0  0  0  0  0  0  0  0  0  0  0  0
    6.0086   -1.2370   24.5519 H   0  0  0  0  0  0  0  0  0  0  0  0
    6.7612   -2.2081   25.8266 H   0  0  0  0  0  0  0  0  0  0  0  0
    8.3677   -3.0901   24.1826 H   0  0  0  0  0  0  0  0  0  0  0  0
    6.7436   -1.5721   21.7275 N   0  0  0  0  0  0  0  0  0  0  0  0
    7.3724   -0.6639   20.9397 N   0  0  0  0  0  0  0  0  0  0  0  0
    6.6608    0.0045   19.9035 C   0  0  0  0  0  0  0  0  0  0  0  0
    5.4413    0.6398   20.1650 C   0  0  0  0  0  0  0  0  0  0  0  0
    4.8128    1.3088   19.1100 C   0  0  0  0  0  0  0  0  0  0  0  0
    5.4001    1.2959   17.8384 C   0  0  0  0  0  0  0  0  0  0  0  0
    6.5596    0.6730   17.5786 N   0  0  0  0  0  0  0  0  0  0  0  0
    7.1695    0.0521   18.5942 C   0  0  0  0  0  0  0  0  0  0  0  0
    8.1141   -0.4347   18.3671 H   0  0  0  0  0  0  0  0  0  0  0  0
    4.9203    1.7859   16.9937 H   0  0  0  0  0  0  0  0  0  0  0  0
    3.8807    1.8386   19.2619 H   0  0  0  0  0  0  0  0  0  0  0  0
    5.0139    0.6072   21.1708 H   0  0  0  0  0  0  0  0  0  0  0  0
   10.5293    0.3952   21.3221 H   0  0  0  0  0  0  0  0  0  0  0  0
    9.5997    0.5934   19.8347 H   0  0  0  0  0  0  0  0  0  0  0  0
    8.0974    2.2446   20.9289 H   0  0  0  0  0  0  0  0  0  0  0  0
    9.7739    2.7752   21.0708 H   0  0  0  0  0  0  0  0  0  0  0  0
    7.7429    1.8174   23.6372 C   0  0  0  0  0  0  0  0  0  0  0  0
    6.7601    1.5767   23.2691 H   0  0  0  0  0  0  0  0  0  0  0  0
   10.8317    2.3886   23.5921 H   0  0  0  0  0  0  0  0  0  0  0  0
    7.8546    1.2626   27.0264 H   0  0  0  0  0  0  0  0  0  0  0  0
    6.8090    2.5748   26.4308 H   0  0  0  0  0  0  0  0  0  0  0  0
    6.4948    0.9230   25.9276 H   0  0  0  0  0  0  0  0  0  0  0  0
  1  2  1  0
  2  3  2  0
  3  4  1  0
  4  5  1  0
  5  6  1  0
  6  7  1  0
  7  8  1  0
  8  9  2  0
  9 10  1  0
 10 11  1  0
 11 12  1  0
 12 13  1  0
 13 14  1  0
 14 15  1  0
 14 16  1  0
 13 17  1  0
 13 18  1  0
 12 19  1  0
 12 20  1  0
 11 21  1  0
 10 22  2  0
 22 23  1  0
 23 24  1  0
 24 25  2  0
 25 26  1  0
 26 27  2  0
 27 28  1  0
 28 29  2  0
 29 30  1  0
 27 31  1  0
 26 32  1  0
 25 33  1  0
  7 34  1  0
  7 35  1  0
  6 36  1  0
  6 37  1  0
  5 38  2  0
 38 39  1  0
  4 40  1  0
  1 41  1  0
  1 42  1  0
  1 43  1  0
 38  2  1  0
 23  8  1  0
 29 24  1  0
 14 11  1  0
M  END
>  <cnnaffinity>  (1) 
-6.00627

>  <filename>  (1) 
Cc1cc(CCc2nc(C3CCC3)nn2-c2cccnc2)[nH]n1

$$$$
