
     RDKit          3D

 45 48  0  0  0  0  0  0  0  0999 V2000
   12.1703   -1.4134   21.1396 C   0  0  0  0  0  0  0  0  0  0  0  0
   11.9007   -0.1442   21.9017 C   0  0  0  0  0  0  0  0  0  0  0  0
   12.8124    0.2926   22.8663 C   0  0  0  0  0  0  0  0  0  0  0  0
   12.5500    1.4703   23.5666 C   0  0  0  0  0  0  0  0  0  0  0  0
   11.3830    2.1730   23.2670 C   0  0  0  0  0  0  0  0  0  0  0  0
   10.4930    1.7768   22.3435 N   0  0  0  0  0  0  0  0  0  0  0  0
   10.7457    0.6486   21.6735 C   0  0  0  0  0  0  0  0  0  0  0  0
    9.6769    0.2419   20.6924 C   0  0  0  0  0  0  0  0  0  0  0  0
    8.6484   -0.5911   21.3521 C   0  0  0  0  0  0  0  0  0  0  0  0
    8.8719   -1.4458   22.3242 N   0  0  0  0  0  0  0  0  0  0  0  0
    7.6449   -1.9743   22.5644 C   0  0  0  0  0  0  0  0  0  0  0  0
    7.3901   -2.9494   23.6778 C   0  0  0  0  0  0  0  0  0  0  0  0
    7.7318   -2.3591   25.0698 C   0  0  0  0  0  0  0  0  0  0  0  0
    9.2088   -2.7188   25.3379 C   0  0  0  0  0  0  0  0  0  0  0  0
    9.5605   -3.8944   24.3981 C   0  0  0  0  0  0  0  0  0  0  0  0
    8.2899   -4.2042   23.5770 C   0  0  0  0  0  0  0  0  0  0  0  0
    7.7593   -5.0665   23.9979 H   0  0  0  0  0  0  0  0  0  0  0  0
    8.5182   -4.4637   22.5369 H   0  0  0  0  0  0  0  0  0  0  0  0
   10.3861   -3.6152   23.7350 H   0  0  0  0  0  0  0  0  0  0  0  0
    9.8930   -4.7803   24.9497 H   0  0  0  0  0  0  0  0  0  0  0  0
    9.8515   -1.8592   25.1247 H   0  0  0  0  0  0  0  0  0  0  0  0
    9.3631   -2.9710   26.3929 H   0  0  0  0  0  0  0  0  0  0  0  0
    7.5510   -1.2782   25.1159 H   0  0  0  0  0  0  0  0  0  0  0  0
    7.0803   -2.8093   25.8284 H   0  0  0  0  0  0  0  0  0  0  0  0
    6.3306   -3.1986   23.5974 H   0  0  0  0  0  0  0  0  0  0  0  0
    6.6943   -1.5425   21.7595 N   0  0  0  0  0  0  0  0  0  0  0  0
    7.3462   -0.6756   20.9388 N   0  0  0  0  0  0  0  0  0  0  0  0
    6.6528    0.0044   19.9023 C   0  0  0  0  0  0  0  0  0  0  0  0
    5.4366    0.6450   20.1656 C   0  0  0  0  0  0  0  0  0  0  0  0
    4.8121    1.3107   19.1086 C   0  0  0  0  0  0  0  0  0  0  0  0
    5.4008    1.2957   17.8366 C   0  0  0  0  0  0  0  0  0  0  0  0
    6.5596    0.6722   17.5761 N   0  0  0  0  0  0  0  0  0  0  0  0
    7.1653    0.0513   18.5932 C   0  0  0  0  0  0  0  0  0  0  0  0
    8.1126   -0.4296   18.3657 H   0  0  0  0  0  0  0  0  0  0  0  0
    4.9215    1.7853   16.9927 H   0  0  0  0  0  0  0  0  0  0  0  0
    3.8802    1.8402   19.2600 H   0  0  0  0  0  0  0  0  0  0  0  0
    5.0152    0.6105   21.1736 H   0  0  0  0  0  0  0  0  0  0  0  0
   10.0438   -0.3803   19.8706 H   0  0  0  0  0  0  0  0  0  0  0  0
    9.2200    1.1380   20.2760 H   0  0  0  0  0  0  0  0  0  0  0  0
   11.1435    3.0922   23.7964 H   0  0  0  0  0  0  0  0  0  0  0  0
   13.2324    1.8317   24.3246 H   0  0  0  0  0  0  0  0  0  0  0  0
   13.7104   -0.2991   23.0599 H   0  0  0  0  0  0  0  0  0  0  0  0
   11.2989   -2.0769   21.1476 H   0  0  0  0  0  0  0  0  0  0  0  0
   12.4381   -1.2037   20.1023 H   0  0  0  0  0  0  0  0  0  0  0  0
   13.0207   -1.9546   21.5575 H   0  0  0  0  0  0  0  0  0  0  0  0
  1  2  1  0
  2  3  2  0
  3  4  1  0
  4  5  2  0
  5  6  1  0
  6  7  2  0
  7  8  1  0
  8  9  1  0
  9 10  2  0
 10 11  1  0
 11 12  1  0
 12 13  1  0
 13 14  1  0
 14 15  1  0
 15 16  1  0
 16 17  1  0
 16 18  1  0
 15 19  1  0
 15 20  1  0
 14 21  1  0
 14 22  1  0
 13 23  1  0
 13 24  1  0
 12 25  1  0
 11 26  2  0
 26 27  1  0
 27 28  1  0
 28 29  2  0
 29 30  1  0
 30 31  2  0
 31 32  1  0
 32 33  2  0
 33 34  1  0
 31 35  1  0
 30 36  1  0
 29 37  1  0
  8 38  1  0
  8 39  1  0
  5 40  1  0
  4 41  1  0
  3 42  1  0
  1 43  1  0
  1 44  1  0
  1 45  1  0
  7  2  1  0
 27  9  1  0
 33 28  1  0
 16 12  1  0
M  END
>  <cnnaffinity>  (1) 
-6.61612

>  <filename>  (1) 
Cc1cccnc1Cc1nc(C2CCCC2)nn1-c1cccnc1

$$$$
