
     RDKit          3D

 39 41  0  0  0  0  0  0  0  0999 V2000
    5.0684    1.6960   16.8543 H   0  0  0  0  0  0  0  0  0  0  0  0
    5.4968    1.2412   17.7442 C   0  0  0  0  0  0  0  0  0  0  0  0
    6.6221    0.5344   17.5539 N   0  0  0  0  0  0  0  0  0  0  0  0
    7.1772   -0.0351   18.6250 C   0  0  0  0  0  0  0  0  0  0  0  0
    8.0840   -0.6076   18.4346 H   0  0  0  0  0  0  0  0  0  0  0  0
    6.6716    0.0854   19.9396 C   0  0  0  0  0  0  0  0  0  0  0  0
    7.3264   -0.5941   21.0680 C   0  0  0  0  0  0  0  0  0  0  0  0
    7.5569   -0.0506   22.3271 C   0  0  0  0  0  0  0  0  0  0  0  0
    7.2456    1.3031   22.6285 N   0  0  0  0  0  0  0  0  0  0  0  0
    8.1991    2.3063   22.1598 C   0  0  0  0  0  0  0  0  0  0  0  0
    8.6470    1.9502   21.2235 H   0  0  0  0  0  0  0  0  0  0  0  0
    9.0150    2.4357   22.8965 H   0  0  0  0  0  0  0  0  0  0  0  0
    7.4659    3.6228   21.9448 C   0  0  0  0  0  0  0  0  0  0  0  0
    6.7749    3.4733   21.1027 H   0  0  0  0  0  0  0  0  0  0  0  0
    8.1884    4.3994   21.6649 H   0  0  0  0  0  0  0  0  0  0  0  0
    6.6435    4.0801   23.1659 C   0  0  0  0  0  0  0  0  0  0  0  0
    7.3388    4.3903   23.9682 H   0  0  0  0  0  0  0  0  0  0  0  0
    5.7884    5.2805   22.7540 C   0  0  0  0  0  0  0  0  0  0  0  0
    5.0786    4.9846   21.9699 H   0  0  0  0  0  0  0  0  0  0  0  0
    5.2127    5.6964   23.5852 H   0  0  0  0  0  0  0  0  0  0  0  0
    6.4092    6.0857   22.3440 H   0  0  0  0  0  0  0  0  0  0  0  0
    5.7922    2.9090   23.7034 C   0  0  0  0  0  0  0  0  0  0  0  0
    5.0129    2.6507   22.9651 H   0  0  0  0  0  0  0  0  0  0  0  0
    5.2822    3.1976   24.6319 H   0  0  0  0  0  0  0  0  0  0  0  0
    6.6633    1.6625   23.9189 C   0  0  0  0  0  0  0  0  0  0  0  0
    7.4470    1.8740   24.6757 H   0  0  0  0  0  0  0  0  0  0  0  0
    6.0839    0.8164   24.3022 H   0  0  0  0  0  0  0  0  0  0  0  0
    8.2162   -0.8847   23.2933 C   0  0  0  0  0  0  0  0  0  0  0  0
    8.4485   -0.4273   24.2565 H   0  0  0  0  0  0  0  0  0  0  0  0
    8.5547   -2.1825   23.0172 C   0  0  0  0  0  0  0  0  0  0  0  0
    9.0437   -2.8447   23.7199 H   0  0  0  0  0  0  0  0  0  0  0  0
    8.2682   -2.7671   21.7150 C   0  0  0  0  0  0  0  0  0  0  0  0
    8.4548   -3.9158   21.3468 O   0  0  0  0  0  0  0  0  0  0  0  0
    7.7211   -1.8820   20.8120 N   0  0  0  0  0  0  0  0  0  0  0  0
    7.5427   -2.3502   19.9339 H   0  0  0  0  0  0  0  0  0  0  0  0
    5.4882    0.8149   20.1111 C   0  0  0  0  0  0  0  0  0  0  0  0
    5.0366    0.8989   21.1009 H   0  0  0  0  0  0  0  0  0  0  0  0
    4.8840    1.3892   18.9937 C   0  0  0  0  0  0  0  0  0  0  0  0
    3.9688    1.9646   19.0781 H   0  0  0  0  0  0  0  0  0  0  0  0
  1  2  1  0
  2  3  2  0
  3  4  1  0
  4  5  1  0
  4  6  2  0
  6  7  1  0
  7  8  2  0
  8  9  1  0
  9 10  1  0
 10 11  1  0
 10 12  1  0
 10 13  1  0
 13 14  1  0
 13 15  1  0
 13 16  1  0
 16 17  1  0
 16 18  1  0
 18 19  1  0
 18 20  1  0
 18 21  1  0
 16 22  1  0
 22 23  1  0
 22 24  1  0
 22 25  1  0
 25 26  1  0
 25 27  1  0
  8 28  1  0
 28 29  1  0
 28 30  2  0
 30 31  1  0
 30 32  1  0
 32 33  2  0
 32 34  1  0
 34 35  1  0
  6 36  1  0
 36 37  1  0
 36 38  2  0
 38 39  1  0
 38  2  1  0
 34  7  1  0
 25  9  1  0
M  END
>  <cnnaffinity>  (1) 
-5.361

>  <filename>  (1) 
CC1CCN(c2ccc(=O)[nH]c2-c2cccnc2)CC1

$$$$
