
     RDKit          3D

 46 49  0  0  0  0  0  0  0  0999 V2000
    4.0889    0.2229   25.7956 C   0  0  0  0  0  0  0  0  0  0  0  0
    5.3966    0.8477   25.4293 C   0  0  0  0  0  0  0  0  0  0  0  0
    5.5786    1.4001   24.2361 N   0  0  0  0  0  0  0  0  0  0  0  0
    6.8488    1.8505   24.2279 N   0  0  0  0  0  0  0  0  0  0  0  0
    7.4437    2.2195   22.9533 C   0  0  0  0  0  0  0  0  0  0  0  0
    8.2899    1.1076   22.4393 C   0  0  0  0  0  0  0  0  0  0  0  0
    9.6054    1.0788   22.5176 N   0  0  0  0  0  0  0  0  0  0  0  0
    9.9160   -0.1877   22.1388 C   0  0  0  0  0  0  0  0  0  0  0  0
   11.3042   -0.6669   21.9716 C   0  0  0  0  0  0  0  0  0  0  0  0
   11.5135   -1.7634   21.1220 C   0  0  0  0  0  0  0  0  0  0  0  0
   12.7780   -2.0277   20.6124 C   0  0  0  0  0  0  0  0  0  0  0  0
   13.8530   -1.2880   21.0586 C   0  0  0  0  0  0  0  0  0  0  0  0
   14.9959   -1.4652   20.3942 F   0  0  0  0  0  0  0  0  0  0  0  0
   13.7173   -0.3150   22.0498 C   0  0  0  0  0  0  0  0  0  0  0  0
   12.4303    0.0006   22.5049 C   0  0  0  0  0  0  0  0  0  0  0  0
   12.3048    0.7888   23.2486 H   0  0  0  0  0  0  0  0  0  0  0  0
   14.5984    0.2219   22.3799 H   0  0  0  0  0  0  0  0  0  0  0  0
   12.9673   -2.7530   19.8292 H   0  0  0  0  0  0  0  0  0  0  0  0
   10.6498   -2.3487   20.8090 H   0  0  0  0  0  0  0  0  0  0  0  0
    8.8526   -0.9231   21.8305 N   0  0  0  0  0  0  0  0  0  0  0  0
    7.8100   -0.0904   22.0493 N   0  0  0  0  0  0  0  0  0  0  0  0
    6.4577   -0.4341   21.5964 C   0  0  0  0  0  0  0  0  0  0  0  0
    6.0940    0.2448   20.2881 C   0  0  0  0  0  0  0  0  0  0  0  0
    5.0159    1.1298   20.1614 C   0  0  0  0  0  0  0  0  0  0  0  0
    4.8226    1.7904   18.9435 C   0  0  0  0  0  0  0  0  0  0  0  0
    5.7061    1.5302   17.8944 C   0  0  0  0  0  0  0  0  0  0  0  0
    6.7279    0.6679   17.9855 N   0  0  0  0  0  0  0  0  0  0  0  0
    6.9097    0.0541   19.1606 C   0  0  0  0  0  0  0  0  0  0  0  0
    7.7582   -0.6254   19.2237 H   0  0  0  0  0  0  0  0  0  0  0  0
    5.6068    2.0462   16.9412 H   0  0  0  0  0  0  0  0  0  0  0  0
    4.0271    2.5136   18.8004 H   0  0  0  0  0  0  0  0  0  0  0  0
    4.3457    1.3230   21.0033 H   0  0  0  0  0  0  0  0  0  0  0  0
    6.4130   -1.5293   21.5389 H   0  0  0  0  0  0  0  0  0  0  0  0
    5.7756   -0.1058   22.3798 H   0  0  0  0  0  0  0  0  0  0  0  0
    8.0737    3.1033   23.0763 H   0  0  0  0  0  0  0  0  0  0  0  0
    6.6320    2.4579   22.2687 H   0  0  0  0  0  0  0  0  0  0  0  0
    7.5018    1.5585   25.3886 C   0  0  0  0  0  0  0  0  0  0  0  0
    8.9617    1.7904   25.6403 C   0  0  0  0  0  0  0  0  0  0  0  0
    9.5097    0.8525   25.4940 H   0  0  0  0  0  0  0  0  0  0  0  0
    9.1277    2.1143   26.6676 H   0  0  0  0  0  0  0  0  0  0  0  0
    9.4079    2.5219   24.9608 H   0  0  0  0  0  0  0  0  0  0  0  0
    6.5803    0.9200   26.1907 C   0  0  0  0  0  0  0  0  0  0  0  0
    6.7451    0.5362   27.1878 H   0  0  0  0  0  0  0  0  0  0  0  0
    3.2999    0.5915   25.1366 H   0  0  0  0  0  0  0  0  0  0  0  0
    4.1260   -0.8690   25.7014 H   0  0  0  0  0  0  0  0  0  0  0  0
    3.8248    0.4534   26.8309 H   0  0  0  0  0  0  0  0  0  0  0  0
  1  2  1  0
  2  3  2  0
  3  4  1  0
  4  5  1  0
  5  6  1  0
  6  7  2  0
  7  8  1  0
  8  9  1  0
  9 10  2  0
 10 11  1  0
 11 12  2  0
 12 13  1  0
 12 14  1  0
 14 15  2  0
 15 16  1  0
 14 17  1  0
 11 18  1  0
 10 19  1  0
  8 20  2  0
 20 21  1  0
 21 22  1  0
 22 23  1  0
 23 24  2  0
 24 25  1  0
 25 26  2  0
 26 27  1  0
 27 28  2  0
 28 29  1  0
 26 30  1  0
 25 31  1  0
 24 32  1  0
 22 33  1  0
 22 34  1  0
  5 35  1  0
  5 36  1  0
  4 37  1  0
 37 38  1  0
 38 39  1  0
 38 40  1  0
 38 41  1  0
 37 42  2  0
 42 43  1  0
  1 44  1  0
  1 45  1  0
  1 46  1  0
 42  2  1  0
 21  6  1  0
 28 23  1  0
 15  9  1  0
M  END
>  <cnnaffinity>  (1) 
-6.46461

>  <filename>  (1) 
Cc1cc(C)n(Cc2nc(-c3ccc(F)cc3)nn2Cc2cccnc2)n1

$$$$
