
     RDKit          3D

 55 58  0  0  0  0  0  0  0  0999 V2000
    6.6336    1.7759   23.5902 C   0  0  0  0  0  0  0  0  0  0  0  0
    8.0942    1.9074   23.8829 C   0  0  0  0  0  0  0  0  0  0  0  0
    9.1490    2.0279   22.9984 C   0  0  0  0  0  0  0  0  0  0  0  0
    9.1176    1.9942   21.4907 C   0  0  0  0  0  0  0  0  0  0  0  0
    9.5280    0.6085   20.9404 C   0  0  0  0  0  0  0  0  0  0  0  0
    8.6362   -0.4833   21.4183 C   0  0  0  0  0  0  0  0  0  0  0  0
    8.8621   -1.3023   22.4293 N   0  0  0  0  0  0  0  0  0  0  0  0
    7.6729   -1.9386   22.5769 C   0  0  0  0  0  0  0  0  0  0  0  0
    7.4022   -2.8809   23.7126 C   0  0  0  0  0  0  0  0  0  0  0  0
    6.5045   -2.2178   24.7847 C   0  0  0  0  0  0  0  0  0  0  0  0
    6.3148   -3.1157   26.0247 C   0  0  0  0  0  0  0  0  0  0  0  0
    6.4655   -4.6307   25.7405 C   0  0  0  0  0  0  0  0  0  0  0  0
    5.7308   -5.4687   26.7846 C   0  0  0  0  0  0  0  0  0  0  0  0
    4.6500   -5.2856   26.7347 H   0  0  0  0  0  0  0  0  0  0  0  0
    6.0614   -5.2256   27.8006 H   0  0  0  0  0  0  0  0  0  0  0  0
    5.8920   -6.5404   26.6219 H   0  0  0  0  0  0  0  0  0  0  0  0
    6.0079   -4.9725   24.3142 C   0  0  0  0  0  0  0  0  0  0  0  0
    6.8187   -4.2369   23.2276 C   0  0  0  0  0  0  0  0  0  0  0  0
    7.6513   -4.8654   22.8861 H   0  0  0  0  0  0  0  0  0  0  0  0
    6.1785   -4.0675   22.3543 H   0  0  0  0  0  0  0  0  0  0  0  0
    6.0619   -6.0550   24.1496 H   0  0  0  0  0  0  0  0  0  0  0  0
    4.9439   -4.7096   24.2220 H   0  0  0  0  0  0  0  0  0  0  0  0
    7.5363   -4.8726   25.8067 H   0  0  0  0  0  0  0  0  0  0  0  0
    7.0297   -2.8385   26.8097 H   0  0  0  0  0  0  0  0  0  0  0  0
    5.3209   -2.9153   26.4463 H   0  0  0  0  0  0  0  0  0  0  0  0
    6.9167   -1.2433   25.0814 H   0  0  0  0  0  0  0  0  0  0  0  0
    5.5302   -2.0127   24.3283 H   0  0  0  0  0  0  0  0  0  0  0  0
    8.3796   -3.0640   24.1694 H   0  0  0  0  0  0  0  0  0  0  0  0
    6.7392   -1.5866   21.7096 N   0  0  0  0  0  0  0  0  0  0  0  0
    7.3714   -0.6652   20.9361 N   0  0  0  0  0  0  0  0  0  0  0  0
    6.6602    0.0071   19.9036 C   0  0  0  0  0  0  0  0  0  0  0  0
    5.4436    0.6451   20.1695 C   0  0  0  0  0  0  0  0  0  0  0  0
    4.8143    1.3104   19.1115 C   0  0  0  0  0  0  0  0  0  0  0  0
    5.3985    1.2968   17.8391 C   0  0  0  0  0  0  0  0  0  0  0  0
    6.5567    0.6708   17.5755 N   0  0  0  0  0  0  0  0  0  0  0  0
    7.1652    0.0499   18.5918 C   0  0  0  0  0  0  0  0  0  0  0  0
    8.1115   -0.4357   18.3681 H   0  0  0  0  0  0  0  0  0  0  0  0
    4.9200    1.7874   16.9946 H   0  0  0  0  0  0  0  0  0  0  0  0
    3.8816    1.8374   19.2614 H   0  0  0  0  0  0  0  0  0  0  0  0
    5.0181    0.6147   21.1773 H   0  0  0  0  0  0  0  0  0  0  0  0
    9.5464    0.6273   19.8495 H   0  0  0  0  0  0  0  0  0  0  0  0
   10.5375    0.3571   21.2715 H   0  0  0  0  0  0  0  0  0  0  0  0
    9.7934    2.7529   21.0871 H   0  0  0  0  0  0  0  0  0  0  0  0
    8.1189    2.2483   21.1080 H   0  0  0  0  0  0  0  0  0  0  0  0
   10.2888    2.0136   23.8290 C   0  0  0  0  0  0  0  0  0  0  0  0
    9.9816    1.9257   25.1172 N   0  0  0  0  0  0  0  0  0  0  0  0
    8.6374    1.8486   25.1314 N   0  0  0  0  0  0  0  0  0  0  0  0
    7.9208    1.7603   26.3855 C   0  0  0  0  0  0  0  0  0  0  0  0
    7.3411    2.6671   26.5776 H   0  0  0  0  0  0  0  0  0  0  0  0
    7.2321    0.9123   26.3624 H   0  0  0  0  0  0  0  0  0  0  0  0
    8.6375    1.6115   27.1855 H   0  0  0  0  0  0  0  0  0  0  0  0
   11.3248    2.0610   23.5152 H   0  0  0  0  0  0  0  0  0  0  0  0
    6.3692    0.7324   23.3746 H   0  0  0  0  0  0  0  0  0  0  0  0
    5.9961    2.1366   24.4066 H   0  0  0  0  0  0  0  0  0  0  0  0
    6.3859    2.3512   22.6926 H   0  0  0  0  0  0  0  0  0  0  0  0
  1  2  1  0
  2  3  2  0
  3  4  1  0
  4  5  1  0
  5  6  1  0
  6  7  2  0
  7  8  1  0
  8  9  1  0
  9 10  1  0
 10 11  1  0
 11 12  1  0
 12 13  1  0
 13 14  1  0
 13 15  1  0
 13 16  1  0
 12 17  1  0
 17 18  1  0
 18 19  1  0
 18 20  1  0
 17 21  1  0
 17 22  1  0
 12 23  1  0
 11 24  1  0
 11 25  1  0
 10 26  1  0
 10 27  1  0
  9 28  1  0
  8 29  2  0
 29 30  1  0
 30 31  1  0
 31 32  2  0
 32 33  1  0
 33 34  2  0
 34 35  1  0
 35 36  2  0
 36 37  1  0
 34 38  1  0
 33 39  1  0
 32 40  1  0
  5 41  1  0
  5 42  1  0
  4 43  1  0
  4 44  1  0
  3 45  1  0
 45 46  2  0
 46 47  1  0
 47 48  1  0
 48 49  1  0
 48 50  1  0
 48 51  1  0
 45 52  1  0
  1 53  1  0
  1 54  1  0
  1 55  1  0
 47  2  1  0
 30  6  1  0
 36 31  1  0
 18  9  1  0
M  END
>  <cnnaffinity>  (1) 
-6.08912

>  <filename>  (1) 
Cc1c(CCc2nc(C3CCC(C)CC3)nn2-c2cccnc2)cnn1C

$$$$
