
     RDKit          3D

 42 45  0  0  0  0  0  0  0  0999 V2000
    7.3810    0.3004   27.2047 C   0  0  0  0  0  0  0  0  0  0  0  0
    7.4120   -0.9016   26.2848 C   0  0  0  0  0  0  0  0  0  0  0  0
    7.7271   -2.1926   26.7498 C   0  0  0  0  0  0  0  0  0  0  0  0
    7.7489   -3.2855   25.8755 C   0  0  0  0  0  0  0  0  0  0  0  0
    7.5374   -3.0962   24.5083 C   0  0  0  0  0  0  0  0  0  0  0  0
    7.3128   -1.7959   24.0200 C   0  0  0  0  0  0  0  0  0  0  0  0
    7.4040   -1.5125   22.6173 N   0  0  0  0  0  0  0  0  0  0  0  0
    6.4583   -0.8110   21.9410 N   0  0  0  0  0  0  0  0  0  0  0  0
    6.9739   -0.7057   20.7319 C   0  0  0  0  0  0  0  0  0  0  0  0
    6.3407    0.0436   19.6490 C   0  0  0  0  0  0  0  0  0  0  0  0
    5.1621    0.7899   19.8212 C   0  0  0  0  0  0  0  0  0  0  0  0
    4.6765    1.5055   18.7302 C   0  0  0  0  0  0  0  0  0  0  0  0
    5.3765    1.4490   17.5170 C   0  0  0  0  0  0  0  0  0  0  0  0
    6.5016    0.7389   17.3435 N   0  0  0  0  0  0  0  0  0  0  0  0
    6.9721    0.0641   18.3970 C   0  0  0  0  0  0  0  0  0  0  0  0
    7.8998   -0.4821   18.2442 H   0  0  0  0  0  0  0  0  0  0  0  0
    5.0209    1.9975   16.6477 H   0  0  0  0  0  0  0  0  0  0  0  0
    3.7814    2.1151   18.8022 H   0  0  0  0  0  0  0  0  0  0  0  0
    4.6578    0.8132   20.7910 H   0  0  0  0  0  0  0  0  0  0  0  0
    8.2007   -1.2788   20.5856 N   0  0  0  0  0  0  0  0  0  0  0  0
    8.4703   -1.7181   21.7959 C   0  0  0  0  0  0  0  0  0  0  0  0
    9.8232   -2.1684   22.2884 C   0  0  0  0  0  0  0  0  0  0  0  0
   10.4556   -1.2271   23.3103 C   0  0  0  0  0  0  0  0  0  0  0  0
   10.4458   -1.2662   24.6622 C   0  0  0  0  0  0  0  0  0  0  0  0
   10.9979   -0.1709   25.1946 O   0  0  0  0  0  0  0  0  0  0  0  0
   11.4096    0.6505   24.1654 N   0  0  0  0  0  0  0  0  0  0  0  0
   11.0939    0.0296   23.0536 C   0  0  0  0  0  0  0  0  0  0  0  0
   11.3896    0.6434   21.7269 C   0  0  0  0  0  0  0  0  0  0  0  0
   11.6648   -0.1399   21.0149 H   0  0  0  0  0  0  0  0  0  0  0  0
   10.4963    1.1379   21.3255 H   0  0  0  0  0  0  0  0  0  0  0  0
   12.2103    1.3655   21.8012 H   0  0  0  0  0  0  0  0  0  0  0  0
   10.0686   -2.0052   25.3518 H   0  0  0  0  0  0  0  0  0  0  0  0
   10.4549   -2.2627   21.3960 H   0  0  0  0  0  0  0  0  0  0  0  0
    9.7359   -3.1679   22.7234 H   0  0  0  0  0  0  0  0  0  0  0  0
    7.1510   -0.7338   24.9161 C   0  0  0  0  0  0  0  0  0  0  0  0
    6.8773    0.2432   24.5234 H   0  0  0  0  0  0  0  0  0  0  0  0
    7.5300   -3.9515   23.8378 H   0  0  0  0  0  0  0  0  0  0  0  0
    7.9591   -4.2838   26.2586 H   0  0  0  0  0  0  0  0  0  0  0  0
    7.9950   -2.3316   27.7915 H   0  0  0  0  0  0  0  0  0  0  0  0
    7.8377    1.1731   26.7191 H   0  0  0  0  0  0  0  0  0  0  0  0
    6.3506    0.5729   27.4643 H   0  0  0  0  0  0  0  0  0  0  0  0
    7.9254    0.1220   28.1379 H   0  0  0  0  0  0  0  0  0  0  0  0
  1  2  1  0
  2  3  2  0
  3  4  1  0
  4  5  2  0
  5  6  1  0
  6  7  1  0
  7  8  1  0
  8  9  2  0
  9 10  1  0
 10 11  2  0
 11 12  1  0
 12 13  2  0
 13 14  1  0
 14 15  2  0
 15 16  1  0
 13 17  1  0
 12 18  1  0
 11 19  1  0
  9 20  1  0
 20 21  2  0
 21 22  1  0
 22 23  1  0
 23 24  2  0
 24 25  1  0
 25 26  1  0
 26 27  2  0
 27 28  1  0
 28 29  1  0
 28 30  1  0
 28 31  1  0
 24 32  1  0
 22 33  1  0
 22 34  1  0
  6 35  2  0
 35 36  1  0
  5 37  1  0
  4 38  1  0
  3 39  1  0
  1 40  1  0
  1 41  1  0
  1 42  1  0
 35  2  1  0
 21  7  1  0
 27 23  1  0
 15 10  1  0
M  END
>  <cnnaffinity>  (1) 
-6.0373

>  <filename>  (1) 
Cc1cccc(-n2nc(-c3cccnc3)nc2Cc2conc2C)c1

$$$$
