
     RDKit          3D

 47 50  0  0  0  0  0  0  0  0999 V2000
   13.5596    2.1307   23.3055 C   0  0  0  0  0  0  0  0  0  0  0  0
   12.9127    0.9188   22.6909 C   0  0  0  0  0  0  0  0  0  0  0  0
   13.6634   -0.2137   22.3379 C   0  0  0  0  0  0  0  0  0  0  0  0
   13.0482   -1.3285   21.7576 C   0  0  0  0  0  0  0  0  0  0  0  0
   11.6660   -1.3463   21.5705 C   0  0  0  0  0  0  0  0  0  0  0  0
   10.8949   -0.2348   21.9474 C   0  0  0  0  0  0  0  0  0  0  0  0
    9.4218   -0.2090   21.8653 C   0  0  0  0  0  0  0  0  0  0  0  0
    8.6635   -1.0992   21.2479 N   0  0  0  0  0  0  0  0  0  0  0  0
    7.4038   -0.6517   21.4887 N   0  0  0  0  0  0  0  0  0  0  0  0
    6.2808   -1.1926   20.7241 C   0  0  0  0  0  0  0  0  0  0  0  0
    5.8837   -0.2844   19.5770 C   0  0  0  0  0  0  0  0  0  0  0  0
    4.7280    0.5022   19.5806 C   0  0  0  0  0  0  0  0  0  0  0  0
    4.5290    1.4110   18.5384 C   0  0  0  0  0  0  0  0  0  0  0  0
    5.4787    1.4788   17.5175 C   0  0  0  0  0  0  0  0  0  0  0  0
    6.5730    0.7043   17.4722 N   0  0  0  0  0  0  0  0  0  0  0  0
    6.7606   -0.1447   18.4881 C   0  0  0  0  0  0  0  0  0  0  0  0
    7.6549   -0.7659   18.4302 H   0  0  0  0  0  0  0  0  0  0  0  0
    5.3580    2.1828   16.6967 H   0  0  0  0  0  0  0  0  0  0  0  0
    3.6686    2.0698   18.5083 H   0  0  0  0  0  0  0  0  0  0  0  0
    3.9894    0.4060   20.3780 H   0  0  0  0  0  0  0  0  0  0  0  0
    6.6193   -2.1651   20.3570 H   0  0  0  0  0  0  0  0  0  0  0  0
    5.4429   -1.3758   21.4046 H   0  0  0  0  0  0  0  0  0  0  0  0
    7.4623    0.4622   22.2567 C   0  0  0  0  0  0  0  0  0  0  0  0
    6.3526    1.2377   22.9121 C   0  0  0  0  0  0  0  0  0  0  0  0
    6.5483    1.2743   24.4584 C   0  0  0  0  0  0  0  0  0  0  0  0
    5.6329    2.1099   25.3146 C   0  0  0  0  0  0  0  0  0  0  0  0
    4.3175    1.8757   25.2436 N   0  0  0  0  0  0  0  0  0  0  0  0
    3.5474    2.5382   26.1030 C   0  0  0  0  0  0  0  0  0  0  0  0
    4.0510    3.4389   27.0317 C   0  0  0  0  0  0  0  0  0  0  0  0
    5.4248    3.6317   26.9932 C   0  0  0  0  0  0  0  0  0  0  0  0
    6.2161    2.9754   26.1548 N   0  0  0  0  0  0  0  0  0  0  0  0
    5.9195    4.3338   27.6677 H   0  0  0  0  0  0  0  0  0  0  0  0
    3.4202    3.9574   27.7367 H   0  0  0  0  0  0  0  0  0  0  0  0
    2.4789    2.3266   26.0489 H   0  0  0  0  0  0  0  0  0  0  0  0
    6.4606    0.2486   24.8371 H   0  0  0  0  0  0  0  0  0  0  0  0
    7.5685    1.6035   24.6762 H   0  0  0  0  0  0  0  0  0  0  0  0
    6.4233    2.2453   22.4811 H   0  0  0  0  0  0  0  0  0  0  0  0
    5.3730    0.8322   22.6382 H   0  0  0  0  0  0  0  0  0  0  0  0
    8.7209    0.7767   22.4762 N   0  0  0  0  0  0  0  0  0  0  0  0
   11.5386    0.8959   22.4750 C   0  0  0  0  0  0  0  0  0  0  0  0
   10.9337    1.7664   22.7173 H   0  0  0  0  0  0  0  0  0  0  0  0
   11.1773   -2.2076   21.1284 H   0  0  0  0  0  0  0  0  0  0  0  0
   13.6451   -2.1781   21.4375 H   0  0  0  0  0  0  0  0  0  0  0  0
   14.7326   -0.2222   22.5213 H   0  0  0  0  0  0  0  0  0  0  0  0
   12.9227    3.0187   23.2504 H   0  0  0  0  0  0  0  0  0  0  0  0
   13.7601    1.9424   24.3600 H   0  0  0  0  0  0  0  0  0  0  0  0
   14.5056    2.3623   22.8128 H   0  0  0  0  0  0  0  0  0  0  0  0
  1  2  1  0
  2  3  2  0
  3  4  1  0
  4  5  2  0
  5  6  1  0
  6  7  1  0
  7  8  2  0
  8  9  1  0
  9 10  1  0
 10 11  1  0
 11 12  2  0
 12 13  1  0
 13 14  2  0
 14 15  1  0
 15 16  2  0
 16 17  1  0
 14 18  1  0
 13 19  1  0
 12 20  1  0
 10 21  1  0
 10 22  1  0
  9 23  1  0
 23 24  1  0
 24 25  1  0
 25 26  1  0
 26 27  2  0
 27 28  1  0
 28 29  2  0
 29 30  1  0
 30 31  2  0
 30 32  1  0
 29 33  1  0
 28 34  1  0
 25 35  1  0
 25 36  1  0
 24 37  1  0
 24 38  1  0
 23 39  2  0
  6 40  2  0
 40 41  1  0
  5 42  1  0
  4 43  1  0
  3 44  1  0
  1 45  1  0
  1 46  1  0
  1 47  1  0
 40  2  1  0
 39  7  1  0
 16 11  1  0
 31 26  1  0
M  END
>  <cnnaffinity>  (1) 
-6.44858

>  <filename>  (1) 
Cc1cccc(-c2nc(CCc3ncccn3)n(Cc3cccnc3)n2)c1

$$$$
