
     RDKit          3D

 43 46  0  0  0  0  0  0  0  0999 V2000
    6.7262   -6.0887   26.5851 C   0  0  0  0  0  0  0  0  0  0  0  0
    6.9636   -5.0426   25.5316 C   0  0  0  0  0  0  0  0  0  0  0  0
    5.9214   -4.6629   24.6708 C   0  0  0  0  0  0  0  0  0  0  0  0
    6.1190   -3.7059   23.6825 C   0  0  0  0  0  0  0  0  0  0  0  0
    7.3816   -3.1097   23.5231 C   0  0  0  0  0  0  0  0  0  0  0  0
    7.5976   -2.0829   22.4882 C   0  0  0  0  0  0  0  0  0  0  0  0
    6.6636   -1.6487   21.6546 N   0  0  0  0  0  0  0  0  0  0  0  0
    7.3154   -0.7126   20.9182 N   0  0  0  0  0  0  0  0  0  0  0  0
    6.6244   -0.0309   19.8713 C   0  0  0  0  0  0  0  0  0  0  0  0
    5.4150    0.6220   20.1356 C   0  0  0  0  0  0  0  0  0  0  0  0
    4.7956    1.3128   19.0902 C   0  0  0  0  0  0  0  0  0  0  0  0
    5.3911    1.3067   17.8251 C   0  0  0  0  0  0  0  0  0  0  0  0
    6.5278    0.6471   17.5518 N   0  0  0  0  0  0  0  0  0  0  0  0
    7.1268   -0.0068   18.5564 C   0  0  0  0  0  0  0  0  0  0  0  0
    8.0553   -0.5307   18.3165 H   0  0  0  0  0  0  0  0  0  0  0  0
    4.9372    1.8510   17.0002 H   0  0  0  0  0  0  0  0  0  0  0  0
    3.8753    1.8627   19.2502 H   0  0  0  0  0  0  0  0  0  0  0  0
    4.9937    0.5825   21.1411 H   0  0  0  0  0  0  0  0  0  0  0  0
    8.5969   -0.5994   21.3833 C   0  0  0  0  0  0  0  0  0  0  0  0
    9.6537    0.3566   20.9194 C   0  0  0  0  0  0  0  0  0  0  0  0
   10.0914    1.3255   21.9886 C   0  0  0  0  0  0  0  0  0  0  0  0
   11.1872    1.3146   22.8275 C   0  0  0  0  0  0  0  0  0  0  0  0
   12.5193    0.2242   22.7299 Cl  0  0  0  0  0  0  0  0  0  0  0  0
   10.9670    2.3353   23.7728 C   0  0  0  0  0  0  0  0  0  0  0  0
    9.8159    2.9437   23.5342 N   0  0  0  0  0  0  0  0  0  0  0  0
    9.3119    2.3400   22.4495 N   0  0  0  0  0  0  0  0  0  0  0  0
    8.0086    2.7487   21.9760 C   0  0  0  0  0  0  0  0  0  0  0  0
    7.2306    2.0833   22.3541 H   0  0  0  0  0  0  0  0  0  0  0  0
    7.9882    2.7336   20.8920 H   0  0  0  0  0  0  0  0  0  0  0  0
    7.8159    3.7657   22.3107 H   0  0  0  0  0  0  0  0  0  0  0  0
   11.5657    2.6400   24.6206 H   0  0  0  0  0  0  0  0  0  0  0  0
   10.5164   -0.2531   20.6378 H   0  0  0  0  0  0  0  0  0  0  0  0
    9.3155    0.8857   20.0261 H   0  0  0  0  0  0  0  0  0  0  0  0
    8.8037   -1.4748   22.3379 N   0  0  0  0  0  0  0  0  0  0  0  0
    8.4306   -3.4796   24.3874 C   0  0  0  0  0  0  0  0  0  0  0  0
    8.2210   -4.4355   25.3770 C   0  0  0  0  0  0  0  0  0  0  0  0
    9.0386   -4.7045   26.0440 H   0  0  0  0  0  0  0  0  0  0  0  0
    9.4002   -2.9974   24.2825 H   0  0  0  0  0  0  0  0  0  0  0  0
    5.3036   -3.3912   23.0362 H   0  0  0  0  0  0  0  0  0  0  0  0
    4.9392   -5.1145   24.7848 H   0  0  0  0  0  0  0  0  0  0  0  0
    5.6903   -6.0731   26.9359 H   0  0  0  0  0  0  0  0  0  0  0  0
    7.3746   -5.9510   27.4551 H   0  0  0  0  0  0  0  0  0  0  0  0
    6.9160   -7.0870   26.1847 H   0  0  0  0  0  0  0  0  0  0  0  0
  1  2  1  0
  2  3  2  0
  3  4  1  0
  4  5  2  0
  5  6  1  0
  6  7  2  0
  7  8  1  0
  8  9  1  0
  9 10  2  0
 10 11  1  0
 11 12  2  0
 12 13  1  0
 13 14  2  0
 14 15  1  0
 12 16  1  0
 11 17  1  0
 10 18  1  0
  8 19  1  0
 19 20  1  0
 20 21  1  0
 21 22  2  0
 22 23  1  0
 22 24  1  0
 24 25  2  0
 25 26  1  0
 26 27  1  0
 27 28  1  0
 27 29  1  0
 27 30  1  0
 24 31  1  0
 20 32  1  0
 20 33  1  0
 19 34  2  0
  5 35  1  0
 35 36  2  0
 36 37  1  0
 35 38  1  0
  4 39  1  0
  3 40  1  0
  1 41  1  0
  1 42  1  0
  1 43  1  0
 36  2  1  0
 34  6  1  0
 14  9  1  0
 26 21  1  0
M  END
>  <cnnaffinity>  (1) 
-6.50591

>  <filename>  (1) 
Cc1ccc(-c2nc(Cc3c(Cl)cnn3C)n(-c3cccnc3)n2)cc1

$$$$
