
     RDKit          3D

 44 47  0  0  0  0  0  0  0  0999 V2000
   16.0285   -0.3050   19.6518 C   0  0  0  0  0  0  0  0  0  0  0  0
   14.7212   -0.7753   20.5375 C   0  0  0  0  0  0  0  0  0  0  0  0
   13.7623   -1.7782   20.3469 C   0  0  0  0  0  0  0  0  0  0  0  0
   12.4685   -1.6348   20.8810 C   0  0  0  0  0  0  0  0  0  0  0  0
   12.0879   -0.5120   21.6316 C   0  0  0  0  0  0  0  0  0  0  0  0
   10.6472   -0.1390   21.7175 C   0  0  0  0  0  0  0  0  0  0  0  0
    9.6835   -0.9146   21.2393 N   0  0  0  0  0  0  0  0  0  0  0  0
    8.5573   -0.2088   21.4738 N   0  0  0  0  0  0  0  0  0  0  0  0
    7.2607   -0.7252   21.0425 C   0  0  0  0  0  0  0  0  0  0  0  0
    6.5698    0.0469   19.9301 C   0  0  0  0  0  0  0  0  0  0  0  0
    5.3402    0.6951   20.1048 C   0  0  0  0  0  0  0  0  0  0  0  0
    4.7573    1.3561   19.0189 C   0  0  0  0  0  0  0  0  0  0  0  0
    5.4240    1.3371   17.7904 C   0  0  0  0  0  0  0  0  0  0  0  0
    6.5933    0.7098   17.5946 N   0  0  0  0  0  0  0  0  0  0  0  0
    7.1441    0.0911   18.6467 C   0  0  0  0  0  0  0  0  0  0  0  0
    8.0904   -0.4126   18.4578 H   0  0  0  0  0  0  0  0  0  0  0  0
    4.9996    1.8392   16.9224 H   0  0  0  0  0  0  0  0  0  0  0  0
    3.8172    1.8884   19.1094 H   0  0  0  0  0  0  0  0  0  0  0  0
    4.8400    0.6901   21.0773 H   0  0  0  0  0  0  0  0  0  0  0  0
    7.4592   -1.7520   20.7257 H   0  0  0  0  0  0  0  0  0  0  0  0
    6.6071   -0.7886   21.9177 H   0  0  0  0  0  0  0  0  0  0  0  0
    8.8794    0.9488   22.0857 C   0  0  0  0  0  0  0  0  0  0  0  0
    7.8531    1.8079   22.7681 C   0  0  0  0  0  0  0  0  0  0  0  0
    7.4702    1.1867   24.0956 C   0  0  0  0  0  0  0  0  0  0  0  0
    8.3784    0.9679   25.0987 C   0  0  0  0  0  0  0  0  0  0  0  0
    7.7641    0.2500   26.0852 N   0  0  0  0  0  0  0  0  0  0  0  0
    6.4646   -0.0005   25.7311 C   0  0  0  0  0  0  0  0  0  0  0  0
    6.2546    0.5771   24.5015 C   0  0  0  0  0  0  0  0  0  0  0  0
    5.3288    0.5583   23.9388 H   0  0  0  0  0  0  0  0  0  0  0  0
    5.8080   -0.5782   26.3695 H   0  0  0  0  0  0  0  0  0  0  0  0
    8.2192   -0.0603   26.9270 H   0  0  0  0  0  0  0  0  0  0  0  0
    9.4274    1.2275   25.1150 H   0  0  0  0  0  0  0  0  0  0  0  0
    8.2976    2.7971   22.9066 H   0  0  0  0  0  0  0  0  0  0  0  0
    6.9748    1.9373   22.1277 H   0  0  0  0  0  0  0  0  0  0  0  0
   10.1913    1.0394   22.2262 N   0  0  0  0  0  0  0  0  0  0  0  0
   13.1225    0.2913   22.1502 C   0  0  0  0  0  0  0  0  0  0  0  0
   14.3984    0.0956   21.6416 C   0  0  0  0  0  0  0  0  0  0  0  0
   15.3392    0.9181   22.1407 F   0  0  0  0  0  0  0  0  0  0  0  0
   12.9754    1.1060   22.8538 H   0  0  0  0  0  0  0  0  0  0  0  0
   11.6737   -2.3315   20.6803 H   0  0  0  0  0  0  0  0  0  0  0  0
   13.9821   -2.6885   19.8016 H   0  0  0  0  0  0  0  0  0  0  0  0
   15.9450    0.1419   18.6500 H   0  0  0  0  0  0  0  0  0  0  0  0
   16.8369   -1.0402   19.6395 H   0  0  0  0  0  0  0  0  0  0  0  0
   16.4043    0.5640   20.1599 H   0  0  0  0  0  0  0  0  0  0  0  0
  1  2  1  0
  2  3  2  0
  3  4  1  0
  4  5  2  0
  5  6  1  0
  6  7  2  0
  7  8  1  0
  8  9  1  0
  9 10  1  0
 10 11  2  0
 11 12  1  0
 12 13  2  0
 13 14  1  0
 14 15  2  0
 15 16  1  0
 13 17  1  0
 12 18  1  0
 11 19  1  0
  9 20  1  0
  9 21  1  0
  8 22  1  0
 22 23  1  0
 23 24  1  0
 24 25  2  0
 25 26  1  0
 26 27  1  0
 27 28  2  0
 28 29  1  0
 27 30  1  0
 26 31  1  0
 25 32  1  0
 23 33  1  0
 23 34  1  0
 22 35  2  0
  5 36  1  0
 36 37  2  0
 37 38  1  0
 36 39  1  0
  4 40  1  0
  3 41  1  0
  1 42  1  0
  1 43  1  0
  1 44  1  0
 37  2  1  0
 35  6  1  0
 15 10  1  0
 28 24  1  0
M  END
>  <cnnaffinity>  (1) 
-6.49617

>  <filename>  (1) 
Cc1ccc(-c2nc(Cc3cc[nH]c3)n(Cc3cccnc3)n2)cc1F

$$$$
