
     RDKit          3D

 43 46  0  0  0  0  0  0  0  0999 V2000
    9.6183    2.2496   21.0724 C   0  0  0  0  0  0  0  0  0  0  0  0
    9.7426    2.2220   22.5615 C   0  0  0  0  0  0  0  0  0  0  0  0
   10.9316    2.6469   23.1595 C   0  0  0  0  0  0  0  0  0  0  0  0
   11.0869    2.5203   24.5351 C   0  0  0  0  0  0  0  0  0  0  0  0
   10.1372    2.0338   25.3388 N   0  0  0  0  0  0  0  0  0  0  0  0
    8.9811    1.6665   24.7668 C   0  0  0  0  0  0  0  0  0  0  0  0
    8.7072    1.7564   23.3946 C   0  0  0  0  0  0  0  0  0  0  0  0
    7.3879    1.2503   22.8003 C   0  0  0  0  0  0  0  0  0  0  0  0
    7.5161   -0.1388   22.2245 C   0  0  0  0  0  0  0  0  0  0  0  0
    8.0130   -1.1113   22.9519 N   0  0  0  0  0  0  0  0  0  0  0  0
    8.2090   -2.1123   22.0586 C   0  0  0  0  0  0  0  0  0  0  0  0
    8.8618   -3.3584   22.5414 C   0  0  0  0  0  0  0  0  0  0  0  0
    8.1344   -4.0784   23.6926 C   0  0  0  0  0  0  0  0  0  0  0  0
    9.2653   -4.8320   24.3924 C   0  0  0  0  0  0  0  0  0  0  0  0
   10.4476   -4.0868   24.1427 O   0  0  0  0  0  0  0  0  0  0  0  0
   10.2216   -3.0524   23.2055 C   0  0  0  0  0  0  0  0  0  0  0  0
   11.0508   -3.0057   22.4894 H   0  0  0  0  0  0  0  0  0  0  0  0
   10.1963   -2.0847   23.7359 H   0  0  0  0  0  0  0  0  0  0  0  0
    9.1104   -4.8940   25.4750 H   0  0  0  0  0  0  0  0  0  0  0  0
    9.3941   -5.8617   24.0170 H   0  0  0  0  0  0  0  0  0  0  0  0
    7.6992   -3.3202   24.3574 H   0  0  0  0  0  0  0  0  0  0  0  0
    7.3363   -4.7413   23.3553 H   0  0  0  0  0  0  0  0  0  0  0  0
    8.9424   -4.0361   21.6926 H   0  0  0  0  0  0  0  0  0  0  0  0
    7.8303   -1.8478   20.8290 N   0  0  0  0  0  0  0  0  0  0  0  0
    7.3266   -0.5814   20.9427 N   0  0  0  0  0  0  0  0  0  0  0  0
    6.6215    0.0276   19.8657 C   0  0  0  0  0  0  0  0  0  0  0  0
    5.4041    0.6812   20.0931 C   0  0  0  0  0  0  0  0  0  0  0  0
    4.7978    1.3351   19.0178 C   0  0  0  0  0  0  0  0  0  0  0  0
    5.4199    1.3087   17.7667 C   0  0  0  0  0  0  0  0  0  0  0  0
    6.5581    0.6345   17.5305 N   0  0  0  0  0  0  0  0  0  0  0  0
    7.1332   -0.0063   18.5549 C   0  0  0  0  0  0  0  0  0  0  0  0
    8.0360   -0.5681   18.3286 H   0  0  0  0  0  0  0  0  0  0  0  0
    4.9865    1.8429   16.9233 H   0  0  0  0  0  0  0  0  0  0  0  0
    3.8656    1.8715   19.1463 H   0  0  0  0  0  0  0  0  0  0  0  0
    4.9407    0.6633   21.0816 H   0  0  0  0  0  0  0  0  0  0  0  0
    6.6196    1.2067   23.5784 H   0  0  0  0  0  0  0  0  0  0  0  0
    7.0253    1.9452   22.0407 H   0  0  0  0  0  0  0  0  0  0  0  0
    8.2272    1.2575   25.4421 H   0  0  0  0  0  0  0  0  0  0  0  0
   12.0157    2.8316   25.0069 H   0  0  0  0  0  0  0  0  0  0  0  0
   11.7296    3.0695   22.5576 H   0  0  0  0  0  0  0  0  0  0  0  0
    9.3698    1.2579   20.6759 H   0  0  0  0  0  0  0  0  0  0  0  0
    8.8272    2.9382   20.7605 H   0  0  0  0  0  0  0  0  0  0  0  0
   10.5573    2.5744   20.6159 H   0  0  0  0  0  0  0  0  0  0  0  0
  1  2  1  0
  2  3  2  0
  3  4  1  0
  4  5  2  0
  5  6  1  0
  6  7  2  0
  7  8  1  0
  8  9  1  0
  9 10  2  0
 10 11  1  0
 11 12  1  0
 12 13  1  0
 13 14  1  0
 14 15  1  0
 15 16  1  0
 16 17  1  0
 16 18  1  0
 14 19  1  0
 14 20  1  0
 13 21  1  0
 13 22  1  0
 12 23  1  0
 11 24  2  0
 24 25  1  0
 25 26  1  0
 26 27  2  0
 27 28  1  0
 28 29  2  0
 29 30  1  0
 30 31  2  0
 31 32  1  0
 29 33  1  0
 28 34  1  0
 27 35  1  0
  8 36  1  0
  8 37  1  0
  6 38  1  0
  4 39  1  0
  3 40  1  0
  1 41  1  0
  1 42  1  0
  1 43  1  0
  7  2  1  0
 25  9  1  0
 31 26  1  0
 16 12  1  0
M  END
>  <cnnaffinity>  (1) 
-5.95568

>  <filename>  (1) 
Cc1ccncc1Cc1nc(C2CCOC2)nn1-c1cccnc1

$$$$
