
     RDKit          3D

 45 48  0  0  0  0  0  0  0  0999 V2000
    6.4730    1.6051   25.6392 C   0  0  0  0  0  0  0  0  0  0  0  0
    7.6955    1.8270   24.8010 C   0  0  0  0  0  0  0  0  0  0  0  0
    8.9436    2.0240   25.2987 C   0  0  0  0  0  0  0  0  0  0  0  0
   10.0646    2.2773   24.0221 S   0  0  0  0  0  0  0  0  0  0  0  0
    8.7623    2.0968   22.8853 C   0  0  0  0  0  0  0  0  0  0  0  0
    9.0274    2.0139   21.4065 C   0  0  0  0  0  0  0  0  0  0  0  0
    9.5304    0.6095   20.9417 C   0  0  0  0  0  0  0  0  0  0  0  0
    8.6532   -0.5164   21.3853 C   0  0  0  0  0  0  0  0  0  0  0  0
    8.8875   -1.3294   22.3978 N   0  0  0  0  0  0  0  0  0  0  0  0
    7.6830   -1.9224   22.5935 C   0  0  0  0  0  0  0  0  0  0  0  0
    7.4076   -2.8107   23.7685 C   0  0  0  0  0  0  0  0  0  0  0  0
    6.5474   -4.0417   23.4353 C   0  0  0  0  0  0  0  0  0  0  0  0
    5.8949   -4.4519   24.7648 C   0  0  0  0  0  0  0  0  0  0  0  0
    5.8922   -3.1952   25.6736 C   0  0  0  0  0  0  0  0  0  0  0  0
    6.6431   -2.0894   24.9081 C   0  0  0  0  0  0  0  0  0  0  0  0
    5.9334   -1.3708   24.4755 H   0  0  0  0  0  0  0  0  0  0  0  0
    7.3190   -1.5050   25.5462 H   0  0  0  0  0  0  0  0  0  0  0  0
    6.3754   -3.4177   26.6307 H   0  0  0  0  0  0  0  0  0  0  0  0
    4.8748   -2.8740   25.9183 H   0  0  0  0  0  0  0  0  0  0  0  0
    6.4588   -5.2625   25.2398 H   0  0  0  0  0  0  0  0  0  0  0  0
    4.8854   -4.8412   24.6022 H   0  0  0  0  0  0  0  0  0  0  0  0
    7.1435   -4.8460   22.9883 H   0  0  0  0  0  0  0  0  0  0  0  0
    5.7899   -3.7559   22.6964 H   0  0  0  0  0  0  0  0  0  0  0  0
    8.3864   -3.1239   24.1404 H   0  0  0  0  0  0  0  0  0  0  0  0
    6.7427   -1.5643   21.7378 N   0  0  0  0  0  0  0  0  0  0  0  0
    7.3741   -0.6677   20.9393 N   0  0  0  0  0  0  0  0  0  0  0  0
    6.6597    0.0035   19.9029 C   0  0  0  0  0  0  0  0  0  0  0  0
    5.4411    0.6404   20.1702 C   0  0  0  0  0  0  0  0  0  0  0  0
    4.8145    1.3081   19.1110 C   0  0  0  0  0  0  0  0  0  0  0  0
    5.4014    1.2955   17.8382 C   0  0  0  0  0  0  0  0  0  0  0  0
    6.5602    0.6730   17.5758 N   0  0  0  0  0  0  0  0  0  0  0  0
    7.1678    0.0525   18.5932 C   0  0  0  0  0  0  0  0  0  0  0  0
    8.1122   -0.4341   18.3668 H   0  0  0  0  0  0  0  0  0  0  0  0
    4.9204    1.7861   16.9937 H   0  0  0  0  0  0  0  0  0  0  0  0
    3.8817    1.8386   19.2610 H   0  0  0  0  0  0  0  0  0  0  0  0
    5.0194    0.6108   21.1789 H   0  0  0  0  0  0  0  0  0  0  0  0
   10.5243    0.4025   21.3435 H   0  0  0  0  0  0  0  0  0  0  0  0
    9.6066    0.5968   19.8529 H   0  0  0  0  0  0  0  0  0  0  0  0
    9.7673    2.7675   21.1296 H   0  0  0  0  0  0  0  0  0  0  0  0
    8.0937    2.2553   20.8896 H   0  0  0  0  0  0  0  0  0  0  0  0
    7.5988    1.8934   23.4280 N   0  0  0  0  0  0  0  0  0  0  0  0
    9.2239    2.0661   26.3386 H   0  0  0  0  0  0  0  0  0  0  0  0
    5.6449    1.2118   25.0449 H   0  0  0  0  0  0  0  0  0  0  0  0
    6.6759    0.9068   26.4596 H   0  0  0  0  0  0  0  0  0  0  0  0
    6.1386    2.5409   26.0982 H   0  0  0  0  0  0  0  0  0  0  0  0
  1  2  1  0
  2  3  2  0
  3  4  1  0
  4  5  1  0
  5  6  1  0
  6  7  1  0
  7  8  1  0
  8  9  2  0
  9 10  1  0
 10 11  1  0
 11 12  1  0
 12 13  1  0
 13 14  1  0
 14 15  1  0
 15 16  1  0
 15 17  1  0
 14 18  1  0
 14 19  1  0
 13 20  1  0
 13 21  1  0
 12 22  1  0
 12 23  1  0
 11 24  1  0
 10 25  2  0
 25 26  1  0
 26 27  1  0
 27 28  2  0
 28 29  1  0
 29 30  2  0
 30 31  1  0
 31 32  2  0
 32 33  1  0
 30 34  1  0
 29 35  1  0
 28 36  1  0
  7 37  1  0
  7 38  1  0
  6 39  1  0
  6 40  1  0
  5 41  2  0
  3 42  1  0
  1 43  1  0
  1 44  1  0
  1 45  1  0
 41  2  1  0
 26  8  1  0
 32 27  1  0
 15 11  1  0
M  END
>  <cnnaffinity>  (1) 
-6.05046

>  <filename>  (1) 
Cc1csc(CCc2nc(C3CCCC3)nn2-c2cccnc2)n1

$$$$
