
     RDKit          3D

 45 48  0  0  0  0  0  0  0  0999 V2000
   12.0157    2.9960   22.1684 C   0  0  0  0  0  0  0  0  0  0  0  0
   12.1860    1.4976   22.0732 C   0  0  0  0  0  0  0  0  0  0  0  0
   13.3442    0.8639   22.5551 C   0  0  0  0  0  0  0  0  0  0  0  0
   13.5717   -0.4544   22.5116 N   0  0  0  0  0  0  0  0  0  0  0  0
   12.6227   -1.2273   21.9716 C   0  0  0  0  0  0  0  0  0  0  0  0
   11.4316   -0.7115   21.4616 C   0  0  0  0  0  0  0  0  0  0  0  0
   11.2086    0.6674   21.4981 C   0  0  0  0  0  0  0  0  0  0  0  0
    9.8853    1.2198   21.0152 C   0  0  0  0  0  0  0  0  0  0  0  0
    8.8339    1.1053   22.0618 C   0  0  0  0  0  0  0  0  0  0  0  0
    8.7796    1.8485   23.1478 N   0  0  0  0  0  0  0  0  0  0  0  0
    7.6938    1.3702   23.8106 C   0  0  0  0  0  0  0  0  0  0  0  0
    7.2488    1.9020   25.1248 C   0  0  0  0  0  0  0  0  0  0  0  0
    7.9839    2.9211   25.7689 C   0  0  0  0  0  0  0  0  0  0  0  0
    7.5191    3.4184   26.9804 C   0  0  0  0  0  0  0  0  0  0  0  0
    8.1587    4.4542   27.5371 F   0  0  0  0  0  0  0  0  0  0  0  0
    6.3928    2.9126   27.6186 C   0  0  0  0  0  0  0  0  0  0  0  0
    5.6877    1.9091   26.9647 C   0  0  0  0  0  0  0  0  0  0  0  0
    4.5750    1.4298   27.5365 F   0  0  0  0  0  0  0  0  0  0  0  0
    6.0791    1.3969   25.7341 C   0  0  0  0  0  0  0  0  0  0  0  0
    5.4785    0.6208   25.2708 H   0  0  0  0  0  0  0  0  0  0  0  0
    6.0696    3.2964   28.5754 H   0  0  0  0  0  0  0  0  0  0  0  0
    8.8922    3.3421   25.3506 H   0  0  0  0  0  0  0  0  0  0  0  0
    7.0751    0.3856   23.1756 N   0  0  0  0  0  0  0  0  0  0  0  0
    7.8187    0.2163   22.0633 N   0  0  0  0  0  0  0  0  0  0  0  0
    7.3816   -0.6995   21.0180 C   0  0  0  0  0  0  0  0  0  0  0  0
    6.6521   -0.0033   19.8827 C   0  0  0  0  0  0  0  0  0  0  0  0
    5.4397    0.6489   20.1361 C   0  0  0  0  0  0  0  0  0  0  0  0
    4.7996    1.3094   19.0851 C   0  0  0  0  0  0  0  0  0  0  0  0
    5.3931    1.2990   17.8190 C   0  0  0  0  0  0  0  0  0  0  0  0
    6.5523    0.6775   17.5571 N   0  0  0  0  0  0  0  0  0  0  0  0
    7.1582    0.0535   18.5751 C   0  0  0  0  0  0  0  0  0  0  0  0
    8.1058   -0.4288   18.3273 H   0  0  0  0  0  0  0  0  0  0  0  0
    4.9242    1.8084   16.9776 H   0  0  0  0  0  0  0  0  0  0  0  0
    3.8703    1.8454   19.2342 H   0  0  0  0  0  0  0  0  0  0  0  0
    5.0305    0.6420   21.1492 H   0  0  0  0  0  0  0  0  0  0  0  0
    8.2542   -1.2478   20.6455 H   0  0  0  0  0  0  0  0  0  0  0  0
    6.7333   -1.4155   21.5335 H   0  0  0  0  0  0  0  0  0  0  0  0
    9.9758    2.2841   20.7806 H   0  0  0  0  0  0  0  0  0  0  0  0
    9.5609    0.7021   20.1102 H   0  0  0  0  0  0  0  0  0  0  0  0
   10.6887   -1.3822   21.0434 H   0  0  0  0  0  0  0  0  0  0  0  0
   12.8234   -2.2994   21.9533 H   0  0  0  0  0  0  0  0  0  0  0  0
   14.1390    1.4634   23.0061 H   0  0  0  0  0  0  0  0  0  0  0  0
   12.0142    3.4676   21.1777 H   0  0  0  0  0  0  0  0  0  0  0  0
   11.0619    3.2447   22.6497 H   0  0  0  0  0  0  0  0  0  0  0  0
   12.8283    3.4505   22.7433 H   0  0  0  0  0  0  0  0  0  0  0  0
  1  2  1  0
  2  3  2  0
  3  4  1  0
  4  5  2  0
  5  6  1  0
  6  7  2  0
  7  8  1  0
  8  9  1  0
  9 10  2  0
 10 11  1  0
 11 12  1  0
 12 13  2  0
 13 14  1  0
 14 15  1  0
 14 16  2  0
 16 17  1  0
 17 18  1  0
 17 19  2  0
 19 20  1  0
 16 21  1  0
 13 22  1  0
 11 23  2  0
 23 24  1  0
 24 25  1  0
 25 26  1  0
 26 27  2  0
 27 28  1  0
 28 29  2  0
 29 30  1  0
 30 31  2  0
 31 32  1  0
 29 33  1  0
 28 34  1  0
 27 35  1  0
 25 36  1  0
 25 37  1  0
  8 38  1  0
  8 39  1  0
  6 40  1  0
  5 41  1  0
  3 42  1  0
  1 43  1  0
  1 44  1  0
  1 45  1  0
  7  2  1  0
 24  9  1  0
 31 26  1  0
 19 12  1  0
M  END
>  <cnnaffinity>  (1) 
-6.26297

>  <filename>  (1) 
Cc1cnccc1Cc1nc(-c2cc(F)cc(F)c2)nn1Cc1cccnc1

$$$$
