
     RDKit          3D

 48 51  0  0  0  0  0  0  0  0999 V2000
   13.4911    2.1619   23.3229 C   0  0  0  0  0  0  0  0  0  0  0  0
   12.8765    0.9516   22.6589 C   0  0  0  0  0  0  0  0  0  0  0  0
   13.6457   -0.1664   22.3000 C   0  0  0  0  0  0  0  0  0  0  0  0
   13.0403   -1.2958   21.7324 C   0  0  0  0  0  0  0  0  0  0  0  0
   11.6564   -1.3309   21.5385 C   0  0  0  0  0  0  0  0  0  0  0  0
   10.8768   -0.2141   21.8920 C   0  0  0  0  0  0  0  0  0  0  0  0
    9.4026   -0.2010   21.8164 C   0  0  0  0  0  0  0  0  0  0  0  0
    8.6530   -1.0892   21.1890 N   0  0  0  0  0  0  0  0  0  0  0  0
    7.3890   -0.6727   21.4573 N   0  0  0  0  0  0  0  0  0  0  0  0
    6.2716   -1.2254   20.6966 C   0  0  0  0  0  0  0  0  0  0  0  0
    5.8608   -0.3177   19.5534 C   0  0  0  0  0  0  0  0  0  0  0  0
    4.7073    0.4719   19.5654 C   0  0  0  0  0  0  0  0  0  0  0  0
    4.5190    1.4027   18.5382 C   0  0  0  0  0  0  0  0  0  0  0  0
    5.4730    1.4810   17.5209 C   0  0  0  0  0  0  0  0  0  0  0  0
    6.5613    0.6995   17.4634 N   0  0  0  0  0  0  0  0  0  0  0  0
    6.7373   -0.1680   18.4654 C   0  0  0  0  0  0  0  0  0  0  0  0
    7.6350   -0.7860   18.4154 H   0  0  0  0  0  0  0  0  0  0  0  0
    5.3660    2.2033   16.7137 H   0  0  0  0  0  0  0  0  0  0  0  0
    3.6695    2.0749   18.5200 H   0  0  0  0  0  0  0  0  0  0  0  0
    3.9667    0.3786   20.3620 H   0  0  0  0  0  0  0  0  0  0  0  0
    5.4413   -1.4147   21.3842 H   0  0  0  0  0  0  0  0  0  0  0  0
    6.6166   -2.1929   20.3212 H   0  0  0  0  0  0  0  0  0  0  0  0
    7.4355    0.4378   22.2307 C   0  0  0  0  0  0  0  0  0  0  0  0
    6.3070    1.1688   22.9103 C   0  0  0  0  0  0  0  0  0  0  0  0
    6.4626    1.1534   24.4616 C   0  0  0  0  0  0  0  0  0  0  0  0
    5.5858    2.0556   25.3118 C   0  0  0  0  0  0  0  0  0  0  0  0
    6.1625    3.0608   26.1095 C   0  0  0  0  0  0  0  0  0  0  0  0
    5.3651    3.7859   26.9964 C   0  0  0  0  0  0  0  0  0  0  0  0
    4.0017    3.4856   27.0436 C   0  0  0  0  0  0  0  0  0  0  0  0
    3.5104    2.4908   26.1953 C   0  0  0  0  0  0  0  0  0  0  0  0
    4.2728    1.7851   25.3467 N   0  0  0  0  0  0  0  0  0  0  0  0
    2.4515    2.2379   26.2061 H   0  0  0  0  0  0  0  0  0  0  0  0
    3.3295    3.9986   27.7212 H   0  0  0  0  0  0  0  0  0  0  0  0
    5.7983    4.5550   27.6386 H   0  0  0  0  0  0  0  0  0  0  0  0
    7.2290    3.2454   26.0353 H   0  0  0  0  0  0  0  0  0  0  0  0
    7.5077    1.3885   24.6908 H   0  0  0  0  0  0  0  0  0  0  0  0
    6.2856    0.1296   24.8150 H   0  0  0  0  0  0  0  0  0  0  0  0
    6.3580    2.1925   22.5213 H   0  0  0  0  0  0  0  0  0  0  0  0
    5.3413    0.7568   22.6049 H   0  0  0  0  0  0  0  0  0  0  0  0
    8.6901    0.7725   22.4433 N   0  0  0  0  0  0  0  0  0  0  0  0
   11.5088    0.9290   22.4078 C   0  0  0  0  0  0  0  0  0  0  0  0
   10.9088    1.8111   22.6382 H   0  0  0  0  0  0  0  0  0  0  0  0
   11.1770   -2.2061   21.1092 H   0  0  0  0  0  0  0  0  0  0  0  0
   13.6547   -2.1459   21.4461 H   0  0  0  0  0  0  0  0  0  0  0  0
   14.7197   -0.1572   22.4728 H   0  0  0  0  0  0  0  0  0  0  0  0
   12.8319    3.0330   23.2792 H   0  0  0  0  0  0  0  0  0  0  0  0
   14.4395    2.4268   22.8455 H   0  0  0  0  0  0  0  0  0  0  0  0
   13.6605    1.9549   24.3817 H   0  0  0  0  0  0  0  0  0  0  0  0
  1  2  1  0
  2  3  2  0
  3  4  1  0
  4  5  2  0
  5  6  1  0
  6  7  1  0
  7  8  2  0
  8  9  1  0
  9 10  1  0
 10 11  1  0
 11 12  2  0
 12 13  1  0
 13 14  2  0
 14 15  1  0
 15 16  2  0
 16 17  1  0
 14 18  1  0
 13 19  1  0
 12 20  1  0
 10 21  1  0
 10 22  1  0
  9 23  1  0
 23 24  1  0
 24 25  1  0
 25 26  1  0
 26 27  2  0
 27 28  1  0
 28 29  2  0
 29 30  1  0
 30 31  2  0
 30 32  1  0
 29 33  1  0
 28 34  1  0
 27 35  1  0
 25 36  1  0
 25 37  1  0
 24 38  1  0
 24 39  1  0
 23 40  2  0
  6 41  2  0
 41 42  1  0
  5 43  1  0
  4 44  1  0
  3 45  1  0
  1 46  1  0
  1 47  1  0
  1 48  1  0
 41  2  1  0
 40  7  1  0
 16 11  1  0
 31 26  1  0
M  END
>  <cnnaffinity>  (1) 
-6.42041

>  <filename>  (1) 
Cc1cccc(-c2nc(CCc3ccccn3)n(Cc3cccnc3)n2)c1

$$$$
