
     RDKit          3D

 47 50  0  0  0  0  0  0  0  0999 V2000
   10.0678   -1.7289   23.7203 C   0  0  0  0  0  0  0  0  0  0  0  0
   11.0760   -0.6008   23.7573 C   0  0  0  0  0  0  0  0  0  0  0  0
   11.6773   -0.1848   24.9499 C   0  0  0  0  0  0  0  0  0  0  0  0
   12.7769    0.6743   24.8897 C   0  0  0  0  0  0  0  0  0  0  0  0
   13.1549    1.2063   23.6577 C   0  0  0  0  0  0  0  0  0  0  0  0
   12.5357    0.8952   22.5156 N   0  0  0  0  0  0  0  0  0  0  0  0
   11.5305    0.0114   22.5615 C   0  0  0  0  0  0  0  0  0  0  0  0
   10.8290   -0.2003   21.2407 C   0  0  0  0  0  0  0  0  0  0  0  0
    9.8711    0.9864   20.9100 C   0  0  0  0  0  0  0  0  0  0  0  0
    8.7702    1.1313   21.9207 C   0  0  0  0  0  0  0  0  0  0  0  0
    8.7328    1.9292   22.9718 N   0  0  0  0  0  0  0  0  0  0  0  0
    7.6880    1.4347   23.7170 C   0  0  0  0  0  0  0  0  0  0  0  0
    7.3089    2.0171   25.0689 C   0  0  0  0  0  0  0  0  0  0  0  0
    8.1657    2.9643   25.6772 C   0  0  0  0  0  0  0  0  0  0  0  0
    7.7999    3.5205   26.9033 C   0  0  0  0  0  0  0  0  0  0  0  0
    6.6067    3.1116   27.5057 C   0  0  0  0  0  0  0  0  0  0  0  0
    5.8249    2.1588   26.8432 C   0  0  0  0  0  0  0  0  0  0  0  0
    6.1561    1.6272   25.6634 N   0  0  0  0  0  0  0  0  0  0  0  0
    4.8857    1.8045   27.2724 H   0  0  0  0  0  0  0  0  0  0  0  0
    6.2745    3.5058   28.4602 H   0  0  0  0  0  0  0  0  0  0  0  0
    8.4304    4.2710   27.3765 H   0  0  0  0  0  0  0  0  0  0  0  0
    9.0905    3.2475   25.1774 H   0  0  0  0  0  0  0  0  0  0  0  0
    7.0869    0.3978   23.1449 N   0  0  0  0  0  0  0  0  0  0  0  0
    7.7972    0.1981   22.0171 N   0  0  0  0  0  0  0  0  0  0  0  0
    7.3292   -0.7365   20.9929 C   0  0  0  0  0  0  0  0  0  0  0  0
    6.6370   -0.0336   19.8510 C   0  0  0  0  0  0  0  0  0  0  0  0
    5.4509    0.6664   20.0996 C   0  0  0  0  0  0  0  0  0  0  0  0
    4.8294    1.3328   19.0439 C   0  0  0  0  0  0  0  0  0  0  0  0
    5.4352    1.2887   17.7845 C   0  0  0  0  0  0  0  0  0  0  0  0
    6.5700    0.6211   17.5249 N   0  0  0  0  0  0  0  0  0  0  0  0
    7.1464   -0.0255   18.5461 C   0  0  0  0  0  0  0  0  0  0  0  0
    8.0636   -0.5747   18.3132 H   0  0  0  0  0  0  0  0  0  0  0  0
    4.9891    1.8057   16.9398 H   0  0  0  0  0  0  0  0  0  0  0  0
    3.9032    1.8830   19.1844 H   0  0  0  0  0  0  0  0  0  0  0  0
    5.0439    0.6847   21.1126 H   0  0  0  0  0  0  0  0  0  0  0  0
    6.6486   -1.4184   21.5108 H   0  0  0  0  0  0  0  0  0  0  0  0
    8.1779   -1.3236   20.6228 H   0  0  0  0  0  0  0  0  0  0  0  0
    9.4278    0.8385   19.9228 H   0  0  0  0  0  0  0  0  0  0  0  0
   10.4298    1.9245   20.8631 H   0  0  0  0  0  0  0  0  0  0  0  0
   10.2604   -1.1362   21.2208 H   0  0  0  0  0  0  0  0  0  0  0  0
   11.6313   -0.3168   20.5146 H   0  0  0  0  0  0  0  0  0  0  0  0
   13.9796    1.9073   23.5590 H   0  0  0  0  0  0  0  0  0  0  0  0
   13.3691    0.8743   25.7631 H   0  0  0  0  0  0  0  0  0  0  0  0
   11.3071   -0.5670   25.9028 H   0  0  0  0  0  0  0  0  0  0  0  0
   10.4618   -2.5866   23.1559 H   0  0  0  0  0  0  0  0  0  0  0  0
    9.8294   -2.0822   24.7257 H   0  0  0  0  0  0  0  0  0  0  0  0
    9.1398   -1.4046   23.2348 H   0  0  0  0  0  0  0  0  0  0  0  0
  1  2  1  0
  2  3  2  0
  3  4  1  0
  4  5  2  0
  5  6  1  0
  6  7  2  0
  7  8  1  0
  8  9  1  0
  9 10  1  0
 10 11  2  0
 11 12  1  0
 12 13  1  0
 13 14  2  0
 14 15  1  0
 15 16  2  0
 16 17  1  0
 17 18  2  0
 17 19  1  0
 16 20  1  0
 15 21  1  0
 14 22  1  0
 12 23  2  0
 23 24  1  0
 24 25  1  0
 25 26  1  0
 26 27  2  0
 27 28  1  0
 28 29  2  0
 29 30  1  0
 30 31  2  0
 31 32  1  0
 29 33  1  0
 28 34  1  0
 27 35  1  0
 25 36  1  0
 25 37  1  0
  9 38  1  0
  9 39  1  0
  8 40  1  0
  8 41  1  0
  5 42  1  0
  4 43  1  0
  3 44  1  0
  1 45  1  0
  1 46  1  0
  1 47  1  0
  7  2  1  0
 24 10  1  0
 31 26  1  0
 18 13  1  0
M  END
>  <cnnaffinity>  (1) 
-5.8911

>  <filename>  (1) 
Cc1cccnc1CCc1nc(-c2ccccn2)nn1Cc1cccnc1

$$$$
