
     RDKit          3D

 34 36  0  0  0  0  0  0  0  0999 V2000
    4.9255    1.8250   16.9563 H   0  0  0  0  0  0  0  0  0  0  0  0
    5.3794    1.3132   17.8047 C   0  0  0  0  0  0  0  0  0  0  0  0
    6.5343    0.6772   17.5590 N   0  0  0  0  0  0  0  0  0  0  0  0
    7.1279    0.0537   18.5855 C   0  0  0  0  0  0  0  0  0  0  0  0
    8.0781   -0.4274   18.3617 H   0  0  0  0  0  0  0  0  0  0  0  0
    6.6064   -0.0025   19.8930 C   0  0  0  0  0  0  0  0  0  0  0  0
    7.3376   -0.7031   20.9743 C   0  0  0  0  0  0  0  0  0  0  0  0
    8.6677   -0.6294   21.3412 C   0  0  0  0  0  0  0  0  0  0  0  0
    9.7718    0.2384   20.7961 C   0  0  0  0  0  0  0  0  0  0  0  0
    9.3899    0.8363   19.9617 H   0  0  0  0  0  0  0  0  0  0  0  0
   10.5342   -0.4361   20.3923 H   0  0  0  0  0  0  0  0  0  0  0  0
   10.4109    1.1249   21.8500 C   0  0  0  0  0  0  0  0  0  0  0  0
   11.6278    0.7365   22.4271 C   0  0  0  0  0  0  0  0  0  0  0  0
   12.1089   -0.1739   22.0669 H   0  0  0  0  0  0  0  0  0  0  0  0
   12.2178    1.4842   23.4517 C   0  0  0  0  0  0  0  0  0  0  0  0
   13.1492    1.1433   23.8997 H   0  0  0  0  0  0  0  0  0  0  0  0
   11.5902    2.6515   23.8926 C   0  0  0  0  0  0  0  0  0  0  0  0
   12.0261    3.2596   24.6808 H   0  0  0  0  0  0  0  0  0  0  0  0
   10.3804    3.0513   23.3127 C   0  0  0  0  0  0  0  0  0  0  0  0
    9.8914    3.9686   23.6359 H   0  0  0  0  0  0  0  0  0  0  0  0
    9.7646    2.2932   22.3082 C   0  0  0  0  0  0  0  0  0  0  0  0
    8.4615    2.7589   21.7082 C   0  0  0  0  0  0  0  0  0  0  0  0
    8.5989    2.8879   20.6337 H   0  0  0  0  0  0  0  0  0  0  0  0
    7.6581    2.0256   21.8389 H   0  0  0  0  0  0  0  0  0  0  0  0
    8.1351    3.7094   22.1378 H   0  0  0  0  0  0  0  0  0  0  0  0
    8.7905   -1.5324   22.4256 C   0  0  0  0  0  0  0  0  0  0  0  0
    9.6813   -1.7681   23.0005 H   0  0  0  0  0  0  0  0  0  0  0  0
    7.6329   -2.1122   22.7164 N   0  0  0  0  0  0  0  0  0  0  0  0
    6.7666   -1.5819   21.8379 N   0  0  0  0  0  0  0  0  0  0  0  0
    5.7913   -1.8530   21.8729 H   0  0  0  0  0  0  0  0  0  0  0  0
    5.3941    0.6618   20.1249 C   0  0  0  0  0  0  0  0  0  0  0  0
    4.9672    0.6715   21.1268 H   0  0  0  0  0  0  0  0  0  0  0  0
    4.7744    1.3300   19.0693 C   0  0  0  0  0  0  0  0  0  0  0  0
    3.8461    1.8750   19.2085 H   0  0  0  0  0  0  0  0  0  0  0  0
  1  2  1  0
  2  3  2  0
  3  4  1  0
  4  5  1  0
  4  6  2  0
  6  7  1  0
  7  8  2  0
  8  9  1  0
  9 10  1  0
  9 11  1  0
  9 12  1  0
 12 13  2  0
 13 14  1  0
 13 15  1  0
 15 16  1  0
 15 17  2  0
 17 18  1  0
 17 19  1  0
 19 20  1  0
 19 21  2  0
 21 22  1  0
 22 23  1  0
 22 24  1  0
 22 25  1  0
  8 26  1  0
 26 27  1  0
 26 28  2  0
 28 29  1  0
 29 30  1  0
  6 31  1  0
 31 32  1  0
 31 33  2  0
 33 34  1  0
 33  2  1  0
 29  7  1  0
 21 12  1  0
M  END
>  <cnnaffinity>  (1) 
-5.5309

>  <filename>  (1) 
Cc1ccccc1Cc1cn[nH]c1-c1cccnc1

$$$$
