
     RDKit          3D

 47 50  0  0  0  0  0  0  0  0999 V2000
   10.0994   -1.7227   23.7378 C   0  0  0  0  0  0  0  0  0  0  0  0
   11.0936   -0.5826   23.7580 C   0  0  0  0  0  0  0  0  0  0  0  0
   11.7023   -0.1709   24.9453 C   0  0  0  0  0  0  0  0  0  0  0  0
   12.8192    0.6659   24.8917 C   0  0  0  0  0  0  0  0  0  0  0  0
   13.1700    1.2328   23.6674 C   0  0  0  0  0  0  0  0  0  0  0  0
   12.5286    0.9467   22.5282 N   0  0  0  0  0  0  0  0  0  0  0  0
   11.5480    0.0322   22.5622 C   0  0  0  0  0  0  0  0  0  0  0  0
   10.8571   -0.2138   21.2381 C   0  0  0  0  0  0  0  0  0  0  0  0
    9.8926    0.9652   20.8933 C   0  0  0  0  0  0  0  0  0  0  0  0
    8.8073    1.1339   21.9257 C   0  0  0  0  0  0  0  0  0  0  0  0
    8.8081    1.9508   22.9616 N   0  0  0  0  0  0  0  0  0  0  0  0
    7.7813    1.4917   23.7190 C   0  0  0  0  0  0  0  0  0  0  0  0
    7.4590    2.0725   25.0120 C   0  0  0  0  0  0  0  0  0  0  0  0
    8.2942    3.0068   25.6525 C   0  0  0  0  0  0  0  0  0  0  0  0
    7.8656    3.5396   26.8601 C   0  0  0  0  0  0  0  0  0  0  0  0
    6.6468    3.0839   27.3888 C   0  0  0  0  0  0  0  0  0  0  0  0
    6.1170    3.7091   28.9239 Cl  0  0  0  0  0  0  0  0  0  0  0  0
    5.8609    2.1970   26.8033 N   0  0  0  0  0  0  0  0  0  0  0  0
    6.2617    1.6967   25.6295 C   0  0  0  0  0  0  0  0  0  0  0  0
    5.5962    0.9716   25.1621 H   0  0  0  0  0  0  0  0  0  0  0  0
    8.4266    4.2934   27.3904 H   0  0  0  0  0  0  0  0  0  0  0  0
    9.2515    3.3072   25.2130 H   0  0  0  0  0  0  0  0  0  0  0  0
    7.1305    0.4644   23.2004 N   0  0  0  0  0  0  0  0  0  0  0  0
    7.8130    0.2289   22.0554 N   0  0  0  0  0  0  0  0  0  0  0  0
    7.3101   -0.7059   21.0537 C   0  0  0  0  0  0  0  0  0  0  0  0
    6.6232   -0.0172   19.8938 C   0  0  0  0  0  0  0  0  0  0  0  0
    5.4303    0.6769   20.1222 C   0  0  0  0  0  0  0  0  0  0  0  0
    4.8187    1.3274   19.0490 C   0  0  0  0  0  0  0  0  0  0  0  0
    5.4330    1.2922   17.7940 C   0  0  0  0  0  0  0  0  0  0  0  0
    6.5716    0.6262   17.5539 N   0  0  0  0  0  0  0  0  0  0  0  0
    7.1381   -0.0109   18.5882 C   0  0  0  0  0  0  0  0  0  0  0  0
    8.0584   -0.5488   18.3565 H   0  0  0  0  0  0  0  0  0  0  0  0
    4.9888    1.8148   16.9464 H   0  0  0  0  0  0  0  0  0  0  0  0
    3.8849    1.8627   19.1757 H   0  0  0  0  0  0  0  0  0  0  0  0
    5.0005    0.7136   21.1266 H   0  0  0  0  0  0  0  0  0  0  0  0
    6.6141   -1.3607   21.5832 H   0  0  0  0  0  0  0  0  0  0  0  0
    8.1433   -1.3214   20.6965 H   0  0  0  0  0  0  0  0  0  0  0  0
   10.4593    1.9011   20.8303 H   0  0  0  0  0  0  0  0  0  0  0  0
    9.4281    0.8059   19.9145 H   0  0  0  0  0  0  0  0  0  0  0  0
   11.6428   -0.3459   20.4969 H   0  0  0  0  0  0  0  0  0  0  0  0
   10.3009   -1.1588   21.2404 H   0  0  0  0  0  0  0  0  0  0  0  0
   13.9709    1.9703   23.6085 H   0  0  0  0  0  0  0  0  0  0  0  0
   13.4278    0.8164   25.7679 H   0  0  0  0  0  0  0  0  0  0  0  0
   11.3154   -0.5127   25.9049 H   0  0  0  0  0  0  0  0  0  0  0  0
   10.5121   -2.5823   23.1925 H   0  0  0  0  0  0  0  0  0  0  0  0
    9.1693   -1.4209   23.2455 H   0  0  0  0  0  0  0  0  0  0  0  0
    9.8733   -2.0643   24.7503 H   0  0  0  0  0  0  0  0  0  0  0  0
  1  2  1  0
  2  3  2  0
  3  4  1  0
  4  5  2  0
  5  6  1  0
  6  7  2  0
  7  8  1  0
  8  9  1  0
  9 10  1  0
 10 11  2  0
 11 12  1  0
 12 13  1  0
 13 14  2  0
 14 15  1  0
 15 16  2  0
 16 17  1  0
 16 18  1  0
 18 19  2  0
 19 20  1  0
 15 21  1  0
 14 22  1  0
 12 23  2  0
 23 24  1  0
 24 25  1  0
 25 26  1  0
 26 27  2  0
 27 28  1  0
 28 29  2  0
 29 30  1  0
 30 31  2  0
 31 32  1  0
 29 33  1  0
 28 34  1  0
 27 35  1  0
 25 36  1  0
 25 37  1  0
  9 38  1  0
  9 39  1  0
  8 40  1  0
  8 41  1  0
  5 42  1  0
  4 43  1  0
  3 44  1  0
  1 45  1  0
  1 46  1  0
  1 47  1  0
  7  2  1  0
 24 10  1  0
 31 26  1  0
 19 13  1  0
M  END
>  <cnnaffinity>  (1) 
-6.01586

>  <filename>  (1) 
Cc1cccnc1CCc1nc(-c2ccc(Cl)nc2)nn1Cc1cccnc1

$$$$
