
     RDKit          3D

 46 49  0  0  0  0  0  0  0  0999 V2000
    8.6845    2.7167   22.1492 C   0  0  0  0  0  0  0  0  0  0  0  0
   10.0365    2.1027   22.4485 C   0  0  0  0  0  0  0  0  0  0  0  0
   10.8191    2.6616   23.4612 C   0  0  0  0  0  0  0  0  0  0  0  0
   12.0535    2.1073   23.7828 C   0  0  0  0  0  0  0  0  0  0  0  0
   12.5293    0.9856   23.1200 C   0  0  0  0  0  0  0  0  0  0  0  0
   11.7590    0.3751   22.1285 C   0  0  0  0  0  0  0  0  0  0  0  0
   12.1997   -0.9636   21.5861 C   0  0  0  0  0  0  0  0  0  0  0  0
   12.2759   -0.9885   20.4992 H   0  0  0  0  0  0  0  0  0  0  0  0
   11.4885   -1.7435   21.8697 H   0  0  0  0  0  0  0  0  0  0  0  0
   13.1769   -1.2664   21.9710 H   0  0  0  0  0  0  0  0  0  0  0  0
   10.5345    0.9778   21.7514 C   0  0  0  0  0  0  0  0  0  0  0  0
    9.6455    0.3013   20.7348 C   0  0  0  0  0  0  0  0  0  0  0  0
    8.6321   -0.5835   21.3702 C   0  0  0  0  0  0  0  0  0  0  0  0
    8.8529   -1.4375   22.3509 N   0  0  0  0  0  0  0  0  0  0  0  0
    7.6369   -1.9987   22.5515 C   0  0  0  0  0  0  0  0  0  0  0  0
    7.4068   -3.0084   23.5966 C   0  0  2  0  0  0  0  0  0  0  0  0
    6.4089   -4.1210   23.3422 C   0  0  0  0  0  0  0  0  0  0  0  0
    6.0797   -3.0464   24.3239 C   0  0  1  0  0  0  0  0  0  0  0  0
    6.0153   -3.3660   25.7937 C   0  0  0  0  0  0  0  0  0  0  0  0
    6.7775   -4.1052   26.0654 H   0  0  0  0  0  0  0  0  0  0  0  0
    5.0359   -3.7889   26.0425 H   0  0  0  0  0  0  0  0  0  0  0  0
    6.1703   -2.4727   26.4075 H   0  0  0  0  0  0  0  0  0  0  0  0
    5.3715   -2.2958   23.9928 H   0  0  0  0  0  0  0  0  0  0  0  0
    6.6370   -5.1082   23.7360 H   0  0  0  0  0  0  0  0  0  0  0  0
    5.9087   -4.1108   22.3754 H   0  0  0  0  0  0  0  0  0  0  0  0
    8.3051   -3.2220   24.1761 H   0  0  0  0  0  0  0  0  0  0  0  0
    6.6907   -1.5679   21.7272 N   0  0  0  0  0  0  0  0  0  0  0  0
    7.3417   -0.6815   20.9448 N   0  0  0  0  0  0  0  0  0  0  0  0
    6.6501   -0.0050   19.9014 C   0  0  0  0  0  0  0  0  0  0  0  0
    5.4359    0.6361   20.1634 C   0  0  0  0  0  0  0  0  0  0  0  0
    4.8090    1.3073   19.1100 C   0  0  0  0  0  0  0  0  0  0  0  0
    5.3977    1.2931   17.8396 C   0  0  0  0  0  0  0  0  0  0  0  0
    6.5531    0.6638   17.5763 N   0  0  0  0  0  0  0  0  0  0  0  0
    7.1611    0.0379   18.5910 C   0  0  0  0  0  0  0  0  0  0  0  0
    8.1101   -0.4426   18.3578 H   0  0  0  0  0  0  0  0  0  0  0  0
    4.9240    1.7942   16.9994 H   0  0  0  0  0  0  0  0  0  0  0  0
    3.8790    1.8417   19.2620 H   0  0  0  0  0  0  0  0  0  0  0  0
    5.0123    0.6047   21.1683 H   0  0  0  0  0  0  0  0  0  0  0  0
   10.2013   -0.3658   20.0739 H   0  0  0  0  0  0  0  0  0  0  0  0
    9.1418    1.0589   20.1323 H   0  0  0  0  0  0  0  0  0  0  0  0
   13.4823    0.5466   23.4059 H   0  0  0  0  0  0  0  0  0  0  0  0
   12.6270    2.5208   24.5836 H   0  0  0  0  0  0  0  0  0  0  0  0
   10.4511    3.5341   24.0009 H   0  0  0  0  0  0  0  0  0  0  0  0
    7.8801    1.9734   22.1661 H   0  0  0  0  0  0  0  0  0  0  0  0
    8.4319    3.4927   22.8784 H   0  0  0  0  0  0  0  0  0  0  0  0
    8.6787    3.1834   21.1594 H   0  0  0  0  0  0  0  0  0  0  0  0
  1  2  1  0
  2  3  2  0
  3  4  1  0
  4  5  2  0
  5  6  1  0
  6  7  1  0
  7  8  1  0
  7  9  1  0
  7 10  1  0
  6 11  2  0
 11 12  1  0
 12 13  1  0
 13 14  2  0
 14 15  1  0
 15 16  1  0
 16 17  1  0
 17 18  1  0
 18 19  1  0
 19 20  1  0
 19 21  1  0
 19 22  1  0
 18 23  1  6
 17 24  1  0
 17 25  1  0
 16 26  1  1
 15 27  2  0
 27 28  1  0
 28 29  1  0
 29 30  2  0
 30 31  1  0
 31 32  2  0
 32 33  1  0
 33 34  2  0
 34 35  1  0
 32 36  1  0
 31 37  1  0
 30 38  1  0
 12 39  1  0
 12 40  1  0
  5 41  1  0
  4 42  1  0
  3 43  1  0
  1 44  1  0
  1 45  1  0
  1 46  1  0
 11  2  1  0
 28 13  1  0
 34 29  1  0
 18 16  1  0
M  END
>  <cnnaffinity>  (1) 
-6.45794

>  <filename>  (1) 
Cc1cccc(C)c1Cc1nc([C@@H]2C[C@H]2C)nn1-c1cccnc1

$$$$
