
     RDKit          3D

 49 52  0  0  0  0  0  0  0  0999 V2000
    2.6625    2.4789   26.5837 C   0  0  0  0  0  0  0  0  0  0  0  0
    4.1116    2.5359   26.2298 C   0  0  0  0  0  0  0  0  0  0  0  0
    4.6077    1.7580   25.2815 N   0  0  0  0  0  0  0  0  0  0  0  0
    5.9349    2.0015   25.2744 N   0  0  0  0  0  0  0  0  0  0  0  0
    6.7950    1.1253   24.4918 C   0  0  0  0  0  0  0  0  0  0  0  0
    6.7098    1.3471   22.9649 C   0  0  0  0  0  0  0  0  0  0  0  0
    7.8091    0.6046   22.2676 C   0  0  0  0  0  0  0  0  0  0  0  0
    9.0694    0.9030   22.4887 N   0  0  0  0  0  0  0  0  0  0  0  0
    9.7648   -0.0795   21.8577 C   0  0  0  0  0  0  0  0  0  0  0  0
   11.2522   -0.1054   21.9918 C   0  0  0  0  0  0  0  0  0  0  0  0
   12.0723   -1.1410   21.4941 C   0  0  0  0  0  0  0  0  0  0  0  0
   13.4417   -1.0883   21.7502 C   0  0  0  0  0  0  0  0  0  0  0  0
   14.2258   -2.0495   21.2458 F   0  0  0  0  0  0  0  0  0  0  0  0
   14.0305   -0.0694   22.4882 C   0  0  0  0  0  0  0  0  0  0  0  0
   13.2031    0.9325   22.9772 C   0  0  0  0  0  0  0  0  0  0  0  0
   13.7347    1.9191   23.7064 F   0  0  0  0  0  0  0  0  0  0  0  0
   11.8440    0.9529   22.7172 C   0  0  0  0  0  0  0  0  0  0  0  0
   11.2478    1.7823   23.0778 H   0  0  0  0  0  0  0  0  0  0  0  0
   15.0949   -0.0088   22.6312 H   0  0  0  0  0  0  0  0  0  0  0  0
   11.6925   -1.9691   20.9099 H   0  0  0  0  0  0  0  0  0  0  0  0
    8.9960   -0.9527   21.2251 N   0  0  0  0  0  0  0  0  0  0  0  0
    7.7393   -0.5057   21.4963 N   0  0  0  0  0  0  0  0  0  0  0  0
    6.5630   -1.0746   20.8396 C   0  0  0  0  0  0  0  0  0  0  0  0
    6.0749   -0.2122   19.6914 C   0  0  0  0  0  0  0  0  0  0  0  0
    4.8904    0.5338   19.7115 C   0  0  0  0  0  0  0  0  0  0  0  0
    4.6225    1.3899   18.6389 C   0  0  0  0  0  0  0  0  0  0  0  0
    5.5367    1.4522   17.5847 C   0  0  0  0  0  0  0  0  0  0  0  0
    6.6650    0.7280   17.5333 N   0  0  0  0  0  0  0  0  0  0  0  0
    6.9205   -0.0641   18.5793 C   0  0  0  0  0  0  0  0  0  0  0  0
    7.8660   -0.6064   18.5556 H   0  0  0  0  0  0  0  0  0  0  0  0
    5.3544    2.1111   16.7394 H   0  0  0  0  0  0  0  0  0  0  0  0
    3.7376    2.0170   18.6180 H   0  0  0  0  0  0  0  0  0  0  0  0
    4.1971    0.4703   20.5539 H   0  0  0  0  0  0  0  0  0  0  0  0
    6.8645   -2.0685   20.4958 H   0  0  0  0  0  0  0  0  0  0  0  0
    5.7807   -1.2151   21.5932 H   0  0  0  0  0  0  0  0  0  0  0  0
    5.7242    1.0472   22.6029 H   0  0  0  0  0  0  0  0  0  0  0  0
    6.8418    2.4114   22.7342 H   0  0  0  0  0  0  0  0  0  0  0  0
    6.5173    0.0958   24.7421 H   0  0  0  0  0  0  0  0  0  0  0  0
    7.8281    1.2804   24.8108 H   0  0  0  0  0  0  0  0  0  0  0  0
    6.2900    2.9393   26.2015 C   0  0  0  0  0  0  0  0  0  0  0  0
    7.6947    3.4126   26.4175 C   0  0  0  0  0  0  0  0  0  0  0  0
    7.7210    4.1403   27.2330 H   0  0  0  0  0  0  0  0  0  0  0  0
    8.1033    3.9005   25.5251 H   0  0  0  0  0  0  0  0  0  0  0  0
    8.3697    2.5907   26.6901 H   0  0  0  0  0  0  0  0  0  0  0  0
    5.1265    3.2994   26.8431 C   0  0  0  0  0  0  0  0  0  0  0  0
    5.0159    3.9938   27.6650 H   0  0  0  0  0  0  0  0  0  0  0  0
    2.5354    1.9490   27.5349 H   0  0  0  0  0  0  0  0  0  0  0  0
    2.1070    1.9392   25.8124 H   0  0  0  0  0  0  0  0  0  0  0  0
    2.2446    3.4837   26.7012 H   0  0  0  0  0  0  0  0  0  0  0  0
  1  2  1  0
  2  3  2  0
  3  4  1  0
  4  5  1  0
  5  6  1  0
  6  7  1  0
  7  8  2  0
  8  9  1  0
  9 10  1  0
 10 11  2  0
 11 12  1  0
 12 13  1  0
 12 14  2  0
 14 15  1  0
 15 16  1  0
 15 17  2  0
 17 18  1  0
 14 19  1  0
 11 20  1  0
  9 21  2  0
 21 22  1  0
 22 23  1  0
 23 24  1  0
 24 25  2  0
 25 26  1  0
 26 27  2  0
 27 28  1  0
 28 29  2  0
 29 30  1  0
 27 31  1  0
 26 32  1  0
 25 33  1  0
 23 34  1  0
 23 35  1  0
  6 36  1  0
  6 37  1  0
  5 38  1  0
  5 39  1  0
  4 40  1  0
 40 41  1  0
 41 42  1  0
 41 43  1  0
 41 44  1  0
 40 45  2  0
 45 46  1  0
  1 47  1  0
  1 48  1  0
  1 49  1  0
 45  2  1  0
 22  7  1  0
 29 24  1  0
 17 10  1  0
M  END
>  <cnnaffinity>  (1) 
-6.51707

>  <filename>  (1) 
Cc1cc(C)n(CCc2nc(-c3cc(F)cc(F)c3)nn2Cc2cccnc2)n1

$$$$
