
     RDKit          3D

 42 45  0  0  0  0  0  0  0  0999 V2000
    4.9650   -0.8719   26.4428 C   0  0  0  0  0  0  0  0  0  0  0  0
    5.9985    0.0024   25.7946 C   0  0  0  0  0  0  0  0  0  0  0  0
    7.2217    0.2788   26.3240 C   0  0  0  0  0  0  0  0  0  0  0  0
    8.1578    1.3263   25.3346 S   0  0  0  0  0  0  0  0  0  0  0  0
    6.9286    1.3345   24.1116 C   0  0  0  0  0  0  0  0  0  0  0  0
    7.2116    1.8708   22.7230 C   0  0  0  0  0  0  0  0  0  0  0  0
    8.3052    1.0642   22.0864 C   0  0  0  0  0  0  0  0  0  0  0  0
    9.5801    1.3048   22.2821 N   0  0  0  0  0  0  0  0  0  0  0  0
   10.1785    0.1542   21.8848 C   0  0  0  0  0  0  0  0  0  0  0  0
   11.6048   -0.0164   22.1061 C   0  0  0  0  0  0  0  0  0  0  0  0
   12.3790   -1.0349   21.5238 C   0  0  0  0  0  0  0  0  0  0  0  0
   13.7442   -0.9580   21.7500 C   0  0  0  0  0  0  0  0  0  0  0  0
   14.5732   -1.8332   21.1723 F   0  0  0  0  0  0  0  0  0  0  0  0
   14.2758    0.0803   22.5224 C   0  0  0  0  0  0  0  0  0  0  0  0
   13.5232    0.9887   23.1502 N   0  0  0  0  0  0  0  0  0  0  0  0
   12.2039    0.9326   22.9514 C   0  0  0  0  0  0  0  0  0  0  0  0
   11.5879    1.6822   23.4390 H   0  0  0  0  0  0  0  0  0  0  0  0
   15.3430    0.1949   22.5842 H   0  0  0  0  0  0  0  0  0  0  0  0
   11.9494   -1.8278   20.9104 H   0  0  0  0  0  0  0  0  0  0  0  0
    9.3571   -0.7561   21.4045 N   0  0  0  0  0  0  0  0  0  0  0  0
    8.1469   -0.1668   21.5559 N   0  0  0  0  0  0  0  0  0  0  0  0
    6.9254   -0.8103   21.0965 C   0  0  0  0  0  0  0  0  0  0  0  0
    6.3217   -0.0711   19.9266 C   0  0  0  0  0  0  0  0  0  0  0  0
    5.1100    0.6179   19.9921 C   0  0  0  0  0  0  0  0  0  0  0  0
    4.6956    1.3623   18.8832 C   0  0  0  0  0  0  0  0  0  0  0  0
    5.5116    1.3834   17.7491 C   0  0  0  0  0  0  0  0  0  0  0  0
    6.6702    0.7118   17.6598 N   0  0  0  0  0  0  0  0  0  0  0  0
    7.0570    0.0147   18.7333 C   0  0  0  0  0  0  0  0  0  0  0  0
    8.0080   -0.5121   18.6518 H   0  0  0  0  0  0  0  0  0  0  0  0
    5.2229    1.9571   16.8700 H   0  0  0  0  0  0  0  0  0  0  0  0
    3.7786    1.9383   18.8975 H   0  0  0  0  0  0  0  0  0  0  0  0
    4.5144    0.5954   20.9061 H   0  0  0  0  0  0  0  0  0  0  0  0
    6.2346   -0.8523   21.9467 H   0  0  0  0  0  0  0  0  0  0  0  0
    7.1914   -1.8386   20.8263 H   0  0  0  0  0  0  0  0  0  0  0  0
    6.3034    1.8579   22.1118 H   0  0  0  0  0  0  0  0  0  0  0  0
    7.5727    2.9008   22.7562 H   0  0  0  0  0  0  0  0  0  0  0  0
    5.8331    0.6435   24.5241 C   0  0  0  0  0  0  0  0  0  0  0  0
    4.9191    0.5959   23.9427 H   0  0  0  0  0  0  0  0  0  0  0  0
    7.6380   -0.0952   27.2494 H   0  0  0  0  0  0  0  0  0  0  0  0
    5.4234   -1.5928   27.1270 H   0  0  0  0  0  0  0  0  0  0  0  0
    4.4018   -1.4344   25.6925 H   0  0  0  0  0  0  0  0  0  0  0  0
    4.2429   -0.2811   27.0170 H   0  0  0  0  0  0  0  0  0  0  0  0
  1  2  1  0
  2  3  2  0
  3  4  1  0
  4  5  1  0
  5  6  1  0
  6  7  1  0
  7  8  2  0
  8  9  1  0
  9 10  1  0
 10 11  2  0
 11 12  1  0
 12 13  1  0
 12 14  2  0
 14 15  1  0
 15 16  2  0
 16 17  1  0
 14 18  1  0
 11 19  1  0
  9 20  2  0
 20 21  1  0
 21 22  1  0
 22 23  1  0
 23 24  2  0
 24 25  1  0
 25 26  2  0
 26 27  1  0
 27 28  2  0
 28 29  1  0
 26 30  1  0
 25 31  1  0
 24 32  1  0
 22 33  1  0
 22 34  1  0
  6 35  1  0
  6 36  1  0
  5 37  2  0
 37 38  1  0
  3 39  1  0
  1 40  1  0
  1 41  1  0
  1 42  1  0
 37  2  1  0
 21  7  1  0
 28 23  1  0
 16 10  1  0
M  END
>  <cnnaffinity>  (1) 
-6.61833

>  <filename>  (1) 
Cc1csc(Cc2nc(-c3cncc(F)c3)nn2Cc2cccnc2)c1

$$$$
