
     RDKit          3D

 42 45  0  0  0  0  0  0  0  0999 V2000
    8.1004    2.6536   22.1024 C   0  0  0  0  0  0  0  0  0  0  0  0
    9.4917    2.2757   22.5592 C   0  0  0  0  0  0  0  0  0  0  0  0
   10.1113    2.9735   23.6002 C   0  0  0  0  0  0  0  0  0  0  0  0
   11.3991    2.6065   24.0128 C   0  0  0  0  0  0  0  0  0  0  0  0
   12.0346    1.5530   23.3581 C   0  0  0  0  0  0  0  0  0  0  0  0
   11.4666    0.8765   22.3518 N   0  0  0  0  0  0  0  0  0  0  0  0
   10.2353    1.2191   21.9723 C   0  0  0  0  0  0  0  0  0  0  0  0
    9.6565    0.3784   20.8741 C   0  0  0  0  0  0  0  0  0  0  0  0
    8.6282   -0.5406   21.4160 C   0  0  0  0  0  0  0  0  0  0  0  0
    8.8315   -1.3780   22.4014 N   0  0  0  0  0  0  0  0  0  0  0  0
    7.6380   -2.0101   22.5257 C   0  0  0  0  0  0  0  0  0  0  0  0
    7.4151   -3.0430   23.5501 C   0  0  2  0  0  0  0  0  0  0  0  0
    6.3622   -4.1140   23.3269 C   0  0  0  0  0  0  0  0  0  0  0  0
    6.1168   -3.0461   24.3421 C   0  0  1  0  0  0  0  0  0  0  0  0
    6.1064   -3.3840   25.8122 C   0  0  0  0  0  0  0  0  0  0  0  0
    6.3173   -2.5036   26.4285 H   0  0  0  0  0  0  0  0  0  0  0  0
    6.8437   -4.1577   26.0593 H   0  0  0  0  0  0  0  0  0  0  0  0
    5.1197   -3.7607   26.1017 H   0  0  0  0  0  0  0  0  0  0  0  0
    5.4222   -2.2545   24.0657 H   0  0  0  0  0  0  0  0  0  0  0  0
    5.8081   -4.0796   22.3898 H   0  0  0  0  0  0  0  0  0  0  0  0
    6.5746   -5.1188   23.6848 H   0  0  0  0  0  0  0  0  0  0  0  0
    8.3475   -3.2753   24.0712 H   0  0  0  0  0  0  0  0  0  0  0  0
    6.7083   -1.6061   21.6697 N   0  0  0  0  0  0  0  0  0  0  0  0
    7.3533   -0.6696   20.9413 N   0  0  0  0  0  0  0  0  0  0  0  0
    6.6634    0.0018   19.8958 C   0  0  0  0  0  0  0  0  0  0  0  0
    5.4447    0.6353   20.1591 C   0  0  0  0  0  0  0  0  0  0  0  0
    4.8074    1.3049   19.1086 C   0  0  0  0  0  0  0  0  0  0  0  0
    5.3970    1.2908   17.8384 C   0  0  0  0  0  0  0  0  0  0  0  0
    6.5462    0.6541   17.5696 N   0  0  0  0  0  0  0  0  0  0  0  0
    7.1612    0.0311   18.5811 C   0  0  0  0  0  0  0  0  0  0  0  0
    8.1055   -0.4591   18.3461 H   0  0  0  0  0  0  0  0  0  0  0  0
    4.9301    1.8067   17.0016 H   0  0  0  0  0  0  0  0  0  0  0  0
    3.8769    1.8424   19.2632 H   0  0  0  0  0  0  0  0  0  0  0  0
    5.0198    0.6012   21.1625 H   0  0  0  0  0  0  0  0  0  0  0  0
   10.4488   -0.2554   20.4742 H   0  0  0  0  0  0  0  0  0  0  0  0
    9.2189    1.0022   20.0967 H   0  0  0  0  0  0  0  0  0  0  0  0
   13.0294    1.2192   23.6473 H   0  0  0  0  0  0  0  0  0  0  0  0
   11.9108    3.1185   24.8146 H   0  0  0  0  0  0  0  0  0  0  0  0
    9.5745    3.7963   24.0742 H   0  0  0  0  0  0  0  0  0  0  0  0
    7.3807    1.8475   22.2895 H   0  0  0  0  0  0  0  0  0  0  0  0
    8.0772    2.8573   21.0288 H   0  0  0  0  0  0  0  0  0  0  0  0
    7.7535    3.5475   22.6264 H   0  0  0  0  0  0  0  0  0  0  0  0
  1  2  1  0
  2  3  2  0
  3  4  1  0
  4  5  2  0
  5  6  1  0
  6  7  2  0
  7  8  1  0
  8  9  1  0
  9 10  2  0
 10 11  1  0
 11 12  1  0
 12 13  1  0
 13 14  1  0
 14 15  1  0
 15 16  1  0
 15 17  1  0
 15 18  1  0
 14 19  1  6
 13 20  1  0
 13 21  1  0
 12 22  1  1
 11 23  2  0
 23 24  1  0
 24 25  1  0
 25 26  2  0
 26 27  1  0
 27 28  2  0
 28 29  1  0
 29 30  2  0
 30 31  1  0
 28 32  1  0
 27 33  1  0
 26 34  1  0
  8 35  1  0
  8 36  1  0
  5 37  1  0
  4 38  1  0
  3 39  1  0
  1 40  1  0
  1 41  1  0
  1 42  1  0
  7  2  1  0
 24  9  1  0
 30 25  1  0
 14 12  1  0
M  END
>  <cnnaffinity>  (1) 
-6.37507

>  <filename>  (1) 
Cc1cccnc1Cc1nc([C@@H]2C[C@H]2C)nn1-c1cccnc1

$$$$
