
     RDKit          3D

 48 51  0  0  0  0  0  0  0  0999 V2000
    4.7260   -0.7071   25.9665 C   0  0  0  0  0  0  0  0  0  0  0  0
    6.0331    0.0068   25.7333 C   0  0  0  0  0  0  0  0  0  0  0  0
    7.0678   -0.0250   26.6787 C   0  0  0  0  0  0  0  0  0  0  0  0
    8.2809    0.6303   26.4381 C   0  0  0  0  0  0  0  0  0  0  0  0
    8.4698    1.3218   25.2422 C   0  0  0  0  0  0  0  0  0  0  0  0
    7.4460    1.3743   24.2816 C   0  0  0  0  0  0  0  0  0  0  0  0
    7.7294    1.9522   22.8985 C   0  0  0  0  0  0  0  0  0  0  0  0
    8.6478    1.0015   22.2022 C   0  0  0  0  0  0  0  0  0  0  0  0
    9.9638    1.0676   22.3127 N   0  0  0  0  0  0  0  0  0  0  0  0
   10.3618   -0.1746   21.9634 C   0  0  0  0  0  0  0  0  0  0  0  0
   11.7491   -0.6140   21.8708 C   0  0  0  0  0  0  0  0  0  0  0  0
   12.8584    0.1426   22.2904 C   0  0  0  0  0  0  0  0  0  0  0  0
   14.1263   -0.1717   21.7931 C   0  0  0  0  0  0  0  0  0  0  0  0
   14.2390   -1.1888   20.8158 C   0  0  0  0  0  0  0  0  0  0  0  0
   15.2238   -1.2414   19.8671 N   0  0  0  0  0  0  0  0  0  0  0  0
   15.2636   -2.0986   19.3455 H   0  0  0  0  0  0  0  0  0  0  0  0
   16.1094   -0.7906   20.0109 H   0  0  0  0  0  0  0  0  0  0  0  0
   13.1775   -2.0682   20.5886 C   0  0  0  0  0  0  0  0  0  0  0  0
   11.9516   -1.8047   21.1556 C   0  0  0  0  0  0  0  0  0  0  0  0
   11.0808   -2.4226   20.9697 H   0  0  0  0  0  0  0  0  0  0  0  0
   13.3486   -2.8771   19.8807 H   0  0  0  0  0  0  0  0  0  0  0  0
   14.9704    0.4771   22.0057 H   0  0  0  0  0  0  0  0  0  0  0  0
   12.7092    1.0100   22.9330 H   0  0  0  0  0  0  0  0  0  0  0  0
    9.3726   -0.9770   21.5978 N   0  0  0  0  0  0  0  0  0  0  0  0
    8.2749   -0.2149   21.7399 N   0  0  0  0  0  0  0  0  0  0  0  0
    7.0168   -0.7287   21.1997 C   0  0  0  0  0  0  0  0  0  0  0  0
    6.4960    0.0502   20.0128 C   0  0  0  0  0  0  0  0  0  0  0  0
    5.2773    0.7281   20.0657 C   0  0  0  0  0  0  0  0  0  0  0  0
    4.8186    1.3947   18.9287 C   0  0  0  0  0  0  0  0  0  0  0  0
    5.6003    1.3525   17.7711 C   0  0  0  0  0  0  0  0  0  0  0  0
    6.7837    0.7219   17.7003 N   0  0  0  0  0  0  0  0  0  0  0  0
    7.2192    0.1042   18.8062 C   0  0  0  0  0  0  0  0  0  0  0  0
    8.1937   -0.3785   18.7246 H   0  0  0  0  0  0  0  0  0  0  0  0
    5.2601    1.8464   16.8620 H   0  0  0  0  0  0  0  0  0  0  0  0
    3.8879    1.9509   18.9353 H   0  0  0  0  0  0  0  0  0  0  0  0
    4.7032    0.7375   20.9939 H   0  0  0  0  0  0  0  0  0  0  0  0
    7.2388   -1.7622   20.9125 H   0  0  0  0  0  0  0  0  0  0  0  0
    6.2757   -0.7705   22.0047 H   0  0  0  0  0  0  0  0  0  0  0  0
    6.8137    2.1053   22.3198 H   0  0  0  0  0  0  0  0  0  0  0  0
    8.2512    2.9090   22.9744 H   0  0  0  0  0  0  0  0  0  0  0  0
    6.2450    0.7174   24.5413 C   0  0  0  0  0  0  0  0  0  0  0  0
    5.4598    0.7306   23.7872 H   0  0  0  0  0  0  0  0  0  0  0  0
    9.4388    1.7605   25.0092 H   0  0  0  0  0  0  0  0  0  0  0  0
    9.0826    0.5783   27.1714 H   0  0  0  0  0  0  0  0  0  0  0  0
    6.9187   -0.5577   27.6154 H   0  0  0  0  0  0  0  0  0  0  0  0
    4.4777   -0.7607   27.0305 H   0  0  0  0  0  0  0  0  0  0  0  0
    3.9026   -0.1965   25.4575 H   0  0  0  0  0  0  0  0  0  0  0  0
    4.7597   -1.7329   25.5814 H   0  0  0  0  0  0  0  0  0  0  0  0
  1  2  1  0
  2  3  2  0
  3  4  1  0
  4  5  2  0
  5  6  1  0
  6  7  1  0
  7  8  1  0
  8  9  2  0
  9 10  1  0
 10 11  1  0
 11 12  2  0
 12 13  1  0
 13 14  2  0
 14 15  1  0
 15 16  1  0
 15 17  1  0
 14 18  1  0
 18 19  2  0
 19 20  1  0
 18 21  1  0
 13 22  1  0
 12 23  1  0
 10 24  2  0
 24 25  1  0
 25 26  1  0
 26 27  1  0
 27 28  2  0
 28 29  1  0
 29 30  2  0
 30 31  1  0
 31 32  2  0
 32 33  1  0
 30 34  1  0
 29 35  1  0
 28 36  1  0
 26 37  1  0
 26 38  1  0
  7 39  1  0
  7 40  1  0
  6 41  2  0
 41 42  1  0
  5 43  1  0
  4 44  1  0
  3 45  1  0
  1 46  1  0
  1 47  1  0
  1 48  1  0
 41  2  1  0
 25  8  1  0
 32 27  1  0
 19 11  1  0
M  END
>  <cnnaffinity>  (1) 
-6.61299

>  <filename>  (1) 
Cc1cccc(Cc2nc(-c3ccc(N)cc3)nn2Cc2cccnc2)c1

$$$$
