
     RDKit          3D

 43 45  0  0  0  0  0  0  0  0999 V2000
    8.6442    2.7197   21.9283 C   0  0  0  0  0  0  0  0  0  0  0  0
    9.9226    2.0733   22.4094 C   0  0  0  0  0  0  0  0  0  0  0  0
   10.6269    2.6708   23.4617 C   0  0  0  0  0  0  0  0  0  0  0  0
   11.8105    2.1094   23.9461 C   0  0  0  0  0  0  0  0  0  0  0  0
   12.3474    0.9819   23.3320 C   0  0  0  0  0  0  0  0  0  0  0  0
   11.6450    0.3784   22.2826 C   0  0  0  0  0  0  0  0  0  0  0  0
   12.3615   -1.0616   21.5910 Cl  0  0  0  0  0  0  0  0  0  0  0  0
   10.4099    0.8762   21.8278 C   0  0  0  0  0  0  0  0  0  0  0  0
    9.5399    0.1321   20.8247 C   0  0  0  0  0  0  0  0  0  0  0  0
    8.3936   -0.6100   21.4641 C   0  0  0  0  0  0  0  0  0  0  0  0
    8.4647   -1.3018   22.5896 N   0  0  0  0  0  0  0  0  0  0  0  0
    7.2484   -1.9036   22.6723 C   0  0  0  0  0  0  0  0  0  0  0  0
    6.9116   -2.9236   23.7205 C   0  0  0  0  0  0  0  0  0  0  0  0
    7.0628   -4.3686   23.1992 C   0  0  0  0  0  0  0  0  0  0  0  0
    8.4829   -4.7461   22.7913 C   0  0  0  0  0  0  0  0  0  0  0  0
    9.4020   -4.7230   23.8673 O   0  0  0  0  0  0  0  0  0  0  0  0
    9.3136   -5.5430   24.3644 H   0  0  0  0  0  0  0  0  0  0  0  0
    8.4666   -5.7385   22.3204 H   0  0  0  0  0  0  0  0  0  0  0  0
    8.8556   -4.0275   22.0512 H   0  0  0  0  0  0  0  0  0  0  0  0
    6.4128   -4.5074   22.3263 H   0  0  0  0  0  0  0  0  0  0  0  0
    6.7124   -5.0757   23.9613 H   0  0  0  0  0  0  0  0  0  0  0  0
    7.5938   -2.7589   24.5601 H   0  0  0  0  0  0  0  0  0  0  0  0
    5.8813   -2.7691   24.0631 H   0  0  0  0  0  0  0  0  0  0  0  0
    6.4258   -1.6200   21.6843 N   0  0  0  0  0  0  0  0  0  0  0  0
    7.1580   -0.7902   20.8940 N   0  0  0  0  0  0  0  0  0  0  0  0
    6.5153   -0.0972   19.8220 C   0  0  0  0  0  0  0  0  0  0  0  0
    5.3290    0.6060   20.0648 C   0  0  0  0  0  0  0  0  0  0  0  0
    4.7692    1.3510   19.0243 C   0  0  0  0  0  0  0  0  0  0  0  0
    5.3984    1.3506   17.7730 C   0  0  0  0  0  0  0  0  0  0  0  0
    6.5174    0.6547   17.5205 N   0  0  0  0  0  0  0  0  0  0  0  0
    7.0542   -0.0546   18.5231 C   0  0  0  0  0  0  0  0  0  0  0  0
    7.9677   -0.6006   18.2909 H   0  0  0  0  0  0  0  0  0  0  0  0
    4.9746    1.9035   16.9375 H   0  0  0  0  0  0  0  0  0  0  0  0
    3.8565    1.9203   19.1692 H   0  0  0  0  0  0  0  0  0  0  0  0
    4.8802    0.5587   21.0583 H   0  0  0  0  0  0  0  0  0  0  0  0
    9.1476    0.8417   20.0903 H   0  0  0  0  0  0  0  0  0  0  0  0
   10.1370   -0.6040   20.2803 H   0  0  0  0  0  0  0  0  0  0  0  0
   13.2989    0.5633   23.6449 H   0  0  0  0  0  0  0  0  0  0  0  0
   12.2968    2.5410   24.8098 H   0  0  0  0  0  0  0  0  0  0  0  0
   10.2447    3.5973   23.8845 H   0  0  0  0  0  0  0  0  0  0  0  0
    8.7312    3.0574   20.8913 H   0  0  0  0  0  0  0  0  0  0  0  0
    8.3842    3.5897   22.5362 H   0  0  0  0  0  0  0  0  0  0  0  0
    7.7969    2.0283   21.9669 H   0  0  0  0  0  0  0  0  0  0  0  0
  1  2  1  0
  2  3  2  0
  3  4  1  0
  4  5  2  0
  5  6  1  0
  6  7  1  0
  6  8  2  0
  8  9  1  0
  9 10  1  0
 10 11  2  0
 11 12  1  0
 12 13  1  0
 13 14  1  0
 14 15  1  0
 15 16  1  0
 16 17  1  0
 15 18  1  0
 15 19  1  0
 14 20  1  0
 14 21  1  0
 13 22  1  0
 13 23  1  0
 12 24  2  0
 24 25  1  0
 25 26  1  0
 26 27  2  0
 27 28  1  0
 28 29  2  0
 29 30  1  0
 30 31  2  0
 31 32  1  0
 29 33  1  0
 28 34  1  0
 27 35  1  0
  9 36  1  0
  9 37  1  0
  5 38  1  0
  4 39  1  0
  3 40  1  0
  1 41  1  0
  1 42  1  0
  1 43  1  0
  8  2  1  0
 25 10  1  0
 31 26  1  0
M  END
>  <cnnaffinity>  (1) 
-6.2133

>  <filename>  (1) 
Cc1cccc(Cl)c1Cc1nc(CCCO)nn1-c1cccnc1

$$$$
