
     RDKit          3D

 49 52  0  0  0  0  0  0  0  0999 V2000
    9.2004   -2.1693   25.2012 C   0  0  0  0  0  0  0  0  0  0  0  0
    8.1810   -3.1884   24.7471 C   0  0  0  0  0  0  0  0  0  0  0  0
    7.9280   -4.2758   25.5966 C   0  0  0  0  0  0  0  0  0  0  0  0
    6.9802   -5.2520   25.2880 C   0  0  0  0  0  0  0  0  0  0  0  0
    6.2417   -5.1439   24.1077 C   0  0  0  0  0  0  0  0  0  0  0  0
    6.4659   -4.0743   23.2434 C   0  0  0  0  0  0  0  0  0  0  0  0
    7.4549   -3.1048   23.5307 C   0  0  0  0  0  0  0  0  0  0  0  0
    7.6999   -2.0268   22.5365 C   0  0  0  0  0  0  0  0  0  0  0  0
    6.7704   -1.6719   21.6637 N   0  0  0  0  0  0  0  0  0  0  0  0
    7.3729   -0.7083   20.9300 N   0  0  0  0  0  0  0  0  0  0  0  0
    6.6680   -0.0470   19.8872 C   0  0  0  0  0  0  0  0  0  0  0  0
    5.4590    0.5963   20.1578 C   0  0  0  0  0  0  0  0  0  0  0  0
    4.8374    1.2887   19.1152 C   0  0  0  0  0  0  0  0  0  0  0  0
    5.4294    1.2913   17.8452 C   0  0  0  0  0  0  0  0  0  0  0  0
    6.5674    0.6358   17.5689 N   0  0  0  0  0  0  0  0  0  0  0  0
    7.1637   -0.0171   18.5728 C   0  0  0  0  0  0  0  0  0  0  0  0
    8.0782   -0.5549   18.3302 H   0  0  0  0  0  0  0  0  0  0  0  0
    4.9691    1.8293   17.0191 H   0  0  0  0  0  0  0  0  0  0  0  0
    3.9091    1.8246   19.2763 H   0  0  0  0  0  0  0  0  0  0  0  0
    5.0348    0.5419   21.1614 H   0  0  0  0  0  0  0  0  0  0  0  0
    8.6313   -0.4976   21.4094 C   0  0  0  0  0  0  0  0  0  0  0  0
    9.4711    0.6444   20.9328 C   0  0  0  0  0  0  0  0  0  0  0  0
    8.9408    2.0223   21.3884 C   0  0  0  0  0  0  0  0  0  0  0  0
    8.9064    2.2203   22.9151 C   0  0  0  0  0  0  0  0  0  0  0  0
   10.2605    2.2688   23.4929 N   0  0  0  0  0  0  0  0  0  0  0  0
   10.8747    1.0959   23.8836 C   0  0  0  0  0  0  0  0  0  0  0  0
   12.2274    1.0009   24.0127 C   0  0  0  0  0  0  0  0  0  0  0  0
   13.0441    2.1146   23.6699 C   0  0  0  0  0  0  0  0  0  0  0  0
   12.4626    3.2972   23.3336 C   0  0  0  0  0  0  0  0  0  0  0  0
   11.0151    3.4516   23.2714 C   0  0  0  0  0  0  0  0  0  0  0  0
   10.4765    4.5209   23.0246 O   0  0  0  0  0  0  0  0  0  0  0  0
   13.0036    4.1999   23.0917 H   0  0  0  0  0  0  0  0  0  0  0  0
   14.1255    2.0030   23.6513 H   0  0  0  0  0  0  0  0  0  0  0  0
   12.6823    0.0720   24.3375 H   0  0  0  0  0  0  0  0  0  0  0  0
   10.2164    0.2386   24.0068 H   0  0  0  0  0  0  0  0  0  0  0  0
    8.3577    1.4057   23.4086 H   0  0  0  0  0  0  0  0  0  0  0  0
    8.4067    3.1598   23.1624 H   0  0  0  0  0  0  0  0  0  0  0  0
    9.5782    2.8020   20.9625 H   0  0  0  0  0  0  0  0  0  0  0  0
    7.9389    2.1769   20.9676 H   0  0  0  0  0  0  0  0  0  0  0  0
   10.4978    0.4982   21.2790 H   0  0  0  0  0  0  0  0  0  0  0  0
    9.5036    0.6146   19.8395 H   0  0  0  0  0  0  0  0  0  0  0  0
    8.8689   -1.3273   22.4065 N   0  0  0  0  0  0  0  0  0  0  0  0
    5.8709   -3.9726   22.3360 H   0  0  0  0  0  0  0  0  0  0  0  0
    5.4886   -5.8893   23.8652 H   0  0  0  0  0  0  0  0  0  0  0  0
    6.8115   -6.0806   25.9728 H   0  0  0  0  0  0  0  0  0  0  0  0
    8.4898   -4.3450   26.5265 H   0  0  0  0  0  0  0  0  0  0  0  0
    9.4765   -2.3446   26.2458 H   0  0  0  0  0  0  0  0  0  0  0  0
   10.1079   -2.2184   24.5934 H   0  0  0  0  0  0  0  0  0  0  0  0
    8.8029   -1.1526   25.1286 H   0  0  0  0  0  0  0  0  0  0  0  0
  1  2  1  0
  2  3  2  0
  3  4  1  0
  4  5  2  0
  5  6  1  0
  6  7  2  0
  7  8  1  0
  8  9  2  0
  9 10  1  0
 10 11  1  0
 11 12  2  0
 12 13  1  0
 13 14  2  0
 14 15  1  0
 15 16  2  0
 16 17  1  0
 14 18  1  0
 13 19  1  0
 12 20  1  0
 10 21  1  0
 21 22  1  0
 22 23  1  0
 23 24  1  0
 24 25  1  0
 25 26  1  0
 26 27  2  0
 27 28  1  0
 28 29  2  0
 29 30  1  0
 30 31  2  0
 29 32  1  0
 28 33  1  0
 27 34  1  0
 26 35  1  0
 24 36  1  0
 24 37  1  0
 23 38  1  0
 23 39  1  0
 22 40  1  0
 22 41  1  0
 21 42  2  0
  6 43  1  0
  5 44  1  0
  4 45  1  0
  3 46  1  0
  1 47  1  0
  1 48  1  0
  1 49  1  0
  7  2  1  0
 42  8  1  0
 16 11  1  0
 30 25  1  0
M  END
>  <cnnaffinity>  (1) 
-6.27227

>  <filename>  (1) 
Cc1ccccc1-c1nc(CCCn2ccccc2=O)n(-c2cccnc2)n1

$$$$
