
     RDKit          3D

 42 45  0  0  0  0  0  0  0  0999 V2000
    8.3216    2.7631   22.0525 C   0  0  0  0  0  0  0  0  0  0  0  0
    9.6734    2.2634   22.4934 C   0  0  0  0  0  0  0  0  0  0  0  0
   10.3649    2.8830   23.5416 C   0  0  0  0  0  0  0  0  0  0  0  0
   11.5562    2.4991   24.0171 N   0  0  0  0  0  0  0  0  0  0  0  0
   12.1163    1.4352   23.4345 C   0  0  0  0  0  0  0  0  0  0  0  0
   11.5339    0.7437   22.3754 C   0  0  0  0  0  0  0  0  0  0  0  0
   10.3084    1.1733   21.8765 C   0  0  0  0  0  0  0  0  0  0  0  0
    9.6219    0.3760   20.8013 C   0  0  0  0  0  0  0  0  0  0  0  0
    8.6206   -0.5681   21.3643 C   0  0  0  0  0  0  0  0  0  0  0  0
    8.8651   -1.4283   22.3249 N   0  0  0  0  0  0  0  0  0  0  0  0
    7.6592   -2.0205   22.5273 C   0  0  0  0  0  0  0  0  0  0  0  0
    7.4306   -3.0404   23.5830 C   0  0  0  0  0  0  0  0  0  0  0  0
    6.1515   -3.6150   23.7348 C   0  0  0  0  0  0  0  0  0  0  0  0
    5.9571   -4.5682   24.7289 C   0  0  0  0  0  0  0  0  0  0  0  0
    4.7387   -5.1124   24.8656 F   0  0  0  0  0  0  0  0  0  0  0  0
    6.9770   -4.9795   25.5847 C   0  0  0  0  0  0  0  0  0  0  0  0
    8.2412   -4.4019   25.4284 C   0  0  0  0  0  0  0  0  0  0  0  0
    8.4767   -3.4409   24.4415 C   0  0  0  0  0  0  0  0  0  0  0  0
    9.4683   -3.0031   24.3401 H   0  0  0  0  0  0  0  0  0  0  0  0
    9.0477   -4.7096   26.0880 H   0  0  0  0  0  0  0  0  0  0  0  0
    6.7722   -5.7285   26.3462 H   0  0  0  0  0  0  0  0  0  0  0  0
    5.3195   -3.3230   23.0959 H   0  0  0  0  0  0  0  0  0  0  0  0
    6.7028   -1.5987   21.7124 N   0  0  0  0  0  0  0  0  0  0  0  0
    7.3347   -0.6937   20.9330 N   0  0  0  0  0  0  0  0  0  0  0  0
    6.6475   -0.0030   19.8977 C   0  0  0  0  0  0  0  0  0  0  0  0
    5.4374    0.6433   20.1669 C   0  0  0  0  0  0  0  0  0  0  0  0
    4.8117    1.3124   19.1105 C   0  0  0  0  0  0  0  0  0  0  0  0
    5.4017    1.2959   17.8397 C   0  0  0  0  0  0  0  0  0  0  0  0
    6.5597    0.6724   17.5780 N   0  0  0  0  0  0  0  0  0  0  0  0
    7.1654    0.0478   18.5917 C   0  0  0  0  0  0  0  0  0  0  0  0
    8.1150   -0.4327   18.3685 H   0  0  0  0  0  0  0  0  0  0  0  0
    4.9164    1.7828   16.9957 H   0  0  0  0  0  0  0  0  0  0  0  0
    3.8785    1.8417   19.2630 H   0  0  0  0  0  0  0  0  0  0  0  0
    5.0131    0.6119   21.1740 H   0  0  0  0  0  0  0  0  0  0  0  0
    9.1608    1.0447   20.0740 H   0  0  0  0  0  0  0  0  0  0  0  0
   10.3351   -0.2742   20.2974 H   0  0  0  0  0  0  0  0  0  0  0  0
   12.0175   -0.1292   21.9519 H   0  0  0  0  0  0  0  0  0  0  0  0
   13.0764    1.1217   23.8244 H   0  0  0  0  0  0  0  0  0  0  0  0
    9.9145    3.7460   24.0208 H   0  0  0  0  0  0  0  0  0  0  0  0
    7.5545    1.9813   22.0991 H   0  0  0  0  0  0  0  0  0  0  0  0
    8.3641    3.0926   21.0144 H   0  0  0  0  0  0  0  0  0  0  0  0
    7.9733    3.6101   22.6496 H   0  0  0  0  0  0  0  0  0  0  0  0
  1  2  1  0
  2  3  2  0
  3  4  1  0
  4  5  2  0
  5  6  1  0
  6  7  2  0
  7  8  1  0
  8  9  1  0
  9 10  2  0
 10 11  1  0
 11 12  1  0
 12 13  2  0
 13 14  1  0
 14 15  1  0
 14 16  2  0
 16 17  1  0
 17 18  2  0
 18 19  1  0
 17 20  1  0
 16 21  1  0
 13 22  1  0
 11 23  2  0
 23 24  1  0
 24 25  1  0
 25 26  2  0
 26 27  1  0
 27 28  2  0
 28 29  1  0
 29 30  2  0
 30 31  1  0
 28 32  1  0
 27 33  1  0
 26 34  1  0
  8 35  1  0
  8 36  1  0
  6 37  1  0
  5 38  1  0
  3 39  1  0
  1 40  1  0
  1 41  1  0
  1 42  1  0
  7  2  1  0
 24  9  1  0
 30 25  1  0
 18 12  1  0
M  END
>  <cnnaffinity>  (1) 
-6.26591

>  <filename>  (1) 
Cc1cnccc1Cc1nc(-c2cccc(F)c2)nn1-c1cccnc1

$$$$
