
     RDKit          3D

 43 46  0  0  0  0  0  0  0  0999 V2000
    9.3422   -4.7939   26.4072 C   0  0  0  0  0  0  0  0  0  0  0  0
    8.2452   -4.3901   25.4476 C   0  0  0  0  0  0  0  0  0  0  0  0
    8.4478   -3.4324   24.4507 C   0  0  0  0  0  0  0  0  0  0  0  0
    7.4167   -3.0473   23.5699 C   0  0  0  0  0  0  0  0  0  0  0  0
    7.6566   -2.0285   22.5273 C   0  0  0  0  0  0  0  0  0  0  0  0
    6.7145   -1.6078   21.6974 N   0  0  0  0  0  0  0  0  0  0  0  0
    7.3494   -0.6880   20.9348 N   0  0  0  0  0  0  0  0  0  0  0  0
    6.6530   -0.0011   19.9011 C   0  0  0  0  0  0  0  0  0  0  0  0
    5.4383    0.6413   20.1669 C   0  0  0  0  0  0  0  0  0  0  0  0
    4.8133    1.3107   19.1091 C   0  0  0  0  0  0  0  0  0  0  0  0
    5.3992    1.2963   17.8370 C   0  0  0  0  0  0  0  0  0  0  0  0
    6.5553    0.6690   17.5736 N   0  0  0  0  0  0  0  0  0  0  0  0
    7.1637    0.0465   18.5908 C   0  0  0  0  0  0  0  0  0  0  0  0
    8.1109   -0.4359   18.3640 H   0  0  0  0  0  0  0  0  0  0  0  0
    4.9218    1.7885   16.9929 H   0  0  0  0  0  0  0  0  0  0  0  0
    3.8812    1.8390   19.2596 H   0  0  0  0  0  0  0  0  0  0  0  0
    5.0115    0.6062   21.1739 H   0  0  0  0  0  0  0  0  0  0  0  0
    8.6277   -0.5516   21.4014 C   0  0  0  0  0  0  0  0  0  0  0  0
    9.6147    0.4416   20.9079 C   0  0  0  0  0  0  0  0  0  0  0  0
   10.0123    1.3720   21.9454 N   0  0  0  0  0  0  0  0  0  0  0  0
   11.1711    1.1896   22.5977 N   0  0  0  0  0  0  0  0  0  0  0  0
   11.1682    2.0783   23.5771 C   0  0  0  0  0  0  0  0  0  0  0  0
    9.9766    2.8263   23.5571 C   0  0  0  0  0  0  0  0  0  0  0  0
    9.4991    4.0915   24.6213 Cl  0  0  0  0  0  0  0  0  0  0  0  0
    9.2370    2.3429   22.5011 C   0  0  0  0  0  0  0  0  0  0  0  0
    7.8556    2.7053   22.0577 C   0  0  0  0  0  0  0  0  0  0  0  0
    7.5967    3.6903   22.4516 H   0  0  0  0  0  0  0  0  0  0  0  0
    7.7598    2.7179   20.9693 H   0  0  0  0  0  0  0  0  0  0  0  0
    7.1114    1.9899   22.4312 H   0  0  0  0  0  0  0  0  0  0  0  0
   11.9916    2.1632   24.2738 H   0  0  0  0  0  0  0  0  0  0  0  0
   10.5049   -0.0996   20.6072 H   0  0  0  0  0  0  0  0  0  0  0  0
    9.2155    1.0064   20.0696 H   0  0  0  0  0  0  0  0  0  0  0  0
    8.8601   -1.4155   22.3566 N   0  0  0  0  0  0  0  0  0  0  0  0
    6.1454   -3.6388   23.7045 C   0  0  0  0  0  0  0  0  0  0  0  0
    5.9157   -4.5940   24.6899 C   0  0  0  0  0  0  0  0  0  0  0  0
    6.9618   -4.9466   25.5373 C   0  0  0  0  0  0  0  0  0  0  0  0
    6.7248   -5.8658   26.4898 F   0  0  0  0  0  0  0  0  0  0  0  0
    4.9508   -5.0695   24.8275 H   0  0  0  0  0  0  0  0  0  0  0  0
    5.3410   -3.3391   23.0374 H   0  0  0  0  0  0  0  0  0  0  0  0
    9.4327   -2.9724   24.3673 H   0  0  0  0  0  0  0  0  0  0  0  0
    9.3758   -5.8787   26.5499 H   0  0  0  0  0  0  0  0  0  0  0  0
   10.3228   -4.4691   26.0460 H   0  0  0  0  0  0  0  0  0  0  0  0
    9.1863   -4.3494   27.3960 H   0  0  0  0  0  0  0  0  0  0  0  0
  1  2  1  0
  2  3  2  0
  3  4  1  0
  4  5  1  0
  5  6  2  0
  6  7  1  0
  7  8  1  0
  8  9  2  0
  9 10  1  0
 10 11  2  0
 11 12  1  0
 12 13  2  0
 13 14  1  0
 11 15  1  0
 10 16  1  0
  9 17  1  0
  7 18  1  0
 18 19  1  0
 19 20  1  0
 20 21  1  0
 21 22  2  0
 22 23  1  0
 23 24  1  0
 23 25  2  0
 25 26  1  0
 26 27  1  0
 26 28  1  0
 26 29  1  0
 22 30  1  0
 19 31  1  0
 19 32  1  0
 18 33  2  0
  4 34  2  0
 34 35  1  0
 35 36  2  0
 36 37  1  0
 35 38  1  0
 34 39  1  0
  3 40  1  0
  1 41  1  0
  1 42  1  0
  1 43  1  0
 36  2  1  0
 33  5  1  0
 13  8  1  0
 25 20  1  0
M  END
>  <cnnaffinity>  (1) 
-6.3056

>  <filename>  (1) 
Cc1cc(-c2nc(Cn3ncc(Cl)c3C)n(-c3cccnc3)n2)ccc1F

$$$$
