
     RDKit          3D

 44 46  0  0  0  0  0  0  0  0999 V2000
    9.6212    2.2958   21.0905 C   0  0  0  0  0  0  0  0  0  0  0  0
    9.7281    2.2453   22.5868 C   0  0  0  0  0  0  0  0  0  0  0  0
   10.8982    2.6758   23.2253 C   0  0  0  0  0  0  0  0  0  0  0  0
   11.1324    2.5745   24.5383 N   0  0  0  0  0  0  0  0  0  0  0  0
   10.1629    2.0199   25.2764 C   0  0  0  0  0  0  0  0  0  0  0  0
    8.9388    1.6009   24.7599 C   0  0  0  0  0  0  0  0  0  0  0  0
    8.6968    1.7327   23.3939 C   0  0  0  0  0  0  0  0  0  0  0  0
    7.4189    1.1939   22.7825 C   0  0  0  0  0  0  0  0  0  0  0  0
    7.6081   -0.1851   22.2224 C   0  0  0  0  0  0  0  0  0  0  0  0
    8.1512   -1.1937   22.8896 N   0  0  0  0  0  0  0  0  0  0  0  0
    8.1830   -2.1932   21.9742 C   0  0  0  0  0  0  0  0  0  0  0  0
    8.7721   -3.5423   22.1963 C   0  0  0  0  0  0  0  0  0  0  0  0
    7.8392   -4.5711   22.8714 C   0  0  0  0  0  0  0  0  0  0  0  0
    7.3440   -4.1096   24.2462 C   0  0  0  0  0  0  0  0  0  0  0  0
    6.7194   -4.8741   24.7233 H   0  0  0  0  0  0  0  0  0  0  0  0
    6.7479   -3.1920   24.1645 H   0  0  0  0  0  0  0  0  0  0  0  0
    8.1807   -3.8966   24.9221 H   0  0  0  0  0  0  0  0  0  0  0  0
    6.6844   -4.8994   21.9180 C   0  0  0  0  0  0  0  0  0  0  0  0
    7.0663   -5.2344   20.9463 H   0  0  0  0  0  0  0  0  0  0  0  0
    6.0296   -5.6898   22.2975 H   0  0  0  0  0  0  0  0  0  0  0  0
    6.0653   -4.0149   21.7332 H   0  0  0  0  0  0  0  0  0  0  0  0
    8.4389   -5.4829   23.0090 H   0  0  0  0  0  0  0  0  0  0  0  0
    9.7220   -3.4260   22.7276 H   0  0  0  0  0  0  0  0  0  0  0  0
    8.9688   -3.8895   21.1848 H   0  0  0  0  0  0  0  0  0  0  0  0
    7.7000   -1.8761   20.7921 N   0  0  0  0  0  0  0  0  0  0  0  0
    7.3027   -0.5949   20.9565 N   0  0  0  0  0  0  0  0  0  0  0  0
    6.6203    0.0499   19.8987 C   0  0  0  0  0  0  0  0  0  0  0  0
    5.3986    0.6835   20.1280 C   0  0  0  0  0  0  0  0  0  0  0  0
    4.7857    1.3199   19.0478 C   0  0  0  0  0  0  0  0  0  0  0  0
    5.4182    1.2918   17.8002 C   0  0  0  0  0  0  0  0  0  0  0  0
    6.5653    0.6268   17.5643 N   0  0  0  0  0  0  0  0  0  0  0  0
    7.1452    0.0032   18.5961 C   0  0  0  0  0  0  0  0  0  0  0  0
    8.0609   -0.5538   18.3903 H   0  0  0  0  0  0  0  0  0  0  0  0
    4.9927    1.8307   16.9581 H   0  0  0  0  0  0  0  0  0  0  0  0
    3.8549    1.8586   19.1817 H   0  0  0  0  0  0  0  0  0  0  0  0
    4.9481    0.6526   21.1228 H   0  0  0  0  0  0  0  0  0  0  0  0
    6.6279    1.1513   23.5365 H   0  0  0  0  0  0  0  0  0  0  0  0
    7.0621    1.8650   21.9991 H   0  0  0  0  0  0  0  0  0  0  0  0
    8.1990    1.1471   25.4135 H   0  0  0  0  0  0  0  0  0  0  0  0
   10.3767    1.9064   26.3315 H   0  0  0  0  0  0  0  0  0  0  0  0
   11.6957    3.1140   22.6244 H   0  0  0  0  0  0  0  0  0  0  0  0
    8.8406    2.9890   20.7634 H   0  0  0  0  0  0  0  0  0  0  0  0
   10.5590    2.6142   20.6286 H   0  0  0  0  0  0  0  0  0  0  0  0
    9.3727    1.3121   20.6783 H   0  0  0  0  0  0  0  0  0  0  0  0
  1  2  1  0
  2  3  2  0
  3  4  1  0
  4  5  2  0
  5  6  1  0
  6  7  2  0
  7  8  1  0
  8  9  1  0
  9 10  2  0
 10 11  1  0
 11 12  1  0
 12 13  1  0
 13 14  1  0
 14 15  1  0
 14 16  1  0
 14 17  1  0
 13 18  1  0
 18 19  1  0
 18 20  1  0
 18 21  1  0
 13 22  1  0
 12 23  1  0
 12 24  1  0
 11 25  2  0
 25 26  1  0
 26 27  1  0
 27 28  2  0
 28 29  1  0
 29 30  2  0
 30 31  1  0
 31 32  2  0
 32 33  1  0
 30 34  1  0
 29 35  1  0
 28 36  1  0
  8 37  1  0
  8 38  1  0
  6 39  1  0
  5 40  1  0
  3 41  1  0
  1 42  1  0
  1 43  1  0
  1 44  1  0
  7  2  1  0
 26  9  1  0
 32 27  1  0
M  END
>  <cnnaffinity>  (1) 
-5.71009

>  <filename>  (1) 
Cc1cnccc1Cc1nc(CC(C)C)nn1-c1cccnc1

$$$$
