
     RDKit          3D

 52 55  0  0  0  0  0  0  0  0999 V2000
    9.5267    1.3141   26.1482 C   0  0  0  0  0  0  0  0  0  0  0  0
    9.0480    1.7020   24.7930 C   0  0  0  0  0  0  0  0  0  0  0  0
    9.7069    1.8824   23.6008 C   0  0  0  0  0  0  0  0  0  0  0  0
    8.6862    2.0616   22.6427 C   0  0  0  0  0  0  0  0  0  0  0  0
    8.8829    1.9723   21.1554 C   0  0  0  0  0  0  0  0  0  0  0  0
    9.4298    0.5703   20.7418 C   0  0  0  0  0  0  0  0  0  0  0  0
    8.5923   -0.5661   21.2550 C   0  0  0  0  0  0  0  0  0  0  0  0
    8.8686   -1.3581   22.2740 N   0  0  0  0  0  0  0  0  0  0  0  0
    7.6688   -1.9525   22.5388 C   0  0  0  0  0  0  0  0  0  0  0  0
    7.4221   -2.8253   23.7439 C   0  0  0  0  0  0  0  0  0  0  0  0
    7.1761   -1.9657   25.0226 C   0  0  0  0  0  0  0  0  0  0  0  0
    6.9105   -2.8314   26.2679 C   0  0  0  0  0  0  0  0  0  0  0  0
    8.0047   -3.8695   26.4818 C   0  0  0  0  0  0  0  0  0  0  0  0
    7.6517   -4.6879   27.5245 F   0  0  0  0  0  0  0  0  0  0  0  0
    9.1630   -3.2287   26.8677 F   0  0  0  0  0  0  0  0  0  0  0  0
    8.2913   -4.7128   25.2443 C   0  0  0  0  0  0  0  0  0  0  0  0
    8.5591   -3.8488   23.9934 C   0  0  0  0  0  0  0  0  0  0  0  0
    9.5051   -3.3052   24.1202 H   0  0  0  0  0  0  0  0  0  0  0  0
    8.6870   -4.4937   23.1146 H   0  0  0  0  0  0  0  0  0  0  0  0
    7.4177   -5.3601   25.0882 H   0  0  0  0  0  0  0  0  0  0  0  0
    9.1422   -5.3642   25.4737 H   0  0  0  0  0  0  0  0  0  0  0  0
    5.9627   -3.3761   26.1677 H   0  0  0  0  0  0  0  0  0  0  0  0
    6.8431   -2.2246   27.1784 H   0  0  0  0  0  0  0  0  0  0  0  0
    6.3379   -1.2704   24.8579 H   0  0  0  0  0  0  0  0  0  0  0  0
    8.0726   -1.3511   25.2008 H   0  0  0  0  0  0  0  0  0  0  0  0
    6.4949   -3.3652   23.5130 H   0  0  0  0  0  0  0  0  0  0  0  0
    6.6943   -1.6115   21.7160 N   0  0  0  0  0  0  0  0  0  0  0  0
    7.2971   -0.7423   20.8634 N   0  0  0  0  0  0  0  0  0  0  0  0
    6.5802   -0.0919   19.8166 C   0  0  0  0  0  0  0  0  0  0  0  0
    5.3774    0.5783   20.0749 C   0  0  0  0  0  0  0  0  0  0  0  0
    4.7935    1.3114   19.0354 C   0  0  0  0  0  0  0  0  0  0  0  0
    5.4097    1.3228   17.7776 C   0  0  0  0  0  0  0  0  0  0  0  0
    6.5269    0.6299   17.5065 N   0  0  0  0  0  0  0  0  0  0  0  0
    7.0869   -0.0613   18.5053 C   0  0  0  0  0  0  0  0  0  0  0  0
    7.9939   -0.6123   18.2597 H   0  0  0  0  0  0  0  0  0  0  0  0
    4.9884    1.8908   16.9506 H   0  0  0  0  0  0  0  0  0  0  0  0
    3.8794    1.8795   19.1836 H   0  0  0  0  0  0  0  0  0  0  0  0
    4.9349    0.5263   21.0709 H   0  0  0  0  0  0  0  0  0  0  0  0
   10.4357    0.4375   21.1457 H   0  0  0  0  0  0  0  0  0  0  0  0
    9.5099    0.5023   19.6569 H   0  0  0  0  0  0  0  0  0  0  0  0
    9.5821    2.7486   20.8358 H   0  0  0  0  0  0  0  0  0  0  0  0
    7.9305    2.1642   20.6583 H   0  0  0  0  0  0  0  0  0  0  0  0
    7.4887    2.0524   23.2132 N   0  0  0  0  0  0  0  0  0  0  0  0
    7.7263    1.8273   24.5195 N   0  0  0  0  0  0  0  0  0  0  0  0
    6.6310    1.6857   25.4551 C   0  0  0  0  0  0  0  0  0  0  0  0
    6.8096    0.8442   26.1397 H   0  0  0  0  0  0  0  0  0  0  0  0
    6.5132    2.5933   26.0566 H   0  0  0  0  0  0  0  0  0  0  0  0
    5.7343    1.4990   24.8658 H   0  0  0  0  0  0  0  0  0  0  0  0
   10.7699    1.8282   23.4053 H   0  0  0  0  0  0  0  0  0  0  0  0
    9.0195    1.9034   26.9227 H   0  0  0  0  0  0  0  0  0  0  0  0
    9.2947    0.2548   26.3264 H   0  0  0  0  0  0  0  0  0  0  0  0
   10.6064    1.4596   26.2296 H   0  0  0  0  0  0  0  0  0  0  0  0
  1  2  1  0
  2  3  2  0
  3  4  1  0
  4  5  1  0
  5  6  1  0
  6  7  1  0
  7  8  2  0
  8  9  1  0
  9 10  1  0
 10 11  1  0
 11 12  1  0
 12 13  1  0
 13 14  1  0
 13 15  1  0
 13 16  1  0
 16 17  1  0
 17 18  1  0
 17 19  1  0
 16 20  1  0
 16 21  1  0
 12 22  1  0
 12 23  1  0
 11 24  1  0
 11 25  1  0
 10 26  1  0
  9 27  2  0
 27 28  1  0
 28 29  1  0
 29 30  2  0
 30 31  1  0
 31 32  2  0
 32 33  1  0
 33 34  2  0
 34 35  1  0
 32 36  1  0
 31 37  1  0
 30 38  1  0
  6 39  1  0
  6 40  1  0
  5 41  1  0
  5 42  1  0
  4 43  2  0
 43 44  1  0
 44 45  1  0
 45 46  1  0
 45 47  1  0
 45 48  1  0
  3 49  1  0
  1 50  1  0
  1 51  1  0
  1 52  1  0
 44  2  1  0
 28  7  1  0
 34 29  1  0
 17 10  1  0
M  END
>  <cnnaffinity>  (1) 
-6.56754

>  <filename>  (1) 
Cc1cc(CCc2nc(C3CCC(F)(F)CC3)nn2-c2cccnc2)nn1C

$$$$
