
     RDKit          3D

 47 50  0  0  0  0  0  0  0  0999 V2000
   14.1366   -0.0263   22.6452 C   0  0  0  0  0  0  0  0  0  0  0  0
   12.7716    0.6057   22.5597 C   0  0  0  0  0  0  0  0  0  0  0  0
   12.4704    1.7538   23.2997 C   0  0  0  0  0  0  0  0  0  0  0  0
   11.2588    2.4425   23.1476 C   0  0  0  0  0  0  0  0  0  0  0  0
   11.0107    3.7098   23.9357 C   0  0  0  0  0  0  0  0  0  0  0  0
   10.8818    4.5860   23.2896 H   0  0  0  0  0  0  0  0  0  0  0  0
   10.1005    3.6426   24.5397 H   0  0  0  0  0  0  0  0  0  0  0  0
   11.8305    3.9307   24.6267 H   0  0  0  0  0  0  0  0  0  0  0  0
   10.3037    1.9177   22.2563 C   0  0  0  0  0  0  0  0  0  0  0  0
   10.5757    0.7608   21.5163 C   0  0  0  0  0  0  0  0  0  0  0  0
    9.5369    0.1518   20.6002 C   0  0  0  0  0  0  0  0  0  0  0  0
    8.5064   -0.6615   21.3170 C   0  0  0  0  0  0  0  0  0  0  0  0
    8.7267   -1.4589   22.3397 N   0  0  0  0  0  0  0  0  0  0  0  0
    7.5100   -2.0298   22.5595 C   0  0  0  0  0  0  0  0  0  0  0  0
    7.3219   -3.0267   23.6557 C   0  0  0  0  0  0  0  0  0  0  0  0
    8.2387   -4.2736   23.5696 C   0  0  0  0  0  0  0  0  0  0  0  0
    8.3526   -4.7171   25.0349 C   0  0  0  0  0  0  0  0  0  0  0  0
    8.0175   -3.5909   25.8330 O   0  0  0  0  0  0  0  0  0  0  0  0
    7.7435   -2.4639   25.0245 C   0  0  0  0  0  0  0  0  0  0  0  0
    8.6360   -1.8258   24.9174 H   0  0  0  0  0  0  0  0  0  0  0  0
    6.9627   -1.8766   25.5187 H   0  0  0  0  0  0  0  0  0  0  0  0
    9.3648   -5.0605   25.2843 H   0  0  0  0  0  0  0  0  0  0  0  0
    7.6621   -5.5349   25.2792 H   0  0  0  0  0  0  0  0  0  0  0  0
    9.2239   -3.9715   23.1886 H   0  0  0  0  0  0  0  0  0  0  0  0
    7.8501   -5.0632   22.9186 H   0  0  0  0  0  0  0  0  0  0  0  0
    6.2659   -3.3213   23.6775 H   0  0  0  0  0  0  0  0  0  0  0  0
    6.5588   -1.6370   21.7397 N   0  0  0  0  0  0  0  0  0  0  0  0
    7.2075   -0.7688   20.9183 N   0  0  0  0  0  0  0  0  0  0  0  0
    6.5396   -0.0802   19.8685 C   0  0  0  0  0  0  0  0  0  0  0  0
    5.3534    0.6146   20.1187 C   0  0  0  0  0  0  0  0  0  0  0  0
    4.7719    1.3275   19.0669 C   0  0  0  0  0  0  0  0  0  0  0  0
    5.3883    1.3094   17.8103 C   0  0  0  0  0  0  0  0  0  0  0  0
    6.5174    0.6303   17.5575 N   0  0  0  0  0  0  0  0  0  0  0  0
    7.0762   -0.0426   18.5685 C   0  0  0  0  0  0  0  0  0  0  0  0
    8.0058   -0.5618   18.3374 H   0  0  0  0  0  0  0  0  0  0  0  0
    4.9609    1.8597   16.9758 H   0  0  0  0  0  0  0  0  0  0  0  0
    3.8605    1.8987   19.2133 H   0  0  0  0  0  0  0  0  0  0  0  0
    4.9179    0.5866   21.1164 H   0  0  0  0  0  0  0  0  0  0  0  0
   10.0123   -0.5310   19.8842 H   0  0  0  0  0  0  0  0  0  0  0  0
    9.0459    0.9383   20.0235 H   0  0  0  0  0  0  0  0  0  0  0  0
   11.8020    0.1188   21.6736 C   0  0  0  0  0  0  0  0  0  0  0  0
   12.0271   -0.7501   21.0532 H   0  0  0  0  0  0  0  0  0  0  0  0
    9.3443    2.4248   22.1392 H   0  0  0  0  0  0  0  0  0  0  0  0
   13.2094    2.1256   24.0078 H   0  0  0  0  0  0  0  0  0  0  0  0
   14.6269    0.0450   21.6701 H   0  0  0  0  0  0  0  0  0  0  0  0
   14.7584    0.4897   23.3805 H   0  0  0  0  0  0  0  0  0  0  0  0
   14.1231   -1.0904   22.9081 H   0  0  0  0  0  0  0  0  0  0  0  0
  1  2  1  0
  2  3  2  0
  3  4  1  0
  4  5  1  0
  5  6  1  0
  5  7  1  0
  5  8  1  0
  4  9  2  0
  9 10  1  0
 10 11  1  0
 11 12  1  0
 12 13  2  0
 13 14  1  0
 14 15  1  0
 15 16  1  0
 16 17  1  0
 17 18  1  0
 18 19  1  0
 19 20  1  0
 19 21  1  0
 17 22  1  0
 17 23  1  0
 16 24  1  0
 16 25  1  0
 15 26  1  0
 14 27  2  0
 27 28  1  0
 28 29  1  0
 29 30  2  0
 30 31  1  0
 31 32  2  0
 32 33  1  0
 33 34  2  0
 34 35  1  0
 32 36  1  0
 31 37  1  0
 30 38  1  0
 11 39  1  0
 11 40  1  0
 10 41  2  0
 41 42  1  0
  9 43  1  0
  3 44  1  0
  1 45  1  0
  1 46  1  0
  1 47  1  0
 41  2  1  0
 28 12  1  0
 34 29  1  0
 19 15  1  0
M  END
>  <cnnaffinity>  (1) 
-6.39143

>  <filename>  (1) 
Cc1cc(C)cc(Cc2nc(C3CCOC3)nn2-c2cccnc2)c1

$$$$
