
     RDKit          3D

 45 49  0  0  0  0  0  0  0  0999 V2000
   12.7515    1.2931   22.9071 C   0  0  0  0  0  0  0  0  0  0  0  0
   11.4139    1.9798   23.0661 C   0  0  0  0  0  0  0  0  0  0  0  0
   11.2686    3.0583   23.9443 C   0  0  0  0  0  0  0  0  0  0  0  0
   10.0584    3.7508   24.0759 C   0  0  0  0  0  0  0  0  0  0  0  0
    8.9517    3.3435   23.3322 C   0  0  0  0  0  0  0  0  0  0  0  0
    9.0531    2.2448   22.4680 C   0  0  0  0  0  0  0  0  0  0  0  0
   10.2787    1.5859   22.3124 C   0  0  0  0  0  0  0  0  0  0  0  0
   10.4674    0.5444   21.4364 O   0  0  0  0  0  0  0  0  0  0  0  0
    9.4086    0.0902   20.6158 C   0  0  0  0  0  0  0  0  0  0  0  0
    8.3807   -0.7447   21.3268 C   0  0  0  0  0  0  0  0  0  0  0  0
    8.6249   -1.5710   22.3150 N   0  0  0  0  0  0  0  0  0  0  0  0
    7.4277   -2.1786   22.5233 C   0  0  0  0  0  0  0  0  0  0  0  0
    7.2627   -3.2873   23.4888 C   0  0  0  0  0  0  0  0  0  0  0  0
    8.5396   -4.0119   23.9363 C   0  0  0  0  0  0  0  0  0  0  0  0
    7.5965   -4.6549   22.9755 C   0  0  0  0  0  0  0  0  0  0  0  0
    6.9382   -5.9679   22.8313 C   0  0  0  0  0  0  0  0  0  0  0  0
    7.4895   -5.2257   21.6117 C   0  0  0  0  0  0  0  0  0  0  0  0
    6.7717   -4.7040   20.9776 H   0  0  0  0  0  0  0  0  0  0  0  0
    8.3919   -5.5908   21.1298 H   0  0  0  0  0  0  0  0  0  0  0  0
    7.5052   -6.8284   23.1750 H   0  0  0  0  0  0  0  0  0  0  0  0
    5.8656   -6.0104   22.9878 H   0  0  0  0  0  0  0  0  0  0  0  0
    8.6091   -4.4241   24.9404 H   0  0  0  0  0  0  0  0  0  0  0  0
    9.4775   -3.6416   23.5189 H   0  0  0  0  0  0  0  0  0  0  0  0
    6.3925   -3.1979   24.1404 H   0  0  0  0  0  0  0  0  0  0  0  0
    6.4593   -1.7773   21.7204 N   0  0  0  0  0  0  0  0  0  0  0  0
    7.0768   -0.8551   20.9355 N   0  0  0  0  0  0  0  0  0  0  0  0
    6.3922   -0.1997   19.8700 C   0  0  0  0  0  0  0  0  0  0  0  0
    5.2903    0.6313   20.1021 C   0  0  0  0  0  0  0  0  0  0  0  0
    4.7660    1.3454   19.0170 C   0  0  0  0  0  0  0  0  0  0  0  0
    5.3358    1.1815   17.7495 C   0  0  0  0  0  0  0  0  0  0  0  0
    6.3546    0.3416   17.5133 N   0  0  0  0  0  0  0  0  0  0  0  0
    6.8535   -0.3405   18.5494 C   0  0  0  0  0  0  0  0  0  0  0  0
    7.6582   -1.0382   18.3218 H   0  0  0  0  0  0  0  0  0  0  0  0
    4.9579    1.7356   16.8919 H   0  0  0  0  0  0  0  0  0  0  0  0
    3.9468    2.0448   19.1417 H   0  0  0  0  0  0  0  0  0  0  0  0
    4.8820    0.7296   21.1087 H   0  0  0  0  0  0  0  0  0  0  0  0
    8.9284    0.9264   20.0953 H   0  0  0  0  0  0  0  0  0  0  0  0
    9.8963   -0.5532   19.8785 H   0  0  0  0  0  0  0  0  0  0  0  0
    8.1928    1.8934   21.9043 H   0  0  0  0  0  0  0  0  0  0  0  0
    8.0064    3.8758   23.4096 H   0  0  0  0  0  0  0  0  0  0  0  0
    9.9996    4.5927   24.7616 H   0  0  0  0  0  0  0  0  0  0  0  0
   12.1327    3.3788   24.5186 H   0  0  0  0  0  0  0  0  0  0  0  0
   13.4976    1.7215   23.5830 H   0  0  0  0  0  0  0  0  0  0  0  0
   12.6935    0.2158   23.0971 H   0  0  0  0  0  0  0  0  0  0  0  0
   13.1268    1.4053   21.8868 H   0  0  0  0  0  0  0  0  0  0  0  0
  1  2  1  0
  2  3  2  0
  3  4  1  0
  4  5  2  0
  5  6  1  0
  6  7  2  0
  7  8  1  0
  8  9  1  0
  9 10  1  0
 10 11  2  0
 11 12  1  0
 12 13  1  0
 13 14  1  0
 14 15  1  0
 15 16  1  0
 16 17  1  0
 17 18  1  0
 17 19  1  0
 16 20  1  0
 16 21  1  0
 14 22  1  0
 14 23  1  0
 13 24  1  0
 12 25  2  0
 25 26  1  0
 26 27  1  0
 27 28  2  0
 28 29  1  0
 29 30  2  0
 30 31  1  0
 31 32  2  0
 32 33  1  0
 30 34  1  0
 29 35  1  0
 28 36  1  0
  9 37  1  0
  9 38  1  0
  6 39  1  0
  5 40  1  0
  4 41  1  0
  3 42  1  0
  1 43  1  0
  1 44  1  0
  1 45  1  0
  7  2  1  0
 26 10  1  0
 32 27  1  0
 15 13  1  0
 17 15  1  0
M  END
>  <cnnaffinity>  (1) 
-6.42818

>  <filename>  (1) 
Cc1ccccc1OCc1nc(C2CC23CC3)nn1-c1cccnc1

$$$$
