
     RDKit          3D

 48 51  0  0  0  0  0  0  0  0999 V2000
   10.5055    3.4648   23.8377 C   0  0  0  0  0  0  0  0  0  0  0  0
   10.8603    2.2640   22.9903 C   0  0  0  0  0  0  0  0  0  0  0  0
   12.1041    1.6405   23.1426 C   0  0  0  0  0  0  0  0  0  0  0  0
   12.4069    0.5061   22.3840 C   0  0  0  0  0  0  0  0  0  0  0  0
   11.4803    0.0710   21.4423 C   0  0  0  0  0  0  0  0  0  0  0  0
   10.3098    0.6859   21.2317 N   0  0  0  0  0  0  0  0  0  0  0  0
    9.9666    1.7105   22.0350 C   0  0  0  0  0  0  0  0  0  0  0  0
    8.5209    2.1827   21.9048 C   0  0  0  0  0  0  0  0  0  0  0  0
    7.4779    1.3362   22.7149 C   0  0  0  0  0  0  0  0  0  0  0  0
    7.4249   -0.1101   22.3113 C   0  0  0  0  0  0  0  0  0  0  0  0
    7.8805   -1.1264   23.0221 N   0  0  0  0  0  0  0  0  0  0  0  0
    7.9519   -2.1282   22.1091 C   0  0  0  0  0  0  0  0  0  0  0  0
    8.5079   -3.4728   22.4259 C   0  0  0  0  0  0  0  0  0  0  0  0
    7.5165   -4.3764   23.1640 C   0  0  0  0  0  0  0  0  0  0  0  0
    7.8620   -5.8833   23.2299 C   0  0  0  0  0  0  0  0  0  0  0  0
    6.4764   -6.2212   22.6275 C   0  0  0  0  0  0  0  0  0  0  0  0
    6.2078   -4.7131   22.4077 C   0  0  0  0  0  0  0  0  0  0  0  0
    5.2853   -4.3387   22.8622 H   0  0  0  0  0  0  0  0  0  0  0  0
    6.2131   -4.3821   21.3655 H   0  0  0  0  0  0  0  0  0  0  0  0
    5.7948   -6.6572   23.3615 H   0  0  0  0  0  0  0  0  0  0  0  0
    6.4557   -6.8644   21.7422 H   0  0  0  0  0  0  0  0  0  0  0  0
    8.7161   -6.1591   22.6019 H   0  0  0  0  0  0  0  0  0  0  0  0
    8.0560   -6.2804   24.2325 H   0  0  0  0  0  0  0  0  0  0  0  0
    7.3093   -3.9728   24.1619 H   0  0  0  0  0  0  0  0  0  0  0  0
    9.4155   -3.3334   23.0196 H   0  0  0  0  0  0  0  0  0  0  0  0
    8.7903   -3.9156   21.4682 H   0  0  0  0  0  0  0  0  0  0  0  0
    7.5297   -1.8150   20.9042 N   0  0  0  0  0  0  0  0  0  0  0  0
    7.1653   -0.5137   21.0341 N   0  0  0  0  0  0  0  0  0  0  0  0
    6.5675    0.1609   19.9319 C   0  0  0  0  0  0  0  0  0  0  0  0
    5.3880    0.9026   20.0685 C   0  0  0  0  0  0  0  0  0  0  0  0
    4.8319    1.4717   18.9182 C   0  0  0  0  0  0  0  0  0  0  0  0
    5.4871    1.3121   17.6928 C   0  0  0  0  0  0  0  0  0  0  0  0
    6.6322    0.6209   17.5587 N   0  0  0  0  0  0  0  0  0  0  0  0
    7.1504    0.0541   18.6541 C   0  0  0  0  0  0  0  0  0  0  0  0
    8.0779   -0.4990   18.5229 H   0  0  0  0  0  0  0  0  0  0  0  0
    5.0784    1.7509   16.7853 H   0  0  0  0  0  0  0  0  0  0  0  0
    3.9087    2.0386   18.9679 H   0  0  0  0  0  0  0  0  0  0  0  0
    4.9073    1.0111   21.0413 H   0  0  0  0  0  0  0  0  0  0  0  0
    6.4847    1.7817   22.6015 H   0  0  0  0  0  0  0  0  0  0  0  0
    7.6981    1.3464   23.7883 H   0  0  0  0  0  0  0  0  0  0  0  0
    8.2569    2.1336   20.8447 H   0  0  0  0  0  0  0  0  0  0  0  0
    8.4247    3.2311   22.2055 H   0  0  0  0  0  0  0  0  0  0  0  0
   11.6971   -0.7905   20.8080 H   0  0  0  0  0  0  0  0  0  0  0  0
   13.3273   -0.0475   22.5270 H   0  0  0  0  0  0  0  0  0  0  0  0
   12.8243    2.0540   23.8495 H   0  0  0  0  0  0  0  0  0  0  0  0
   11.3811    3.8256   24.3881 H   0  0  0  0  0  0  0  0  0  0  0  0
   10.1260    4.2906   23.2209 H   0  0  0  0  0  0  0  0  0  0  0  0
    9.7324    3.2032   24.5718 H   0  0  0  0  0  0  0  0  0  0  0  0
  1  2  1  0
  2  3  2  0
  3  4  1  0
  4  5  2  0
  5  6  1  0
  6  7  2  0
  7  8  1  0
  8  9  1  0
  9 10  1  0
 10 11  2  0
 11 12  1  0
 12 13  1  0
 13 14  1  0
 14 15  1  0
 15 16  1  0
 16 17  1  0
 17 18  1  0
 17 19  1  0
 16 20  1  0
 16 21  1  0
 15 22  1  0
 15 23  1  0
 14 24  1  0
 13 25  1  0
 13 26  1  0
 12 27  2  0
 27 28  1  0
 28 29  1  0
 29 30  2  0
 30 31  1  0
 31 32  2  0
 32 33  1  0
 33 34  2  0
 34 35  1  0
 32 36  1  0
 31 37  1  0
 30 38  1  0
  9 39  1  0
  9 40  1  0
  8 41  1  0
  8 42  1  0
  5 43  1  0
  4 44  1  0
  3 45  1  0
  1 46  1  0
  1 47  1  0
  1 48  1  0
  7  2  1  0
 28 10  1  0
 34 29  1  0
 17 14  1  0
M  END
>  <cnnaffinity>  (1) 
-6.26804

>  <filename>  (1) 
Cc1cccnc1CCc1nc(CC2CCC2)nn1-c1cccnc1

$$$$
