
     RDKit          3D

 45 48  0  0  0  0  0  0  0  0999 V2000
    8.5319    2.8703   25.2629 C   0  0  0  0  0  0  0  0  0  0  0  0
    7.7280    1.5947   25.3855 C   0  0  0  0  0  0  0  0  0  0  0  0
    7.7954    0.8361   26.5594 C   0  0  0  0  0  0  0  0  0  0  0  0
    7.0522   -0.3435   26.6694 C   0  0  0  0  0  0  0  0  0  0  0  0
    6.2452   -0.7226   25.5964 C   0  0  0  0  0  0  0  0  0  0  0  0
    6.2111   -0.0488   24.4356 N   0  0  0  0  0  0  0  0  0  0  0  0
    6.9356    1.0702   24.3295 C   0  0  0  0  0  0  0  0  0  0  0  0
    6.9589    1.6417   22.9332 C   0  0  0  0  0  0  0  0  0  0  0  0
    8.0522    0.9031   22.2466 C   0  0  0  0  0  0  0  0  0  0  0  0
    9.3084    1.1729   22.4795 N   0  0  0  0  0  0  0  0  0  0  0  0
    9.9801    0.1057   21.9635 C   0  0  0  0  0  0  0  0  0  0  0  0
   11.4442    0.0409   22.1478 C   0  0  0  0  0  0  0  0  0  0  0  0
   12.2672   -0.9747   21.6207 C   0  0  0  0  0  0  0  0  0  0  0  0
   13.6420   -0.8659   21.8201 C   0  0  0  0  0  0  0  0  0  0  0  0
   14.4497   -1.8162   21.3298 F   0  0  0  0  0  0  0  0  0  0  0  0
   14.2170    0.2069   22.4940 C   0  0  0  0  0  0  0  0  0  0  0  0
   13.3930    1.1759   23.0619 C   0  0  0  0  0  0  0  0  0  0  0  0
   12.0195    1.0986   22.8854 C   0  0  0  0  0  0  0  0  0  0  0  0
   11.3683    1.8558   23.3147 H   0  0  0  0  0  0  0  0  0  0  0  0
   13.8161    1.9996   23.6295 H   0  0  0  0  0  0  0  0  0  0  0  0
   15.2883    0.2759   22.5250 H   0  0  0  0  0  0  0  0  0  0  0  0
   11.8768   -1.8178   21.0540 H   0  0  0  0  0  0  0  0  0  0  0  0
    9.1933   -0.7885   21.3902 N   0  0  0  0  0  0  0  0  0  0  0  0
    7.9542   -0.2746   21.5999 N   0  0  0  0  0  0  0  0  0  0  0  0
    6.7535   -0.8836   21.0412 C   0  0  0  0  0  0  0  0  0  0  0  0
    6.2124   -0.0934   19.8693 C   0  0  0  0  0  0  0  0  0  0  0  0
    5.0041    0.6116   19.8884 C   0  0  0  0  0  0  0  0  0  0  0  0
    4.6574    1.3753   18.7686 C   0  0  0  0  0  0  0  0  0  0  0  0
    5.5186    1.3828   17.6677 C   0  0  0  0  0  0  0  0  0  0  0  0
    6.6698    0.6968   17.6227 N   0  0  0  0  0  0  0  0  0  0  0  0
    7.0025   -0.0060   18.7110 C   0  0  0  0  0  0  0  0  0  0  0  0
    7.9484   -0.5455   18.6710 H   0  0  0  0  0  0  0  0  0  0  0  0
    5.2759    1.9583   16.7766 H   0  0  0  0  0  0  0  0  0  0  0  0
    3.7539    1.9729   18.7412 H   0  0  0  0  0  0  0  0  0  0  0  0
    4.3413    0.5750   20.7576 H   0  0  0  0  0  0  0  0  0  0  0  0
    6.0213   -0.9532   21.8538 H   0  0  0  0  0  0  0  0  0  0  0  0
    7.0319   -1.9014   20.7515 H   0  0  0  0  0  0  0  0  0  0  0  0
    7.1991    2.7064   22.9138 H   0  0  0  0  0  0  0  0  0  0  0  0
    6.0010    1.4829   22.4415 H   0  0  0  0  0  0  0  0  0  0  0  0
    5.6038   -1.5987   25.6573 H   0  0  0  0  0  0  0  0  0  0  0  0
    7.0909   -0.9591   27.5599 H   0  0  0  0  0  0  0  0  0  0  0  0
    8.4250    1.1762   27.3841 H   0  0  0  0  0  0  0  0  0  0  0  0
    7.9545    3.6888   24.8186 H   0  0  0  0  0  0  0  0  0  0  0  0
    9.4081    2.7058   24.6262 H   0  0  0  0  0  0  0  0  0  0  0  0
    8.8920    3.2029   26.2413 H   0  0  0  0  0  0  0  0  0  0  0  0
  1  2  1  0
  2  3  2  0
  3  4  1  0
  4  5  2  0
  5  6  1  0
  6  7  2  0
  7  8  1  0
  8  9  1  0
  9 10  2  0
 10 11  1  0
 11 12  1  0
 12 13  2  0
 13 14  1  0
 14 15  1  0
 14 16  2  0
 16 17  1  0
 17 18  2  0
 18 19  1  0
 17 20  1  0
 16 21  1  0
 13 22  1  0
 11 23  2  0
 23 24  1  0
 24 25  1  0
 25 26  1  0
 26 27  2  0
 27 28  1  0
 28 29  2  0
 29 30  1  0
 30 31  2  0
 31 32  1  0
 29 33  1  0
 28 34  1  0
 27 35  1  0
 25 36  1  0
 25 37  1  0
  8 38  1  0
  8 39  1  0
  5 40  1  0
  4 41  1  0
  3 42  1  0
  1 43  1  0
  1 44  1  0
  1 45  1  0
  7  2  1  0
 24  9  1  0
 31 26  1  0
 18 12  1  0
M  END
>  <cnnaffinity>  (1) 
-6.69935

>  <filename>  (1) 
Cc1cccnc1Cc1nc(-c2cccc(F)c2)nn1Cc1cccnc1

$$$$
