
     RDKit          3D

 42 45  0  0  0  0  0  0  0  0999 V2000
    8.8935    1.4892   25.5446 C   0  0  0  0  0  0  0  0  0  0  0  0
    7.4423    1.2113   25.2820 C   0  0  0  0  0  0  0  0  0  0  0  0
    6.6995    1.4981   24.1748 C   0  0  0  0  0  0  0  0  0  0  0  0
    7.0851    2.0331   22.8345 C   0  0  0  0  0  0  0  0  0  0  0  0
    8.0373    1.0676   22.2077 C   0  0  0  0  0  0  0  0  0  0  0  0
    9.3425    1.1361   22.3426 N   0  0  0  0  0  0  0  0  0  0  0  0
    9.7739   -0.0492   21.8463 C   0  0  0  0  0  0  0  0  0  0  0  0
   11.1928   -0.3871   21.8430 C   0  0  0  0  0  0  0  0  0  0  0  0
   12.1688    0.4336   22.4396 C   0  0  0  0  0  0  0  0  0  0  0  0
   13.4759   -0.0282   22.4355 C   0  0  0  0  0  0  0  0  0  0  0  0
   14.4359    0.6735   23.0463 F   0  0  0  0  0  0  0  0  0  0  0  0
   13.7946   -1.2325   21.7992 C   0  0  0  0  0  0  0  0  0  0  0  0
   12.8686   -1.9712   21.1885 N   0  0  0  0  0  0  0  0  0  0  0  0
   11.5921   -1.5791   21.2342 C   0  0  0  0  0  0  0  0  0  0  0  0
   10.8569   -2.2452   20.7936 H   0  0  0  0  0  0  0  0  0  0  0  0
   14.8176   -1.6007   21.8023 H   0  0  0  0  0  0  0  0  0  0  0  0
   11.9246    1.3800   22.9197 H   0  0  0  0  0  0  0  0  0  0  0  0
    8.8070   -0.8358   21.3988 N   0  0  0  0  0  0  0  0  0  0  0  0
    7.6850   -0.1148   21.6665 N   0  0  0  0  0  0  0  0  0  0  0  0
    6.3688   -0.5491   21.1873 C   0  0  0  0  0  0  0  0  0  0  0  0
    5.9338    0.1790   19.9322 C   0  0  0  0  0  0  0  0  0  0  0  0
    4.8076    1.0079   19.8530 C   0  0  0  0  0  0  0  0  0  0  0  0
    4.6029    1.7467   18.6827 C   0  0  0  0  0  0  0  0  0  0  0  0
    5.5059    1.6051   17.6267 C   0  0  0  0  0  0  0  0  0  0  0  0
    6.5527    0.7648   17.6626 N   0  0  0  0  0  0  0  0  0  0  0  0
    6.7466    0.0759   18.7906 C   0  0  0  0  0  0  0  0  0  0  0  0
    7.6035   -0.6010   18.8075 H   0  0  0  0  0  0  0  0  0  0  0  0
    5.3915    2.1904   16.7148 H   0  0  0  0  0  0  0  0  0  0  0  0
    3.7784    2.4441   18.5835 H   0  0  0  0  0  0  0  0  0  0  0  0
    4.1037    1.0813   20.6873 H   0  0  0  0  0  0  0  0  0  0  0  0
    6.4606   -1.6270   21.0221 H   0  0  0  0  0  0  0  0  0  0  0  0
    5.6496   -0.3778   21.9897 H   0  0  0  0  0  0  0  0  0  0  0  0
    6.2060    2.1888   22.2085 H   0  0  0  0  0  0  0  0  0  0  0  0
    7.6148    2.9824   22.9408 H   0  0  0  0  0  0  0  0  0  0  0  0
    5.4414    1.0086   24.3047 O   0  0  0  0  0  0  0  0  0  0  0  0
    5.3585    0.4164   25.5251 C   0  0  0  0  0  0  0  0  0  0  0  0
    6.5510    0.5015   26.1595 C   0  0  0  0  0  0  0  0  0  0  0  0
    6.7998    0.1134   27.1379 H   0  0  0  0  0  0  0  0  0  0  0  0
    4.4038   -0.0255   25.7687 H   0  0  0  0  0  0  0  0  0  0  0  0
    9.0712    1.6824   26.6054 H   0  0  0  0  0  0  0  0  0  0  0  0
    9.5063    0.6287   25.2551 H   0  0  0  0  0  0  0  0  0  0  0  0
    9.2604    2.3403   24.9616 H   0  0  0  0  0  0  0  0  0  0  0  0
  1  2  1  0
  2  3  2  0
  3  4  1  0
  4  5  1  0
  5  6  2  0
  6  7  1  0
  7  8  1  0
  8  9  2  0
  9 10  1  0
 10 11  1  0
 10 12  2  0
 12 13  1  0
 13 14  2  0
 14 15  1  0
 12 16  1  0
  9 17  1  0
  7 18  2  0
 18 19  1  0
 19 20  1  0
 20 21  1  0
 21 22  2  0
 22 23  1  0
 23 24  2  0
 24 25  1  0
 25 26  2  0
 26 27  1  0
 24 28  1  0
 23 29  1  0
 22 30  1  0
 20 31  1  0
 20 32  1  0
  4 33  1  0
  4 34  1  0
  3 35  1  0
 35 36  1  0
 36 37  2  0
 37 38  1  0
 36 39  1  0
  1 40  1  0
  1 41  1  0
  1 42  1  0
 37  2  1  0
 19  5  1  0
 26 21  1  0
 14  8  1  0
M  END
>  <cnnaffinity>  (1) 
-6.54711

>  <filename>  (1) 
Cc1ccoc1Cc1nc(-c2cncc(F)c2)nn1Cc1cccnc1

$$$$
