
     RDKit          3D

 46 49  0  0  0  0  0  0  0  0999 V2000
    7.8696    2.6902   22.0825 C   0  0  0  0  0  0  0  0  0  0  0  0
    9.2585    2.3347   22.5122 C   0  0  0  0  0  0  0  0  0  0  0  0
    9.9944    2.8386   23.5564 C   0  0  0  0  0  0  0  0  0  0  0  0
   11.1891    2.0913   23.5507 C   0  0  0  0  0  0  0  0  0  0  0  0
   11.1940    1.1959   22.5755 N   0  0  0  0  0  0  0  0  0  0  0  0
   10.0242    1.3671   21.9368 N   0  0  0  0  0  0  0  0  0  0  0  0
    9.6180    0.4420   20.8979 C   0  0  0  0  0  0  0  0  0  0  0  0
    8.6305   -0.5485   21.3928 C   0  0  0  0  0  0  0  0  0  0  0  0
    8.8698   -1.4151   22.3519 N   0  0  0  0  0  0  0  0  0  0  0  0
    7.6672   -2.0154   22.5247 C   0  0  0  0  0  0  0  0  0  0  0  0
    7.4046   -2.9962   23.6281 C   0  0  0  0  0  0  0  0  0  0  0  0
    6.6529   -2.3171   24.8191 C   0  0  0  0  0  0  0  0  0  0  0  0
    5.8136   -3.3088   25.6561 C   0  0  0  0  0  0  0  0  0  0  0  0
    6.3842   -4.7166   25.6273 C   0  0  0  0  0  0  0  0  0  0  0  0
    5.6276   -5.5377   26.4202 F   0  0  0  0  0  0  0  0  0  0  0  0
    7.6333   -4.6939   26.2005 F   0  0  0  0  0  0  0  0  0  0  0  0
    6.4881   -5.3076   24.2162 C   0  0  0  0  0  0  0  0  0  0  0  0
    6.6547   -4.2418   23.1124 C   0  0  0  0  0  0  0  0  0  0  0  0
    7.1795   -4.6726   22.2540 H   0  0  0  0  0  0  0  0  0  0  0  0
    5.6732   -3.9190   22.7419 H   0  0  0  0  0  0  0  0  0  0  0  0
    5.5843   -5.8971   24.0338 H   0  0  0  0  0  0  0  0  0  0  0  0
    7.3330   -6.0031   24.2279 H   0  0  0  0  0  0  0  0  0  0  0  0
    5.7278   -2.9870   26.6967 H   0  0  0  0  0  0  0  0  0  0  0  0
    4.7960   -3.3826   25.2593 H   0  0  0  0  0  0  0  0  0  0  0  0
    7.3902   -1.8165   25.4576 H   0  0  0  0  0  0  0  0  0  0  0  0
    5.9857   -1.5306   24.4466 H   0  0  0  0  0  0  0  0  0  0  0  0
    8.3923   -3.2979   23.9854 H   0  0  0  0  0  0  0  0  0  0  0  0
    6.7173   -1.6016   21.7028 N   0  0  0  0  0  0  0  0  0  0  0  0
    7.3532   -0.6839   20.9321 N   0  0  0  0  0  0  0  0  0  0  0  0
    6.6526   -0.0020   19.9005 C   0  0  0  0  0  0  0  0  0  0  0  0
    5.4382    0.6410   20.1678 C   0  0  0  0  0  0  0  0  0  0  0  0
    4.8127    1.3106   19.1098 C   0  0  0  0  0  0  0  0  0  0  0  0
    5.3991    1.2964   17.8375 C   0  0  0  0  0  0  0  0  0  0  0  0
    6.5558    0.6696   17.5740 N   0  0  0  0  0  0  0  0  0  0  0  0
    7.1645    0.0473   18.5903 C   0  0  0  0  0  0  0  0  0  0  0  0
    8.1119   -0.4345   18.3637 H   0  0  0  0  0  0  0  0  0  0  0  0
    4.9211    1.7879   16.9931 H   0  0  0  0  0  0  0  0  0  0  0  0
    3.8807    1.8396   19.2595 H   0  0  0  0  0  0  0  0  0  0  0  0
    5.0121    0.6082   21.1755 H   0  0  0  0  0  0  0  0  0  0  0  0
   10.4992   -0.1108   20.5888 H   0  0  0  0  0  0  0  0  0  0  0  0
    9.2116    1.0092   20.0641 H   0  0  0  0  0  0  0  0  0  0  0  0
   12.0337    2.1701   24.2215 H   0  0  0  0  0  0  0  0  0  0  0  0
    9.6899    3.6439   24.2111 H   0  0  0  0  0  0  0  0  0  0  0  0
    7.1362    1.9471   22.4182 H   0  0  0  0  0  0  0  0  0  0  0  0
    7.5966    3.6486   22.5272 H   0  0  0  0  0  0  0  0  0  0  0  0
    7.7721    2.7659   20.9982 H   0  0  0  0  0  0  0  0  0  0  0  0
  1  2  1  0
  2  3  2  0
  3  4  1  0
  4  5  2  0
  5  6  1  0
  6  7  1  0
  7  8  1  0
  8  9  2  0
  9 10  1  0
 10 11  1  0
 11 12  1  0
 12 13  1  0
 13 14  1  0
 14 15  1  0
 14 16  1  0
 14 17  1  0
 17 18  1  0
 18 19  1  0
 18 20  1  0
 17 21  1  0
 17 22  1  0
 13 23  1  0
 13 24  1  0
 12 25  1  0
 12 26  1  0
 11 27  1  0
 10 28  2  0
 28 29  1  0
 29 30  1  0
 30 31  2  0
 31 32  1  0
 32 33  2  0
 33 34  1  0
 34 35  2  0
 35 36  1  0
 33 37  1  0
 32 38  1  0
 31 39  1  0
  7 40  1  0
  7 41  1  0
  4 42  1  0
  3 43  1  0
  1 44  1  0
  1 45  1  0
  1 46  1  0
  6  2  1  0
 29  8  1  0
 35 30  1  0
 18 11  1  0
M  END
>  <cnnaffinity>  (1) 
-6.16476

>  <filename>  (1) 
Cc1ccnn1Cc1nc(C2CCC(F)(F)CC2)nn1-c1cccnc1

$$$$
