
     RDKit          3D

 45 48  0  0  0  0  0  0  0  0999 V2000
   14.4669    0.9934   22.8155 C   0  0  0  0  0  0  0  0  0  0  0  0
   13.4383    0.0254   22.3110 C   0  0  0  0  0  0  0  0  0  0  0  0
   13.8321   -1.1163   21.6046 C   0  0  0  0  0  0  0  0  0  0  0  0
   12.8877   -1.9069   20.9553 C   0  0  0  0  0  0  0  0  0  0  0  0
   11.5298   -1.6577   21.1258 C   0  0  0  0  0  0  0  0  0  0  0  0
   11.1129   -0.5364   21.8529 C   0  0  0  0  0  0  0  0  0  0  0  0
    9.6800   -0.1912   21.8919 C   0  0  0  0  0  0  0  0  0  0  0  0
    8.7138   -0.9632   21.4186 N   0  0  0  0  0  0  0  0  0  0  0  0
    7.5936   -0.2544   21.6866 N   0  0  0  0  0  0  0  0  0  0  0  0
    6.3012   -0.6710   21.1633 C   0  0  0  0  0  0  0  0  0  0  0  0
    5.9136    0.0700   19.9030 C   0  0  0  0  0  0  0  0  0  0  0  0
    4.7631    0.8594   19.8303 C   0  0  0  0  0  0  0  0  0  0  0  0
    4.5151    1.5732   18.6550 C   0  0  0  0  0  0  0  0  0  0  0  0
    5.4303    1.4724   17.6034 C   0  0  0  0  0  0  0  0  0  0  0  0
    6.5350    0.7135   17.6498 N   0  0  0  0  0  0  0  0  0  0  0  0
    6.7641    0.0376   18.7823 C   0  0  0  0  0  0  0  0  0  0  0  0
    7.6782   -0.5569   18.8161 H   0  0  0  0  0  0  0  0  0  0  0  0
    5.2700    2.0255   16.6794 H   0  0  0  0  0  0  0  0  0  0  0  0
    3.6466    2.2130   18.5517 H   0  0  0  0  0  0  0  0  0  0  0  0
    4.0815    0.9301   20.6835 H   0  0  0  0  0  0  0  0  0  0  0  0
    5.5821   -0.4814   21.9578 H   0  0  0  0  0  0  0  0  0  0  0  0
    6.3636   -1.7543   21.0266 H   0  0  0  0  0  0  0  0  0  0  0  0
    7.9350    0.9116   22.2725 C   0  0  0  0  0  0  0  0  0  0  0  0
    7.0257    1.8146   23.0364 C   0  0  0  0  0  0  0  0  0  0  0  0
    6.9521    1.1757   24.3945 C   0  0  0  0  0  0  0  0  0  0  0  0
    7.9694    1.3626   25.3449 C   0  0  0  0  0  0  0  0  0  0  0  0
    7.9674    0.6014   26.5167 C   0  0  0  0  0  0  0  0  0  0  0  0
    6.9269   -0.3126   26.6630 C   0  0  0  0  0  0  0  0  0  0  0  0
    6.8697   -1.0917   27.7511 F   0  0  0  0  0  0  0  0  0  0  0  0
    5.9434   -0.4373   25.6772 C   0  0  0  0  0  0  0  0  0  0  0  0
    5.9699    0.2808   24.5429 N   0  0  0  0  0  0  0  0  0  0  0  0
    5.1203   -1.1337   25.8173 H   0  0  0  0  0  0  0  0  0  0  0  0
    8.7366    0.6909   27.2835 H   0  0  0  0  0  0  0  0  0  0  0  0
    8.7778    2.0445   25.1033 H   0  0  0  0  0  0  0  0  0  0  0  0
    7.4874    2.8030   23.0660 H   0  0  0  0  0  0  0  0  0  0  0  0
    6.0329    1.8881   22.5912 H   0  0  0  0  0  0  0  0  0  0  0  0
    9.2390    0.9871   22.4036 N   0  0  0  0  0  0  0  0  0  0  0  0
   12.0744    0.2838   22.4664 C   0  0  0  0  0  0  0  0  0  0  0  0
   11.7429    1.1301   23.0695 H   0  0  0  0  0  0  0  0  0  0  0  0
   10.7590   -2.2990   20.7013 H   0  0  0  0  0  0  0  0  0  0  0  0
   13.2263   -2.6812   20.2796 H   0  0  0  0  0  0  0  0  0  0  0  0
   14.8795   -1.3817   21.5530 H   0  0  0  0  0  0  0  0  0  0  0  0
   15.3877    0.9154   22.2305 H   0  0  0  0  0  0  0  0  0  0  0  0
   14.1057    2.0227   22.7286 H   0  0  0  0  0  0  0  0  0  0  0  0
   14.6786    0.7914   23.8656 H   0  0  0  0  0  0  0  0  0  0  0  0
  1  2  1  0
  2  3  2  0
  3  4  1  0
  4  5  2  0
  5  6  1  0
  6  7  1  0
  7  8  2  0
  8  9  1  0
  9 10  1  0
 10 11  1  0
 11 12  2  0
 12 13  1  0
 13 14  2  0
 14 15  1  0
 15 16  2  0
 16 17  1  0
 14 18  1  0
 13 19  1  0
 12 20  1  0
 10 21  1  0
 10 22  1  0
  9 23  1  0
 23 24  1  0
 24 25  1  0
 25 26  2  0
 26 27  1  0
 27 28  2  0
 28 29  1  0
 28 30  1  0
 30 31  2  0
 30 32  1  0
 27 33  1  0
 26 34  1  0
 24 35  1  0
 24 36  1  0
 23 37  2  0
  6 38  2  0
 38 39  1  0
  5 40  1  0
  4 41  1  0
  3 42  1  0
  1 43  1  0
  1 44  1  0
  1 45  1  0
 38  2  1  0
 37  7  1  0
 16 11  1  0
 31 25  1  0
M  END
>  <cnnaffinity>  (1) 
-6.63097

>  <filename>  (1) 
Cc1cccc(-c2nc(Cc3ccc(F)cn3)n(Cc3cccnc3)n2)c1

$$$$
