
     RDKit          3D

 46 49  0  0  0  0  0  0  0  0999 V2000
    5.0787   -0.6087   26.3324 C   0  0  0  0  0  0  0  0  0  0  0  0
    6.1623    0.0710   25.5453 C   0  0  0  0  0  0  0  0  0  0  0  0
    6.0988    0.6794   24.3061 C   0  0  0  0  0  0  0  0  0  0  0  0
    7.3374    1.1666   24.0249 N   0  0  0  0  0  0  0  0  0  0  0  0
    7.8538    1.7913   22.8121 C   0  0  0  0  0  0  0  0  0  0  0  0
    8.8823    0.9194   22.1660 C   0  0  0  0  0  0  0  0  0  0  0  0
   10.1898    1.0198   22.2983 N   0  0  0  0  0  0  0  0  0  0  0  0
   10.6483   -0.1413   21.7591 C   0  0  0  0  0  0  0  0  0  0  0  0
   12.0911   -0.4979   21.6526 C   0  0  0  0  0  0  0  0  0  0  0  0
   13.1283    0.3186   22.1624 C   0  0  0  0  0  0  0  0  0  0  0  0
   14.4165    0.1262   21.6664 C   0  0  0  0  0  0  0  0  0  0  0  0
   14.7125   -0.7659   20.5679 C   0  0  0  0  0  0  0  0  0  0  0  0
   16.0169   -0.3147   19.6581 C   0  0  0  0  0  0  0  0  0  0  0  0
   16.8232   -1.0464   19.6456 H   0  0  0  0  0  0  0  0  0  0  0  0
   16.4098    0.5605   20.1537 H   0  0  0  0  0  0  0  0  0  0  0  0
   15.9456    0.1259   18.6509 H   0  0  0  0  0  0  0  0  0  0  0  0
   13.7773   -1.7981   20.4435 C   0  0  0  0  0  0  0  0  0  0  0  0
   14.1270   -2.9616   19.8746 F   0  0  0  0  0  0  0  0  0  0  0  0
   12.4699   -1.6401   20.9262 C   0  0  0  0  0  0  0  0  0  0  0  0
   11.6790   -2.3364   20.7020 H   0  0  0  0  0  0  0  0  0  0  0  0
   15.2022    0.7906   22.0263 H   0  0  0  0  0  0  0  0  0  0  0  0
   12.9322    1.1515   22.8368 H   0  0  0  0  0  0  0  0  0  0  0  0
    9.6840   -0.9153   21.2707 N   0  0  0  0  0  0  0  0  0  0  0  0
    8.5558   -0.2214   21.5210 N   0  0  0  0  0  0  0  0  0  0  0  0
    7.2508   -0.7164   21.0817 C   0  0  0  0  0  0  0  0  0  0  0  0
    6.5802    0.0665   19.9606 C   0  0  0  0  0  0  0  0  0  0  0  0
    5.3413    0.7078   20.1047 C   0  0  0  0  0  0  0  0  0  0  0  0
    4.7778    1.3616   19.0036 C   0  0  0  0  0  0  0  0  0  0  0  0
    5.4694    1.3455   17.7902 C   0  0  0  0  0  0  0  0  0  0  0  0
    6.6473    0.7248   17.6235 N   0  0  0  0  0  0  0  0  0  0  0  0
    7.1776    0.1103   18.6878 C   0  0  0  0  0  0  0  0  0  0  0  0
    8.1255   -0.3981   18.5164 H   0  0  0  0  0  0  0  0  0  0  0  0
    5.0563    1.8391   16.9108 H   0  0  0  0  0  0  0  0  0  0  0  0
    3.8279    1.8814   19.0708 H   0  0  0  0  0  0  0  0  0  0  0  0
    4.8051    0.6905   21.0571 H   0  0  0  0  0  0  0  0  0  0  0  0
    6.5888   -0.7527   21.9545 H   0  0  0  0  0  0  0  0  0  0  0  0
    7.4343   -1.7479   20.7667 H   0  0  0  0  0  0  0  0  0  0  0  0
    7.0211    1.9814   22.1291 H   0  0  0  0  0  0  0  0  0  0  0  0
    8.3311    2.7313   23.0914 H   0  0  0  0  0  0  0  0  0  0  0  0
    8.1998    0.9208   25.0133 N   0  0  0  0  0  0  0  0  0  0  0  0
    7.5141    0.2534   25.9251 C   0  0  0  0  0  0  0  0  0  0  0  0
    8.0224   -0.0961   26.8190 H   0  0  0  0  0  0  0  0  0  0  0  0
    5.2770    0.8126   23.6120 H   0  0  0  0  0  0  0  0  0  0  0  0
    5.4789   -1.4563   26.9000 H   0  0  0  0  0  0  0  0  0  0  0  0
    4.2820   -0.9911   25.6865 H   0  0  0  0  0  0  0  0  0  0  0  0
    4.6165    0.0722   27.0593 H   0  0  0  0  0  0  0  0  0  0  0  0
  1  2  1  0
  2  3  2  0
  3  4  1  0
  4  5  1  0
  5  6  1  0
  6  7  2  0
  7  8  1  0
  8  9  1  0
  9 10  2  0
 10 11  1  0
 11 12  2  0
 12 13  1  0
 13 14  1  0
 13 15  1  0
 13 16  1  0
 12 17  1  0
 17 18  1  0
 17 19  2  0
 19 20  1  0
 11 21  1  0
 10 22  1  0
  8 23  2  0
 23 24  1  0
 24 25  1  0
 25 26  1  0
 26 27  2  0
 27 28  1  0
 28 29  2  0
 29 30  1  0
 30 31  2  0
 31 32  1  0
 29 33  1  0
 28 34  1  0
 27 35  1  0
 25 36  1  0
 25 37  1  0
  5 38  1  0
  5 39  1  0
  4 40  1  0
 40 41  2  0
 41 42  1  0
  3 43  1  0
  1 44  1  0
  1 45  1  0
  1 46  1  0
 41  2  1  0
 24  6  1  0
 31 26  1  0
 19  9  1  0
M  END
>  <cnnaffinity>  (1) 
-6.59146

>  <filename>  (1) 
Cc1cnn(Cc2nc(-c3ccc(C)c(F)c3)nn2Cc2cccnc2)c1

$$$$
