
     RDKit          3D

 43 46  0  0  0  0  0  0  0  0999 V2000
    8.3139    2.7419   22.0716 C   0  0  0  0  0  0  0  0  0  0  0  0
    9.6758    2.2609   22.5135 C   0  0  0  0  0  0  0  0  0  0  0  0
   10.3260    2.9082   23.5706 C   0  0  0  0  0  0  0  0  0  0  0  0
   11.5748    2.4732   24.0241 C   0  0  0  0  0  0  0  0  0  0  0  0
   12.1974    1.3777   23.4291 C   0  0  0  0  0  0  0  0  0  0  0  0
   11.5621    0.7297   22.3660 C   0  0  0  0  0  0  0  0  0  0  0  0
   10.3219    1.1704   21.8924 C   0  0  0  0  0  0  0  0  0  0  0  0
    9.6233    0.3742   20.8094 C   0  0  0  0  0  0  0  0  0  0  0  0
    8.6176   -0.5675   21.3644 C   0  0  0  0  0  0  0  0  0  0  0  0
    8.8726   -1.4508   22.3060 N   0  0  0  0  0  0  0  0  0  0  0  0
    7.6654   -2.0394   22.4968 C   0  0  0  0  0  0  0  0  0  0  0  0
    7.4179   -3.0160   23.5823 C   0  0  2  0  0  0  0  0  0  0  0  0
    6.3452   -2.7179   24.5973 C   0  0  0  0  0  0  0  0  0  0  0  0
    7.7895   -2.6855   25.0030 C   0  0  1  0  0  0  0  0  0  0  0  0
    8.3097   -3.7684   25.9163 C   0  0  0  0  0  0  0  0  0  0  0  0
    7.8338   -4.7239   25.6707 H   0  0  0  0  0  0  0  0  0  0  0  0
    9.3926   -3.8998   25.8255 H   0  0  0  0  0  0  0  0  0  0  0  0
    8.0663   -3.5465   26.9617 H   0  0  0  0  0  0  0  0  0  0  0  0
    8.2250   -1.6969   25.1482 H   0  0  0  0  0  0  0  0  0  0  0  0
    5.8082   -1.7793   24.4791 H   0  0  0  0  0  0  0  0  0  0  0  0
    5.7379   -3.5442   24.9586 H   0  0  0  0  0  0  0  0  0  0  0  0
    7.5557   -4.0483   23.2699 H   0  0  0  0  0  0  0  0  0  0  0  0
    6.7043   -1.6235   21.6898 N   0  0  0  0  0  0  0  0  0  0  0  0
    7.3314   -0.6922   20.9309 N   0  0  0  0  0  0  0  0  0  0  0  0
    6.6450   -0.0030   19.8980 C   0  0  0  0  0  0  0  0  0  0  0  0
    5.4354    0.6437   20.1646 C   0  0  0  0  0  0  0  0  0  0  0  0
    4.8113    1.3133   19.1095 C   0  0  0  0  0  0  0  0  0  0  0  0
    5.3991    1.2969   17.8386 C   0  0  0  0  0  0  0  0  0  0  0  0
    6.5561    0.6714   17.5765 N   0  0  0  0  0  0  0  0  0  0  0  0
    7.1630    0.0458   18.5906 C   0  0  0  0  0  0  0  0  0  0  0  0
    8.1137   -0.4332   18.3650 H   0  0  0  0  0  0  0  0  0  0  0  0
    4.9194    1.7858   16.9947 H   0  0  0  0  0  0  0  0  0  0  0  0
    3.8799    1.8413   19.2611 H   0  0  0  0  0  0  0  0  0  0  0  0
    5.0139    0.6094   21.1724 H   0  0  0  0  0  0  0  0  0  0  0  0
    9.1587    1.0406   20.0815 H   0  0  0  0  0  0  0  0  0  0  0  0
   10.3262   -0.2831   20.2988 H   0  0  0  0  0  0  0  0  0  0  0  0
   12.0148   -0.1468   21.9042 H   0  0  0  0  0  0  0  0  0  0  0  0
   13.1644    1.0274   23.7813 H   0  0  0  0  0  0  0  0  0  0  0  0
   12.0429    2.9976   24.8439 H   0  0  0  0  0  0  0  0  0  0  0  0
    9.8392    3.7629   24.0368 H   0  0  0  0  0  0  0  0  0  0  0  0
    7.9670    3.5845   22.6745 H   0  0  0  0  0  0  0  0  0  0  0  0
    8.3472    3.0720   21.0330 H   0  0  0  0  0  0  0  0  0  0  0  0
    7.5551    1.9524   22.1271 H   0  0  0  0  0  0  0  0  0  0  0  0
  1  2  1  0
  2  3  2  0
  3  4  1  0
  4  5  2  0
  5  6  1  0
  6  7  2  0
  7  8  1  0
  8  9  1  0
  9 10  2  0
 10 11  1  0
 11 12  1  0
 12 13  1  0
 13 14  1  0
 14 15  1  0
 15 16  1  0
 15 17  1  0
 15 18  1  0
 14 19  1  6
 13 20  1  0
 13 21  1  0
 12 22  1  6
 11 23  2  0
 23 24  1  0
 24 25  1  0
 25 26  2  0
 26 27  1  0
 27 28  2  0
 28 29  1  0
 29 30  2  0
 30 31  1  0
 28 32  1  0
 27 33  1  0
 26 34  1  0
  8 35  1  0
  8 36  1  0
  6 37  1  0
  5 38  1  0
  4 39  1  0
  3 40  1  0
  1 41  1  0
  1 42  1  0
  1 43  1  0
  7  2  1  0
 24  9  1  0
 30 25  1  0
 14 12  1  0
M  END
>  <cnnaffinity>  (1) 
-6.16107

>  <filename>  (1) 
Cc1ccccc1Cc1nc([C@@H]2C[C@H]2C)nn1-c1cccnc1

$$$$
