
     RDKit          3D

 49 52  0  0  0  0  0  0  0  0999 V2000
   12.3772    2.2144   24.3098 C   0  0  0  0  0  0  0  0  0  0  0  0
   11.1754    2.0865   23.4532 C   0  0  0  0  0  0  0  0  0  0  0  0
   11.1428    1.1928   22.4862 N   0  0  0  0  0  0  0  0  0  0  0  0
    9.9498    1.3465   21.8909 N   0  0  0  0  0  0  0  0  0  0  0  0
    9.6010    0.3858   20.8633 C   0  0  0  0  0  0  0  0  0  0  0  0
    8.5944   -0.5769   21.3677 C   0  0  0  0  0  0  0  0  0  0  0  0
    8.8106   -1.4077   22.3642 N   0  0  0  0  0  0  0  0  0  0  0  0
    7.6160   -2.0260   22.5150 C   0  0  0  0  0  0  0  0  0  0  0  0
    7.3866   -3.0287   23.6040 C   0  0  0  0  0  0  0  0  0  0  0  0
    6.8154   -4.3559   23.0469 C   0  0  0  0  0  0  0  0  0  0  0  0
    6.5259   -5.3618   24.1683 C   0  0  0  0  0  0  0  0  0  0  0  0
    5.6521   -4.7569   25.2540 C   0  0  0  0  0  0  0  0  0  0  0  0
    5.4761   -5.6677   26.2604 F   0  0  0  0  0  0  0  0  0  0  0  0
    4.4002   -4.5217   24.7325 F   0  0  0  0  0  0  0  0  0  0  0  0
    6.1938   -3.4588   25.8278 C   0  0  0  0  0  0  0  0  0  0  0  0
    6.4872   -2.4356   24.7231 C   0  0  0  0  0  0  0  0  0  0  0  0
    6.9591   -1.5421   25.1499 H   0  0  0  0  0  0  0  0  0  0  0  0
    5.5411   -2.1096   24.2814 H   0  0  0  0  0  0  0  0  0  0  0  0
    5.4629   -3.0828   26.5514 H   0  0  0  0  0  0  0  0  0  0  0  0
    7.1077   -3.7041   26.3787 H   0  0  0  0  0  0  0  0  0  0  0  0
    6.0214   -6.2594   23.7966 H   0  0  0  0  0  0  0  0  0  0  0  0
    7.4593   -5.6772   24.6472 H   0  0  0  0  0  0  0  0  0  0  0  0
    5.8915   -4.1349   22.4997 H   0  0  0  0  0  0  0  0  0  0  0  0
    7.5138   -4.7942   22.3234 H   0  0  0  0  0  0  0  0  0  0  0  0
    8.3801   -3.2180   24.0283 H   0  0  0  0  0  0  0  0  0  0  0  0
    6.6773   -1.6336   21.6683 N   0  0  0  0  0  0  0  0  0  0  0  0
    7.3205   -0.7109   20.9081 N   0  0  0  0  0  0  0  0  0  0  0  0
    6.6395   -0.0210   19.8714 C   0  0  0  0  0  0  0  0  0  0  0  0
    5.4293    0.6260   20.1394 C   0  0  0  0  0  0  0  0  0  0  0  0
    4.8034    1.3088   19.0926 C   0  0  0  0  0  0  0  0  0  0  0  0
    5.3987    1.2997   17.8271 C   0  0  0  0  0  0  0  0  0  0  0  0
    6.5433    0.6531   17.5548 N   0  0  0  0  0  0  0  0  0  0  0  0
    7.1522    0.0145   18.5629 C   0  0  0  0  0  0  0  0  0  0  0  0
    8.0863   -0.4966   18.3235 H   0  0  0  0  0  0  0  0  0  0  0  0
    4.9383    1.8332   17.0001 H   0  0  0  0  0  0  0  0  0  0  0  0
    3.8747    1.8463   19.2525 H   0  0  0  0  0  0  0  0  0  0  0  0
    5.0025    0.5726   21.1420 H   0  0  0  0  0  0  0  0  0  0  0  0
   10.5242   -0.1520   20.6510 H   0  0  0  0  0  0  0  0  0  0  0  0
    9.2727    0.8952   19.9600 H   0  0  0  0  0  0  0  0  0  0  0  0
    9.1941    2.3136   22.4891 C   0  0  0  0  0  0  0  0  0  0  0  0
    7.8089    2.6934   22.0582 C   0  0  0  0  0  0  0  0  0  0  0  0
    7.0663    1.9670   22.4061 H   0  0  0  0  0  0  0  0  0  0  0  0
    7.7262    2.7325   20.9706 H   0  0  0  0  0  0  0  0  0  0  0  0
    7.5320    3.6716   22.4596 H   0  0  0  0  0  0  0  0  0  0  0  0
    9.9745    2.8207   23.5090 C   0  0  0  0  0  0  0  0  0  0  0  0
    9.7436    3.6206   24.2006 H   0  0  0  0  0  0  0  0  0  0  0  0
   12.9670    1.2970   24.3033 H   0  0  0  0  0  0  0  0  0  0  0  0
   13.0152    3.0225   23.9412 H   0  0  0  0  0  0  0  0  0  0  0  0
   12.0725    2.4387   25.3287 H   0  0  0  0  0  0  0  0  0  0  0  0
  1  2  1  0
  2  3  2  0
  3  4  1  0
  4  5  1  0
  5  6  1  0
  6  7  2  0
  7  8  1  0
  8  9  1  0
  9 10  1  0
 10 11  1  0
 11 12  1  0
 12 13  1  0
 12 14  1  0
 12 15  1  0
 15 16  1  0
 16 17  1  0
 16 18  1  0
 15 19  1  0
 15 20  1  0
 11 21  1  0
 11 22  1  0
 10 23  1  0
 10 24  1  0
  9 25  1  0
  8 26  2  0
 26 27  1  0
 27 28  1  0
 28 29  2  0
 29 30  1  0
 30 31  2  0
 31 32  1  0
 32 33  2  0
 33 34  1  0
 31 35  1  0
 30 36  1  0
 29 37  1  0
  5 38  1  0
  5 39  1  0
  4 40  1  0
 40 41  1  0
 41 42  1  0
 41 43  1  0
 41 44  1  0
 40 45  2  0
 45 46  1  0
  1 47  1  0
  1 48  1  0
  1 49  1  0
 45  2  1  0
 27  6  1  0
 33 28  1  0
 16  9  1  0
M  END
>  <cnnaffinity>  (1) 
-6.31835

>  <filename>  (1) 
Cc1cc(C)n(Cc2nc(C3CCC(F)(F)CC3)nn2-c2cccnc2)n1

$$$$
