
     RDKit          3D

 40 44  0  0  0  0  0  0  0  0999 V2000
    9.5195    2.2982   24.9275 C   0  0  0  0  0  0  0  0  0  0  0  0
    8.0467    2.0226   24.9816 C   0  0  0  0  0  0  0  0  0  0  0  0
    7.2056    1.9617   26.0431 C   0  0  0  0  0  0  0  0  0  0  0  0
    5.9523    1.6856   25.6524 O   0  0  0  0  0  0  0  0  0  0  0  0
    5.9366    1.5489   24.2840 N   0  0  0  0  0  0  0  0  0  0  0  0
    7.1689    1.7443   23.8879 C   0  0  0  0  0  0  0  0  0  0  0  0
    7.5268    1.6021   22.4459 C   0  0  0  0  0  0  0  0  0  0  0  0
    7.7491    0.1664   22.1068 C   0  0  0  0  0  0  0  0  0  0  0  0
    8.4889   -0.6323   22.8530 N   0  0  0  0  0  0  0  0  0  0  0  0
    8.6293   -1.7386   22.0779 C   0  0  0  0  0  0  0  0  0  0  0  0
    9.4428   -2.9158   22.4675 C   0  0  0  0  0  0  0  0  0  0  0  0
    9.4890   -3.3557   23.9314 C   0  0  0  0  0  0  0  0  0  0  0  0
    8.7032   -4.1427   22.9323 C   0  0  0  0  0  0  0  0  0  0  0  0
    7.2906   -4.5713   22.8441 C   0  0  0  0  0  0  0  0  0  0  0  0
    8.4349   -5.5895   22.7228 C   0  0  0  0  0  0  0  0  0  0  0  0
    8.5999   -6.0511   21.7538 H   0  0  0  0  0  0  0  0  0  0  0  0
    8.6761   -6.2471   23.5605 H   0  0  0  0  0  0  0  0  0  0  0  0
    6.6851   -4.5202   23.7464 H   0  0  0  0  0  0  0  0  0  0  0  0
    6.7793   -4.2985   21.9223 H   0  0  0  0  0  0  0  0  0  0  0  0
   10.4169   -3.7826   24.3193 H   0  0  0  0  0  0  0  0  0  0  0  0
    8.9039   -2.7780   24.6452 H   0  0  0  0  0  0  0  0  0  0  0  0
   10.3486   -3.0192   21.8703 H   0  0  0  0  0  0  0  0  0  0  0  0
    8.0372   -1.6678   20.8960 N   0  0  0  0  0  0  0  0  0  0  0  0
    7.4326   -0.4492   20.9290 N   0  0  0  0  0  0  0  0  0  0  0  0
    6.6527    0.0399   19.8427 C   0  0  0  0  0  0  0  0  0  0  0  0
    5.4247    0.6828   20.0559 C   0  0  0  0  0  0  0  0  0  0  0  0
    4.7904    1.2782   18.9621 C   0  0  0  0  0  0  0  0  0  0  0  0
    5.3960    1.2011   17.7042 C   0  0  0  0  0  0  0  0  0  0  0  0
    6.5337    0.5178   17.4813 N   0  0  0  0  0  0  0  0  0  0  0  0
    7.1296   -0.0686   18.5232 C   0  0  0  0  0  0  0  0  0  0  0  0
    8.0305   -0.6412   18.3155 H   0  0  0  0  0  0  0  0  0  0  0  0
    4.9585    1.7001   16.8435 H   0  0  0  0  0  0  0  0  0  0  0  0
    3.8587    1.8208   19.0813 H   0  0  0  0  0  0  0  0  0  0  0  0
    4.9862    0.7243   21.0563 H   0  0  0  0  0  0  0  0  0  0  0  0
    8.4661    2.1290   22.2312 H   0  0  0  0  0  0  0  0  0  0  0  0
    6.7582    2.0570   21.8211 H   0  0  0  0  0  0  0  0  0  0  0  0
    7.3510    2.0943   27.1083 H   0  0  0  0  0  0  0  0  0  0  0  0
    9.9323    2.4081   25.9330 H   0  0  0  0  0  0  0  0  0  0  0  0
    9.7383    3.2188   24.3726 H   0  0  0  0  0  0  0  0  0  0  0  0
   10.0503    1.4768   24.4305 H   0  0  0  0  0  0  0  0  0  0  0  0
  1  2  1  0
  2  3  2  0
  3  4  1  0
  4  5  1  0
  5  6  2  0
  6  7  1  0
  7  8  1  0
  8  9  2  0
  9 10  1  0
 10 11  1  0
 11 12  1  0
 12 13  1  0
 13 14  1  0
 14 15  1  0
 15 16  1  0
 15 17  1  0
 14 18  1  0
 14 19  1  0
 12 20  1  0
 12 21  1  0
 11 22  1  0
 10 23  2  0
 23 24  1  0
 24 25  1  0
 25 26  2  0
 26 27  1  0
 27 28  2  0
 28 29  1  0
 29 30  2  0
 30 31  1  0
 28 32  1  0
 27 33  1  0
 26 34  1  0
  7 35  1  0
  7 36  1  0
  3 37  1  0
  1 38  1  0
  1 39  1  0
  1 40  1  0
  6  2  1  0
 24  8  1  0
 30 25  1  0
 13 11  1  0
 15 13  1  0
M  END
>  <cnnaffinity>  (1) 
-6.06794

>  <filename>  (1) 
Cc1conc1Cc1nc(C2CC23CC3)nn1-c1cccnc1

$$$$
