
     RDKit          3D

 36 39  0  0  0  0  0  0  0  0999 V2000
    9.4101    0.6950   20.7634 C   0  0  0  0  0  0  0  0  0  0  0  0
    8.6080   -0.4010   21.4121 C   0  0  0  0  0  0  0  0  0  0  0  0
    9.1452   -1.2325   22.3919 C   0  0  0  0  0  0  0  0  0  0  0  0
    8.4794   -2.2251   22.9662 N   0  0  0  0  0  0  0  0  0  0  0  0
    7.2158   -2.4283   22.5722 C   0  0  0  0  0  0  0  0  0  0  0  0
    6.4249   -3.4972   23.2375 C   0  0  0  0  0  0  0  0  0  0  0  0
    5.2699   -4.0075   22.6218 C   0  0  0  0  0  0  0  0  0  0  0  0
    4.5167   -5.0354   23.2136 C   0  0  0  0  0  0  0  0  0  0  0  0
    4.8845   -5.5767   24.4418 C   0  0  0  0  0  0  0  0  0  0  0  0
    6.0260   -5.0607   25.0726 C   0  0  0  0  0  0  0  0  0  0  0  0
    6.8100   -4.0232   24.5078 C   0  0  0  0  0  0  0  0  0  0  0  0
    7.8686   -3.7513   25.4567 C   0  0  0  0  0  0  0  0  0  0  0  0
    7.6986   -4.6042   26.5062 C   0  0  0  0  0  0  0  0  0  0  0  0
    6.5947   -5.3945   26.2762 N   0  0  0  0  0  0  0  0  0  0  0  0
    6.2364   -6.1080   26.8889 H   0  0  0  0  0  0  0  0  0  0  0  0
    8.2716   -4.7329   27.4173 H   0  0  0  0  0  0  0  0  0  0  0  0
    8.6516   -3.0148   25.3363 H   0  0  0  0  0  0  0  0  0  0  0  0
    4.2930   -6.3647   24.8936 H   0  0  0  0  0  0  0  0  0  0  0  0
    3.6308   -5.4002   22.7007 H   0  0  0  0  0  0  0  0  0  0  0  0
    4.9488   -3.5874   21.6728 H   0  0  0  0  0  0  0  0  0  0  0  0
    6.6212   -1.7445   21.5833 N   0  0  0  0  0  0  0  0  0  0  0  0
    7.3050   -0.7544   21.0156 C   0  0  0  0  0  0  0  0  0  0  0  0
    6.6118   -0.0302   19.9284 C   0  0  0  0  0  0  0  0  0  0  0  0
    5.4034    0.6336   20.1654 C   0  0  0  0  0  0  0  0  0  0  0  0
    4.8014    1.3128   19.1071 C   0  0  0  0  0  0  0  0  0  0  0  0
    5.4160    1.2862   17.8488 C   0  0  0  0  0  0  0  0  0  0  0  0
    6.5689    0.6470   17.6058 N   0  0  0  0  0  0  0  0  0  0  0  0
    7.1485    0.0158   18.6344 C   0  0  0  0  0  0  0  0  0  0  0  0
    8.1020   -0.4575   18.3969 H   0  0  0  0  0  0  0  0  0  0  0  0
    4.9645    1.7916   16.9971 H   0  0  0  0  0  0  0  0  0  0  0  0
    3.8717    1.8562   19.2390 H   0  0  0  0  0  0  0  0  0  0  0  0
    4.9586    0.6192   21.1636 H   0  0  0  0  0  0  0  0  0  0  0  0
   10.1766   -1.0975   22.7190 H   0  0  0  0  0  0  0  0  0  0  0  0
    9.7472    0.3186   19.7983 H   0  0  0  0  0  0  0  0  0  0  0  0
   10.2819    0.9905   21.3527 H   0  0  0  0  0  0  0  0  0  0  0  0
    8.7982    1.5791   20.5598 H   0  0  0  0  0  0  0  0  0  0  0  0
  1  2  1  0
  2  3  2  0
  3  4  1  0
  4  5  2  0
  5  6  1  0
  6  7  2  0
  7  8  1  0
  8  9  2  0
  9 10  1  0
 10 11  2  0
 11 12  1  0
 12 13  2  0
 13 14  1  0
 14 15  1  0
 13 16  1  0
 12 17  1  0
  9 18  1  0
  8 19  1  0
  7 20  1  0
  5 21  1  0
 21 22  2  0
 22 23  1  0
 23 24  2  0
 24 25  1  0
 25 26  2  0
 26 27  1  0
 27 28  2  0
 28 29  1  0
 26 30  1  0
 25 31  1  0
 24 32  1  0
  3 33  1  0
  1 34  1  0
  1 35  1  0
  1 36  1  0
 22  2  1  0
 28 23  1  0
 11  6  1  0
 14 10  1  0
M  END
>  <cnnaffinity>  (1) 
-5.6194

>  <filename>  (1) 
Cc1cnc(-c2cccc3[nH]ccc23)nc1-c1cccnc1

$$$$
