
     RDKit          3D

 32 34  0  0  0  0  0  0  0  0999 V2000
    9.4107    0.6928   20.7650 C   0  0  0  0  0  0  0  0  0  0  0  0
    8.6127   -0.4026   21.4104 C   0  0  0  0  0  0  0  0  0  0  0  0
    9.1393   -1.2304   22.4012 C   0  0  0  0  0  0  0  0  0  0  0  0
    8.4602   -2.2256   22.9603 N   0  0  0  0  0  0  0  0  0  0  0  0
    7.2015   -2.3976   22.5454 C   0  0  0  0  0  0  0  0  0  0  0  0
    6.4192   -3.4274   23.1997 C   0  0  0  0  0  0  0  0  0  0  0  0
    5.1081   -3.7628   22.9213 C   0  0  0  0  0  0  0  0  0  0  0  0
    4.8118   -4.7637   23.7643 N   0  0  0  0  0  0  0  0  0  0  0  0
    5.8071   -5.1024   24.5659 N   0  0  0  0  0  0  0  0  0  0  0  0
    6.8206   -4.2983   24.2576 C   0  0  0  0  0  0  0  0  0  0  0  0
    8.1447   -4.4355   25.0255 C   0  0  0  0  0  0  0  0  0  0  0  0
    8.0930   -5.3969   25.9531 F   0  0  0  0  0  0  0  0  0  0  0  0
    8.4752   -3.2968   25.6640 F   0  0  0  0  0  0  0  0  0  0  0  0
    9.1659   -4.7434   24.2031 F   0  0  0  0  0  0  0  0  0  0  0  0
    3.9373   -5.2604   23.8514 H   0  0  0  0  0  0  0  0  0  0  0  0
    4.4100   -3.3439   22.2045 H   0  0  0  0  0  0  0  0  0  0  0  0
    6.6015   -1.7081   21.5751 N   0  0  0  0  0  0  0  0  0  0  0  0
    7.3062   -0.7388   21.0044 C   0  0  0  0  0  0  0  0  0  0  0  0
    6.6141   -0.0216   19.9220 C   0  0  0  0  0  0  0  0  0  0  0  0
    5.4031    0.6367   20.1615 C   0  0  0  0  0  0  0  0  0  0  0  0
    4.7993    1.3145   19.1045 C   0  0  0  0  0  0  0  0  0  0  0  0
    5.4177    1.2856   17.8484 C   0  0  0  0  0  0  0  0  0  0  0  0
    6.5699    0.6463   17.6056 N   0  0  0  0  0  0  0  0  0  0  0  0
    7.1509    0.0149   18.6316 C   0  0  0  0  0  0  0  0  0  0  0  0
    8.1038   -0.4635   18.4011 H   0  0  0  0  0  0  0  0  0  0  0  0
    4.9641    1.7924   16.9987 H   0  0  0  0  0  0  0  0  0  0  0  0
    3.8704    1.8600   19.2396 H   0  0  0  0  0  0  0  0  0  0  0  0
    4.9590    0.6217   21.1598 H   0  0  0  0  0  0  0  0  0  0  0  0
   10.1652   -1.1092   22.7510 H   0  0  0  0  0  0  0  0  0  0  0  0
   10.2795    0.9877   21.3559 H   0  0  0  0  0  0  0  0  0  0  0  0
    9.7512    0.3217   19.7998 H   0  0  0  0  0  0  0  0  0  0  0  0
    8.7930    1.5739   20.5698 H   0  0  0  0  0  0  0  0  0  0  0  0
  1  2  1  0
  2  3  2  0
  3  4  1  0
  4  5  2  0
  5  6  1  0
  6  7  2  0
  7  8  1  0
  8  9  1  0
  9 10  2  0
 10 11  1  0
 11 12  1  0
 11 13  1  0
 11 14  1  0
  8 15  1  0
  7 16  1  0
  5 17  1  0
 17 18  2  0
 18 19  1  0
 19 20  2  0
 20 21  1  0
 21 22  2  0
 22 23  1  0
 23 24  2  0
 24 25  1  0
 22 26  1  0
 21 27  1  0
 20 28  1  0
  3 29  1  0
  1 30  1  0
  1 31  1  0
  1 32  1  0
 18  2  1  0
 24 19  1  0
 10  6  1  0
M  END
>  <cnnaffinity>  (1) 
-5.55992

>  <filename>  (1) 
Cc1cnc(-c2c[nH]nc2C(F)(F)F)nc1-c1cccnc1

$$$$
