
     RDKit          3D

 39 41  0  0  0  0  0  0  0  0999 V2000
    5.1168    2.1445   16.8065 H   0  0  0  0  0  0  0  0  0  0  0  0
    5.4113    1.4726   17.6141 C   0  0  0  0  0  0  0  0  0  0  0  0
    6.5079    0.7323   17.3909 N   0  0  0  0  0  0  0  0  0  0  0  0
    6.9206   -0.0899   18.3657 C   0  0  0  0  0  0  0  0  0  0  0  0
    7.8288   -0.6653   18.1859 H   0  0  0  0  0  0  0  0  0  0  0  0
    6.2418   -0.2393   19.5887 C   0  0  0  0  0  0  0  0  0  0  0  0
    6.7897   -1.0336   20.6638 N   0  0  0  0  0  0  0  0  0  0  0  0
    7.4660   -0.3152   21.6344 C   0  0  0  0  0  0  0  0  0  0  0  0
    7.3399    0.7605   21.5970 H   0  0  0  0  0  0  0  0  0  0  0  0
    8.2610   -0.9038   22.5796 C   0  0  0  0  0  0  0  0  0  0  0  0
    8.9798   -0.1744   23.5665 N   0  0  0  0  0  0  0  0  0  0  0  0
    9.1917    1.2581   23.3015 C   0  0  0  0  0  0  0  0  0  0  0  0
    9.5484    1.3720   22.2736 H   0  0  0  0  0  0  0  0  0  0  0  0
    8.2503    1.8387   23.3958 H   0  0  0  0  0  0  0  0  0  0  0  0
   10.2301    1.8258   24.2677 C   0  0  0  0  0  0  0  0  0  0  0  0
   10.4178    2.8824   24.0348 H   0  0  0  0  0  0  0  0  0  0  0  0
   11.1737    1.2897   24.1068 H   0  0  0  0  0  0  0  0  0  0  0  0
    9.8258    1.6397   25.7438 C   0  0  0  0  0  0  0  0  0  0  0  0
   10.7230    1.8334   26.3356 H   0  0  0  0  0  0  0  0  0  0  0  0
    8.7599    2.6265   26.2488 C   0  0  0  0  0  0  0  0  0  0  0  0
    9.1302    3.6592   26.1977 H   0  0  0  0  0  0  0  0  0  0  0  0
    7.8193    2.5814   25.6863 H   0  0  0  0  0  0  0  0  0  0  0  0
    8.5215    2.4217   27.3014 H   0  0  0  0  0  0  0  0  0  0  0  0
    9.4621    0.1561   25.9662 C   0  0  0  0  0  0  0  0  0  0  0  0
    9.0694   -0.0044   26.9804 H   0  0  0  0  0  0  0  0  0  0  0  0
   10.3850   -0.4321   25.8805 H   0  0  0  0  0  0  0  0  0  0  0  0
    8.4638   -0.3702   24.9341 C   0  0  0  0  0  0  0  0  0  0  0  0
    7.4803    0.1280   25.0589 H   0  0  0  0  0  0  0  0  0  0  0  0
    8.3026   -1.4410   25.0930 H   0  0  0  0  0  0  0  0  0  0  0  0
    8.3477   -2.3417   22.5588 C   0  0  0  0  0  0  0  0  0  0  0  0
    9.0345   -2.8024   23.2733 H   0  0  0  0  0  0  0  0  0  0  0  0
    7.6227   -3.0799   21.6681 C   0  0  0  0  0  0  0  0  0  0  0  0
    7.6099   -4.1609   21.6654 H   0  0  0  0  0  0  0  0  0  0  0  0
    6.7202   -2.4751   20.6828 C   0  0  0  0  0  0  0  0  0  0  0  0
    5.9800   -3.1125   19.9559 O   0  0  0  0  0  0  0  0  0  0  0  0
    5.0967    0.5312   19.8078 C   0  0  0  0  0  0  0  0  0  0  0  0
    4.5700    0.4436   20.7575 H   0  0  0  0  0  0  0  0  0  0  0  0
    4.6768    1.4109   18.8018 C   0  0  0  0  0  0  0  0  0  0  0  0
    3.8376    2.0801   18.9416 H   0  0  0  0  0  0  0  0  0  0  0  0
  1  2  1  0
  2  3  2  0
  3  4  1  0
  4  5  1  0
  4  6  2  0
  6  7  1  0
  7  8  1  0
  8  9  1  0
  8 10  2  0
 10 11  1  0
 11 12  1  0
 12 13  1  0
 12 14  1  0
 12 15  1  0
 15 16  1  0
 15 17  1  0
 15 18  1  0
 18 19  1  0
 18 20  1  0
 20 21  1  0
 20 22  1  0
 20 23  1  0
 18 24  1  0
 24 25  1  0
 24 26  1  0
 24 27  1  0
 27 28  1  0
 27 29  1  0
 10 30  1  0
 30 31  1  0
 30 32  2  0
 32 33  1  0
 32 34  1  0
 34 35  2  0
  6 36  1  0
 36 37  1  0
 36 38  2  0
 38 39  1  0
 38  2  1  0
 34  7  1  0
 27 11  1  0
M  END
>  <cnnaffinity>  (1) 
-5.07685

>  <filename>  (1) 
CC1CCN(c2ccc(=O)n(-c3cccnc3)c2)CC1

$$$$
