
     RDKit          3D

 46 49  0  0  0  0  0  0  0  0999 V2000
    9.2200    2.9309   25.6327 C   0  0  0  0  0  0  0  0  0  0  0  0
    7.7808    2.5945   25.9341 C   0  0  0  0  0  0  0  0  0  0  0  0
    7.2560    3.0758   27.1436 C   0  0  0  0  0  0  0  0  0  0  0  0
    5.9424    2.8159   27.5250 C   0  0  0  0  0  0  0  0  0  0  0  0
    5.1199    2.0660   26.6814 C   0  0  0  0  0  0  0  0  0  0  0  0
    5.6105    1.5689   25.4746 C   0  0  0  0  0  0  0  0  0  0  0  0
    6.9458    1.8209   25.0865 C   0  0  0  0  0  0  0  0  0  0  0  0
    7.4852    1.3002   23.8025 C   0  0  0  0  0  0  0  0  0  0  0  0
    6.9469    0.2969   23.1320 N   0  0  0  0  0  0  0  0  0  0  0  0
    7.7470    0.1711   22.0449 N   0  0  0  0  0  0  0  0  0  0  0  0
    7.3577   -0.7414   20.9744 C   0  0  0  0  0  0  0  0  0  0  0  0
    6.6423   -0.0338   19.8421 C   0  0  0  0  0  0  0  0  0  0  0  0
    5.4418    0.6407   20.1036 C   0  0  0  0  0  0  0  0  0  0  0  0
    4.8180    1.3086   19.0528 C   0  0  0  0  0  0  0  0  0  0  0  0
    5.4194    1.2985   17.7900 C   0  0  0  0  0  0  0  0  0  0  0  0
    6.5641    0.6542   17.5195 N   0  0  0  0  0  0  0  0  0  0  0  0
    7.1495    0.0077   18.5369 C   0  0  0  0  0  0  0  0  0  0  0  0
    8.0778   -0.5155   18.2985 H   0  0  0  0  0  0  0  0  0  0  0  0
    4.9565    1.8296   16.9609 H   0  0  0  0  0  0  0  0  0  0  0  0
    3.8876    1.8434   19.2037 H   0  0  0  0  0  0  0  0  0  0  0  0
    5.0268    0.6611   21.1163 H   0  0  0  0  0  0  0  0  0  0  0  0
    6.6867   -1.4721   21.4360 H   0  0  0  0  0  0  0  0  0  0  0  0
    8.2415   -1.2897   20.6305 H   0  0  0  0  0  0  0  0  0  0  0  0
    8.7079    1.1235   22.0855 C   0  0  0  0  0  0  0  0  0  0  0  0
    9.8059    1.3980   21.1025 C   0  0  0  0  0  0  0  0  0  0  0  0
   11.1910    1.0866   21.6305 C   0  0  0  0  0  0  0  0  0  0  0  0
   12.1381    2.0160   21.9894 C   0  0  0  0  0  0  0  0  0  0  0  0
   13.1872    1.3272   22.4998 N   0  0  0  0  0  0  0  0  0  0  0  0
   12.9905    0.0001   22.4817 N   0  0  0  0  0  0  0  0  0  0  0  0
   11.7815   -0.1669   21.9558 C   0  0  0  0  0  0  0  0  0  0  0  0
   11.2053   -1.5424   21.8169 C   0  0  0  0  0  0  0  0  0  0  0  0
   12.0095   -2.2792   21.7267 H   0  0  0  0  0  0  0  0  0  0  0  0
   10.5442   -1.6121   20.9441 H   0  0  0  0  0  0  0  0  0  0  0  0
   10.5963   -1.7830   22.6968 H   0  0  0  0  0  0  0  0  0  0  0  0
   14.0735    1.6815   22.8229 H   0  0  0  0  0  0  0  0  0  0  0  0
   12.1435    3.0962   21.9020 H   0  0  0  0  0  0  0  0  0  0  0  0
    9.5978    0.8682   20.1692 H   0  0  0  0  0  0  0  0  0  0  0  0
    9.7588    2.4736   20.8876 H   0  0  0  0  0  0  0  0  0  0  0  0
    8.5769    1.8311   23.1813 N   0  0  0  0  0  0  0  0  0  0  0  0
    4.9558    0.9793   24.8323 H   0  0  0  0  0  0  0  0  0  0  0  0
    4.0913    1.8697   26.9727 H   0  0  0  0  0  0  0  0  0  0  0  0
    5.5735    3.1867   28.4767 H   0  0  0  0  0  0  0  0  0  0  0  0
    7.9099    3.6601   27.7912 H   0  0  0  0  0  0  0  0  0  0  0  0
    9.3311    3.4611   24.6827 H   0  0  0  0  0  0  0  0  0  0  0  0
    9.8358    2.0232   25.5747 H   0  0  0  0  0  0  0  0  0  0  0  0
    9.5804    3.5785   26.4288 H   0  0  0  0  0  0  0  0  0  0  0  0
  1  2  1  0
  2  3  2  0
  3  4  1  0
  4  5  2  0
  5  6  1  0
  6  7  2  0
  7  8  1  0
  8  9  2  0
  9 10  1  0
 10 11  1  0
 11 12  1  0
 12 13  2  0
 13 14  1  0
 14 15  2  0
 15 16  1  0
 16 17  2  0
 17 18  1  0
 15 19  1  0
 14 20  1  0
 13 21  1  0
 11 22  1  0
 11 23  1  0
 10 24  1  0
 24 25  1  0
 25 26  1  0
 26 27  2  0
 27 28  1  0
 28 29  1  0
 29 30  2  0
 30 31  1  0
 31 32  1  0
 31 33  1  0
 31 34  1  0
 28 35  1  0
 27 36  1  0
 25 37  1  0
 25 38  1  0
 24 39  2  0
  6 40  1  0
  5 41  1  0
  4 42  1  0
  3 43  1  0
  1 44  1  0
  1 45  1  0
  1 46  1  0
  7  2  1  0
 39  8  1  0
 17 12  1  0
 30 26  1  0
M  END
>  <cnnaffinity>  (1) 
-6.07391

>  <filename>  (1) 
Cc1ccccc1-c1nc(Cc2c[nH]nc2C)n(Cc2cccnc2)n1

$$$$
