
     RDKit          3D

 51 54  0  0  0  0  0  0  0  0999 V2000
    9.2711    4.2388   25.5228 C   0  0  0  0  0  0  0  0  0  0  0  0
    9.6404    3.3227   24.3759 C   0  0  0  0  0  0  0  0  0  0  0  0
    8.6968    3.0093   23.3947 C   0  0  0  0  0  0  0  0  0  0  0  0
    8.9961    2.1203   22.3601 C   0  0  0  0  0  0  0  0  0  0  0  0
   10.2404    1.4829   22.3249 C   0  0  0  0  0  0  0  0  0  0  0  0
   10.5649    0.5214   21.3997 O   0  0  0  0  0  0  0  0  0  0  0  0
    9.5467   -0.0116   20.5752 C   0  0  0  0  0  0  0  0  0  0  0  0
    8.4873   -0.8009   21.3028 C   0  0  0  0  0  0  0  0  0  0  0  0
    8.6829   -1.5659   22.3524 N   0  0  0  0  0  0  0  0  0  0  0  0
    7.4523   -2.0959   22.5943 C   0  0  0  0  0  0  0  0  0  0  0  0
    7.2372   -2.9777   23.7980 C   0  0  0  0  0  0  0  0  0  0  0  0
    7.3428   -2.1557   25.1246 C   0  0  0  0  0  0  0  0  0  0  0  0
    7.6327   -3.0330   26.3726 C   0  0  0  0  0  0  0  0  0  0  0  0
    7.3637   -4.4019   26.1600 O   0  0  0  0  0  0  0  0  0  0  0  0
    8.0682   -5.0206   25.0952 C   0  0  0  0  0  0  0  0  0  0  0  0
    8.2807   -4.1178   23.8619 C   0  0  0  0  0  0  0  0  0  0  0  0
    8.2552   -4.7321   22.9541 H   0  0  0  0  0  0  0  0  0  0  0  0
    9.2821   -3.6615   23.9015 H   0  0  0  0  0  0  0  0  0  0  0  0
    7.4463   -5.8872   24.8431 H   0  0  0  0  0  0  0  0  0  0  0  0
    9.0452   -5.3984   25.4442 H   0  0  0  0  0  0  0  0  0  0  0  0
    6.9849   -2.7522   27.2086 H   0  0  0  0  0  0  0  0  0  0  0  0
    8.6748   -2.8825   26.7090 H   0  0  0  0  0  0  0  0  0  0  0  0
    8.1620   -1.4290   25.0310 H   0  0  0  0  0  0  0  0  0  0  0  0
    6.4228   -1.5785   25.2741 H   0  0  0  0  0  0  0  0  0  0  0  0
    6.2249   -3.3881   23.6913 H   0  0  0  0  0  0  0  0  0  0  0  0
    6.5195   -1.7206   21.7432 N   0  0  0  0  0  0  0  0  0  0  0  0
    7.1899   -0.8987   20.8905 N   0  0  0  0  0  0  0  0  0  0  0  0
    6.5132   -0.2044   19.8438 C   0  0  0  0  0  0  0  0  0  0  0  0
    5.3526    0.5349   20.1036 C   0  0  0  0  0  0  0  0  0  0  0  0
    4.8182    1.3040   19.0633 C   0  0  0  0  0  0  0  0  0  0  0  0
    5.4386    1.2887   17.8079 C   0  0  0  0  0  0  0  0  0  0  0  0
    6.5092    0.5302   17.5352 N   0  0  0  0  0  0  0  0  0  0  0  0
    7.0181   -0.2070   18.5294 C   0  0  0  0  0  0  0  0  0  0  0  0
    7.8803   -0.8223   18.2809 H   0  0  0  0  0  0  0  0  0  0  0  0
    5.0619    1.8926   16.9833 H   0  0  0  0  0  0  0  0  0  0  0  0
    3.9421    1.9265   19.2091 H   0  0  0  0  0  0  0  0  0  0  0  0
    4.9004    0.5100   21.0970 H   0  0  0  0  0  0  0  0  0  0  0  0
    9.0975    0.7769   19.9585 H   0  0  0  0  0  0  0  0  0  0  0  0
   10.0562   -0.7008   19.9035 H   0  0  0  0  0  0  0  0  0  0  0  0
   11.2379    1.7991   23.2714 C   0  0  0  0  0  0  0  0  0  0  0  0
   12.5846    1.1120   23.2403 C   0  0  0  0  0  0  0  0  0  0  0  0
   13.0968    1.2817   22.2854 H   0  0  0  0  0  0  0  0  0  0  0  0
   13.2222    1.4730   24.0554 H   0  0  0  0  0  0  0  0  0  0  0  0
   12.4782    0.0228   23.3332 H   0  0  0  0  0  0  0  0  0  0  0  0
   10.9179    2.7390   24.2520 C   0  0  0  0  0  0  0  0  0  0  0  0
   11.7212    3.0165   24.9260 H   0  0  0  0  0  0  0  0  0  0  0  0
    8.2599    1.8989   21.5967 H   0  0  0  0  0  0  0  0  0  0  0  0
    7.6993    3.4410   23.4450 H   0  0  0  0  0  0  0  0  0  0  0  0
    9.9659    5.0832   25.6103 H   0  0  0  0  0  0  0  0  0  0  0  0
    8.2720    4.6630   25.3728 H   0  0  0  0  0  0  0  0  0  0  0  0
    9.2504    3.7131   26.4899 H   0  0  0  0  0  0  0  0  0  0  0  0
  1  2  1  0
  2  3  2  0
  3  4  1  0
  4  5  2  0
  5  6  1  0
  6  7  1  0
  7  8  1  0
  8  9  2  0
  9 10  1  0
 10 11  1  0
 11 12  1  0
 12 13  1  0
 13 14  1  0
 14 15  1  0
 15 16  1  0
 16 17  1  0
 16 18  1  0
 15 19  1  0
 15 20  1  0
 13 21  1  0
 13 22  1  0
 12 23  1  0
 12 24  1  0
 11 25  1  0
 10 26  2  0
 26 27  1  0
 27 28  1  0
 28 29  2  0
 29 30  1  0
 30 31  2  0
 31 32  1  0
 32 33  2  0
 33 34  1  0
 31 35  1  0
 30 36  1  0
 29 37  1  0
  7 38  1  0
  7 39  1  0
  5 40  1  0
 40 41  1  0
 41 42  1  0
 41 43  1  0
 41 44  1  0
 40 45  2  0
 45 46  1  0
  4 47  1  0
  3 48  1  0
  1 49  1  0
  1 50  1  0
  1 51  1  0
 45  2  1  0
 27  8  1  0
 33 28  1  0
 16 11  1  0
M  END
>  <cnnaffinity>  (1) 
-6.29405

>  <filename>  (1) 
Cc1ccc(OCc2nc(C3CCOCC3)nn2-c2cccnc2)c(C)c1

$$$$
