
     RDKit          3D

 51 54  0  0  0  0  0  0  0  0999 V2000
    3.6797    2.8364   23.7852 C   0  0  0  0  0  0  0  0  0  0  0  0
    5.0954    2.6618   23.3002 C   0  0  0  0  0  0  0  0  0  0  0  0
    6.0031    1.7986   23.9301 C   0  0  0  0  0  0  0  0  0  0  0  0
    7.3320    1.7297   23.4965 C   0  0  0  0  0  0  0  0  0  0  0  0
    7.8060    2.5354   22.4527 C   0  0  0  0  0  0  0  0  0  0  0  0
    9.2081    2.3552   21.9063 C   0  0  0  0  0  0  0  0  0  0  0  0
    9.2256    1.6134   20.6888 O   0  0  0  0  0  0  0  0  0  0  0  0
    9.6612    0.2711   20.7365 C   0  0  0  0  0  0  0  0  0  0  0  0
    8.6672   -0.6227   21.3772 C   0  0  0  0  0  0  0  0  0  0  0  0
    8.8604   -1.3940   22.4229 N   0  0  0  0  0  0  0  0  0  0  0  0
    7.6143   -1.8597   22.6784 C   0  0  0  0  0  0  0  0  0  0  0  0
    7.3333   -2.6793   23.8989 C   0  0  0  0  0  0  0  0  0  0  0  0
    6.5624   -3.9707   23.5388 C   0  0  0  0  0  0  0  0  0  0  0  0
    6.1508   -4.7100   24.8090 C   0  0  0  0  0  0  0  0  0  0  0  0
    5.4055   -3.8744   25.6767 O   0  0  0  0  0  0  0  0  0  0  0  0
    6.1366   -2.7475   26.1308 C   0  0  0  0  0  0  0  0  0  0  0  0
    6.5570   -1.8516   24.9662 C   0  0  0  0  0  0  0  0  0  0  0  0
    5.6584   -1.4187   24.5019 H   0  0  0  0  0  0  0  0  0  0  0  0
    7.1717   -1.0143   25.3312 H   0  0  0  0  0  0  0  0  0  0  0  0
    5.4698   -2.2250   26.8231 H   0  0  0  0  0  0  0  0  0  0  0  0
    7.0292   -3.0749   26.6971 H   0  0  0  0  0  0  0  0  0  0  0  0
    7.0528   -5.0906   25.3250 H   0  0  0  0  0  0  0  0  0  0  0  0
    5.5034   -5.5614   24.5828 H   0  0  0  0  0  0  0  0  0  0  0  0
    5.6721   -3.6983   22.9535 H   0  0  0  0  0  0  0  0  0  0  0  0
    7.1843   -4.6226   22.9119 H   0  0  0  0  0  0  0  0  0  0  0  0
    8.3297   -2.9308   24.2942 H   0  0  0  0  0  0  0  0  0  0  0  0
    6.6799   -1.4544   21.8341 N   0  0  0  0  0  0  0  0  0  0  0  0
    7.3677   -0.6650   20.9707 N   0  0  0  0  0  0  0  0  0  0  0  0
    6.6856    0.0156   19.9239 C   0  0  0  0  0  0  0  0  0  0  0  0
    5.4647    0.6474   20.1811 C   0  0  0  0  0  0  0  0  0  0  0  0
    4.8214    1.3054   19.1266 C   0  0  0  0  0  0  0  0  0  0  0  0
    5.4111    1.2924   17.8577 C   0  0  0  0  0  0  0  0  0  0  0  0
    6.5661    0.6651   17.5965 N   0  0  0  0  0  0  0  0  0  0  0  0
    7.1839    0.0490   18.6104 C   0  0  0  0  0  0  0  0  0  0  0  0
    8.1159   -0.4518   18.3527 H   0  0  0  0  0  0  0  0  0  0  0  0
    4.9406    1.7983   17.0166 H   0  0  0  0  0  0  0  0  0  0  0  0
    3.8801    1.8276   19.2661 H   0  0  0  0  0  0  0  0  0  0  0  0
    5.0349    0.6058   21.1817 H   0  0  0  0  0  0  0  0  0  0  0  0
    9.7580   -0.0557   19.7027 H   0  0  0  0  0  0  0  0  0  0  0  0
   10.6343    0.1485   21.2342 H   0  0  0  0  0  0  0  0  0  0  0  0
    9.6212    3.3334   21.6626 H   0  0  0  0  0  0  0  0  0  0  0  0
    9.8615    1.8928   22.6633 H   0  0  0  0  0  0  0  0  0  0  0  0
    6.9189    3.4743   21.9042 C   0  0  0  0  0  0  0  0  0  0  0  0
    5.5691    3.4669   22.2536 C   0  0  0  0  0  0  0  0  0  0  0  0
    4.8621    4.0896   21.7046 H   0  0  0  0  0  0  0  0  0  0  0  0
    7.2749    4.2882   21.2742 H   0  0  0  0  0  0  0  0  0  0  0  0
    8.0261    1.0553   23.9827 H   0  0  0  0  0  0  0  0  0  0  0  0
    5.6796    1.2112   24.7912 H   0  0  0  0  0  0  0  0  0  0  0  0
    3.0094    3.0741   22.9539 H   0  0  0  0  0  0  0  0  0  0  0  0
    3.2904    1.9549   24.3014 H   0  0  0  0  0  0  0  0  0  0  0  0
    3.6145    3.6738   24.4898 H   0  0  0  0  0  0  0  0  0  0  0  0
  1  2  1  0
  2  3  2  0
  3  4  1  0
  4  5  2  0
  5  6  1  0
  6  7  1  0
  7  8  1  0
  8  9  1  0
  9 10  2  0
 10 11  1  0
 11 12  1  0
 12 13  1  0
 13 14  1  0
 14 15  1  0
 15 16  1  0
 16 17  1  0
 17 18  1  0
 17 19  1  0
 16 20  1  0
 16 21  1  0
 14 22  1  0
 14 23  1  0
 13 24  1  0
 13 25  1  0
 12 26  1  0
 11 27  2  0
 27 28  1  0
 28 29  1  0
 29 30  2  0
 30 31  1  0
 31 32  2  0
 32 33  1  0
 33 34  2  0
 34 35  1  0
 32 36  1  0
 31 37  1  0
 30 38  1  0
  8 39  1  0
  8 40  1  0
  6 41  1  0
  6 42  1  0
  5 43  1  0
 43 44  2  0
 44 45  1  0
 43 46  1  0
  4 47  1  0
  3 48  1  0
  1 49  1  0
  1 50  1  0
  1 51  1  0
 44  2  1  0
 28  9  1  0
 34 29  1  0
 17 12  1  0
M  END
>  <cnnaffinity>  (1) 
-5.81645

>  <filename>  (1) 
Cc1ccc(COCc2nc(C3CCOCC3)nn2-c2cccnc2)cc1

$$$$
