
     RDKit          3D

 41 45  0  0  0  0  0  0  0  0999 V2000
   13.7473    0.3583   23.3926 C   0  0  0  0  0  0  0  0  0  0  0  0
   12.4366    0.8560   22.8933 C   0  0  0  0  0  0  0  0  0  0  0  0
   11.6824    1.9188   23.2737 C   0  0  0  0  0  0  0  0  0  0  0  0
   10.4996    1.8847   22.4606 C   0  0  0  0  0  0  0  0  0  0  0  0
   10.6192    0.7908   21.6715 C   0  0  0  0  0  0  0  0  0  0  0  0
    9.6868    0.1777   20.6926 C   0  0  0  0  0  0  0  0  0  0  0  0
    8.6167   -0.6087   21.3533 C   0  0  0  0  0  0  0  0  0  0  0  0
    8.8160   -1.4040   22.3841 N   0  0  0  0  0  0  0  0  0  0  0  0
    7.6059   -1.9861   22.5599 C   0  0  0  0  0  0  0  0  0  0  0  0
    7.2135   -2.9433   23.6445 C   0  0  0  0  0  0  0  0  0  0  0  0
    6.7561   -4.3009   23.2043 C   0  0  0  0  0  0  0  0  0  0  0  0
    7.9854   -4.2031   24.1442 C   0  0  0  0  0  0  0  0  0  0  0  0
    8.5482   -5.4404   24.8526 C   0  0  0  0  0  0  0  0  0  0  0  0
    8.9672   -4.0742   25.2955 C   0  0  0  0  0  0  0  0  0  0  0  0
    9.9839   -3.7806   25.0381 H   0  0  0  0  0  0  0  0  0  0  0  0
    8.5881   -3.6821   26.2427 H   0  0  0  0  0  0  0  0  0  0  0  0
    9.2880   -6.0283   24.3145 H   0  0  0  0  0  0  0  0  0  0  0  0
    7.8570   -6.0084   25.4757 H   0  0  0  0  0  0  0  0  0  0  0  0
    5.8238   -4.7104   23.6072 H   0  0  0  0  0  0  0  0  0  0  0  0
    6.9588   -4.5674   22.1608 H   0  0  0  0  0  0  0  0  0  0  0  0
    6.6720   -2.4312   24.4490 H   0  0  0  0  0  0  0  0  0  0  0  0
    6.6731   -1.5941   21.7033 N   0  0  0  0  0  0  0  0  0  0  0  0
    7.3295   -0.7152   20.9058 N   0  0  0  0  0  0  0  0  0  0  0  0
    6.6447   -0.0216   19.8692 C   0  0  0  0  0  0  0  0  0  0  0  0
    5.4334    0.6276   20.1347 C   0  0  0  0  0  0  0  0  0  0  0  0
    4.8088    1.3133   19.0898 C   0  0  0  0  0  0  0  0  0  0  0  0
    5.3968    1.3069   17.8182 C   0  0  0  0  0  0  0  0  0  0  0  0
    6.5419    0.6645   17.5499 N   0  0  0  0  0  0  0  0  0  0  0  0
    7.1460    0.0219   18.5550 C   0  0  0  0  0  0  0  0  0  0  0  0
    8.0777   -0.4802   18.3076 H   0  0  0  0  0  0  0  0  0  0  0  0
    4.9340    1.8330   16.9856 H   0  0  0  0  0  0  0  0  0  0  0  0
    3.8794    1.8497   19.2430 H   0  0  0  0  0  0  0  0  0  0  0  0
    5.0065    0.5865   21.1374 H   0  0  0  0  0  0  0  0  0  0  0  0
   10.2272   -0.5251   20.0557 H   0  0  0  0  0  0  0  0  0  0  0  0
    9.2413    0.9663   20.0876 H   0  0  0  0  0  0  0  0  0  0  0  0
   11.7928    0.1620   21.9154 O   0  0  0  0  0  0  0  0  0  0  0  0
    9.6557    2.5606   22.4778 H   0  0  0  0  0  0  0  0  0  0  0  0
   11.9390    2.6201   24.0556 H   0  0  0  0  0  0  0  0  0  0  0  0
   13.6302    0.0393   24.4323 H   0  0  0  0  0  0  0  0  0  0  0  0
   14.1420   -0.4625   22.7915 H   0  0  0  0  0  0  0  0  0  0  0  0
   14.4690    1.1779   23.4129 H   0  0  0  0  0  0  0  0  0  0  0  0
  1  2  1  0
  2  3  2  0
  3  4  1  0
  4  5  2  0
  5  6  1  0
  6  7  1  0
  7  8  2  0
  8  9  1  0
  9 10  1  0
 10 11  1  0
 11 12  1  0
 12 13  1  0
 13 14  1  0
 14 15  1  0
 14 16  1  0
 13 17  1  0
 13 18  1  0
 11 19  1  0
 11 20  1  0
 10 21  1  0
  9 22  2  0
 22 23  1  0
 23 24  1  0
 24 25  2  0
 25 26  1  0
 26 27  2  0
 27 28  1  0
 28 29  2  0
 29 30  1  0
 27 31  1  0
 26 32  1  0
 25 33  1  0
  6 34  1  0
  6 35  1  0
  5 36  1  0
  4 37  1  0
  3 38  1  0
  1 39  1  0
  1 40  1  0
  1 41  1  0
 36  2  1  0
 23  7  1  0
 29 24  1  0
 12 10  1  0
 14 12  1  0
M  END
>  <cnnaffinity>  (1) 
-6.50318

>  <filename>  (1) 
Cc1ccc(Cc2nc(C3CC34CC4)nn2-c2cccnc2)o1

$$$$
