
     RDKit          3D

 45 48  0  0  0  0  0  0  0  0999 V2000
    6.7324   -0.8184   27.7614 C   0  0  0  0  0  0  0  0  0  0  0  0
    6.8622    0.0202   26.5255 C   0  0  0  0  0  0  0  0  0  0  0  0
    8.0676    0.6986   26.2720 C   0  0  0  0  0  0  0  0  0  0  0  0
    8.2047    1.3999   25.0804 C   0  0  0  0  0  0  0  0  0  0  0  0
    7.1350    1.4190   24.1673 C   0  0  0  0  0  0  0  0  0  0  0  0
    7.3962    1.9509   22.7568 C   0  0  0  0  0  0  0  0  0  0  0  0
    8.3844    1.0430   22.0741 C   0  0  0  0  0  0  0  0  0  0  0  0
    9.7025    1.1424   22.1620 N   0  0  0  0  0  0  0  0  0  0  0  0
   10.1278   -0.0884   21.7917 C   0  0  0  0  0  0  0  0  0  0  0  0
   11.5390   -0.5124   21.7339 C   0  0  0  0  0  0  0  0  0  0  0  0
   12.5952    0.2429   22.2657 C   0  0  0  0  0  0  0  0  0  0  0  0
   13.8989   -0.1661   21.9977 C   0  0  0  0  0  0  0  0  0  0  0  0
   14.9058    0.5867   22.4520 F   0  0  0  0  0  0  0  0  0  0  0  0
   14.1693   -1.2609   21.1780 C   0  0  0  0  0  0  0  0  0  0  0  0
   13.1167   -2.0127   20.6846 C   0  0  0  0  0  0  0  0  0  0  0  0
   11.8143   -1.6984   21.0446 C   0  0  0  0  0  0  0  0  0  0  0  0
   10.9705   -2.2984   20.7316 H   0  0  0  0  0  0  0  0  0  0  0  0
   13.3240   -2.8198   19.9864 H   0  0  0  0  0  0  0  0  0  0  0  0
   15.1544   -1.5371   20.8619 H   0  0  0  0  0  0  0  0  0  0  0  0
   12.4420    1.1494   22.8390 H   0  0  0  0  0  0  0  0  0  0  0  0
    9.1547   -0.9148   21.4427 N   0  0  0  0  0  0  0  0  0  0  0  0
    8.0418   -0.1834   21.6251 N   0  0  0  0  0  0  0  0  0  0  0  0
    6.7667   -0.7007   21.1405 C   0  0  0  0  0  0  0  0  0  0  0  0
    6.2405    0.0460   19.9369 C   0  0  0  0  0  0  0  0  0  0  0  0
    5.0375    0.7550   19.9729 C   0  0  0  0  0  0  0  0  0  0  0  0
    4.6240    1.4487   18.8345 C   0  0  0  0  0  0  0  0  0  0  0  0
    5.4373    1.4149   17.6988 C   0  0  0  0  0  0  0  0  0  0  0  0
    6.5980    0.7412   17.6431 N   0  0  0  0  0  0  0  0  0  0  0  0
    6.9809    0.0838   18.7434 C   0  0  0  0  0  0  0  0  0  0  0  0
    7.9349   -0.4405   18.6763 H   0  0  0  0  0  0  0  0  0  0  0  0
    5.1472    1.9472   16.7942 H   0  0  0  0  0  0  0  0  0  0  0  0
    3.7049    2.0245   18.8214 H   0  0  0  0  0  0  0  0  0  0  0  0
    4.4370    0.7686   20.8837 H   0  0  0  0  0  0  0  0  0  0  0  0
    6.0472   -0.6656   21.9626 H   0  0  0  0  0  0  0  0  0  0  0  0
    6.9443   -1.7556   20.9090 H   0  0  0  0  0  0  0  0  0  0  0  0
    7.8574    2.9422   22.7990 H   0  0  0  0  0  0  0  0  0  0  0  0
    6.4792    2.0306   22.1621 H   0  0  0  0  0  0  0  0  0  0  0  0
    5.9565    0.7748   24.5556 C   0  0  0  0  0  0  0  0  0  0  0  0
    5.8128    0.0837   25.7010 N   0  0  0  0  0  0  0  0  0  0  0  0
    5.0859    0.7898   23.9011 H   0  0  0  0  0  0  0  0  0  0  0  0
    9.1537    1.8664   24.8108 H   0  0  0  0  0  0  0  0  0  0  0  0
    8.8798    0.6298   26.9885 H   0  0  0  0  0  0  0  0  0  0  0  0
    5.7567   -1.3046   27.8100 H   0  0  0  0  0  0  0  0  0  0  0  0
    6.8695   -0.1961   28.6514 H   0  0  0  0  0  0  0  0  0  0  0  0
    7.5114   -1.5883   27.7657 H   0  0  0  0  0  0  0  0  0  0  0  0
  1  2  1  0
  2  3  2  0
  3  4  1  0
  4  5  2  0
  5  6  1  0
  6  7  1  0
  7  8  2  0
  8  9  1  0
  9 10  1  0
 10 11  2  0
 11 12  1  0
 12 13  1  0
 12 14  2  0
 14 15  1  0
 15 16  2  0
 16 17  1  0
 15 18  1  0
 14 19  1  0
 11 20  1  0
  9 21  2  0
 21 22  1  0
 22 23  1  0
 23 24  1  0
 24 25  2  0
 25 26  1  0
 26 27  2  0
 27 28  1  0
 28 29  2  0
 29 30  1  0
 27 31  1  0
 26 32  1  0
 25 33  1  0
 23 34  1  0
 23 35  1  0
  6 36  1  0
  6 37  1  0
  5 38  1  0
 38 39  2  0
 38 40  1  0
  4 41  1  0
  3 42  1  0
  1 43  1  0
  1 44  1  0
  1 45  1  0
 39  2  1  0
 22  7  1  0
 29 24  1  0
 16 10  1  0
M  END
>  <cnnaffinity>  (1) 
-6.67474

>  <filename>  (1) 
Cc1ccc(Cc2nc(-c3cccc(F)c3)nn2Cc2cccnc2)cn1

$$$$
