
     RDKit          3D

 45 48  0  0  0  0  0  0  0  0999 V2000
    7.6998    2.8159   21.9636 C   0  0  0  0  0  0  0  0  0  0  0  0
    9.0668    2.4390   22.4733 C   0  0  0  0  0  0  0  0  0  0  0  0
    9.7918    2.9621   23.4971 C   0  0  0  0  0  0  0  0  0  0  0  0
   10.9605    2.3204   23.6472 O   0  0  0  0  0  0  0  0  0  0  0  0
   11.0408    1.3266   22.6975 N   0  0  0  0  0  0  0  0  0  0  0  0
    9.9350    1.3945   22.0090 C   0  0  0  0  0  0  0  0  0  0  0  0
    9.6389    0.4106   20.9217 C   0  0  0  0  0  0  0  0  0  0  0  0
    8.6185   -0.5656   21.3815 C   0  0  0  0  0  0  0  0  0  0  0  0
    8.8402   -1.4122   22.3590 N   0  0  0  0  0  0  0  0  0  0  0  0
    7.6404   -2.0338   22.5110 C   0  0  0  0  0  0  0  0  0  0  0  0
    7.4267   -3.0849   23.5569 C   0  0  0  0  0  0  0  0  0  0  0  0
    8.2172   -4.3927   23.2130 C   0  0  0  0  0  0  0  0  0  0  0  0
    8.5445   -5.2572   24.4589 C   0  0  0  0  0  0  0  0  0  0  0  0
    7.5324   -5.0583   25.5741 C   0  0  0  0  0  0  0  0  0  0  0  0
    7.8546   -5.8738   26.6269 F   0  0  0  0  0  0  0  0  0  0  0  0
    6.2941   -5.4701   25.1249 F   0  0  0  0  0  0  0  0  0  0  0  0
    7.4385   -3.6075   26.0612 C   0  0  0  0  0  0  0  0  0  0  0  0
    7.7918   -2.5607   24.9713 C   0  0  0  0  0  0  0  0  0  0  0  0
    8.8681   -2.3226   24.9880 H   0  0  0  0  0  0  0  0  0  0  0  0
    7.2755   -1.6124   25.1726 H   0  0  0  0  0  0  0  0  0  0  0  0
    6.4125   -3.4830   26.4238 H   0  0  0  0  0  0  0  0  0  0  0  0
    8.1055   -3.4979   26.9249 H   0  0  0  0  0  0  0  0  0  0  0  0
    9.5233   -4.9852   24.8780 H   0  0  0  0  0  0  0  0  0  0  0  0
    8.5756   -6.3256   24.2259 H   0  0  0  0  0  0  0  0  0  0  0  0
    9.1556   -4.1363   22.7005 H   0  0  0  0  0  0  0  0  0  0  0  0
    7.6141   -4.9705   22.4998 H   0  0  0  0  0  0  0  0  0  0  0  0
    6.3517   -3.3031   23.5255 H   0  0  0  0  0  0  0  0  0  0  0  0
    6.7004   -1.6300   21.6812 N   0  0  0  0  0  0  0  0  0  0  0  0
    7.3371   -0.6942   20.9259 N   0  0  0  0  0  0  0  0  0  0  0  0
    6.6454   -0.0094   19.8913 C   0  0  0  0  0  0  0  0  0  0  0  0
    5.4317    0.6336   20.1531 C   0  0  0  0  0  0  0  0  0  0  0  0
    4.8059    1.3127   19.1031 C   0  0  0  0  0  0  0  0  0  0  0  0
    5.3937    1.2995   17.8330 C   0  0  0  0  0  0  0  0  0  0  0  0
    6.5457    0.6654   17.5693 N   0  0  0  0  0  0  0  0  0  0  0  0
    7.1555    0.0371   18.5819 C   0  0  0  0  0  0  0  0  0  0  0  0
    8.1019   -0.4472   18.3490 H   0  0  0  0  0  0  0  0  0  0  0  0
    4.9295    1.8087   16.9921 H   0  0  0  0  0  0  0  0  0  0  0  0
    3.8748    1.8457   19.2526 H   0  0  0  0  0  0  0  0  0  0  0  0
    5.0069    0.5870   21.1572 H   0  0  0  0  0  0  0  0  0  0  0  0
   10.5434   -0.1499   20.6792 H   0  0  0  0  0  0  0  0  0  0  0  0
    9.2716    0.9315   20.0393 H   0  0  0  0  0  0  0  0  0  0  0  0
    9.6112    3.7736   24.1902 H   0  0  0  0  0  0  0  0  0  0  0  0
    6.9126    2.1624   22.3608 H   0  0  0  0  0  0  0  0  0  0  0  0
    7.6444    2.7048   20.8782 H   0  0  0  0  0  0  0  0  0  0  0  0
    7.4351    3.8451   22.2281 H   0  0  0  0  0  0  0  0  0  0  0  0
  1  2  1  0
  2  3  2  0
  3  4  1  0
  4  5  1  0
  5  6  2  0
  6  7  1  0
  7  8  1  0
  8  9  2  0
  9 10  1  0
 10 11  1  0
 11 12  1  0
 12 13  1  0
 13 14  1  0
 14 15  1  0
 14 16  1  0
 14 17  1  0
 17 18  1  0
 18 19  1  0
 18 20  1  0
 17 21  1  0
 17 22  1  0
 13 23  1  0
 13 24  1  0
 12 25  1  0
 12 26  1  0
 11 27  1  0
 10 28  2  0
 28 29  1  0
 29 30  1  0
 30 31  2  0
 31 32  1  0
 32 33  2  0
 33 34  1  0
 34 35  2  0
 35 36  1  0
 33 37  1  0
 32 38  1  0
 31 39  1  0
  7 40  1  0
  7 41  1  0
  3 42  1  0
  1 43  1  0
  1 44  1  0
  1 45  1  0
  6  2  1  0
 29  8  1  0
 35 30  1  0
 18 11  1  0
M  END
>  <cnnaffinity>  (1) 
-6.60619

>  <filename>  (1) 
Cc1conc1Cc1nc(C2CCC(F)(F)CC2)nn1-c1cccnc1

$$$$
