
     RDKit          3D

 39 42  0  0  0  0  0  0  0  0999 V2000
    8.2873    2.7606   22.0485 C   0  0  0  0  0  0  0  0  0  0  0  0
    9.6395    2.2910   22.4987 C   0  0  0  0  0  0  0  0  0  0  0  0
   10.2909    2.9348   23.5493 C   0  0  0  0  0  0  0  0  0  0  0  0
   11.5319    2.4673   23.9740 C   0  0  0  0  0  0  0  0  0  0  0  0
   12.1574    1.4166   23.4427 N   0  0  0  0  0  0  0  0  0  0  0  0
   11.5331    0.8123   22.4256 C   0  0  0  0  0  0  0  0  0  0  0  0
   10.3033    1.2067   21.8933 C   0  0  0  0  0  0  0  0  0  0  0  0
    9.6265    0.3820   20.8160 C   0  0  0  0  0  0  0  0  0  0  0  0
    8.6162   -0.5742   21.3632 C   0  0  0  0  0  0  0  0  0  0  0  0
    8.8423   -1.4406   22.3240 N   0  0  0  0  0  0  0  0  0  0  0  0
    7.6218   -2.0283   22.5118 C   0  0  0  0  0  0  0  0  0  0  0  0
    7.4049   -3.0459   23.5622 C   0  0  0  0  0  0  0  0  0  0  0  0
    6.2286   -3.6480   23.7684 N   0  0  0  0  0  0  0  0  0  0  0  0
    6.4476   -4.4778   24.7829 N   0  0  0  0  0  0  0  0  0  0  0  0
    7.7190   -4.4504   25.2508 C   0  0  0  0  0  0  0  0  0  0  0  0
    8.3775   -3.5294   24.4821 C   0  0  0  0  0  0  0  0  0  0  0  0
    9.4104   -3.2296   24.5551 H   0  0  0  0  0  0  0  0  0  0  0  0
    8.0367   -5.0788   26.0756 H   0  0  0  0  0  0  0  0  0  0  0  0
    5.6678   -5.0313   25.1034 H   0  0  0  0  0  0  0  0  0  0  0  0
    6.6808   -1.5880   21.6890 N   0  0  0  0  0  0  0  0  0  0  0  0
    7.3308   -0.6870   20.9227 N   0  0  0  0  0  0  0  0  0  0  0  0
    6.6484    0.0060   19.8918 C   0  0  0  0  0  0  0  0  0  0  0  0
    5.4370    0.6476   20.1630 C   0  0  0  0  0  0  0  0  0  0  0  0
    4.8106    1.3145   19.1086 C   0  0  0  0  0  0  0  0  0  0  0  0
    5.3994    1.2972   17.8377 C   0  0  0  0  0  0  0  0  0  0  0  0
    6.5578    0.6742   17.5722 N   0  0  0  0  0  0  0  0  0  0  0  0
    7.1653    0.0499   18.5866 C   0  0  0  0  0  0  0  0  0  0  0  0
    8.1148   -0.4342   18.3673 H   0  0  0  0  0  0  0  0  0  0  0  0
    4.9163    1.7842   16.9953 H   0  0  0  0  0  0  0  0  0  0  0  0
    3.8784    1.8415   19.2625 H   0  0  0  0  0  0  0  0  0  0  0  0
    5.0161    0.6065   21.1713 H   0  0  0  0  0  0  0  0  0  0  0  0
   10.3416   -0.2656   20.3078 H   0  0  0  0  0  0  0  0  0  0  0  0
    9.1614    1.0397   20.0771 H   0  0  0  0  0  0  0  0  0  0  0  0
   12.0274   -0.0617   22.0029 H   0  0  0  0  0  0  0  0  0  0  0  0
   12.0410    2.9673   24.7879 H   0  0  0  0  0  0  0  0  0  0  0  0
    9.8325    3.7925   24.0258 H   0  0  0  0  0  0  0  0  0  0  0  0
    7.9407    3.6090   22.6424 H   0  0  0  0  0  0  0  0  0  0  0  0
    7.5333    1.9676   22.1085 H   0  0  0  0  0  0  0  0  0  0  0  0
    8.3378    3.0791   21.0085 H   0  0  0  0  0  0  0  0  0  0  0  0
  1  2  1  0
  2  3  2  0
  3  4  1  0
  4  5  2  0
  5  6  1  0
  6  7  2  0
  7  8  1  0
  8  9  1  0
  9 10  2  0
 10 11  1  0
 11 12  1  0
 12 13  2  0
 13 14  1  0
 14 15  1  0
 15 16  2  0
 16 17  1  0
 15 18  1  0
 14 19  1  0
 11 20  2  0
 20 21  1  0
 21 22  1  0
 22 23  2  0
 23 24  1  0
 24 25  2  0
 25 26  1  0
 26 27  2  0
 27 28  1  0
 25 29  1  0
 24 30  1  0
 23 31  1  0
  8 32  1  0
  8 33  1  0
  6 34  1  0
  4 35  1  0
  3 36  1  0
  1 37  1  0
  1 38  1  0
  1 39  1  0
  7  2  1  0
 21  9  1  0
 27 22  1  0
 16 12  1  0
M  END
>  <cnnaffinity>  (1) 
-5.81021

>  <filename>  (1) 
Cc1ccncc1Cc1nc(-c2cc[nH]n2)nn1-c1cccnc1

$$$$
