
     RDKit          3D

 43 46  0  0  0  0  0  0  0  0999 V2000
    9.3517    1.2846   25.2026 C   0  0  0  0  0  0  0  0  0  0  0  0
    7.8890    1.0407   24.9762 C   0  0  0  0  0  0  0  0  0  0  0  0
    7.0156    0.2994   25.7439 C   0  0  0  0  0  0  0  0  0  0  0  0
    7.3953   -0.4681   27.2422 Cl  0  0  0  0  0  0  0  0  0  0  0  0
    5.7976    0.2665   25.0429 C   0  0  0  0  0  0  0  0  0  0  0  0
    5.9056    0.9335   23.9008 N   0  0  0  0  0  0  0  0  0  0  0  0
    7.1563    1.4238   23.8863 N   0  0  0  0  0  0  0  0  0  0  0  0
    7.6402    2.0004   22.6331 C   0  0  0  0  0  0  0  0  0  0  0  0
    8.6056    1.0604   22.0073 C   0  0  0  0  0  0  0  0  0  0  0  0
    9.9173    1.1498   22.1474 N   0  0  0  0  0  0  0  0  0  0  0  0
   10.3449   -0.0886   21.8030 C   0  0  0  0  0  0  0  0  0  0  0  0
   11.7491   -0.5324   21.7816 C   0  0  0  0  0  0  0  0  0  0  0  0
   12.8288    0.2379   22.2460 C   0  0  0  0  0  0  0  0  0  0  0  0
   14.1101   -0.1520   21.8691 C   0  0  0  0  0  0  0  0  0  0  0  0
   15.1185    0.6335   22.2638 F   0  0  0  0  0  0  0  0  0  0  0  0
   14.3296   -1.2446   21.0228 C   0  0  0  0  0  0  0  0  0  0  0  0
   13.2585   -2.0541   20.6602 C   0  0  0  0  0  0  0  0  0  0  0  0
   11.9863   -1.7339   21.1029 C   0  0  0  0  0  0  0  0  0  0  0  0
   11.1242   -2.3457   20.8729 H   0  0  0  0  0  0  0  0  0  0  0  0
   13.4244   -2.8858   19.9783 H   0  0  0  0  0  0  0  0  0  0  0  0
   15.2576   -1.4349   20.5180 H   0  0  0  0  0  0  0  0  0  0  0  0
   12.7032    1.1595   22.8042 H   0  0  0  0  0  0  0  0  0  0  0  0
    9.3696   -0.9071   21.4323 N   0  0  0  0  0  0  0  0  0  0  0  0
    8.2596   -0.1585   21.5470 N   0  0  0  0  0  0  0  0  0  0  0  0
    6.9833   -0.6999   21.0897 C   0  0  0  0  0  0  0  0  0  0  0  0
    6.3594    0.0620   19.9420 C   0  0  0  0  0  0  0  0  0  0  0  0
    5.1808    0.8025   20.0920 C   0  0  0  0  0  0  0  0  0  0  0  0
    4.6699    1.4821   18.9792 C   0  0  0  0  0  0  0  0  0  0  0  0
    5.3602    1.3958   17.7661 C   0  0  0  0  0  0  0  0  0  0  0  0
    6.4899    0.6890   17.6038 N   0  0  0  0  0  0  0  0  0  0  0  0
    6.9673    0.0462   18.6759 C   0  0  0  0  0  0  0  0  0  0  0  0
    7.8870   -0.5173   18.5204 H   0  0  0  0  0  0  0  0  0  0  0  0
    4.9943    1.9166   16.8820 H   0  0  0  0  0  0  0  0  0  0  0  0
    3.7646    2.0781   19.0395 H   0  0  0  0  0  0  0  0  0  0  0  0
    4.6928    0.8570   21.0715 H   0  0  0  0  0  0  0  0  0  0  0  0
    7.2085   -1.7279   20.7881 H   0  0  0  0  0  0  0  0  0  0  0  0
    6.3051   -0.7342   21.9442 H   0  0  0  0  0  0  0  0  0  0  0  0
    6.7762    2.1632   21.9915 H   0  0  0  0  0  0  0  0  0  0  0  0
    8.1538    2.9449   22.8234 H   0  0  0  0  0  0  0  0  0  0  0  0
    4.8834   -0.2439   25.3094 H   0  0  0  0  0  0  0  0  0  0  0  0
    9.9321    0.4756   24.7409 H   0  0  0  0  0  0  0  0  0  0  0  0
    9.5781    1.2830   26.2705 H   0  0  0  0  0  0  0  0  0  0  0  0
    9.6989    2.2186   24.7505 H   0  0  0  0  0  0  0  0  0  0  0  0
  1  2  1  0
  2  3  2  0
  3  4  1  0
  3  5  1  0
  5  6  2  0
  6  7  1  0
  7  8  1  0
  8  9  1  0
  9 10  2  0
 10 11  1  0
 11 12  1  0
 12 13  2  0
 13 14  1  0
 14 15  1  0
 14 16  2  0
 16 17  1  0
 17 18  2  0
 18 19  1  0
 17 20  1  0
 16 21  1  0
 13 22  1  0
 11 23  2  0
 23 24  1  0
 24 25  1  0
 25 26  1  0
 26 27  2  0
 27 28  1  0
 28 29  2  0
 29 30  1  0
 30 31  2  0
 31 32  1  0
 29 33  1  0
 28 34  1  0
 27 35  1  0
 25 36  1  0
 25 37  1  0
  8 38  1  0
  8 39  1  0
  5 40  1  0
  1 41  1  0
  1 42  1  0
  1 43  1  0
  7  2  1  0
 24  9  1  0
 31 26  1  0
 18 12  1  0
M  END
>  <cnnaffinity>  (1) 
-6.75966

>  <filename>  (1) 
Cc1c(Cl)cnn1Cc1nc(-c2cccc(F)c2)nn1Cc1cccnc1

$$$$
