
     RDKit          3D

 45 48  0  0  0  0  0  0  0  0999 V2000
    8.1547    2.6052   22.1332 C   0  0  0  0  0  0  0  0  0  0  0  0
    9.5246    2.1976   22.6201 C   0  0  0  0  0  0  0  0  0  0  0  0
   10.1708    2.9267   23.6237 C   0  0  0  0  0  0  0  0  0  0  0  0
   11.4649    2.5734   24.0151 C   0  0  0  0  0  0  0  0  0  0  0  0
   12.0720    1.4907   23.3831 C   0  0  0  0  0  0  0  0  0  0  0  0
   11.4637    0.7576   22.4390 N   0  0  0  0  0  0  0  0  0  0  0  0
   10.2230    1.0899   22.0731 C   0  0  0  0  0  0  0  0  0  0  0  0
    9.5981    0.2147   21.0144 C   0  0  0  0  0  0  0  0  0  0  0  0
    8.4524   -0.5635   21.5665 C   0  0  0  0  0  0  0  0  0  0  0  0
    8.4967   -1.2240   22.7035 N   0  0  0  0  0  0  0  0  0  0  0  0
    7.3298   -1.9190   22.7079 C   0  0  0  0  0  0  0  0  0  0  0  0
    7.0219   -2.9157   23.7754 C   0  0  0  0  0  0  0  0  0  0  0  0
    6.2210   -4.1512   23.4569 C   0  0  0  0  0  0  0  0  0  0  0  0
    7.6938   -4.2805   23.7319 C   0  0  0  0  0  0  0  0  0  0  0  0
    8.6466   -4.5206   22.5843 C   0  0  0  0  0  0  0  0  0  0  0  0
    9.6008   -4.0411   22.8315 H   0  0  0  0  0  0  0  0  0  0  0  0
    8.3033   -4.0826   21.6406 H   0  0  0  0  0  0  0  0  0  0  0  0
    8.8421   -5.5852   22.4388 H   0  0  0  0  0  0  0  0  0  0  0  0
    8.1899   -4.9145   25.0199 C   0  0  0  0  0  0  0  0  0  0  0  0
    7.5293   -4.7342   25.8721 H   0  0  0  0  0  0  0  0  0  0  0  0
    9.1802   -4.5257   25.2862 H   0  0  0  0  0  0  0  0  0  0  0  0
    8.3137   -5.9990   24.9001 H   0  0  0  0  0  0  0  0  0  0  0  0
    5.5228   -4.4916   24.2166 H   0  0  0  0  0  0  0  0  0  0  0  0
    5.8654   -4.2575   22.4320 H   0  0  0  0  0  0  0  0  0  0  0  0
    6.8694   -2.4687   24.7538 H   0  0  0  0  0  0  0  0  0  0  0  0
    6.5498   -1.6993   21.6662 N   0  0  0  0  0  0  0  0  0  0  0  0
    7.2681   -0.8151   20.9164 N   0  0  0  0  0  0  0  0  0  0  0  0
    6.6165   -0.1063   19.8530 C   0  0  0  0  0  0  0  0  0  0  0  0
    5.4321    0.5979   20.1118 C   0  0  0  0  0  0  0  0  0  0  0  0
    4.8353    1.3183   19.0740 C   0  0  0  0  0  0  0  0  0  0  0  0
    5.4396    1.3074   17.8115 C   0  0  0  0  0  0  0  0  0  0  0  0
    6.5656    0.6275   17.5470 N   0  0  0  0  0  0  0  0  0  0  0  0
    7.1340   -0.0659   18.5452 C   0  0  0  0  0  0  0  0  0  0  0  0
    8.0431   -0.6144   18.2966 H   0  0  0  0  0  0  0  0  0  0  0  0
    4.9893    1.8489   16.9811 H   0  0  0  0  0  0  0  0  0  0  0  0
    3.9176    1.8772   19.2364 H   0  0  0  0  0  0  0  0  0  0  0  0
    5.0075    0.5684   21.1150 H   0  0  0  0  0  0  0  0  0  0  0  0
    9.2866    0.8084   20.1525 H   0  0  0  0  0  0  0  0  0  0  0  0
   10.3518   -0.5079   20.6932 H   0  0  0  0  0  0  0  0  0  0  0  0
   13.0908    1.1991   23.6336 H   0  0  0  0  0  0  0  0  0  0  0  0
   11.9903    3.1229   24.7838 H   0  0  0  0  0  0  0  0  0  0  0  0
    9.6702    3.7792   24.0874 H   0  0  0  0  0  0  0  0  0  0  0  0
    8.1694    2.8279   21.0614 H   0  0  0  0  0  0  0  0  0  0  0  0
    7.4206    1.8059   22.2873 H   0  0  0  0  0  0  0  0  0  0  0  0
    7.8022    3.4988   22.6545 H   0  0  0  0  0  0  0  0  0  0  0  0
  1  2  1  0
  2  3  2  0
  3  4  1  0
  4  5  2  0
  5  6  1  0
  6  7  2  0
  7  8  1  0
  8  9  1  0
  9 10  2  0
 10 11  1  0
 11 12  1  0
 12 13  1  0
 13 14  1  0
 14 15  1  0
 15 16  1  0
 15 17  1  0
 15 18  1  0
 14 19  1  0
 19 20  1  0
 19 21  1  0
 19 22  1  0
 13 23  1  0
 13 24  1  0
 12 25  1  0
 11 26  2  0
 26 27  1  0
 27 28  1  0
 28 29  2  0
 29 30  1  0
 30 31  2  0
 31 32  1  0
 32 33  2  0
 33 34  1  0
 31 35  1  0
 30 36  1  0
 29 37  1  0
  8 38  1  0
  8 39  1  0
  5 40  1  0
  4 41  1  0
  3 42  1  0
  1 43  1  0
  1 44  1  0
  1 45  1  0
  7  2  1  0
 27  9  1  0
 33 28  1  0
 14 12  1  0
M  END
>  <cnnaffinity>  (1) 
-6.23706

>  <filename>  (1) 
Cc1cccnc1Cc1nc(C2CC2(C)C)nn1-c1cccnc1

$$$$
