
     RDKit          3D

 52 55  0  0  0  0  0  0  0  0999 V2000
   12.4645   -1.8209   21.9405 C   0  0  0  0  0  0  0  0  0  0  0  0
   11.3922   -1.0881   22.7003 C   0  0  0  0  0  0  0  0  0  0  0  0
   11.4666    0.2899   22.9453 C   0  0  0  0  0  0  0  0  0  0  0  0
   10.5203    0.9752   23.6072 N   0  0  0  0  0  0  0  0  0  0  0  0
    9.4333    0.3163   24.0117 C   0  0  0  0  0  0  0  0  0  0  0  0
    9.2328   -1.0589   23.7858 C   0  0  0  0  0  0  0  0  0  0  0  0
    7.9828   -1.6481   24.1311 N   0  0  0  0  0  0  0  0  0  0  0  0
    7.2953   -1.2306   25.2331 N   0  0  0  0  0  0  0  0  0  0  0  0
    6.2581   -2.0436   25.2667 C   0  0  0  0  0  0  0  0  0  0  0  0
    5.2101   -2.0013   26.3654 C   0  0  0  0  0  0  0  0  0  0  0  0
    4.9996   -3.4155   27.0072 C   0  0  0  0  0  0  0  0  0  0  0  0
    3.5606   -3.6306   27.4979 C   0  0  0  0  0  0  0  0  0  0  0  0
    2.6048   -3.5173   26.4449 O   0  0  0  0  0  0  0  0  0  0  0  0
    2.9322   -2.6018   25.4001 C   0  0  0  0  0  0  0  0  0  0  0  0
    3.8163   -1.4562   25.9011 C   0  0  0  0  0  0  0  0  0  0  0  0
    3.3133   -0.9998   26.7646 H   0  0  0  0  0  0  0  0  0  0  0  0
    3.9051   -0.6666   25.1508 H   0  0  0  0  0  0  0  0  0  0  0  0
    3.4571   -3.1348   24.5912 H   0  0  0  0  0  0  0  0  0  0  0  0
    1.9832   -2.2287   25.0056 H   0  0  0  0  0  0  0  0  0  0  0  0
    3.3063   -2.9134   28.2953 H   0  0  0  0  0  0  0  0  0  0  0  0
    3.4395   -4.6340   27.9163 H   0  0  0  0  0  0  0  0  0  0  0  0
    5.1941   -4.1840   26.2459 H   0  0  0  0  0  0  0  0  0  0  0  0
    5.7059   -3.5759   27.8290 H   0  0  0  0  0  0  0  0  0  0  0  0
    5.6188   -1.3036   27.1035 H   0  0  0  0  0  0  0  0  0  0  0  0
    6.2005   -2.9276   24.2323 N   0  0  0  0  0  0  0  0  0  0  0  0
    7.2643   -2.6286   23.5061 C   0  0  0  0  0  0  0  0  0  0  0  0
    7.4717   -3.0955   22.0970 C   0  0  0  0  0  0  0  0  0  0  0  0
    6.7710   -2.1907   21.0586 C   0  0  0  0  0  0  0  0  0  0  0  0
    7.3210   -0.7568   20.9759 C   0  0  0  0  0  0  0  0  0  0  0  0
    6.6646    0.0387   19.8691 C   0  0  0  0  0  0  0  0  0  0  0  0
    5.4535    0.7121   20.0901 C   0  0  0  0  0  0  0  0  0  0  0  0
    4.8244    1.3561   19.0242 C   0  0  0  0  0  0  0  0  0  0  0  0
    5.4338    1.3212   17.7668 C   0  0  0  0  0  0  0  0  0  0  0  0
    6.5987    0.6999   17.5288 N   0  0  0  0  0  0  0  0  0  0  0  0
    7.1885    0.0849   18.5650 C   0  0  0  0  0  0  0  0  0  0  0  0
    8.1436   -0.3946   18.3410 H   0  0  0  0  0  0  0  0  0  0  0  0
    4.9685    1.8119   16.9140 H   0  0  0  0  0  0  0  0  0  0  0  0
    3.8876    1.8860   19.1581 H   0  0  0  0  0  0  0  0  0  0  0  0
    5.0215    0.7422   21.0928 H   0  0  0  0  0  0  0  0  0  0  0  0
    7.1542   -0.2395   21.9293 H   0  0  0  0  0  0  0  0  0  0  0  0
    8.4090   -0.7838   20.8268 H   0  0  0  0  0  0  0  0  0  0  0  0
    6.8500   -2.6692   20.0778 H   0  0  0  0  0  0  0  0  0  0  0  0
    5.6974   -2.1535   21.2837 H   0  0  0  0  0  0  0  0  0  0  0  0
    7.0711   -4.1100   22.0184 H   0  0  0  0  0  0  0  0  0  0  0  0
    8.5348   -3.1687   21.8587 H   0  0  0  0  0  0  0  0  0  0  0  0
   10.2696   -1.7771   23.1775 C   0  0  0  0  0  0  0  0  0  0  0  0
   10.2173   -2.8591   23.0457 H   0  0  0  0  0  0  0  0  0  0  0  0
    8.6558    0.9078   24.4905 H   0  0  0  0  0  0  0  0  0  0  0  0
   12.3207    0.8516   22.5710 H   0  0  0  0  0  0  0  0  0  0  0  0
   13.4353   -1.3209   22.0179 H   0  0  0  0  0  0  0  0  0  0  0  0
   12.5476   -2.8376   22.3314 H   0  0  0  0  0  0  0  0  0  0  0  0
   12.2179   -1.9114   20.8763 H   0  0  0  0  0  0  0  0  0  0  0  0
  1  2  1  0
  2  3  2  0
  3  4  1  0
  4  5  2  0
  5  6  1  0
  6  7  1  0
  7  8  1  0
  8  9  2  0
  9 10  1  0
 10 11  1  0
 11 12  1  0
 12 13  1  0
 13 14  1  0
 14 15  1  0
 15 16  1  0
 15 17  1  0
 14 18  1  0
 14 19  1  0
 12 20  1  0
 12 21  1  0
 11 22  1  0
 11 23  1  0
 10 24  1  0
  9 25  1  0
 25 26  2  0
 26 27  1  0
 27 28  1  0
 28 29  1  0
 29 30  1  0
 30 31  2  0
 31 32  1  0
 32 33  2  0
 33 34  1  0
 34 35  2  0
 35 36  1  0
 33 37  1  0
 32 38  1  0
 31 39  1  0
 29 40  1  0
 29 41  1  0
 28 42  1  0
 28 43  1  0
 27 44  1  0
 27 45  1  0
  6 46  2  0
 46 47  1  0
  5 48  1  0
  3 49  1  0
  1 50  1  0
  1 51  1  0
  1 52  1  0
 46  2  1  0
 26  7  1  0
 35 30  1  0
 15 10  1  0
M  END
>  <cnnaffinity>  (1) 
-6.03965

>  <filename>  (1) 
Cc1cncc(-n2nc(C3CCOCC3)nc2CCCc2cccnc2)c1

$$$$
