
     RDKit          3D

 34 36  0  0  0  0  0  0  0  0999 V2000
    9.3127   -4.7230   26.4618 C   0  0  0  0  0  0  0  0  0  0  0  0
    8.1882   -4.2831   25.5497 C   0  0  0  0  0  0  0  0  0  0  0  0
    6.8834   -4.7577   25.7485 C   0  0  0  0  0  0  0  0  0  0  0  0
    5.8337   -4.3363   24.9269 C   0  0  0  0  0  0  0  0  0  0  0  0
    6.0691   -3.4345   23.8929 C   0  0  0  0  0  0  0  0  0  0  0  0
    7.3707   -2.9484   23.6741 C   0  0  0  0  0  0  0  0  0  0  0  0
    7.6147   -1.9915   22.5752 C   0  0  0  0  0  0  0  0  0  0  0  0
    6.6705   -1.5338   21.7670 N   0  0  0  0  0  0  0  0  0  0  0  0
    7.3373   -0.6895   20.9462 N   0  0  0  0  0  0  0  0  0  0  0  0
    6.6510    0.0006   19.9048 C   0  0  0  0  0  0  0  0  0  0  0  0
    5.4360    0.6424   20.1679 C   0  0  0  0  0  0  0  0  0  0  0  0
    4.8139    1.3098   19.1097 C   0  0  0  0  0  0  0  0  0  0  0  0
    5.4019    1.2953   17.8375 C   0  0  0  0  0  0  0  0  0  0  0  0
    6.5604    0.6715   17.5807 N   0  0  0  0  0  0  0  0  0  0  0  0
    7.1663    0.0488   18.5960 C   0  0  0  0  0  0  0  0  0  0  0  0
    8.1106   -0.4347   18.3612 H   0  0  0  0  0  0  0  0  0  0  0  0
    4.9254    1.7862   16.9934 H   0  0  0  0  0  0  0  0  0  0  0  0
    3.8821    1.8393   19.2591 H   0  0  0  0  0  0  0  0  0  0  0  0
    5.0160    0.6077   21.1767 H   0  0  0  0  0  0  0  0  0  0  0  0
    8.6421   -0.6343   21.3552 C   0  0  0  0  0  0  0  0  0  0  0  0
    9.6867    0.1993   20.6618 C   0  0  0  0  0  0  0  0  0  0  0  0
   10.7953    0.6138   21.4251 O   0  0  0  0  0  0  0  0  0  0  0  0
   11.2884   -0.1703   21.7041 H   0  0  0  0  0  0  0  0  0  0  0  0
    9.9945   -0.4075   19.7971 H   0  0  0  0  0  0  0  0  0  0  0  0
    9.2261    1.1099   20.2770 H   0  0  0  0  0  0  0  0  0  0  0  0
    8.8491   -1.4910   22.3259 N   0  0  0  0  0  0  0  0  0  0  0  0
    8.4216   -3.3747   24.5115 C   0  0  0  0  0  0  0  0  0  0  0  0
    9.4333   -2.9948   24.3606 H   0  0  0  0  0  0  0  0  0  0  0  0
    5.2618   -3.0922   23.2490 H   0  0  0  0  0  0  0  0  0  0  0  0
    4.8279   -4.7064   25.0949 H   0  0  0  0  0  0  0  0  0  0  0  0
    6.6971   -5.4594   26.5594 H   0  0  0  0  0  0  0  0  0  0  0  0
    9.4159   -4.0442   27.3156 H   0  0  0  0  0  0  0  0  0  0  0  0
   10.2774   -4.7410   25.9440 H   0  0  0  0  0  0  0  0  0  0  0  0
    9.1367   -5.7238   26.8689 H   0  0  0  0  0  0  0  0  0  0  0  0
  1  2  1  0
  2  3  2  0
  3  4  1  0
  4  5  2  0
  5  6  1  0
  6  7  1  0
  7  8  2  0
  8  9  1  0
  9 10  1  0
 10 11  2  0
 11 12  1  0
 12 13  2  0
 13 14  1  0
 14 15  2  0
 15 16  1  0
 13 17  1  0
 12 18  1  0
 11 19  1  0
  9 20  1  0
 20 21  1  0
 21 22  1  0
 22 23  1  0
 21 24  1  0
 21 25  1  0
 20 26  2  0
  6 27  2  0
 27 28  1  0
  5 29  1  0
  4 30  1  0
  3 31  1  0
  1 32  1  0
  1 33  1  0
  1 34  1  0
 27  2  1  0
 26  7  1  0
 15 10  1  0
M  END
>  <cnnaffinity>  (1) 
-4.99642

>  <filename>  (1) 
Cc1cccc(-c2nc(CO)n(-c3cccnc3)n2)c1

$$$$
