
     RDKit          3D

 47 50  0  0  0  0  0  0  0  0999 V2000
   13.5175    0.9487   21.9817 C   0  0  0  0  0  0  0  0  0  0  0  0
   12.7151    0.4568   23.1108 C   0  0  0  0  0  0  0  0  0  0  0  0
   13.2598    0.7038   24.3384 C   0  0  0  0  0  0  0  0  0  0  0  0
   12.6231    0.2753   25.4649 C   0  0  0  0  0  0  0  0  0  0  0  0
   11.3804   -0.3462   25.3410 C   0  0  0  0  0  0  0  0  0  0  0  0
   10.8394   -0.6267   24.1411 N   0  0  0  0  0  0  0  0  0  0  0  0
   11.4967   -0.2354   23.0357 C   0  0  0  0  0  0  0  0  0  0  0  0
   10.8735   -0.4798   21.6720 C   0  0  0  0  0  0  0  0  0  0  0  0
   10.0793    0.7571   21.1358 C   0  0  0  0  0  0  0  0  0  0  0  0
    8.8920    1.0803   21.9885 C   0  0  0  0  0  0  0  0  0  0  0  0
    8.8476    1.9556   22.9729 N   0  0  0  0  0  0  0  0  0  0  0  0
    7.7365    1.5845   23.6659 C   0  0  0  0  0  0  0  0  0  0  0  0
    7.3671    2.2147   24.9716 C   0  0  0  0  0  0  0  0  0  0  0  0
    6.1613    1.9085   25.6365 C   0  0  0  0  0  0  0  0  0  0  0  0
    5.8828    2.5292   26.8557 C   0  0  0  0  0  0  0  0  0  0  0  0
    6.7040    3.4040   27.4528 N   0  0  0  0  0  0  0  0  0  0  0  0
    7.8606    3.6792   26.8351 C   0  0  0  0  0  0  0  0  0  0  0  0
    8.2373    3.1213   25.6134 C   0  0  0  0  0  0  0  0  0  0  0  0
    9.1951    3.3853   25.1759 H   0  0  0  0  0  0  0  0  0  0  0  0
    8.5208    4.3853   27.3362 H   0  0  0  0  0  0  0  0  0  0  0  0
    4.9514    2.3095   27.3759 H   0  0  0  0  0  0  0  0  0  0  0  0
    5.4594    1.1890   25.2263 H   0  0  0  0  0  0  0  0  0  0  0  0
    7.0636    0.5868   23.1113 N   0  0  0  0  0  0  0  0  0  0  0  0
    7.8185    0.2630   22.0389 N   0  0  0  0  0  0  0  0  0  0  0  0
    7.3418   -0.6869   21.0336 C   0  0  0  0  0  0  0  0  0  0  0  0
    6.6477   -0.0068   19.8745 C   0  0  0  0  0  0  0  0  0  0  0  0
    5.4388    0.6586   20.1108 C   0  0  0  0  0  0  0  0  0  0  0  0
    4.8206    1.3174   19.0505 C   0  0  0  0  0  0  0  0  0  0  0  0
    5.4342    1.2885   17.7952 C   0  0  0  0  0  0  0  0  0  0  0  0
    6.5845    0.6435   17.5461 N   0  0  0  0  0  0  0  0  0  0  0  0
    7.1676    0.0128   18.5738 C   0  0  0  0  0  0  0  0  0  0  0  0
    8.0942   -0.5210   18.3433 H   0  0  0  0  0  0  0  0  0  0  0  0
    4.9781    1.7978   16.9493 H   0  0  0  0  0  0  0  0  0  0  0  0
    3.8887    1.8535   19.1880 H   0  0  0  0  0  0  0  0  0  0  0  0
    5.0105    0.6589   21.1156 H   0  0  0  0  0  0  0  0  0  0  0  0
    6.6476   -1.3515   21.5549 H   0  0  0  0  0  0  0  0  0  0  0  0
    8.1888   -1.2926   20.6882 H   0  0  0  0  0  0  0  0  0  0  0  0
    9.7393    0.5680   20.1124 H   0  0  0  0  0  0  0  0  0  0  0  0
   10.7213    1.6446   21.1041 H   0  0  0  0  0  0  0  0  0  0  0  0
   10.2102   -1.3452   21.7607 H   0  0  0  0  0  0  0  0  0  0  0  0
   11.6730   -0.7324   20.9625 H   0  0  0  0  0  0  0  0  0  0  0  0
   10.7984   -0.6664   26.1965 H   0  0  0  0  0  0  0  0  0  0  0  0
   13.2620    0.4375   26.3089 H   0  0  0  0  0  0  0  0  0  0  0  0
   14.2072    1.2137   24.3732 H   0  0  0  0  0  0  0  0  0  0  0  0
   12.8793    1.5014   21.2824 H   0  0  0  0  0  0  0  0  0  0  0  0
   14.2874    1.6323   22.3554 H   0  0  0  0  0  0  0  0  0  0  0  0
   14.0561    0.1281   21.4925 H   0  0  0  0  0  0  0  0  0  0  0  0
  1  2  1  0
  2  3  2  0
  3  4  1  0
  4  5  2  0
  5  6  1  0
  6  7  2  0
  7  8  1  0
  8  9  1  0
  9 10  1  0
 10 11  2  0
 11 12  1  0
 12 13  1  0
 13 14  2  0
 14 15  1  0
 15 16  2  0
 16 17  1  0
 17 18  2  0
 18 19  1  0
 17 20  1  0
 15 21  1  0
 14 22  1  0
 12 23  2  0
 23 24  1  0
 24 25  1  0
 25 26  1  0
 26 27  2  0
 27 28  1  0
 28 29  2  0
 29 30  1  0
 30 31  2  0
 31 32  1  0
 29 33  1  0
 28 34  1  0
 27 35  1  0
 25 36  1  0
 25 37  1  0
  9 38  1  0
  9 39  1  0
  8 40  1  0
  8 41  1  0
  5 42  1  0
  4 43  1  0
  3 44  1  0
  1 45  1  0
  1 46  1  0
  1 47  1  0
  7  2  1  0
 24 10  1  0
 31 26  1  0
 18 13  1  0
M  END
>  <cnnaffinity>  (1) 
-6.17706

>  <filename>  (1) 
Cc1cccnc1CCc1nc(-c2ccncc2)nn1Cc1cccnc1

$$$$
