
     RDKit          3D

 47 50  0  0  0  0  0  0  0  0999 V2000
   14.4068    1.0779   22.9301 C   0  0  0  0  0  0  0  0  0  0  0  0
   13.4170    0.1148   22.3358 C   0  0  0  0  0  0  0  0  0  0  0  0
   13.8429   -1.0380   21.6540 C   0  0  0  0  0  0  0  0  0  0  0  0
   12.9228   -1.8567   21.0102 C   0  0  0  0  0  0  0  0  0  0  0  0
   11.5617   -1.6015   21.1298 C   0  0  0  0  0  0  0  0  0  0  0  0
   11.1055   -0.4688   21.8181 C   0  0  0  0  0  0  0  0  0  0  0  0
    9.6517   -0.2033   21.8522 C   0  0  0  0  0  0  0  0  0  0  0  0
    8.7554   -1.0207   21.3101 N   0  0  0  0  0  0  0  0  0  0  0  0
    7.5759   -0.4276   21.5969 N   0  0  0  0  0  0  0  0  0  0  0  0
    6.3453   -0.8928   20.9572 C   0  0  0  0  0  0  0  0  0  0  0  0
    5.9476   -0.0507   19.7618 C   0  0  0  0  0  0  0  0  0  0  0  0
    4.7883    0.7295   19.7248 C   0  0  0  0  0  0  0  0  0  0  0  0
    4.5563    1.5393   18.6092 C   0  0  0  0  0  0  0  0  0  0  0  0
    5.4842    1.5248   17.5635 C   0  0  0  0  0  0  0  0  0  0  0  0
    6.5959    0.7731   17.5754 N   0  0  0  0  0  0  0  0  0  0  0  0
    6.8158    0.0174   18.6570 C   0  0  0  0  0  0  0  0  0  0  0  0
    7.7356   -0.5702   18.6542 H   0  0  0  0  0  0  0  0  0  0  0  0
    5.3350    2.1502   16.6834 H   0  0  0  0  0  0  0  0  0  0  0  0
    3.6858    2.1821   18.5427 H   0  0  0  0  0  0  0  0  0  0  0  0
    4.0734    0.7046   20.5521 H   0  0  0  0  0  0  0  0  0  0  0  0
    5.5509   -0.9011   21.7042 H   0  0  0  0  0  0  0  0  0  0  0  0
    6.5240   -1.9323   20.6680 H   0  0  0  0  0  0  0  0  0  0  0  0
    7.8055    0.7058   22.2983 C   0  0  0  0  0  0  0  0  0  0  0  0
    6.7826    1.5733   22.9799 C   0  0  0  0  0  0  0  0  0  0  0  0
    6.7880    1.3296   24.5276 C   0  0  0  0  0  0  0  0  0  0  0  0
    5.8344    2.1153   25.3856 C   0  0  0  0  0  0  0  0  0  0  0  0
    6.3472    3.0240   26.2234 N   0  0  0  0  0  0  0  0  0  0  0  0
    5.4997    3.6817   27.0171 C   0  0  0  0  0  0  0  0  0  0  0  0
    4.1373    3.4240   26.9950 C   0  0  0  0  0  0  0  0  0  0  0  0
    3.2873    4.0774   27.7993 F   0  0  0  0  0  0  0  0  0  0  0  0
    3.6949    2.4619   26.1000 C   0  0  0  0  0  0  0  0  0  0  0  0
    4.5332    1.8130   25.2897 N   0  0  0  0  0  0  0  0  0  0  0  0
    2.6385    2.1993   26.0494 H   0  0  0  0  0  0  0  0  0  0  0  0
    5.9146    4.4258   27.6978 H   0  0  0  0  0  0  0  0  0  0  0  0
    7.7973    1.5117   24.9105 H   0  0  0  0  0  0  0  0  0  0  0  0
    6.5570    0.2752   24.7132 H   0  0  0  0  0  0  0  0  0  0  0  0
    5.7819    1.4221   22.5453 H   0  0  0  0  0  0  0  0  0  0  0  0
    7.0919    2.6009   22.7507 H   0  0  0  0  0  0  0  0  0  0  0  0
    9.1059    0.8881   22.4393 N   0  0  0  0  0  0  0  0  0  0  0  0
   12.0430    0.3732   22.4427 C   0  0  0  0  0  0  0  0  0  0  0  0
   11.7007    1.2366   23.0162 H   0  0  0  0  0  0  0  0  0  0  0  0
   10.8108   -2.2681   20.7194 H   0  0  0  0  0  0  0  0  0  0  0  0
   13.3076   -2.6470   20.3721 H   0  0  0  0  0  0  0  0  0  0  0  0
   14.8844   -1.3327   21.6213 H   0  0  0  0  0  0  0  0  0  0  0  0
   14.0367    2.1090   22.9138 H   0  0  0  0  0  0  0  0  0  0  0  0
   15.3560    1.0725   22.3876 H   0  0  0  0  0  0  0  0  0  0  0  0
   14.5905    0.8032   23.9698 H   0  0  0  0  0  0  0  0  0  0  0  0
  1  2  1  0
  2  3  2  0
  3  4  1  0
  4  5  2  0
  5  6  1  0
  6  7  1  0
  7  8  2  0
  8  9  1  0
  9 10  1  0
 10 11  1  0
 11 12  2  0
 12 13  1  0
 13 14  2  0
 14 15  1  0
 15 16  2  0
 16 17  1  0
 14 18  1  0
 13 19  1  0
 12 20  1  0
 10 21  1  0
 10 22  1  0
  9 23  1  0
 23 24  1  0
 24 25  1  0
 25 26  1  0
 26 27  2  0
 27 28  1  0
 28 29  2  0
 29 30  1  0
 29 31  1  0
 31 32  2  0
 31 33  1  0
 28 34  1  0
 25 35  1  0
 25 36  1  0
 24 37  1  0
 24 38  1  0
 23 39  2  0
  6 40  2  0
 40 41  1  0
  5 42  1  0
  4 43  1  0
  3 44  1  0
  1 45  1  0
  1 46  1  0
  1 47  1  0
 40  2  1  0
 39  7  1  0
 16 11  1  0
 32 26  1  0
M  END
>  <cnnaffinity>  (1) 
-6.66376

>  <filename>  (1) 
Cc1cccc(-c2nc(CCc3ncc(F)cn3)n(Cc3cccnc3)n2)c1

$$$$
