
     RDKit          3D

 49 52  0  0  0  0  0  0  0  0999 V2000
    9.1937   -1.6320   27.1370 C   0  0  0  0  0  0  0  0  0  0  0  0
    8.7079   -2.9490   26.4880 C   0  0  0  0  0  0  0  0  0  0  0  0
    9.4873   -3.2783   25.1743 C   0  0  0  0  0  0  0  0  0  0  0  0
    8.6102   -3.9353   24.0799 C   0  0  0  0  0  0  0  0  0  0  0  0
    7.3775   -3.0625   23.6866 C   0  0  0  0  0  0  0  0  0  0  0  0
    7.6765   -2.1569   22.5216 C   0  0  0  0  0  0  0  0  0  0  0  0
    6.7620   -1.6936   21.6969 N   0  0  0  0  0  0  0  0  0  0  0  0
    7.4403   -0.7419   20.9836 N   0  0  0  0  0  0  0  0  0  0  0  0
    6.7656   -0.0293   19.9418 C   0  0  0  0  0  0  0  0  0  0  0  0
    5.5414    0.6092   20.1893 C   0  0  0  0  0  0  0  0  0  0  0  0
    4.9064    1.2736   19.1337 C   0  0  0  0  0  0  0  0  0  0  0  0
    5.5049    1.2684   17.8687 C   0  0  0  0  0  0  0  0  0  0  0  0
    6.6617    0.6382   17.6159 N   0  0  0  0  0  0  0  0  0  0  0  0
    7.2709    0.0084   18.6294 C   0  0  0  0  0  0  0  0  0  0  0  0
    8.1918   -0.5145   18.3788 H   0  0  0  0  0  0  0  0  0  0  0  0
    5.0377    1.7775   17.0264 H   0  0  0  0  0  0  0  0  0  0  0  0
    3.9648    1.7946   19.2738 H   0  0  0  0  0  0  0  0  0  0  0  0
    5.1037    0.5652   21.1870 H   0  0  0  0  0  0  0  0  0  0  0  0
    8.7106   -0.6574   21.4838 C   0  0  0  0  0  0  0  0  0  0  0  0
    9.6221    0.5262   21.3801 C   0  0  0  0  0  0  0  0  0  0  0  0
    9.0601    1.7358   22.0965 C   0  0  0  0  0  0  0  0  0  0  0  0
    8.2262    2.6304   21.4912 C   0  0  0  0  0  0  0  0  0  0  0  0
    7.9151    3.6053   22.3740 N   0  0  0  0  0  0  0  0  0  0  0  0
    7.1900    4.8213   22.0434 C   0  0  0  0  0  0  0  0  0  0  0  0
    6.9750    5.3761   22.9600 H   0  0  0  0  0  0  0  0  0  0  0  0
    7.7930    5.4456   21.3729 H   0  0  0  0  0  0  0  0  0  0  0  0
    6.2584    4.5528   21.5313 H   0  0  0  0  0  0  0  0  0  0  0  0
    8.4745    3.3773   23.5716 N   0  0  0  0  0  0  0  0  0  0  0  0
    9.1504    2.2470   23.4123 C   0  0  0  0  0  0  0  0  0  0  0  0
   10.0197    1.5251   24.7220 Cl  0  0  0  0  0  0  0  0  0  0  0  0
    7.8040    2.5762   20.5056 H   0  0  0  0  0  0  0  0  0  0  0  0
   10.5868    0.2311   21.8007 H   0  0  0  0  0  0  0  0  0  0  0  0
    9.7823    0.7521   20.3235 H   0  0  0  0  0  0  0  0  0  0  0  0
    8.9046   -1.5964   22.3808 N   0  0  0  0  0  0  0  0  0  0  0  0
    6.8832   -2.1988   24.9006 C   0  0  0  0  0  0  0  0  0  0  0  0
    7.1755   -2.9067   26.2270 C   0  0  0  0  0  0  0  0  0  0  0  0
    6.6598   -2.4182   27.0642 H   0  0  0  0  0  0  0  0  0  0  0  0
    6.7817   -3.9331   26.1806 H   0  0  0  0  0  0  0  0  0  0  0  0
    7.4171   -1.2329   24.9064 H   0  0  0  0  0  0  0  0  0  0  0  0
    5.8212   -1.9606   24.7917 H   0  0  0  0  0  0  0  0  0  0  0  0
    6.5565   -3.7149   23.3678 H   0  0  0  0  0  0  0  0  0  0  0  0
    9.2228   -4.1455   23.1972 H   0  0  0  0  0  0  0  0  0  0  0  0
    8.2497   -4.9052   24.4451 H   0  0  0  0  0  0  0  0  0  0  0  0
    9.8978   -2.3519   24.7481 H   0  0  0  0  0  0  0  0  0  0  0  0
   10.3535   -3.9145   25.3985 H   0  0  0  0  0  0  0  0  0  0  0  0
    8.8866   -3.7507   27.2174 H   0  0  0  0  0  0  0  0  0  0  0  0
    9.3115   -0.8292   26.3987 H   0  0  0  0  0  0  0  0  0  0  0  0
    8.4571   -1.2717   27.8603 H   0  0  0  0  0  0  0  0  0  0  0  0
   10.1405   -1.7414   27.6766 H   0  0  0  0  0  0  0  0  0  0  0  0
  1  2  1  0
  2  3  1  0
  3  4  1  0
  4  5  1  0
  5  6  1  0
  6  7  2  0
  7  8  1  0
  8  9  1  0
  9 10  2  0
 10 11  1  0
 11 12  2  0
 12 13  1  0
 13 14  2  0
 14 15  1  0
 12 16  1  0
 11 17  1  0
 10 18  1  0
  8 19  1  0
 19 20  1  0
 20 21  1  0
 21 22  2  0
 22 23  1  0
 23 24  1  0
 24 25  1  0
 24 26  1  0
 24 27  1  0
 23 28  1  0
 28 29  2  0
 29 30  1  0
 22 31  1  0
 20 32  1  0
 20 33  1  0
 19 34  2  0
  5 35  1  0
 35 36  1  0
 36 37  1  0
 36 38  1  0
 35 39  1  0
 35 40  1  0
  5 41  1  0
  4 42  1  0
  4 43  1  0
  3 44  1  0
  3 45  1  0
  2 46  1  0
  1 47  1  0
  1 48  1  0
  1 49  1  0
 36  2  1  0
 34  6  1  0
 14  9  1  0
 29 21  1  0
M  END
>  <cnnaffinity>  (1) 
-6.53465

>  <filename>  (1) 
CC1CCC(c2nc(Cc3cn(C)nc3Cl)n(-c3cccnc3)n2)CC1

$$$$
