
     RDKit          3D

 43 46  0  0  0  0  0  0  0  0999 V2000
   13.9598    0.8255   23.5784 C   0  0  0  0  0  0  0  0  0  0  0  0
   12.8905    0.0150   22.8766 C   0  0  0  0  0  0  0  0  0  0  0  0
   11.5160    0.2980   22.9441 C   0  0  0  0  0  0  0  0  0  0  0  0
   10.5739   -0.4371   22.1832 C   0  0  0  0  0  0  0  0  0  0  0  0
    9.1232   -0.1619   22.2106 C   0  0  0  0  0  0  0  0  0  0  0  0
    8.2681   -0.7584   21.3835 N   0  0  0  0  0  0  0  0  0  0  0  0
    7.0746   -0.2136   21.7073 N   0  0  0  0  0  0  0  0  0  0  0  0
    5.8841   -0.5282   20.9170 C   0  0  0  0  0  0  0  0  0  0  0  0
    5.7418    0.2074   19.5920 C   0  0  0  0  0  0  0  0  0  0  0  0
    4.6213    1.0038   19.3360 C   0  0  0  0  0  0  0  0  0  0  0  0
    4.5332    1.6894   18.1246 C   0  0  0  0  0  0  0  0  0  0  0  0
    5.5613    1.5295   17.1937 C   0  0  0  0  0  0  0  0  0  0  0  0
    6.6332    0.7509   17.4020 N   0  0  0  0  0  0  0  0  0  0  0  0
    6.7155    0.1168   18.5805 C   0  0  0  0  0  0  0  0  0  0  0  0
    7.6021   -0.4974   18.7341 H   0  0  0  0  0  0  0  0  0  0  0  0
    5.5283    2.0641   16.2458 H   0  0  0  0  0  0  0  0  0  0  0  0
    3.7014    2.3523   17.9123 H   0  0  0  0  0  0  0  0  0  0  0  0
    3.8317    1.1005   20.0834 H   0  0  0  0  0  0  0  0  0  0  0  0
    5.8626   -1.6133   20.7688 H   0  0  0  0  0  0  0  0  0  0  0  0
    5.0279   -0.2680   21.5360 H   0  0  0  0  0  0  0  0  0  0  0  0
    7.2590    0.6720   22.7172 C   0  0  0  0  0  0  0  0  0  0  0  0
    6.2022    1.4957   23.3901 C   0  0  0  0  0  0  0  0  0  0  0  0
    5.8476    1.0426   24.7807 C   0  0  0  0  0  0  0  0  0  0  0  0
    6.4821    1.2701   25.9823 C   0  0  0  0  0  0  0  0  0  0  0  0
    5.7268    0.5635   26.9400 C   0  0  0  0  0  0  0  0  0  0  0  0
    4.7012   -0.0684   26.3787 N   0  0  0  0  0  0  0  0  0  0  0  0
    4.8015    0.2304   25.0719 N   0  0  0  0  0  0  0  0  0  0  0  0
    4.2345   -0.2918   24.4151 H   0  0  0  0  0  0  0  0  0  0  0  0
    5.8899    0.4905   28.0098 H   0  0  0  0  0  0  0  0  0  0  0  0
    7.3867    1.8381   26.1503 H   0  0  0  0  0  0  0  0  0  0  0  0
    6.6299    2.4960   23.4761 H   0  0  0  0  0  0  0  0  0  0  0  0
    5.3040    1.5881   22.7731 H   0  0  0  0  0  0  0  0  0  0  0  0
    8.5357    0.7391   23.0348 N   0  0  0  0  0  0  0  0  0  0  0  0
   11.0326   -1.4419   21.3145 C   0  0  0  0  0  0  0  0  0  0  0  0
   12.3850   -1.7461   21.2400 C   0  0  0  0  0  0  0  0  0  0  0  0
   13.2730   -1.0510   22.0436 C   0  0  0  0  0  0  0  0  0  0  0  0
   14.5691   -1.4001   21.9828 F   0  0  0  0  0  0  0  0  0  0  0  0
   12.7855   -2.4621   20.5334 H   0  0  0  0  0  0  0  0  0  0  0  0
   10.3102   -1.9596   20.6890 H   0  0  0  0  0  0  0  0  0  0  0  0
   11.1713    1.1272   23.5673 H   0  0  0  0  0  0  0  0  0  0  0  0
   13.5528    1.7201   24.0600 H   0  0  0  0  0  0  0  0  0  0  0  0
   14.4932    0.2410   24.3367 H   0  0  0  0  0  0  0  0  0  0  0  0
   14.7213    1.1520   22.8596 H   0  0  0  0  0  0  0  0  0  0  0  0
  1  2  1  0
  2  3  2  0
  3  4  1  0
  4  5  1  0
  5  6  2  0
  6  7  1  0
  7  8  1  0
  8  9  1  0
  9 10  2  0
 10 11  1  0
 11 12  2  0
 12 13  1  0
 13 14  2  0
 14 15  1  0
 12 16  1  0
 11 17  1  0
 10 18  1  0
  8 19  1  0
  8 20  1  0
  7 21  1  0
 21 22  1  0
 22 23  1  0
 23 24  2  0
 24 25  1  0
 25 26  2  0
 26 27  1  0
 27 28  1  0
 25 29  1  0
 24 30  1  0
 22 31  1  0
 22 32  1  0
 21 33  2  0
  4 34  2  0
 34 35  1  0
 35 36  2  0
 36 37  1  0
 35 38  1  0
 34 39  1  0
  3 40  1  0
  1 41  1  0
  1 42  1  0
  1 43  1  0
 36  2  1  0
 33  5  1  0
 14  9  1  0
 27 23  1  0
M  END
>  <cnnaffinity>  (1) 
-6.14077

>  <filename>  (1) 
Cc1cc(-c2nc(Cc3ccn[nH]3)n(Cc3cccnc3)n2)ccc1F

$$$$
