
     RDKit          3D

 41 44  0  0  0  0  0  0  0  0999 V2000
    7.9572    2.7231   21.9974 C   0  0  0  0  0  0  0  0  0  0  0  0
    9.2989    2.3659   22.5597 C   0  0  0  0  0  0  0  0  0  0  0  0
    9.9950    2.9187   23.6055 C   0  0  0  0  0  0  0  0  0  0  0  0
   11.1907    2.1664   23.7790 C   0  0  0  0  0  0  0  0  0  0  0  0
   11.1955    1.1734   22.8373 C   0  0  0  0  0  0  0  0  0  0  0  0
   12.1613    0.0504   22.6223 C   0  0  0  0  0  0  0  0  0  0  0  0
   12.9119    0.0195   23.4152 H   0  0  0  0  0  0  0  0  0  0  0  0
   11.6309   -0.9090   22.6153 H   0  0  0  0  0  0  0  0  0  0  0  0
   12.7084    0.1308   21.6803 H   0  0  0  0  0  0  0  0  0  0  0  0
   10.0561    1.3200   22.0669 N   0  0  0  0  0  0  0  0  0  0  0  0
    9.6425    0.4304   20.9966 C   0  0  0  0  0  0  0  0  0  0  0  0
    8.6062   -0.5386   21.4465 C   0  0  0  0  0  0  0  0  0  0  0  0
    8.8111   -1.4086   22.4078 N   0  0  0  0  0  0  0  0  0  0  0  0
    7.6044   -2.0468   22.5241 C   0  0  0  0  0  0  0  0  0  0  0  0
    7.3944   -3.0941   23.5444 C   0  0  0  0  0  0  0  0  0  0  0  0
    6.2319   -3.7280   23.7404 N   0  0  0  0  0  0  0  0  0  0  0  0
    6.4667   -4.5384   24.7699 N   0  0  0  0  0  0  0  0  0  0  0  0
    7.7288   -4.4716   25.2514 C   0  0  0  0  0  0  0  0  0  0  0  0
    8.3738   -3.5431   24.4761 C   0  0  0  0  0  0  0  0  0  0  0  0
    9.3933   -3.2027   24.5545 H   0  0  0  0  0  0  0  0  0  0  0  0
    8.0421   -5.0867   26.0885 H   0  0  0  0  0  0  0  0  0  0  0  0
    5.7013   -5.0912   25.1146 H   0  0  0  0  0  0  0  0  0  0  0  0
    6.6901   -1.6184   21.6647 N   0  0  0  0  0  0  0  0  0  0  0  0
    7.3384   -0.6697   20.9496 N   0  0  0  0  0  0  0  0  0  0  0  0
    6.6573    0.0037   19.8825 C   0  0  0  0  0  0  0  0  0  0  0  0
    5.4370    0.6423   20.1337 C   0  0  0  0  0  0  0  0  0  0  0  0
    4.8038    1.3185   19.0845 C   0  0  0  0  0  0  0  0  0  0  0  0
    5.4007    1.3079   17.8186 C   0  0  0  0  0  0  0  0  0  0  0  0
    6.5456    0.6588   17.5533 N   0  0  0  0  0  0  0  0  0  0  0  0
    7.1567    0.0253   18.5663 C   0  0  0  0  0  0  0  0  0  0  0  0
    8.0797   -0.4966   18.3144 H   0  0  0  0  0  0  0  0  0  0  0  0
    4.9351    1.8378   16.9882 H   0  0  0  0  0  0  0  0  0  0  0  0
    3.8696    1.8524   19.2416 H   0  0  0  0  0  0  0  0  0  0  0  0
    5.0040    0.5792   21.1321 H   0  0  0  0  0  0  0  0  0  0  0  0
   10.5174   -0.1469   20.6962 H   0  0  0  0  0  0  0  0  0  0  0  0
    9.2991    1.0034   20.1367 H   0  0  0  0  0  0  0  0  0  0  0  0
   11.9594    2.2982   24.5293 H   0  0  0  0  0  0  0  0  0  0  0  0
    9.6642    3.7662   24.1923 H   0  0  0  0  0  0  0  0  0  0  0  0
    7.6314    3.7097   22.3371 H   0  0  0  0  0  0  0  0  0  0  0  0
    7.9607    2.7281   20.9053 H   0  0  0  0  0  0  0  0  0  0  0  0
    7.1948    1.9965   22.3021 H   0  0  0  0  0  0  0  0  0  0  0  0
  1  2  1  0
  2  3  2  0
  3  4  1  0
  4  5  2  0
  5  6  1  0
  6  7  1  0
  6  8  1  0
  6  9  1  0
  5 10  1  0
 10 11  1  0
 11 12  1  0
 12 13  2  0
 13 14  1  0
 14 15  1  0
 15 16  2  0
 16 17  1  0
 17 18  1  0
 18 19  2  0
 19 20  1  0
 18 21  1  0
 17 22  1  0
 14 23  2  0
 23 24  1  0
 24 25  1  0
 25 26  2  0
 26 27  1  0
 27 28  2  0
 28 29  1  0
 29 30  2  0
 30 31  1  0
 28 32  1  0
 27 33  1  0
 26 34  1  0
 11 35  1  0
 11 36  1  0
  4 37  1  0
  3 38  1  0
  1 39  1  0
  1 40  1  0
  1 41  1  0
 10  2  1  0
 24 12  1  0
 30 25  1  0
 19 15  1  0
M  END
>  <cnnaffinity>  (1) 
-5.91866

>  <filename>  (1) 
Cc1ccc(C)n1Cc1nc(-c2cc[nH]n2)nn1-c1cccnc1

$$$$
