
     RDKit          3D

 47 50  0  0  0  0  0  0  0  0999 V2000
    4.8819    2.1710   24.4592 C   0  0  0  0  0  0  0  0  0  0  0  0
    6.1007    2.6849   25.1797 C   0  0  0  0  0  0  0  0  0  0  0  0
    5.9423    3.4071   26.3716 C   0  0  0  0  0  0  0  0  0  0  0  0
    7.0149    4.0439   26.9960 C   0  0  0  0  0  0  0  0  0  0  0  0
    8.2913    3.9457   26.4386 C   0  0  0  0  0  0  0  0  0  0  0  0
    8.4874    3.1909   25.2825 C   0  0  0  0  0  0  0  0  0  0  0  0
    7.4106    2.5223   24.6620 C   0  0  0  0  0  0  0  0  0  0  0  0
    7.6917    1.6954   23.4601 C   0  0  0  0  0  0  0  0  0  0  0  0
    7.0019    0.6465   23.0188 N   0  0  0  0  0  0  0  0  0  0  0  0
    7.7265    0.2137   21.9555 N   0  0  0  0  0  0  0  0  0  0  0  0
    7.1829   -0.7691   21.0129 C   0  0  0  0  0  0  0  0  0  0  0  0
    6.5386   -0.1057   19.8121 C   0  0  0  0  0  0  0  0  0  0  0  0
    5.3537    0.6134   19.9972 C   0  0  0  0  0  0  0  0  0  0  0  0
    4.8164    1.3177   18.9180 C   0  0  0  0  0  0  0  0  0  0  0  0
    5.4855    1.2798   17.6908 C   0  0  0  0  0  0  0  0  0  0  0  0
    6.6140    0.5835   17.4874 N   0  0  0  0  0  0  0  0  0  0  0  0
    7.1172   -0.0882   18.5322 C   0  0  0  0  0  0  0  0  0  0  0  0
    8.0373   -0.6422   18.3313 H   0  0  0  0  0  0  0  0  0  0  0  0
    5.0962    1.8272   16.8330 H   0  0  0  0  0  0  0  0  0  0  0  0
    3.9071    1.8984   19.0167 H   0  0  0  0  0  0  0  0  0  0  0  0
    4.8778    0.6205   20.9809 H   0  0  0  0  0  0  0  0  0  0  0  0
    7.9846   -1.4497   20.6994 H   0  0  0  0  0  0  0  0  0  0  0  0
    6.4542   -1.3539   21.5834 H   0  0  0  0  0  0  0  0  0  0  0  0
    8.7923    1.0280   21.7970 C   0  0  0  0  0  0  0  0  0  0  0  0
    9.9184    0.7592   20.8625 C   0  0  0  0  0  0  0  0  0  0  0  0
   10.8467   -0.4047   21.3225 C   0  0  0  0  0  0  0  0  0  0  0  0
   11.6341   -0.1521   22.5741 C   0  0  0  0  0  0  0  0  0  0  0  0
   11.0114   -0.3101   23.7489 N   0  0  0  0  0  0  0  0  0  0  0  0
   11.7376   -0.1296   24.8532 C   0  0  0  0  0  0  0  0  0  0  0  0
   13.0939    0.1581   24.7949 C   0  0  0  0  0  0  0  0  0  0  0  0
   13.8883    0.0920   25.8712 F   0  0  0  0  0  0  0  0  0  0  0  0
   13.6439    0.3510   23.5360 C   0  0  0  0  0  0  0  0  0  0  0  0
   12.9160    0.1960   22.4295 N   0  0  0  0  0  0  0  0  0  0  0  0
   14.6965    0.6090   23.4211 H   0  0  0  0  0  0  0  0  0  0  0  0
   11.2352   -0.3141   25.8014 H   0  0  0  0  0  0  0  0  0  0  0  0
   10.2479   -1.3008   21.5214 H   0  0  0  0  0  0  0  0  0  0  0  0
   11.5752   -0.6415   20.5472 H   0  0  0  0  0  0  0  0  0  0  0  0
   10.4672    1.7007   20.7495 H   0  0  0  0  0  0  0  0  0  0  0  0
    9.5016    0.5330   19.8768 H   0  0  0  0  0  0  0  0  0  0  0  0
    8.7930    1.9671   22.7131 N   0  0  0  0  0  0  0  0  0  0  0  0
    9.4706    3.1315   24.8160 H   0  0  0  0  0  0  0  0  0  0  0  0
    9.1320    4.4549   26.9009 H   0  0  0  0  0  0  0  0  0  0  0  0
    6.8356    4.6439   27.8872 H   0  0  0  0  0  0  0  0  0  0  0  0
    4.9441    3.4740   26.8001 H   0  0  0  0  0  0  0  0  0  0  0  0
    4.8874    2.5218   23.4211 H   0  0  0  0  0  0  0  0  0  0  0  0
    3.9640    2.5309   24.9349 H   0  0  0  0  0  0  0  0  0  0  0  0
    4.8811    1.0778   24.4258 H   0  0  0  0  0  0  0  0  0  0  0  0
  1  2  1  0
  2  3  2  0
  3  4  1  0
  4  5  2  0
  5  6  1  0
  6  7  2  0
  7  8  1  0
  8  9  2  0
  9 10  1  0
 10 11  1  0
 11 12  1  0
 12 13  2  0
 13 14  1  0
 14 15  2  0
 15 16  1  0
 16 17  2  0
 17 18  1  0
 15 19  1  0
 14 20  1  0
 13 21  1  0
 11 22  1  0
 11 23  1  0
 10 24  1  0
 24 25  1  0
 25 26  1  0
 26 27  1  0
 27 28  2  0
 28 29  1  0
 29 30  2  0
 30 31  1  0
 30 32  1  0
 32 33  2  0
 32 34  1  0
 29 35  1  0
 26 36  1  0
 26 37  1  0
 25 38  1  0
 25 39  1  0
 24 40  2  0
  6 41  1  0
  5 42  1  0
  4 43  1  0
  3 44  1  0
  1 45  1  0
  1 46  1  0
  1 47  1  0
  7  2  1  0
 40  8  1  0
 17 12  1  0
 33 27  1  0
M  END
>  <cnnaffinity>  (1) 
-5.80996

>  <filename>  (1) 
Cc1ccccc1-c1nc(CCc2ncc(F)cn2)n(Cc2cccnc2)n1

$$$$
