
     RDKit          3D

 48 51  0  0  0  0  0  0  0  0999 V2000
    2.9592   -2.6154   25.0108 C   0  0  0  0  0  0  0  0  0  0  0  0
    3.2894   -4.0785   25.1444 C   0  0  0  0  0  0  0  0  0  0  0  0
    2.8611   -4.7543   26.3028 C   0  0  0  0  0  0  0  0  0  0  0  0
    3.1278   -6.1101   26.5127 C   0  0  0  0  0  0  0  0  0  0  0  0
    3.7942   -6.8305   25.5250 C   0  0  0  0  0  0  0  0  0  0  0  0
    4.2038   -6.1767   24.3570 C   0  0  0  0  0  0  0  0  0  0  0  0
    4.0162   -4.7978   24.1615 C   0  0  0  0  0  0  0  0  0  0  0  0
    4.5160   -4.2116   22.8379 C   0  0  0  0  0  0  0  0  0  0  0  0
    5.2859   -3.0223   22.9676 O   0  0  0  0  0  0  0  0  0  0  0  0
    5.7390   -2.4382   21.7543 C   0  0  0  0  0  0  0  0  0  0  0  0
    7.0800   -1.7516   21.8560 C   0  0  0  0  0  0  0  0  0  0  0  0
    8.1180   -2.0608   22.6132 N   0  0  0  0  0  0  0  0  0  0  0  0
    9.0846   -1.2120   22.1984 C   0  0  0  0  0  0  0  0  0  0  0  0
   10.4317   -1.1137   22.8433 C   0  0  0  0  0  0  0  0  0  0  0  0
   10.8145    0.2779   23.4158 C   0  0  0  0  0  0  0  0  0  0  0  0
   12.3556    0.2509   23.3952 C   0  0  0  0  0  0  0  0  0  0  0  0
   12.7346   -0.8709   22.6083 O   0  0  0  0  0  0  0  0  0  0  0  0
   11.6145   -1.3579   21.8973 C   0  0  0  0  0  0  0  0  0  0  0  0
   11.7933   -2.4144   21.6823 H   0  0  0  0  0  0  0  0  0  0  0  0
   11.4797   -0.8157   20.9455 H   0  0  0  0  0  0  0  0  0  0  0  0
   12.7840    0.1221   24.3978 H   0  0  0  0  0  0  0  0  0  0  0  0
   12.7762    1.1692   22.9574 H   0  0  0  0  0  0  0  0  0  0  0  0
   10.4417    1.0699   22.7538 H   0  0  0  0  0  0  0  0  0  0  0  0
   10.4036    0.4606   24.4144 H   0  0  0  0  0  0  0  0  0  0  0  0
   10.4554   -1.8636   23.6394 H   0  0  0  0  0  0  0  0  0  0  0  0
    8.7416   -0.4383   21.1846 N   0  0  0  0  0  0  0  0  0  0  0  0
    7.4412   -0.7583   20.9764 N   0  0  0  0  0  0  0  0  0  0  0  0
    6.7432   -0.0604   19.9467 C   0  0  0  0  0  0  0  0  0  0  0  0
    5.5254    0.6007   20.1636 C   0  0  0  0  0  0  0  0  0  0  0  0
    4.9425    1.2775   19.0846 C   0  0  0  0  0  0  0  0  0  0  0  0
    5.5833    1.2609   17.8437 C   0  0  0  0  0  0  0  0  0  0  0  0
    6.7625    0.6470   17.6365 N   0  0  0  0  0  0  0  0  0  0  0  0
    7.3360    0.0326   18.6741 C   0  0  0  0  0  0  0  0  0  0  0  0
    8.3069   -0.4216   18.4857 H   0  0  0  0  0  0  0  0  0  0  0  0
    5.1428    1.7625   16.9845 H   0  0  0  0  0  0  0  0  0  0  0  0
    4.0110    1.8200   19.2044 H   0  0  0  0  0  0  0  0  0  0  0  0
    5.0673    0.6225   21.1538 H   0  0  0  0  0  0  0  0  0  0  0  0
    5.0323   -1.6783   21.4059 H   0  0  0  0  0  0  0  0  0  0  0  0
    5.8269   -3.1737   20.9391 H   0  0  0  0  0  0  0  0  0  0  0  0
    5.1344   -4.9832   22.3553 H   0  0  0  0  0  0  0  0  0  0  0  0
    3.6522   -4.0574   22.1721 H   0  0  0  0  0  0  0  0  0  0  0  0
    4.6862   -6.7562   23.5734 H   0  0  0  0  0  0  0  0  0  0  0  0
    4.0001   -7.8885   25.6633 H   0  0  0  0  0  0  0  0  0  0  0  0
    2.8179   -6.5981   27.4359 H   0  0  0  0  0  0  0  0  0  0  0  0
    2.3273   -4.1865   27.0617 H   0  0  0  0  0  0  0  0  0  0  0  0
    2.3239   -2.2769   25.8342 H   0  0  0  0  0  0  0  0  0  0  0  0
    3.8671   -2.0082   24.9686 H   0  0  0  0  0  0  0  0  0  0  0  0
    2.3892   -2.4139   24.1106 H   0  0  0  0  0  0  0  0  0  0  0  0
  1  2  1  0
  2  3  2  0
  3  4  1  0
  4  5  2  0
  5  6  1  0
  6  7  2  0
  7  8  1  0
  8  9  1  0
  9 10  1  0
 10 11  1  0
 11 12  2  0
 12 13  1  0
 13 14  1  0
 14 15  1  0
 15 16  1  0
 16 17  1  0
 17 18  1  0
 18 19  1  0
 18 20  1  0
 16 21  1  0
 16 22  1  0
 15 23  1  0
 15 24  1  0
 14 25  1  0
 13 26  2  0
 26 27  1  0
 27 28  1  0
 28 29  2  0
 29 30  1  0
 30 31  2  0
 31 32  1  0
 32 33  2  0
 33 34  1  0
 31 35  1  0
 30 36  1  0
 29 37  1  0
 10 38  1  0
 10 39  1  0
  8 40  1  0
  8 41  1  0
  6 42  1  0
  5 43  1  0
  4 44  1  0
  3 45  1  0
  1 46  1  0
  1 47  1  0
  1 48  1  0
  7  2  1  0
 27 11  1  0
 33 28  1  0
 18 14  1  0
M  END
>  <cnnaffinity>  (1) 
-5.57202

>  <filename>  (1) 
Cc1ccccc1COCc1nc(C2CCOC2)nn1-c1cccnc1

$$$$
