
     RDKit          3D

 44 47  0  0  0  0  0  0  0  0999 V2000
   14.3504   -1.7166   22.0911 C   0  0  0  0  0  0  0  0  0  0  0  0
   13.0953   -0.9131   22.0315 C   0  0  0  0  0  0  0  0  0  0  0  0
   12.0985   -1.3439   21.1490 C   0  0  0  0  0  0  0  0  0  0  0  0
   10.9778   -0.5521   20.9665 C   0  0  0  0  0  0  0  0  0  0  0  0
   10.8720    0.6661   21.6411 C   0  0  0  0  0  0  0  0  0  0  0  0
    9.6242    1.5068   21.3982 C   0  0  0  0  0  0  0  0  0  0  0  0
    8.5385    1.3308   22.4145 C   0  0  0  0  0  0  0  0  0  0  0  0
    8.4531    1.9912   23.5458 N   0  0  0  0  0  0  0  0  0  0  0  0
    7.3402    1.4624   24.1530 C   0  0  0  0  0  0  0  0  0  0  0  0
    6.8887    1.9770   25.5041 C   0  0  0  0  0  0  0  0  0  0  0  0
    7.6682    2.9813   26.1277 C   0  0  0  0  0  0  0  0  0  0  0  0
    7.2990    3.4592   27.3812 C   0  0  0  0  0  0  0  0  0  0  0  0
    6.1565    2.9267   27.9827 C   0  0  0  0  0  0  0  0  0  0  0  0
    5.4314    1.9473   27.2947 C   0  0  0  0  0  0  0  0  0  0  0  0
    5.7747    1.4806   26.0905 N   0  0  0  0  0  0  0  0  0  0  0  0
    4.5310    1.5119   27.7287 H   0  0  0  0  0  0  0  0  0  0  0  0
    5.8284    3.2449   28.9639 H   0  0  0  0  0  0  0  0  0  0  0  0
    7.8893    4.2294   27.8793 H   0  0  0  0  0  0  0  0  0  0  0  0
    8.5444    3.3636   25.6118 H   0  0  0  0  0  0  0  0  0  0  0  0
    6.7640    0.5068   23.4381 N   0  0  0  0  0  0  0  0  0  0  0  0
    7.5419    0.4190   22.3405 N   0  0  0  0  0  0  0  0  0  0  0  0
    7.2218   -0.5112   21.2637 C   0  0  0  0  0  0  0  0  0  0  0  0
    6.6292    0.1360   20.0268 C   0  0  0  0  0  0  0  0  0  0  0  0
    5.4262    0.8435   20.1265 C   0  0  0  0  0  0  0  0  0  0  0  0
    4.8873    1.4101   18.9709 C   0  0  0  0  0  0  0  0  0  0  0  0
    5.5704    1.2598   17.7614 C   0  0  0  0  0  0  0  0  0  0  0  0
    6.7266    0.5894   17.6446 N   0  0  0  0  0  0  0  0  0  0  0  0
    7.2326    0.0491   18.7616 C   0  0  0  0  0  0  0  0  0  0  0  0
    8.1802   -0.4812   18.6373 H   0  0  0  0  0  0  0  0  0  0  0  0
    5.1669    1.6834   16.8439 H   0  0  0  0  0  0  0  0  0  0  0  0
    3.9623    1.9750   18.9994 H   0  0  0  0  0  0  0  0  0  0  0  0
    4.9436    0.9530   21.0990 H   0  0  0  0  0  0  0  0  0  0  0  0
    8.1277   -1.0654   21.0084 H   0  0  0  0  0  0  0  0  0  0  0  0
    6.5238   -1.2315   21.6976 H   0  0  0  0  0  0  0  0  0  0  0  0
    9.8444    2.5776   21.3526 H   0  0  0  0  0  0  0  0  0  0  0  0
    9.2170    1.2268   20.4240 H   0  0  0  0  0  0  0  0  0  0  0  0
   11.9097    0.9852   22.5329 C   0  0  0  0  0  0  0  0  0  0  0  0
   12.9880    0.2103   22.7510 N   0  0  0  0  0  0  0  0  0  0  0  0
   11.8767    1.9170   23.0976 H   0  0  0  0  0  0  0  0  0  0  0  0
   10.2003   -0.8591   20.2690 H   0  0  0  0  0  0  0  0  0  0  0  0
   12.2599   -2.2626   20.6088 H   0  0  0  0  0  0  0  0  0  0  0  0
   14.9512   -1.4903   22.9713 H   0  0  0  0  0  0  0  0  0  0  0  0
   14.9249   -1.5121   21.1854 H   0  0  0  0  0  0  0  0  0  0  0  0
   14.1274   -2.7867   22.0710 H   0  0  0  0  0  0  0  0  0  0  0  0
  1  2  1  0
  2  3  2  0
  3  4  1  0
  4  5  2  0
  5  6  1  0
  6  7  1  0
  7  8  2  0
  8  9  1  0
  9 10  1  0
 10 11  2  0
 11 12  1  0
 12 13  2  0
 13 14  1  0
 14 15  2  0
 14 16  1  0
 13 17  1  0
 12 18  1  0
 11 19  1  0
  9 20  2  0
 20 21  1  0
 21 22  1  0
 22 23  1  0
 23 24  2  0
 24 25  1  0
 25 26  2  0
 26 27  1  0
 27 28  2  0
 28 29  1  0
 26 30  1  0
 25 31  1  0
 24 32  1  0
 22 33  1  0
 22 34  1  0
  6 35  1  0
  6 36  1  0
  5 37  1  0
 37 38  2  0
 37 39  1  0
  4 40  1  0
  3 41  1  0
  1 42  1  0
  1 43  1  0
  1 44  1  0
 38  2  1  0
 21  7  1  0
 28 23  1  0
 15 10  1  0
M  END
>  <cnnaffinity>  (1) 
-6.48781

>  <filename>  (1) 
Cc1ccc(Cc2nc(-c3ccccn3)nn2Cc2cccnc2)cn1

$$$$
