
     RDKit          3D

 52 55  0  0  0  0  0  0  0  0999 V2000
    7.8304   -4.9576   27.6012 C   0  0  0  0  0  0  0  0  0  0  0  0
    8.1126   -4.0129   26.4279 C   0  0  0  0  0  0  0  0  0  0  0  0
    8.2569   -4.8129   25.1200 C   0  0  0  0  0  0  0  0  0  0  0  0
    8.5163   -3.9240   23.8969 C   0  0  0  0  0  0  0  0  0  0  0  0
    7.4178   -2.8486   23.7309 C   0  0  0  0  0  0  0  0  0  0  0  0
    7.6524   -1.9629   22.5329 C   0  0  0  0  0  0  0  0  0  0  0  0
    6.6778   -1.5659   21.7360 N   0  0  0  0  0  0  0  0  0  0  0  0
    7.3094   -0.7342   20.8651 N   0  0  0  0  0  0  0  0  0  0  0  0
    6.6025   -0.0682   19.8214 C   0  0  0  0  0  0  0  0  0  0  0  0
    5.3968    0.5967   20.0761 C   0  0  0  0  0  0  0  0  0  0  0  0
    4.8083    1.3275   19.0401 C   0  0  0  0  0  0  0  0  0  0  0  0
    5.4274    1.3412   17.7842 C   0  0  0  0  0  0  0  0  0  0  0  0
    6.5555    0.6619   17.5168 N   0  0  0  0  0  0  0  0  0  0  0  0
    7.1159   -0.0330   18.5134 C   0  0  0  0  0  0  0  0  0  0  0  0
    8.0250   -0.5878   18.2741 H   0  0  0  0  0  0  0  0  0  0  0  0
    4.9970    1.8946   16.9542 H   0  0  0  0  0  0  0  0  0  0  0  0
    3.8842    1.8824   19.1870 H   0  0  0  0  0  0  0  0  0  0  0  0
    4.9453    0.5321   21.0668 H   0  0  0  0  0  0  0  0  0  0  0  0
    8.6190   -0.6238   21.2325 C   0  0  0  0  0  0  0  0  0  0  0  0
    9.4994    0.4922   20.7503 C   0  0  0  0  0  0  0  0  0  0  0  0
    8.9964    1.9091   21.1835 C   0  0  0  0  0  0  0  0  0  0  0  0
    8.6180    1.9809   22.6440 C   0  0  0  0  0  0  0  0  0  0  0  0
    9.5597    1.8218   23.5624 N   0  0  0  0  0  0  0  0  0  0  0  0
    8.9258    1.7175   24.7303 N   0  0  0  0  0  0  0  0  0  0  0  0
    9.6895    1.3998   25.9180 C   0  0  0  0  0  0  0  0  0  0  0  0
    9.3019    1.9898   26.7458 H   0  0  0  0  0  0  0  0  0  0  0  0
   10.7274    1.6741   25.7177 H   0  0  0  0  0  0  0  0  0  0  0  0
    9.6222    0.3328   26.1780 H   0  0  0  0  0  0  0  0  0  0  0  0
    7.5842    1.8280   24.5972 C   0  0  0  0  0  0  0  0  0  0  0  0
    7.3420    2.0162   23.2542 C   0  0  0  0  0  0  0  0  0  0  0  0
    6.3802    2.1476   22.7799 H   0  0  0  0  0  0  0  0  0  0  0  0
    6.9177    1.7279   25.4448 H   0  0  0  0  0  0  0  0  0  0  0  0
    9.7840    2.6474   20.9950 H   0  0  0  0  0  0  0  0  0  0  0  0
    8.1175    2.1787   20.5879 H   0  0  0  0  0  0  0  0  0  0  0  0
   10.5013    0.3032   21.1463 H   0  0  0  0  0  0  0  0  0  0  0  0
    9.5713    0.4574   19.6633 H   0  0  0  0  0  0  0  0  0  0  0  0
    8.8759   -1.4411   22.2340 N   0  0  0  0  0  0  0  0  0  0  0  0
    7.2583   -2.0270   25.0436 C   0  0  0  0  0  0  0  0  0  0  0  0
    7.0321   -2.9250   26.2729 C   0  0  0  0  0  0  0  0  0  0  0  0
    6.0473   -3.4121   26.1918 H   0  0  0  0  0  0  0  0  0  0  0  0
    6.9900   -2.3043   27.1798 H   0  0  0  0  0  0  0  0  0  0  0  0
    6.4224   -1.3230   24.9432 H   0  0  0  0  0  0  0  0  0  0  0  0
    8.1667   -1.4236   25.1969 H   0  0  0  0  0  0  0  0  0  0  0  0
    6.4621   -3.3502   23.5311 H   0  0  0  0  0  0  0  0  0  0  0  0
    9.4932   -3.4319   24.0030 H   0  0  0  0  0  0  0  0  0  0  0  0
    8.5824   -4.5397   22.9923 H   0  0  0  0  0  0  0  0  0  0  0  0
    9.0655   -5.5497   25.2277 H   0  0  0  0  0  0  0  0  0  0  0  0
    7.3298   -5.3889   24.9658 H   0  0  0  0  0  0  0  0  0  0  0  0
    9.0714   -3.5033   26.6217 H   0  0  0  0  0  0  0  0  0  0  0  0
    6.8839   -5.4929   27.4520 H   0  0  0  0  0  0  0  0  0  0  0  0
    7.7632   -4.4240   28.5539 H   0  0  0  0  0  0  0  0  0  0  0  0
    8.6178   -5.7155   27.6902 H   0  0  0  0  0  0  0  0  0  0  0  0
  1  2  1  0
  2  3  1  0
  3  4  1  0
  4  5  1  0
  5  6  1  0
  6  7  2  0
  7  8  1  0
  8  9  1  0
  9 10  2  0
 10 11  1  0
 11 12  2  0
 12 13  1  0
 13 14  2  0
 14 15  1  0
 12 16  1  0
 11 17  1  0
 10 18  1  0
  8 19  1  0
 19 20  1  0
 20 21  1  0
 21 22  1  0
 22 23  2  0
 23 24  1  0
 24 25  1  0
 25 26  1  0
 25 27  1  0
 25 28  1  0
 24 29  1  0
 29 30  2  0
 30 31  1  0
 29 32  1  0
 21 33  1  0
 21 34  1  0
 20 35  1  0
 20 36  1  0
 19 37  2  0
  5 38  1  0
 38 39  1  0
 39 40  1  0
 39 41  1  0
 38 42  1  0
 38 43  1  0
  5 44  1  0
  4 45  1  0
  4 46  1  0
  3 47  1  0
  3 48  1  0
  2 49  1  0
  1 50  1  0
  1 51  1  0
  1 52  1  0
 39  2  1  0
 37  6  1  0
 14  9  1  0
 30 22  1  0
M  END
>  <cnnaffinity>  (1) 
-6.27546

>  <filename>  (1) 
CC1CCC(c2nc(CCc3ccn(C)n3)n(-c3cccnc3)n2)CC1

$$$$
