
     RDKit          3D

 51 54  0  0  0  0  0  0  0  0999 V2000
   10.6320    3.0791   23.7706 C   0  0  0  0  0  0  0  0  0  0  0  0
   11.0225    1.9391   22.8517 C   0  0  0  0  0  0  0  0  0  0  0  0
   10.1147    1.5160   21.8703 C   0  0  0  0  0  0  0  0  0  0  0  0
   10.3283    0.3688   21.1056 C   0  0  0  0  0  0  0  0  0  0  0  0
    9.2068   -0.1212   20.2224 C   0  0  0  0  0  0  0  0  0  0  0  0
    8.2258   -0.9496   21.0018 C   0  0  0  0  0  0  0  0  0  0  0  0
    8.5029   -1.7248   22.0251 N   0  0  0  0  0  0  0  0  0  0  0  0
    7.2853   -2.1776   22.4221 C   0  0  0  0  0  0  0  0  0  0  0  0
    7.1791   -3.0725   23.6265 C   0  0  0  0  0  0  0  0  0  0  0  0
    7.4157   -2.3024   24.9624 C   0  0  0  0  0  0  0  0  0  0  0  0
    7.5282   -3.2359   26.1488 C   0  0  0  0  0  0  0  0  0  0  0  0
    7.7465   -4.5484   26.0379 C   0  0  0  0  0  0  0  0  0  0  0  0
    7.9652   -5.2446   24.7144 C   0  0  0  0  0  0  0  0  0  0  0  0
    8.1908   -4.2501   23.5626 C   0  0  0  0  0  0  0  0  0  0  0  0
    9.2061   -3.8316   23.6295 H   0  0  0  0  0  0  0  0  0  0  0  0
    8.1394   -4.7671   22.5988 H   0  0  0  0  0  0  0  0  0  0  0  0
    8.8182   -5.9322   24.7961 H   0  0  0  0  0  0  0  0  0  0  0  0
    7.0978   -5.8869   24.4999 H   0  0  0  0  0  0  0  0  0  0  0  0
    7.7605   -5.1749   26.9310 H   0  0  0  0  0  0  0  0  0  0  0  0
    7.4390   -2.7845   27.1374 H   0  0  0  0  0  0  0  0  0  0  0  0
    8.3353   -1.6995   24.8835 H   0  0  0  0  0  0  0  0  0  0  0  0
    6.6066   -1.5837   25.1398 H   0  0  0  0  0  0  0  0  0  0  0  0
    6.1516   -3.4542   23.6182 H   0  0  0  0  0  0  0  0  0  0  0  0
    6.2745   -1.7550   21.6811 N   0  0  0  0  0  0  0  0  0  0  0  0
    6.8870   -0.9933   20.7351 N   0  0  0  0  0  0  0  0  0  0  0  0
    6.1777   -0.3074   19.7076 C   0  0  0  0  0  0  0  0  0  0  0  0
    5.0682    0.4940   19.9949 C   0  0  0  0  0  0  0  0  0  0  0  0
    4.5970    1.3560   18.9996 C   0  0  0  0  0  0  0  0  0  0  0  0
    5.2138    1.3493   17.7409 C   0  0  0  0  0  0  0  0  0  0  0  0
    6.2027    0.4996   17.4244 N   0  0  0  0  0  0  0  0  0  0  0  0
    6.6453   -0.3268   18.3766 C   0  0  0  0  0  0  0  0  0  0  0  0
    7.4281   -1.0198   18.0709 H   0  0  0  0  0  0  0  0  0  0  0  0
    4.8973    2.0344   16.9587 H   0  0  0  0  0  0  0  0  0  0  0  0
    3.7747    2.0391   19.1837 H   0  0  0  0  0  0  0  0  0  0  0  0
    4.6029    0.4386   20.9784 H   0  0  0  0  0  0  0  0  0  0  0  0
    9.5888   -0.7280   19.3930 H   0  0  0  0  0  0  0  0  0  0  0  0
    8.6808    0.7414   19.7925 H   0  0  0  0  0  0  0  0  0  0  0  0
   11.5118   -0.3550   21.2779 C   0  0  0  0  0  0  0  0  0  0  0  0
   12.4650    0.0865   22.2027 C   0  0  0  0  0  0  0  0  0  0  0  0
   12.2389    1.2237   22.9892 C   0  0  0  0  0  0  0  0  0  0  0  0
   13.2923    1.6668   23.9723 C   0  0  0  0  0  0  0  0  0  0  0  0
   13.7580    2.9659   23.6058 O   0  0  0  0  0  0  0  0  0  0  0  0
   14.7068    3.0184   23.7970 H   0  0  0  0  0  0  0  0  0  0  0  0
   14.1094    0.9315   23.9598 H   0  0  0  0  0  0  0  0  0  0  0  0
   12.8674    1.6740   24.9941 H   0  0  0  0  0  0  0  0  0  0  0  0
   13.3962   -0.4694   22.3071 H   0  0  0  0  0  0  0  0  0  0  0  0
   11.6734   -1.2716   20.7173 H   0  0  0  0  0  0  0  0  0  0  0  0
    9.2117    2.0988   21.6971 H   0  0  0  0  0  0  0  0  0  0  0  0
   11.5042    3.6241   24.1415 H   0  0  0  0  0  0  0  0  0  0  0  0
    9.9812    3.7989   23.2624 H   0  0  0  0  0  0  0  0  0  0  0  0
   10.0657    2.7081   24.6367 H   0  0  0  0  0  0  0  0  0  0  0  0
  1  2  1  0
  2  3  2  0
  3  4  1  0
  4  5  1  0
  5  6  1  0
  6  7  2  0
  7  8  1  0
  8  9  1  0
  9 10  1  0
 10 11  1  0
 11 12  2  0
 12 13  1  0
 13 14  1  0
 14 15  1  0
 14 16  1  0
 13 17  1  0
 13 18  1  0
 12 19  1  0
 11 20  1  0
 10 21  1  0
 10 22  1  0
  9 23  1  0
  8 24  2  0
 24 25  1  0
 25 26  1  0
 26 27  2  0
 27 28  1  0
 28 29  2  0
 29 30  1  0
 30 31  2  0
 31 32  1  0
 29 33  1  0
 28 34  1  0
 27 35  1  0
  5 36  1  0
  5 37  1  0
  4 38  2  0
 38 39  1  0
 39 40  2  0
 40 41  1  0
 41 42  1  0
 42 43  1  0
 41 44  1  0
 41 45  1  0
 39 46  1  0
 38 47  1  0
  3 48  1  0
  1 49  1  0
  1 50  1  0
  1 51  1  0
 40  2  1  0
 25  6  1  0
 31 26  1  0
 14  9  1  0
M  END
>  <cnnaffinity>  (1) 
-6.53338

>  <filename>  (1) 
Cc1cc(Cc2nc(C3CC=CCC3)nn2-c2cccnc2)ccc1CO

$$$$
