
     RDKit          3D

 43 46  0  0  0  0  0  0  0  0999 V2000
    5.6264   -1.4726   26.3839 C   0  0  0  0  0  0  0  0  0  0  0  0
    6.2454   -0.2500   25.7701 C   0  0  0  0  0  0  0  0  0  0  0  0
    5.9375    0.1007   24.5233 N   0  0  0  0  0  0  0  0  0  0  0  0
    6.6375    1.2112   24.2680 N   0  0  0  0  0  0  0  0  0  0  0  0
    6.7256    1.7003   22.8960 C   0  0  0  0  0  0  0  0  0  0  0  0
    7.8460    0.9842   22.2119 C   0  0  0  0  0  0  0  0  0  0  0  0
    9.1096    1.3093   22.3559 N   0  0  0  0  0  0  0  0  0  0  0  0
    9.7701    0.1957   21.9260 C   0  0  0  0  0  0  0  0  0  0  0  0
   11.2369    0.0778   22.0901 C   0  0  0  0  0  0  0  0  0  0  0  0
   11.8820    1.1019   22.8073 C   0  0  0  0  0  0  0  0  0  0  0  0
   13.2332    0.9865   23.0715 C   0  0  0  0  0  0  0  0  0  0  0  0
   13.8122    1.9510   23.7896 F   0  0  0  0  0  0  0  0  0  0  0  0
   13.9931   -0.0845   22.6217 C   0  0  0  0  0  0  0  0  0  0  0  0
   13.3352   -1.0756   21.9003 C   0  0  0  0  0  0  0  0  0  0  0  0
   14.0474   -2.1227   21.4680 F   0  0  0  0  0  0  0  0  0  0  0  0
   11.9743   -1.0329   21.6244 C   0  0  0  0  0  0  0  0  0  0  0  0
   11.5289   -1.8552   21.0695 H   0  0  0  0  0  0  0  0  0  0  0  0
   15.0513   -0.1302   22.8092 H   0  0  0  0  0  0  0  0  0  0  0  0
   11.3282    1.9590   23.1846 H   0  0  0  0  0  0  0  0  0  0  0  0
    8.9762   -0.7588   21.4740 N   0  0  0  0  0  0  0  0  0  0  0  0
    7.7399   -0.2504   21.6793 N   0  0  0  0  0  0  0  0  0  0  0  0
    6.5497   -0.8974   21.1409 C   0  0  0  0  0  0  0  0  0  0  0  0
    6.0332   -0.1660   19.9213 C   0  0  0  0  0  0  0  0  0  0  0  0
    4.8574    0.5890   19.9006 C   0  0  0  0  0  0  0  0  0  0  0  0
    4.5935    1.3867   18.7811 C   0  0  0  0  0  0  0  0  0  0  0  0
    5.4926    1.3705   17.7128 C   0  0  0  0  0  0  0  0  0  0  0  0
    6.6018    0.6161   17.6955 N   0  0  0  0  0  0  0  0  0  0  0  0
    6.8530   -0.1255   18.7798 C   0  0  0  0  0  0  0  0  0  0  0  0
    7.7727   -0.7133   18.7587 H   0  0  0  0  0  0  0  0  0  0  0  0
    5.3124    1.9767   16.8250 H   0  0  0  0  0  0  0  0  0  0  0  0
    3.7314    2.0409   18.7421 H   0  0  0  0  0  0  0  0  0  0  0  0
    4.1597    0.5669   20.7410 H   0  0  0  0  0  0  0  0  0  0  0  0
    5.8093   -0.9440   21.9448 H   0  0  0  0  0  0  0  0  0  0  0  0
    6.8462   -1.9219   20.9035 H   0  0  0  0  0  0  0  0  0  0  0  0
    6.9371    2.7703   22.9267 H   0  0  0  0  0  0  0  0  0  0  0  0
    5.7640    1.5292   22.4086 H   0  0  0  0  0  0  0  0  0  0  0  0
    7.4361    1.5525   25.3076 C   0  0  0  0  0  0  0  0  0  0  0  0
    7.2017    0.6416   26.3125 C   0  0  0  0  0  0  0  0  0  0  0  0
    7.6561    0.6027   27.2974 H   0  0  0  0  0  0  0  0  0  0  0  0
    8.1233    2.3870   25.2139 H   0  0  0  0  0  0  0  0  0  0  0  0
    5.5263   -1.3691   27.4688 H   0  0  0  0  0  0  0  0  0  0  0  0
    4.6322   -1.6490   25.9634 H   0  0  0  0  0  0  0  0  0  0  0  0
    6.2386   -2.3626   26.1861 H   0  0  0  0  0  0  0  0  0  0  0  0
  1  2  1  0
  2  3  2  0
  3  4  1  0
  4  5  1  0
  5  6  1  0
  6  7  2  0
  7  8  1  0
  8  9  1  0
  9 10  2  0
 10 11  1  0
 11 12  1  0
 11 13  2  0
 13 14  1  0
 14 15  1  0
 14 16  2  0
 16 17  1  0
 13 18  1  0
 10 19  1  0
  8 20  2  0
 20 21  1  0
 21 22  1  0
 22 23  1  0
 23 24  2  0
 24 25  1  0
 25 26  2  0
 26 27  1  0
 27 28  2  0
 28 29  1  0
 26 30  1  0
 25 31  1  0
 24 32  1  0
 22 33  1  0
 22 34  1  0
  5 35  1  0
  5 36  1  0
  4 37  1  0
 37 38  2  0
 38 39  1  0
 37 40  1  0
  1 41  1  0
  1 42  1  0
  1 43  1  0
 38  2  1  0
 21  6  1  0
 28 23  1  0
 16  9  1  0
M  END
>  <cnnaffinity>  (1) 
-6.52489

>  <filename>  (1) 
Cc1ccn(Cc2nc(-c3cc(F)cc(F)c3)nn2Cc2cccnc2)n1

$$$$
