
     RDKit          3D

 42 45  0  0  0  0  0  0  0  0999 V2000
    7.8031   -4.6321   21.3859 C   0  0  0  0  0  0  0  0  0  0  0  0
    8.3435   -4.7143   22.7990 C   0  0  0  0  0  0  0  0  0  0  0  0
    7.8948   -5.7036   23.6830 C   0  0  0  0  0  0  0  0  0  0  0  0
    8.5486   -5.8855   24.9058 C   0  0  0  0  0  0  0  0  0  0  0  0
    9.6312   -5.0578   25.2105 C   0  0  0  0  0  0  0  0  0  0  0  0
   10.0397   -4.0644   24.4050 N   0  0  0  0  0  0  0  0  0  0  0  0
    9.3651   -3.8460   23.2720 C   0  0  0  0  0  0  0  0  0  0  0  0
    9.7595   -2.5877   22.5086 C   0  0  0  0  0  0  0  0  0  0  0  0
    8.6360   -1.6908   22.0909 C   0  0  0  0  0  0  0  0  0  0  0  0
    8.3898   -1.3074   20.8586 N   0  0  0  0  0  0  0  0  0  0  0  0
    7.2497   -0.5707   20.9751 C   0  0  0  0  0  0  0  0  0  0  0  0
    6.5858    0.0637   19.8316 C   0  0  0  0  0  0  0  0  0  0  0  0
    5.3687    0.7540   19.9722 C   0  0  0  0  0  0  0  0  0  0  0  0
    4.8292    1.3739   18.8500 C   0  0  0  0  0  0  0  0  0  0  0  0
    5.5117    1.2818   17.6323 C   0  0  0  0  0  0  0  0  0  0  0  0
    6.6605    0.6060   17.4813 N   0  0  0  0  0  0  0  0  0  0  0  0
    7.1821    0.0124   18.5618 C   0  0  0  0  0  0  0  0  0  0  0  0
    8.1159   -0.5229   18.3937 H   0  0  0  0  0  0  0  0  0  0  0  0
    5.1179    1.7713   16.7434 H   0  0  0  0  0  0  0  0  0  0  0  0
    3.9087    1.9426   18.9103 H   0  0  0  0  0  0  0  0  0  0  0  0
    4.8767    0.8013   20.9466 H   0  0  0  0  0  0  0  0  0  0  0  0
    6.7798   -0.4925   22.2074 N   0  0  0  0  0  0  0  0  0  0  0  0
    7.7090   -1.1693   22.9343 N   0  0  0  0  0  0  0  0  0  0  0  0
    7.5289   -1.5462   24.3081 C   0  0  0  0  0  0  0  0  0  0  0  0
    8.5113   -1.2328   25.2548 C   0  0  0  0  0  0  0  0  0  0  0  0
    8.4662   -1.8766   26.4875 C   0  0  0  0  0  0  0  0  0  0  0  0
    9.4577   -1.6553   27.3663 F   0  0  0  0  0  0  0  0  0  0  0  0
    7.4732   -2.7984   26.8091 C   0  0  0  0  0  0  0  0  0  0  0  0
    6.4440   -3.0219   25.8873 C   0  0  0  0  0  0  0  0  0  0  0  0
    6.4662   -2.3940   24.6421 C   0  0  0  0  0  0  0  0  0  0  0  0
    5.6712   -2.5560   23.9183 H   0  0  0  0  0  0  0  0  0  0  0  0
    5.6343   -3.7081   26.1376 H   0  0  0  0  0  0  0  0  0  0  0  0
    7.5307   -3.3441   27.7440 H   0  0  0  0  0  0  0  0  0  0  0  0
    9.3374   -0.5678   25.0297 H   0  0  0  0  0  0  0  0  0  0  0  0
   10.2769   -2.8422   21.5859 H   0  0  0  0  0  0  0  0  0  0  0  0
   10.4735   -2.0237   23.1128 H   0  0  0  0  0  0  0  0  0  0  0  0
   10.1753   -5.1705   26.1493 H   0  0  0  0  0  0  0  0  0  0  0  0
    8.2562   -6.6796   25.5873 H   0  0  0  0  0  0  0  0  0  0  0  0
    7.0641   -6.3487   23.3823 H   0  0  0  0  0  0  0  0  0  0  0  0
    7.6465   -5.6219   20.9399 H   0  0  0  0  0  0  0  0  0  0  0  0
    6.8522   -4.0888   21.3450 H   0  0  0  0  0  0  0  0  0  0  0  0
    8.5059   -4.0960   20.7449 H   0  0  0  0  0  0  0  0  0  0  0  0
  1  2  1  0
  2  3  2  0
  3  4  1  0
  4  5  2  0
  5  6  1  0
  6  7  2  0
  7  8  1  0
  8  9  1  0
  9 10  2  0
 10 11  1  0
 11 12  1  0
 12 13  2  0
 13 14  1  0
 14 15  2  0
 15 16  1  0
 16 17  2  0
 17 18  1  0
 15 19  1  0
 14 20  1  0
 13 21  1  0
 11 22  2  0
 22 23  1  0
 23 24  1  0
 24 25  2  0
 25 26  1  0
 26 27  1  0
 26 28  2  0
 28 29  1  0
 29 30  2  0
 30 31  1  0
 29 32  1  0
 28 33  1  0
 25 34  1  0
  8 35  1  0
  8 36  1  0
  5 37  1  0
  4 38  1  0
  3 39  1  0
  1 40  1  0
  1 41  1  0
  1 42  1  0
  7  2  1  0
 23  9  1  0
 30 24  1  0
 17 12  1  0
M  END
>  <cnnaffinity>  (1) 
-6.34235

>  <filename>  (1) 
Cc1cccnc1Cc1nc(-c2cccnc2)nn1-c1cccc(F)c1

$$$$
