
     RDKit          3D

 48 52  0  0  0  0  0  0  0  0999 V2000
    7.3103    0.2056   26.2903 C   0  0  0  0  0  0  0  0  0  0  0  0
    6.6434    1.5641   26.4061 C   0  0  0  0  0  0  0  0  0  0  0  0
    6.9333    2.3949   27.5031 C   0  0  0  0  0  0  0  0  0  0  0  0
    6.4304    3.6990   27.5839 C   0  0  0  0  0  0  0  0  0  0  0  0
    5.6043    4.1935   26.5745 C   0  0  0  0  0  0  0  0  0  0  0  0
    5.2670    3.3639   25.4983 C   0  0  0  0  0  0  0  0  0  0  0  0
    5.7622    2.0498   25.4086 C   0  0  0  0  0  0  0  0  0  0  0  0
    5.3201    1.1880   24.2227 C   0  0  0  0  0  0  0  0  0  0  0  0
    5.6993    1.6894   22.9353 O   0  0  0  0  0  0  0  0  0  0  0  0
    7.0445    1.4540   22.5192 C   0  0  0  0  0  0  0  0  0  0  0  0
    7.3593    0.0268   22.1568 C   0  0  0  0  0  0  0  0  0  0  0  0
    8.1469   -0.7936   22.8354 N   0  0  0  0  0  0  0  0  0  0  0  0
    8.0239   -1.9727   22.1707 C   0  0  0  0  0  0  0  0  0  0  0  0
    8.8185   -3.1573   22.5462 C   0  0  0  0  0  0  0  0  0  0  0  0
    8.2518   -4.5709   22.4266 C   0  0  0  0  0  0  0  0  0  0  0  0
    8.5986   -4.0021   23.7670 C   0  0  0  0  0  0  0  0  0  0  0  0
    9.5691   -4.3923   24.8173 C   0  0  0  0  0  0  0  0  0  0  0  0
    8.0848   -4.2079   25.1503 C   0  0  0  0  0  0  0  0  0  0  0  0
    7.7572   -3.3516   25.7354 H   0  0  0  0  0  0  0  0  0  0  0  0
    7.5026   -5.1180   25.2955 H   0  0  0  0  0  0  0  0  0  0  0  0
   10.2575   -3.6126   25.1420 H   0  0  0  0  0  0  0  0  0  0  0  0
    9.9905   -5.3966   24.7870 H   0  0  0  0  0  0  0  0  0  0  0  0
    8.8639   -5.4058   22.0932 H   0  0  0  0  0  0  0  0  0  0  0  0
    7.1961   -4.6688   22.1775 H   0  0  0  0  0  0  0  0  0  0  0  0
    9.8756   -2.9667   22.3514 H   0  0  0  0  0  0  0  0  0  0  0  0
    7.2643   -1.9209   21.0945 N   0  0  0  0  0  0  0  0  0  0  0  0
    6.8335   -0.6285   21.0732 N   0  0  0  0  0  0  0  0  0  0  0  0
    6.2621   -0.1102   19.8774 C   0  0  0  0  0  0  0  0  0  0  0  0
    5.3320    0.9342   19.8797 C   0  0  0  0  0  0  0  0  0  0  0  0
    4.9815    1.4968   18.6473 C   0  0  0  0  0  0  0  0  0  0  0  0
    5.5521    0.9981   17.4747 C   0  0  0  0  0  0  0  0  0  0  0  0
    6.3938   -0.0481   17.4635 N   0  0  0  0  0  0  0  0  0  0  0  0
    6.7146   -0.6022   18.6339 C   0  0  0  0  0  0  0  0  0  0  0  0
    7.3846   -1.4550   18.5968 H   0  0  0  0  0  0  0  0  0  0  0  0
    5.3253    1.4461   16.5099 H   0  0  0  0  0  0  0  0  0  0  0  0
    4.2967    2.3342   18.5936 H   0  0  0  0  0  0  0  0  0  0  0  0
    4.9287    1.3189   20.8142 H   0  0  0  0  0  0  0  0  0  0  0  0
    7.7615    1.7593   23.2922 H   0  0  0  0  0  0  0  0  0  0  0  0
    7.2088    2.1074   21.6541 H   0  0  0  0  0  0  0  0  0  0  0  0
    5.6456    0.1452   24.3393 H   0  0  0  0  0  0  0  0  0  0  0  0
    4.2248    1.1793   24.1692 H   0  0  0  0  0  0  0  0  0  0  0  0
    4.6182    3.7285   24.7041 H   0  0  0  0  0  0  0  0  0  0  0  0
    5.2322    5.2152   26.6276 H   0  0  0  0  0  0  0  0  0  0  0  0
    6.7020    4.3405   28.4191 H   0  0  0  0  0  0  0  0  0  0  0  0
    7.5828    2.0158   28.2909 H   0  0  0  0  0  0  0  0  0  0  0  0
    8.1334    0.1014   27.0042 H   0  0  0  0  0  0  0  0  0  0  0  0
    7.7252    0.0579   25.2869 H   0  0  0  0  0  0  0  0  0  0  0  0
    6.6200   -0.6267   26.4767 H   0  0  0  0  0  0  0  0  0  0  0  0
  1  2  1  0
  2  3  2  0
  3  4  1  0
  4  5  2  0
  5  6  1  0
  6  7  2  0
  7  8  1  0
  8  9  1  0
  9 10  1  0
 10 11  1  0
 11 12  2  0
 12 13  1  0
 13 14  1  0
 14 15  1  0
 15 16  1  0
 16 17  1  0
 17 18  1  0
 18 19  1  0
 18 20  1  0
 17 21  1  0
 17 22  1  0
 15 23  1  0
 15 24  1  0
 14 25  1  0
 13 26  2  0
 26 27  1  0
 27 28  1  0
 28 29  2  0
 29 30  1  0
 30 31  2  0
 31 32  1  0
 32 33  2  0
 33 34  1  0
 31 35  1  0
 30 36  1  0
 29 37  1  0
 10 38  1  0
 10 39  1  0
  8 40  1  0
  8 41  1  0
  6 42  1  0
  5 43  1  0
  4 44  1  0
  3 45  1  0
  1 46  1  0
  1 47  1  0
  1 48  1  0
  7  2  1  0
 27 11  1  0
 33 28  1  0
 16 14  1  0
 18 16  1  0
M  END
>  <cnnaffinity>  (1) 
-5.50881

>  <filename>  (1) 
Cc1ccccc1COCc1nc(C2CC23CC3)nn1-c1cccnc1

$$$$
