
     RDKit          3D

 42 45  0  0  0  0  0  0  0  0999 V2000
    5.4190   -0.7136   26.8254 C   0  0  0  0  0  0  0  0  0  0  0  0
    6.1085    0.2099   25.8699 C   0  0  0  0  0  0  0  0  0  0  0  0
    5.8087    0.6003   24.5829 C   0  0  0  0  0  0  0  0  0  0  0  0
    6.8773    1.4153   24.1621 C   0  0  0  0  0  0  0  0  0  0  0  0
    7.1542    1.8886   22.7619 C   0  0  0  0  0  0  0  0  0  0  0  0
    8.1735    0.9934   22.1398 C   0  0  0  0  0  0  0  0  0  0  0  0
    9.4518    1.2157   22.3067 N   0  0  0  0  0  0  0  0  0  0  0  0
   10.0348    0.0532   21.9262 C   0  0  0  0  0  0  0  0  0  0  0  0
   11.4798   -0.1002   22.1121 C   0  0  0  0  0  0  0  0  0  0  0  0
   12.2796   -1.0883   21.5001 C   0  0  0  0  0  0  0  0  0  0  0  0
   13.6481   -1.0030   21.7190 C   0  0  0  0  0  0  0  0  0  0  0  0
   14.4580   -1.8937   21.1370 F   0  0  0  0  0  0  0  0  0  0  0  0
   14.1863    0.0205   22.5090 C   0  0  0  0  0  0  0  0  0  0  0  0
   13.4137    0.9104   23.1460 N   0  0  0  0  0  0  0  0  0  0  0  0
   12.0914    0.8437   22.9625 C   0  0  0  0  0  0  0  0  0  0  0  0
   11.4858    1.5515   23.5246 H   0  0  0  0  0  0  0  0  0  0  0  0
   15.2564    0.1185   22.6168 H   0  0  0  0  0  0  0  0  0  0  0  0
   11.9134   -1.8799   20.8470 H   0  0  0  0  0  0  0  0  0  0  0  0
    9.1904   -0.8533   21.4703 N   0  0  0  0  0  0  0  0  0  0  0  0
    7.9838   -0.2379   21.6173 N   0  0  0  0  0  0  0  0  0  0  0  0
    6.7535   -0.8119   21.0756 C   0  0  0  0  0  0  0  0  0  0  0  0
    6.2253   -0.0345   19.8808 C   0  0  0  0  0  0  0  0  0  0  0  0
    5.0226    0.6813   19.9010 C   0  0  0  0  0  0  0  0  0  0  0  0
    4.6650    1.4314   18.7754 C   0  0  0  0  0  0  0  0  0  0  0  0
    5.5123    1.4211   17.6634 C   0  0  0  0  0  0  0  0  0  0  0  0
    6.6580    0.7233   17.6156 N   0  0  0  0  0  0  0  0  0  0  0  0
    7.0019    0.0323   18.7094 C   0  0  0  0  0  0  0  0  0  0  0  0
    7.9525   -0.5025   18.6554 H   0  0  0  0  0  0  0  0  0  0  0  0
    5.2572    1.9865   16.7674 H   0  0  0  0  0  0  0  0  0  0  0  0
    3.7684    2.0410   18.7639 H   0  0  0  0  0  0  0  0  0  0  0  0
    4.3823    0.6670   20.7885 H   0  0  0  0  0  0  0  0  0  0  0  0
    7.0045   -1.8441   20.8117 H   0  0  0  0  0  0  0  0  0  0  0  0
    6.0147   -0.8422   21.8870 H   0  0  0  0  0  0  0  0  0  0  0  0
    6.2471    1.8992   22.1550 H   0  0  0  0  0  0  0  0  0  0  0  0
    7.5910    2.8873   22.7889 H   0  0  0  0  0  0  0  0  0  0  0  0
    7.7467    1.5940   25.1470 N   0  0  0  0  0  0  0  0  0  0  0  0
    7.2598    0.8640   26.1676 N   0  0  0  0  0  0  0  0  0  0  0  0
    7.8196    0.7595   27.0004 H   0  0  0  0  0  0  0  0  0  0  0  0
    4.8983    0.4121   24.0397 H   0  0  0  0  0  0  0  0  0  0  0  0
    4.9460   -0.1704   27.6502 H   0  0  0  0  0  0  0  0  0  0  0  0
    4.6435   -1.2659   26.2901 H   0  0  0  0  0  0  0  0  0  0  0  0
    6.1024   -1.4499   27.2639 H   0  0  0  0  0  0  0  0  0  0  0  0
  1  2  1  0
  2  3  2  0
  3  4  1  0
  4  5  1  0
  5  6  1  0
  6  7  2  0
  7  8  1  0
  8  9  1  0
  9 10  2  0
 10 11  1  0
 11 12  1  0
 11 13  2  0
 13 14  1  0
 14 15  2  0
 15 16  1  0
 13 17  1  0
 10 18  1  0
  8 19  2  0
 19 20  1  0
 20 21  1  0
 21 22  1  0
 22 23  2  0
 23 24  1  0
 24 25  2  0
 25 26  1  0
 26 27  2  0
 27 28  1  0
 25 29  1  0
 24 30  1  0
 23 31  1  0
 21 32  1  0
 21 33  1  0
  5 34  1  0
  5 35  1  0
  4 36  2  0
 36 37  1  0
 37 38  1  0
  3 39  1  0
  1 40  1  0
  1 41  1  0
  1 42  1  0
 37  2  1  0
 20  6  1  0
 27 22  1  0
 15  9  1  0
M  END
>  <cnnaffinity>  (1) 
-6.55849

>  <filename>  (1) 
Cc1cc(Cc2nc(-c3cncc(F)c3)nn2Cc2cccnc2)n[nH]1

$$$$
