
     RDKit          3D

 43 46  0  0  0  0  0  0  0  0999 V2000
    8.8535    2.6699   22.4906 C   0  0  0  0  0  0  0  0  0  0  0  0
   10.1334    1.8894   22.5470 C   0  0  0  0  0  0  0  0  0  0  0  0
   11.2218    2.0106   23.3896 C   0  0  0  0  0  0  0  0  0  0  0  0
   12.1313    1.0288   22.9444 C   0  0  0  0  0  0  0  0  0  0  0  0
   13.5233    0.7599   23.4668 C   0  0  0  0  0  0  0  0  0  0  0  0
   13.5298    0.7416   24.8152 F   0  0  0  0  0  0  0  0  0  0  0  0
   14.3506    1.7407   23.0723 F   0  0  0  0  0  0  0  0  0  0  0  0
   14.0351   -0.3967   23.0398 F   0  0  0  0  0  0  0  0  0  0  0  0
   11.6440    0.3537   21.9247 N   0  0  0  0  0  0  0  0  0  0  0  0
   10.4418    0.8771   21.6799 N   0  0  0  0  0  0  0  0  0  0  0  0
    9.6064    0.1976   20.7113 C   0  0  0  0  0  0  0  0  0  0  0  0
    8.5697   -0.6275   21.3697 C   0  0  0  0  0  0  0  0  0  0  0  0
    8.7756   -1.4318   22.3790 N   0  0  0  0  0  0  0  0  0  0  0  0
    7.5592   -2.0027   22.5785 C   0  0  0  0  0  0  0  0  0  0  0  0
    7.3421   -3.0028   23.6450 C   0  0  0  0  0  0  0  0  0  0  0  0
    6.0579   -3.5385   23.8633 C   0  0  0  0  0  0  0  0  0  0  0  0
    5.8560   -4.4607   24.8919 C   0  0  0  0  0  0  0  0  0  0  0  0
    6.9237   -4.8563   25.7071 C   0  0  0  0  0  0  0  0  0  0  0  0
    8.2032   -4.3274   25.4918 C   0  0  0  0  0  0  0  0  0  0  0  0
    8.4172   -3.4067   24.4643 C   0  0  0  0  0  0  0  0  0  0  0  0
    9.4072   -2.9781   24.2972 H   0  0  0  0  0  0  0  0  0  0  0  0
    9.0310   -4.6231   26.1325 H   0  0  0  0  0  0  0  0  0  0  0  0
    6.7593   -5.5707   26.5111 H   0  0  0  0  0  0  0  0  0  0  0  0
    4.8603   -4.8603   25.0629 H   0  0  0  0  0  0  0  0  0  0  0  0
    5.2331   -3.2058   23.2332 H   0  0  0  0  0  0  0  0  0  0  0  0
    6.6206   -1.5895   21.7408 N   0  0  0  0  0  0  0  0  0  0  0  0
    7.2823   -0.7245   20.9386 N   0  0  0  0  0  0  0  0  0  0  0  0
    6.6136   -0.0410   19.8897 C   0  0  0  0  0  0  0  0  0  0  0  0
    5.4078    0.6154   20.1492 C   0  0  0  0  0  0  0  0  0  0  0  0
    4.8037    1.3076   19.0980 C   0  0  0  0  0  0  0  0  0  0  0  0
    5.4103    1.2976   17.8354 C   0  0  0  0  0  0  0  0  0  0  0  0
    6.5510    0.6415   17.5732 N   0  0  0  0  0  0  0  0  0  0  0  0
    7.1385   -0.0065   18.5844 C   0  0  0  0  0  0  0  0  0  0  0  0
    8.0791   -0.5073   18.3529 H   0  0  0  0  0  0  0  0  0  0  0  0
    4.9577    1.8303   17.0040 H   0  0  0  0  0  0  0  0  0  0  0  0
    3.8785    1.8500   19.2502 H   0  0  0  0  0  0  0  0  0  0  0  0
    4.9854    0.5804   21.1558 H   0  0  0  0  0  0  0  0  0  0  0  0
   10.2662   -0.4774   20.1680 H   0  0  0  0  0  0  0  0  0  0  0  0
    9.1838    0.9113   20.0127 H   0  0  0  0  0  0  0  0  0  0  0  0
   11.3508    2.6914   24.2218 H   0  0  0  0  0  0  0  0  0  0  0  0
    8.8273    3.4153   23.2882 H   0  0  0  0  0  0  0  0  0  0  0  0
    7.9767    2.0251   22.6142 H   0  0  0  0  0  0  0  0  0  0  0  0
    8.7320    3.2108   21.5448 H   0  0  0  0  0  0  0  0  0  0  0  0
  1  2  1  0
  2  3  2  0
  3  4  1  0
  4  5  1  0
  5  6  1  0
  5  7  1  0
  5  8  1  0
  4  9  2  0
  9 10  1  0
 10 11  1  0
 11 12  1  0
 12 13  2  0
 13 14  1  0
 14 15  1  0
 15 16  2  0
 16 17  1  0
 17 18  2  0
 18 19  1  0
 19 20  2  0
 20 21  1  0
 19 22  1  0
 18 23  1  0
 17 24  1  0
 16 25  1  0
 14 26  2  0
 26 27  1  0
 27 28  1  0
 28 29  2  0
 29 30  1  0
 30 31  2  0
 31 32  1  0
 32 33  2  0
 33 34  1  0
 31 35  1  0
 30 36  1  0
 29 37  1  0
 11 38  1  0
 11 39  1  0
  3 40  1  0
  1 41  1  0
  1 42  1  0
  1 43  1  0
 10  2  1  0
 27 12  1  0
 33 28  1  0
 20 15  1  0
M  END
>  <cnnaffinity>  (1) 
-6.4759

>  <filename>  (1) 
Cc1cc(C(F)(F)F)nn1Cc1nc(-c2ccccc2)nn1-c1cccnc1

$$$$
