
     RDKit          3D

 43 46  0  0  0  0  0  0  0  0999 V2000
    7.1411    0.5323   25.7985 C   0  0  0  0  0  0  0  0  0  0  0  0
    8.1080    1.2996   24.9602 C   0  0  0  0  0  0  0  0  0  0  0  0
    9.3787    1.7472   25.2362 C   0  0  0  0  0  0  0  0  0  0  0  0
    9.8506    2.2607   24.0066 C   0  0  0  0  0  0  0  0  0  0  0  0
   11.2526    2.7729   23.7178 C   0  0  0  0  0  0  0  0  0  0  0  0
   11.4581    4.0168   24.2000 F   0  0  0  0  0  0  0  0  0  0  0  0
   11.5243    2.7909   22.4130 F   0  0  0  0  0  0  0  0  0  0  0  0
   12.1800    1.9735   24.2946 F   0  0  0  0  0  0  0  0  0  0  0  0
    8.9256    2.1496   23.0536 N   0  0  0  0  0  0  0  0  0  0  0  0
    7.8669    1.5849   23.6472 N   0  0  0  0  0  0  0  0  0  0  0  0
    6.7783    1.0767   22.8242 C   0  0  0  0  0  0  0  0  0  0  0  0
    7.1435   -0.2327   22.1996 C   0  0  0  0  0  0  0  0  0  0  0  0
    7.6471   -1.2508   22.8684 N   0  0  0  0  0  0  0  0  0  0  0  0
    7.9041   -2.1698   21.9054 C   0  0  0  0  0  0  0  0  0  0  0  0
    8.5332   -3.4970   22.1681 C   0  0  0  0  0  0  0  0  0  0  0  0
    7.7015   -4.4608   23.0066 C   0  0  0  0  0  0  0  0  0  0  0  0
    8.4198   -5.3792   23.9527 C   0  0  0  0  0  0  0  0  0  0  0  0
    7.6193   -4.2248   24.4852 C   0  0  0  0  0  0  0  0  0  0  0  0
    6.6875   -4.4503   24.9986 H   0  0  0  0  0  0  0  0  0  0  0  0
    8.1527   -3.3545   24.8675 H   0  0  0  0  0  0  0  0  0  0  0  0
    8.0344   -6.3803   24.1241 H   0  0  0  0  0  0  0  0  0  0  0  0
    9.5058   -5.3219   23.9914 H   0  0  0  0  0  0  0  0  0  0  0  0
    6.8020   -4.8405   22.5149 H   0  0  0  0  0  0  0  0  0  0  0  0
    9.4952   -3.3178   22.6660 H   0  0  0  0  0  0  0  0  0  0  0  0
    8.7433   -3.9297   21.1913 H   0  0  0  0  0  0  0  0  0  0  0  0
    7.5858   -1.7808   20.6850 N   0  0  0  0  0  0  0  0  0  0  0  0
    7.0488   -0.5495   20.8751 N   0  0  0  0  0  0  0  0  0  0  0  0
    6.4497    0.1438   19.7880 C   0  0  0  0  0  0  0  0  0  0  0  0
    5.2584    0.8678   19.9253 C   0  0  0  0  0  0  0  0  0  0  0  0
    4.7397    1.5013   18.7913 C   0  0  0  0  0  0  0  0  0  0  0  0
    5.4192    1.3854   17.5754 C   0  0  0  0  0  0  0  0  0  0  0  0
    6.5558    0.6783   17.4374 N   0  0  0  0  0  0  0  0  0  0  0  0
    7.0495    0.0705   18.5183 C   0  0  0  0  0  0  0  0  0  0  0  0
    7.9708   -0.4966   18.3911 H   0  0  0  0  0  0  0  0  0  0  0  0
    5.0424    1.8640   16.6755 H   0  0  0  0  0  0  0  0  0  0  0  0
    3.8285    2.0862   18.8413 H   0  0  0  0  0  0  0  0  0  0  0  0
    4.7320    0.9259   20.8791 H   0  0  0  0  0  0  0  0  0  0  0  0
    5.9083    0.9408   23.4716 H   0  0  0  0  0  0  0  0  0  0  0  0
    6.5483    1.8388   22.0825 H   0  0  0  0  0  0  0  0  0  0  0  0
    9.9045    1.6280   26.1756 H   0  0  0  0  0  0  0  0  0  0  0  0
    7.0162   -0.4789   25.3907 H   0  0  0  0  0  0  0  0  0  0  0  0
    7.5062    0.4698   26.8255 H   0  0  0  0  0  0  0  0  0  0  0  0
    6.1479    0.9926   25.8137 H   0  0  0  0  0  0  0  0  0  0  0  0
  1  2  1  0
  2  3  2  0
  3  4  1  0
  4  5  1  0
  5  6  1  0
  5  7  1  0
  5  8  1  0
  4  9  2  0
  9 10  1  0
 10 11  1  0
 11 12  1  0
 12 13  2  0
 13 14  1  0
 14 15  1  0
 15 16  1  0
 16 17  1  0
 17 18  1  0
 18 19  1  0
 18 20  1  0
 17 21  1  0
 17 22  1  0
 16 23  1  0
 15 24  1  0
 15 25  1  0
 14 26  2  0
 26 27  1  0
 27 28  1  0
 28 29  2  0
 29 30  1  0
 30 31  2  0
 31 32  1  0
 32 33  2  0
 33 34  1  0
 31 35  1  0
 30 36  1  0
 29 37  1  0
 11 38  1  0
 11 39  1  0
  3 40  1  0
  1 41  1  0
  1 42  1  0
  1 43  1  0
 10  2  1  0
 27 12  1  0
 33 28  1  0
 18 16  1  0
M  END
>  <cnnaffinity>  (1) 
-6.34401

>  <filename>  (1) 
Cc1cc(C(F)(F)F)nn1Cc1nc(CC2CC2)nn1-c1cccnc1

$$$$
