
     RDKit          3D

 41 45  0  0  0  0  0  0  0  0999 V2000
    7.3589    4.7943   21.9416 C   0  0  0  0  0  0  0  0  0  0  0  0
    7.1395    3.5224   22.7260 C   0  0  0  0  0  0  0  0  0  0  0  0
    6.6310    3.5489   24.0310 C   0  0  0  0  0  0  0  0  0  0  0  0
    6.4299    2.3648   24.7534 C   0  0  0  0  0  0  0  0  0  0  0  0
    6.7280    1.1371   24.1763 C   0  0  0  0  0  0  0  0  0  0  0  0
    7.1982    1.0820   22.8542 C   0  0  0  0  0  0  0  0  0  0  0  0
    7.4715   -0.2427   22.2705 C   0  0  0  0  0  0  0  0  0  0  0  0
    8.0278   -1.2356   22.9452 N   0  0  0  0  0  0  0  0  0  0  0  0
    8.1667   -2.1976   22.0128 C   0  0  0  0  0  0  0  0  0  0  0  0
    8.9065   -3.4756   22.1984 C   0  0  0  0  0  0  0  0  0  0  0  0
    8.1981   -4.7643   21.8749 C   0  0  0  0  0  0  0  0  0  0  0  0
    8.8170   -4.6034   23.2730 C   0  0  0  0  0  0  0  0  0  0  0  0
    8.8622   -5.7593   24.2877 C   0  0  0  0  0  0  0  0  0  0  0  0
    9.7852   -4.5885   24.4338 C   0  0  0  0  0  0  0  0  0  0  0  0
    9.5397   -3.8716   25.2156 H   0  0  0  0  0  0  0  0  0  0  0  0
   10.8524   -4.7226   24.2425 H   0  0  0  0  0  0  0  0  0  0  0  0
    9.2917   -6.6982   23.9286 H   0  0  0  0  0  0  0  0  0  0  0  0
    8.0370   -5.8712   24.9863 H   0  0  0  0  0  0  0  0  0  0  0  0
    7.1049   -4.7259   21.8709 H   0  0  0  0  0  0  0  0  0  0  0  0
    8.5834   -5.5218   21.1872 H   0  0  0  0  0  0  0  0  0  0  0  0
    9.9478   -3.2699   21.9250 H   0  0  0  0  0  0  0  0  0  0  0  0
    7.7377   -1.8791   20.8015 N   0  0  0  0  0  0  0  0  0  0  0  0
    7.2649   -0.6214   20.9703 N   0  0  0  0  0  0  0  0  0  0  0  0
    6.5824    0.0210   19.9001 C   0  0  0  0  0  0  0  0  0  0  0  0
    5.3707    0.6851   20.1199 C   0  0  0  0  0  0  0  0  0  0  0  0
    4.7848    1.3326   19.0326 C   0  0  0  0  0  0  0  0  0  0  0  0
    5.4251    1.2982   17.7901 C   0  0  0  0  0  0  0  0  0  0  0  0
    6.5781    0.6424   17.5706 N   0  0  0  0  0  0  0  0  0  0  0  0
    7.1323    0.0016   18.6029 C   0  0  0  0  0  0  0  0  0  0  0  0
    8.0628   -0.5295   18.4095 H   0  0  0  0  0  0  0  0  0  0  0  0
    4.9886    1.8053   16.9340 H   0  0  0  0  0  0  0  0  0  0  0  0
    3.8498    1.8692   19.1432 H   0  0  0  0  0  0  0  0  0  0  0  0
    4.9299    0.7317   21.1186 H   0  0  0  0  0  0  0  0  0  0  0  0
    7.4253    2.2809   22.1485 C   0  0  0  0  0  0  0  0  0  0  0  0
    7.8108    2.2477   21.1312 H   0  0  0  0  0  0  0  0  0  0  0  0
    6.5993    0.2149   24.7441 H   0  0  0  0  0  0  0  0  0  0  0  0
    6.0480    2.4052   25.7679 H   0  0  0  0  0  0  0  0  0  0  0  0
    6.4019    4.5033   24.4929 H   0  0  0  0  0  0  0  0  0  0  0  0
    6.5177    4.9898   21.2635 H   0  0  0  0  0  0  0  0  0  0  0  0
    7.4658    5.6625   22.5991 H   0  0  0  0  0  0  0  0  0  0  0  0
    8.2686    4.7259   21.3367 H   0  0  0  0  0  0  0  0  0  0  0  0
  1  2  1  0
  2  3  2  0
  3  4  1  0
  4  5  2  0
  5  6  1  0
  6  7  1  0
  7  8  2  0
  8  9  1  0
  9 10  1  0
 10 11  1  0
 11 12  1  0
 12 13  1  0
 13 14  1  0
 14 15  1  0
 14 16  1  0
 13 17  1  0
 13 18  1  0
 11 19  1  0
 11 20  1  0
 10 21  1  0
  9 22  2  0
 22 23  1  0
 23 24  1  0
 24 25  2  0
 25 26  1  0
 26 27  2  0
 27 28  1  0
 28 29  2  0
 29 30  1  0
 27 31  1  0
 26 32  1  0
 25 33  1  0
  6 34  2  0
 34 35  1  0
  5 36  1  0
  4 37  1  0
  3 38  1  0
  1 39  1  0
  1 40  1  0
  1 41  1  0
 34  2  1  0
 23  7  1  0
 29 24  1  0
 12 10  1  0
 14 12  1  0
M  END
>  <cnnaffinity>  (1) 
-5.96682

>  <filename>  (1) 
Cc1cccc(-c2nc(C3CC34CC4)nn2-c2cccnc2)c1

$$$$
