
     RDKit          3D

 31 33  0  0  0  0  0  0  0  0999 V2000
    8.5955    2.2645   21.1983 C   0  0  0  0  0  0  0  0  0  0  0  0
    7.5733    2.2279   22.3174 C   0  0  0  0  0  0  0  0  0  0  0  0
    7.0370    3.3960   22.8905 C   0  0  0  0  0  0  0  0  0  0  0  0
    7.4827    4.9674   22.2597 Cl  0  0  0  0  0  0  0  0  0  0  0  0
    6.1439    3.3690   23.9690 C   0  0  0  0  0  0  0  0  0  0  0  0
    5.7523    2.1392   24.5088 C   0  0  0  0  0  0  0  0  0  0  0  0
    6.2397    0.9596   23.9455 C   0  0  0  0  0  0  0  0  0  0  0  0
    7.1048    0.9953   22.8454 C   0  0  0  0  0  0  0  0  0  0  0  0
    7.5275   -0.3017   22.2682 C   0  0  0  0  0  0  0  0  0  0  0  0
    8.2221   -1.3182   22.8791 C   0  0  0  0  0  0  0  0  0  0  0  0
    8.4793   -2.2469   21.8495 C   0  0  0  0  0  0  0  0  0  0  0  0
    7.9804   -1.8454   20.6909 N   0  0  0  0  0  0  0  0  0  0  0  0
    7.3835   -0.6633   20.9473 N   0  0  0  0  0  0  0  0  0  0  0  0
    6.6539   -0.0128   19.9182 C   0  0  0  0  0  0  0  0  0  0  0  0
    5.4393    0.6412   20.1649 C   0  0  0  0  0  0  0  0  0  0  0  0
    4.8131    1.2916   19.0998 C   0  0  0  0  0  0  0  0  0  0  0  0
    5.4181    1.2719   17.8407 C   0  0  0  0  0  0  0  0  0  0  0  0
    6.5734    0.6323   17.5929 N   0  0  0  0  0  0  0  0  0  0  0  0
    7.1705    0.0037   18.6092 C   0  0  0  0  0  0  0  0  0  0  0  0
    8.1179   -0.4812   18.3800 H   0  0  0  0  0  0  0  0  0  0  0  0
    4.9689    1.7939   16.9995 H   0  0  0  0  0  0  0  0  0  0  0  0
    3.8816    1.8308   19.2381 H   0  0  0  0  0  0  0  0  0  0  0  0
    5.0052    0.6584   21.1654 H   0  0  0  0  0  0  0  0  0  0  0  0
    8.9824   -3.2070   21.8858 H   0  0  0  0  0  0  0  0  0  0  0  0
    8.5189   -1.3133   23.9182 H   0  0  0  0  0  0  0  0  0  0  0  0
    5.9495   -0.0152   24.3290 H   0  0  0  0  0  0  0  0  0  0  0  0
    5.0818    2.0982   25.3653 H   0  0  0  0  0  0  0  0  0  0  0  0
    5.7867    4.3124   24.3750 H   0  0  0  0  0  0  0  0  0  0  0  0
    9.1925    1.3466   21.1893 H   0  0  0  0  0  0  0  0  0  0  0  0
    8.1000    2.3681   20.2294 H   0  0  0  0  0  0  0  0  0  0  0  0
    9.2723    3.1074   21.3157 H   0  0  0  0  0  0  0  0  0  0  0  0
  1  2  1  0
  2  3  2  0
  3  4  1  0
  3  5  1  0
  5  6  2  0
  6  7  1  0
  7  8  2  0
  8  9  1  0
  9 10  2  0
 10 11  1  0
 11 12  2  0
 12 13  1  0
 13 14  1  0
 14 15  2  0
 15 16  1  0
 16 17  2  0
 17 18  1  0
 18 19  2  0
 19 20  1  0
 17 21  1  0
 16 22  1  0
 15 23  1  0
 11 24  1  0
 10 25  1  0
  7 26  1  0
  6 27  1  0
  5 28  1  0
  1 29  1  0
  1 30  1  0
  1 31  1  0
  8  2  1  0
 13  9  1  0
 19 14  1  0
M  END
>  <cnnaffinity>  (1) 
-5.20372

>  <filename>  (1) 
Cc1c(Cl)cccc1-c1ccnn1-c1cccnc1

$$$$
