
     RDKit          3D

 42 45  0  0  0  0  0  0  0  0999 V2000
   14.1278    0.6362   23.2134 C   0  0  0  0  0  0  0  0  0  0  0  0
   12.9973   -0.1428   22.5915 C   0  0  0  0  0  0  0  0  0  0  0  0
   11.6404    0.1161   22.8145 C   0  0  0  0  0  0  0  0  0  0  0  0
   10.6231   -0.5968   22.1413 C   0  0  0  0  0  0  0  0  0  0  0  0
    9.2051   -0.1933   22.2625 C   0  0  0  0  0  0  0  0  0  0  0  0
    8.2138   -0.8362   21.6570 N   0  0  0  0  0  0  0  0  0  0  0  0
    7.1342   -0.0700   21.9269 N   0  0  0  0  0  0  0  0  0  0  0  0
    5.8689   -0.3187   21.2521 C   0  0  0  0  0  0  0  0  0  0  0  0
    5.7260    0.3204   19.8788 C   0  0  0  0  0  0  0  0  0  0  0  0
    4.6062    1.1126   19.5959 C   0  0  0  0  0  0  0  0  0  0  0  0
    4.5352    1.7727   18.3709 C   0  0  0  0  0  0  0  0  0  0  0  0
    5.5800    1.6059   17.4596 C   0  0  0  0  0  0  0  0  0  0  0  0
    6.6341    0.8075   17.6857 N   0  0  0  0  0  0  0  0  0  0  0  0
    6.6981    0.1844   18.8705 C   0  0  0  0  0  0  0  0  0  0  0  0
    7.5806   -0.4356   19.0355 H   0  0  0  0  0  0  0  0  0  0  0  0
    5.5604    2.1210   16.4998 H   0  0  0  0  0  0  0  0  0  0  0  0
    3.7128    2.4384   18.1330 H   0  0  0  0  0  0  0  0  0  0  0  0
    3.8076    1.2282   20.3337 H   0  0  0  0  0  0  0  0  0  0  0  0
    5.7282   -1.4041   21.2502 H   0  0  0  0  0  0  0  0  0  0  0  0
    5.0801    0.0998   21.8740 H   0  0  0  0  0  0  0  0  0  0  0  0
    7.5165    0.9824   22.6854 C   0  0  0  0  0  0  0  0  0  0  0  0
    6.6121    2.0106   23.2604 C   0  0  0  0  0  0  0  0  0  0  0  0
    6.3937    1.7448   24.7198 C   0  0  0  0  0  0  0  0  0  0  0  0
    7.1088    2.3526   25.6220 N   0  0  0  0  0  0  0  0  0  0  0  0
    6.7128    1.8424   26.8389 O   0  0  0  0  0  0  0  0  0  0  0  0
    5.7493    0.9346   26.6351 C   0  0  0  0  0  0  0  0  0  0  0  0
    5.4915    0.8138   25.3131 C   0  0  0  0  0  0  0  0  0  0  0  0
    4.7767    0.1671   24.8239 H   0  0  0  0  0  0  0  0  0  0  0  0
    5.3634    0.4615   27.5301 H   0  0  0  0  0  0  0  0  0  0  0  0
    5.6567    2.0207   22.7332 H   0  0  0  0  0  0  0  0  0  0  0  0
    7.0774    2.9896   23.1402 H   0  0  0  0  0  0  0  0  0  0  0  0
    8.8064    0.9293   22.9189 N   0  0  0  0  0  0  0  0  0  0  0  0
   10.9900   -1.6313   21.2622 C   0  0  0  0  0  0  0  0  0  0  0  0
   12.3396   -1.8801   21.0055 C   0  0  0  0  0  0  0  0  0  0  0  0
   13.3016   -1.1690   21.6928 C   0  0  0  0  0  0  0  0  0  0  0  0
   14.5871   -1.4707   21.4428 F   0  0  0  0  0  0  0  0  0  0  0  0
   12.7045   -2.5510   20.2386 H   0  0  0  0  0  0  0  0  0  0  0  0
   10.2187   -2.2088   20.7597 H   0  0  0  0  0  0  0  0  0  0  0  0
   11.3734    0.9074   23.5133 H   0  0  0  0  0  0  0  0  0  0  0  0
   14.8938    0.8320   22.4536 H   0  0  0  0  0  0  0  0  0  0  0  0
   13.8034    1.5924   23.6298 H   0  0  0  0  0  0  0  0  0  0  0  0
   14.5951    0.0576   24.0158 H   0  0  0  0  0  0  0  0  0  0  0  0
  1  2  1  0
  2  3  2  0
  3  4  1  0
  4  5  1  0
  5  6  2  0
  6  7  1  0
  7  8  1  0
  8  9  1  0
  9 10  2  0
 10 11  1  0
 11 12  2  0
 12 13  1  0
 13 14  2  0
 14 15  1  0
 12 16  1  0
 11 17  1  0
 10 18  1  0
  8 19  1  0
  8 20  1  0
  7 21  1  0
 21 22  1  0
 22 23  1  0
 23 24  2  0
 24 25  1  0
 25 26  1  0
 26 27  2  0
 27 28  1  0
 26 29  1  0
 22 30  1  0
 22 31  1  0
 21 32  2  0
  4 33  2  0
 33 34  1  0
 34 35  2  0
 35 36  1  0
 34 37  1  0
 33 38  1  0
  3 39  1  0
  1 40  1  0
  1 41  1  0
  1 42  1  0
 35  2  1  0
 32  5  1  0
 14  9  1  0
 27 23  1  0
M  END
>  <cnnaffinity>  (1) 
-6.20008

>  <filename>  (1) 
Cc1cc(-c2nc(Cc3ccon3)n(Cc3cccnc3)n2)ccc1F

$$$$
