
     RDKit          3D

 51 54  0  0  0  0  0  0  0  0999 V2000
    8.0270   -5.6179   27.1205 C   0  0  0  0  0  0  0  0  0  0  0  0
    8.2796   -4.6183   25.9920 C   0  0  0  0  0  0  0  0  0  0  0  0
    8.0127   -5.2429   24.6124 C   0  0  0  0  0  0  0  0  0  0  0  0
    8.2432   -4.2518   23.4682 C   0  0  0  0  0  0  0  0  0  0  0  0
    7.4019   -2.9683   23.6617 C   0  0  0  0  0  0  0  0  0  0  0  0
    7.6216   -1.9939   22.5481 C   0  0  0  0  0  0  0  0  0  0  0  0
    6.6716   -1.5509   21.7548 N   0  0  0  0  0  0  0  0  0  0  0  0
    7.3306   -0.6877   20.9372 N   0  0  0  0  0  0  0  0  0  0  0  0
    6.6500    0.0028   19.9010 C   0  0  0  0  0  0  0  0  0  0  0  0
    5.4355    0.6466   20.1654 C   0  0  0  0  0  0  0  0  0  0  0  0
    4.8121    1.3121   19.1084 C   0  0  0  0  0  0  0  0  0  0  0  0
    5.4010    1.2953   17.8368 C   0  0  0  0  0  0  0  0  0  0  0  0
    6.5594    0.6716   17.5760 N   0  0  0  0  0  0  0  0  0  0  0  0
    7.1659    0.0505   18.5927 C   0  0  0  0  0  0  0  0  0  0  0  0
    8.1138   -0.4306   18.3656 H   0  0  0  0  0  0  0  0  0  0  0  0
    4.9207    1.7849   16.9931 H   0  0  0  0  0  0  0  0  0  0  0  0
    3.8805    1.8403   19.2600 H   0  0  0  0  0  0  0  0  0  0  0  0
    5.0159    0.6098   21.1734 H   0  0  0  0  0  0  0  0  0  0  0  0
    8.6325   -0.6209   21.3410 C   0  0  0  0  0  0  0  0  0  0  0  0
    9.6573    0.2407   20.6844 C   0  0  0  0  0  0  0  0  0  0  0  0
   10.7318    0.7193   21.6250 C   0  0  0  0  0  0  0  0  0  0  0  0
   11.7391   -0.0764   21.9841 C   0  0  0  0  0  0  0  0  0  0  0  0
   12.7226    0.3475   23.0496 C   0  0  0  0  0  0  0  0  0  0  0  0
   12.7648    1.7543   23.2195 O   0  0  0  0  0  0  0  0  0  0  0  0
   11.4709    2.2848   23.4584 C   0  0  0  0  0  0  0  0  0  0  0  0
   10.5724    2.1003   22.2290 C   0  0  0  0  0  0  0  0  0  0  0  0
   10.8436    2.8395   21.4663 H   0  0  0  0  0  0  0  0  0  0  0  0
    9.5283    2.2953   22.5008 H   0  0  0  0  0  0  0  0  0  0  0  0
   11.0270    1.7890   24.3391 H   0  0  0  0  0  0  0  0  0  0  0  0
   11.6016    3.3433   23.6965 H   0  0  0  0  0  0  0  0  0  0  0  0
   12.4607   -0.1269   24.0124 H   0  0  0  0  0  0  0  0  0  0  0  0
   13.7321    0.0257   22.7897 H   0  0  0  0  0  0  0  0  0  0  0  0
   11.8190   -1.0835   21.5829 H   0  0  0  0  0  0  0  0  0  0  0  0
    9.1755    1.0945   20.2037 H   0  0  0  0  0  0  0  0  0  0  0  0
   10.0699   -0.4044   19.8994 H   0  0  0  0  0  0  0  0  0  0  0  0
    8.8527   -1.4802   22.3088 N   0  0  0  0  0  0  0  0  0  0  0  0
    7.6766   -2.3281   25.0456 C   0  0  0  0  0  0  0  0  0  0  0  0
    7.4528   -3.3355   26.1769 C   0  0  0  0  0  0  0  0  0  0  0  0
    7.6892   -2.8735   27.1440 H   0  0  0  0  0  0  0  0  0  0  0  0
    6.3861   -3.6031   26.2222 H   0  0  0  0  0  0  0  0  0  0  0  0
    7.0389   -1.4479   25.1933 H   0  0  0  0  0  0  0  0  0  0  0  0
    8.7147   -1.9678   25.0707 H   0  0  0  0  0  0  0  0  0  0  0  0
    6.3417   -3.2310   23.6083 H   0  0  0  0  0  0  0  0  0  0  0  0
    9.3067   -3.9783   23.4245 H   0  0  0  0  0  0  0  0  0  0  0  0
    8.0033   -4.7215   22.5070 H   0  0  0  0  0  0  0  0  0  0  0  0
    6.9733   -5.6036   24.5809 H   0  0  0  0  0  0  0  0  0  0  0  0
    8.6449   -6.1290   24.4743 H   0  0  0  0  0  0  0  0  0  0  0  0
    9.3417   -4.3293   26.0200 H   0  0  0  0  0  0  0  0  0  0  0  0
    8.2487   -5.1809   28.1007 H   0  0  0  0  0  0  0  0  0  0  0  0
    6.9760   -5.9328   27.1270 H   0  0  0  0  0  0  0  0  0  0  0  0
    8.6402   -6.5181   27.0020 H   0  0  0  0  0  0  0  0  0  0  0  0
  1  2  1  0
  2  3  1  0
  3  4  1  0
  4  5  1  0
  5  6  1  0
  6  7  2  0
  7  8  1  0
  8  9  1  0
  9 10  2  0
 10 11  1  0
 11 12  2  0
 12 13  1  0
 13 14  2  0
 14 15  1  0
 12 16  1  0
 11 17  1  0
 10 18  1  0
  8 19  1  0
 19 20  1  0
 20 21  1  0
 21 22  2  0
 22 23  1  0
 23 24  1  0
 24 25  1  0
 25 26  1  0
 26 27  1  0
 26 28  1  0
 25 29  1  0
 25 30  1  0
 23 31  1  0
 23 32  1  0
 22 33  1  0
 20 34  1  0
 20 35  1  0
 19 36  2  0
  5 37  1  0
 37 38  1  0
 38 39  1  0
 38 40  1  0
 37 41  1  0
 37 42  1  0
  5 43  1  0
  4 44  1  0
  4 45  1  0
  3 46  1  0
  3 47  1  0
  2 48  1  0
  1 49  1  0
  1 50  1  0
  1 51  1  0
 38  2  1  0
 36  6  1  0
 14  9  1  0
 26 21  1  0
M  END
>  <cnnaffinity>  (1) 
-6.53304

>  <filename>  (1) 
CC1CCC(c2nc(CC3=CCOCC3)n(-c3cccnc3)n2)CC1

$$$$
