
     RDKit          3D

 42 45  0  0  0  0  0  0  0  0999 V2000
    6.2014    3.9512   28.8134 C   0  0  0  0  0  0  0  0  0  0  0  0
    6.5461    3.3334   27.4848 C   0  0  0  0  0  0  0  0  0  0  0  0
    5.7781    2.3039   26.9179 C   0  0  0  0  0  0  0  0  0  0  0  0
    6.1434    1.6716   25.7282 C   0  0  0  0  0  0  0  0  0  0  0  0
    7.3106    2.0775   25.0532 C   0  0  0  0  0  0  0  0  0  0  0  0
    7.7284    1.4618   23.7746 C   0  0  0  0  0  0  0  0  0  0  0  0
    7.0956    0.4615   23.1795 N   0  0  0  0  0  0  0  0  0  0  0  0
    7.8345    0.2488   22.0650 N   0  0  0  0  0  0  0  0  0  0  0  0
    7.3843   -0.6749   21.0229 C   0  0  0  0  0  0  0  0  0  0  0  0
    6.6770    0.0094   19.8679 C   0  0  0  0  0  0  0  0  0  0  0  0
    5.4693    0.6793   20.1076 C   0  0  0  0  0  0  0  0  0  0  0  0
    4.8440    1.3289   19.0428 C   0  0  0  0  0  0  0  0  0  0  0  0
    5.4498    1.2872   17.7834 C   0  0  0  0  0  0  0  0  0  0  0  0
    6.5904    0.6286   17.5272 N   0  0  0  0  0  0  0  0  0  0  0  0
    7.1768    0.0025   18.5561 C   0  0  0  0  0  0  0  0  0  0  0  0
    8.0906   -0.5501   18.3165 H   0  0  0  0  0  0  0  0  0  0  0  0
    4.9988    1.7961   16.9360 H   0  0  0  0  0  0  0  0  0  0  0  0
    3.9094    1.8621   19.1763 H   0  0  0  0  0  0  0  0  0  0  0  0
    5.0479    0.6868   21.1157 H   0  0  0  0  0  0  0  0  0  0  0  0
    8.2654   -1.2345   20.6915 H   0  0  0  0  0  0  0  0  0  0  0  0
    6.7087   -1.3682   21.5319 H   0  0  0  0  0  0  0  0  0  0  0  0
    8.8528    1.1324   22.0405 C   0  0  0  0  0  0  0  0  0  0  0  0
    9.9824    1.0915   21.0753 C   0  0  0  0  0  0  0  0  0  0  0  0
   10.9368    0.0093   21.4701 C   0  0  0  0  0  0  0  0  0  0  0  0
   10.6407   -1.2322   21.1956 N   0  0  0  0  0  0  0  0  0  0  0  0
   11.6705   -1.9951   21.6835 O   0  0  0  0  0  0  0  0  0  0  0  0
   12.5683   -1.1897   22.2609 C   0  0  0  0  0  0  0  0  0  0  0  0
   12.1671    0.1022   22.1805 C   0  0  0  0  0  0  0  0  0  0  0  0
   12.6282    0.9991   22.5671 H   0  0  0  0  0  0  0  0  0  0  0  0
   13.4368   -1.6997   22.6479 H   0  0  0  0  0  0  0  0  0  0  0  0
    9.6074    0.9031   20.0650 H   0  0  0  0  0  0  0  0  0  0  0  0
   10.4870    2.0596   21.1122 H   0  0  0  0  0  0  0  0  0  0  0  0
    8.8217    1.9063   23.0931 N   0  0  0  0  0  0  0  0  0  0  0  0
    8.0913    3.1166   25.6010 C   0  0  0  0  0  0  0  0  0  0  0  0
    7.6905    3.7276   26.7756 C   0  0  0  0  0  0  0  0  0  0  0  0
    8.4285    4.7528   27.2448 F   0  0  0  0  0  0  0  0  0  0  0  0
    9.0096    3.4520   25.1284 H   0  0  0  0  0  0  0  0  0  0  0  0
    5.5316    0.8643   25.3309 H   0  0  0  0  0  0  0  0  0  0  0  0
    4.8731    1.9956   27.4373 H   0  0  0  0  0  0  0  0  0  0  0  0
    5.1677    3.7307   29.0980 H   0  0  0  0  0  0  0  0  0  0  0  0
    6.8607    3.5589   29.5965 H   0  0  0  0  0  0  0  0  0  0  0  0
    6.3275    5.0382   28.7974 H   0  0  0  0  0  0  0  0  0  0  0  0
  1  2  1  0
  2  3  2  0
  3  4  1  0
  4  5  2  0
  5  6  1  0
  6  7  2  0
  7  8  1  0
  8  9  1  0
  9 10  1  0
 10 11  2  0
 11 12  1  0
 12 13  2  0
 13 14  1  0
 14 15  2  0
 15 16  1  0
 13 17  1  0
 12 18  1  0
 11 19  1  0
  9 20  1  0
  9 21  1  0
  8 22  1  0
 22 23  1  0
 23 24  1  0
 24 25  2  0
 25 26  1  0
 26 27  1  0
 27 28  2  0
 28 29  1  0
 27 30  1  0
 23 31  1  0
 23 32  1  0
 22 33  2  0
  5 34  1  0
 34 35  2  0
 35 36  1  0
 34 37  1  0
  4 38  1  0
  3 39  1  0
  1 40  1  0
  1 41  1  0
  1 42  1  0
 35  2  1  0
 33  6  1  0
 15 10  1  0
 28 24  1  0
M  END
>  <cnnaffinity>  (1) 
-6.20531

>  <filename>  (1) 
Cc1ccc(-c2nc(Cc3ccon3)n(Cc3cccnc3)n2)cc1F

$$$$
