
     RDKit          3D

 46 49  0  0  0  0  0  0  0  0999 V2000
    8.9097    2.6695   22.1997 C   0  0  0  0  0  0  0  0  0  0  0  0
   10.2384    1.9812   22.4384 C   0  0  0  0  0  0  0  0  0  0  0  0
   11.1170    2.4787   23.4143 C   0  0  0  0  0  0  0  0  0  0  0  0
   12.3328    1.8412   23.6728 C   0  0  0  0  0  0  0  0  0  0  0  0
   12.6747    0.6813   22.9803 C   0  0  0  0  0  0  0  0  0  0  0  0
   11.7879    0.1215   22.0550 C   0  0  0  0  0  0  0  0  0  0  0  0
   12.1016   -1.2312   21.4682 C   0  0  0  0  0  0  0  0  0  0  0  0
   12.1429   -1.1744   20.3808 H   0  0  0  0  0  0  0  0  0  0  0  0
   11.3403   -1.9664   21.7649 H   0  0  0  0  0  0  0  0  0  0  0  0
   13.0802   -1.5873   21.7960 H   0  0  0  0  0  0  0  0  0  0  0  0
   10.5958    0.8112   21.7320 C   0  0  0  0  0  0  0  0  0  0  0  0
    9.6152    0.2027   20.7426 C   0  0  0  0  0  0  0  0  0  0  0  0
    8.5474   -0.6175   21.3979 C   0  0  0  0  0  0  0  0  0  0  0  0
    8.7080   -1.4059   22.4444 N   0  0  0  0  0  0  0  0  0  0  0  0
    7.4815   -1.9640   22.6100 C   0  0  0  0  0  0  0  0  0  0  0  0
    7.1993   -2.9709   23.6749 C   0  0  0  0  0  0  0  0  0  0  0  0
    7.4212   -4.4072   23.2115 C   0  0  0  0  0  0  0  0  0  0  0  0
    7.9034   -5.4200   24.1997 C   0  0  0  0  0  0  0  0  0  0  0  0
    8.8176   -4.9526   23.1067 C   0  0  0  0  0  0  0  0  0  0  0  0
    9.0366   -5.6782   22.3257 H   0  0  0  0  0  0  0  0  0  0  0  0
    9.6433   -4.2933   23.3813 H   0  0  0  0  0  0  0  0  0  0  0  0
    8.0983   -5.1188   25.2273 H   0  0  0  0  0  0  0  0  0  0  0  0
    7.5013   -6.4119   24.0773 H   0  0  0  0  0  0  0  0  0  0  0  0
    6.6893   -4.7720   22.4882 H   0  0  0  0  0  0  0  0  0  0  0  0
    6.1649   -2.8531   24.0106 H   0  0  0  0  0  0  0  0  0  0  0  0
    7.8477   -2.7359   24.5273 H   0  0  0  0  0  0  0  0  0  0  0  0
    6.5803   -1.5835   21.7299 N   0  0  0  0  0  0  0  0  0  0  0  0
    7.2688   -0.7382   20.9215 N   0  0  0  0  0  0  0  0  0  0  0  0
    6.5959   -0.0498   19.8721 C   0  0  0  0  0  0  0  0  0  0  0  0
    5.3918    0.6196   20.1281 C   0  0  0  0  0  0  0  0  0  0  0  0
    4.7992    1.3200   19.0738 C   0  0  0  0  0  0  0  0  0  0  0  0
    5.4040    1.3148   17.8118 C   0  0  0  0  0  0  0  0  0  0  0  0
    6.5427    0.6555   17.5536 N   0  0  0  0  0  0  0  0  0  0  0  0
    7.1158   -0.0067   18.5662 C   0  0  0  0  0  0  0  0  0  0  0  0
    8.0454   -0.5227   18.3375 H   0  0  0  0  0  0  0  0  0  0  0  0
    4.9546    1.8454   16.9734 H   0  0  0  0  0  0  0  0  0  0  0  0
    3.8741    1.8631   19.2205 H   0  0  0  0  0  0  0  0  0  0  0  0
    4.9547    0.5836   21.1280 H   0  0  0  0  0  0  0  0  0  0  0  0
    9.1526    0.9840   20.1365 H   0  0  0  0  0  0  0  0  0  0  0  0
   10.1180   -0.4801   20.0510 H   0  0  0  0  0  0  0  0  0  0  0  0
   13.6289    0.1860   23.1610 H   0  0  0  0  0  0  0  0  0  0  0  0
   13.0001    2.2165   24.4355 H   0  0  0  0  0  0  0  0  0  0  0  0
   10.8329    3.3632   23.9822 H   0  0  0  0  0  0  0  0  0  0  0  0
    8.7303    3.4577   22.9345 H   0  0  0  0  0  0  0  0  0  0  0  0
    8.0769    1.9595   22.2555 H   0  0  0  0  0  0  0  0  0  0  0  0
    8.8539    3.1354   21.2105 H   0  0  0  0  0  0  0  0  0  0  0  0
  1  2  1  0
  2  3  2  0
  3  4  1  0
  4  5  2  0
  5  6  1  0
  6  7  1  0
  7  8  1  0
  7  9  1  0
  7 10  1  0
  6 11  2  0
 11 12  1  0
 12 13  1  0
 13 14  2  0
 14 15  1  0
 15 16  1  0
 16 17  1  0
 17 18  1  0
 18 19  1  0
 19 20  1  0
 19 21  1  0
 18 22  1  0
 18 23  1  0
 17 24  1  0
 16 25  1  0
 16 26  1  0
 15 27  2  0
 27 28  1  0
 28 29  1  0
 29 30  2  0
 30 31  1  0
 31 32  2  0
 32 33  1  0
 33 34  2  0
 34 35  1  0
 32 36  1  0
 31 37  1  0
 30 38  1  0
 12 39  1  0
 12 40  1  0
  5 41  1  0
  4 42  1  0
  3 43  1  0
  1 44  1  0
  1 45  1  0
  1 46  1  0
 11  2  1  0
 28 13  1  0
 34 29  1  0
 19 17  1  0
M  END
>  <cnnaffinity>  (1) 
-6.08494

>  <filename>  (1) 
Cc1cccc(C)c1Cc1nc(CC2CC2)nn1-c1cccnc1

$$$$
