
     RDKit          3D

 43 45  0  0  0  0  0  0  0  0999 V2000
   11.9701    2.9617   22.4033 C   0  0  0  0  0  0  0  0  0  0  0  0
   10.8658    2.3620   23.2508 C   0  0  0  0  0  0  0  0  0  0  0  0
   11.0804    2.0566   24.6020 C   0  0  0  0  0  0  0  0  0  0  0  0
   10.0485    1.6174   25.4315 C   0  0  0  0  0  0  0  0  0  0  0  0
    8.7614    1.4663   24.9141 C   0  0  0  0  0  0  0  0  0  0  0  0
    8.5042    1.6550   23.5494 C   0  0  0  0  0  0  0  0  0  0  0  0
    7.1776    1.2123   22.9248 C   0  0  0  0  0  0  0  0  0  0  0  0
    7.3220   -0.1373   22.2837 C   0  0  0  0  0  0  0  0  0  0  0  0
    7.9078   -1.1368   22.9184 N   0  0  0  0  0  0  0  0  0  0  0  0
    7.9086   -2.1353   22.0140 C   0  0  0  0  0  0  0  0  0  0  0  0
    8.5694   -3.4369   22.3067 C   0  0  0  0  0  0  0  0  0  0  0  0
    7.7029   -4.4468   23.0825 C   0  0  0  0  0  0  0  0  0  0  0  0
    6.3423   -4.7310   22.4239 C   0  0  0  0  0  0  0  0  0  0  0  0
    6.4188   -4.9525   21.0316 O   0  0  0  0  0  0  0  0  0  0  0  0
    6.6091   -4.0963   20.6124 H   0  0  0  0  0  0  0  0  0  0  0  0
    5.6439   -3.9070   22.6586 H   0  0  0  0  0  0  0  0  0  0  0  0
    5.9311   -5.6452   22.8696 H   0  0  0  0  0  0  0  0  0  0  0  0
    7.5272   -4.0912   24.1100 H   0  0  0  0  0  0  0  0  0  0  0  0
    8.2789   -5.3798   23.1653 H   0  0  0  0  0  0  0  0  0  0  0  0
    8.8403   -3.8730   21.3445 H   0  0  0  0  0  0  0  0  0  0  0  0
    9.4887   -3.1985   22.8513 H   0  0  0  0  0  0  0  0  0  0  0  0
    7.3350   -1.8460   20.8645 N   0  0  0  0  0  0  0  0  0  0  0  0
    6.9357   -0.5511   21.0366 N   0  0  0  0  0  0  0  0  0  0  0  0
    6.3860    0.1326   19.9175 C   0  0  0  0  0  0  0  0  0  0  0  0
    5.2313    0.9202   19.9877 C   0  0  0  0  0  0  0  0  0  0  0  0
    4.7757    1.5091   18.8007 C   0  0  0  0  0  0  0  0  0  0  0  0
    5.4822    1.3070   17.6133 C   0  0  0  0  0  0  0  0  0  0  0  0
    6.5793    0.5315   17.5380 N   0  0  0  0  0  0  0  0  0  0  0  0
    7.0120   -0.0326   18.6689 C   0  0  0  0  0  0  0  0  0  0  0  0
    7.9238   -0.6210   18.6109 H   0  0  0  0  0  0  0  0  0  0  0  0
    5.1648    1.7890   16.6883 H   0  0  0  0  0  0  0  0  0  0  0  0
    3.8856    2.1293   18.7904 H   0  0  0  0  0  0  0  0  0  0  0  0
    4.6943    1.0589   20.9270 H   0  0  0  0  0  0  0  0  0  0  0  0
    6.8090    1.9477   22.2040 H   0  0  0  0  0  0  0  0  0  0  0  0
    6.4282    1.1061   23.7156 H   0  0  0  0  0  0  0  0  0  0  0  0
    9.5701    2.0991   22.7479 C   0  0  0  0  0  0  0  0  0  0  0  0
    9.2713    2.3251   21.0496 Cl  0  0  0  0  0  0  0  0  0  0  0  0
    7.9616    1.1770   25.5887 H   0  0  0  0  0  0  0  0  0  0  0  0
   10.2526    1.3660   26.4645 H   0  0  0  0  0  0  0  0  0  0  0  0
   12.0786    2.1503   25.0144 H   0  0  0  0  0  0  0  0  0  0  0  0
   12.3164    2.2730   21.6252 H   0  0  0  0  0  0  0  0  0  0  0  0
   11.6223    3.8642   21.8883 H   0  0  0  0  0  0  0  0  0  0  0  0
   12.8389    3.2401   23.0104 H   0  0  0  0  0  0  0  0  0  0  0  0
  1  2  1  0
  2  3  2  0
  3  4  1  0
  4  5  2  0
  5  6  1  0
  6  7  1  0
  7  8  1  0
  8  9  2  0
  9 10  1  0
 10 11  1  0
 11 12  1  0
 12 13  1  0
 13 14  1  0
 14 15  1  0
 13 16  1  0
 13 17  1  0
 12 18  1  0
 12 19  1  0
 11 20  1  0
 11 21  1  0
 10 22  2  0
 22 23  1  0
 23 24  1  0
 24 25  2  0
 25 26  1  0
 26 27  2  0
 27 28  1  0
 28 29  2  0
 29 30  1  0
 27 31  1  0
 26 32  1  0
 25 33  1  0
  7 34  1  0
  7 35  1  0
  6 36  2  0
 36 37  1  0
  5 38  1  0
  4 39  1  0
  3 40  1  0
  1 41  1  0
  1 42  1  0
  1 43  1  0
 36  2  1  0
 23  8  1  0
 29 24  1  0
M  END
>  <cnnaffinity>  (1) 
-5.49502

>  <filename>  (1) 
Cc1cccc(Cc2nc(CCCO)nn2-c2cccnc2)c1Cl

$$$$
