
     RDKit          3D

 49 52  0  0  0  0  0  0  0  0999 V2000
    6.7325   -6.0305   26.6792 C   0  0  0  0  0  0  0  0  0  0  0  0
    6.9502   -5.0141   25.5888 C   0  0  0  0  0  0  0  0  0  0  0  0
    5.8980   -4.6478   24.7331 C   0  0  0  0  0  0  0  0  0  0  0  0
    6.0736   -3.6940   23.7353 C   0  0  0  0  0  0  0  0  0  0  0  0
    7.3319   -3.0887   23.5603 C   0  0  0  0  0  0  0  0  0  0  0  0
    7.5451   -2.0887   22.4984 C   0  0  0  0  0  0  0  0  0  0  0  0
    6.6068   -1.6682   21.6638 N   0  0  0  0  0  0  0  0  0  0  0  0
    7.2707   -0.7908   20.8717 N   0  0  0  0  0  0  0  0  0  0  0  0
    6.5899   -0.0957   19.8389 C   0  0  0  0  0  0  0  0  0  0  0  0
    5.3904    0.5722   20.1091 C   0  0  0  0  0  0  0  0  0  0  0  0
    4.8024    1.3042   19.0744 C   0  0  0  0  0  0  0  0  0  0  0  0
    5.4087    1.3194   17.8127 C   0  0  0  0  0  0  0  0  0  0  0  0
    6.5313    0.6390   17.5346 N   0  0  0  0  0  0  0  0  0  0  0  0
    7.0991   -0.0522   18.5299 C   0  0  0  0  0  0  0  0  0  0  0  0
    8.0047   -0.6056   18.2875 H   0  0  0  0  0  0  0  0  0  0  0  0
    4.9713    1.8874   16.9938 H   0  0  0  0  0  0  0  0  0  0  0  0
    3.8870    1.8611   19.2329 H   0  0  0  0  0  0  0  0  0  0  0  0
    4.9438    0.5186   21.1037 H   0  0  0  0  0  0  0  0  0  0  0  0
    8.5571   -0.6896   21.3100 C   0  0  0  0  0  0  0  0  0  0  0  0
    9.5925    0.2586   20.8187 C   0  0  0  0  0  0  0  0  0  0  0  0
    9.8460    1.3024   21.8072 N   0  0  0  0  0  0  0  0  0  0  0  0
   11.0287    1.2460   22.4491 N   0  0  0  0  0  0  0  0  0  0  0  0
   10.9767    2.1700   23.3908 C   0  0  0  0  0  0  0  0  0  0  0  0
   12.1569    2.3836   24.2809 C   0  0  0  0  0  0  0  0  0  0  0  0
   12.5080    3.4200   24.1961 H   0  0  0  0  0  0  0  0  0  0  0  0
   11.9086    2.1798   25.3284 H   0  0  0  0  0  0  0  0  0  0  0  0
   12.9537    1.6989   23.9801 H   0  0  0  0  0  0  0  0  0  0  0  0
    9.7281    2.8276   23.3973 C   0  0  0  0  0  0  0  0  0  0  0  0
    9.3202    3.9945   24.2488 C   0  0  0  0  0  0  0  0  0  0  0  0
    9.3267    4.9343   23.6788 H   0  0  0  0  0  0  0  0  0  0  0  0
    8.3181    3.8627   24.6700 H   0  0  0  0  0  0  0  0  0  0  0  0
   10.0027    4.1334   25.0914 H   0  0  0  0  0  0  0  0  0  0  0  0
    9.0206    2.2510   22.3557 C   0  0  0  0  0  0  0  0  0  0  0  0
    7.6407    2.6201   21.8750 C   0  0  0  0  0  0  0  0  0  0  0  0
    7.4158    3.6666   22.1244 H   0  0  0  0  0  0  0  0  0  0  0  0
    7.5559    2.4957   20.7941 H   0  0  0  0  0  0  0  0  0  0  0  0
    6.8572    2.0119   22.3482 H   0  0  0  0  0  0  0  0  0  0  0  0
    9.3657    0.6905   19.8437 H   0  0  0  0  0  0  0  0  0  0  0  0
   10.5203   -0.3083   20.7337 H   0  0  0  0  0  0  0  0  0  0  0  0
    8.7611   -1.5108   22.3061 N   0  0  0  0  0  0  0  0  0  0  0  0
    8.3966   -3.4528   24.4070 C   0  0  0  0  0  0  0  0  0  0  0  0
    8.2028   -4.4035   25.4051 C   0  0  0  0  0  0  0  0  0  0  0  0
    9.0345   -4.6820   26.0478 H   0  0  0  0  0  0  0  0  0  0  0  0
    9.3742   -2.9889   24.2725 H   0  0  0  0  0  0  0  0  0  0  0  0
    5.2469   -3.4103   23.0860 H   0  0  0  0  0  0  0  0  0  0  0  0
    4.9288   -5.1243   24.8492 H   0  0  0  0  0  0  0  0  0  0  0  0
    7.6587   -6.5612   26.9211 H   0  0  0  0  0  0  0  0  0  0  0  0
    6.3734   -5.5608   27.6034 H   0  0  0  0  0  0  0  0  0  0  0  0
    5.9862   -6.7739   26.3798 H   0  0  0  0  0  0  0  0  0  0  0  0
  1  2  1  0
  2  3  2  0
  3  4  1  0
  4  5  2  0
  5  6  1  0
  6  7  2  0
  7  8  1  0
  8  9  1  0
  9 10  2  0
 10 11  1  0
 11 12  2  0
 12 13  1  0
 13 14  2  0
 14 15  1  0
 12 16  1  0
 11 17  1  0
 10 18  1  0
  8 19  1  0
 19 20  1  0
 20 21  1  0
 21 22  1  0
 22 23  2  0
 23 24  1  0
 24 25  1  0
 24 26  1  0
 24 27  1  0
 23 28  1  0
 28 29  1  0
 29 30  1  0
 29 31  1  0
 29 32  1  0
 28 33  2  0
 33 34  1  0
 34 35  1  0
 34 36  1  0
 34 37  1  0
 20 38  1  0
 20 39  1  0
 19 40  2  0
  5 41  1  0
 41 42  2  0
 42 43  1  0
 41 44  1  0
  4 45  1  0
  3 46  1  0
  1 47  1  0
  1 48  1  0
  1 49  1  0
 42  2  1  0
 40  6  1  0
 14  9  1  0
 33 21  1  0
M  END
>  <cnnaffinity>  (1) 
-6.09184

>  <filename>  (1) 
Cc1ccc(-c2nc(Cn3nc(C)c(C)c3C)n(-c3cccnc3)n2)cc1

$$$$
