
     RDKit          3D

 43 46  0  0  0  0  0  0  0  0999 V2000
    6.0356    3.7358   29.0602 C   0  0  0  0  0  0  0  0  0  0  0  0
    6.3751    3.1244   27.7211 C   0  0  0  0  0  0  0  0  0  0  0  0
    5.6847    2.0313   27.1672 C   0  0  0  0  0  0  0  0  0  0  0  0
    6.0397    1.4811   25.9278 C   0  0  0  0  0  0  0  0  0  0  0  0
    7.1078    2.0315   25.1891 C   0  0  0  0  0  0  0  0  0  0  0  0
    7.5603    1.4745   23.8868 C   0  0  0  0  0  0  0  0  0  0  0  0
    6.9590    0.4946   23.2296 N   0  0  0  0  0  0  0  0  0  0  0  0
    7.7493    0.3087   22.1458 N   0  0  0  0  0  0  0  0  0  0  0  0
    7.3670   -0.6260   21.0880 C   0  0  0  0  0  0  0  0  0  0  0  0
    6.6850    0.0432   19.9080 C   0  0  0  0  0  0  0  0  0  0  0  0
    5.4814    0.7325   20.1048 C   0  0  0  0  0  0  0  0  0  0  0  0
    4.8816    1.3527   19.0085 C   0  0  0  0  0  0  0  0  0  0  0  0
    5.5055    1.2688   17.7610 C   0  0  0  0  0  0  0  0  0  0  0  0
    6.6576    0.6165   17.5498 N   0  0  0  0  0  0  0  0  0  0  0  0
    7.2213    0.0239   18.6109 C   0  0  0  0  0  0  0  0  0  0  0  0
    8.1543   -0.5054   18.4114 H   0  0  0  0  0  0  0  0  0  0  0  0
    5.0633    1.7521   16.8936 H   0  0  0  0  0  0  0  0  0  0  0  0
    3.9575    1.9095   19.1093 H   0  0  0  0  0  0  0  0  0  0  0  0
    5.0412    0.7877   21.1030 H   0  0  0  0  0  0  0  0  0  0  0  0
    8.2685   -1.1597   20.7643 H   0  0  0  0  0  0  0  0  0  0  0  0
    6.7034   -1.3497   21.5731 H   0  0  0  0  0  0  0  0  0  0  0  0
    8.7733    1.1852   22.1916 C   0  0  0  0  0  0  0  0  0  0  0  0
    9.9110    1.2143   21.2211 C   0  0  0  0  0  0  0  0  0  0  0  0
   10.9946    0.2165   21.5418 C   0  0  0  0  0  0  0  0  0  0  0  0
   12.0547    0.3427   22.4039 C   0  0  0  0  0  0  0  0  0  0  0  0
   12.7207   -0.8985   22.3532 C   0  0  0  0  0  0  0  0  0  0  0  0
   12.1198   -1.7482   21.5369 N   0  0  0  0  0  0  0  0  0  0  0  0
   11.0518   -1.0626   21.0808 N   0  0  0  0  0  0  0  0  0  0  0  0
   10.5638   -1.4469   20.2827 H   0  0  0  0  0  0  0  0  0  0  0  0
   13.6393   -1.1681   22.8528 H   0  0  0  0  0  0  0  0  0  0  0  0
   12.3067    1.2127   22.9956 H   0  0  0  0  0  0  0  0  0  0  0  0
   10.3189    2.2265   21.2693 H   0  0  0  0  0  0  0  0  0  0  0  0
    9.5280    1.0749   20.2102 H   0  0  0  0  0  0  0  0  0  0  0  0
    8.6833    1.9373   23.2629 N   0  0  0  0  0  0  0  0  0  0  0  0
    7.8031    3.1361   25.7237 C   0  0  0  0  0  0  0  0  0  0  0  0
    7.4337    3.6445   26.9593 C   0  0  0  0  0  0  0  0  0  0  0  0
    8.1271    4.6934   27.4430 F   0  0  0  0  0  0  0  0  0  0  0  0
    8.6320    3.5912   25.1891 H   0  0  0  0  0  0  0  0  0  0  0  0
    5.4963    0.6215   25.5405 H   0  0  0  0  0  0  0  0  0  0  0  0
    4.8509    1.5970   27.7194 H   0  0  0  0  0  0  0  0  0  0  0  0
    6.8968    3.7035   29.7378 H   0  0  0  0  0  0  0  0  0  0  0  0
    5.7603    4.7914   28.9522 H   0  0  0  0  0  0  0  0  0  0  0  0
    5.2055    3.2212   29.5540 H   0  0  0  0  0  0  0  0  0  0  0  0
  1  2  1  0
  2  3  2  0
  3  4  1  0
  4  5  2  0
  5  6  1  0
  6  7  2  0
  7  8  1  0
  8  9  1  0
  9 10  1  0
 10 11  2  0
 11 12  1  0
 12 13  2  0
 13 14  1  0
 14 15  2  0
 15 16  1  0
 13 17  1  0
 12 18  1  0
 11 19  1  0
  9 20  1  0
  9 21  1  0
  8 22  1  0
 22 23  1  0
 23 24  1  0
 24 25  2  0
 25 26  1  0
 26 27  2  0
 27 28  1  0
 28 29  1  0
 26 30  1  0
 25 31  1  0
 23 32  1  0
 23 33  1  0
 22 34  2  0
  5 35  1  0
 35 36  2  0
 36 37  1  0
 35 38  1  0
  4 39  1  0
  3 40  1  0
  1 41  1  0
  1 42  1  0
  1 43  1  0
 36  2  1  0
 34  6  1  0
 15 10  1  0
 28 24  1  0
M  END
>  <cnnaffinity>  (1) 
-6.21547

>  <filename>  (1) 
Cc1ccc(-c2nc(Cc3ccn[nH]3)n(Cc3cccnc3)n2)cc1F

$$$$
