
     RDKit          3D

 49 52  0  0  0  0  0  0  0  0999 V2000
   16.0191   -0.3080   19.6543 C   0  0  0  0  0  0  0  0  0  0  0  0
   14.7266   -0.7728   20.5451 C   0  0  0  0  0  0  0  0  0  0  0  0
   14.4338    0.1167   21.6476 C   0  0  0  0  0  0  0  0  0  0  0  0
   13.1515    0.3054   22.1533 C   0  0  0  0  0  0  0  0  0  0  0  0
   12.1104   -0.4990   21.6295 C   0  0  0  0  0  0  0  0  0  0  0  0
   10.6616   -0.1312   21.6935 C   0  0  0  0  0  0  0  0  0  0  0  0
    9.7069   -0.9050   21.1888 N   0  0  0  0  0  0  0  0  0  0  0  0
    8.5767   -0.1943   21.3875 N   0  0  0  0  0  0  0  0  0  0  0  0
    7.2758   -0.7353   20.9888 C   0  0  0  0  0  0  0  0  0  0  0  0
    6.5573    0.0294   19.8915 C   0  0  0  0  0  0  0  0  0  0  0  0
    5.3306    0.6782   20.0844 C   0  0  0  0  0  0  0  0  0  0  0  0
    4.7438    1.3516   19.0084 C   0  0  0  0  0  0  0  0  0  0  0  0
    5.4018    1.3428   17.7759 C   0  0  0  0  0  0  0  0  0  0  0  0
    6.5648    0.7087   17.5641 N   0  0  0  0  0  0  0  0  0  0  0  0
    7.1198    0.0776   18.6056 C   0  0  0  0  0  0  0  0  0  0  0  0
    8.0597   -0.4352   18.4071 H   0  0  0  0  0  0  0  0  0  0  0  0
    4.9762    1.8592   16.9175 H   0  0  0  0  0  0  0  0  0  0  0  0
    3.8094    1.8913   19.1139 H   0  0  0  0  0  0  0  0  0  0  0  0
    4.8370    0.6641   21.0593 H   0  0  0  0  0  0  0  0  0  0  0  0
    6.6337   -0.7996   21.8758 H   0  0  0  0  0  0  0  0  0  0  0  0
    7.4794   -1.7621   20.6754 H   0  0  0  0  0  0  0  0  0  0  0  0
    8.8820    0.9519   22.0365 C   0  0  0  0  0  0  0  0  0  0  0  0
    7.8691    1.7844   22.7523 C   0  0  0  0  0  0  0  0  0  0  0  0
    7.6543    1.1996   24.1706 C   0  0  0  0  0  0  0  0  0  0  0  0
    6.6236    1.9052   24.9827 C   0  0  0  0  0  0  0  0  0  0  0  0
    6.8156    2.9663   25.8381 C   0  0  0  0  0  0  0  0  0  0  0  0
    5.5981    3.3217   26.3104 N   0  0  0  0  0  0  0  0  0  0  0  0
    5.3055    4.3960   27.2323 C   0  0  0  0  0  0  0  0  0  0  0  0
    5.4522    4.0783   28.2694 H   0  0  0  0  0  0  0  0  0  0  0  0
    4.2670    4.6995   27.0888 H   0  0  0  0  0  0  0  0  0  0  0  0
    5.9650    5.2399   27.0165 H   0  0  0  0  0  0  0  0  0  0  0  0
    4.6231    2.5400   25.8410 N   0  0  0  0  0  0  0  0  0  0  0  0
    5.2322    1.6785   25.0350 C   0  0  0  0  0  0  0  0  0  0  0  0
    4.6491    0.9210   24.5214 H   0  0  0  0  0  0  0  0  0  0  0  0
    7.7178    3.4844   26.1455 H   0  0  0  0  0  0  0  0  0  0  0  0
    7.3898    0.1359   24.0706 H   0  0  0  0  0  0  0  0  0  0  0  0
    8.6242    1.2171   24.6859 H   0  0  0  0  0  0  0  0  0  0  0  0
    8.2372    2.8113   22.8108 H   0  0  0  0  0  0  0  0  0  0  0  0
    6.9234    1.8172   22.2009 H   0  0  0  0  0  0  0  0  0  0  0  0
   10.1911    1.0309   22.2201 N   0  0  0  0  0  0  0  0  0  0  0  0
   12.4941   -1.6490   20.9144 C   0  0  0  0  0  0  0  0  0  0  0  0
   13.7943   -1.8023   20.4148 C   0  0  0  0  0  0  0  0  0  0  0  0
   14.1305   -2.9670   19.8436 F   0  0  0  0  0  0  0  0  0  0  0  0
   11.7314   -2.3778   20.7200 H   0  0  0  0  0  0  0  0  0  0  0  0
   12.9606    1.1343   22.8374 H   0  0  0  0  0  0  0  0  0  0  0  0
   15.2125    0.8044   21.9820 H   0  0  0  0  0  0  0  0  0  0  0  0
   16.3853    0.5748   20.1572 H   0  0  0  0  0  0  0  0  0  0  0  0
   16.8295   -1.0323   19.6575 H   0  0  0  0  0  0  0  0  0  0  0  0
   15.9478    0.1251   18.6435 H   0  0  0  0  0  0  0  0  0  0  0  0
  1  2  1  0
  2  3  2  0
  3  4  1  0
  4  5  2  0
  5  6  1  0
  6  7  2  0
  7  8  1  0
  8  9  1  0
  9 10  1  0
 10 11  2  0
 11 12  1  0
 12 13  2  0
 13 14  1  0
 14 15  2  0
 15 16  1  0
 13 17  1  0
 12 18  1  0
 11 19  1  0
  9 20  1  0
  9 21  1  0
  8 22  1  0
 22 23  1  0
 23 24  1  0
 24 25  1  0
 25 26  2  0
 26 27  1  0
 27 28  1  0
 28 29  1  0
 28 30  1  0
 28 31  1  0
 27 32  1  0
 32 33  2  0
 33 34  1  0
 26 35  1  0
 24 36  1  0
 24 37  1  0
 23 38  1  0
 23 39  1  0
 22 40  2  0
  5 41  1  0
 41 42  2  0
 42 43  1  0
 41 44  1  0
  4 45  1  0
  3 46  1  0
  1 47  1  0
  1 48  1  0
  1 49  1  0
 42  2  1  0
 40  6  1  0
 15 10  1  0
 33 25  1  0
M  END
>  <cnnaffinity>  (1) 
-6.63271

>  <filename>  (1) 
Cc1ccc(-c2nc(CCc3cnn(C)c3)n(Cc3cccnc3)n2)cc1F

$$$$
