
     RDKit          3D

 46 49  0  0  0  0  0  0  0  0999 V2000
    5.4253    4.3569   27.3396 C   0  0  0  0  0  0  0  0  0  0  0  0
    5.5419    3.2673   26.3273 C   0  0  0  0  0  0  0  0  0  0  0  0
    4.5756    2.5072   25.7249 C   0  0  0  0  0  0  0  0  0  0  0  0
    5.2565    1.6579   24.8756 N   0  0  0  0  0  0  0  0  0  0  0  0
    6.5801    1.9337   25.0093 C   0  0  0  0  0  0  0  0  0  0  0  0
    7.6128    1.2493   24.2001 C   0  0  0  0  0  0  0  0  0  0  0  0
    7.8217    1.8125   22.7629 C   0  0  0  0  0  0  0  0  0  0  0  0
    8.8145    0.9519   22.0677 C   0  0  0  0  0  0  0  0  0  0  0  0
   10.1160    1.0080   22.3099 N   0  0  0  0  0  0  0  0  0  0  0  0
   10.5576   -0.1883   21.8701 C   0  0  0  0  0  0  0  0  0  0  0  0
   11.9618   -0.6171   21.8457 C   0  0  0  0  0  0  0  0  0  0  0  0
   12.2012   -1.8129   21.1516 C   0  0  0  0  0  0  0  0  0  0  0  0
   13.4320   -2.0749   20.5828 C   0  0  0  0  0  0  0  0  0  0  0  0
   14.4257   -1.1334   20.7775 C   0  0  0  0  0  0  0  0  0  0  0  0
   15.4290   -1.1607   19.8926 F   0  0  0  0  0  0  0  0  0  0  0  0
   14.3146   -0.1059   21.7339 C   0  0  0  0  0  0  0  0  0  0  0  0
   13.0521    0.1713   22.2604 C   0  0  0  0  0  0  0  0  0  0  0  0
   12.9164    1.0428   22.9032 H   0  0  0  0  0  0  0  0  0  0  0  0
   15.1467    0.5574   21.9488 H   0  0  0  0  0  0  0  0  0  0  0  0
   13.6180   -2.9404   19.9556 H   0  0  0  0  0  0  0  0  0  0  0  0
   11.3357   -2.4344   20.9802 H   0  0  0  0  0  0  0  0  0  0  0  0
    9.6086   -0.9569   21.3473 N   0  0  0  0  0  0  0  0  0  0  0  0
    8.4976   -0.2146   21.4588 N   0  0  0  0  0  0  0  0  0  0  0  0
    7.2205   -0.7630   21.0003 C   0  0  0  0  0  0  0  0  0  0  0  0
    6.5434    0.0172   19.8951 C   0  0  0  0  0  0  0  0  0  0  0  0
    5.3245    0.6788   20.0817 C   0  0  0  0  0  0  0  0  0  0  0  0
    4.7494    1.3568   19.0031 C   0  0  0  0  0  0  0  0  0  0  0  0
    5.4198    1.3488   17.7766 C   0  0  0  0  0  0  0  0  0  0  0  0
    6.5874    0.7172   17.5765 N   0  0  0  0  0  0  0  0  0  0  0  0
    7.1290    0.0777   18.6195 C   0  0  0  0  0  0  0  0  0  0  0  0
    8.0779   -0.4253   18.4306 H   0  0  0  0  0  0  0  0  0  0  0  0
    5.0041    1.8643   16.9129 H   0  0  0  0  0  0  0  0  0  0  0  0
    3.8143    1.8974   19.1012 H   0  0  0  0  0  0  0  0  0  0  0  0
    4.8406    0.6729   21.0625 H   0  0  0  0  0  0  0  0  0  0  0  0
    6.5451   -0.8580   21.8576 H   0  0  0  0  0  0  0  0  0  0  0  0
    7.4434   -1.7816   20.6681 H   0  0  0  0  0  0  0  0  0  0  0  0
    6.8851    1.8576   22.1982 H   0  0  0  0  0  0  0  0  0  0  0  0
    8.2206    2.8282   22.8129 H   0  0  0  0  0  0  0  0  0  0  0  0
    8.5621    1.3244   24.7416 H   0  0  0  0  0  0  0  0  0  0  0  0
    7.3642    0.1802   24.1421 H   0  0  0  0  0  0  0  0  0  0  0  0
    6.7848    2.8917   25.8732 N   0  0  0  0  0  0  0  0  0  0  0  0
    4.8967    0.9326   24.2759 H   0  0  0  0  0  0  0  0  0  0  0  0
    3.5008    2.5118   25.8288 H   0  0  0  0  0  0  0  0  0  0  0  0
    5.4301    3.9477   28.3556 H   0  0  0  0  0  0  0  0  0  0  0  0
    6.2877    5.0221   27.2490 H   0  0  0  0  0  0  0  0  0  0  0  0
    4.5108    4.9393   27.2041 H   0  0  0  0  0  0  0  0  0  0  0  0
  1  2  1  0
  2  3  2  0
  3  4  1  0
  4  5  1  0
  5  6  1  0
  6  7  1  0
  7  8  1  0
  8  9  2  0
  9 10  1  0
 10 11  1  0
 11 12  2  0
 12 13  1  0
 13 14  2  0
 14 15  1  0
 14 16  1  0
 16 17  2  0
 17 18  1  0
 16 19  1  0
 13 20  1  0
 12 21  1  0
 10 22  2  0
 22 23  1  0
 23 24  1  0
 24 25  1  0
 25 26  2  0
 26 27  1  0
 27 28  2  0
 28 29  1  0
 29 30  2  0
 30 31  1  0
 28 32  1  0
 27 33  1  0
 26 34  1  0
 24 35  1  0
 24 36  1  0
  7 37  1  0
  7 38  1  0
  6 39  1  0
  6 40  1  0
  5 41  2  0
  4 42  1  0
  3 43  1  0
  1 44  1  0
  1 45  1  0
  1 46  1  0
 41  2  1  0
 23  8  1  0
 30 25  1  0
 17 11  1  0
M  END
>  <cnnaffinity>  (1) 
-6.64626

>  <filename>  (1) 
Cc1c[nH]c(CCc2nc(-c3ccc(F)cc3)nn2Cc2cccnc2)n1

$$$$
