
     RDKit          3D

 47 50  0  0  0  0  0  0  0  0999 V2000
    6.0883    4.9684   27.5544 C   0  0  0  0  0  0  0  0  0  0  0  0
    5.6067    3.8270   26.6874 C   0  0  0  0  0  0  0  0  0  0  0  0
    4.2548    3.4472   26.6034 C   0  0  0  0  0  0  0  0  0  0  0  0
    3.7961    2.4538   25.8294 N   0  0  0  0  0  0  0  0  0  0  0  0
    4.6919    1.7645   25.1109 C   0  0  0  0  0  0  0  0  0  0  0  0
    6.0695    2.0269   25.1193 C   0  0  0  0  0  0  0  0  0  0  0  0
    7.0400    1.1975   24.3240 C   0  0  0  0  0  0  0  0  0  0  0  0
    7.0566    1.5109   22.8094 C   0  0  0  0  0  0  0  0  0  0  0  0
    8.1253    0.7273   22.1353 C   0  0  0  0  0  0  0  0  0  0  0  0
    9.3901    0.9865   22.3780 N   0  0  0  0  0  0  0  0  0  0  0  0
   10.0358   -0.0969   21.8824 C   0  0  0  0  0  0  0  0  0  0  0  0
   11.4704   -0.2191   22.1264 C   0  0  0  0  0  0  0  0  0  0  0  0
   12.3292   -1.1246   21.4768 C   0  0  0  0  0  0  0  0  0  0  0  0
   13.6750   -1.0404   21.7908 C   0  0  0  0  0  0  0  0  0  0  0  0
   14.5482   -1.8521   21.1869 F   0  0  0  0  0  0  0  0  0  0  0  0
   14.1314   -0.0883   22.7069 C   0  0  0  0  0  0  0  0  0  0  0  0
   13.3076    0.7246   23.3724 N   0  0  0  0  0  0  0  0  0  0  0  0
   12.0066    0.6513   23.0956 C   0  0  0  0  0  0  0  0  0  0  0  0
   11.3594    1.3183   23.6572 H   0  0  0  0  0  0  0  0  0  0  0  0
   15.1871    0.0355   22.8713 H   0  0  0  0  0  0  0  0  0  0  0  0
   12.0081   -1.8605   20.7438 H   0  0  0  0  0  0  0  0  0  0  0  0
    9.2525   -0.9816   21.2959 N   0  0  0  0  0  0  0  0  0  0  0  0
    8.0148   -0.4423   21.4717 N   0  0  0  0  0  0  0  0  0  0  0  0
    6.8052   -1.0123   20.8942 C   0  0  0  0  0  0  0  0  0  0  0  0
    6.2574   -0.1598   19.7650 C   0  0  0  0  0  0  0  0  0  0  0  0
    5.0574    0.5542   19.8517 C   0  0  0  0  0  0  0  0  0  0  0  0
    4.6809    1.3705   18.7826 C   0  0  0  0  0  0  0  0  0  0  0  0
    5.5168    1.4379   17.6646 C   0  0  0  0  0  0  0  0  0  0  0  0
    6.6622    0.7480   17.5536 N   0  0  0  0  0  0  0  0  0  0  0  0
    7.0194   -0.0130   18.5940 C   0  0  0  0  0  0  0  0  0  0  0  0
    7.9757   -0.5289   18.5058 H   0  0  0  0  0  0  0  0  0  0  0  0
    5.2599    2.0759   16.8234 H   0  0  0  0  0  0  0  0  0  0  0  0
    3.7896    1.9855   18.8238 H   0  0  0  0  0  0  0  0  0  0  0  0
    4.4352    0.4982   20.7492 H   0  0  0  0  0  0  0  0  0  0  0  0
    6.0573   -1.1253   21.6887 H   0  0  0  0  0  0  0  0  0  0  0  0
    7.0619   -2.0229   20.5699 H   0  0  0  0  0  0  0  0  0  0  0  0
    6.0856    1.3518   22.3392 H   0  0  0  0  0  0  0  0  0  0  0  0
    7.3210    2.5604   22.6609 H   0  0  0  0  0  0  0  0  0  0  0  0
    6.8312    0.1289   24.4736 H   0  0  0  0  0  0  0  0  0  0  0  0
    8.0551    1.3544   24.7139 H   0  0  0  0  0  0  0  0  0  0  0  0
    6.5116    3.0944   25.9121 C   0  0  0  0  0  0  0  0  0  0  0  0
    7.5716    3.3587   25.9328 H   0  0  0  0  0  0  0  0  0  0  0  0
    4.2914    0.9585   24.4935 H   0  0  0  0  0  0  0  0  0  0  0  0
    3.5047    3.9697   27.1967 H   0  0  0  0  0  0  0  0  0  0  0  0
    6.1513    5.9039   26.9846 H   0  0  0  0  0  0  0  0  0  0  0  0
    7.0902    4.7589   27.9456 H   0  0  0  0  0  0  0  0  0  0  0  0
    5.4291    5.1446   28.4116 H   0  0  0  0  0  0  0  0  0  0  0  0
  1  2  1  0
  2  3  2  0
  3  4  1  0
  4  5  2  0
  5  6  1  0
  6  7  1  0
  7  8  1  0
  8  9  1  0
  9 10  2  0
 10 11  1  0
 11 12  1  0
 12 13  2  0
 13 14  1  0
 14 15  1  0
 14 16  2  0
 16 17  1  0
 17 18  2  0
 18 19  1  0
 16 20  1  0
 13 21  1  0
 11 22  2  0
 22 23  1  0
 23 24  1  0
 24 25  1  0
 25 26  2  0
 26 27  1  0
 27 28  2  0
 28 29  1  0
 29 30  2  0
 30 31  1  0
 28 32  1  0
 27 33  1  0
 26 34  1  0
 24 35  1  0
 24 36  1  0
  8 37  1  0
  8 38  1  0
  7 39  1  0
  7 40  1  0
  6 41  2  0
 41 42  1  0
  5 43  1  0
  3 44  1  0
  1 45  1  0
  1 46  1  0
  1 47  1  0
 41  2  1  0
 23  9  1  0
 30 25  1  0
 18 12  1  0
M  END
>  <cnnaffinity>  (1) 
-6.58095

>  <filename>  (1) 
Cc1cncc(CCc2nc(-c3cncc(F)c3)nn2Cc2cccnc2)c1

$$$$
