
     RDKit          3D

 51 54  0  0  0  0  0  0  0  0999 V2000
    3.2824   -2.8915   25.2338 C   0  0  0  0  0  0  0  0  0  0  0  0
    4.7543   -3.2835   24.9959 C   0  0  0  0  0  0  0  0  0  0  0  0
    5.7253   -2.1375   25.3777 C   0  0  0  0  0  0  0  0  0  0  0  0
    7.1997   -2.5042   25.1252 C   0  0  0  0  0  0  0  0  0  0  0  0
    7.4708   -3.0470   23.6903 C   0  0  0  0  0  0  0  0  0  0  0  0
    7.5832   -1.9678   22.6246 C   0  0  0  0  0  0  0  0  0  0  0  0
    6.6922   -1.6328   21.7037 N   0  0  0  0  0  0  0  0  0  0  0  0
    7.3468   -0.7091   20.9448 N   0  0  0  0  0  0  0  0  0  0  0  0
    6.6572   -0.0508   19.8783 C   0  0  0  0  0  0  0  0  0  0  0  0
    5.4555    0.6192   20.1345 C   0  0  0  0  0  0  0  0  0  0  0  0
    4.8477    1.3171   19.0838 C   0  0  0  0  0  0  0  0  0  0  0  0
    5.4426    1.2981   17.8192 C   0  0  0  0  0  0  0  0  0  0  0  0
    6.5629    0.6115   17.5487 N   0  0  0  0  0  0  0  0  0  0  0  0
    7.1446   -0.0535   18.5584 C   0  0  0  0  0  0  0  0  0  0  0  0
    8.0368   -0.6227   18.2986 H   0  0  0  0  0  0  0  0  0  0  0  0
    4.9954    1.8363   16.9853 H   0  0  0  0  0  0  0  0  0  0  0  0
    3.9274    1.8712   19.2355 H   0  0  0  0  0  0  0  0  0  0  0  0
    5.0151    0.5850   21.1307 H   0  0  0  0  0  0  0  0  0  0  0  0
    8.5889   -0.5032   21.4818 C   0  0  0  0  0  0  0  0  0  0  0  0
    9.6090    0.5024   21.0488 C   0  0  0  0  0  0  0  0  0  0  0  0
    9.6394    1.7571   21.9469 C   0  0  0  0  0  0  0  0  0  0  0  0
    8.2587    2.4294   22.0487 C   0  0  0  0  0  0  0  0  0  0  0  0
    8.2157    3.6332   22.9337 C   0  0  0  0  0  0  0  0  0  0  0  0
    7.8630    3.7373   24.2550 C   0  0  0  0  0  0  0  0  0  0  0  0
    8.0402    5.0511   24.5386 N   0  0  0  0  0  0  0  0  0  0  0  0
    8.4708    5.7241   23.4710 N   0  0  0  0  0  0  0  0  0  0  0  0
    8.5773    4.8746   22.5012 N   0  0  0  0  0  0  0  0  0  0  0  0
    7.9149    5.5604   25.3995 H   0  0  0  0  0  0  0  0  0  0  0  0
    7.5123    3.0039   24.9629 H   0  0  0  0  0  0  0  0  0  0  0  0
    7.9233    2.7249   21.0493 H   0  0  0  0  0  0  0  0  0  0  0  0
    7.5309    1.6936   22.4159 H   0  0  0  0  0  0  0  0  0  0  0  0
   10.3752    2.4644   21.5431 H   0  0  0  0  0  0  0  0  0  0  0  0
    9.9890    1.4655   22.9456 H   0  0  0  0  0  0  0  0  0  0  0  0
   10.5806   -0.0017   21.0944 H   0  0  0  0  0  0  0  0  0  0  0  0
    9.4345    0.7760   20.0054 H   0  0  0  0  0  0  0  0  0  0  0  0
    8.7577   -1.2920   22.5242 N   0  0  0  0  0  0  0  0  0  0  0  0
    6.4704   -4.1749   23.3511 C   0  0  0  0  0  0  0  0  0  0  0  0
    5.0151   -3.7438   23.5499 C   0  0  0  0  0  0  0  0  0  0  0  0
    4.8213   -2.9252   22.8519 H   0  0  0  0  0  0  0  0  0  0  0  0
    4.3248   -4.5594   23.2843 H   0  0  0  0  0  0  0  0  0  0  0  0
    6.6823   -5.0281   24.0112 H   0  0  0  0  0  0  0  0  0  0  0  0
    6.6242   -4.5210   22.3239 H   0  0  0  0  0  0  0  0  0  0  0  0
    8.4830   -3.4724   23.6936 H   0  0  0  0  0  0  0  0  0  0  0  0
    7.8580   -1.6484   25.3162 H   0  0  0  0  0  0  0  0  0  0  0  0
    7.4964   -3.2922   25.8359 H   0  0  0  0  0  0  0  0  0  0  0  0
    5.4482   -1.2504   24.7818 H   0  0  0  0  0  0  0  0  0  0  0  0
    5.5880   -1.8679   26.4364 H   0  0  0  0  0  0  0  0  0  0  0  0
    4.9791   -4.1474   25.6441 H   0  0  0  0  0  0  0  0  0  0  0  0
    2.5826   -3.4525   24.6010 H   0  0  0  0  0  0  0  0  0  0  0  0
    3.1055   -1.8345   25.0160 H   0  0  0  0  0  0  0  0  0  0  0  0
    2.9788   -3.0495   26.2745 H   0  0  0  0  0  0  0  0  0  0  0  0
  1  2  1  0
  2  3  1  0
  3  4  1  0
  4  5  1  0
  5  6  1  0
  6  7  2  0
  7  8  1  0
  8  9  1  0
  9 10  2  0
 10 11  1  0
 11 12  2  0
 12 13  1  0
 13 14  2  0
 14 15  1  0
 12 16  1  0
 11 17  1  0
 10 18  1  0
  8 19  1  0
 19 20  1  0
 20 21  1  0
 21 22  1  0
 22 23  1  0
 23 24  2  0
 24 25  1  0
 25 26  1  0
 26 27  2  0
 25 28  1  0
 24 29  1  0
 22 30  1  0
 22 31  1  0
 21 32  1  0
 21 33  1  0
 20 34  1  0
 20 35  1  0
 19 36  2  0
  5 37  1  0
 37 38  1  0
 38 39  1  0
 38 40  1  0
 37 41  1  0
 37 42  1  0
  5 43  1  0
  4 44  1  0
  4 45  1  0
  3 46  1  0
  3 47  1  0
  2 48  1  0
  1 49  1  0
  1 50  1  0
  1 51  1  0
 38  2  1  0
 36  6  1  0
 14  9  1  0
 27 23  1  0
M  END
>  <cnnaffinity>  (1) 
-6.41328

>  <filename>  (1) 
CC1CCC(c2nc(CCCc3c[nH]nn3)n(-c3cccnc3)n2)CC1

$$$$
