
     RDKit          3D

 40 43  0  0  0  0  0  0  0  0999 V2000
    9.0982    7.0910   24.1222 C   0  0  0  0  0  0  0  0  0  0  0  0
    8.6546    5.9278   23.2947 C   0  0  0  0  0  0  0  0  0  0  0  0
    7.5605    5.8192   22.4943 C   0  0  0  0  0  0  0  0  0  0  0  0
    7.4235    4.5170   21.9269 C   0  0  0  0  0  0  0  0  0  0  0  0
    8.4483    3.6763   22.2370 C   0  0  0  0  0  0  0  0  0  0  0  0
    8.5931    2.2531   21.7967 C   0  0  0  0  0  0  0  0  0  0  0  0
    7.6639    1.3279   22.6202 C   0  0  0  0  0  0  0  0  0  0  0  0
    7.7137   -0.1038   22.2131 C   0  0  0  0  0  0  0  0  0  0  0  0
    8.2931   -1.0504   22.9152 N   0  0  0  0  0  0  0  0  0  0  0  0
    8.2633   -2.1236   22.0836 C   0  0  0  0  0  0  0  0  0  0  0  0
    8.9111   -3.4016   22.4733 C   0  0  0  0  0  0  0  0  0  0  0  0
    8.2441   -4.7367   22.2655 C   0  0  0  0  0  0  0  0  0  0  0  0
    8.4718   -4.2314   23.6596 C   0  0  0  0  0  0  0  0  0  0  0  0
    9.2646   -4.6763   24.2596 H   0  0  0  0  0  0  0  0  0  0  0  0
    7.6086   -3.9182   24.2432 H   0  0  0  0  0  0  0  0  0  0  0  0
    7.2188   -4.7341   21.8995 H   0  0  0  0  0  0  0  0  0  0  0  0
    8.8252   -5.5764   21.8961 H   0  0  0  0  0  0  0  0  0  0  0  0
    9.9939   -3.3271   22.3457 H   0  0  0  0  0  0  0  0  0  0  0  0
    7.7314   -1.8916   20.8981 N   0  0  0  0  0  0  0  0  0  0  0  0
    7.3342   -0.5923   20.9911 N   0  0  0  0  0  0  0  0  0  0  0  0
    6.6374    0.0368   19.9161 C   0  0  0  0  0  0  0  0  0  0  0  0
    5.4336    0.7237   20.1261 C   0  0  0  0  0  0  0  0  0  0  0  0
    4.8355    1.3577   19.0332 C   0  0  0  0  0  0  0  0  0  0  0  0
    5.4597    1.3024   17.7846 C   0  0  0  0  0  0  0  0  0  0  0  0
    6.5950    0.6140   17.5675 N   0  0  0  0  0  0  0  0  0  0  0  0
    7.1508   -0.0230   18.6046 C   0  0  0  0  0  0  0  0  0  0  0  0
    8.0477   -0.5998   18.3915 H   0  0  0  0  0  0  0  0  0  0  0  0
    5.0320    1.8182   16.9266 H   0  0  0  0  0  0  0  0  0  0  0  0
    3.8965    1.8884   19.1425 H   0  0  0  0  0  0  0  0  0  0  0  0
    4.9686    0.7393   21.1130 H   0  0  0  0  0  0  0  0  0  0  0  0
    6.6306    1.6805   22.5573 H   0  0  0  0  0  0  0  0  0  0  0  0
    7.9493    1.3641   23.6754 H   0  0  0  0  0  0  0  0  0  0  0  0
    9.6379    1.9255   21.8779 H   0  0  0  0  0  0  0  0  0  0  0  0
    8.3194    2.1951   20.7341 H   0  0  0  0  0  0  0  0  0  0  0  0
    9.5889    4.4673   23.2735 S   0  0  0  0  0  0  0  0  0  0  0  0
    6.5742    4.2041   21.3238 H   0  0  0  0  0  0  0  0  0  0  0  0
    6.8707    6.6388   22.3022 H   0  0  0  0  0  0  0  0  0  0  0  0
    8.2705    7.7835   24.2923 H   0  0  0  0  0  0  0  0  0  0  0  0
    9.4944    6.7730   25.0910 H   0  0  0  0  0  0  0  0  0  0  0  0
    9.8780    7.6382   23.5911 H   0  0  0  0  0  0  0  0  0  0  0  0
  1  2  1  0
  2  3  2  0
  3  4  1  0
  4  5  2  0
  5  6  1  0
  6  7  1  0
  7  8  1  0
  8  9  2  0
  9 10  1  0
 10 11  1  0
 11 12  1  0
 12 13  1  0
 13 14  1  0
 13 15  1  0
 12 16  1  0
 12 17  1  0
 11 18  1  0
 10 19  2  0
 19 20  1  0
 20 21  1  0
 21 22  2  0
 22 23  1  0
 23 24  2  0
 24 25  1  0
 25 26  2  0
 26 27  1  0
 24 28  1  0
 23 29  1  0
 22 30  1  0
  7 31  1  0
  7 32  1  0
  6 33  1  0
  6 34  1  0
  5 35  1  0
  4 36  1  0
  3 37  1  0
  1 38  1  0
  1 39  1  0
  1 40  1  0
 35  2  1  0
 20  8  1  0
 26 21  1  0
 13 11  1  0
M  END
>  <cnnaffinity>  (1) 
-5.77588

>  <filename>  (1) 
Cc1ccc(CCc2nc(C3CC3)nn2-c2cccnc2)s1

$$$$
