
     RDKit          3D

 48 51  0  0  0  0  0  0  0  0999 V2000
    7.7032    2.8044   21.9992 C   0  0  0  0  0  0  0  0  0  0  0  0
    9.0768    2.4274   22.4956 C   0  0  0  0  0  0  0  0  0  0  0  0
    9.8109    2.9428   23.5164 C   0  0  0  0  0  0  0  0  0  0  0  0
   10.9855    2.3052   23.6466 O   0  0  0  0  0  0  0  0  0  0  0  0
   11.0576    1.3211   22.6861 N   0  0  0  0  0  0  0  0  0  0  0  0
    9.9441    1.3885   22.0132 C   0  0  0  0  0  0  0  0  0  0  0  0
    9.6417    0.4104   20.9223 C   0  0  0  0  0  0  0  0  0  0  0  0
    8.6206   -0.5624   21.3820 C   0  0  0  0  0  0  0  0  0  0  0  0
    8.8402   -1.4046   22.3659 N   0  0  0  0  0  0  0  0  0  0  0  0
    7.6449   -2.0287   22.5151 C   0  0  0  0  0  0  0  0  0  0  0  0
    7.4049   -3.0631   23.5762 C   0  0  0  0  0  0  0  0  0  0  0  0
    7.6591   -2.4831   25.0101 C   0  0  0  0  0  0  0  0  0  0  0  0
    9.0721   -2.8149   25.5294 C   0  0  0  0  0  0  0  0  0  0  0  0
    9.3209   -4.3500   25.6377 C   0  0  0  0  0  0  0  0  0  0  0  0
    9.0429   -4.8831   27.0561 C   0  0  0  0  0  0  0  0  0  0  0  0
    9.2128   -5.9649   27.1166 H   0  0  0  0  0  0  0  0  0  0  0  0
    8.0000   -4.6971   27.3527 H   0  0  0  0  0  0  0  0  0  0  0  0
    9.6894   -4.4001   27.7984 H   0  0  0  0  0  0  0  0  0  0  0  0
    8.4970   -5.1493   24.5842 C   0  0  0  0  0  0  0  0  0  0  0  0
    8.2596   -4.3428   23.2971 C   0  0  0  0  0  0  0  0  0  0  0  0
    7.7562   -4.9569   22.5395 H   0  0  0  0  0  0  0  0  0  0  0  0
    9.2299   -4.0453   22.8673 H   0  0  0  0  0  0  0  0  0  0  0  0
    7.5208   -5.4266   25.0175 H   0  0  0  0  0  0  0  0  0  0  0  0
    9.0094   -6.0949   24.3606 H   0  0  0  0  0  0  0  0  0  0  0  0
   10.3885   -4.5087   25.4136 H   0  0  0  0  0  0  0  0  0  0  0  0
    9.8028   -2.3562   24.8444 H   0  0  0  0  0  0  0  0  0  0  0  0
    9.2362   -2.3502   26.5114 H   0  0  0  0  0  0  0  0  0  0  0  0
    6.9168   -2.9145   25.7002 H   0  0  0  0  0  0  0  0  0  0  0  0
    7.4941   -1.3972   25.0185 H   0  0  0  0  0  0  0  0  0  0  0  0
    6.3390   -3.3042   23.4890 H   0  0  0  0  0  0  0  0  0  0  0  0
    6.7058   -1.6322   21.6797 N   0  0  0  0  0  0  0  0  0  0  0  0
    7.3398   -0.6933   20.9231 N   0  0  0  0  0  0  0  0  0  0  0  0
    6.6461   -0.0108   19.8891 C   0  0  0  0  0  0  0  0  0  0  0  0
    5.4323    0.6318   20.1494 C   0  0  0  0  0  0  0  0  0  0  0  0
    4.8038    1.3122   19.1018 C   0  0  0  0  0  0  0  0  0  0  0  0
    5.3916    1.2994   17.8319 C   0  0  0  0  0  0  0  0  0  0  0  0
    6.5437    0.6638   17.5681 N   0  0  0  0  0  0  0  0  0  0  0  0
    7.1554    0.0337   18.5806 C   0  0  0  0  0  0  0  0  0  0  0  0
    8.1011   -0.4507   18.3458 H   0  0  0  0  0  0  0  0  0  0  0  0
    4.9302    1.8114   16.9924 H   0  0  0  0  0  0  0  0  0  0  0  0
    3.8738    1.8469   19.2518 H   0  0  0  0  0  0  0  0  0  0  0  0
    5.0066    0.5853   21.1532 H   0  0  0  0  0  0  0  0  0  0  0  0
   10.5440   -0.1528   20.6770 H   0  0  0  0  0  0  0  0  0  0  0  0
    9.2745    0.9361   20.0424 H   0  0  0  0  0  0  0  0  0  0  0  0
    9.6377    3.7462   24.2208 H   0  0  0  0  0  0  0  0  0  0  0  0
    7.6391    2.7199   20.9110 H   0  0  0  0  0  0  0  0  0  0  0  0
    6.9217    2.1398   22.3907 H   0  0  0  0  0  0  0  0  0  0  0  0
    7.4338    3.8271   22.2843 H   0  0  0  0  0  0  0  0  0  0  0  0
  1  2  1  0
  2  3  2  0
  3  4  1  0
  4  5  1  0
  5  6  2  0
  6  7  1  0
  7  8  1  0
  8  9  2  0
  9 10  1  0
 10 11  1  0
 11 12  1  0
 12 13  1  0
 13 14  1  0
 14 15  1  0
 15 16  1  0
 15 17  1  0
 15 18  1  0
 14 19  1  0
 19 20  1  0
 20 21  1  0
 20 22  1  0
 19 23  1  0
 19 24  1  0
 14 25  1  0
 13 26  1  0
 13 27  1  0
 12 28  1  0
 12 29  1  0
 11 30  1  0
 10 31  2  0
 31 32  1  0
 32 33  1  0
 33 34  2  0
 34 35  1  0
 35 36  2  0
 36 37  1  0
 37 38  2  0
 38 39  1  0
 36 40  1  0
 35 41  1  0
 34 42  1  0
  7 43  1  0
  7 44  1  0
  3 45  1  0
  1 46  1  0
  1 47  1  0
  1 48  1  0
  6  2  1  0
 32  8  1  0
 38 33  1  0
 20 11  1  0
M  END
>  <cnnaffinity>  (1) 
-6.48863

>  <filename>  (1) 
Cc1conc1Cc1nc(C2CCC(C)CC2)nn1-c1cccnc1

$$$$
