
     RDKit          3D

 45 48  0  0  0  0  0  0  0  0999 V2000
   14.0430    1.7631   22.8875 C   0  0  0  0  0  0  0  0  0  0  0  0
   13.2500    0.5615   22.4389 C   0  0  0  0  0  0  0  0  0  0  0  0
   13.8334   -0.6998   22.2484 C   0  0  0  0  0  0  0  0  0  0  0  0
   13.0507   -1.7979   21.8715 C   0  0  0  0  0  0  0  0  0  0  0  0
   11.6705   -1.6617   21.6993 C   0  0  0  0  0  0  0  0  0  0  0  0
   11.0694   -0.4060   21.8953 C   0  0  0  0  0  0  0  0  0  0  0  0
    9.6064   -0.1919   21.8392 C   0  0  0  0  0  0  0  0  0  0  0  0
    8.6905   -1.0186   21.3599 N   0  0  0  0  0  0  0  0  0  0  0  0
    7.5261   -0.3633   21.6125 N   0  0  0  0  0  0  0  0  0  0  0  0
    6.2563   -0.8002   21.0394 C   0  0  0  0  0  0  0  0  0  0  0  0
    5.8609   -0.0035   19.8145 C   0  0  0  0  0  0  0  0  0  0  0  0
    4.7133    0.7976   19.7452 C   0  0  0  0  0  0  0  0  0  0  0  0
    4.5198    1.5813   18.6033 C   0  0  0  0  0  0  0  0  0  0  0  0
    5.4722    1.5262   17.5815 C   0  0  0  0  0  0  0  0  0  0  0  0
    6.5555    0.7368   17.6103 N   0  0  0  0  0  0  0  0  0  0  0  0
    6.7329    0.0014   18.7121 C   0  0  0  0  0  0  0  0  0  0  0  0
    7.6261   -0.6211   18.7498 H   0  0  0  0  0  0  0  0  0  0  0  0
    5.3630    2.1335   16.6880 H   0  0  0  0  0  0  0  0  0  0  0  0
    3.6606    2.2349   18.4929 H   0  0  0  0  0  0  0  0  0  0  0  0
    3.9832    0.8328   20.5607 H   0  0  0  0  0  0  0  0  0  0  0  0
    5.5113   -0.6872   21.8192 H   0  0  0  0  0  0  0  0  0  0  0  0
    6.3488   -1.8710   20.8361 H   0  0  0  0  0  0  0  0  0  0  0  0
    7.8038    0.8261   22.1801 C   0  0  0  0  0  0  0  0  0  0  0  0
    6.8464    1.7894   22.7923 C   0  0  0  0  0  0  0  0  0  0  0  0
    6.6937    1.4044   24.2215 C   0  0  0  0  0  0  0  0  0  0  0  0
    7.2061    1.7453   25.4270 C   0  0  0  0  0  0  0  0  0  0  0  0
    6.7713    0.8351   26.3848 N   0  0  0  0  0  0  0  0  0  0  0  0
    6.0607   -0.0133   25.7222 C   0  0  0  0  0  0  0  0  0  0  0  0
    5.3146   -1.2056   26.1847 C   0  0  0  0  0  0  0  0  0  0  0  0
    4.2419   -1.0159   26.0919 H   0  0  0  0  0  0  0  0  0  0  0  0
    5.5574   -1.4175   27.2242 H   0  0  0  0  0  0  0  0  0  0  0  0
    5.5639   -2.0679   25.5628 H   0  0  0  0  0  0  0  0  0  0  0  0
    5.9698    0.2657   24.4004 O   0  0  0  0  0  0  0  0  0  0  0  0
    7.8705    2.5629   25.6713 H   0  0  0  0  0  0  0  0  0  0  0  0
    7.2865    2.7802   22.6943 H   0  0  0  0  0  0  0  0  0  0  0  0
    5.8755    1.7730   22.2913 H   0  0  0  0  0  0  0  0  0  0  0  0
    9.0917    0.9644   22.3428 N   0  0  0  0  0  0  0  0  0  0  0  0
   11.8721    0.6887   22.2595 C   0  0  0  0  0  0  0  0  0  0  0  0
   11.3897    1.6490   22.4425 H   0  0  0  0  0  0  0  0  0  0  0  0
   11.0433   -2.5145   21.4580 H   0  0  0  0  0  0  0  0  0  0  0  0
   13.5462   -2.7576   21.7684 H   0  0  0  0  0  0  0  0  0  0  0  0
   14.8958   -0.8365   22.4386 H   0  0  0  0  0  0  0  0  0  0  0  0
   15.1099    1.6011   22.7344 H   0  0  0  0  0  0  0  0  0  0  0  0
   13.8648    1.9786   23.9463 H   0  0  0  0  0  0  0  0  0  0  0  0
   13.7609    2.6701   22.3405 H   0  0  0  0  0  0  0  0  0  0  0  0
  1  2  1  0
  2  3  2  0
  3  4  1  0
  4  5  2  0
  5  6  1  0
  6  7  1  0
  7  8  2  0
  8  9  1  0
  9 10  1  0
 10 11  1  0
 11 12  2  0
 12 13  1  0
 13 14  2  0
 14 15  1  0
 15 16  2  0
 16 17  1  0
 14 18  1  0
 13 19  1  0
 12 20  1  0
 10 21  1  0
 10 22  1  0
  9 23  1  0
 23 24  1  0
 24 25  1  0
 25 26  2  0
 26 27  1  0
 27 28  2  0
 28 29  1  0
 29 30  1  0
 29 31  1  0
 29 32  1  0
 28 33  1  0
 26 34  1  0
 24 35  1  0
 24 36  1  0
 23 37  2  0
  6 38  2  0
 38 39  1  0
  5 40  1  0
  4 41  1  0
  3 42  1  0
  1 43  1  0
  1 44  1  0
  1 45  1  0
 38  2  1  0
 37  7  1  0
 16 11  1  0
 33 25  1  0
M  END
>  <cnnaffinity>  (1) 
-6.42153

>  <filename>  (1) 
Cc1cccc(-c2nc(Cc3cnc(C)o3)n(Cc3cccnc3)n2)c1

$$$$
