
     RDKit          3D

 50 52  0  0  0  0  0  0  0  0999 V2000
    8.2387    2.7198   22.0820 C   0  0  0  0  0  0  0  0  0  0  0  0
    9.6124    2.2695   22.5229 C   0  0  0  0  0  0  0  0  0  0  0  0
   10.2834    2.9121   23.5773 C   0  0  0  0  0  0  0  0  0  0  0  0
   11.4875    2.5567   24.0498 N   0  0  0  0  0  0  0  0  0  0  0  0
   12.1022    1.5239   23.4628 C   0  0  0  0  0  0  0  0  0  0  0  0
   11.5400    0.8191   22.3963 C   0  0  0  0  0  0  0  0  0  0  0  0
   10.2825    1.1916   21.9148 C   0  0  0  0  0  0  0  0  0  0  0  0
    9.6220    0.3606   20.8389 C   0  0  0  0  0  0  0  0  0  0  0  0
    8.5922   -0.5628   21.3876 C   0  0  0  0  0  0  0  0  0  0  0  0
    8.8280   -1.4239   22.3516 N   0  0  0  0  0  0  0  0  0  0  0  0
    7.6285   -2.0358   22.5107 C   0  0  0  0  0  0  0  0  0  0  0  0
    7.3961   -2.9795   23.6359 C   0  0  0  0  0  0  0  0  0  0  0  0
    7.0097   -2.2369   24.9344 C   0  0  0  0  0  0  0  0  0  0  0  0
    6.7103   -3.1230   26.1645 C   0  0  0  0  0  0  0  0  0  0  0  0
    5.5375   -4.0811   25.8834 C   0  0  0  0  0  0  0  0  0  0  0  0
    5.2576   -4.6191   26.7979 H   0  0  0  0  0  0  0  0  0  0  0  0
    5.7871   -4.8322   25.1241 H   0  0  0  0  0  0  0  0  0  0  0  0
    4.6513   -3.5312   25.5371 H   0  0  0  0  0  0  0  0  0  0  0  0
    6.2937   -2.1877   27.3141 C   0  0  0  0  0  0  0  0  0  0  0  0
    5.4533   -1.5423   27.0240 H   0  0  0  0  0  0  0  0  0  0  0  0
    7.1208   -1.5363   27.6238 H   0  0  0  0  0  0  0  0  0  0  0  0
    5.9643   -2.7772   28.1756 H   0  0  0  0  0  0  0  0  0  0  0  0
    7.9553   -3.9367   26.5781 C   0  0  0  0  0  0  0  0  0  0  0  0
    8.8347   -3.2933   26.7239 H   0  0  0  0  0  0  0  0  0  0  0  0
    8.2205   -4.6875   25.8216 H   0  0  0  0  0  0  0  0  0  0  0  0
    7.7798   -4.4729   27.5193 H   0  0  0  0  0  0  0  0  0  0  0  0
    7.8174   -1.5335   25.2023 H   0  0  0  0  0  0  0  0  0  0  0  0
    6.1184   -1.6158   24.7417 H   0  0  0  0  0  0  0  0  0  0  0  0
    6.6063   -3.6715   23.3284 H   0  0  0  0  0  0  0  0  0  0  0  0
    8.3277   -3.5386   23.7768 H   0  0  0  0  0  0  0  0  0  0  0  0
    6.6796   -1.6336   21.6908 N   0  0  0  0  0  0  0  0  0  0  0  0
    7.3112   -0.6983   20.9391 N   0  0  0  0  0  0  0  0  0  0  0  0
    6.6336   -0.0196   19.8903 C   0  0  0  0  0  0  0  0  0  0  0  0
    5.4277    0.6357   20.1531 C   0  0  0  0  0  0  0  0  0  0  0  0
    4.8027    1.3148   19.1019 C   0  0  0  0  0  0  0  0  0  0  0  0
    5.3953    1.2976   17.8324 C   0  0  0  0  0  0  0  0  0  0  0  0
    6.5431    0.6566   17.5700 N   0  0  0  0  0  0  0  0  0  0  0  0
    7.1477    0.0247   18.5814 C   0  0  0  0  0  0  0  0  0  0  0  0
    8.0976   -0.4519   18.3457 H   0  0  0  0  0  0  0  0  0  0  0  0
    4.9346    1.8119   16.9914 H   0  0  0  0  0  0  0  0  0  0  0  0
    3.8722    1.8527   19.2523 H   0  0  0  0  0  0  0  0  0  0  0  0
    5.0129    0.5999   21.1617 H   0  0  0  0  0  0  0  0  0  0  0  0
   10.3552   -0.3025   20.3762 H   0  0  0  0  0  0  0  0  0  0  0  0
    9.1668    0.9882   20.0739 H   0  0  0  0  0  0  0  0  0  0  0  0
   12.0596   -0.0314   21.9633 H   0  0  0  0  0  0  0  0  0  0  0  0
   13.0724    1.2444   23.8758 H   0  0  0  0  0  0  0  0  0  0  0  0
    9.8112    3.7582   24.0796 H   0  0  0  0  0  0  0  0  0  0  0  0
    8.2517    3.0023   21.0274 H   0  0  0  0  0  0  0  0  0  0  0  0
    7.8933    3.5793   22.6639 H   0  0  0  0  0  0  0  0  0  0  0  0
    7.4927    1.9212   22.1788 H   0  0  0  0  0  0  0  0  0  0  0  0
  1  2  1  0
  2  3  2  0
  3  4  1  0
  4  5  2  0
  5  6  1  0
  6  7  2  0
  7  8  1  0
  8  9  1  0
  9 10  2  0
 10 11  1  0
 11 12  1  0
 12 13  1  0
 13 14  1  0
 14 15  1  0
 15 16  1  0
 15 17  1  0
 15 18  1  0
 14 19  1  0
 19 20  1  0
 19 21  1  0
 19 22  1  0
 14 23  1  0
 23 24  1  0
 23 25  1  0
 23 26  1  0
 13 27  1  0
 13 28  1  0
 12 29  1  0
 12 30  1  0
 11 31  2  0
 31 32  1  0
 32 33  1  0
 33 34  2  0
 34 35  1  0
 35 36  2  0
 36 37  1  0
 37 38  2  0
 38 39  1  0
 36 40  1  0
 35 41  1  0
 34 42  1  0
  8 43  1  0
  8 44  1  0
  6 45  1  0
  5 46  1  0
  3 47  1  0
  1 48  1  0
  1 49  1  0
  1 50  1  0
  7  2  1  0
 32  9  1  0
 38 33  1  0
M  END
>  <cnnaffinity>  (1) 
-6.30653

>  <filename>  (1) 
Cc1cnccc1Cc1nc(CCC(C)(C)C)nn1-c1cccnc1

$$$$
