
     RDKit          3D

 46 49  0  0  0  0  0  0  0  0999 V2000
    6.1142    3.4710   29.1883 C   0  0  0  0  0  0  0  0  0  0  0  0
    6.4849    2.9306   27.8301 C   0  0  0  0  0  0  0  0  0  0  0  0
    7.6019    3.4075   27.1299 C   0  0  0  0  0  0  0  0  0  0  0  0
    7.9704    2.8854   25.8928 C   0  0  0  0  0  0  0  0  0  0  0  0
    7.2108    1.8629   25.2930 C   0  0  0  0  0  0  0  0  0  0  0  0
    7.6477    1.3463   23.9747 C   0  0  0  0  0  0  0  0  0  0  0  0
    7.0064    0.4505   23.2436 N   0  0  0  0  0  0  0  0  0  0  0  0
    7.7962    0.3171   22.1485 N   0  0  0  0  0  0  0  0  0  0  0  0
    7.4439   -0.6014   21.0673 C   0  0  0  0  0  0  0  0  0  0  0  0
    6.7229    0.0479   19.8939 C   0  0  0  0  0  0  0  0  0  0  0  0
    5.5024    0.7069   20.0974 C   0  0  0  0  0  0  0  0  0  0  0  0
    4.8839    1.3257   19.0081 C   0  0  0  0  0  0  0  0  0  0  0  0
    5.4980    1.2538   17.7544 C   0  0  0  0  0  0  0  0  0  0  0  0
    6.6462    0.5974   17.5284 N   0  0  0  0  0  0  0  0  0  0  0  0
    7.2321    0.0138   18.5834 C   0  0  0  0  0  0  0  0  0  0  0  0
    8.1636   -0.5152   18.3668 H   0  0  0  0  0  0  0  0  0  0  0  0
    5.0457    1.7383   16.8909 H   0  0  0  0  0  0  0  0  0  0  0  0
    3.9515    1.8706   19.1176 H   0  0  0  0  0  0  0  0  0  0  0  0
    5.0553    0.7417   21.0934 H   0  0  0  0  0  0  0  0  0  0  0  0
    8.3713   -1.0829   20.7362 H   0  0  0  0  0  0  0  0  0  0  0  0
    6.8174   -1.3706   21.5308 H   0  0  0  0  0  0  0  0  0  0  0  0
    8.8520    1.1511   22.2598 C   0  0  0  0  0  0  0  0  0  0  0  0
    9.9948    1.2815   21.3263 C   0  0  0  0  0  0  0  0  0  0  0  0
   11.0819    0.3536   21.7418 C   0  0  0  0  0  0  0  0  0  0  0  0
   11.9293    0.3905   22.8230 C   0  0  0  0  0  0  0  0  0  0  0  0
   12.0377    1.2670   24.0301 C   0  0  0  0  0  0  0  0  0  0  0  0
   11.9417    2.3252   23.7682 H   0  0  0  0  0  0  0  0  0  0  0  0
   12.9873    1.1199   24.5590 H   0  0  0  0  0  0  0  0  0  0  0  0
   11.2226    1.0414   24.7271 H   0  0  0  0  0  0  0  0  0  0  0  0
   12.7091   -0.7392   22.6757 N   0  0  0  0  0  0  0  0  0  0  0  0
   12.2771   -1.4048   21.5741 C   0  0  0  0  0  0  0  0  0  0  0  0
   11.2850   -0.7781   21.0008 N   0  0  0  0  0  0  0  0  0  0  0  0
   12.7264   -2.3250   21.2314 H   0  0  0  0  0  0  0  0  0  0  0  0
   13.4365   -1.0324   23.3086 H   0  0  0  0  0  0  0  0  0  0  0  0
    9.6952    1.0243   20.3090 H   0  0  0  0  0  0  0  0  0  0  0  0
   10.3326    2.3235   21.3597 H   0  0  0  0  0  0  0  0  0  0  0  0
    8.8041    1.7907   23.4023 N   0  0  0  0  0  0  0  0  0  0  0  0
    6.0748    1.3678   25.9713 C   0  0  0  0  0  0  0  0  0  0  0  0
    5.7453    1.9078   27.2105 C   0  0  0  0  0  0  0  0  0  0  0  0
    4.6618    1.4266   27.8516 F   0  0  0  0  0  0  0  0  0  0  0  0
    5.4514    0.5739   25.5658 H   0  0  0  0  0  0  0  0  0  0  0  0
    8.8527    3.2630   25.3815 H   0  0  0  0  0  0  0  0  0  0  0  0
    8.1952    4.2083   27.5637 H   0  0  0  0  0  0  0  0  0  0  0  0
    5.0679    3.7897   29.2245 H   0  0  0  0  0  0  0  0  0  0  0  0
    6.2469    2.7146   29.9699 H   0  0  0  0  0  0  0  0  0  0  0  0
    6.7335    4.3339   29.4539 H   0  0  0  0  0  0  0  0  0  0  0  0
  1  2  1  0
  2  3  2  0
  3  4  1  0
  4  5  2  0
  5  6  1  0
  6  7  2  0
  7  8  1  0
  8  9  1  0
  9 10  1  0
 10 11  2  0
 11 12  1  0
 12 13  2  0
 13 14  1  0
 14 15  2  0
 15 16  1  0
 13 17  1  0
 12 18  1  0
 11 19  1  0
  9 20  1  0
  9 21  1  0
  8 22  1  0
 22 23  1  0
 23 24  1  0
 24 25  2  0
 25 26  1  0
 26 27  1  0
 26 28  1  0
 26 29  1  0
 25 30  1  0
 30 31  1  0
 31 32  2  0
 31 33  1  0
 30 34  1  0
 23 35  1  0
 23 36  1  0
 22 37  2  0
  5 38  1  0
 38 39  2  0
 39 40  1  0
 38 41  1  0
  4 42  1  0
  3 43  1  0
  1 44  1  0
  1 45  1  0
  1 46  1  0
 39  2  1  0
 37  6  1  0
 15 10  1  0
 32 24  1  0
M  END
>  <cnnaffinity>  (1) 
-5.92433

>  <filename>  (1) 
Cc1ccc(-c2nc(Cc3nc[nH]c3C)n(Cc3cccnc3)n2)cc1F

$$$$
