
     RDKit          3D

 45 48  0  0  0  0  0  0  0  0999 V2000
   16.0107   -0.3204   19.6603 C   0  0  0  0  0  0  0  0  0  0  0  0
   14.7166   -0.7740   20.5582 C   0  0  0  0  0  0  0  0  0  0  0  0
   14.4206    0.1125   21.6625 C   0  0  0  0  0  0  0  0  0  0  0  0
   13.1347    0.2990   22.1674 C   0  0  0  0  0  0  0  0  0  0  0  0
   12.0931   -0.5048   21.6475 C   0  0  0  0  0  0  0  0  0  0  0  0
   10.6483   -0.1296   21.7150 C   0  0  0  0  0  0  0  0  0  0  0  0
    9.6881   -0.9077   21.2277 N   0  0  0  0  0  0  0  0  0  0  0  0
    8.5609   -0.1938   21.4349 N   0  0  0  0  0  0  0  0  0  0  0  0
    7.2598   -0.7252   21.0310 C   0  0  0  0  0  0  0  0  0  0  0  0
    6.5558    0.0361   19.9211 C   0  0  0  0  0  0  0  0  0  0  0  0
    5.3277    0.6874   20.0986 C   0  0  0  0  0  0  0  0  0  0  0  0
    4.7473    1.3520   19.0139 C   0  0  0  0  0  0  0  0  0  0  0  0
    5.4149    1.3373   17.7859 C   0  0  0  0  0  0  0  0  0  0  0  0
    6.5832    0.7063   17.5891 N   0  0  0  0  0  0  0  0  0  0  0  0
    7.1297    0.0808   18.6389 C   0  0  0  0  0  0  0  0  0  0  0  0
    8.0740   -0.4292   18.4520 H   0  0  0  0  0  0  0  0  0  0  0  0
    4.9944    1.8484   16.9211 H   0  0  0  0  0  0  0  0  0  0  0  0
    3.8089    1.8879   19.1077 H   0  0  0  0  0  0  0  0  0  0  0  0
    4.8275    0.6791   21.0706 H   0  0  0  0  0  0  0  0  0  0  0  0
    7.4574   -1.7562   20.7230 H   0  0  0  0  0  0  0  0  0  0  0  0
    6.6173   -0.7696   21.9169 H   0  0  0  0  0  0  0  0  0  0  0  0
    8.8724    0.9593   22.0652 C   0  0  0  0  0  0  0  0  0  0  0  0
    7.8524    1.8084   22.7758 C   0  0  0  0  0  0  0  0  0  0  0  0
    7.5518    1.2064   24.1401 C   0  0  0  0  0  0  0  0  0  0  0  0
    8.5761    1.1559   25.0935 C   0  0  0  0  0  0  0  0  0  0  0  0
    8.3612    0.4869   26.2952 C   0  0  0  0  0  0  0  0  0  0  0  0
    7.2066   -0.1199   26.6058 N   0  0  0  0  0  0  0  0  0  0  0  0
    6.2258   -0.0633   25.6981 C   0  0  0  0  0  0  0  0  0  0  0  0
    6.3446    0.5866   24.4647 C   0  0  0  0  0  0  0  0  0  0  0  0
    5.4998    0.5900   23.7842 H   0  0  0  0  0  0  0  0  0  0  0  0
    5.2980   -0.5641   25.9680 H   0  0  0  0  0  0  0  0  0  0  0  0
    9.1571    0.4226   27.0348 H   0  0  0  0  0  0  0  0  0  0  0  0
    9.5464    1.5854   24.8716 H   0  0  0  0  0  0  0  0  0  0  0  0
    6.9410    1.9119   22.1807 H   0  0  0  0  0  0  0  0  0  0  0  0
    8.2780    2.8098   22.8892 H   0  0  0  0  0  0  0  0  0  0  0  0
   10.1843    1.0472   22.2167 N   0  0  0  0  0  0  0  0  0  0  0  0
   12.4809   -1.6524   20.9330 C   0  0  0  0  0  0  0  0  0  0  0  0
   13.7819   -1.8039   20.4299 C   0  0  0  0  0  0  0  0  0  0  0  0
   14.1173   -2.9711   19.8605 F   0  0  0  0  0  0  0  0  0  0  0  0
   11.7168   -2.3785   20.7437 H   0  0  0  0  0  0  0  0  0  0  0  0
   12.9528    1.1091   22.8731 H   0  0  0  0  0  0  0  0  0  0  0  0
   15.2028    0.7945   22.0035 H   0  0  0  0  0  0  0  0  0  0  0  0
   16.8296   -1.0402   19.6547 H   0  0  0  0  0  0  0  0  0  0  0  0
   15.9260    0.1112   18.6520 H   0  0  0  0  0  0  0  0  0  0  0  0
   16.3805    0.5715   20.1455 H   0  0  0  0  0  0  0  0  0  0  0  0
  1  2  1  0
  2  3  2  0
  3  4  1  0
  4  5  2  0
  5  6  1  0
  6  7  2  0
  7  8  1  0
  8  9  1  0
  9 10  1  0
 10 11  2  0
 11 12  1  0
 12 13  2  0
 13 14  1  0
 14 15  2  0
 15 16  1  0
 13 17  1  0
 12 18  1  0
 11 19  1  0
  9 20  1  0
  9 21  1  0
  8 22  1  0
 22 23  1  0
 23 24  1  0
 24 25  2  0
 25 26  1  0
 26 27  2  0
 27 28  1  0
 28 29  2  0
 29 30  1  0
 28 31  1  0
 26 32  1  0
 25 33  1  0
 23 34  1  0
 23 35  1  0
 22 36  2  0
  5 37  1  0
 37 38  2  0
 38 39  1  0
 37 40  1  0
  4 41  1  0
  3 42  1  0
  1 43  1  0
  1 44  1  0
  1 45  1  0
 38  2  1  0
 36  6  1  0
 15 10  1  0
 29 24  1  0
M  END
>  <cnnaffinity>  (1) 
-6.67383

>  <filename>  (1) 
Cc1ccc(-c2nc(Cc3ccncc3)n(Cc3cccnc3)n2)cc1F

$$$$
