
     RDKit          3D

 46 49  0  0  0  0  0  0  0  0999 V2000
    6.6829   -0.6197   27.0204 C   0  0  0  0  0  0  0  0  0  0  0  0
    7.9237   -0.3418   26.2059 C   0  0  0  0  0  0  0  0  0  0  0  0
    8.9571   -1.2874   26.1620 C   0  0  0  0  0  0  0  0  0  0  0  0
   10.1111   -1.1013   25.5062 N   0  0  0  0  0  0  0  0  0  0  0  0
   10.2978    0.0374   24.8594 C   0  0  0  0  0  0  0  0  0  0  0  0
    9.3124    1.0247   24.7846 C   0  0  0  0  0  0  0  0  0  0  0  0
    9.6002    2.1179   23.9315 N   0  0  0  0  0  0  0  0  0  0  0  0
   10.7444    2.8320   24.0925 N   0  0  0  0  0  0  0  0  0  0  0  0
   10.7903    3.5640   22.9967 C   0  0  0  0  0  0  0  0  0  0  0  0
   11.8798    4.5620   22.7552 C   0  0  0  0  0  0  0  0  0  0  0  0
   12.2092    5.4361   23.9954 C   0  0  0  0  0  0  0  0  0  0  0  0
   13.9500    4.9105   23.9944 S   0  0  0  0  0  0  0  0  0  0  0  0
   13.3181    3.9850   22.5650 C   0  0  0  0  0  0  0  0  0  0  0  0
   13.4144    2.9017   22.6819 H   0  0  0  0  0  0  0  0  0  0  0  0
   13.7967    4.2978   21.6331 H   0  0  0  0  0  0  0  0  0  0  0  0
   11.6890    5.1245   24.9069 H   0  0  0  0  0  0  0  0  0  0  0  0
   12.0765    6.5078   23.8333 H   0  0  0  0  0  0  0  0  0  0  0  0
   11.5804    5.1599   21.8916 H   0  0  0  0  0  0  0  0  0  0  0  0
    9.7950    3.3115   22.1137 N   0  0  0  0  0  0  0  0  0  0  0  0
    9.0779    2.3753   22.7012 C   0  0  0  0  0  0  0  0  0  0  0  0
    8.0058    1.5284   22.1022 C   0  0  0  0  0  0  0  0  0  0  0  0
    8.5235    0.1891   21.5249 C   0  0  0  0  0  0  0  0  0  0  0  0
    7.4011   -0.7054   20.9793 C   0  0  0  0  0  0  0  0  0  0  0  0
    6.6227   -0.0479   19.8619 C   0  0  0  0  0  0  0  0  0  0  0  0
    5.4103    0.6176   20.0959 C   0  0  0  0  0  0  0  0  0  0  0  0
    4.7938    1.3054   19.0472 C   0  0  0  0  0  0  0  0  0  0  0  0
    5.4116    1.3089   17.7925 C   0  0  0  0  0  0  0  0  0  0  0  0
    6.5644    0.6710   17.5365 N   0  0  0  0  0  0  0  0  0  0  0  0
    7.1433    0.0235   18.5570 C   0  0  0  0  0  0  0  0  0  0  0  0
    8.0862   -0.4740   18.3276 H   0  0  0  0  0  0  0  0  0  0  0  0
    4.9614    1.8446   16.9573 H   0  0  0  0  0  0  0  0  0  0  0  0
    3.8656    1.8496   19.1947 H   0  0  0  0  0  0  0  0  0  0  0  0
    4.9713    0.6156   21.0969 H   0  0  0  0  0  0  0  0  0  0  0  0
    6.7151   -0.9635   21.7971 H   0  0  0  0  0  0  0  0  0  0  0  0
    7.8320   -1.6487   20.6198 H   0  0  0  0  0  0  0  0  0  0  0  0
    9.0736   -0.3688   22.2950 H   0  0  0  0  0  0  0  0  0  0  0  0
    9.2398    0.3937   20.7183 H   0  0  0  0  0  0  0  0  0  0  0  0
    7.5113    2.1187   21.3258 H   0  0  0  0  0  0  0  0  0  0  0  0
    7.2535    1.3170   22.8716 H   0  0  0  0  0  0  0  0  0  0  0  0
    8.0987    0.8462   25.4677 C   0  0  0  0  0  0  0  0  0  0  0  0
    7.3082    1.6009   25.4238 H   0  0  0  0  0  0  0  0  0  0  0  0
   11.2359    0.1655   24.3179 H   0  0  0  0  0  0  0  0  0  0  0  0
    8.8388   -2.2480   26.6636 H   0  0  0  0  0  0  0  0  0  0  0  0
    6.7183   -0.1120   27.9922 H   0  0  0  0  0  0  0  0  0  0  0  0
    6.5728   -1.6924   27.2191 H   0  0  0  0  0  0  0  0  0  0  0  0
    5.7853   -0.2813   26.4945 H   0  0  0  0  0  0  0  0  0  0  0  0
  1  2  1  0
  2  3  2  0
  3  4  1  0
  4  5  2  0
  5  6  1  0
  6  7  1  0
  7  8  1  0
  8  9  2  0
  9 10  1  0
 10 11  1  0
 11 12  1  0
 12 13  1  0
 13 14  1  0
 13 15  1  0
 11 16  1  0
 11 17  1  0
 10 18  1  0
  9 19  1  0
 19 20  2  0
 20 21  1  0
 21 22  1  0
 22 23  1  0
 23 24  1  0
 24 25  2  0
 25 26  1  0
 26 27  2  0
 27 28  1  0
 28 29  2  0
 29 30  1  0
 27 31  1  0
 26 32  1  0
 25 33  1  0
 23 34  1  0
 23 35  1  0
 22 36  1  0
 22 37  1  0
 21 38  1  0
 21 39  1  0
  6 40  2  0
 40 41  1  0
  5 42  1  0
  3 43  1  0
  1 44  1  0
  1 45  1  0
  1 46  1  0
 40  2  1  0
 20  7  1  0
 29 24  1  0
 13 10  1  0
M  END
>  <cnnaffinity>  (1) 
-6.00105

>  <filename>  (1) 
Cc1cncc(-n2nc(C3CSC3)nc2CCCc2cccnc2)c1

$$$$
