
     RDKit          3D

 43 45  0  0  0  0  0  0  0  0999 V2000
    9.9887    1.6119   25.6259 C   0  0  0  0  0  0  0  0  0  0  0  0
   10.4240    1.8691   24.1983 C   0  0  0  0  0  0  0  0  0  0  0  0
   11.7578    2.1311   23.8653 C   0  0  0  0  0  0  0  0  0  0  0  0
   12.1554    2.3434   22.5351 C   0  0  0  0  0  0  0  0  0  0  0  0
   11.2119    2.2394   21.5118 C   0  0  0  0  0  0  0  0  0  0  0  0
    9.8680    1.9698   21.8130 C   0  0  0  0  0  0  0  0  0  0  0  0
    9.4705    1.8656   23.1507 C   0  0  0  0  0  0  0  0  0  0  0  0
    8.1584    1.8039   23.5609 O   0  0  0  0  0  0  0  0  0  0  0  0
    7.1242    1.3182   22.7222 C   0  0  0  0  0  0  0  0  0  0  0  0
    7.3000   -0.1107   22.2794 C   0  0  0  0  0  0  0  0  0  0  0  0
    7.7955   -1.0911   23.0181 N   0  0  0  0  0  0  0  0  0  0  0  0
    8.1681   -2.0079   22.0878 C   0  0  0  0  0  0  0  0  0  0  0  0
    9.0540   -3.1805   22.3937 C   0  0  0  0  0  0  0  0  0  0  0  0
   10.4989   -2.6937   22.6894 C   0  0  0  0  0  0  0  0  0  0  0  0
   10.9997   -2.3280   21.7851 H   0  0  0  0  0  0  0  0  0  0  0  0
   11.1089   -3.4976   23.1158 H   0  0  0  0  0  0  0  0  0  0  0  0
   10.4869   -1.8702   23.4174 H   0  0  0  0  0  0  0  0  0  0  0  0
    8.5406   -4.1042   23.5074 C   0  0  0  0  0  0  0  0  0  0  0  0
    9.1869   -4.9896   23.5531 H   0  0  0  0  0  0  0  0  0  0  0  0
    7.5132   -4.4487   23.3415 H   0  0  0  0  0  0  0  0  0  0  0  0
    8.5816   -3.6141   24.4841 H   0  0  0  0  0  0  0  0  0  0  0  0
    9.0202   -3.7458   21.4616 H   0  0  0  0  0  0  0  0  0  0  0  0
    7.8261   -1.7117   20.8467 N   0  0  0  0  0  0  0  0  0  0  0  0
    7.2122   -0.5107   20.9760 N   0  0  0  0  0  0  0  0  0  0  0  0
    6.5501    0.0844   19.8712 C   0  0  0  0  0  0  0  0  0  0  0  0
    5.3255    0.7415   20.0453 C   0  0  0  0  0  0  0  0  0  0  0  0
    4.7579    1.3778   18.9397 C   0  0  0  0  0  0  0  0  0  0  0  0
    5.4204    1.3201   17.7109 C   0  0  0  0  0  0  0  0  0  0  0  0
    6.5676    0.6398   17.5261 N   0  0  0  0  0  0  0  0  0  0  0  0
    7.1082    0.0206   18.5803 C   0  0  0  0  0  0  0  0  0  0  0  0
    8.0263   -0.5381   18.3972 H   0  0  0  0  0  0  0  0  0  0  0  0
    5.0114    1.8230   16.8378 H   0  0  0  0  0  0  0  0  0  0  0  0
    3.8273    1.9268   19.0377 H   0  0  0  0  0  0  0  0  0  0  0  0
    4.8367    0.7476   21.0193 H   0  0  0  0  0  0  0  0  0  0  0  0
    6.2423    1.4003   23.3615 H   0  0  0  0  0  0  0  0  0  0  0  0
    6.9877    1.9765   21.8536 H   0  0  0  0  0  0  0  0  0  0  0  0
    9.1269    1.8263   21.0306 H   0  0  0  0  0  0  0  0  0  0  0  0
   11.5177    2.3751   20.4755 H   0  0  0  0  0  0  0  0  0  0  0  0
   13.1932    2.5842   22.3194 H   0  0  0  0  0  0  0  0  0  0  0  0
   12.4981    2.1591   24.6623 H   0  0  0  0  0  0  0  0  0  0  0  0
    9.5111    2.4998   26.0565 H   0  0  0  0  0  0  0  0  0  0  0  0
    9.2424    0.8080   25.6793 H   0  0  0  0  0  0  0  0  0  0  0  0
   10.8388    1.3409   26.2550 H   0  0  0  0  0  0  0  0  0  0  0  0
  1  2  1  0
  2  3  2  0
  3  4  1  0
  4  5  2  0
  5  6  1  0
  6  7  2  0
  7  8  1  0
  8  9  1  0
  9 10  1  0
 10 11  2  0
 11 12  1  0
 12 13  1  0
 13 14  1  0
 14 15  1  0
 14 16  1  0
 14 17  1  0
 13 18  1  0
 18 19  1  0
 18 20  1  0
 18 21  1  0
 13 22  1  0
 12 23  2  0
 23 24  1  0
 24 25  1  0
 25 26  2  0
 26 27  1  0
 27 28  2  0
 28 29  1  0
 29 30  2  0
 30 31  1  0
 28 32  1  0
 27 33  1  0
 26 34  1  0
  9 35  1  0
  9 36  1  0
  6 37  1  0
  5 38  1  0
  4 39  1  0
  3 40  1  0
  1 41  1  0
  1 42  1  0
  1 43  1  0
  7  2  1  0
 24 10  1  0
 30 25  1  0
M  END
>  <cnnaffinity>  (1) 
-5.94791

>  <filename>  (1) 
Cc1ccccc1OCc1nc(C(C)C)nn1-c1cccnc1

$$$$
