
     RDKit          3D

 44 47  0  0  0  0  0  0  0  0999 V2000
    9.5004   -0.2364   27.0088 C   0  0  0  0  0  0  0  0  0  0  0  0
    8.3066    0.1068   26.1494 C   0  0  0  0  0  0  0  0  0  0  0  0
    7.0127   -0.3752   26.4228 C   0  0  0  0  0  0  0  0  0  0  0  0
    5.9490   -0.1530   25.6420 N   0  0  0  0  0  0  0  0  0  0  0  0
    6.1339    0.5655   24.5252 C   0  0  0  0  0  0  0  0  0  0  0  0
    7.3643    1.1188   24.1469 C   0  0  0  0  0  0  0  0  0  0  0  0
    7.5929    1.8777   22.8306 C   0  0  0  0  0  0  0  0  0  0  0  0
    8.6683    1.2311   22.0021 C   0  0  0  0  0  0  0  0  0  0  0  0
    9.9628    1.4868   22.0956 N   0  0  0  0  0  0  0  0  0  0  0  0
   10.5281    0.3702   21.5659 C   0  0  0  0  0  0  0  0  0  0  0  0
   11.9468   -0.0009   21.7428 C   0  0  0  0  0  0  0  0  0  0  0  0
   12.8301    0.8491   22.4168 C   0  0  0  0  0  0  0  0  0  0  0  0
   14.6606   -0.7395   22.4105 C   0  0  0  0  0  0  0  0  0  0  0  0
   14.1520    0.4661   22.7579 N   0  0  0  0  0  0  0  0  0  0  0  0
   13.8194   -1.5428   21.5499 C   0  0  0  0  0  0  0  0  0  0  0  0
   14.4459   -2.8720   20.5958 Cl  0  0  0  0  0  0  0  0  0  0  0  0
   12.4550   -1.2670   21.3335 C   0  0  0  0  0  0  0  0  0  0  0  0
   11.8266   -2.0150   20.8606 H   0  0  0  0  0  0  0  0  0  0  0  0
   14.6998    1.1664   23.2551 H   0  0  0  0  0  0  0  0  0  0  0  0
   12.5171    1.8580   22.7183 H   0  0  0  0  0  0  0  0  0  0  0  0
    9.6671   -0.4902   21.0612 N   0  0  0  0  0  0  0  0  0  0  0  0
    8.4794    0.0616   21.3583 N   0  0  0  0  0  0  0  0  0  0  0  0
    7.2617   -0.6507   21.0085 C   0  0  0  0  0  0  0  0  0  0  0  0
    6.5199    0.0223   19.8864 C   0  0  0  0  0  0  0  0  0  0  0  0
    5.2958    0.6663   20.0662 C   0  0  0  0  0  0  0  0  0  0  0  0
    4.7276    1.3410   18.9837 C   0  0  0  0  0  0  0  0  0  0  0  0
    5.4096    1.3375   17.7625 C   0  0  0  0  0  0  0  0  0  0  0  0
    6.5795    0.7096   17.5659 N   0  0  0  0  0  0  0  0  0  0  0  0
    7.1164    0.0792   18.6157 C   0  0  0  0  0  0  0  0  0  0  0  0
    8.0761   -0.4096   18.4464 H   0  0  0  0  0  0  0  0  0  0  0  0
    4.9962    1.8569   16.9007 H   0  0  0  0  0  0  0  0  0  0  0  0
    3.7903    1.8762   19.0793 H   0  0  0  0  0  0  0  0  0  0  0  0
    4.8036    0.6543   21.0423 H   0  0  0  0  0  0  0  0  0  0  0  0
    6.6423   -0.7542   21.9057 H   0  0  0  0  0  0  0  0  0  0  0  0
    7.5916   -1.6537   20.7231 H   0  0  0  0  0  0  0  0  0  0  0  0
    6.6763    1.9447   22.2371 H   0  0  0  0  0  0  0  0  0  0  0  0
    7.9258    2.8999   23.0316 H   0  0  0  0  0  0  0  0  0  0  0  0
    8.4515    0.8977   25.0090 C   0  0  0  0  0  0  0  0  0  0  0  0
    9.4272    1.3269   24.7684 H   0  0  0  0  0  0  0  0  0  0  0  0
    5.2523    0.6998   23.8984 H   0  0  0  0  0  0  0  0  0  0  0  0
    6.8310   -0.9700   27.3178 H   0  0  0  0  0  0  0  0  0  0  0  0
    9.2932   -0.0872   28.0744 H   0  0  0  0  0  0  0  0  0  0  0  0
    9.8004   -1.2820   26.8834 H   0  0  0  0  0  0  0  0  0  0  0  0
   10.3646    0.3785   26.7362 H   0  0  0  0  0  0  0  0  0  0  0  0
  1  2  1  0
  2  3  2  0
  3  4  1  0
  4  5  2  0
  5  6  1  0
  6  7  1  0
  7  8  1  0
  8  9  2  0
  9 10  1  0
 10 11  1  0
 11 12  2  0
 12 13  1  0
 13 14  2  0
 14 15  1  0
 15 16  1  0
 15 17  2  0
 17 18  1  0
 13 19  1  0
 12 20  1  0
 10 21  2  0
 21 22  1  0
 22 23  1  0
 23 24  1  0
 24 25  2  0
 25 26  1  0
 26 27  2  0
 27 28  1  0
 28 29  2  0
 29 30  1  0
 27 31  1  0
 26 32  1  0
 25 33  1  0
 23 34  1  0
 23 35  1  0
  7 36  1  0
  7 37  1  0
  6 38  2  0
 38 39  1  0
  5 40  1  0
  3 41  1  0
  1 42  1  0
  1 43  1  0
  1 44  1  0
 38  2  1  0
 22  8  1  0
 29 24  1  0
 17 11  1  0
M  END
>  <cnnaffinity>  (1) 
-6.90755

>  <filename>  (1) 
Cc1cncc(Cc2nc(-c3ccnc(Cl)c3)nn2Cc2cccnc2)c1

$$$$
