
     RDKit          3D

 47 50  0  0  0  0  0  0  0  0999 V2000
    7.4851    5.2346   26.8188 C   0  0  0  0  0  0  0  0  0  0  0  0
    6.8396    4.4214   25.7390 C   0  0  0  0  0  0  0  0  0  0  0  0
    7.0797    3.1175   25.4578 C   0  0  0  0  0  0  0  0  0  0  0  0
    6.2902    2.6050   24.3804 C   0  0  0  0  0  0  0  0  0  0  0  0
    6.4691    1.2347   23.8215 C   0  0  0  0  0  0  0  0  0  0  0  0
    7.4814    1.2572   22.6628 C   0  0  0  0  0  0  0  0  0  0  0  0
    7.6797   -0.1042   22.1212 C   0  0  0  0  0  0  0  0  0  0  0  0
    8.2376   -1.0321   22.8653 N   0  0  0  0  0  0  0  0  0  0  0  0
    8.3000   -2.0991   22.0364 C   0  0  0  0  0  0  0  0  0  0  0  0
    8.9066   -3.3582   22.5446 C   0  0  0  0  0  0  0  0  0  0  0  0
    8.1605   -4.0431   23.7133 C   0  0  0  0  0  0  0  0  0  0  0  0
    9.2811   -4.8270   24.3984 C   0  0  0  0  0  0  0  0  0  0  0  0
   10.4750   -4.0990   24.1628 O   0  0  0  0  0  0  0  0  0  0  0  0
   10.2785   -3.0815   23.2009 C   0  0  0  0  0  0  0  0  0  0  0  0
   10.2753   -2.1055   23.7115 H   0  0  0  0  0  0  0  0  0  0  0  0
   11.1114   -3.0635   22.4857 H   0  0  0  0  0  0  0  0  0  0  0  0
    9.3891   -5.8460   23.9897 H   0  0  0  0  0  0  0  0  0  0  0  0
    9.1441   -4.9122   25.4823 H   0  0  0  0  0  0  0  0  0  0  0  0
    7.7363   -3.2827   24.3846 H   0  0  0  0  0  0  0  0  0  0  0  0
    7.3503   -4.6963   23.3865 H   0  0  0  0  0  0  0  0  0  0  0  0
    8.9472   -4.0514   21.7034 H   0  0  0  0  0  0  0  0  0  0  0  0
    7.8160   -1.9027   20.8273 N   0  0  0  0  0  0  0  0  0  0  0  0
    7.3727   -0.6119   20.8958 N   0  0  0  0  0  0  0  0  0  0  0  0
    6.6361    0.0079   19.8482 C   0  0  0  0  0  0  0  0  0  0  0  0
    5.4369    0.6861   20.1076 C   0  0  0  0  0  0  0  0  0  0  0  0
    4.8099    1.3494   19.0494 C   0  0  0  0  0  0  0  0  0  0  0  0
    5.4044    1.3137   17.7846 C   0  0  0  0  0  0  0  0  0  0  0  0
    6.5353    0.6342   17.5222 N   0  0  0  0  0  0  0  0  0  0  0  0
    7.1259   -0.0140   18.5311 C   0  0  0  0  0  0  0  0  0  0  0  0
    8.0355   -0.5636   18.3024 H   0  0  0  0  0  0  0  0  0  0  0  0
    4.9588    1.8470   16.9483 H   0  0  0  0  0  0  0  0  0  0  0  0
    3.8853    1.8985   19.1941 H   0  0  0  0  0  0  0  0  0  0  0  0
    4.9967    0.6823   21.1067 H   0  0  0  0  0  0  0  0  0  0  0  0
    7.1898    1.9762   21.8946 H   0  0  0  0  0  0  0  0  0  0  0  0
    8.4492    1.5922   23.0541 H   0  0  0  0  0  0  0  0  0  0  0  0
    5.5071    0.8235   23.4819 H   0  0  0  0  0  0  0  0  0  0  0  0
    6.8375    0.5466   24.5915 H   0  0  0  0  0  0  0  0  0  0  0  0
    5.4668    3.5438   23.8387 C   0  0  0  0  0  0  0  0  0  0  0  0
    4.5474    3.3628   22.6625 C   0  0  0  0  0  0  0  0  0  0  0  0
    5.1206    3.1980   21.7380 H   0  0  0  0  0  0  0  0  0  0  0  0
    3.8921    4.2220   22.5090 H   0  0  0  0  0  0  0  0  0  0  0  0
    3.9284    2.4670   22.7980 H   0  0  0  0  0  0  0  0  0  0  0  0
    5.6327    5.0571   24.6702 S   0  0  0  0  0  0  0  0  0  0  0  0
    7.8236    2.5298   25.9890 H   0  0  0  0  0  0  0  0  0  0  0  0
    6.9465    5.0994   27.7652 H   0  0  0  0  0  0  0  0  0  0  0  0
    8.5106    4.8851   26.9805 H   0  0  0  0  0  0  0  0  0  0  0  0
    7.5067    6.3010   26.5819 H   0  0  0  0  0  0  0  0  0  0  0  0
  1  2  1  0
  2  3  2  0
  3  4  1  0
  4  5  1  0
  5  6  1  0
  6  7  1  0
  7  8  2  0
  8  9  1  0
  9 10  1  0
 10 11  1  0
 11 12  1  0
 12 13  1  0
 13 14  1  0
 14 15  1  0
 14 16  1  0
 12 17  1  0
 12 18  1  0
 11 19  1  0
 11 20  1  0
 10 21  1  0
  9 22  2  0
 22 23  1  0
 23 24  1  0
 24 25  2  0
 25 26  1  0
 26 27  2  0
 27 28  1  0
 28 29  2  0
 29 30  1  0
 27 31  1  0
 26 32  1  0
 25 33  1  0
  6 34  1  0
  6 35  1  0
  5 36  1  0
  5 37  1  0
  4 38  2  0
 38 39  1  0
 39 40  1  0
 39 41  1  0
 39 42  1  0
 38 43  1  0
  3 44  1  0
  1 45  1  0
  1 46  1  0
  1 47  1  0
 43  2  1  0
 23  7  1  0
 29 24  1  0
 14 10  1  0
M  END
>  <cnnaffinity>  (1) 
-6.10521

>  <filename>  (1) 
Cc1cc(CCc2nc(C3CCOC3)nn2-c2cccnc2)c(C)s1

$$$$
