
     RDKit          3D

 49 52  0  0  0  0  0  0  0  0999 V2000
    9.3392    7.0158   23.6945 C   0  0  0  0  0  0  0  0  0  0  0  0
    8.7295    5.6749   23.4761 C   0  0  0  0  0  0  0  0  0  0  0  0
    9.4500    4.5688   23.3543 N   0  0  0  0  0  0  0  0  0  0  0  0
    8.5483    3.5884   23.1276 N   0  0  0  0  0  0  0  0  0  0  0  0
    8.9879    2.2478   22.7825 C   0  0  0  0  0  0  0  0  0  0  0  0
    9.0812    2.0096   21.2699 C   0  0  0  0  0  0  0  0  0  0  0  0
    9.5450    0.5843   20.9225 C   0  0  0  0  0  0  0  0  0  0  0  0
    8.6262   -0.4825   21.4184 C   0  0  0  0  0  0  0  0  0  0  0  0
    8.8397   -1.2857   22.4362 N   0  0  0  0  0  0  0  0  0  0  0  0
    7.6492   -1.9319   22.5788 C   0  0  0  0  0  0  0  0  0  0  0  0
    7.4233   -2.8966   23.6891 C   0  0  0  0  0  0  0  0  0  0  0  0
    7.6156   -2.3132   25.1271 C   0  0  0  0  0  0  0  0  0  0  0  0
    8.7768   -3.3038   25.3695 C   0  0  0  0  0  0  0  0  0  0  0  0
    8.5770   -3.9103   23.9610 C   0  0  0  0  0  0  0  0  0  0  0  0
    8.2663   -4.9579   23.9522 H   0  0  0  0  0  0  0  0  0  0  0  0
    9.4334   -3.8055   23.2860 H   0  0  0  0  0  0  0  0  0  0  0  0
    9.7495   -2.8264   25.5161 H   0  0  0  0  0  0  0  0  0  0  0  0
    8.6250   -3.9980   26.2015 H   0  0  0  0  0  0  0  0  0  0  0  0
    7.8995   -1.2548   25.1404 H   0  0  0  0  0  0  0  0  0  0  0  0
    6.7528   -2.4355   25.7864 H   0  0  0  0  0  0  0  0  0  0  0  0
    6.4474   -3.3572   23.5247 H   0  0  0  0  0  0  0  0  0  0  0  0
    6.7240   -1.5866   21.7084 N   0  0  0  0  0  0  0  0  0  0  0  0
    7.3588   -0.6603   20.9388 N   0  0  0  0  0  0  0  0  0  0  0  0
    6.6628    0.0132   19.9025 C   0  0  0  0  0  0  0  0  0  0  0  0
    5.4442    0.6501   20.1649 C   0  0  0  0  0  0  0  0  0  0  0  0
    4.8129    1.3145   19.1103 C   0  0  0  0  0  0  0  0  0  0  0  0
    5.4001    1.2980   17.8390 C   0  0  0  0  0  0  0  0  0  0  0  0
    6.5595    0.6758   17.5770 N   0  0  0  0  0  0  0  0  0  0  0  0
    7.1707    0.0567   18.5934 C   0  0  0  0  0  0  0  0  0  0  0  0
    8.1137   -0.4359   18.3691 H   0  0  0  0  0  0  0  0  0  0  0  0
    4.9186    1.7857   16.9954 H   0  0  0  0  0  0  0  0  0  0  0  0
    3.8769    1.8387   19.2574 H   0  0  0  0  0  0  0  0  0  0  0  0
    5.0214    0.6116   21.1722 H   0  0  0  0  0  0  0  0  0  0  0  0
   10.5389    0.3881   21.3380 H   0  0  0  0  0  0  0  0  0  0  0  0
    9.6270    0.4921   19.8366 H   0  0  0  0  0  0  0  0  0  0  0  0
    8.1071    2.1987   20.7979 H   0  0  0  0  0  0  0  0  0  0  0  0
    9.7900    2.7316   20.8572 H   0  0  0  0  0  0  0  0  0  0  0  0
    8.2889    1.5346   23.2276 H   0  0  0  0  0  0  0  0  0  0  0  0
    9.9538    2.0835   23.2632 H   0  0  0  0  0  0  0  0  0  0  0  0
    7.2747    4.0629   23.0823 C   0  0  0  0  0  0  0  0  0  0  0  0
    6.0592    3.2625   22.7476 C   0  0  0  0  0  0  0  0  0  0  0  0
    6.0628    2.2687   23.2077 H   0  0  0  0  0  0  0  0  0  0  0  0
    5.1771    3.8032   23.0998 H   0  0  0  0  0  0  0  0  0  0  0  0
    5.9543    3.1378   21.6619 H   0  0  0  0  0  0  0  0  0  0  0  0
    7.3583    5.4118   23.3212 C   0  0  0  0  0  0  0  0  0  0  0  0
    6.5412    6.1197   23.3606 H   0  0  0  0  0  0  0  0  0  0  0  0
   10.3077    6.9444   24.1898 H   0  0  0  0  0  0  0  0  0  0  0  0
    9.4735    7.5195   22.7341 H   0  0  0  0  0  0  0  0  0  0  0  0
    8.6732    7.6418   24.2939 H   0  0  0  0  0  0  0  0  0  0  0  0
  1  2  1  0
  2  3  2  0
  3  4  1  0
  4  5  1  0
  5  6  1  0
  6  7  1  0
  7  8  1  0
  8  9  2  0
  9 10  1  0
 10 11  1  0
 11 12  1  0
 12 13  1  0
 13 14  1  0
 14 15  1  0
 14 16  1  0
 13 17  1  0
 13 18  1  0
 12 19  1  0
 12 20  1  0
 11 21  1  0
 10 22  2  0
 22 23  1  0
 23 24  1  0
 24 25  2  0
 25 26  1  0
 26 27  2  0
 27 28  1  0
 28 29  2  0
 29 30  1  0
 27 31  1  0
 26 32  1  0
 25 33  1  0
  7 34  1  0
  7 35  1  0
  6 36  1  0
  6 37  1  0
  5 38  1  0
  5 39  1  0
  4 40  1  0
 40 41  1  0
 41 42  1  0
 41 43  1  0
 41 44  1  0
 40 45  2  0
 45 46  1  0
  1 47  1  0
  1 48  1  0
  1 49  1  0
 45  2  1  0
 23  8  1  0
 29 24  1  0
 14 11  1  0
M  END
>  <cnnaffinity>  (1) 
-6.23565

>  <filename>  (1) 
Cc1cc(C)n(CCCc2nc(C3CCC3)nn2-c2cccnc2)n1

$$$$
