
     RDKit          3D

 47 50  0  0  0  0  0  0  0  0999 V2000
    7.4293    1.1802   28.2313 C   0  0  0  0  0  0  0  0  0  0  0  0
    7.4047    1.3670   26.7350 C   0  0  0  0  0  0  0  0  0  0  0  0
    6.2422    1.4069   26.0222 C   0  0  0  0  0  0  0  0  0  0  0  0
    6.2099    1.5896   24.5812 C   0  0  0  0  0  0  0  0  0  0  0  0
    5.1846    1.6486   23.9139 O   0  0  0  0  0  0  0  0  0  0  0  0
    7.4887    1.6945   23.9532 N   0  0  0  0  0  0  0  0  0  0  0  0
    7.5598    1.4353   22.5106 C   0  0  0  0  0  0  0  0  0  0  0  0
    7.5894   -0.0391   22.1626 C   0  0  0  0  0  0  0  0  0  0  0  0
    8.0866   -1.0038   22.9063 N   0  0  0  0  0  0  0  0  0  0  0  0
    7.9415   -2.1147   22.1423 C   0  0  0  0  0  0  0  0  0  0  0  0
    8.3349   -3.5033   22.5904 C   0  0  0  0  0  0  0  0  0  0  0  0
    9.5731   -3.4774   23.5234 C   0  0  0  0  0  0  0  0  0  0  0  0
    9.2162   -3.0199   24.9193 C   0  0  0  0  0  0  0  0  0  0  0  0
    7.9912   -3.1118   25.4356 C   0  0  0  0  0  0  0  0  0  0  0  0
    6.8024   -3.6023   24.6482 C   0  0  0  0  0  0  0  0  0  0  0  0
    7.1898   -4.2713   23.3164 C   0  0  0  0  0  0  0  0  0  0  0  0
    6.2975   -4.3747   22.6835 H   0  0  0  0  0  0  0  0  0  0  0  0
    7.5733   -5.2835   23.5144 H   0  0  0  0  0  0  0  0  0  0  0  0
    6.1488   -2.7392   24.4565 H   0  0  0  0  0  0  0  0  0  0  0  0
    6.2190   -4.2911   25.2722 H   0  0  0  0  0  0  0  0  0  0  0  0
    7.8050   -2.7163   26.4349 H   0  0  0  0  0  0  0  0  0  0  0  0
    9.9881   -2.5450   25.5114 H   0  0  0  0  0  0  0  0  0  0  0  0
   10.0065   -4.4866   23.5654 H   0  0  0  0  0  0  0  0  0  0  0  0
   10.3545   -2.8317   23.1104 H   0  0  0  0  0  0  0  0  0  0  0  0
    8.5748   -4.0314   21.6655 H   0  0  0  0  0  0  0  0  0  0  0  0
    7.4064   -1.8936   20.9560 N   0  0  0  0  0  0  0  0  0  0  0  0
    7.1575   -0.5535   20.9749 N   0  0  0  0  0  0  0  0  0  0  0  0
    6.5020    0.0822   19.8913 C   0  0  0  0  0  0  0  0  0  0  0  0
    5.3586    0.8715   20.0758 C   0  0  0  0  0  0  0  0  0  0  0  0
    4.8040    1.4793   18.9436 C   0  0  0  0  0  0  0  0  0  0  0  0
    5.3926    1.2684   17.6938 C   0  0  0  0  0  0  0  0  0  0  0  0
    6.4707    0.4845   17.5140 N   0  0  0  0  0  0  0  0  0  0  0  0
    7.0003   -0.1009   18.5907 C   0  0  0  0  0  0  0  0  0  0  0  0
    7.8702   -0.7345   18.4348 H   0  0  0  0  0  0  0  0  0  0  0  0
    4.9889    1.7383   16.7993 H   0  0  0  0  0  0  0  0  0  0  0  0
    3.9401    2.1258   19.0290 H   0  0  0  0  0  0  0  0  0  0  0  0
    4.9178    0.9892   21.0712 H   0  0  0  0  0  0  0  0  0  0  0  0
    8.4532    1.9325   22.1128 H   0  0  0  0  0  0  0  0  0  0  0  0
    6.6912    1.9093   22.0577 H   0  0  0  0  0  0  0  0  0  0  0  0
    8.6487    1.7305   24.6900 C   0  0  0  0  0  0  0  0  0  0  0  0
    8.6453    1.5548   26.0343 C   0  0  0  0  0  0  0  0  0  0  0  0
    9.5863    1.5479   26.5695 H   0  0  0  0  0  0  0  0  0  0  0  0
    9.5641    1.8842   24.1159 H   0  0  0  0  0  0  0  0  0  0  0  0
    5.2588    1.3164   26.4659 H   0  0  0  0  0  0  0  0  0  0  0  0
    8.3121    0.6094   28.5376 H   0  0  0  0  0  0  0  0  0  0  0  0
    7.4790    2.1570   28.7232 H   0  0  0  0  0  0  0  0  0  0  0  0
    6.5395    0.6575   28.5956 H   0  0  0  0  0  0  0  0  0  0  0  0
  1  2  1  0
  2  3  2  0
  3  4  1  0
  4  5  2  0
  4  6  1  0
  6  7  1  0
  7  8  1  0
  8  9  2  0
  9 10  1  0
 10 11  1  0
 11 12  1  0
 12 13  1  0
 13 14  2  0
 14 15  1  0
 15 16  1  0
 16 17  1  0
 16 18  1  0
 15 19  1  0
 15 20  1  0
 14 21  1  0
 13 22  1  0
 12 23  1  0
 12 24  1  0
 11 25  1  0
 10 26  2  0
 26 27  1  0
 27 28  1  0
 28 29  2  0
 29 30  1  0
 30 31  2  0
 31 32  1  0
 32 33  2  0
 33 34  1  0
 31 35  1  0
 30 36  1  0
 29 37  1  0
  7 38  1  0
  7 39  1  0
  6 40  1  0
 40 41  2  0
 41 42  1  0
 40 43  1  0
  3 44  1  0
  1 45  1  0
  1 46  1  0
  1 47  1  0
 41  2  1  0
 27  8  1  0
 33 28  1  0
 16 11  1  0
M  END
>  <cnnaffinity>  (1) 
-6.19158

>  <filename>  (1) 
Cc1ccn(Cc2nc(C3CC=CCC3)nn2-c2cccnc2)c(=O)c1

$$$$
