
     RDKit          3D

 51 54  0  0  0  0  0  0  0  0999 V2000
    6.9380    5.8037   26.5834 C   0  0  0  0  0  0  0  0  0  0  0  0
    7.4929    4.7788   25.6192 C   0  0  0  0  0  0  0  0  0  0  0  0
    7.6753    5.0772   24.2681 C   0  0  0  0  0  0  0  0  0  0  0  0
    8.1585    4.1219   23.3628 C   0  0  0  0  0  0  0  0  0  0  0  0
    8.4682    2.8330   23.8088 C   0  0  0  0  0  0  0  0  0  0  0  0
    8.9647    1.8457   23.0029 O   0  0  0  0  0  0  0  0  0  0  0  0
    9.0422    1.9960   21.5925 C   0  0  0  0  0  0  0  0  0  0  0  0
    9.4979    0.6512   21.0165 C   0  0  0  0  0  0  0  0  0  0  0  0
    8.6137   -0.4645   21.4417 C   0  0  0  0  0  0  0  0  0  0  0  0
    8.8320   -1.2751   22.4537 N   0  0  0  0  0  0  0  0  0  0  0  0
    7.6432   -1.9167   22.5931 C   0  0  0  0  0  0  0  0  0  0  0  0
    7.3995   -2.8721   23.7172 C   0  0  0  0  0  0  0  0  0  0  0  0
    8.6518   -3.5988   24.2523 C   0  0  0  0  0  0  0  0  0  0  0  0
    8.0782   -4.9037   24.8158 C   0  0  0  0  0  0  0  0  0  0  0  0
    6.8129   -5.0974   24.1980 O   0  0  0  0  0  0  0  0  0  0  0  0
    6.4728   -4.0322   23.3326 C   0  0  0  0  0  0  0  0  0  0  0  0
    6.6192   -4.3221   22.2799 H   0  0  0  0  0  0  0  0  0  0  0  0
    5.4102   -3.7979   23.4697 H   0  0  0  0  0  0  0  0  0  0  0  0
    8.7194   -5.7714   24.6072 H   0  0  0  0  0  0  0  0  0  0  0  0
    7.9333   -4.8590   25.9057 H   0  0  0  0  0  0  0  0  0  0  0  0
    9.3502   -3.7963   23.4320 H   0  0  0  0  0  0  0  0  0  0  0  0
    9.1912   -3.0258   25.0113 H   0  0  0  0  0  0  0  0  0  0  0  0
    6.9371   -2.2975   24.5293 H   0  0  0  0  0  0  0  0  0  0  0  0
    6.7237   -1.5891   21.7045 N   0  0  0  0  0  0  0  0  0  0  0  0
    7.3605   -0.6629   20.9379 N   0  0  0  0  0  0  0  0  0  0  0  0
    6.6588    0.0093   19.8995 C   0  0  0  0  0  0  0  0  0  0  0  0
    5.4387    0.6423   20.1653 C   0  0  0  0  0  0  0  0  0  0  0  0
    4.8124    1.3100   19.1091 C   0  0  0  0  0  0  0  0  0  0  0  0
    5.4005    1.2963   17.8375 C   0  0  0  0  0  0  0  0  0  0  0  0
    6.5586    0.6721   17.5745 N   0  0  0  0  0  0  0  0  0  0  0  0
    7.1683    0.0513   18.5900 C   0  0  0  0  0  0  0  0  0  0  0  0
    8.1131   -0.4369   18.3638 H   0  0  0  0  0  0  0  0  0  0  0  0
    4.9215    1.7868   16.9934 H   0  0  0  0  0  0  0  0  0  0  0  0
    3.8803    1.8396   19.2592 H   0  0  0  0  0  0  0  0  0  0  0  0
    5.0144    0.6062   21.1735 H   0  0  0  0  0  0  0  0  0  0  0  0
   10.5119    0.4148   21.3415 H   0  0  0  0  0  0  0  0  0  0  0  0
    9.5221    0.7203   19.9280 H   0  0  0  0  0  0  0  0  0  0  0  0
    9.7675    2.7779   21.3301 H   0  0  0  0  0  0  0  0  0  0  0  0
    8.0629    2.2729   21.1743 H   0  0  0  0  0  0  0  0  0  0  0  0
    8.2930    2.4953   25.1792 C   0  0  0  0  0  0  0  0  0  0  0  0
    8.5974    1.1124   25.7005 C   0  0  0  0  0  0  0  0  0  0  0  0
    7.9436    0.3651   25.2364 H   0  0  0  0  0  0  0  0  0  0  0  0
    8.4635    1.0487   26.7858 H   0  0  0  0  0  0  0  0  0  0  0  0
    9.6247    0.8151   25.4682 H   0  0  0  0  0  0  0  0  0  0  0  0
    7.8107    3.4809   26.0459 C   0  0  0  0  0  0  0  0  0  0  0  0
    7.6647    3.2278   27.0960 H   0  0  0  0  0  0  0  0  0  0  0  0
    8.2898    4.3819   22.3160 H   0  0  0  0  0  0  0  0  0  0  0  0
    7.4257    6.0743   23.9129 H   0  0  0  0  0  0  0  0  0  0  0  0
    7.3127    5.6644   27.6036 H   0  0  0  0  0  0  0  0  0  0  0  0
    7.1909    6.8244   26.2782 H   0  0  0  0  0  0  0  0  0  0  0  0
    5.8435    5.7520   26.6350 H   0  0  0  0  0  0  0  0  0  0  0  0
  1  2  1  0
  2  3  2  0
  3  4  1  0
  4  5  2  0
  5  6  1  0
  6  7  1  0
  7  8  1  0
  8  9  1  0
  9 10  2  0
 10 11  1  0
 11 12  1  0
 12 13  1  0
 13 14  1  0
 14 15  1  0
 15 16  1  0
 16 17  1  0
 16 18  1  0
 14 19  1  0
 14 20  1  0
 13 21  1  0
 13 22  1  0
 12 23  1  0
 11 24  2  0
 24 25  1  0
 25 26  1  0
 26 27  2  0
 27 28  1  0
 28 29  2  0
 29 30  1  0
 30 31  2  0
 31 32  1  0
 29 33  1  0
 28 34  1  0
 27 35  1  0
  8 36  1  0
  8 37  1  0
  7 38  1  0
  7 39  1  0
  5 40  1  0
 40 41  1  0
 41 42  1  0
 41 43  1  0
 41 44  1  0
 40 45  2  0
 45 46  1  0
  4 47  1  0
  3 48  1  0
  1 49  1  0
  1 50  1  0
  1 51  1  0
 45  2  1  0
 25  9  1  0
 31 26  1  0
 16 12  1  0
M  END
>  <cnnaffinity>  (1) 
-6.00275

>  <filename>  (1) 
Cc1ccc(OCCc2nc(C3CCOC3)nn2-c2cccnc2)c(C)c1

$$$$
