
     RDKit          3D

 45 48  0  0  0  0  0  0  0  0999 V2000
    5.9682    3.6059   29.1168 C   0  0  0  0  0  0  0  0  0  0  0  0
    6.3882    3.0295   27.7879 C   0  0  0  0  0  0  0  0  0  0  0  0
    7.5510    3.4619   27.1320 C   0  0  0  0  0  0  0  0  0  0  0  0
    7.9248    2.9614   25.8871 C   0  0  0  0  0  0  0  0  0  0  0  0
    7.1331    1.9980   25.2367 C   0  0  0  0  0  0  0  0  0  0  0  0
    7.5593    1.4977   23.9070 C   0  0  0  0  0  0  0  0  0  0  0  0
    6.9536    0.5246   23.2479 N   0  0  0  0  0  0  0  0  0  0  0  0
    7.7302    0.3506   22.1550 N   0  0  0  0  0  0  0  0  0  0  0  0
    7.3239   -0.5846   21.1053 C   0  0  0  0  0  0  0  0  0  0  0  0
    6.6507    0.0793   19.9178 C   0  0  0  0  0  0  0  0  0  0  0  0
    5.4380    0.7538   20.1075 C   0  0  0  0  0  0  0  0  0  0  0  0
    4.8323    1.3693   19.0109 C   0  0  0  0  0  0  0  0  0  0  0  0
    5.4588    1.2944   17.7644 C   0  0  0  0  0  0  0  0  0  0  0  0
    6.6143    0.6444   17.5593 N   0  0  0  0  0  0  0  0  0  0  0  0
    7.1849    0.0570   18.6202 C   0  0  0  0  0  0  0  0  0  0  0  0
    8.1202   -0.4656   18.4087 H   0  0  0  0  0  0  0  0  0  0  0  0
    5.0116    1.7713   16.8924 H   0  0  0  0  0  0  0  0  0  0  0  0
    3.8980    1.9109   19.1089 H   0  0  0  0  0  0  0  0  0  0  0  0
    4.9943    0.7960   21.1040 H   0  0  0  0  0  0  0  0  0  0  0  0
    8.1918   -1.1660   20.7793 H   0  0  0  0  0  0  0  0  0  0  0  0
    6.6416   -1.2860   21.5953 H   0  0  0  0  0  0  0  0  0  0  0  0
    8.7555    1.2298   22.1981 C   0  0  0  0  0  0  0  0  0  0  0  0
    9.9098    1.2463   21.2430 C   0  0  0  0  0  0  0  0  0  0  0  0
   11.0341    0.2850   21.6213 C   0  0  0  0  0  0  0  0  0  0  0  0
   12.0676    0.7156   22.4639 C   0  0  0  0  0  0  0  0  0  0  0  0
   13.0905   -0.1758   22.8004 C   0  0  0  0  0  0  0  0  0  0  0  0
   13.0821   -1.4501   22.2234 C   0  0  0  0  0  0  0  0  0  0  0  0
   12.0762   -1.8975   21.4611 N   0  0  0  0  0  0  0  0  0  0  0  0
   11.0839   -1.0453   21.1794 C   0  0  0  0  0  0  0  0  0  0  0  0
   10.2829   -1.4302   20.5462 H   0  0  0  0  0  0  0  0  0  0  0  0
   13.9185   -2.1349   22.3812 H   0  0  0  0  0  0  0  0  0  0  0  0
   13.8800    0.1171   23.4861 H   0  0  0  0  0  0  0  0  0  0  0  0
   12.0686    1.7485   22.8169 H   0  0  0  0  0  0  0  0  0  0  0  0
   10.2851    2.2754   21.2361 H   0  0  0  0  0  0  0  0  0  0  0  0
    9.5490    1.0318   20.2328 H   0  0  0  0  0  0  0  0  0  0  0  0
    8.6650    1.9820   23.2734 N   0  0  0  0  0  0  0  0  0  0  0  0
    5.9762    1.5198   25.8883 C   0  0  0  0  0  0  0  0  0  0  0  0
    5.6300    2.0458   27.1270 C   0  0  0  0  0  0  0  0  0  0  0  0
    4.5087    1.5855   27.7164 F   0  0  0  0  0  0  0  0  0  0  0  0
    5.3541    0.7368   25.4618 H   0  0  0  0  0  0  0  0  0  0  0  0
    8.8384    3.3021   25.4079 H   0  0  0  0  0  0  0  0  0  0  0  0
    8.1783    4.2133   27.6049 H   0  0  0  0  0  0  0  0  0  0  0  0
    5.7212    2.8204   29.8381 H   0  0  0  0  0  0  0  0  0  0  0  0
    5.0822    4.2418   29.0097 H   0  0  0  0  0  0  0  0  0  0  0  0
    6.7650    4.2183   29.5513 H   0  0  0  0  0  0  0  0  0  0  0  0
  1  2  1  0
  2  3  2  0
  3  4  1  0
  4  5  2  0
  5  6  1  0
  6  7  2  0
  7  8  1  0
  8  9  1  0
  9 10  1  0
 10 11  2  0
 11 12  1  0
 12 13  2  0
 13 14  1  0
 14 15  2  0
 15 16  1  0
 13 17  1  0
 12 18  1  0
 11 19  1  0
  9 20  1  0
  9 21  1  0
  8 22  1  0
 22 23  1  0
 23 24  1  0
 24 25  2  0
 25 26  1  0
 26 27  2  0
 27 28  1  0
 28 29  2  0
 29 30  1  0
 27 31  1  0
 26 32  1  0
 25 33  1  0
 23 34  1  0
 23 35  1  0
 22 36  2  0
  5 37  1  0
 37 38  2  0
 38 39  1  0
 37 40  1  0
  4 41  1  0
  3 42  1  0
  1 43  1  0
  1 44  1  0
  1 45  1  0
 38  2  1  0
 36  6  1  0
 15 10  1  0
 29 24  1  0
M  END
>  <cnnaffinity>  (1) 
-6.4215

>  <filename>  (1) 
Cc1ccc(-c2nc(Cc3cccnc3)n(Cc3cccnc3)n2)cc1F

$$$$
