
     RDKit          3D

 52 55  0  0  0  0  0  0  0  0999 V2000
    7.7709    2.7661   21.9845 C   0  0  0  0  0  0  0  0  0  0  0  0
    9.1639    2.3160   22.2962 C   0  0  0  0  0  0  0  0  0  0  0  0
    9.8194    2.8867   23.3048 N   0  0  0  0  0  0  0  0  0  0  0  0
   10.9897    2.2405   23.3863 N   0  0  0  0  0  0  0  0  0  0  0  0
   11.8748    2.4972   24.4940 C   0  0  0  0  0  0  0  0  0  0  0  0
   12.8330    2.0016   24.3091 H   0  0  0  0  0  0  0  0  0  0  0  0
   11.4365    2.1032   25.4182 H   0  0  0  0  0  0  0  0  0  0  0  0
   12.0194    3.5763   24.5737 H   0  0  0  0  0  0  0  0  0  0  0  0
   11.0912    1.2545   22.4756 C   0  0  0  0  0  0  0  0  0  0  0  0
    9.9333    1.2570   21.7403 C   0  0  0  0  0  0  0  0  0  0  0  0
    9.5864    0.1792   20.7497 C   0  0  0  0  0  0  0  0  0  0  0  0
    8.5332   -0.7715   21.2394 C   0  0  0  0  0  0  0  0  0  0  0  0
    8.7474   -1.6216   22.2233 N   0  0  0  0  0  0  0  0  0  0  0  0
    7.5222   -2.1722   22.4446 C   0  0  0  0  0  0  0  0  0  0  0  0
    7.3202   -3.1449   23.5745 C   0  0  0  0  0  0  0  0  0  0  0  0
    7.4079   -2.4523   24.9639 C   0  0  0  0  0  0  0  0  0  0  0  0
    7.2148   -3.4612   26.1098 C   0  0  0  0  0  0  0  0  0  0  0  0
    8.1880   -4.6615   26.0504 C   0  0  0  0  0  0  0  0  0  0  0  0
    9.6202   -4.2863   26.4636 C   0  0  0  0  0  0  0  0  0  0  0  0
    9.6382   -3.8742   27.4779 H   0  0  0  0  0  0  0  0  0  0  0  0
   10.2752   -5.1657   26.4516 H   0  0  0  0  0  0  0  0  0  0  0  0
   10.0637   -3.5393   25.7953 H   0  0  0  0  0  0  0  0  0  0  0  0
    8.1342   -5.3110   24.6496 C   0  0  0  0  0  0  0  0  0  0  0  0
    8.3491   -4.3016   23.5119 C   0  0  0  0  0  0  0  0  0  0  0  0
    8.2995   -4.8041   22.5386 H   0  0  0  0  0  0  0  0  0  0  0  0
    9.3607   -3.8736   23.5826 H   0  0  0  0  0  0  0  0  0  0  0  0
    7.1522   -5.7898   24.5184 H   0  0  0  0  0  0  0  0  0  0  0  0
    8.8800   -6.1136   24.5816 H   0  0  0  0  0  0  0  0  0  0  0  0
    7.8415   -5.4081   26.7812 H   0  0  0  0  0  0  0  0  0  0  0  0
    6.1840   -3.8445   26.0686 H   0  0  0  0  0  0  0  0  0  0  0  0
    7.3109   -2.9503   27.0770 H   0  0  0  0  0  0  0  0  0  0  0  0
    6.6620   -1.6503   25.0439 H   0  0  0  0  0  0  0  0  0  0  0  0
    8.3917   -1.9668   25.0545 H   0  0  0  0  0  0  0  0  0  0  0  0
    6.3079   -3.5509   23.4518 H   0  0  0  0  0  0  0  0  0  0  0  0
    6.5756   -1.7418   21.6359 N   0  0  0  0  0  0  0  0  0  0  0  0
    7.2307   -0.8556   20.8318 N   0  0  0  0  0  0  0  0  0  0  0  0
    6.5361   -0.1483   19.8033 C   0  0  0  0  0  0  0  0  0  0  0  0
    5.3539    0.5504   20.0810 C   0  0  0  0  0  0  0  0  0  0  0  0
    4.7843    1.3175   19.0575 C   0  0  0  0  0  0  0  0  0  0  0  0
    5.3897    1.3282   17.7967 C   0  0  0  0  0  0  0  0  0  0  0  0
    6.4860    0.6110   17.5047 N   0  0  0  0  0  0  0  0  0  0  0  0
    7.0343   -0.1141   18.4890 C   0  0  0  0  0  0  0  0  0  0  0  0
    7.9160   -0.7004   18.2268 H   0  0  0  0  0  0  0  0  0  0  0  0
    4.9724    1.9161   16.9816 H   0  0  0  0  0  0  0  0  0  0  0  0
    3.8876    1.9064   19.2258 H   0  0  0  0  0  0  0  0  0  0  0  0
    4.9038    0.4843   21.0723 H   0  0  0  0  0  0  0  0  0  0  0  0
    9.3179    0.6139   19.7868 H   0  0  0  0  0  0  0  0  0  0  0  0
   10.4831   -0.4305   20.5927 H   0  0  0  0  0  0  0  0  0  0  0  0
   11.9791    0.6361   22.3890 H   0  0  0  0  0  0  0  0  0  0  0  0
    7.6798    3.8494   22.1059 H   0  0  0  0  0  0  0  0  0  0  0  0
    7.4929    2.5011   20.9621 H   0  0  0  0  0  0  0  0  0  0  0  0
    7.0465    2.2916   22.6614 H   0  0  0  0  0  0  0  0  0  0  0  0
  1  2  1  0
  2  3  2  0
  3  4  1  0
  4  5  1  0
  5  6  1  0
  5  7  1  0
  5  8  1  0
  4  9  1  0
  9 10  2  0
 10 11  1  0
 11 12  1  0
 12 13  2  0
 13 14  1  0
 14 15  1  0
 15 16  1  0
 16 17  1  0
 17 18  1  0
 18 19  1  0
 19 20  1  0
 19 21  1  0
 19 22  1  0
 18 23  1  0
 23 24  1  0
 24 25  1  0
 24 26  1  0
 23 27  1  0
 23 28  1  0
 18 29  1  0
 17 30  1  0
 17 31  1  0
 16 32  1  0
 16 33  1  0
 15 34  1  0
 14 35  2  0
 35 36  1  0
 36 37  1  0
 37 38  2  0
 38 39  1  0
 39 40  2  0
 40 41  1  0
 41 42  2  0
 42 43  1  0
 40 44  1  0
 39 45  1  0
 38 46  1  0
 11 47  1  0
 11 48  1  0
  9 49  1  0
  1 50  1  0
  1 51  1  0
  1 52  1  0
 10  2  1  0
 36 12  1  0
 42 37  1  0
 24 15  1  0
M  END
>  <cnnaffinity>  (1) 
-6.48891

>  <filename>  (1) 
Cc1nn(C)cc1Cc1nc(C2CCC(C)CC2)nn1-c1cccnc1

$$$$
