
     RDKit          3D

 46 49  0  0  0  0  0  0  0  0999 V2000
    8.2656    2.7587   22.0669 C   0  0  0  0  0  0  0  0  0  0  0  0
    9.6250    2.3128   22.5217 C   0  0  0  0  0  0  0  0  0  0  0  0
   10.1704    2.9784   23.5446 N   0  0  0  0  0  0  0  0  0  0  0  0
   11.3704    2.5871   23.9966 C   0  0  0  0  0  0  0  0  0  0  0  0
   12.0669    1.5020   23.4670 C   0  0  0  0  0  0  0  0  0  0  0  0
   13.6001    1.0197   24.1011 Cl  0  0  0  0  0  0  0  0  0  0  0  0
   11.5149    0.7974   22.4015 C   0  0  0  0  0  0  0  0  0  0  0  0
   10.2869    1.2244   21.8967 C   0  0  0  0  0  0  0  0  0  0  0  0
    9.6223    0.3953   20.8196 C   0  0  0  0  0  0  0  0  0  0  0  0
    8.6222   -0.5681   21.3589 C   0  0  0  0  0  0  0  0  0  0  0  0
    8.8726   -1.4308   22.3245 N   0  0  0  0  0  0  0  0  0  0  0  0
    7.6698   -2.0164   22.5210 C   0  0  0  0  0  0  0  0  0  0  0  0
    7.4253   -3.0262   23.6068 C   0  0  0  0  0  0  0  0  0  0  0  0
    6.4758   -2.4722   24.6985 C   0  0  0  0  0  0  0  0  0  0  0  0
    6.1076   -3.5620   25.7015 C   0  0  0  0  0  0  0  0  0  0  0  0
    5.5582   -4.7005   25.0586 O   0  0  0  0  0  0  0  0  0  0  0  0
    6.4783   -5.3023   24.1639 C   0  0  0  0  0  0  0  0  0  0  0  0
    6.8716   -4.3518   23.0360 C   0  0  0  0  0  0  0  0  0  0  0  0
    5.9863   -4.1333   22.4264 H   0  0  0  0  0  0  0  0  0  0  0  0
    7.6131   -4.8310   22.3845 H   0  0  0  0  0  0  0  0  0  0  0  0
    5.9923   -6.1978   23.7669 H   0  0  0  0  0  0  0  0  0  0  0  0
    7.3787   -5.6211   24.7188 H   0  0  0  0  0  0  0  0  0  0  0  0
    7.0011   -3.8574   26.2788 H   0  0  0  0  0  0  0  0  0  0  0  0
    5.3535   -3.2034   26.4081 H   0  0  0  0  0  0  0  0  0  0  0  0
    6.9319   -1.6209   25.2201 H   0  0  0  0  0  0  0  0  0  0  0  0
    5.5592   -2.1118   24.2236 H   0  0  0  0  0  0  0  0  0  0  0  0
    8.4033   -3.2140   24.0635 H   0  0  0  0  0  0  0  0  0  0  0  0
    6.7083   -1.6021   21.7107 N   0  0  0  0  0  0  0  0  0  0  0  0
    7.3374   -0.6958   20.9268 N   0  0  0  0  0  0  0  0  0  0  0  0
    6.6445   -0.0066   19.8967 C   0  0  0  0  0  0  0  0  0  0  0  0
    5.4354    0.6419   20.1668 C   0  0  0  0  0  0  0  0  0  0  0  0
    4.8117    1.3120   19.1104 C   0  0  0  0  0  0  0  0  0  0  0  0
    5.4008    1.2962   17.8387 C   0  0  0  0  0  0  0  0  0  0  0  0
    6.5573    0.6720   17.5769 N   0  0  0  0  0  0  0  0  0  0  0  0
    7.1629    0.0463   18.5891 C   0  0  0  0  0  0  0  0  0  0  0  0
    8.1131   -0.4319   18.3663 H   0  0  0  0  0  0  0  0  0  0  0  0
    4.9180    1.7849   16.9946 H   0  0  0  0  0  0  0  0  0  0  0  0
    3.8798    1.8411   19.2620 H   0  0  0  0  0  0  0  0  0  0  0  0
    5.0133    0.6131   21.1756 H   0  0  0  0  0  0  0  0  0  0  0  0
   10.3527   -0.2551   20.3398 H   0  0  0  0  0  0  0  0  0  0  0  0
    9.1624    1.0357   20.0673 H   0  0  0  0  0  0  0  0  0  0  0  0
   12.0272   -0.0730   21.9893 H   0  0  0  0  0  0  0  0  0  0  0  0
   11.7938    3.1609   24.8104 H   0  0  0  0  0  0  0  0  0  0  0  0
    8.2991    3.0289   21.0143 H   0  0  0  0  0  0  0  0  0  0  0  0
    7.5192    1.9621   22.1413 H   0  0  0  0  0  0  0  0  0  0  0  0
    7.9225    3.6197   22.6381 H   0  0  0  0  0  0  0  0  0  0  0  0
  1  2  1  0
  2  3  2  0
  3  4  1  0
  4  5  2  0
  5  6  1  0
  5  7  1  0
  7  8  2  0
  8  9  1  0
  9 10  1  0
 10 11  2  0
 11 12  1  0
 12 13  1  0
 13 14  1  0
 14 15  1  0
 15 16  1  0
 16 17  1  0
 17 18  1  0
 18 19  1  0
 18 20  1  0
 17 21  1  0
 17 22  1  0
 15 23  1  0
 15 24  1  0
 14 25  1  0
 14 26  1  0
 13 27  1  0
 12 28  2  0
 28 29  1  0
 29 30  1  0
 30 31  2  0
 31 32  1  0
 32 33  2  0
 33 34  1  0
 34 35  2  0
 35 36  1  0
 33 37  1  0
 32 38  1  0
 31 39  1  0
  9 40  1  0
  9 41  1  0
  7 42  1  0
  4 43  1  0
  1 44  1  0
  1 45  1  0
  1 46  1  0
  8  2  1  0
 29 10  1  0
 35 30  1  0
 18 13  1  0
M  END
>  <cnnaffinity>  (1) 
-6.472

>  <filename>  (1) 
Cc1ncc(Cl)cc1Cc1nc(C2CCOCC2)nn1-c1cccnc1

$$$$
