
     RDKit          3D

 42 45  0  0  0  0  0  0  0  0999 V2000
    5.6864   -1.0439   26.3801 C   0  0  0  0  0  0  0  0  0  0  0  0
    6.5328   -0.0659   25.6455 C   0  0  0  0  0  0  0  0  0  0  0  0
    6.4419    0.3490   24.4235 N   0  0  0  0  0  0  0  0  0  0  0  0
    7.5002    1.2328   24.2681 C   0  0  0  0  0  0  0  0  0  0  0  0
    7.8195    1.7716   22.9063 C   0  0  0  0  0  0  0  0  0  0  0  0
    8.7826    0.8294   22.2713 C   0  0  0  0  0  0  0  0  0  0  0  0
   10.0800    0.8933   22.4751 N   0  0  0  0  0  0  0  0  0  0  0  0
   10.5492   -0.2377   21.8881 C   0  0  0  0  0  0  0  0  0  0  0  0
   11.9951   -0.5503   21.7586 C   0  0  0  0  0  0  0  0  0  0  0  0
   13.0224    0.2920   22.2437 C   0  0  0  0  0  0  0  0  0  0  0  0
   14.3223    0.1302   21.7630 C   0  0  0  0  0  0  0  0  0  0  0  0
   14.5779   -0.8224   20.7511 C   0  0  0  0  0  0  0  0  0  0  0  0
   15.9758   -0.4317   19.6587 Cl  0  0  0  0  0  0  0  0  0  0  0  0
   13.6505   -1.8161   20.4744 C   0  0  0  0  0  0  0  0  0  0  0  0
   12.3581   -1.6614   20.9837 C   0  0  0  0  0  0  0  0  0  0  0  0
   11.5458   -2.3298   20.7434 H   0  0  0  0  0  0  0  0  0  0  0  0
   13.9074   -2.6591   19.8497 H   0  0  0  0  0  0  0  0  0  0  0  0
   15.0928    0.8431   22.0409 H   0  0  0  0  0  0  0  0  0  0  0  0
   12.7958    1.1309   22.8983 H   0  0  0  0  0  0  0  0  0  0  0  0
    9.5899   -0.9831   21.3387 N   0  0  0  0  0  0  0  0  0  0  0  0
    8.4590   -0.2889   21.6000 N   0  0  0  0  0  0  0  0  0  0  0  0
    7.1376   -0.7356   21.1503 C   0  0  0  0  0  0  0  0  0  0  0  0
    6.5420    0.0690   20.0035 C   0  0  0  0  0  0  0  0  0  0  0  0
    5.3046    0.7237   20.0949 C   0  0  0  0  0  0  0  0  0  0  0  0
    4.7881    1.3624   18.9622 C   0  0  0  0  0  0  0  0  0  0  0  0
    5.5326    1.3387   17.7796 C   0  0  0  0  0  0  0  0  0  0  0  0
    6.7256    0.7324   17.6757 N   0  0  0  0  0  0  0  0  0  0  0  0
    7.2082    0.1239   18.7664 C   0  0  0  0  0  0  0  0  0  0  0  0
    8.1743   -0.3667   18.6468 H   0  0  0  0  0  0  0  0  0  0  0  0
    5.1519    1.8133   16.8743 H   0  0  0  0  0  0  0  0  0  0  0  0
    3.8352    1.8813   18.9843 H   0  0  0  0  0  0  0  0  0  0  0  0
    4.7400    0.7250   21.0324 H   0  0  0  0  0  0  0  0  0  0  0  0
    6.4675   -0.6883   22.0180 H   0  0  0  0  0  0  0  0  0  0  0  0
    7.2586   -1.7870   20.8712 H   0  0  0  0  0  0  0  0  0  0  0  0
    8.3085    2.7486   22.9544 H   0  0  0  0  0  0  0  0  0  0  0  0
    6.9014    1.8364   22.3156 H   0  0  0  0  0  0  0  0  0  0  0  0
    8.1991    1.2777   25.4215 C   0  0  0  0  0  0  0  0  0  0  0  0
    7.5762    0.4623   26.3249 O   0  0  0  0  0  0  0  0  0  0  0  0
    9.1286    1.7318   25.7301 H   0  0  0  0  0  0  0  0  0  0  0  0
    5.0058   -0.5167   27.0546 H   0  0  0  0  0  0  0  0  0  0  0  0
    5.1045   -1.6304   25.6690 H   0  0  0  0  0  0  0  0  0  0  0  0
    6.3250   -1.7006   26.9749 H   0  0  0  0  0  0  0  0  0  0  0  0
  1  2  1  0
  2  3  2  0
  3  4  1  0
  4  5  1  0
  5  6  1  0
  6  7  2  0
  7  8  1  0
  8  9  1  0
  9 10  2  0
 10 11  1  0
 11 12  2  0
 12 13  1  0
 12 14  1  0
 14 15  2  0
 15 16  1  0
 14 17  1  0
 11 18  1  0
 10 19  1  0
  8 20  2  0
 20 21  1  0
 21 22  1  0
 22 23  1  0
 23 24  2  0
 24 25  1  0
 25 26  2  0
 26 27  1  0
 27 28  2  0
 28 29  1  0
 26 30  1  0
 25 31  1  0
 24 32  1  0
 22 33  1  0
 22 34  1  0
  5 35  1  0
  5 36  1  0
  4 37  2  0
 37 38  1  0
 37 39  1  0
  1 40  1  0
  1 41  1  0
  1 42  1  0
 38  2  1  0
 21  6  1  0
 28 23  1  0
 15  9  1  0
M  END
>  <cnnaffinity>  (1) 
-6.49713

>  <filename>  (1) 
Cc1nc(Cc2nc(-c3ccc(Cl)cc3)nn2Cc2cccnc2)co1

$$$$
