
     RDKit          3D

 46 49  0  0  0  0  0  0  0  0999 V2000
   11.4110    4.1589   22.7870 C   0  0  0  0  0  0  0  0  0  0  0  0
   11.3639    2.8513   23.5078 C   0  0  0  0  0  0  0  0  0  0  0  0
   12.3783    2.3448   24.1655 N   0  0  0  0  0  0  0  0  0  0  0  0
   11.9494    1.1361   24.6515 C   0  0  0  0  0  0  0  0  0  0  0  0
   10.6573    0.9135   24.2770 C   0  0  0  0  0  0  0  0  0  0  0  0
   10.2747    2.0259   23.5479 N   0  0  0  0  0  0  0  0  0  0  0  0
    9.0021    2.2106   22.8634 C   0  0  0  0  0  0  0  0  0  0  0  0
    9.0698    2.0050   21.3438 C   0  0  0  0  0  0  0  0  0  0  0  0
    9.5365    0.5924   20.9403 C   0  0  0  0  0  0  0  0  0  0  0  0
    8.6371   -0.4946   21.4228 C   0  0  0  0  0  0  0  0  0  0  0  0
    8.8578   -1.3291   22.4162 N   0  0  0  0  0  0  0  0  0  0  0  0
    7.6738   -1.9886   22.5535 C   0  0  0  0  0  0  0  0  0  0  0  0
    7.4612   -3.0098   23.6015 C   0  0  0  0  0  0  0  0  0  0  0  0
    8.4773   -3.3172   24.5310 C   0  0  0  0  0  0  0  0  0  0  0  0
    8.2733   -4.2804   25.5180 C   0  0  0  0  0  0  0  0  0  0  0  0
    7.0433   -4.9324   25.5676 C   0  0  0  0  0  0  0  0  0  0  0  0
    6.8380   -5.8598   26.5127 F   0  0  0  0  0  0  0  0  0  0  0  0
    6.0157   -4.6552   24.6688 C   0  0  0  0  0  0  0  0  0  0  0  0
    6.2288   -3.6912   23.6875 C   0  0  0  0  0  0  0  0  0  0  0  0
    5.4369   -3.4530   22.9804 H   0  0  0  0  0  0  0  0  0  0  0  0
    5.0745   -5.1884   24.7525 H   0  0  0  0  0  0  0  0  0  0  0  0
    9.0403   -4.5363   26.2432 H   0  0  0  0  0  0  0  0  0  0  0  0
    9.4400   -2.8106   24.4860 H   0  0  0  0  0  0  0  0  0  0  0  0
    6.7459   -1.6135   21.6892 N   0  0  0  0  0  0  0  0  0  0  0  0
    7.3680   -0.6670   20.9467 N   0  0  0  0  0  0  0  0  0  0  0  0
    6.6638    0.0094   19.9057 C   0  0  0  0  0  0  0  0  0  0  0  0
    5.4419    0.6415   20.1676 C   0  0  0  0  0  0  0  0  0  0  0  0
    4.8131    1.3089   19.1108 C   0  0  0  0  0  0  0  0  0  0  0  0
    5.4014    1.2955   17.8389 C   0  0  0  0  0  0  0  0  0  0  0  0
    6.5611    0.6742   17.5787 N   0  0  0  0  0  0  0  0  0  0  0  0
    7.1716    0.0557   18.5955 C   0  0  0  0  0  0  0  0  0  0  0  0
    8.1143   -0.4354   18.3689 H   0  0  0  0  0  0  0  0  0  0  0  0
    4.9194    1.7846   16.9944 H   0  0  0  0  0  0  0  0  0  0  0  0
    3.8801    1.8395   19.2608 H   0  0  0  0  0  0  0  0  0  0  0  0
    5.0175    0.6082   21.1741 H   0  0  0  0  0  0  0  0  0  0  0  0
   10.5310    0.3933   21.3482 H   0  0  0  0  0  0  0  0  0  0  0  0
    9.6094    0.5369   19.8514 H   0  0  0  0  0  0  0  0  0  0  0  0
    9.7553    2.7434   20.9180 H   0  0  0  0  0  0  0  0  0  0  0  0
    8.0807    2.2045   20.9082 H   0  0  0  0  0  0  0  0  0  0  0  0
    8.6093    3.2055   23.0934 H   0  0  0  0  0  0  0  0  0  0  0  0
    8.3039    1.4971   23.3087 H   0  0  0  0  0  0  0  0  0  0  0  0
    9.9861    0.0812   24.4174 H   0  0  0  0  0  0  0  0  0  0  0  0
   12.6011    0.5088   25.2500 H   0  0  0  0  0  0  0  0  0  0  0  0
   12.1875    4.7860   23.2295 H   0  0  0  0  0  0  0  0  0  0  0  0
   11.6795    4.0122   21.7338 H   0  0  0  0  0  0  0  0  0  0  0  0
   10.4549    4.6886   22.8248 H   0  0  0  0  0  0  0  0  0  0  0  0
  1  2  1  0
  2  3  2  0
  3  4  1  0
  4  5  2  0
  5  6  1  0
  6  7  1  0
  7  8  1  0
  8  9  1  0
  9 10  1  0
 10 11  2  0
 11 12  1  0
 12 13  1  0
 13 14  2  0
 14 15  1  0
 15 16  2  0
 16 17  1  0
 16 18  1  0
 18 19  2  0
 19 20  1  0
 18 21  1  0
 15 22  1  0
 14 23  1  0
 12 24  2  0
 24 25  1  0
 25 26  1  0
 26 27  2  0
 27 28  1  0
 28 29  2  0
 29 30  1  0
 30 31  2  0
 31 32  1  0
 29 33  1  0
 28 34  1  0
 27 35  1  0
  9 36  1  0
  9 37  1  0
  8 38  1  0
  8 39  1  0
  7 40  1  0
  7 41  1  0
  5 42  1  0
  4 43  1  0
  1 44  1  0
  1 45  1  0
  1 46  1  0
  6  2  1  0
 25 10  1  0
 31 26  1  0
 19 13  1  0
M  END
>  <cnnaffinity>  (1) 
-6.21381

>  <filename>  (1) 
Cc1nccn1CCCc1nc(-c2ccc(F)cc2)nn1-c1cccnc1

$$$$
