
     RDKit          3D

 49 52  0  0  0  0  0  0  0  0999 V2000
    7.7407    2.8102   21.9506 C   0  0  0  0  0  0  0  0  0  0  0  0
    9.1144    2.3790   22.3689 C   0  0  0  0  0  0  0  0  0  0  0  0
    9.7391    2.9621   23.3958 N   0  0  0  0  0  0  0  0  0  0  0  0
   10.9115    2.3166   23.5124 N   0  0  0  0  0  0  0  0  0  0  0  0
   11.8168    2.5592   24.6071 C   0  0  0  0  0  0  0  0  0  0  0  0
   11.9759    3.6381   24.7018 H   0  0  0  0  0  0  0  0  0  0  0  0
   12.7710    2.0674   24.3881 H   0  0  0  0  0  0  0  0  0  0  0  0
   11.4137    2.1364   25.5344 H   0  0  0  0  0  0  0  0  0  0  0  0
   11.0260    1.3143   22.6184 C   0  0  0  0  0  0  0  0  0  0  0  0
    9.9014    1.3218   21.8371 C   0  0  0  0  0  0  0  0  0  0  0  0
    9.5995    0.2671   20.8020 C   0  0  0  0  0  0  0  0  0  0  0  0
    8.5679   -0.7178   21.2681 C   0  0  0  0  0  0  0  0  0  0  0  0
    8.7877   -1.5757   22.2411 N   0  0  0  0  0  0  0  0  0  0  0  0
    7.5597   -2.1198   22.4700 C   0  0  0  0  0  0  0  0  0  0  0  0
    7.3625   -3.1055   23.5853 C   0  0  0  0  0  0  0  0  0  0  0  0
    7.4714   -2.4217   24.9766 C   0  0  0  0  0  0  0  0  0  0  0  0
    7.2694   -3.4398   26.1106 C   0  0  0  0  0  0  0  0  0  0  0  0
    8.2121   -4.6325   25.9895 C   0  0  0  0  0  0  0  0  0  0  0  0
    7.9024   -5.5635   26.9454 F   0  0  0  0  0  0  0  0  0  0  0  0
    9.4955   -4.2163   26.2642 F   0  0  0  0  0  0  0  0  0  0  0  0
    8.1853   -5.2857   24.6120 C   0  0  0  0  0  0  0  0  0  0  0  0
    8.3894   -4.2617   23.4875 C   0  0  0  0  0  0  0  0  0  0  0  0
    8.3029   -4.7583   22.5145 H   0  0  0  0  0  0  0  0  0  0  0  0
    9.4030   -3.8393   23.5452 H   0  0  0  0  0  0  0  0  0  0  0  0
    7.2071   -5.7701   24.4990 H   0  0  0  0  0  0  0  0  0  0  0  0
    8.9509   -6.0672   24.5792 H   0  0  0  0  0  0  0  0  0  0  0  0
    6.2439   -3.8299   26.0795 H   0  0  0  0  0  0  0  0  0  0  0  0
    7.4184   -2.9760   27.0906 H   0  0  0  0  0  0  0  0  0  0  0  0
    8.4620   -1.9530   25.0688 H   0  0  0  0  0  0  0  0  0  0  0  0
    6.7253   -1.6225   25.0666 H   0  0  0  0  0  0  0  0  0  0  0  0
    6.3481   -3.5117   23.4778 H   0  0  0  0  0  0  0  0  0  0  0  0
    6.6067   -1.6751   21.6775 N   0  0  0  0  0  0  0  0  0  0  0  0
    7.2640   -0.7908   20.8725 N   0  0  0  0  0  0  0  0  0  0  0  0
    6.5800   -0.0867   19.8414 C   0  0  0  0  0  0  0  0  0  0  0  0
    5.3859    0.5891   20.1111 C   0  0  0  0  0  0  0  0  0  0  0  0
    4.7899    1.3116   19.0732 C   0  0  0  0  0  0  0  0  0  0  0  0
    5.3885    1.3198   17.8099 C   0  0  0  0  0  0  0  0  0  0  0  0
    6.5155    0.6467   17.5333 N   0  0  0  0  0  0  0  0  0  0  0  0
    7.0903   -0.0366   18.5314 C   0  0  0  0  0  0  0  0  0  0  0  0
    8.0070   -0.5717   18.2837 H   0  0  0  0  0  0  0  0  0  0  0  0
    4.9426    1.8811   16.9901 H   0  0  0  0  0  0  0  0  0  0  0  0
    3.8802    1.8757   19.2377 H   0  0  0  0  0  0  0  0  0  0  0  0
    4.9516    0.5472   21.1105 H   0  0  0  0  0  0  0  0  0  0  0  0
   10.5107   -0.3164   20.6310 H   0  0  0  0  0  0  0  0  0  0  0  0
    9.3172    0.7184   19.8478 H   0  0  0  0  0  0  0  0  0  0  0  0
   11.8865    0.6583   22.6031 H   0  0  0  0  0  0  0  0  0  0  0  0
    6.9605    2.2699   22.5066 H   0  0  0  0  0  0  0  0  0  0  0  0
    7.5537    2.5835   20.8937 H   0  0  0  0  0  0  0  0  0  0  0  0
    7.6022    3.8807   22.1298 H   0  0  0  0  0  0  0  0  0  0  0  0
  1  2  1  0
  2  3  2  0
  3  4  1  0
  4  5  1  0
  5  6  1  0
  5  7  1  0
  5  8  1  0
  4  9  1  0
  9 10  2  0
 10 11  1  0
 11 12  1  0
 12 13  2  0
 13 14  1  0
 14 15  1  0
 15 16  1  0
 16 17  1  0
 17 18  1  0
 18 19  1  0
 18 20  1  0
 18 21  1  0
 21 22  1  0
 22 23  1  0
 22 24  1  0
 21 25  1  0
 21 26  1  0
 17 27  1  0
 17 28  1  0
 16 29  1  0
 16 30  1  0
 15 31  1  0
 14 32  2  0
 32 33  1  0
 33 34  1  0
 34 35  2  0
 35 36  1  0
 36 37  2  0
 37 38  1  0
 38 39  2  0
 39 40  1  0
 37 41  1  0
 36 42  1  0
 35 43  1  0
 11 44  1  0
 11 45  1  0
  9 46  1  0
  1 47  1  0
  1 48  1  0
  1 49  1  0
 10  2  1  0
 33 12  1  0
 39 34  1  0
 22 15  1  0
M  END
>  <cnnaffinity>  (1) 
-6.50108

>  <filename>  (1) 
Cc1nn(C)cc1Cc1nc(C2CCC(F)(F)CC2)nn1-c1cccnc1

$$$$
