
     RDKit          3D

 45 48  0  0  0  0  0  0  0  0999 V2000
    8.3292    4.2562   24.1563 C   0  0  0  0  0  0  0  0  0  0  0  0
    8.5224    3.3398   22.9999 C   0  0  0  0  0  0  0  0  0  0  0  0
    9.3109    2.3234   22.9282 N   0  0  0  0  0  0  0  0  0  0  0  0
    9.0801    1.7793   21.6747 C   0  0  0  0  0  0  0  0  0  0  0  0
    9.6799    0.4574   21.3285 C   0  0  0  0  0  0  0  0  0  0  0  0
    8.7553   -0.6538   21.6978 C   0  0  0  0  0  0  0  0  0  0  0  0
    8.8946   -1.4743   22.7113 N   0  0  0  0  0  0  0  0  0  0  0  0
    7.7406   -2.1897   22.6861 C   0  0  0  0  0  0  0  0  0  0  0  0
    7.3927   -3.1985   23.7331 C   0  0  0  0  0  0  0  0  0  0  0  0
    6.3596   -2.6347   24.7491 C   0  0  0  0  0  0  0  0  0  0  0  0
    6.1076   -3.6527   25.8725 C   0  0  0  0  0  0  0  0  0  0  0  0
    5.6734   -5.0048   25.3152 C   0  0  0  0  0  0  0  0  0  0  0  0
    5.5799   -5.9141   26.3348 F   0  0  0  0  0  0  0  0  0  0  0  0
    4.4026   -4.8898   24.7973 F   0  0  0  0  0  0  0  0  0  0  0  0
    6.5991   -5.5508   24.2327 C   0  0  0  0  0  0  0  0  0  0  0  0
    6.8706   -4.5218   23.1256 C   0  0  0  0  0  0  0  0  0  0  0  0
    5.9489   -4.3091   22.5646 H   0  0  0  0  0  0  0  0  0  0  0  0
    7.5924   -4.9283   22.4061 H   0  0  0  0  0  0  0  0  0  0  0  0
    7.5415   -5.8238   24.7278 H   0  0  0  0  0  0  0  0  0  0  0  0
    6.1477   -6.4599   23.8229 H   0  0  0  0  0  0  0  0  0  0  0  0
    5.3405   -3.3031   26.5724 H   0  0  0  0  0  0  0  0  0  0  0  0
    7.0331   -3.8200   26.4407 H   0  0  0  0  0  0  0  0  0  0  0  0
    5.4186   -2.4256   24.2218 H   0  0  0  0  0  0  0  0  0  0  0  0
    6.7100   -1.6823   25.1681 H   0  0  0  0  0  0  0  0  0  0  0  0
    8.3296   -3.3907   24.2708 H   0  0  0  0  0  0  0  0  0  0  0  0
    6.9064   -1.8664   21.7161 N   0  0  0  0  0  0  0  0  0  0  0  0
    7.5709   -0.8848   21.0557 N   0  0  0  0  0  0  0  0  0  0  0  0
    6.8966   -0.1921   20.0040 C   0  0  0  0  0  0  0  0  0  0  0  0
    5.6843    0.4608   20.2632 C   0  0  0  0  0  0  0  0  0  0  0  0
    5.0818    1.1826   19.2291 C   0  0  0  0  0  0  0  0  0  0  0  0
    5.6852    1.1851   17.9636 C   0  0  0  0  0  0  0  0  0  0  0  0
    6.8250    0.5291   17.7008 N   0  0  0  0  0  0  0  0  0  0  0  0
    7.4133   -0.1420   18.6998 C   0  0  0  0  0  0  0  0  0  0  0  0
    8.3431   -0.6559   18.4591 H   0  0  0  0  0  0  0  0  0  0  0  0
    5.2318    1.7158   17.1273 H   0  0  0  0  0  0  0  0  0  0  0  0
    4.1769    1.7609   19.3865 H   0  0  0  0  0  0  0  0  0  0  0  0
    5.2583    0.4385   21.2692 H   0  0  0  0  0  0  0  0  0  0  0  0
    9.9033    0.3677   20.2678 H   0  0  0  0  0  0  0  0  0  0  0  0
   10.5910    0.3328   21.9109 H   0  0  0  0  0  0  0  0  0  0  0  0
    8.1203    2.4997   21.0653 C   0  0  0  0  0  0  0  0  0  0  0  0
    7.7573    3.5207   21.9006 O   0  0  0  0  0  0  0  0  0  0  0  0
    7.5554    2.4022   20.1529 H   0  0  0  0  0  0  0  0  0  0  0  0
    9.0906    4.0336   24.9035 H   0  0  0  0  0  0  0  0  0  0  0  0
    7.3368    4.1122   24.5969 H   0  0  0  0  0  0  0  0  0  0  0  0
    8.4059    5.2957   23.8336 H   0  0  0  0  0  0  0  0  0  0  0  0
  1  2  1  0
  2  3  2  0
  3  4  1  0
  4  5  1  0
  5  6  1  0
  6  7  2  0
  7  8  1  0
  8  9  1  0
  9 10  1  0
 10 11  1  0
 11 12  1  0
 12 13  1  0
 12 14  1  0
 12 15  1  0
 15 16  1  0
 16 17  1  0
 16 18  1  0
 15 19  1  0
 15 20  1  0
 11 21  1  0
 11 22  1  0
 10 23  1  0
 10 24  1  0
  9 25  1  0
  8 26  2  0
 26 27  1  0
 27 28  1  0
 28 29  2  0
 29 30  1  0
 30 31  2  0
 31 32  1  0
 32 33  2  0
 33 34  1  0
 31 35  1  0
 30 36  1  0
 29 37  1  0
  5 38  1  0
  5 39  1  0
  4 40  2  0
 40 41  1  0
 40 42  1  0
  1 43  1  0
  1 44  1  0
  1 45  1  0
 41  2  1  0
 27  6  1  0
 33 28  1  0
 16  9  1  0
M  END
>  <cnnaffinity>  (1) 
-6.18102

>  <filename>  (1) 
Cc1nc(Cc2nc(C3CCC(F)(F)CC3)nn2-c2cccnc2)co1

$$$$
