
     RDKit          3D

 43 47  0  0  0  0  0  0  0  0999 V2000
    8.3040    2.6130   22.2072 C   0  0  0  0  0  0  0  0  0  0  0  0
    9.6823    2.1571   22.6018 C   0  0  0  0  0  0  0  0  0  0  0  0
   10.2507    2.8278   23.6130 N   0  0  0  0  0  0  0  0  0  0  0  0
   11.4884    2.4804   23.9924 C   0  0  0  0  0  0  0  0  0  0  0  0
   12.2132    1.4454   23.4146 C   0  0  0  0  0  0  0  0  0  0  0  0
   11.6161    0.7359   22.3697 C   0  0  0  0  0  0  0  0  0  0  0  0
   10.3297    1.0834   21.9425 C   0  0  0  0  0  0  0  0  0  0  0  0
    9.6630    0.2629   20.8398 C   0  0  0  0  0  0  0  0  0  0  0  0
    8.6153   -0.6943   21.3183 C   0  0  0  0  0  0  0  0  0  0  0  0
    8.8447   -1.5873   22.2634 N   0  0  0  0  0  0  0  0  0  0  0  0
    7.6240   -2.1353   22.4782 C   0  0  0  0  0  0  0  0  0  0  0  0
    7.4019   -3.0267   23.6359 C   0  0  0  0  0  0  0  0  0  0  0  0
    6.0196   -3.1516   24.1857 C   0  0  0  0  0  0  0  0  0  0  0  0
    7.0069   -2.2142   24.8938 C   0  0  0  0  0  0  0  0  0  0  0  0
    6.8216   -1.6683   26.2761 C   0  0  0  0  0  0  0  0  0  0  0  0
    7.9116   -1.1197   25.3807 C   0  0  0  0  0  0  0  0  0  0  0  0
    7.8038   -0.1489   24.8897 H   0  0  0  0  0  0  0  0  0  0  0  0
    8.9379   -1.4475   25.5575 H   0  0  0  0  0  0  0  0  0  0  0  0
    7.0538   -2.3239   27.1083 H   0  0  0  0  0  0  0  0  0  0  0  0
    5.9376   -1.0452   26.4168 H   0  0  0  0  0  0  0  0  0  0  0  0
    5.1807   -2.7246   23.6415 H   0  0  0  0  0  0  0  0  0  0  0  0
    5.7775   -4.0436   24.7666 H   0  0  0  0  0  0  0  0  0  0  0  0
    8.1667   -3.7888   23.7722 H   0  0  0  0  0  0  0  0  0  0  0  0
    6.6682   -1.6900   21.6798 N   0  0  0  0  0  0  0  0  0  0  0  0
    7.3140   -0.7790   20.9012 N   0  0  0  0  0  0  0  0  0  0  0  0
    6.6129   -0.0884   19.8626 C   0  0  0  0  0  0  0  0  0  0  0  0
    5.4151    0.5822   20.1328 C   0  0  0  0  0  0  0  0  0  0  0  0
    4.8121    1.3064   19.0976 C   0  0  0  0  0  0  0  0  0  0  0  0
    5.4071    1.3111   17.8305 C   0  0  0  0  0  0  0  0  0  0  0  0
    6.5351    0.6425   17.5532 N   0  0  0  0  0  0  0  0  0  0  0  0
    7.1179   -0.0424   18.5473 C   0  0  0  0  0  0  0  0  0  0  0  0
    8.0335   -0.5729   18.2864 H   0  0  0  0  0  0  0  0  0  0  0  0
    4.9462    1.8553   17.0073 H   0  0  0  0  0  0  0  0  0  0  0  0
    3.9012    1.8692   19.2651 H   0  0  0  0  0  0  0  0  0  0  0  0
    4.9844    0.5459   21.1338 H   0  0  0  0  0  0  0  0  0  0  0  0
   10.4163   -0.3750   20.3723 H   0  0  0  0  0  0  0  0  0  0  0  0
    9.2490    0.9137   20.0677 H   0  0  0  0  0  0  0  0  0  0  0  0
   12.1463   -0.0812   21.8800 H   0  0  0  0  0  0  0  0  0  0  0  0
   13.2150    1.2120   23.7613 H   0  0  0  0  0  0  0  0  0  0  0  0
   11.9091    3.0672   24.8023 H   0  0  0  0  0  0  0  0  0  0  0  0
    7.5591    1.8254   22.3548 H   0  0  0  0  0  0  0  0  0  0  0  0
    8.0099    3.4756   22.8037 H   0  0  0  0  0  0  0  0  0  0  0  0
    8.2710    2.9033   21.1546 H   0  0  0  0  0  0  0  0  0  0  0  0
  1  2  1  0
  2  3  2  0
  3  4  1  0
  4  5  2  0
  5  6  1  0
  6  7  2  0
  7  8  1  0
  8  9  1  0
  9 10  2  0
 10 11  1  0
 11 12  1  0
 12 13  1  0
 13 14  1  0
 14 15  1  0
 15 16  1  0
 16 17  1  0
 16 18  1  0
 15 19  1  0
 15 20  1  0
 13 21  1  0
 13 22  1  0
 12 23  1  0
 11 24  2  0
 24 25  1  0
 25 26  1  0
 26 27  2  0
 27 28  1  0
 28 29  2  0
 29 30  1  0
 30 31  2  0
 31 32  1  0
 29 33  1  0
 28 34  1  0
 27 35  1  0
  8 36  1  0
  8 37  1  0
  6 38  1  0
  5 39  1  0
  4 40  1  0
  1 41  1  0
  1 42  1  0
  1 43  1  0
  7  2  1  0
 25  9  1  0
 31 26  1  0
 14 12  1  0
 16 14  1  0
M  END
>  <cnnaffinity>  (1) 
-6.2906

>  <filename>  (1) 
Cc1ncccc1Cc1nc(C2CC23CC3)nn1-c1cccnc1

$$$$
