
     RDKit          3D

 40 43  0  0  0  0  0  0  0  0999 V2000
    8.1879    4.2547   24.2297 C   0  0  0  0  0  0  0  0  0  0  0  0
    8.4827    3.3667   23.0752 C   0  0  0  0  0  0  0  0  0  0  0  0
    9.2324    2.2942   23.0973 N   0  0  0  0  0  0  0  0  0  0  0  0
    9.1480    1.7663   21.8357 C   0  0  0  0  0  0  0  0  0  0  0  0
    9.7272    0.4521   21.4543 C   0  0  0  0  0  0  0  0  0  0  0  0
    8.7214   -0.6338   21.6759 C   0  0  0  0  0  0  0  0  0  0  0  0
    8.8358   -1.5215   22.6203 N   0  0  0  0  0  0  0  0  0  0  0  0
    7.6298   -2.1610   22.6316 C   0  0  0  0  0  0  0  0  0  0  0  0
    7.3539   -3.1864   23.6615 C   0  0  0  0  0  0  0  0  0  0  0  0
    8.3902   -3.4656   24.5742 C   0  0  0  0  0  0  0  0  0  0  0  0
    8.2337   -4.4011   25.5883 C   0  0  0  0  0  0  0  0  0  0  0  0
    7.0166   -5.0767   25.6917 C   0  0  0  0  0  0  0  0  0  0  0  0
    6.8259   -6.2612   26.9488 Cl  0  0  0  0  0  0  0  0  0  0  0  0
    5.9592   -4.8127   24.8131 C   0  0  0  0  0  0  0  0  0  0  0  0
    6.1213   -3.8611   23.7983 C   0  0  0  0  0  0  0  0  0  0  0  0
    5.2899   -3.6385   23.1298 H   0  0  0  0  0  0  0  0  0  0  0  0
    5.0227   -5.3485   24.9437 H   0  0  0  0  0  0  0  0  0  0  0  0
    9.0364   -4.5979   26.2943 H   0  0  0  0  0  0  0  0  0  0  0  0
    9.3257   -2.9213   24.4769 H   0  0  0  0  0  0  0  0  0  0  0  0
    6.7879   -1.7373   21.7124 N   0  0  0  0  0  0  0  0  0  0  0  0
    7.4954   -0.7644   21.0702 N   0  0  0  0  0  0  0  0  0  0  0  0
    6.8439   -0.0720   20.0002 C   0  0  0  0  0  0  0  0  0  0  0  0
    5.6217    0.5692   20.2446 C   0  0  0  0  0  0  0  0  0  0  0  0
    4.9859    1.2317   19.1909 C   0  0  0  0  0  0  0  0  0  0  0  0
    5.5897    1.2315   17.9271 C   0  0  0  0  0  0  0  0  0  0  0  0
    6.7419    0.5882   17.6772 N   0  0  0  0  0  0  0  0  0  0  0  0
    7.3392   -0.0617   18.6858 C   0  0  0  0  0  0  0  0  0  0  0  0
    8.2436   -0.6105   18.4283 H   0  0  0  0  0  0  0  0  0  0  0  0
    5.1300    1.7562   17.0880 H   0  0  0  0  0  0  0  0  0  0  0  0
    4.0400    1.7480   19.3350 H   0  0  0  0  0  0  0  0  0  0  0  0
    5.1932    0.5332   21.2467 H   0  0  0  0  0  0  0  0  0  0  0  0
   10.6035    0.2394   22.0707 H   0  0  0  0  0  0  0  0  0  0  0  0
   10.0232    0.4549   20.4081 H   0  0  0  0  0  0  0  0  0  0  0  0
    8.3366    2.5140   21.0529 C   0  0  0  0  0  0  0  0  0  0  0  0
    7.9036    3.5528   21.8565 N   0  0  0  0  0  0  0  0  0  0  0  0
    7.3318    4.3424   21.5996 H   0  0  0  0  0  0  0  0  0  0  0  0
    8.0255    2.3192   20.0420 H   0  0  0  0  0  0  0  0  0  0  0  0
    8.3826    5.2988   23.9721 H   0  0  0  0  0  0  0  0  0  0  0  0
    7.1312    4.1567   24.4990 H   0  0  0  0  0  0  0  0  0  0  0  0
    8.8016    3.9662   25.0828 H   0  0  0  0  0  0  0  0  0  0  0  0
  1  2  1  0
  2  3  2  0
  3  4  1  0
  4  5  1  0
  5  6  1  0
  6  7  2  0
  7  8  1  0
  8  9  1  0
  9 10  2  0
 10 11  1  0
 11 12  2  0
 12 13  1  0
 12 14  1  0
 14 15  2  0
 15 16  1  0
 14 17  1  0
 11 18  1  0
 10 19  1  0
  8 20  2  0
 20 21  1  0
 21 22  1  0
 22 23  2  0
 23 24  1  0
 24 25  2  0
 25 26  1  0
 26 27  2  0
 27 28  1  0
 25 29  1  0
 24 30  1  0
 23 31  1  0
  5 32  1  0
  5 33  1  0
  4 34  2  0
 34 35  1  0
 35 36  1  0
 34 37  1  0
  1 38  1  0
  1 39  1  0
  1 40  1  0
 35  2  1  0
 21  6  1  0
 27 22  1  0
 15  9  1  0
M  END
>  <cnnaffinity>  (1) 
-6.0073

>  <filename>  (1) 
Cc1nc(Cc2nc(-c3ccc(Cl)cc3)nn2-c2cccnc2)c[nH]1

$$$$
