
     RDKit          3D

 40 43  0  0  0  0  0  0  0  0999 V2000
   11.4475    2.0795   21.7933 C   0  0  0  0  0  0  0  0  0  0  0  0
    9.9660    2.1249   21.9661 C   0  0  0  0  0  0  0  0  0  0  0  0
    9.2886    1.4639   22.8650 N   0  0  0  0  0  0  0  0  0  0  0  0
    7.9636    1.7334   22.6260 C   0  0  0  0  0  0  0  0  0  0  0  0
    6.9122    0.9274   23.3249 C   0  0  0  0  0  0  0  0  0  0  0  0
    7.0000   -0.4721   22.7981 C   0  0  0  0  0  0  0  0  0  0  0  0
    7.5802   -1.4489   23.4621 N   0  0  0  0  0  0  0  0  0  0  0  0
    7.9046   -2.3396   22.4874 C   0  0  0  0  0  0  0  0  0  0  0  0
    8.8883   -3.4334   22.7163 C   0  0  0  0  0  0  0  0  0  0  0  0
    8.7658   -4.2853   24.0072 C   0  0  0  0  0  0  0  0  0  0  0  0
   10.2014   -3.8786   24.4120 C   0  0  0  0  0  0  0  0  0  0  0  0
   10.2979   -2.9359   23.1934 C   0  0  0  0  0  0  0  0  0  0  0  0
   10.2952   -1.8709   23.4569 H   0  0  0  0  0  0  0  0  0  0  0  0
   11.1316   -3.0970   22.5054 H   0  0  0  0  0  0  0  0  0  0  0  0
   10.2889   -3.3937   25.3881 H   0  0  0  0  0  0  0  0  0  0  0  0
   10.9175   -4.7033   24.3931 H   0  0  0  0  0  0  0  0  0  0  0  0
    7.9855   -3.9407   24.6920 H   0  0  0  0  0  0  0  0  0  0  0  0
    8.6184   -5.3549   23.8298 H   0  0  0  0  0  0  0  0  0  0  0  0
    8.9003   -4.0198   21.7966 H   0  0  0  0  0  0  0  0  0  0  0  0
    7.4975   -2.0133   21.2804 N   0  0  0  0  0  0  0  0  0  0  0  0
    6.8714   -0.8188   21.4800 N   0  0  0  0  0  0  0  0  0  0  0  0
    6.4115   -0.0764   20.3634 C   0  0  0  0  0  0  0  0  0  0  0  0
    5.2553    0.7125   20.4155 C   0  0  0  0  0  0  0  0  0  0  0  0
    4.8671    1.3762   19.2487 C   0  0  0  0  0  0  0  0  0  0  0  0
    5.6435    1.2460   18.0934 C   0  0  0  0  0  0  0  0  0  0  0  0
    6.7756    0.5211   18.0508 N   0  0  0  0  0  0  0  0  0  0  0  0
    7.1462   -0.1196   19.1620 C   0  0  0  0  0  0  0  0  0  0  0  0
    8.0755   -0.6888   19.1213 H   0  0  0  0  0  0  0  0  0  0  0  0
    5.3510    1.7334   17.1657 H   0  0  0  0  0  0  0  0  0  0  0  0
    3.9792    1.9989   19.2306 H   0  0  0  0  0  0  0  0  0  0  0  0
    4.6808    0.8083   21.3369 H   0  0  0  0  0  0  0  0  0  0  0  0
    7.1372    0.8639   24.3889 H   0  0  0  0  0  0  0  0  0  0  0  0
    5.9176    1.3516   23.1791 H   0  0  0  0  0  0  0  0  0  0  0  0
    7.8383    2.5798   21.5681 C   0  0  0  0  0  0  0  0  0  0  0  0
    9.1290    2.8002   21.1340 N   0  0  0  0  0  0  0  0  0  0  0  0
    9.4326    3.4334   20.4127 H   0  0  0  0  0  0  0  0  0  0  0  0
    6.9496    2.9590   21.0833 H   0  0  0  0  0  0  0  0  0  0  0  0
   11.8478    3.0644   21.5413 H   0  0  0  0  0  0  0  0  0  0  0  0
   11.8923    1.7380   22.7279 H   0  0  0  0  0  0  0  0  0  0  0  0
   11.7486    1.3756   21.0091 H   0  0  0  0  0  0  0  0  0  0  0  0
  1  2  1  0
  2  3  2  0
  3  4  1  0
  4  5  1  0
  5  6  1  0
  6  7  2  0
  7  8  1  0
  8  9  1  0
  9 10  1  0
 10 11  1  0
 11 12  1  0
 12 13  1  0
 12 14  1  0
 11 15  1  0
 11 16  1  0
 10 17  1  0
 10 18  1  0
  9 19  1  0
  8 20  2  0
 20 21  1  0
 21 22  1  0
 22 23  2  0
 23 24  1  0
 24 25  2  0
 25 26  1  0
 26 27  2  0
 27 28  1  0
 25 29  1  0
 24 30  1  0
 23 31  1  0
  5 32  1  0
  5 33  1  0
  4 34  2  0
 34 35  1  0
 35 36  1  0
 34 37  1  0
  1 38  1  0
  1 39  1  0
  1 40  1  0
 35  2  1  0
 21  6  1  0
 27 22  1  0
 12  9  1  0
M  END
>  <cnnaffinity>  (1) 
-6.01558

>  <filename>  (1) 
Cc1nc(Cc2nc(C3CCC3)nn2-c2cccnc2)c[nH]1

$$$$
