
     RDKit          3D

 47 50  0  0  0  0  0  0  0  0999 V2000
   10.1948    5.9377   24.5979 C   0  0  0  0  0  0  0  0  0  0  0  0
    9.2354    5.4592   23.5562 C   0  0  0  0  0  0  0  0  0  0  0  0
    8.3384    6.3328   23.0891 N   0  0  0  0  0  0  0  0  0  0  0  0
    7.4339    5.8466   22.2398 C   0  0  0  0  0  0  0  0  0  0  0  0
    7.4011    4.5162   21.8524 C   0  0  0  0  0  0  0  0  0  0  0  0
    8.4524    3.7144   22.3064 C   0  0  0  0  0  0  0  0  0  0  0  0
    8.5894    2.2695   21.8852 C   0  0  0  0  0  0  0  0  0  0  0  0
    7.6708    1.3002   22.6880 C   0  0  0  0  0  0  0  0  0  0  0  0
    7.7134   -0.1317   22.2317 C   0  0  0  0  0  0  0  0  0  0  0  0
    8.2004   -1.1727   22.8875 N   0  0  0  0  0  0  0  0  0  0  0  0
    8.1405   -2.1788   21.9710 C   0  0  0  0  0  0  0  0  0  0  0  0
    8.5222   -3.5994   22.2140 C   0  0  0  0  0  0  0  0  0  0  0  0
    7.4657   -4.4184   22.9641 C   0  0  0  0  0  0  0  0  0  0  0  0
    7.2057   -4.0161   24.4377 C   0  0  0  0  0  0  0  0  0  0  0  0
    7.6670   -5.4215   24.9022 C   0  0  0  0  0  0  0  0  0  0  0  0
    7.9260   -5.8231   23.4277 C   0  0  0  0  0  0  0  0  0  0  0  0
    8.9584   -6.0844   23.1711 H   0  0  0  0  0  0  0  0  0  0  0  0
    7.2959   -6.6385   23.0619 H   0  0  0  0  0  0  0  0  0  0  0  0
    6.8925   -6.0163   25.3963 H   0  0  0  0  0  0  0  0  0  0  0  0
    8.5448   -5.4200   25.5576 H   0  0  0  0  0  0  0  0  0  0  0  0
    7.8080   -3.1709   24.7941 H   0  0  0  0  0  0  0  0  0  0  0  0
    6.1613   -3.7629   24.6533 H   0  0  0  0  0  0  0  0  0  0  0  0
    6.5401   -4.4630   22.3728 H   0  0  0  0  0  0  0  0  0  0  0  0
    9.4737   -3.6134   22.7541 H   0  0  0  0  0  0  0  0  0  0  0  0
    8.6602   -4.0463   21.2271 H   0  0  0  0  0  0  0  0  0  0  0  0
    7.6668   -1.8238   20.7986 N   0  0  0  0  0  0  0  0  0  0  0  0
    7.3490   -0.5187   20.9732 N   0  0  0  0  0  0  0  0  0  0  0  0
    6.6437    0.1402   19.9339 C   0  0  0  0  0  0  0  0  0  0  0  0
    5.4253    0.7982   20.1400 C   0  0  0  0  0  0  0  0  0  0  0  0
    4.8162    1.3959   19.0306 C   0  0  0  0  0  0  0  0  0  0  0  0
    5.4480    1.3210   17.7849 C   0  0  0  0  0  0  0  0  0  0  0  0
    6.5965    0.6506   17.5782 N   0  0  0  0  0  0  0  0  0  0  0  0
    7.1598    0.0511   18.6291 C   0  0  0  0  0  0  0  0  0  0  0  0
    8.0573   -0.5377   18.4472 H   0  0  0  0  0  0  0  0  0  0  0  0
    5.0061    1.7879   16.9092 H   0  0  0  0  0  0  0  0  0  0  0  0
    3.8631    1.9071   19.1221 H   0  0  0  0  0  0  0  0  0  0  0  0
    4.9527    0.8070   21.1239 H   0  0  0  0  0  0  0  0  0  0  0  0
    6.6315    1.6467   22.6151 H   0  0  0  0  0  0  0  0  0  0  0  0
    7.9468    1.3241   23.7473 H   0  0  0  0  0  0  0  0  0  0  0  0
    8.3729    2.1709   20.8149 H   0  0  0  0  0  0  0  0  0  0  0  0
    9.6390    1.9865   22.0230 H   0  0  0  0  0  0  0  0  0  0  0  0
    9.3512    4.1841   23.1699 N   0  0  0  0  0  0  0  0  0  0  0  0
    6.6189    4.1382   21.2098 H   0  0  0  0  0  0  0  0  0  0  0  0
    6.6807    6.5455   21.8715 H   0  0  0  0  0  0  0  0  0  0  0  0
   10.4533    5.1030   25.2454 H   0  0  0  0  0  0  0  0  0  0  0  0
    9.7686    6.7392   25.2020 H   0  0  0  0  0  0  0  0  0  0  0  0
   11.1133    6.3052   24.1374 H   0  0  0  0  0  0  0  0  0  0  0  0
  1  2  1  0
  2  3  2  0
  3  4  1  0
  4  5  2  0
  5  6  1  0
  6  7  1  0
  7  8  1  0
  8  9  1  0
  9 10  2  0
 10 11  1  0
 11 12  1  0
 12 13  1  0
 13 14  1  0
 14 15  1  0
 15 16  1  0
 16 17  1  0
 16 18  1  0
 15 19  1  0
 15 20  1  0
 14 21  1  0
 14 22  1  0
 13 23  1  0
 12 24  1  0
 12 25  1  0
 11 26  2  0
 26 27  1  0
 27 28  1  0
 28 29  2  0
 29 30  1  0
 30 31  2  0
 31 32  1  0
 32 33  2  0
 33 34  1  0
 31 35  1  0
 30 36  1  0
 29 37  1  0
  8 38  1  0
  8 39  1  0
  7 40  1  0
  7 41  1  0
  6 42  2  0
  5 43  1  0
  4 44  1  0
  1 45  1  0
  1 46  1  0
  1 47  1  0
 42  2  1  0
 27  9  1  0
 33 28  1  0
 16 13  1  0
M  END
>  <cnnaffinity>  (1) 
-6.04974

>  <filename>  (1) 
Cc1nccc(CCc2nc(CC3CCC3)nn2-c2cccnc2)n1

$$$$
