
     RDKit          3D

 45 48  0  0  0  0  0  0  0  0999 V2000
    9.3913    7.0211   23.9918 C   0  0  0  0  0  0  0  0  0  0  0  0
    8.7146    5.7310   23.6625 C   0  0  0  0  0  0  0  0  0  0  0  0
    9.3464    4.6221   23.4380 N   0  0  0  0  0  0  0  0  0  0  0  0
    8.4628    3.5865   23.2159 C   0  0  0  0  0  0  0  0  0  0  0  0
    8.9562    2.2228   22.8515 C   0  0  0  0  0  0  0  0  0  0  0  0
    9.0344    2.0207   21.3289 C   0  0  0  0  0  0  0  0  0  0  0  0
    9.5246    0.6177   20.9436 C   0  0  0  0  0  0  0  0  0  0  0  0
    8.6211   -0.4671   21.4277 C   0  0  0  0  0  0  0  0  0  0  0  0
    8.8408   -1.2791   22.4371 N   0  0  0  0  0  0  0  0  0  0  0  0
    7.6619   -1.9500   22.5604 C   0  0  0  0  0  0  0  0  0  0  0  0
    7.4464   -2.9408   23.6512 C   0  0  0  0  0  0  0  0  0  0  0  0
    8.6106   -3.9461   23.9002 C   0  0  0  0  0  0  0  0  0  0  0  0
    8.8054   -3.3675   25.3193 C   0  0  0  0  0  0  0  0  0  0  0  0
    7.6345   -2.3856   25.0988 C   0  0  0  0  0  0  0  0  0  0  0  0
    7.9089   -1.3253   25.1331 H   0  0  0  0  0  0  0  0  0  0  0  0
    6.7745   -2.5350   25.7564 H   0  0  0  0  0  0  0  0  0  0  0  0
    8.6586   -4.0816   26.1349 H   0  0  0  0  0  0  0  0  0  0  0  0
    9.7729   -2.8814   25.4729 H   0  0  0  0  0  0  0  0  0  0  0  0
    8.3097   -4.9962   23.8725 H   0  0  0  0  0  0  0  0  0  0  0  0
    9.4651   -3.8155   23.2281 H   0  0  0  0  0  0  0  0  0  0  0  0
    6.4767   -3.4127   23.4836 H   0  0  0  0  0  0  0  0  0  0  0  0
    6.7380   -1.6103   21.6886 N   0  0  0  0  0  0  0  0  0  0  0  0
    7.3602   -0.6619   20.9370 N   0  0  0  0  0  0  0  0  0  0  0  0
    6.6610    0.0136   19.9011 C   0  0  0  0  0  0  0  0  0  0  0  0
    5.4403    0.6473   20.1651 C   0  0  0  0  0  0  0  0  0  0  0  0
    4.8114    1.3116   19.1083 C   0  0  0  0  0  0  0  0  0  0  0  0
    5.4007    1.2962   17.8372 C   0  0  0  0  0  0  0  0  0  0  0  0
    6.5611    0.6753   17.5760 N   0  0  0  0  0  0  0  0  0  0  0  0
    7.1715    0.0573   18.5929 C   0  0  0  0  0  0  0  0  0  0  0  0
    8.1154   -0.4349   18.3707 H   0  0  0  0  0  0  0  0  0  0  0  0
    4.9178    1.7842   16.9936 H   0  0  0  0  0  0  0  0  0  0  0  0
    3.8781    1.8406   19.2606 H   0  0  0  0  0  0  0  0  0  0  0  0
    5.0160    0.6084   21.1710 H   0  0  0  0  0  0  0  0  0  0  0  0
    9.6135    0.5565   19.8566 H   0  0  0  0  0  0  0  0  0  0  0  0
   10.5189    0.4353   21.3621 H   0  0  0  0  0  0  0  0  0  0  0  0
    9.7165    2.7669   20.9131 H   0  0  0  0  0  0  0  0  0  0  0  0
    8.0527    2.2031   20.8709 H   0  0  0  0  0  0  0  0  0  0  0  0
    8.2927    1.4616   23.2853 H   0  0  0  0  0  0  0  0  0  0  0  0
    9.9416    2.0652   23.3009 H   0  0  0  0  0  0  0  0  0  0  0  0
    7.1530    3.9273   23.2642 C   0  0  0  0  0  0  0  0  0  0  0  0
    6.9819    5.6019   23.6113 S   0  0  0  0  0  0  0  0  0  0  0  0
    6.3077    3.2803   23.0909 H   0  0  0  0  0  0  0  0  0  0  0  0
    8.8238    7.8792   23.6307 H   0  0  0  0  0  0  0  0  0  0  0  0
    9.4900    7.1221   25.0773 H   0  0  0  0  0  0  0  0  0  0  0  0
   10.3940    7.0317   23.5638 H   0  0  0  0  0  0  0  0  0  0  0  0
  1  2  1  0
  2  3  2  0
  3  4  1  0
  4  5  1  0
  5  6  1  0
  6  7  1  0
  7  8  1  0
  8  9  2  0
  9 10  1  0
 10 11  1  0
 11 12  1  0
 12 13  1  0
 13 14  1  0
 14 15  1  0
 14 16  1  0
 13 17  1  0
 13 18  1  0
 12 19  1  0
 12 20  1  0
 11 21  1  0
 10 22  2  0
 22 23  1  0
 23 24  1  0
 24 25  2  0
 25 26  1  0
 26 27  2  0
 27 28  1  0
 28 29  2  0
 29 30  1  0
 27 31  1  0
 26 32  1  0
 25 33  1  0
  7 34  1  0
  7 35  1  0
  6 36  1  0
  6 37  1  0
  5 38  1  0
  5 39  1  0
  4 40  2  0
 40 41  1  0
 40 42  1  0
  1 43  1  0
  1 44  1  0
  1 45  1  0
 41  2  1  0
 23  8  1  0
 29 24  1  0
 14 11  1  0
M  END
>  <cnnaffinity>  (1) 
-6.254

>  <filename>  (1) 
Cc1nc(CCCc2nc(C3CCC3)nn2-c2cccnc2)cs1

$$$$
