
     RDKit          3D

 54 57  0  0  0  0  0  0  0  0999 V2000
    5.1322    6.8173   25.6846 C   0  0  0  0  0  0  0  0  0  0  0  0
    5.4373    5.4235   25.2409 C   0  0  0  0  0  0  0  0  0  0  0  0
    6.4426    4.7815   25.6966 N   0  0  0  0  0  0  0  0  0  0  0  0
    6.6846    3.4795   25.2269 C   0  0  0  0  0  0  0  0  0  0  0  0
    7.6595    2.8728   25.6274 O   0  0  0  0  0  0  0  0  0  0  0  0
    5.7235    2.8726   24.2602 C   0  0  0  0  0  0  0  0  0  0  0  0
    5.9812    1.4898   23.7371 C   0  0  0  0  0  0  0  0  0  0  0  0
    7.0215    1.5001   22.5970 C   0  0  0  0  0  0  0  0  0  0  0  0
    7.2754    0.1257   22.0876 C   0  0  0  0  0  0  0  0  0  0  0  0
    7.8404   -0.7926   22.8491 N   0  0  0  0  0  0  0  0  0  0  0  0
    8.0293   -1.8297   22.0019 C   0  0  0  0  0  0  0  0  0  0  0  0
    8.6693   -3.1118   22.4453 C   0  0  0  0  0  0  0  0  0  0  0  0
   10.0763   -2.8873   23.0950 C   0  0  0  0  0  0  0  0  0  0  0  0
   10.2140   -3.2631   24.5966 C   0  0  0  0  0  0  0  0  0  0  0  0
    9.3689   -4.4668   25.1215 C   0  0  0  0  0  0  0  0  0  0  0  0
   10.2435   -5.5222   25.8076 C   0  0  0  0  0  0  0  0  0  0  0  0
    9.6567   -6.3703   26.1834 H   0  0  0  0  0  0  0  0  0  0  0  0
   10.7820   -5.0829   26.6554 H   0  0  0  0  0  0  0  0  0  0  0  0
   10.9896   -5.9029   25.1031 H   0  0  0  0  0  0  0  0  0  0  0  0
    8.4549   -5.0596   24.0382 C   0  0  0  0  0  0  0  0  0  0  0  0
    7.6976   -3.9332   23.3342 C   0  0  0  0  0  0  0  0  0  0  0  0
    7.2357   -3.2674   24.0821 H   0  0  0  0  0  0  0  0  0  0  0  0
    6.8773   -4.3283   22.7225 H   0  0  0  0  0  0  0  0  0  0  0  0
    7.7550   -5.7737   24.4878 H   0  0  0  0  0  0  0  0  0  0  0  0
    9.0448   -5.6303   23.3064 H   0  0  0  0  0  0  0  0  0  0  0  0
    8.6824   -4.0677   25.8861 H   0  0  0  0  0  0  0  0  0  0  0  0
   11.2779   -3.4523   24.7904 H   0  0  0  0  0  0  0  0  0  0  0  0
    9.9501   -2.3905   25.2029 H   0  0  0  0  0  0  0  0  0  0  0  0
   10.8142   -3.4644   22.5371 H   0  0  0  0  0  0  0  0  0  0  0  0
   10.4026   -1.8493   22.9525 H   0  0  0  0  0  0  0  0  0  0  0  0
    8.8152   -3.6702   21.5160 H   0  0  0  0  0  0  0  0  0  0  0  0
    7.6041   -1.6271   20.7709 N   0  0  0  0  0  0  0  0  0  0  0  0
    7.0842   -0.3690   20.8251 N   0  0  0  0  0  0  0  0  0  0  0  0
    6.4585    0.2058   19.6833 C   0  0  0  0  0  0  0  0  0  0  0  0
    5.3525    1.0584   19.7977 C   0  0  0  0  0  0  0  0  0  0  0  0
    4.8661    1.6695   18.6384 C   0  0  0  0  0  0  0  0  0  0  0  0
    5.4813    1.3849   17.4161 C   0  0  0  0  0  0  0  0  0  0  0  0
    6.5034    0.5194   17.2868 N   0  0  0  0  0  0  0  0  0  0  0  0
    6.9603   -0.0708   18.3950 C   0  0  0  0  0  0  0  0  0  0  0  0
    7.7666   -0.7901   18.2754 H   0  0  0  0  0  0  0  0  0  0  0  0
    5.1455    1.8697   16.5054 H   0  0  0  0  0  0  0  0  0  0  0  0
    4.0364    2.3692   18.6762 H   0  0  0  0  0  0  0  0  0  0  0  0
    4.8804    1.2319   20.7645 H   0  0  0  0  0  0  0  0  0  0  0  0
    6.7269    2.1859   21.7955 H   0  0  0  0  0  0  0  0  0  0  0  0
    7.9708    1.8784   23.0005 H   0  0  0  0  0  0  0  0  0  0  0  0
    6.3590    0.8533   24.5462 H   0  0  0  0  0  0  0  0  0  0  0  0
    5.0438    1.0240   23.3893 H   0  0  0  0  0  0  0  0  0  0  0  0
    4.7041    3.6349   23.8273 C   0  0  0  0  0  0  0  0  0  0  0  0
    4.5602    4.9158   24.3209 N   0  0  0  0  0  0  0  0  0  0  0  0
    3.8380    5.5226   23.9747 H   0  0  0  0  0  0  0  0  0  0  0  0
    3.9786    3.2875   23.0903 H   0  0  0  0  0  0  0  0  0  0  0  0
    4.0961    6.8941   26.0254 H   0  0  0  0  0  0  0  0  0  0  0  0
    5.8062    7.0789   26.4986 H   0  0  0  0  0  0  0  0  0  0  0  0
    5.2800    7.5130   24.8545 H   0  0  0  0  0  0  0  0  0  0  0  0
  1  2  1  0
  2  3  2  0
  3  4  1  0
  4  5  2  0
  4  6  1  0
  6  7  1  0
  7  8  1  0
  8  9  1  0
  9 10  2  0
 10 11  1  0
 11 12  1  0
 12 13  1  0
 13 14  1  0
 14 15  1  0
 15 16  1  0
 16 17  1  0
 16 18  1  0
 16 19  1  0
 15 20  1  0
 20 21  1  0
 21 22  1  0
 21 23  1  0
 20 24  1  0
 20 25  1  0
 15 26  1  0
 14 27  1  0
 14 28  1  0
 13 29  1  0
 13 30  1  0
 12 31  1  0
 11 32  2  0
 32 33  1  0
 33 34  1  0
 34 35  2  0
 35 36  1  0
 36 37  2  0
 37 38  1  0
 38 39  2  0
 39 40  1  0
 37 41  1  0
 36 42  1  0
 35 43  1  0
  8 44  1  0
  8 45  1  0
  7 46  1  0
  7 47  1  0
  6 48  2  0
 48 49  1  0
 49 50  1  0
 48 51  1  0
  1 52  1  0
  1 53  1  0
  1 54  1  0
 49  2  1  0
 33  9  1  0
 39 34  1  0
 21 12  1  0
M  END
>  <cnnaffinity>  (1) 
-6.34048

>  <filename>  (1) 
Cc1nc(=O)c(CCc2nc(C3CCC(C)CC3)nn2-c2cccnc2)c[nH]1

$$$$
