
     RDKit          3D

 45 48  0  0  0  0  0  0  0  0999 V2000
    5.1192   -0.8678   26.4908 C   0  0  0  0  0  0  0  0  0  0  0  0
    5.9977    0.2271   25.9850 C   0  0  0  0  0  0  0  0  0  0  0  0
    6.0284    0.6848   24.7564 N   0  0  0  0  0  0  0  0  0  0  0  0
    7.0114    1.6412   24.7180 C   0  0  0  0  0  0  0  0  0  0  0  0
    7.4170    2.2086   23.3914 C   0  0  0  0  0  0  0  0  0  0  0  0
    8.2577    1.1722   22.7312 C   0  0  0  0  0  0  0  0  0  0  0  0
    9.5649    1.1145   22.8425 N   0  0  0  0  0  0  0  0  0  0  0  0
    9.8649   -0.1083   22.3274 C   0  0  0  0  0  0  0  0  0  0  0  0
   11.2258   -0.5991   22.0860 C   0  0  0  0  0  0  0  0  0  0  0  0
   11.3865   -1.7046   21.2336 C   0  0  0  0  0  0  0  0  0  0  0  0
   12.6403   -1.9863   20.7151 C   0  0  0  0  0  0  0  0  0  0  0  0
   13.7481   -1.2440   21.0788 C   0  0  0  0  0  0  0  0  0  0  0  0
   14.8910   -1.4213   20.2578 N   0  0  0  0  0  0  0  0  0  0  0  0
   15.6326   -1.7835   20.8350 H   0  0  0  0  0  0  0  0  0  0  0  0
   15.2067   -0.5207   19.9127 H   0  0  0  0  0  0  0  0  0  0  0  0
   13.6337   -0.2754   22.0862 C   0  0  0  0  0  0  0  0  0  0  0  0
   12.3702    0.0693   22.5683 C   0  0  0  0  0  0  0  0  0  0  0  0
   12.2565    0.9140   23.2459 H   0  0  0  0  0  0  0  0  0  0  0  0
   14.5218    0.2534   22.4213 H   0  0  0  0  0  0  0  0  0  0  0  0
   12.8080   -2.6827   19.9020 H   0  0  0  0  0  0  0  0  0  0  0  0
   10.5106   -2.2724   20.9176 H   0  0  0  0  0  0  0  0  0  0  0  0
    8.8035   -0.7941   21.9220 N   0  0  0  0  0  0  0  0  0  0  0  0
    7.7737    0.0415   22.1672 N   0  0  0  0  0  0  0  0  0  0  0  0
    6.4443   -0.2657   21.6388 C   0  0  0  0  0  0  0  0  0  0  0  0
    6.1736    0.3109   20.2562 C   0  0  0  0  0  0  0  0  0  0  0  0
    5.0251    1.0617   19.9812 C   0  0  0  0  0  0  0  0  0  0  0  0
    4.8548    1.5967   18.7012 C   0  0  0  0  0  0  0  0  0  0  0  0
    5.8261    1.3400   17.7323 C   0  0  0  0  0  0  0  0  0  0  0  0
    6.9183    0.5977   17.9615 N   0  0  0  0  0  0  0  0  0  0  0  0
    7.0788    0.1061   19.1969 C   0  0  0  0  0  0  0  0  0  0  0  0
    7.9737   -0.4963   19.3550 H   0  0  0  0  0  0  0  0  0  0  0  0
    5.7246    1.7451   16.7257 H   0  0  0  0  0  0  0  0  0  0  0  0
    3.9957    2.2098   18.4503 H   0  0  0  0  0  0  0  0  0  0  0  0
    4.2705    1.2307   20.7539 H   0  0  0  0  0  0  0  0  0  0  0  0
    5.7318    0.1119   22.3769 H   0  0  0  0  0  0  0  0  0  0  0  0
    6.3672   -1.3568   21.6499 H   0  0  0  0  0  0  0  0  0  0  0  0
    6.5286    2.4226   22.7895 H   0  0  0  0  0  0  0  0  0  0  0  0
    8.0263    3.1091   23.4974 H   0  0  0  0  0  0  0  0  0  0  0  0
    7.5951    1.7632   25.9411 C   0  0  0  0  0  0  0  0  0  0  0  0
    6.9302    0.8569   26.7522 N   0  0  0  0  0  0  0  0  0  0  0  0
    7.1064    0.6473   27.7193 H   0  0  0  0  0  0  0  0  0  0  0  0
    8.3976    2.4011   26.2840 H   0  0  0  0  0  0  0  0  0  0  0  0
    4.6542   -0.5996   27.4435 H   0  0  0  0  0  0  0  0  0  0  0  0
    5.6869   -1.7936   26.6386 H   0  0  0  0  0  0  0  0  0  0  0  0
    4.3355   -1.0620   25.7562 H   0  0  0  0  0  0  0  0  0  0  0  0
  1  2  1  0
  2  3  2  0
  3  4  1  0
  4  5  1  0
  5  6  1  0
  6  7  2  0
  7  8  1  0
  8  9  1  0
  9 10  2  0
 10 11  1  0
 11 12  2  0
 12 13  1  0
 13 14  1  0
 13 15  1  0
 12 16  1  0
 16 17  2  0
 17 18  1  0
 16 19  1  0
 11 20  1  0
 10 21  1  0
  8 22  2  0
 22 23  1  0
 23 24  1  0
 24 25  1  0
 25 26  2  0
 26 27  1  0
 27 28  2  0
 28 29  1  0
 29 30  2  0
 30 31  1  0
 28 32  1  0
 27 33  1  0
 26 34  1  0
 24 35  1  0
 24 36  1  0
  5 37  1  0
  5 38  1  0
  4 39  2  0
 39 40  1  0
 40 41  1  0
 39 42  1  0
  1 43  1  0
  1 44  1  0
  1 45  1  0
 40  2  1  0
 23  6  1  0
 30 25  1  0
 17  9  1  0
M  END
>  <cnnaffinity>  (1) 
-6.53713

>  <filename>  (1) 
Cc1nc(Cc2nc(-c3ccc(N)cc3)nn2Cc2cccnc2)c[nH]1

$$$$
