
     RDKit          3D

 43 46  0  0  0  0  0  0  0  0999 V2000
   11.1728   -1.5940   21.7489 C   0  0  0  0  0  0  0  0  0  0  0  0
   11.7948   -0.2410   21.8732 C   0  0  0  0  0  0  0  0  0  0  0  0
   12.9999   -0.0927   22.4145 N   0  0  0  0  0  0  0  0  0  0  0  0
   13.2128    1.2326   22.4357 N   0  0  0  0  0  0  0  0  0  0  0  0
   12.1828    1.9325   21.9120 C   0  0  0  0  0  0  0  0  0  0  0  0
   11.2349    1.0216   21.5240 C   0  0  0  0  0  0  0  0  0  0  0  0
    9.8471    1.3725   21.0329 C   0  0  0  0  0  0  0  0  0  0  0  0
    8.8011    1.1573   22.0755 C   0  0  0  0  0  0  0  0  0  0  0  0
    8.7591    1.8588   23.1851 N   0  0  0  0  0  0  0  0  0  0  0  0
    7.7043    1.3296   23.8563 C   0  0  0  0  0  0  0  0  0  0  0  0
    7.2482    1.8934   25.1430 C   0  0  0  0  0  0  0  0  0  0  0  0
    7.9337    3.0011   25.6840 C   0  0  0  0  0  0  0  0  0  0  0  0
    7.4699    3.5785   26.8640 C   0  0  0  0  0  0  0  0  0  0  0  0
    8.2101    5.0385   27.4531 Cl  0  0  0  0  0  0  0  0  0  0  0  0
    6.4121    3.0079   27.5791 C   0  0  0  0  0  0  0  0  0  0  0  0
    5.7421    1.9024   27.0417 C   0  0  0  0  0  0  0  0  0  0  0  0
    6.1272    1.3643   25.8131 C   0  0  0  0  0  0  0  0  0  0  0  0
    5.5781    0.5336   25.3709 H   0  0  0  0  0  0  0  0  0  0  0  0
    4.9177    1.4504   27.5887 H   0  0  0  0  0  0  0  0  0  0  0  0
    6.1312    3.4227   28.5423 H   0  0  0  0  0  0  0  0  0  0  0  0
    8.8224    3.3868   25.1873 H   0  0  0  0  0  0  0  0  0  0  0  0
    7.1068    0.3359   23.2193 N   0  0  0  0  0  0  0  0  0  0  0  0
    7.8152    0.2278   22.0725 N   0  0  0  0  0  0  0  0  0  0  0  0
    7.3750   -0.6920   21.0241 C   0  0  0  0  0  0  0  0  0  0  0  0
    6.6539   -0.0052   19.8757 C   0  0  0  0  0  0  0  0  0  0  0  0
    5.4422    0.6540   20.1246 C   0  0  0  0  0  0  0  0  0  0  0  0
    4.8092    1.3115   19.0681 C   0  0  0  0  0  0  0  0  0  0  0  0
    5.4117    1.2966   17.8075 C   0  0  0  0  0  0  0  0  0  0  0  0
    6.5580    0.6551   17.5422 N   0  0  0  0  0  0  0  0  0  0  0  0
    7.1545    0.0233   18.5633 C   0  0  0  0  0  0  0  0  0  0  0  0
    8.0883   -0.4846   18.3128 H   0  0  0  0  0  0  0  0  0  0  0  0
    4.9490    1.8221   16.9747 H   0  0  0  0  0  0  0  0  0  0  0  0
    3.8763    1.8427   19.2101 H   0  0  0  0  0  0  0  0  0  0  0  0
    5.0170    0.6715   21.1311 H   0  0  0  0  0  0  0  0  0  0  0  0
    6.7056   -1.4031   21.5195 H   0  0  0  0  0  0  0  0  0  0  0  0
    8.2388   -1.2699   20.6783 H   0  0  0  0  0  0  0  0  0  0  0  0
    9.8099    2.4409   20.7836 H   0  0  0  0  0  0  0  0  0  0  0  0
    9.5799    0.8201   20.1305 H   0  0  0  0  0  0  0  0  0  0  0  0
   12.1816    3.0158   21.8574 H   0  0  0  0  0  0  0  0  0  0  0  0
   14.1015    1.5760   22.7677 H   0  0  0  0  0  0  0  0  0  0  0  0
   10.4937   -1.7746   22.5919 H   0  0  0  0  0  0  0  0  0  0  0  0
   11.9449   -2.3656   21.7462 H   0  0  0  0  0  0  0  0  0  0  0  0
   10.5804   -1.6734   20.8313 H   0  0  0  0  0  0  0  0  0  0  0  0
  1  2  1  0
  2  3  2  0
  3  4  1  0
  4  5  1  0
  5  6  2  0
  6  7  1  0
  7  8  1  0
  8  9  2  0
  9 10  1  0
 10 11  1  0
 11 12  2  0
 12 13  1  0
 13 14  1  0
 13 15  2  0
 15 16  1  0
 16 17  2  0
 17 18  1  0
 16 19  1  0
 15 20  1  0
 12 21  1  0
 10 22  2  0
 22 23  1  0
 23 24  1  0
 24 25  1  0
 25 26  2  0
 26 27  1  0
 27 28  2  0
 28 29  1  0
 29 30  2  0
 30 31  1  0
 28 32  1  0
 27 33  1  0
 26 34  1  0
 24 35  1  0
 24 36  1  0
  7 37  1  0
  7 38  1  0
  5 39  1  0
  4 40  1  0
  1 41  1  0
  1 42  1  0
  1 43  1  0
  6  2  1  0
 23  8  1  0
 30 25  1  0
 17 11  1  0
M  END
>  <cnnaffinity>  (1) 
-6.29546

>  <filename>  (1) 
Cc1n[nH]cc1Cc1nc(-c2cccc(Cl)c2)nn1Cc1cccnc1

$$$$
