
     RDKit          3D

 46 49  0  0  0  0  0  0  0  0999 V2000
   10.7808    4.6772   23.3348 C   0  0  0  0  0  0  0  0  0  0  0  0
    9.2877    4.6993   23.3244 C   0  0  0  0  0  0  0  0  0  0  0  0
    8.5550    5.7720   23.5016 N   0  0  0  0  0  0  0  0  0  0  0  0
    7.2518    5.3479   23.4105 C   0  0  0  0  0  0  0  0  0  0  0  0
    7.1987    4.0049   23.1868 C   0  0  0  0  0  0  0  0  0  0  0  0
    8.5147    3.5826   23.1504 N   0  0  0  0  0  0  0  0  0  0  0  0
    8.9537    2.2435   22.8101 C   0  0  0  0  0  0  0  0  0  0  0  0
    9.0474    2.0194   21.3002 C   0  0  0  0  0  0  0  0  0  0  0  0
    9.5330    0.6060   20.9359 C   0  0  0  0  0  0  0  0  0  0  0  0
    8.6330   -0.4776   21.4253 C   0  0  0  0  0  0  0  0  0  0  0  0
    8.8591   -1.2932   22.4292 N   0  0  0  0  0  0  0  0  0  0  0  0
    7.6805   -1.9619   22.5671 C   0  0  0  0  0  0  0  0  0  0  0  0
    7.4667   -2.9827   23.6229 C   0  0  0  0  0  0  0  0  0  0  0  0
    8.4907   -3.2945   24.5436 C   0  0  0  0  0  0  0  0  0  0  0  0
    8.2754   -4.2575   25.5320 C   0  0  0  0  0  0  0  0  0  0  0  0
    7.0454   -4.9201   25.6184 C   0  0  0  0  0  0  0  0  0  0  0  0
    6.0263   -4.6143   24.7098 C   0  0  0  0  0  0  0  0  0  0  0  0
    6.2291   -3.6534   23.7187 C   0  0  0  0  0  0  0  0  0  0  0  0
    5.4345   -3.4085   23.0145 H   0  0  0  0  0  0  0  0  0  0  0  0
    5.0680   -5.1226   24.7736 H   0  0  0  0  0  0  0  0  0  0  0  0
    6.8810   -5.6696   26.3905 H   0  0  0  0  0  0  0  0  0  0  0  0
    9.0684   -4.4935   26.2380 H   0  0  0  0  0  0  0  0  0  0  0  0
    9.4522   -2.7838   24.4868 H   0  0  0  0  0  0  0  0  0  0  0  0
    6.7519   -1.6064   21.6938 N   0  0  0  0  0  0  0  0  0  0  0  0
    7.3691   -0.6652   20.9432 N   0  0  0  0  0  0  0  0  0  0  0  0
    6.6627    0.0103   19.9047 C   0  0  0  0  0  0  0  0  0  0  0  0
    5.4419    0.6434   20.1685 C   0  0  0  0  0  0  0  0  0  0  0  0
    4.8133    1.3091   19.1101 C   0  0  0  0  0  0  0  0  0  0  0  0
    5.4016    1.2958   17.8381 C   0  0  0  0  0  0  0  0  0  0  0  0
    6.5617    0.6743   17.5762 N   0  0  0  0  0  0  0  0  0  0  0  0
    7.1704    0.0562   18.5947 C   0  0  0  0  0  0  0  0  0  0  0  0
    8.1134   -0.4356   18.3706 H   0  0  0  0  0  0  0  0  0  0  0  0
    4.9184    1.7848   16.9943 H   0  0  0  0  0  0  0  0  0  0  0  0
    3.8798    1.8393   19.2613 H   0  0  0  0  0  0  0  0  0  0  0  0
    5.0155    0.6095   21.1742 H   0  0  0  0  0  0  0  0  0  0  0  0
    9.6241    0.5257   19.8499 H   0  0  0  0  0  0  0  0  0  0  0  0
   10.5245    0.4178   21.3586 H   0  0  0  0  0  0  0  0  0  0  0  0
    8.0685    2.2067   20.8408 H   0  0  0  0  0  0  0  0  0  0  0  0
    9.7423    2.7527   20.8805 H   0  0  0  0  0  0  0  0  0  0  0  0
    9.9171    2.0467   23.2910 H   0  0  0  0  0  0  0  0  0  0  0  0
    8.2539    1.5351   23.2615 H   0  0  0  0  0  0  0  0  0  0  0  0
    6.3673    3.3317   23.0299 H   0  0  0  0  0  0  0  0  0  0  0  0
    6.4231    6.0356   23.5163 H   0  0  0  0  0  0  0  0  0  0  0  0
   11.1826    4.2410   22.4127 H   0  0  0  0  0  0  0  0  0  0  0  0
   11.1499    5.7002   23.4260 H   0  0  0  0  0  0  0  0  0  0  0  0
   11.1633    4.0907   24.1778 H   0  0  0  0  0  0  0  0  0  0  0  0
  1  2  1  0
  2  3  2  0
  3  4  1  0
  4  5  2  0
  5  6  1  0
  6  7  1  0
  7  8  1  0
  8  9  1  0
  9 10  1  0
 10 11  2  0
 11 12  1  0
 12 13  1  0
 13 14  2  0
 14 15  1  0
 15 16  2  0
 16 17  1  0
 17 18  2  0
 18 19  1  0
 17 20  1  0
 16 21  1  0
 15 22  1  0
 14 23  1  0
 12 24  2  0
 24 25  1  0
 25 26  1  0
 26 27  2  0
 27 28  1  0
 28 29  2  0
 29 30  1  0
 30 31  2  0
 31 32  1  0
 29 33  1  0
 28 34  1  0
 27 35  1  0
  9 36  1  0
  9 37  1  0
  8 38  1  0
  8 39  1  0
  7 40  1  0
  7 41  1  0
  5 42  1  0
  4 43  1  0
  1 44  1  0
  1 45  1  0
  1 46  1  0
  6  2  1  0
 25 10  1  0
 31 26  1  0
 18 13  1  0
M  END
>  <cnnaffinity>  (1) 
-5.877

>  <filename>  (1) 
Cc1nccn1CCCc1nc(-c2ccccc2)nn1-c1cccnc1

$$$$
