
     RDKit          3D

 42 45  0  0  0  0  0  0  0  0999 V2000
    8.3844   -0.3047   27.0974 C   0  0  0  0  0  0  0  0  0  0  0  0
    7.5394    0.1495   25.9677 C   0  0  0  0  0  0  0  0  0  0  0  0
    6.3051   -0.1149   25.6923 N   0  0  0  0  0  0  0  0  0  0  0  0
    6.0796    0.5437   24.4872 C   0  0  0  0  0  0  0  0  0  0  0  0
    7.2108    1.1676   24.0873 C   0  0  0  0  0  0  0  0  0  0  0  0
    7.7542    1.8132   22.8519 C   0  0  0  0  0  0  0  0  0  0  0  0
    8.7897    0.9067   22.2509 C   0  0  0  0  0  0  0  0  0  0  0  0
   10.0857    0.9810   22.4600 N   0  0  0  0  0  0  0  0  0  0  0  0
   10.5601   -0.1827   21.9393 C   0  0  0  0  0  0  0  0  0  0  0  0
   12.0034   -0.5351   21.8158 C   0  0  0  0  0  0  0  0  0  0  0  0
   12.3431   -1.6578   21.0419 C   0  0  0  0  0  0  0  0  0  0  0  0
   13.6194   -1.8357   20.5016 C   0  0  0  0  0  0  0  0  0  0  0  0
   14.5629   -0.8493   20.7665 C   0  0  0  0  0  0  0  0  0  0  0  0
   15.9396   -0.4906   19.6674 Cl  0  0  0  0  0  0  0  0  0  0  0  0
   14.3398    0.0939   21.7921 C   0  0  0  0  0  0  0  0  0  0  0  0
   13.0528    0.2800   22.2961 C   0  0  0  0  0  0  0  0  0  0  0  0
   12.8643    1.0891   22.9989 H   0  0  0  0  0  0  0  0  0  0  0  0
   15.1499    0.7555   22.0856 H   0  0  0  0  0  0  0  0  0  0  0  0
   13.8477   -2.6969   19.8865 H   0  0  0  0  0  0  0  0  0  0  0  0
   11.5348   -2.3419   20.8325 H   0  0  0  0  0  0  0  0  0  0  0  0
    9.6096   -0.9474   21.4114 N   0  0  0  0  0  0  0  0  0  0  0  0
    8.4770   -0.2353   21.6036 N   0  0  0  0  0  0  0  0  0  0  0  0
    7.1929   -0.7330   21.1037 C   0  0  0  0  0  0  0  0  0  0  0  0
    6.5512    0.0652   19.9756 C   0  0  0  0  0  0  0  0  0  0  0  0
    5.3180    0.7173   20.1047 C   0  0  0  0  0  0  0  0  0  0  0  0
    4.7643    1.3687   18.9975 C   0  0  0  0  0  0  0  0  0  0  0  0
    5.4652    1.3457   17.7890 C   0  0  0  0  0  0  0  0  0  0  0  0
    6.6447    0.7230   17.6388 N   0  0  0  0  0  0  0  0  0  0  0  0
    7.1655    0.1116   18.7107 C   0  0  0  0  0  0  0  0  0  0  0  0
    8.1232   -0.3819   18.5504 H   0  0  0  0  0  0  0  0  0  0  0  0
    5.0653    1.8482   16.9074 H   0  0  0  0  0  0  0  0  0  0  0  0
    3.8217    1.9018   19.0592 H   0  0  0  0  0  0  0  0  0  0  0  0
    4.7854    0.7165   21.0585 H   0  0  0  0  0  0  0  0  0  0  0  0
    7.4051   -1.7506   20.7632 H   0  0  0  0  0  0  0  0  0  0  0  0
    6.4993   -0.8069   21.9489 H   0  0  0  0  0  0  0  0  0  0  0  0
    8.2509    2.7533   23.1026 H   0  0  0  0  0  0  0  0  0  0  0  0
    6.9481    2.0115   22.1426 H   0  0  0  0  0  0  0  0  0  0  0  0
    8.1439    0.9428   25.0564 O   0  0  0  0  0  0  0  0  0  0  0  0
    5.1191    0.5001   23.9911 H   0  0  0  0  0  0  0  0  0  0  0  0
    7.9866   -1.2332   27.5044 H   0  0  0  0  0  0  0  0  0  0  0  0
    8.3988    0.4499   27.8892 H   0  0  0  0  0  0  0  0  0  0  0  0
    9.4077   -0.4573   26.7487 H   0  0  0  0  0  0  0  0  0  0  0  0
  1  2  1  0
  2  3  2  0
  3  4  1  0
  4  5  2  0
  5  6  1  0
  6  7  1  0
  7  8  2  0
  8  9  1  0
  9 10  1  0
 10 11  2  0
 11 12  1  0
 12 13  2  0
 13 14  1  0
 13 15  1  0
 15 16  2  0
 16 17  1  0
 15 18  1  0
 12 19  1  0
 11 20  1  0
  9 21  2  0
 21 22  1  0
 22 23  1  0
 23 24  1  0
 24 25  2  0
 25 26  1  0
 26 27  2  0
 27 28  1  0
 28 29  2  0
 29 30  1  0
 27 31  1  0
 26 32  1  0
 25 33  1  0
 23 34  1  0
 23 35  1  0
  6 36  1  0
  6 37  1  0
  5 38  1  0
  4 39  1  0
  1 40  1  0
  1 41  1  0
  1 42  1  0
 38  2  1  0
 22  7  1  0
 29 24  1  0
 16 10  1  0
M  END
>  <cnnaffinity>  (1) 
-6.55725

>  <filename>  (1) 
Cc1ncc(Cc2nc(-c3ccc(Cl)cc3)nn2Cc2cccnc2)o1

$$$$
