
     RDKit          3D

 42 45  0  0  0  0  0  0  0  0999 V2000
    5.2794   -1.2497   26.2999 C   0  0  0  0  0  0  0  0  0  0  0  0
    5.9835   -0.0390   25.8203 C   0  0  0  0  0  0  0  0  0  0  0  0
    6.6793    0.8245   26.4821 N   0  0  0  0  0  0  0  0  0  0  0  0
    7.1061    1.7308   25.5169 C   0  0  0  0  0  0  0  0  0  0  0  0
    6.6261    1.3627   24.3049 C   0  0  0  0  0  0  0  0  0  0  0  0
    6.8167    1.7341   22.8675 C   0  0  0  0  0  0  0  0  0  0  0  0
    7.8891    0.8604   22.3108 C   0  0  0  0  0  0  0  0  0  0  0  0
    9.1467    1.1332   22.5366 N   0  0  0  0  0  0  0  0  0  0  0  0
    9.8014    0.0077   22.1384 C   0  0  0  0  0  0  0  0  0  0  0  0
   11.2710   -0.0663   22.3182 C   0  0  0  0  0  0  0  0  0  0  0  0
   12.0617   -1.1113   21.7995 C   0  0  0  0  0  0  0  0  0  0  0  0
   13.4352   -1.0731   22.0265 C   0  0  0  0  0  0  0  0  0  0  0  0
   14.2043   -2.0648   21.5528 F   0  0  0  0  0  0  0  0  0  0  0  0
   14.0468   -0.0259   22.7126 C   0  0  0  0  0  0  0  0  0  0  0  0
   13.2563    0.9950   23.2426 C   0  0  0  0  0  0  0  0  0  0  0  0
   11.8785    0.9749   23.0533 C   0  0  0  0  0  0  0  0  0  0  0  0
   11.2498    1.7722   23.4372 H   0  0  0  0  0  0  0  0  0  0  0  0
   13.7154    1.8137   23.7861 H   0  0  0  0  0  0  0  0  0  0  0  0
   15.1179    0.0329   22.7790 H   0  0  0  0  0  0  0  0  0  0  0  0
   11.6308   -1.9375   21.2384 H   0  0  0  0  0  0  0  0  0  0  0  0
    9.0028   -0.9287   21.6460 N   0  0  0  0  0  0  0  0  0  0  0  0
    7.7652   -0.3738   21.7836 N   0  0  0  0  0  0  0  0  0  0  0  0
    6.5816   -0.9479   21.1443 C   0  0  0  0  0  0  0  0  0  0  0  0
    6.1176   -0.1353   19.9479 C   0  0  0  0  0  0  0  0  0  0  0  0
    4.9164    0.5879   19.9021 C   0  0  0  0  0  0  0  0  0  0  0  0
    4.6617    1.3921   18.7851 C   0  0  0  0  0  0  0  0  0  0  0  0
    5.5952    1.4238   17.7472 C   0  0  0  0  0  0  0  0  0  0  0  0
    6.7331    0.7136   17.7580 N   0  0  0  0  0  0  0  0  0  0  0  0
    6.9812   -0.0270   18.8438 C   0  0  0  0  0  0  0  0  0  0  0  0
    7.9311   -0.5644   18.8500 H   0  0  0  0  0  0  0  0  0  0  0  0
    5.4215    2.0317   16.8603 H   0  0  0  0  0  0  0  0  0  0  0  0
    3.7767    2.0154   18.7220 H   0  0  0  0  0  0  0  0  0  0  0  0
    4.1863    0.5374   20.7150 H   0  0  0  0  0  0  0  0  0  0  0  0
    5.7971   -1.0136   21.9024 H   0  0  0  0  0  0  0  0  0  0  0  0
    6.8615   -1.9688   20.8668 H   0  0  0  0  0  0  0  0  0  0  0  0
    7.1660    2.7632   22.7761 H   0  0  0  0  0  0  0  0  0  0  0  0
    5.8898    1.6082   22.3043 H   0  0  0  0  0  0  0  0  0  0  0  0
    5.9101    0.2200   24.4920 O   0  0  0  0  0  0  0  0  0  0  0  0
    7.7598    2.5586   25.7639 H   0  0  0  0  0  0  0  0  0  0  0  0
    5.5555   -1.4524   27.3343 H   0  0  0  0  0  0  0  0  0  0  0  0
    4.1956   -1.1129   26.2386 H   0  0  0  0  0  0  0  0  0  0  0  0
    5.5540   -2.0971   25.6683 H   0  0  0  0  0  0  0  0  0  0  0  0
  1  2  1  0
  2  3  2  0
  3  4  1  0
  4  5  2  0
  5  6  1  0
  6  7  1  0
  7  8  2  0
  8  9  1  0
  9 10  1  0
 10 11  2  0
 11 12  1  0
 12 13  1  0
 12 14  2  0
 14 15  1  0
 15 16  2  0
 16 17  1  0
 15 18  1  0
 14 19  1  0
 11 20  1  0
  9 21  2  0
 21 22  1  0
 22 23  1  0
 23 24  1  0
 24 25  2  0
 25 26  1  0
 26 27  2  0
 27 28  1  0
 28 29  2  0
 29 30  1  0
 27 31  1  0
 26 32  1  0
 25 33  1  0
 23 34  1  0
 23 35  1  0
  6 36  1  0
  6 37  1  0
  5 38  1  0
  4 39  1  0
  1 40  1  0
  1 41  1  0
  1 42  1  0
 38  2  1  0
 22  7  1  0
 29 24  1  0
 16 10  1  0
M  END
>  <cnnaffinity>  (1) 
-6.25398

>  <filename>  (1) 
Cc1ncc(Cc2nc(-c3cccc(F)c3)nn2Cc2cccnc2)o1

$$$$
