
     RDKit          3D

 49 52  0  0  0  0  0  0  0  0999 V2000
    6.2666   -1.5888   26.1210 C   0  0  0  0  0  0  0  0  0  0  0  0
    6.9224   -0.3488   25.5984 C   0  0  0  0  0  0  0  0  0  0  0  0
    6.6867    0.1091   24.3746 N   0  0  0  0  0  0  0  0  0  0  0  0
    7.4551    1.2084   24.2480 N   0  0  0  0  0  0  0  0  0  0  0  0
    7.6423    1.7493   22.9103 C   0  0  0  0  0  0  0  0  0  0  0  0
    8.7066    0.9439   22.2414 C   0  0  0  0  0  0  0  0  0  0  0  0
    9.9942    1.0703   22.4831 N   0  0  0  0  0  0  0  0  0  0  0  0
   10.5316   -0.0718   21.9777 C   0  0  0  0  0  0  0  0  0  0  0  0
   11.9801   -0.3443   22.0444 C   0  0  0  0  0  0  0  0  0  0  0  0
   12.8430    0.5736   22.6852 C   0  0  0  0  0  0  0  0  0  0  0  0
   14.1733    0.6713   22.2737 C   0  0  0  0  0  0  0  0  0  0  0  0
   14.5700   -0.1282   21.2022 C   0  0  0  0  0  0  0  0  0  0  0  0
   15.5405    0.3590   20.2862 F   0  0  0  0  0  0  0  0  0  0  0  0
   13.8698   -1.2794   20.8260 C   0  0  0  0  0  0  0  0  0  0  0  0
   12.5491   -1.3780   21.2619 C   0  0  0  0  0  0  0  0  0  0  0  0
   11.9183   -2.1868   20.9070 H   0  0  0  0  0  0  0  0  0  0  0  0
   14.2724   -1.9276   20.0544 H   0  0  0  0  0  0  0  0  0  0  0  0
   14.8453    1.4385   22.6451 H   0  0  0  0  0  0  0  0  0  0  0  0
   12.4524    1.2599   23.4435 H   0  0  0  0  0  0  0  0  0  0  0  0
    9.6461   -0.8499   21.3738 N   0  0  0  0  0  0  0  0  0  0  0  0
    8.4795   -0.1914   21.5489 N   0  0  0  0  0  0  0  0  0  0  0  0
    7.2232   -0.7501   21.0617 C   0  0  0  0  0  0  0  0  0  0  0  0
    6.5566    0.0296   19.9419 C   0  0  0  0  0  0  0  0  0  0  0  0
    5.3310    0.6888   20.1011 C   0  0  0  0  0  0  0  0  0  0  0  0
    4.7713    1.3546   19.0065 C   0  0  0  0  0  0  0  0  0  0  0  0
    5.4575    1.3354   17.7900 C   0  0  0  0  0  0  0  0  0  0  0  0
    6.6285    0.7040   17.6121 N   0  0  0  0  0  0  0  0  0  0  0  0
    7.1567    0.0787   18.6717 C   0  0  0  0  0  0  0  0  0  0  0  0
    8.1041   -0.4306   18.4961 H   0  0  0  0  0  0  0  0  0  0  0  0
    5.0474    1.8424   16.9179 H   0  0  0  0  0  0  0  0  0  0  0  0
    3.8307    1.8883   19.0870 H   0  0  0  0  0  0  0  0  0  0  0  0
    4.8135    0.6804   21.0639 H   0  0  0  0  0  0  0  0  0  0  0  0
    6.5448   -0.8400   21.9192 H   0  0  0  0  0  0  0  0  0  0  0  0
    7.4767   -1.7609   20.7304 H   0  0  0  0  0  0  0  0  0  0  0  0
    6.6860    1.6978   22.3904 H   0  0  0  0  0  0  0  0  0  0  0  0
    7.9493    2.7942   22.9892 H   0  0  0  0  0  0  0  0  0  0  0  0
    8.2419    1.4052   25.3473 C   0  0  0  0  0  0  0  0  0  0  0  0
    9.3185    2.4468   25.4416 C   0  0  0  0  0  0  0  0  0  0  0  0
    9.8861    2.5095   24.5086 H   0  0  0  0  0  0  0  0  0  0  0  0
    8.9243    3.4400   25.6845 H   0  0  0  0  0  0  0  0  0  0  0  0
   10.0204    2.1621   26.2300 H   0  0  0  0  0  0  0  0  0  0  0  0
    7.8780    0.4446   26.2677 C   0  0  0  0  0  0  0  0  0  0  0  0
    8.3982    0.2592   27.6598 C   0  0  0  0  0  0  0  0  0  0  0  0
    8.3387    1.1851   28.2431 H   0  0  0  0  0  0  0  0  0  0  0  0
    7.8039   -0.4873   28.1861 H   0  0  0  0  0  0  0  0  0  0  0  0
    9.4413   -0.0847   27.6776 H   0  0  0  0  0  0  0  0  0  0  0  0
    5.6325   -1.3606   26.9861 H   0  0  0  0  0  0  0  0  0  0  0  0
    7.0168   -2.3162   26.4581 H   0  0  0  0  0  0  0  0  0  0  0  0
    5.6524   -2.0531   25.3478 H   0  0  0  0  0  0  0  0  0  0  0  0
  1  2  1  0
  2  3  2  0
  3  4  1  0
  4  5  1  0
  5  6  1  0
  6  7  2  0
  7  8  1  0
  8  9  1  0
  9 10  2  0
 10 11  1  0
 11 12  2  0
 12 13  1  0
 12 14  1  0
 14 15  2  0
 15 16  1  0
 14 17  1  0
 11 18  1  0
 10 19  1  0
  8 20  2  0
 20 21  1  0
 21 22  1  0
 22 23  1  0
 23 24  2  0
 24 25  1  0
 25 26  2  0
 26 27  1  0
 27 28  2  0
 28 29  1  0
 26 30  1  0
 25 31  1  0
 24 32  1  0
 22 33  1  0
 22 34  1  0
  5 35  1  0
  5 36  1  0
  4 37  1  0
 37 38  1  0
 38 39  1  0
 38 40  1  0
 38 41  1  0
 37 42  2  0
 42 43  1  0
 43 44  1  0
 43 45  1  0
 43 46  1  0
  1 47  1  0
  1 48  1  0
  1 49  1  0
 42  2  1  0
 21  6  1  0
 28 23  1  0
 15  9  1  0
M  END
>  <cnnaffinity>  (1) 
-6.63899

>  <filename>  (1) 
Cc1nn(Cc2nc(-c3ccc(F)cc3)nn2Cc2cccnc2)c(C)c1C

$$$$
