
     RDKit          3D

 43 46  0  0  0  0  0  0  0  0999 V2000
   12.1489    2.1741   24.5909 C   0  0  0  0  0  0  0  0  0  0  0  0
   11.1039    2.0163   23.5746 C   0  0  0  0  0  0  0  0  0  0  0  0
   11.1288    1.1498   22.5859 N   0  0  0  0  0  0  0  0  0  0  0  0
    9.9851    1.3616   21.9148 N   0  0  0  0  0  0  0  0  0  0  0  0
    9.6032    0.4308   20.8843 C   0  0  0  0  0  0  0  0  0  0  0  0
    8.6228   -0.5605   21.3880 C   0  0  0  0  0  0  0  0  0  0  0  0
    8.8572   -1.4223   22.3466 N   0  0  0  0  0  0  0  0  0  0  0  0
    7.6534   -2.0324   22.5240 C   0  0  0  0  0  0  0  0  0  0  0  0
    7.4258   -3.0527   23.5726 C   0  0  0  0  0  0  0  0  0  0  0  0
    6.1555   -3.6502   23.7128 C   0  0  0  0  0  0  0  0  0  0  0  0
    5.9357   -4.6131   24.6977 C   0  0  0  0  0  0  0  0  0  0  0  0
    6.9719   -4.9920   25.5597 C   0  0  0  0  0  0  0  0  0  0  0  0
    8.2343   -4.3995   25.4324 C   0  0  0  0  0  0  0  0  0  0  0  0
    8.4660   -3.4347   24.4485 C   0  0  0  0  0  0  0  0  0  0  0  0
    9.4491   -2.9726   24.3558 H   0  0  0  0  0  0  0  0  0  0  0  0
    9.0386   -4.6920   26.1032 H   0  0  0  0  0  0  0  0  0  0  0  0
    6.7948   -5.7422   26.3270 H   0  0  0  0  0  0  0  0  0  0  0  0
    4.9530   -5.0655   24.7936 H   0  0  0  0  0  0  0  0  0  0  0  0
    5.3502   -3.3448   23.0456 H   0  0  0  0  0  0  0  0  0  0  0  0
    6.7065   -1.6084   21.6963 N   0  0  0  0  0  0  0  0  0  0  0  0
    7.3449   -0.6907   20.9354 N   0  0  0  0  0  0  0  0  0  0  0  0
    6.6521   -0.0013   19.8999 C   0  0  0  0  0  0  0  0  0  0  0  0
    5.4393    0.6404   20.1651 C   0  0  0  0  0  0  0  0  0  0  0  0
    4.8118    1.3109   19.1089 C   0  0  0  0  0  0  0  0  0  0  0  0
    5.3989    1.2959   17.8379 C   0  0  0  0  0  0  0  0  0  0  0  0
    6.5555    0.6692   17.5746 N   0  0  0  0  0  0  0  0  0  0  0  0
    7.1643    0.0470   18.5914 C   0  0  0  0  0  0  0  0  0  0  0  0
    8.1121   -0.4364   18.3623 H   0  0  0  0  0  0  0  0  0  0  0  0
    4.9220    1.7893   16.9934 H   0  0  0  0  0  0  0  0  0  0  0  0
    3.8791    1.8406   19.2591 H   0  0  0  0  0  0  0  0  0  0  0  0
    5.0130    0.6048   21.1716 H   0  0  0  0  0  0  0  0  0  0  0  0
   10.5057   -0.1008   20.6026 H   0  0  0  0  0  0  0  0  0  0  0  0
    9.2087    1.0020   20.0503 H   0  0  0  0  0  0  0  0  0  0  0  0
    9.2087    2.3336   22.4668 C   0  0  0  0  0  0  0  0  0  0  0  0
    7.8395    2.7129   22.0298 C   0  0  0  0  0  0  0  0  0  0  0  0
    7.5980    3.7020   22.4224 H   0  0  0  0  0  0  0  0  0  0  0  0
    7.7563    2.7137   20.9443 H   0  0  0  0  0  0  0  0  0  0  0  0
    7.1007    2.0039   22.4182 H   0  0  0  0  0  0  0  0  0  0  0  0
    9.9273    2.7860   23.5417 C   0  0  0  0  0  0  0  0  0  0  0  0
    9.4681    4.0414   24.6334 Cl  0  0  0  0  0  0  0  0  0  0  0  0
   11.7879    1.7219   25.5100 H   0  0  0  0  0  0  0  0  0  0  0  0
   13.1050    1.7433   24.3016 H   0  0  0  0  0  0  0  0  0  0  0  0
   12.2047    3.2506   24.7426 H   0  0  0  0  0  0  0  0  0  0  0  0
  1  2  1  0
  2  3  2  0
  3  4  1  0
  4  5  1  0
  5  6  1  0
  6  7  2  0
  7  8  1  0
  8  9  1  0
  9 10  2  0
 10 11  1  0
 11 12  2  0
 12 13  1  0
 13 14  2  0
 14 15  1  0
 13 16  1  0
 12 17  1  0
 11 18  1  0
 10 19  1  0
  8 20  2  0
 20 21  1  0
 21 22  1  0
 22 23  2  0
 23 24  1  0
 24 25  2  0
 25 26  1  0
 26 27  2  0
 27 28  1  0
 25 29  1  0
 24 30  1  0
 23 31  1  0
  5 32  1  0
  5 33  1  0
  4 34  1  0
 34 35  1  0
 35 36  1  0
 35 37  1  0
 35 38  1  0
 34 39  2  0
 39 40  1  0
  1 41  1  0
  1 42  1  0
  1 43  1  0
 39  2  1  0
 21  6  1  0
 27 22  1  0
 14  9  1  0
M  END
>  <cnnaffinity>  (1) 
-6.12575

>  <filename>  (1) 
Cc1nn(Cc2nc(-c3ccccc3)nn2-c2cccnc2)c(C)c1Cl

$$$$
