
     RDKit          3D

 46 49  0  0  0  0  0  0  0  0999 V2000
   12.1366    2.3588   24.3264 C   0  0  0  0  0  0  0  0  0  0  0  0
   10.9774    2.1534   23.4157 C   0  0  0  0  0  0  0  0  0  0  0  0
   11.0253    1.2364   22.4681 N   0  0  0  0  0  0  0  0  0  0  0  0
    9.8425    1.3047   21.8280 N   0  0  0  0  0  0  0  0  0  0  0  0
    9.5889    0.2675   20.8376 C   0  0  0  0  0  0  0  0  0  0  0  0
    8.5649   -0.6764   21.3326 C   0  0  0  0  0  0  0  0  0  0  0  0
    8.7732   -1.5049   22.3233 N   0  0  0  0  0  0  0  0  0  0  0  0
    7.5580   -2.0855   22.5026 C   0  0  0  0  0  0  0  0  0  0  0  0
    7.3494   -3.1021   23.5589 C   0  0  0  0  0  0  0  0  0  0  0  0
    6.0863   -3.7043   23.7238 C   0  0  0  0  0  0  0  0  0  0  0  0
    5.9318   -4.6605   24.7192 C   0  0  0  0  0  0  0  0  0  0  0  0
    4.7319   -5.2348   24.8686 F   0  0  0  0  0  0  0  0  0  0  0  0
    6.9622   -5.0406   25.5748 C   0  0  0  0  0  0  0  0  0  0  0  0
    8.1929   -4.4114   25.3958 C   0  0  0  0  0  0  0  0  0  0  0  0
    9.1991   -4.7309   26.2188 F   0  0  0  0  0  0  0  0  0  0  0  0
    8.4152   -3.4598   24.4100 C   0  0  0  0  0  0  0  0  0  0  0  0
    9.3972   -2.9961   24.3266 H   0  0  0  0  0  0  0  0  0  0  0  0
    6.8142   -5.7786   26.3527 H   0  0  0  0  0  0  0  0  0  0  0  0
    5.2377   -3.4150   23.1100 H   0  0  0  0  0  0  0  0  0  0  0  0
    6.6171   -1.6597   21.6729 N   0  0  0  0  0  0  0  0  0  0  0  0
    7.2794   -0.7725   20.8909 N   0  0  0  0  0  0  0  0  0  0  0  0
    6.6024   -0.0801   19.8510 C   0  0  0  0  0  0  0  0  0  0  0  0
    5.3979    0.5815   20.1171 C   0  0  0  0  0  0  0  0  0  0  0  0
    4.8006    1.3038   19.0805 C   0  0  0  0  0  0  0  0  0  0  0  0
    5.4048    1.3118   17.8181 C   0  0  0  0  0  0  0  0  0  0  0  0
    6.5288    0.6315   17.5407 N   0  0  0  0  0  0  0  0  0  0  0  0
    7.1092   -0.0444   18.5394 C   0  0  0  0  0  0  0  0  0  0  0  0
    8.0258   -0.5811   18.2904 H   0  0  0  0  0  0  0  0  0  0  0  0
    4.9762    1.8866   17.0006 H   0  0  0  0  0  0  0  0  0  0  0  0
    3.8818    1.8603   19.2334 H   0  0  0  0  0  0  0  0  0  0  0  0
    4.9601    0.5219   21.1156 H   0  0  0  0  0  0  0  0  0  0  0  0
    9.3523    0.6852   19.8639 H   0  0  0  0  0  0  0  0  0  0  0  0
   10.5259   -0.2773   20.7413 H   0  0  0  0  0  0  0  0  0  0  0  0
    9.0237    2.2566   22.3791 C   0  0  0  0  0  0  0  0  0  0  0  0
    7.6495    2.6345   21.8924 C   0  0  0  0  0  0  0  0  0  0  0  0
    7.5629    2.5275   20.8116 H   0  0  0  0  0  0  0  0  0  0  0  0
    6.8594    2.0216   22.3439 H   0  0  0  0  0  0  0  0  0  0  0  0
    7.4286    3.6774   22.1504 H   0  0  0  0  0  0  0  0  0  0  0  0
    9.7322    2.8201   23.4277 C   0  0  0  0  0  0  0  0  0  0  0  0
    9.3269    3.9824   24.2889 C   0  0  0  0  0  0  0  0  0  0  0  0
    9.9833    4.1089   25.1561 H   0  0  0  0  0  0  0  0  0  0  0  0
    8.3083    3.8581   24.6738 H   0  0  0  0  0  0  0  0  0  0  0  0
    9.3596    4.9212   23.7182 H   0  0  0  0  0  0  0  0  0  0  0  0
   12.9631    1.7048   24.0448 H   0  0  0  0  0  0  0  0  0  0  0  0
   11.8583    2.1137   25.3548 H   0  0  0  0  0  0  0  0  0  0  0  0
   12.4586    3.4036   24.2688 H   0  0  0  0  0  0  0  0  0  0  0  0
  1  2  1  0
  2  3  2  0
  3  4  1  0
  4  5  1  0
  5  6  1  0
  6  7  2  0
  7  8  1  0
  8  9  1  0
  9 10  2  0
 10 11  1  0
 11 12  1  0
 11 13  2  0
 13 14  1  0
 14 15  1  0
 14 16  2  0
 16 17  1  0
 13 18  1  0
 10 19  1  0
  8 20  2  0
 20 21  1  0
 21 22  1  0
 22 23  2  0
 23 24  1  0
 24 25  2  0
 25 26  1  0
 26 27  2  0
 27 28  1  0
 25 29  1  0
 24 30  1  0
 23 31  1  0
  5 32  1  0
  5 33  1  0
  4 34  1  0
 34 35  1  0
 35 36  1  0
 35 37  1  0
 35 38  1  0
 34 39  2  0
 39 40  1  0
 40 41  1  0
 40 42  1  0
 40 43  1  0
  1 44  1  0
  1 45  1  0
  1 46  1  0
 39  2  1  0
 21  6  1  0
 27 22  1  0
 16  9  1  0
M  END
>  <cnnaffinity>  (1) 
-6.31146

>  <filename>  (1) 
Cc1nn(Cc2nc(-c3cc(F)cc(F)c3)nn2-c2cccnc2)c(C)c1C

$$$$
