
     RDKit          3D

 42 45  0  0  0  0  0  0  0  0999 V2000
    7.7923    2.9137   21.8121 C   0  0  0  0  0  0  0  0  0  0  0  0
    9.1026    2.5474   22.4308 C   0  0  0  0  0  0  0  0  0  0  0  0
    9.5974    3.1210   23.4993 N   0  0  0  0  0  0  0  0  0  0  0  0
   10.7698    2.4257   23.7801 O   0  0  0  0  0  0  0  0  0  0  0  0
   10.9334    1.4499   22.8787 C   0  0  0  0  0  0  0  0  0  0  0  0
   12.0365    0.4616   23.0242 C   0  0  0  0  0  0  0  0  0  0  0  0
   12.6482    0.4428   22.1159 H   0  0  0  0  0  0  0  0  0  0  0  0
   11.5915   -0.5394   23.1168 H   0  0  0  0  0  0  0  0  0  0  0  0
   12.6630    0.6725   23.8902 H   0  0  0  0  0  0  0  0  0  0  0  0
    9.9297    1.4802   21.9662 C   0  0  0  0  0  0  0  0  0  0  0  0
    9.6222    0.4284   20.9136 C   0  0  0  0  0  0  0  0  0  0  0  0
    8.6235   -0.5960   21.3624 C   0  0  0  0  0  0  0  0  0  0  0  0
    8.8530   -1.4657   22.3183 N   0  0  0  0  0  0  0  0  0  0  0  0
    7.6459   -2.0656   22.4967 C   0  0  0  0  0  0  0  0  0  0  0  0
    7.4177   -3.0958   23.5447 C   0  0  0  0  0  0  0  0  0  0  0  0
    6.1465   -3.6962   23.6730 C   0  0  0  0  0  0  0  0  0  0  0  0
    5.9576   -4.6642   24.6482 C   0  0  0  0  0  0  0  0  0  0  0  0
    4.7518   -5.2388   24.7571 F   0  0  0  0  0  0  0  0  0  0  0  0
    6.9705   -5.0623   25.5167 C   0  0  0  0  0  0  0  0  0  0  0  0
    8.2109   -4.4451   25.3790 C   0  0  0  0  0  0  0  0  0  0  0  0
    9.2031   -4.8042   26.2057 F   0  0  0  0  0  0  0  0  0  0  0  0
    8.4611   -3.4743   24.4186 C   0  0  0  0  0  0  0  0  0  0  0  0
    9.4533   -3.0353   24.3731 H   0  0  0  0  0  0  0  0  0  0  0  0
    6.8014   -5.8151   26.2700 H   0  0  0  0  0  0  0  0  0  0  0  0
    5.3145   -3.4135   23.0347 H   0  0  0  0  0  0  0  0  0  0  0  0
    6.6972   -1.6340   21.6802 N   0  0  0  0  0  0  0  0  0  0  0  0
    7.3375   -0.7096   20.9223 N   0  0  0  0  0  0  0  0  0  0  0  0
    6.6432   -0.0223   19.8895 C   0  0  0  0  0  0  0  0  0  0  0  0
    5.4338    0.6264   20.1570 C   0  0  0  0  0  0  0  0  0  0  0  0
    4.8071    1.3093   19.1068 C   0  0  0  0  0  0  0  0  0  0  0  0
    5.3950    1.2996   17.8373 C   0  0  0  0  0  0  0  0  0  0  0  0
    6.5440    0.6608   17.5691 N   0  0  0  0  0  0  0  0  0  0  0  0
    7.1508    0.0270   18.5809 C   0  0  0  0  0  0  0  0  0  0  0  0
    8.0973   -0.4553   18.3436 H   0  0  0  0  0  0  0  0  0  0  0  0
    4.9343    1.8158   16.9983 H   0  0  0  0  0  0  0  0  0  0  0  0
    3.8759    1.8455   19.2556 H   0  0  0  0  0  0  0  0  0  0  0  0
    5.0120    0.5871   21.1624 H   0  0  0  0  0  0  0  0  0  0  0  0
    9.2650    0.8786   19.9888 H   0  0  0  0  0  0  0  0  0  0  0  0
   10.5206   -0.1440   20.6609 H   0  0  0  0  0  0  0  0  0  0  0  0
    6.9740    2.3314   22.2554 H   0  0  0  0  0  0  0  0  0  0  0  0
    7.8388    2.6402   20.7564 H   0  0  0  0  0  0  0  0  0  0  0  0
    7.5544    3.9741   21.9099 H   0  0  0  0  0  0  0  0  0  0  0  0
  1  2  1  0
  2  3  2  0
  3  4  1  0
  4  5  1  0
  5  6  1  0
  6  7  1  0
  6  8  1  0
  6  9  1  0
  5 10  2  0
 10 11  1  0
 11 12  1  0
 12 13  2  0
 13 14  1  0
 14 15  1  0
 15 16  2  0
 16 17  1  0
 17 18  1  0
 17 19  2  0
 19 20  1  0
 20 21  1  0
 20 22  2  0
 22 23  1  0
 19 24  1  0
 16 25  1  0
 14 26  2  0
 26 27  1  0
 27 28  1  0
 28 29  2  0
 29 30  1  0
 30 31  2  0
 31 32  1  0
 32 33  2  0
 33 34  1  0
 31 35  1  0
 30 36  1  0
 29 37  1  0
 11 38  1  0
 11 39  1  0
  1 40  1  0
  1 41  1  0
  1 42  1  0
 10  2  1  0
 27 12  1  0
 33 28  1  0
 22 15  1  0
M  END
>  <cnnaffinity>  (1) 
-6.40412

>  <filename>  (1) 
Cc1noc(C)c1Cc1nc(-c2cc(F)cc(F)c2)nn1-c1cccnc1

$$$$
