
     RDKit          3D

 48 51  0  0  0  0  0  0  0  0999 V2000
    8.6066    2.7080   22.0498 C   0  0  0  0  0  0  0  0  0  0  0  0
    9.9346    2.1293   22.4429 C   0  0  0  0  0  0  0  0  0  0  0  0
   10.6279    2.7744   23.3834 N   0  0  0  0  0  0  0  0  0  0  0  0
   11.7607    2.2057   23.7825 C   0  0  0  0  0  0  0  0  0  0  0  0
   12.2477    1.0407   23.3748 N   0  0  0  0  0  0  0  0  0  0  0  0
   11.5413    0.3862   22.4467 C   0  0  0  0  0  0  0  0  0  0  0  0
   12.0289   -0.9888   22.0990 C   0  0  0  0  0  0  0  0  0  0  0  0
   13.0029   -1.1594   22.5541 H   0  0  0  0  0  0  0  0  0  0  0  0
   12.1247   -1.1366   21.0202 H   0  0  0  0  0  0  0  0  0  0  0  0
   11.3174   -1.7306   22.4777 H   0  0  0  0  0  0  0  0  0  0  0  0
   10.3974    0.9418   21.8601 C   0  0  0  0  0  0  0  0  0  0  0  0
    9.5916    0.1996   20.8039 C   0  0  0  0  0  0  0  0  0  0  0  0
    8.5279   -0.7107   21.3554 C   0  0  0  0  0  0  0  0  0  0  0  0
    8.7282   -1.5665   22.3355 N   0  0  0  0  0  0  0  0  0  0  0  0
    7.5050   -2.1249   22.5325 C   0  0  0  0  0  0  0  0  0  0  0  0
    7.3190   -3.1353   23.6223 C   0  0  0  0  0  0  0  0  0  0  0  0
    8.1781   -4.4092   23.3727 C   0  0  0  0  0  0  0  0  0  0  0  0
    8.2318   -5.3173   24.5780 C   0  0  0  0  0  0  0  0  0  0  0  0
    7.8769   -4.9371   25.8056 C   0  0  0  0  0  0  0  0  0  0  0  0
    7.4077   -3.5393   26.1377 C   0  0  0  0  0  0  0  0  0  0  0  0
    7.6764   -2.5332   25.0066 C   0  0  0  0  0  0  0  0  0  0  0  0
    7.1120   -1.6089   25.1854 H   0  0  0  0  0  0  0  0  0  0  0  0
    8.7392   -2.2528   24.9908 H   0  0  0  0  0  0  0  0  0  0  0  0
    6.3295   -3.5721   26.3508 H   0  0  0  0  0  0  0  0  0  0  0  0
    7.8812   -3.2004   27.0681 H   0  0  0  0  0  0  0  0  0  0  0  0
    7.8916   -5.6605   26.6232 H   0  0  0  0  0  0  0  0  0  0  0  0
    8.6091   -6.3264   24.4134 H   0  0  0  0  0  0  0  0  0  0  0  0
    7.8031   -4.9674   22.5048 H   0  0  0  0  0  0  0  0  0  0  0  0
    9.2046   -4.1096   23.1123 H   0  0  0  0  0  0  0  0  0  0  0  0
    6.2582   -3.4102   23.6112 H   0  0  0  0  0  0  0  0  0  0  0  0
    6.5689   -1.6902   21.7136 N   0  0  0  0  0  0  0  0  0  0  0  0
    7.2399   -0.8085   20.9208 N   0  0  0  0  0  0  0  0  0  0  0  0
    6.5769   -0.1146   19.8696 C   0  0  0  0  0  0  0  0  0  0  0  0
    5.3935    0.5829   20.1250 C   0  0  0  0  0  0  0  0  0  0  0  0
    4.8196    1.3135   19.0803 C   0  0  0  0  0  0  0  0  0  0  0  0
    5.4316    1.3003   17.8206 C   0  0  0  0  0  0  0  0  0  0  0  0
    6.5497    0.6067   17.5589 N   0  0  0  0  0  0  0  0  0  0  0  0
    7.1039   -0.0819   18.5649 C   0  0  0  0  0  0  0  0  0  0  0  0
    8.0205   -0.6225   18.3335 H   0  0  0  0  0  0  0  0  0  0  0  0
    5.0027    1.8548   16.9867 H   0  0  0  0  0  0  0  0  0  0  0  0
    3.9070    1.8813   19.2292 H   0  0  0  0  0  0  0  0  0  0  0  0
    4.9556    0.5381   21.1236 H   0  0  0  0  0  0  0  0  0  0  0  0
   10.2419   -0.4551   20.2182 H   0  0  0  0  0  0  0  0  0  0  0  0
    9.1437    0.9067   20.1029 H   0  0  0  0  0  0  0  0  0  0  0  0
   12.3088    2.7474   24.5463 H   0  0  0  0  0  0  0  0  0  0  0  0
    8.6476    3.0869   21.0235 H   0  0  0  0  0  0  0  0  0  0  0  0
    8.3255    3.5312   22.7095 H   0  0  0  0  0  0  0  0  0  0  0  0
    7.8208    1.9435   22.0837 H   0  0  0  0  0  0  0  0  0  0  0  0
  1  2  1  0
  2  3  2  0
  3  4  1  0
  4  5  2  0
  5  6  1  0
  6  7  1  0
  7  8  1  0
  7  9  1  0
  7 10  1  0
  6 11  2  0
 11 12  1  0
 12 13  1  0
 13 14  2  0
 14 15  1  0
 15 16  1  0
 16 17  1  0
 17 18  1  0
 18 19  2  0
 19 20  1  0
 20 21  1  0
 21 22  1  0
 21 23  1  0
 20 24  1  0
 20 25  1  0
 19 26  1  0
 18 27  1  0
 17 28  1  0
 17 29  1  0
 16 30  1  0
 15 31  2  0
 31 32  1  0
 32 33  1  0
 33 34  2  0
 34 35  1  0
 35 36  2  0
 36 37  1  0
 37 38  2  0
 38 39  1  0
 36 40  1  0
 35 41  1  0
 34 42  1  0
 12 43  1  0
 12 44  1  0
  4 45  1  0
  1 46  1  0
  1 47  1  0
  1 48  1  0
 11  2  1  0
 32 13  1  0
 38 33  1  0
 21 16  1  0
M  END
>  <cnnaffinity>  (1) 
-6.73067

>  <filename>  (1) 
Cc1ncnc(C)c1Cc1nc(C2CC=CCC2)nn1-c1cccnc1

$$$$
