
     RDKit          3D

 33 35  0  0  0  0  0  0  0  0999 V2000
    8.8994   -3.4013   22.3979 C   0  0  0  0  0  0  0  0  0  0  0  0
    8.2382   -2.1278   22.0292 C   0  0  0  0  0  0  0  0  0  0  0  0
    7.7867   -1.8323   20.8278 N   0  0  0  0  0  0  0  0  0  0  0  0
    7.2702   -0.5848   20.9993 N   0  0  0  0  0  0  0  0  0  0  0  0
    6.5868    0.0490   19.9243 C   0  0  0  0  0  0  0  0  0  0  0  0
    5.3755    0.7297   20.1135 C   0  0  0  0  0  0  0  0  0  0  0  0
    4.7984    1.3670   19.0062 C   0  0  0  0  0  0  0  0  0  0  0  0
    5.4515    1.3102   17.7723 C   0  0  0  0  0  0  0  0  0  0  0  0
    6.5922    0.6232   17.5765 N   0  0  0  0  0  0  0  0  0  0  0  0
    7.1283   -0.0087   18.6265 C   0  0  0  0  0  0  0  0  0  0  0  0
    8.0338   -0.5813   18.4372 H   0  0  0  0  0  0  0  0  0  0  0  0
    5.0373    1.8059   16.8988 H   0  0  0  0  0  0  0  0  0  0  0  0
    3.8600    1.9058   19.0944 H   0  0  0  0  0  0  0  0  0  0  0  0
    4.8948    0.7533   21.0914 H   0  0  0  0  0  0  0  0  0  0  0  0
    7.5103   -0.1790   22.2961 C   0  0  0  0  0  0  0  0  0  0  0  0
    7.2591    1.1542   22.9421 C   0  0  0  0  0  0  0  0  0  0  0  0
    8.5471    1.7112   23.5495 C   0  0  0  0  0  0  0  0  0  0  0  0
    8.8480    1.5505   24.9082 C   0  0  0  0  0  0  0  0  0  0  0  0
   10.0974    1.8946   25.4296 C   0  0  0  0  0  0  0  0  0  0  0  0
   11.0679    2.4412   24.5884 C   0  0  0  0  0  0  0  0  0  0  0  0
   10.7930    2.6382   23.2337 C   0  0  0  0  0  0  0  0  0  0  0  0
    9.5456    2.2552   22.7331 C   0  0  0  0  0  0  0  0  0  0  0  0
    9.2437    2.4253   21.0332 Cl  0  0  0  0  0  0  0  0  0  0  0  0
   11.5215    3.0776   22.5609 H   0  0  0  0  0  0  0  0  0  0  0  0
   12.0339    2.7259   24.9834 H   0  0  0  0  0  0  0  0  0  0  0  0
   10.3117    1.7222   26.4769 H   0  0  0  0  0  0  0  0  0  0  0  0
    8.0883    1.1225   25.5535 H   0  0  0  0  0  0  0  0  0  0  0  0
    6.8491    1.8576   22.2155 H   0  0  0  0  0  0  0  0  0  0  0  0
    6.5145    1.0122   23.7339 H   0  0  0  0  0  0  0  0  0  0  0  0
    8.0975   -1.1514   22.9532 N   0  0  0  0  0  0  0  0  0  0  0  0
    8.6906   -4.1715   21.6646 H   0  0  0  0  0  0  0  0  0  0  0  0
    9.9787   -3.2408   22.4622 H   0  0  0  0  0  0  0  0  0  0  0  0
    8.5600   -3.7333   23.3789 H   0  0  0  0  0  0  0  0  0  0  0  0
  1  2  1  0
  2  3  2  0
  3  4  1  0
  4  5  1  0
  5  6  2  0
  6  7  1  0
  7  8  2  0
  8  9  1  0
  9 10  2  0
 10 11  1  0
  8 12  1  0
  7 13  1  0
  6 14  1  0
  4 15  1  0
 15 16  1  0
 16 17  1  0
 17 18  2  0
 18 19  1  0
 19 20  2  0
 20 21  1  0
 21 22  2  0
 22 23  1  0
 21 24  1  0
 20 25  1  0
 19 26  1  0
 18 27  1  0
 16 28  1  0
 16 29  1  0
 15 30  2  0
  1 31  1  0
  1 32  1  0
  1 33  1  0
 30  2  1  0
 10  5  1  0
 22 17  1  0
M  END
>  <cnnaffinity>  (1) 
-5.17437

>  <filename>  (1) 
Cc1nc(Cc2ccccc2Cl)n(-c2cccnc2)n1

$$$$
