
     RDKit          3D

 42 45  0  0  0  0  0  0  0  0999 V2000
    8.5775   -0.0828   27.3459 C   0  0  0  0  0  0  0  0  0  0  0  0
    7.6408    0.3126   26.2481 C   0  0  0  0  0  0  0  0  0  0  0  0
    8.0239    1.0427   25.2525 N   0  0  0  0  0  0  0  0  0  0  0  0
    7.0458    1.1793   24.2990 C   0  0  0  0  0  0  0  0  0  0  0  0
    7.4207    1.8437   23.0033 C   0  0  0  0  0  0  0  0  0  0  0  0
    8.4071    0.9723   22.2960 C   0  0  0  0  0  0  0  0  0  0  0  0
    9.7182    1.0928   22.3815 N   0  0  0  0  0  0  0  0  0  0  0  0
   10.1729   -0.0817   21.8883 C   0  0  0  0  0  0  0  0  0  0  0  0
   11.5916   -0.4924   21.7842 C   0  0  0  0  0  0  0  0  0  0  0  0
   12.6724    0.2673   22.2771 C   0  0  0  0  0  0  0  0  0  0  0  0
   13.9837   -0.1420   21.9919 C   0  0  0  0  0  0  0  0  0  0  0  0
   14.1957   -1.2686   21.1840 C   0  0  0  0  0  0  0  0  0  0  0  0
   13.1299   -2.0197   20.7121 C   0  0  0  0  0  0  0  0  0  0  0  0
   11.8352   -1.6757   21.0697 C   0  0  0  0  0  0  0  0  0  0  0  0
   10.9773   -2.2743   20.7738 H   0  0  0  0  0  0  0  0  0  0  0  0
   13.3263   -2.8336   20.0192 H   0  0  0  0  0  0  0  0  0  0  0  0
   15.1614   -1.5729   20.8250 H   0  0  0  0  0  0  0  0  0  0  0  0
   14.8324    0.4358   22.3486 H   0  0  0  0  0  0  0  0  0  0  0  0
   12.4821    1.1911   22.8236 H   0  0  0  0  0  0  0  0  0  0  0  0
    9.2118   -0.8776   21.4384 N   0  0  0  0  0  0  0  0  0  0  0  0
    8.0838   -0.2012   21.7059 N   0  0  0  0  0  0  0  0  0  0  0  0
    6.8124   -0.7004   21.1853 C   0  0  0  0  0  0  0  0  0  0  0  0
    6.3032    0.0739   19.9903 C   0  0  0  0  0  0  0  0  0  0  0  0
    5.0993    0.7837   20.0114 C   0  0  0  0  0  0  0  0  0  0  0  0
    4.6980    1.4629   18.8586 C   0  0  0  0  0  0  0  0  0  0  0  0
    5.5255    1.4159   17.7321 C   0  0  0  0  0  0  0  0  0  0  0  0
    6.6882    0.7463   17.6932 N   0  0  0  0  0  0  0  0  0  0  0  0
    7.0635    0.1055   18.8066 C   0  0  0  0  0  0  0  0  0  0  0  0
    8.0244   -0.4089   18.7629 H   0  0  0  0  0  0  0  0  0  0  0  0
    5.2415    1.9356   16.8183 H   0  0  0  0  0  0  0  0  0  0  0  0
    3.7799    2.0393   18.8289 H   0  0  0  0  0  0  0  0  0  0  0  0
    4.4933    0.8147   20.9218 H   0  0  0  0  0  0  0  0  0  0  0  0
    6.0839   -0.7025   21.9990 H   0  0  0  0  0  0  0  0  0  0  0  0
    7.0033   -1.7465   20.9270 H   0  0  0  0  0  0  0  0  0  0  0  0
    6.5414    2.0158   22.3733 H   0  0  0  0  0  0  0  0  0  0  0  0
    7.9211    2.7904   23.2132 H   0  0  0  0  0  0  0  0  0  0  0  0
    5.8716    0.5713   24.5955 C   0  0  0  0  0  0  0  0  0  0  0  0
    5.9843   -0.2231   26.1266 S   0  0  0  0  0  0  0  0  0  0  0  0
    4.9685    0.5610   24.0068 H   0  0  0  0  0  0  0  0  0  0  0  0
    9.5900    0.1634   27.0172 H   0  0  0  0  0  0  0  0  0  0  0  0
    8.3694    0.4630   28.2723 H   0  0  0  0  0  0  0  0  0  0  0  0
    8.5212   -1.1552   27.5535 H   0  0  0  0  0  0  0  0  0  0  0  0
  1  2  1  0
  2  3  2  0
  3  4  1  0
  4  5  1  0
  5  6  1  0
  6  7  2  0
  7  8  1  0
  8  9  1  0
  9 10  2  0
 10 11  1  0
 11 12  2  0
 12 13  1  0
 13 14  2  0
 14 15  1  0
 13 16  1  0
 12 17  1  0
 11 18  1  0
 10 19  1  0
  8 20  2  0
 20 21  1  0
 21 22  1  0
 22 23  1  0
 23 24  2  0
 24 25  1  0
 25 26  2  0
 26 27  1  0
 27 28  2  0
 28 29  1  0
 26 30  1  0
 25 31  1  0
 24 32  1  0
 22 33  1  0
 22 34  1  0
  5 35  1  0
  5 36  1  0
  4 37  2  0
 37 38  1  0
 37 39  1  0
  1 40  1  0
  1 41  1  0
  1 42  1  0
 38  2  1  0
 21  6  1  0
 28 23  1  0
 14  9  1  0
M  END
>  <cnnaffinity>  (1) 
-6.52715

>  <filename>  (1) 
Cc1nc(Cc2nc(-c3ccccc3)nn2Cc2cccnc2)cs1

$$$$
