
     RDKit          3D

 49 52  0  0  0  0  0  0  0  0999 V2000
   12.1517    2.3721   24.2518 C   0  0  0  0  0  0  0  0  0  0  0  0
   10.9614    2.1551   23.3790 C   0  0  0  0  0  0  0  0  0  0  0  0
   11.0128    1.2366   22.4327 N   0  0  0  0  0  0  0  0  0  0  0  0
    9.8241    1.2834   21.8028 N   0  0  0  0  0  0  0  0  0  0  0  0
    9.5694    0.2516   20.8018 C   0  0  0  0  0  0  0  0  0  0  0  0
    8.5410   -0.7129   21.2886 C   0  0  0  0  0  0  0  0  0  0  0  0
    8.7568   -1.5202   22.3024 N   0  0  0  0  0  0  0  0  0  0  0  0
    7.5489   -2.1144   22.4994 C   0  0  0  0  0  0  0  0  0  0  0  0
    7.3433   -3.0789   23.6409 C   0  0  0  0  0  0  0  0  0  0  0  0
    7.5130   -2.4058   25.0189 C   0  0  0  0  0  0  0  0  0  0  0  0
    8.5253   -1.9942   25.1225 H   0  0  0  0  0  0  0  0  0  0  0  0
    6.7916   -1.5939   25.1647 H   0  0  0  0  0  0  0  0  0  0  0  0
    7.3575   -3.1375   25.8194 H   0  0  0  0  0  0  0  0  0  0  0  0
    8.3028   -4.2589   23.4956 C   0  0  0  0  0  0  0  0  0  0  0  0
    7.9006   -5.6215   23.9706 C   0  0  0  0  0  0  0  0  0  0  0  0
    7.9923   -5.3325   22.4992 C   0  0  0  0  0  0  0  0  0  0  0  0
    7.0661   -5.2457   21.9333 H   0  0  0  0  0  0  0  0  0  0  0  0
    8.8111   -5.7832   21.9497 H   0  0  0  0  0  0  0  0  0  0  0  0
    8.6719   -6.2412   24.4148 H   0  0  0  0  0  0  0  0  0  0  0  0
    6.9115   -5.7488   24.4049 H   0  0  0  0  0  0  0  0  0  0  0  0
    9.3576   -3.9904   23.6157 H   0  0  0  0  0  0  0  0  0  0  0  0
    6.3068   -3.4311   23.5443 H   0  0  0  0  0  0  0  0  0  0  0  0
    6.6077   -1.7312   21.6606 N   0  0  0  0  0  0  0  0  0  0  0  0
    7.2543   -0.8399   20.8523 N   0  0  0  0  0  0  0  0  0  0  0  0
    6.5677   -0.1345   19.8257 C   0  0  0  0  0  0  0  0  0  0  0  0
    5.3776    0.5523   20.0948 C   0  0  0  0  0  0  0  0  0  0  0  0
    4.8000    1.3009   19.0660 C   0  0  0  0  0  0  0  0  0  0  0  0
    5.4087    1.3208   17.8056 C   0  0  0  0  0  0  0  0  0  0  0  0
    6.5260    0.6307   17.5261 N   0  0  0  0  0  0  0  0  0  0  0  0
    7.0838   -0.0754   18.5179 C   0  0  0  0  0  0  0  0  0  0  0  0
    7.9894   -0.6251   18.2676 H   0  0  0  0  0  0  0  0  0  0  0  0
    4.9778    1.9006   16.9922 H   0  0  0  0  0  0  0  0  0  0  0  0
    3.8927    1.8715   19.2286 H   0  0  0  0  0  0  0  0  0  0  0  0
    4.9294    0.4967   21.0884 H   0  0  0  0  0  0  0  0  0  0  0  0
   10.5062   -0.3029   20.7039 H   0  0  0  0  0  0  0  0  0  0  0  0
    9.3161    0.7069   19.8430 H   0  0  0  0  0  0  0  0  0  0  0  0
    9.0014    2.2322   22.3512 C   0  0  0  0  0  0  0  0  0  0  0  0
    7.6224    2.6050   21.8756 C   0  0  0  0  0  0  0  0  0  0  0  0
    7.3969    3.6417   22.1592 H   0  0  0  0  0  0  0  0  0  0  0  0
    6.8434    1.9869   22.3400 H   0  0  0  0  0  0  0  0  0  0  0  0
    7.5284    2.5125   20.7913 H   0  0  0  0  0  0  0  0  0  0  0  0
    9.7131    2.8180   23.3851 C   0  0  0  0  0  0  0  0  0  0  0  0
    9.2811    3.9749   24.2395 C   0  0  0  0  0  0  0  0  0  0  0  0
    8.2768    3.8256   24.6540 H   0  0  0  0  0  0  0  0  0  0  0  0
    9.9591    4.1368   25.0815 H   0  0  0  0  0  0  0  0  0  0  0  0
    9.2607    4.9104   23.6655 H   0  0  0  0  0  0  0  0  0  0  0  0
   12.5007    3.4052   24.1534 H   0  0  0  0  0  0  0  0  0  0  0  0
   12.9526    1.6925   23.9459 H   0  0  0  0  0  0  0  0  0  0  0  0
   11.9113    2.1893   25.3038 H   0  0  0  0  0  0  0  0  0  0  0  0
  1  2  1  0
  2  3  2  0
  3  4  1  0
  4  5  1  0
  5  6  1  0
  6  7  2  0
  7  8  1  0
  8  9  1  0
  9 10  1  0
 10 11  1  0
 10 12  1  0
 10 13  1  0
  9 14  1  0
 14 15  1  0
 15 16  1  0
 16 17  1  0
 16 18  1  0
 15 19  1  0
 15 20  1  0
 14 21  1  0
  9 22  1  0
  8 23  2  0
 23 24  1  0
 24 25  1  0
 25 26  2  0
 26 27  1  0
 27 28  2  0
 28 29  1  0
 29 30  2  0
 30 31  1  0
 28 32  1  0
 27 33  1  0
 26 34  1  0
  5 35  1  0
  5 36  1  0
  4 37  1  0
 37 38  1  0
 38 39  1  0
 38 40  1  0
 38 41  1  0
 37 42  2  0
 42 43  1  0
 43 44  1  0
 43 45  1  0
 43 46  1  0
  1 47  1  0
  1 48  1  0
  1 49  1  0
 42  2  1  0
 24  6  1  0
 30 25  1  0
 16 14  1  0
M  END
>  <cnnaffinity>  (1) 
-6.31249

>  <filename>  (1) 
Cc1nn(Cc2nc(C(C)C3CC3)nn2-c2cccnc2)c(C)c1C

$$$$
