
     RDKit          3D

 41 44  0  0  0  0  0  0  0  0999 V2000
    5.3151    3.5932   22.7113 C   0  0  0  0  0  0  0  0  0  0  0  0
    5.3431    2.3867   23.5815 C   0  0  0  0  0  0  0  0  0  0  0  0
    4.3894    2.1067   24.4635 N   0  0  0  0  0  0  0  0  0  0  0  0
    4.7603    0.9374   25.0102 N   0  0  0  0  0  0  0  0  0  0  0  0
    5.9211    0.4658   24.5008 C   0  0  0  0  0  0  0  0  0  0  0  0
    6.3326    1.3868   23.5615 C   0  0  0  0  0  0  0  0  0  0  0  0
    7.5408    1.2963   22.6573 C   0  0  0  0  0  0  0  0  0  0  0  0
    7.7218   -0.0916   22.1447 C   0  0  0  0  0  0  0  0  0  0  0  0
    8.2779   -1.0245   22.8838 N   0  0  0  0  0  0  0  0  0  0  0  0
    8.3120   -2.0966   22.0562 C   0  0  0  0  0  0  0  0  0  0  0  0
    8.9175   -3.3544   22.5588 C   0  0  0  0  0  0  0  0  0  0  0  0
    8.1644   -4.0571   23.7107 C   0  0  0  0  0  0  0  0  0  0  0  0
    9.2942   -4.8310   24.3887 C   0  0  0  0  0  0  0  0  0  0  0  0
   10.4815   -4.0842   24.1906 O   0  0  0  0  0  0  0  0  0  0  0  0
   10.2954   -3.0797   23.2153 C   0  0  0  0  0  0  0  0  0  0  0  0
   10.2832   -2.1079   23.7266 H   0  0  0  0  0  0  0  0  0  0  0  0
   11.1363   -3.0897   22.5079 H   0  0  0  0  0  0  0  0  0  0  0  0
    9.4034   -5.8259   23.9365 H   0  0  0  0  0  0  0  0  0  0  0  0
    9.1486   -4.9682   25.4655 H   0  0  0  0  0  0  0  0  0  0  0  0
    7.7359   -3.3166   24.3945 H   0  0  0  0  0  0  0  0  0  0  0  0
    7.3547   -4.7144   23.3732 H   0  0  0  0  0  0  0  0  0  0  0  0
    8.9572   -4.0382   21.7124 H   0  0  0  0  0  0  0  0  0  0  0  0
    7.8137   -1.8945   20.8545 N   0  0  0  0  0  0  0  0  0  0  0  0
    7.3825   -0.5984   20.9282 N   0  0  0  0  0  0  0  0  0  0  0  0
    6.6457    0.0191   19.8775 C   0  0  0  0  0  0  0  0  0  0  0  0
    5.4479    0.6984   20.1312 C   0  0  0  0  0  0  0  0  0  0  0  0
    4.8123    1.3423   19.0663 C   0  0  0  0  0  0  0  0  0  0  0  0
    5.4064    1.3032   17.8011 C   0  0  0  0  0  0  0  0  0  0  0  0
    6.5399    0.6268   17.5472 N   0  0  0  0  0  0  0  0  0  0  0  0
    7.1337   -0.0142   18.5588 C   0  0  0  0  0  0  0  0  0  0  0  0
    8.0462   -0.5599   18.3321 H   0  0  0  0  0  0  0  0  0  0  0  0
    4.9563    1.8353   16.9649 H   0  0  0  0  0  0  0  0  0  0  0  0
    3.8820    1.8811   19.2068 H   0  0  0  0  0  0  0  0  0  0  0  0
    5.0345    0.7240   21.1411 H   0  0  0  0  0  0  0  0  0  0  0  0
    8.4542    1.5232   23.2174 H   0  0  0  0  0  0  0  0  0  0  0  0
    7.4933    2.0226   21.8402 H   0  0  0  0  0  0  0  0  0  0  0  0
    6.3452   -0.4898   24.7710 H   0  0  0  0  0  0  0  0  0  0  0  0
    4.2234    0.5470   25.7655 H   0  0  0  0  0  0  0  0  0  0  0  0
    4.4952    4.2507   23.0005 H   0  0  0  0  0  0  0  0  0  0  0  0
    6.2627    4.1404   22.7785 H   0  0  0  0  0  0  0  0  0  0  0  0
    5.1901    3.2956   21.6615 H   0  0  0  0  0  0  0  0  0  0  0  0
  1  2  1  0
  2  3  2  0
  3  4  1  0
  4  5  1  0
  5  6  2  0
  6  7  1  0
  7  8  1  0
  8  9  2  0
  9 10  1  0
 10 11  1  0
 11 12  1  0
 12 13  1  0
 13 14  1  0
 14 15  1  0
 15 16  1  0
 15 17  1  0
 13 18  1  0
 13 19  1  0
 12 20  1  0
 12 21  1  0
 11 22  1  0
 10 23  2  0
 23 24  1  0
 24 25  1  0
 25 26  2  0
 26 27  1  0
 27 28  2  0
 28 29  1  0
 29 30  2  0
 30 31  1  0
 28 32  1  0
 27 33  1  0
 26 34  1  0
  7 35  1  0
  7 36  1  0
  5 37  1  0
  4 38  1  0
  1 39  1  0
  1 40  1  0
  1 41  1  0
  6  2  1  0
 24  8  1  0
 30 25  1  0
 15 11  1  0
M  END
>  <cnnaffinity>  (1) 
-5.72368

>  <filename>  (1) 
Cc1n[nH]cc1Cc1nc(C2CCOC2)nn1-c1cccnc1

$$$$
