
     RDKit          3D

 46 49  0  0  0  0  0  0  0  0999 V2000
   12.0878    2.4755   24.1766 C   0  0  0  0  0  0  0  0  0  0  0  0
   10.9094    2.2107   23.2972 C   0  0  0  0  0  0  0  0  0  0  0  0
   10.9697    1.2385   22.4065 N   0  0  0  0  0  0  0  0  0  0  0  0
    9.7911    1.2583   21.7635 N   0  0  0  0  0  0  0  0  0  0  0  0
    9.5374    0.2086   20.7900 C   0  0  0  0  0  0  0  0  0  0  0  0
    8.5072   -0.7457   21.2835 C   0  0  0  0  0  0  0  0  0  0  0  0
    8.7069   -1.5693   22.2830 N   0  0  0  0  0  0  0  0  0  0  0  0
    7.4910   -2.1567   22.4690 C   0  0  0  0  0  0  0  0  0  0  0  0
    7.2706   -3.1419   23.5583 C   0  0  0  0  0  0  0  0  0  0  0  0
    6.0161   -3.7514   23.7738 C   0  0  0  0  0  0  0  0  0  0  0  0
    5.8643   -4.7028   24.7864 C   0  0  0  0  0  0  0  0  0  0  0  0
    6.9463   -5.0504   25.6051 C   0  0  0  0  0  0  0  0  0  0  0  0
    8.1861   -4.4344   25.4109 C   0  0  0  0  0  0  0  0  0  0  0  0
    8.3491   -3.4865   24.4014 C   0  0  0  0  0  0  0  0  0  0  0  0
    9.3134   -3.0051   24.2466 H   0  0  0  0  0  0  0  0  0  0  0  0
    9.0336   -4.7015   26.0386 H   0  0  0  0  0  0  0  0  0  0  0  0
    6.8275   -5.8030   26.3812 H   0  0  0  0  0  0  0  0  0  0  0  0
    4.9029   -5.1856   24.9339 H   0  0  0  0  0  0  0  0  0  0  0  0
    5.1667   -3.4826   23.1478 H   0  0  0  0  0  0  0  0  0  0  0  0
    6.5604   -1.7474   21.6217 N   0  0  0  0  0  0  0  0  0  0  0  0
    7.2213   -0.8617   20.8343 N   0  0  0  0  0  0  0  0  0  0  0  0
    6.5414   -0.1613   19.8026 C   0  0  0  0  0  0  0  0  0  0  0  0
    5.3449    0.5163   20.0722 C   0  0  0  0  0  0  0  0  0  0  0  0
    4.7967    1.3039   19.0548 C   0  0  0  0  0  0  0  0  0  0  0  0
    5.4208    1.3317   17.8007 C   0  0  0  0  0  0  0  0  0  0  0  0
    6.5233    0.6189   17.5143 N   0  0  0  0  0  0  0  0  0  0  0  0
    7.0601   -0.1128   18.4990 C   0  0  0  0  0  0  0  0  0  0  0  0
    7.9424   -0.7030   18.2494 H   0  0  0  0  0  0  0  0  0  0  0  0
    5.0169    1.9248   16.9848 H   0  0  0  0  0  0  0  0  0  0  0  0
    3.9007    1.8950   19.2151 H   0  0  0  0  0  0  0  0  0  0  0  0
    4.8762    0.4239   21.0548 H   0  0  0  0  0  0  0  0  0  0  0  0
    9.3181    0.6487   19.8176 H   0  0  0  0  0  0  0  0  0  0  0  0
   10.4750   -0.3382   20.7007 H   0  0  0  0  0  0  0  0  0  0  0  0
    8.9682    2.2393   22.2361 C   0  0  0  0  0  0  0  0  0  0  0  0
    7.5860    2.5294   21.7281 C   0  0  0  0  0  0  0  0  0  0  0  0
    7.4501    2.2770   20.6717 H   0  0  0  0  0  0  0  0  0  0  0  0
    6.8391    1.9587   22.2974 H   0  0  0  0  0  0  0  0  0  0  0  0
    7.3703    3.5961   21.8632 H   0  0  0  0  0  0  0  0  0  0  0  0
    9.6540    2.8613   23.2723 C   0  0  0  0  0  0  0  0  0  0  0  0
    9.2103    4.0106   24.1388 C   0  0  0  0  0  0  0  0  0  0  0  0
    9.8906    4.1591   24.9834 H   0  0  0  0  0  0  0  0  0  0  0  0
    8.2147    3.8487   24.5677 H   0  0  0  0  0  0  0  0  0  0  0  0
    9.1747    4.9648   23.5944 H   0  0  0  0  0  0  0  0  0  0  0  0
   11.8510    2.2781   25.2284 H   0  0  0  0  0  0  0  0  0  0  0  0
   12.4186    3.5156   24.0666 H   0  0  0  0  0  0  0  0  0  0  0  0
   12.9013    1.8063   23.8866 H   0  0  0  0  0  0  0  0  0  0  0  0
  1  2  1  0
  2  3  2  0
  3  4  1  0
  4  5  1  0
  5  6  1  0
  6  7  2  0
  7  8  1  0
  8  9  1  0
  9 10  2  0
 10 11  1  0
 11 12  2  0
 12 13  1  0
 13 14  2  0
 14 15  1  0
 13 16  1  0
 12 17  1  0
 11 18  1  0
 10 19  1  0
  8 20  2  0
 20 21  1  0
 21 22  1  0
 22 23  2  0
 23 24  1  0
 24 25  2  0
 25 26  1  0
 26 27  2  0
 27 28  1  0
 25 29  1  0
 24 30  1  0
 23 31  1  0
  5 32  1  0
  5 33  1  0
  4 34  1  0
 34 35  1  0
 35 36  1  0
 35 37  1  0
 35 38  1  0
 34 39  2  0
 39 40  1  0
 40 41  1  0
 40 42  1  0
 40 43  1  0
  1 44  1  0
  1 45  1  0
  1 46  1  0
 39  2  1  0
 21  6  1  0
 27 22  1  0
 14  9  1  0
M  END
>  <cnnaffinity>  (1) 
-5.96269

>  <filename>  (1) 
Cc1nn(Cc2nc(-c3ccccc3)nn2-c2cccnc2)c(C)c1C

$$$$
