
     RDKit          3D

 38 41  0  0  0  0  0  0  0  0999 V2000
    8.2027    4.2455   24.2500 C   0  0  0  0  0  0  0  0  0  0  0  0
    8.4956    3.3625   23.0929 C   0  0  0  0  0  0  0  0  0  0  0  0
    9.2578    2.2996   23.1033 N   0  0  0  0  0  0  0  0  0  0  0  0
    9.1685    1.7647   21.8482 C   0  0  0  0  0  0  0  0  0  0  0  0
    9.7489    0.4360   21.4982 C   0  0  0  0  0  0  0  0  0  0  0  0
    8.7311   -0.6411   21.7192 C   0  0  0  0  0  0  0  0  0  0  0  0
    8.8216   -1.5264   22.6838 N   0  0  0  0  0  0  0  0  0  0  0  0
    7.6238   -2.1604   22.6566 C   0  0  0  0  0  0  0  0  0  0  0  0
    7.3071   -3.1896   23.6909 C   0  0  0  0  0  0  0  0  0  0  0  0
    6.7296   -4.5445   23.1969 C   0  0  0  0  0  0  0  0  0  0  0  0
    5.2073   -4.3347   24.1818 S   0  0  0  0  0  0  0  0  0  0  0  0
    6.1381   -2.8401   24.6634 C   0  0  0  0  0  0  0  0  0  0  0  0
    5.5970   -1.9128   24.4442 H   0  0  0  0  0  0  0  0  0  0  0  0
    6.4363   -2.8464   25.7185 H   0  0  0  0  0  0  0  0  0  0  0  0
    6.5384   -4.6208   22.1208 H   0  0  0  0  0  0  0  0  0  0  0  0
    7.3203   -5.4056   23.5302 H   0  0  0  0  0  0  0  0  0  0  0  0
    8.2476   -3.3252   24.2321 H   0  0  0  0  0  0  0  0  0  0  0  0
    6.8012   -1.7453   21.7207 N   0  0  0  0  0  0  0  0  0  0  0  0
    7.5183   -0.7753   21.0787 N   0  0  0  0  0  0  0  0  0  0  0  0
    6.8585   -0.0855   20.0021 C   0  0  0  0  0  0  0  0  0  0  0  0
    5.6342    0.5553   20.2482 C   0  0  0  0  0  0  0  0  0  0  0  0
    4.9928    1.2222   19.1999 C   0  0  0  0  0  0  0  0  0  0  0  0
    5.5939    1.2279   17.9364 C   0  0  0  0  0  0  0  0  0  0  0  0
    6.7485    0.5910   17.6854 N   0  0  0  0  0  0  0  0  0  0  0  0
    7.3509   -0.0691   18.6851 C   0  0  0  0  0  0  0  0  0  0  0  0
    8.2593   -0.6100   18.4160 H   0  0  0  0  0  0  0  0  0  0  0  0
    5.1344    1.7581   17.1004 H   0  0  0  0  0  0  0  0  0  0  0  0
    4.0472    1.7369   19.3478 H   0  0  0  0  0  0  0  0  0  0  0  0
    5.2133    0.5285   21.2526 H   0  0  0  0  0  0  0  0  0  0  0  0
   10.0740    0.4147   20.4624 H   0  0  0  0  0  0  0  0  0  0  0  0
   10.6074    0.2331   22.1445 H   0  0  0  0  0  0  0  0  0  0  0  0
    8.3411    2.5058   21.0698 C   0  0  0  0  0  0  0  0  0  0  0  0
    7.8992    3.5310   21.8816 N   0  0  0  0  0  0  0  0  0  0  0  0
    7.3210    4.3208   21.6454 H   0  0  0  0  0  0  0  0  0  0  0  0
    8.0313    2.3322   20.0542 H   0  0  0  0  0  0  0  0  0  0  0  0
    8.8168    3.9636   25.1107 H   0  0  0  0  0  0  0  0  0  0  0  0
    7.1461    4.1500   24.5182 H   0  0  0  0  0  0  0  0  0  0  0  0
    8.3914    5.2869   23.9844 H   0  0  0  0  0  0  0  0  0  0  0  0
  1  2  1  0
  2  3  2  0
  3  4  1  0
  4  5  1  0
  5  6  1  0
  6  7  2  0
  7  8  1  0
  8  9  1  0
  9 10  1  0
 10 11  1  0
 11 12  1  0
 12 13  1  0
 12 14  1  0
 10 15  1  0
 10 16  1  0
  9 17  1  0
  8 18  2  0
 18 19  1  0
 19 20  1  0
 20 21  2  0
 21 22  1  0
 22 23  2  0
 23 24  1  0
 24 25  2  0
 25 26  1  0
 23 27  1  0
 22 28  1  0
 21 29  1  0
  5 30  1  0
  5 31  1  0
  4 32  2  0
 32 33  1  0
 33 34  1  0
 32 35  1  0
  1 36  1  0
  1 37  1  0
  1 38  1  0
 33  2  1  0
 19  6  1  0
 25 20  1  0
 12  9  1  0
M  END
>  <cnnaffinity>  (1) 
-5.77506

>  <filename>  (1) 
Cc1nc(Cc2nc(C3CSC3)nn2-c2cccnc2)c[nH]1

$$$$
