
     RDKit          3D

 39 42  0  0  0  0  0  0  0  0999 V2000
    8.2588    4.3121   24.2014 C   0  0  0  0  0  0  0  0  0  0  0  0
    8.5003    3.3933   23.0597 C   0  0  0  0  0  0  0  0  0  0  0  0
    9.1803    2.2721   23.1089 N   0  0  0  0  0  0  0  0  0  0  0  0
    9.1342    1.7592   21.8436 C   0  0  0  0  0  0  0  0  0  0  0  0
    9.6987    0.4323   21.4994 C   0  0  0  0  0  0  0  0  0  0  0  0
    8.6796   -0.6296   21.7168 C   0  0  0  0  0  0  0  0  0  0  0  0
    8.7782   -1.5127   22.6687 N   0  0  0  0  0  0  0  0  0  0  0  0
    7.5787   -2.1565   22.6415 C   0  0  0  0  0  0  0  0  0  0  0  0
    7.2716   -3.1830   23.6409 C   0  0  0  0  0  0  0  0  0  0  0  0
    6.0484   -3.8752   23.7900 C   0  0  0  0  0  0  0  0  0  0  0  0
    5.9900   -4.7996   24.8295 C   0  0  0  0  0  0  0  0  0  0  0  0
    4.8718   -5.5070   25.0394 F   0  0  0  0  0  0  0  0  0  0  0  0
    7.0906   -5.0082   25.6748 C   0  0  0  0  0  0  0  0  0  0  0  0
    8.2370   -4.3381   25.5236 N   0  0  0  0  0  0  0  0  0  0  0  0
    8.3176   -3.4480   24.5342 C   0  0  0  0  0  0  0  0  0  0  0  0
    9.2459   -2.8986   24.4198 H   0  0  0  0  0  0  0  0  0  0  0  0
    7.0373   -5.7282   26.4895 H   0  0  0  0  0  0  0  0  0  0  0  0
    5.1732   -3.7156   23.1562 H   0  0  0  0  0  0  0  0  0  0  0  0
    6.7591   -1.7426   21.7035 N   0  0  0  0  0  0  0  0  0  0  0  0
    7.4764   -0.7666   21.0733 N   0  0  0  0  0  0  0  0  0  0  0  0
    6.8441   -0.0544   20.0049 C   0  0  0  0  0  0  0  0  0  0  0  0
    5.6220    0.5853   20.2459 C   0  0  0  0  0  0  0  0  0  0  0  0
    4.9938    1.2420   19.1878 C   0  0  0  0  0  0  0  0  0  0  0  0
    5.5976    1.2356   17.9273 C   0  0  0  0  0  0  0  0  0  0  0  0
    6.7559    0.6038   17.6831 N   0  0  0  0  0  0  0  0  0  0  0  0
    7.3546   -0.0359   18.6956 C   0  0  0  0  0  0  0  0  0  0  0  0
    8.2672   -0.5745   18.4402 H   0  0  0  0  0  0  0  0  0  0  0  0
    5.1374    1.7575   17.0908 H   0  0  0  0  0  0  0  0  0  0  0  0
    4.0503    1.7530   19.3318 H   0  0  0  0  0  0  0  0  0  0  0  0
    5.1793    0.5291   21.2409 H   0  0  0  0  0  0  0  0  0  0  0  0
   10.5548    0.2181   22.1406 H   0  0  0  0  0  0  0  0  0  0  0  0
   10.0326    0.4008   20.4678 H   0  0  0  0  0  0  0  0  0  0  0  0
    8.3944    2.5473   21.0306 C   0  0  0  0  0  0  0  0  0  0  0  0
    8.0051    3.6158   21.8116 N   0  0  0  0  0  0  0  0  0  0  0  0
    7.4592    4.4100   21.5186 H   0  0  0  0  0  0  0  0  0  0  0  0
    8.0824    2.3606   20.0183 H   0  0  0  0  0  0  0  0  0  0  0  0
    8.2933    3.7299   25.1234 H   0  0  0  0  0  0  0  0  0  0  0  0
    7.2813    4.7919   24.1070 H   0  0  0  0  0  0  0  0  0  0  0  0
    9.0279    5.0882   24.2551 H   0  0  0  0  0  0  0  0  0  0  0  0
  1  2  1  0
  2  3  2  0
  3  4  1  0
  4  5  1  0
  5  6  1  0
  6  7  2  0
  7  8  1  0
  8  9  1  0
  9 10  2  0
 10 11  1  0
 11 12  1  0
 11 13  2  0
 13 14  1  0
 14 15  2  0
 15 16  1  0
 13 17  1  0
 10 18  1  0
  8 19  2  0
 19 20  1  0
 20 21  1  0
 21 22  2  0
 22 23  1  0
 23 24  2  0
 24 25  1  0
 25 26  2  0
 26 27  1  0
 24 28  1  0
 23 29  1  0
 22 30  1  0
  5 31  1  0
  5 32  1  0
  4 33  2  0
 33 34  1  0
 34 35  1  0
 33 36  1  0
  1 37  1  0
  1 38  1  0
  1 39  1  0
 34  2  1  0
 20  6  1  0
 26 21  1  0
 15  9  1  0
M  END
>  <cnnaffinity>  (1) 
-6.06482

>  <filename>  (1) 
Cc1nc(Cc2nc(-c3cncc(F)c3)nn2-c2cccnc2)c[nH]1

$$$$
