
     RDKit          3D

 42 45  0  0  0  0  0  0  0  0999 V2000
    6.3924   -5.7172   24.7401 C   0  0  0  0  0  0  0  0  0  0  0  0
    6.3394   -5.7956   24.5706 C   0  0  0  0  0  0  0  0  0  0  0  0
    8.2824   -3.8390   24.7388 N   0  0  0  0  0  0  0  0  0  0  0  0
    7.3483   -3.0442   24.4646 C   0  0  0  0  0  0  0  0  0  0  0  0
    7.6553   -1.4844   24.3337 C   0  0  0  0  0  0  0  0  0  0  0  0
    7.6898   -1.1823   22.8895 C   0  0  0  0  0  0  0  0  0  0  0  0
    6.7444   -0.5813   22.1998 N   0  0  0  0  0  0  0  0  0  0  0  0
    7.2391   -0.5587   20.9366 C   0  0  0  0  0  0  0  0  0  0  0  0
    6.5322    0.0689   19.8224 C   0  0  0  0  0  0  0  0  0  0  0  0
    5.3132    0.7500   19.9784 C   0  0  0  0  0  0  0  0  0  0  0  0
    4.7735    1.3820   18.8608 C   0  0  0  0  0  0  0  0  0  0  0  0
    5.4565    1.3028   17.6412 C   0  0  0  0  0  0  0  0  0  0  0  0
    6.6028    0.6251   17.4762 N   0  0  0  0  0  0  0  0  0  0  0  0
    7.1230    0.0257   18.5500 C   0  0  0  0  0  0  0  0  0  0  0  0
    8.0568   -0.5150   18.3999 H   0  0  0  0  0  0  0  0  0  0  0  0
    5.0654    1.8004   16.7566 H   0  0  0  0  0  0  0  0  0  0  0  0
    3.8518    1.9506   18.9225 H   0  0  0  0  0  0  0  0  0  0  0  0
    4.8167    0.7934   20.9512 H   0  0  0  0  0  0  0  0  0  0  0  0
    8.4306   -1.1234   20.8131 N   0  0  0  0  0  0  0  0  0  0  0  0
    8.7027   -1.5406   22.0658 N   0  0  0  0  0  0  0  0  0  0  0  0
   10.0055   -2.1300   22.3607 C   0  0  0  0  0  0  0  0  0  0  0  0
   11.0155   -1.1104   22.8294 C   0  0  0  0  0  0  0  0  0  0  0  0
   12.0078   -0.6059   21.9714 C   0  0  0  0  0  0  0  0  0  0  0  0
   12.9106    0.3383   22.4666 C   0  0  0  0  0  0  0  0  0  0  0  0
   12.7914    0.7395   23.7988 C   0  0  0  0  0  0  0  0  0  0  0  0
   11.7762    0.1768   24.5749 C   0  0  0  0  0  0  0  0  0  0  0  0
   10.8971   -0.7196   24.1080 N   0  0  0  0  0  0  0  0  0  0  0  0
   11.6623    0.4470   25.6222 H   0  0  0  0  0  0  0  0  0  0  0  0
   13.4520    1.4791   24.2353 H   0  0  0  0  0  0  0  0  0  0  0  0
   13.6894    0.7648   21.8358 H   0  0  0  0  0  0  0  0  0  0  0  0
   12.0632   -0.9670   20.9478 H   0  0  0  0  0  0  0  0  0  0  0  0
    9.8643   -2.8870   23.1359 H   0  0  0  0  0  0  0  0  0  0  0  0
   10.3187   -2.6095   21.4327 H   0  0  0  0  0  0  0  0  0  0  0  0
    6.8712   -0.8807   24.7993 H   0  0  0  0  0  0  0  0  0  0  0  0
    8.6205   -1.2476   24.7981 H   0  0  0  0  0  0  0  0  0  0  0  0
    5.9365   -3.3122   24.2204 C   0  0  0  0  0  0  0  0  0  0  0  0
    5.4963   -4.6422   24.3400 N   0  0  0  0  0  0  0  0  0  0  0  0
    4.7856   -4.7341   25.0166 H   0  0  0  0  0  0  0  0  0  0  0  0
    5.2226   -2.5726   23.9290 H   0  0  0  0  0  0  0  0  0  0  0  0
    7.5800   -6.1185   24.6891 H   0  0  0  0  0  0  0  0  0  0  0  0
    5.9620   -6.7349   25.3650 H   0  0  0  0  0  0  0  0  0  0  0  0
    6.3503   -6.5402   23.5994 H   0  0  0  0  0  0  0  0  0  0  0  0
  1  2  1  0
  2  3  2  0
  3  4  1  0
  4  5  1  0
  5  6  1  0
  6  7  2  0
  7  8  1  0
  8  9  1  0
  9 10  2  0
 10 11  1  0
 11 12  2  0
 12 13  1  0
 13 14  2  0
 14 15  1  0
 12 16  1  0
 11 17  1  0
 10 18  1  0
  8 19  2  0
 19 20  1  0
 20 21  1  0
 21 22  1  0
 22 23  2  0
 23 24  1  0
 24 25  2  0
 25 26  1  0
 26 27  2  0
 26 28  1  0
 25 29  1  0
 24 30  1  0
 23 31  1  0
 21 32  1  0
 21 33  1  0
  5 34  1  0
  5 35  1  0
  4 36  2  0
 36 37  1  0
 37 38  1  0
 36 39  1  0
  1 40  1  0
  1 41  1  0
  1 42  1  0
 37  2  1  0
 20  6  1  0
 27 22  1  0
 14  9  1  0
M  END
>  <cnnaffinity>  (1) 
-6.28264

>  <filename>  (1) 
Cc1nc(Cc2nc(-c3cccnc3)nn2Cc2ccccn2)c[nH]1

$$$$
