
     RDKit          3D

 42 45  0  0  0  0  0  0  0  0999 V2000
    5.0641   -1.1850   26.3633 C   0  0  0  0  0  0  0  0  0  0  0  0
    5.7909   -0.0039   25.8492 C   0  0  0  0  0  0  0  0  0  0  0  0
    6.4752    0.8716   26.5094 N   0  0  0  0  0  0  0  0  0  0  0  0
    6.9220    1.7573   25.5370 C   0  0  0  0  0  0  0  0  0  0  0  0
    6.4514    1.3746   24.3255 C   0  0  0  0  0  0  0  0  0  0  0  0
    6.6547    1.7456   22.8955 C   0  0  0  0  0  0  0  0  0  0  0  0
    7.7025    0.8425   22.3308 C   0  0  0  0  0  0  0  0  0  0  0  0
    8.9720    0.9916   22.6238 N   0  0  0  0  0  0  0  0  0  0  0  0
    9.5530   -0.1240   22.0975 C   0  0  0  0  0  0  0  0  0  0  0  0
   11.0169   -0.3492   22.2219 C   0  0  0  0  0  0  0  0  0  0  0  0
   11.7082   -1.3178   21.4627 C   0  0  0  0  0  0  0  0  0  0  0  0
   13.0945   -1.3883   21.5818 C   0  0  0  0  0  0  0  0  0  0  0  0
   13.7845   -2.2434   20.8145 F   0  0  0  0  0  0  0  0  0  0  0  0
   13.8188   -0.6027   22.4737 C   0  0  0  0  0  0  0  0  0  0  0  0
   13.1008    0.3096   23.2403 C   0  0  0  0  0  0  0  0  0  0  0  0
   13.7560    1.0444   24.1449 F   0  0  0  0  0  0  0  0  0  0  0  0
   11.7288    0.4829   23.1078 C   0  0  0  0  0  0  0  0  0  0  0  0
   11.2035    1.2501   23.6718 H   0  0  0  0  0  0  0  0  0  0  0  0
   14.8871   -0.7307   22.5846 H   0  0  0  0  0  0  0  0  0  0  0  0
   11.1879   -2.0037   20.8035 H   0  0  0  0  0  0  0  0  0  0  0  0
    8.7048   -0.9313   21.4830 N   0  0  0  0  0  0  0  0  0  0  0  0
    7.5139   -0.3056   21.6533 N   0  0  0  0  0  0  0  0  0  0  0  0
    6.3133   -0.7994   20.9923 C   0  0  0  0  0  0  0  0  0  0  0  0
    5.9192    0.0032   19.7702 C   0  0  0  0  0  0  0  0  0  0  0  0
    4.7354    0.7384   19.6690 C   0  0  0  0  0  0  0  0  0  0  0  0
    4.5271    1.5232   18.5313 C   0  0  0  0  0  0  0  0  0  0  0  0
    5.4988    1.5181   17.5275 C   0  0  0  0  0  0  0  0  0  0  0  0
    6.6108    0.7691   17.5743 N   0  0  0  0  0  0  0  0  0  0  0  0
    6.8003    0.0376   18.6771 C   0  0  0  0  0  0  0  0  0  0  0  0
    7.7055   -0.5663   18.6994 H   0  0  0  0  0  0  0  0  0  0  0  0
    5.3679    2.1243   16.6354 H   0  0  0  0  0  0  0  0  0  0  0  0
    3.6463    2.1457   18.4212 H   0  0  0  0  0  0  0  0  0  0  0  0
    3.9849    0.6964   20.4605 H   0  0  0  0  0  0  0  0  0  0  0  0
    6.5386   -1.8332   20.7222 H   0  0  0  0  0  0  0  0  0  0  0  0
    5.5140   -0.8168   21.7332 H   0  0  0  0  0  0  0  0  0  0  0  0
    6.9991    2.7765   22.8095 H   0  0  0  0  0  0  0  0  0  0  0  0
    5.7206    1.6550   22.3390 H   0  0  0  0  0  0  0  0  0  0  0  0
    5.7415    0.2289   24.5177 O   0  0  0  0  0  0  0  0  0  0  0  0
    7.5807    2.5776   25.7810 H   0  0  0  0  0  0  0  0  0  0  0  0
    5.5490   -1.5378   27.2723 H   0  0  0  0  0  0  0  0  0  0  0  0
    4.0333   -0.9191   26.6130 H   0  0  0  0  0  0  0  0  0  0  0  0
    5.0404   -1.9751   25.6131 H   0  0  0  0  0  0  0  0  0  0  0  0
  1  2  1  0
  2  3  2  0
  3  4  1  0
  4  5  2  0
  5  6  1  0
  6  7  1  0
  7  8  2  0
  8  9  1  0
  9 10  1  0
 10 11  2  0
 11 12  1  0
 12 13  1  0
 12 14  2  0
 14 15  1  0
 15 16  1  0
 15 17  2  0
 17 18  1  0
 14 19  1  0
 11 20  1  0
  9 21  2  0
 21 22  1  0
 22 23  1  0
 23 24  1  0
 24 25  2  0
 25 26  1  0
 26 27  2  0
 27 28  1  0
 28 29  2  0
 29 30  1  0
 27 31  1  0
 26 32  1  0
 25 33  1  0
 23 34  1  0
 23 35  1  0
  6 36  1  0
  6 37  1  0
  5 38  1  0
  4 39  1  0
  1 40  1  0
  1 41  1  0
  1 42  1  0
 38  2  1  0
 22  7  1  0
 29 24  1  0
 17 10  1  0
M  END
>  <cnnaffinity>  (1) 
-6.02672

>  <filename>  (1) 
Cc1ncc(Cc2nc(-c3cc(F)cc(F)c3)nn2Cc2cccnc2)o1

$$$$
