
     RDKit          3D

 43 47  0  0  0  0  0  0  0  0999 V2000
   11.8122   -1.7580   21.2835 C   0  0  0  0  0  0  0  0  0  0  0  0
   11.4948   -0.3288   21.6138 C   0  0  0  0  0  0  0  0  0  0  0  0
   12.4693    0.2993   22.2903 N   0  0  0  0  0  0  0  0  0  0  0  0
   12.2767    1.5552   22.6453 C   0  0  0  0  0  0  0  0  0  0  0  0
   13.5583    2.3378   23.5094 Cl  0  0  0  0  0  0  0  0  0  0  0  0
   11.1011    2.2661   22.4197 C   0  0  0  0  0  0  0  0  0  0  0  0
   10.0971    1.6131   21.7148 C   0  0  0  0  0  0  0  0  0  0  0  0
   10.2981    0.3173   21.2307 C   0  0  0  0  0  0  0  0  0  0  0  0
    9.2293   -0.3062   20.3363 C   0  0  0  0  0  0  0  0  0  0  0  0
    8.1713   -1.1319   21.0285 C   0  0  0  0  0  0  0  0  0  0  0  0
    8.3573   -1.9456   22.0489 N   0  0  0  0  0  0  0  0  0  0  0  0
    7.1073   -2.4225   22.3034 C   0  0  0  0  0  0  0  0  0  0  0  0
    6.7333   -3.2404   23.4759 C   0  0  0  0  0  0  0  0  0  0  0  0
    6.3326   -4.6735   23.3823 C   0  0  0  0  0  0  0  0  0  0  0  0
    7.6733   -4.3141   24.0638 C   0  0  0  0  0  0  0  0  0  0  0  0
    8.7834   -3.8822   24.9873 C   0  0  0  0  0  0  0  0  0  0  0  0
    8.6535   -5.3332   24.6204 C   0  0  0  0  0  0  0  0  0  0  0  0
    9.3888   -5.7875   23.9645 H   0  0  0  0  0  0  0  0  0  0  0  0
    8.2297   -6.0125   25.3621 H   0  0  0  0  0  0  0  0  0  0  0  0
    9.5355   -3.3008   24.4522 H   0  0  0  0  0  0  0  0  0  0  0  0
    8.5197   -3.5149   25.9791 H   0  0  0  0  0  0  0  0  0  0  0  0
    6.3773   -5.1802   22.4159 H   0  0  0  0  0  0  0  0  0  0  0  0
    5.5538   -5.0413   24.0522 H   0  0  0  0  0  0  0  0  0  0  0  0
    6.2009   -2.6480   24.2258 H   0  0  0  0  0  0  0  0  0  0  0  0
    6.1700   -1.9759   21.4910 N   0  0  0  0  0  0  0  0  0  0  0  0
    6.8554   -1.1725   20.6442 N   0  0  0  0  0  0  0  0  0  0  0  0
    6.1774   -0.4276   19.6413 C   0  0  0  0  0  0  0  0  0  0  0  0
    5.1023    0.4102   19.9646 C   0  0  0  0  0  0  0  0  0  0  0  0
    4.6480    1.2937   18.9817 C   0  0  0  0  0  0  0  0  0  0  0  0
    5.2497    1.2795   17.7157 C   0  0  0  0  0  0  0  0  0  0  0  0
    6.2061    0.4008   17.3736 N   0  0  0  0  0  0  0  0  0  0  0  0
    6.6259   -0.4554   18.3100 C   0  0  0  0  0  0  0  0  0  0  0  0
    7.3692   -1.1917   18.0050 H   0  0  0  0  0  0  0  0  0  0  0  0
    4.9489    1.9917   16.9503 H   0  0  0  0  0  0  0  0  0  0  0  0
    3.8553    2.0049   19.1898 H   0  0  0  0  0  0  0  0  0  0  0  0
    4.6640    0.3715   20.9623 H   0  0  0  0  0  0  0  0  0  0  0  0
    9.6759   -0.9429   19.5694 H   0  0  0  0  0  0  0  0  0  0  0  0
    8.7342    0.4938   19.7772 H   0  0  0  0  0  0  0  0  0  0  0  0
    9.1615    2.1320   21.5133 H   0  0  0  0  0  0  0  0  0  0  0  0
   11.0093    3.2879   22.7551 H   0  0  0  0  0  0  0  0  0  0  0  0
   12.5970   -1.7891   20.5208 H   0  0  0  0  0  0  0  0  0  0  0  0
   10.9292   -2.2930   20.9308 H   0  0  0  0  0  0  0  0  0  0  0  0
   12.2053   -2.2691   22.1671 H   0  0  0  0  0  0  0  0  0  0  0  0
  1  2  1  0
  2  3  2  0
  3  4  1  0
  4  5  1  0
  4  6  2  0
  6  7  1  0
  7  8  2  0
  8  9  1  0
  9 10  1  0
 10 11  2  0
 11 12  1  0
 12 13  1  0
 13 14  1  0
 14 15  1  0
 15 16  1  0
 16 17  1  0
 17 18  1  0
 17 19  1  0
 16 20  1  0
 16 21  1  0
 14 22  1  0
 14 23  1  0
 13 24  1  0
 12 25  2  0
 25 26  1  0
 26 27  1  0
 27 28  2  0
 28 29  1  0
 29 30  2  0
 30 31  1  0
 31 32  2  0
 32 33  1  0
 30 34  1  0
 29 35  1  0
 28 36  1  0
  9 37  1  0
  9 38  1  0
  7 39  1  0
  6 40  1  0
  1 41  1  0
  1 42  1  0
  1 43  1  0
  8  2  1  0
 26 10  1  0
 32 27  1  0
 15 13  1  0
 17 15  1  0
M  END
>  <cnnaffinity>  (1) 
-6.72543

>  <filename>  (1) 
Cc1nc(Cl)ccc1Cc1nc(C2CC23CC3)nn1-c1cccnc1

$$$$
